=
 OpenBabel11052420343D

 34 39  0  0  1  0  0  0  0  0999 V2000
  192.5070  174.5770  144.6830 C   0  0  2  0  0  3  0  0  0  0  0  0
  195.9290  176.1460  144.3170 C   0  0  0  0  0  3  0  0  0  0  0  0
  193.7970  177.0060  145.2970 C   0  0  0  0  0  2  0  0  0  0  0  0
  190.1360  175.9770  145.2110 C   0  0  2  0  0  3  0  0  0  0  0  0
  191.2410  175.5900  143.8000 S   0  0  0  0  0  0  0  0  0  0  0  0
  191.4110  174.8110  147.0560 C   0  0  1  0  0  3  0  0  0  0  0  0
  191.5370  175.9590  148.0460 C   0  0  0  0  0  2  0  0  0  0  0  0
  190.0910  174.8980  146.2920 C   0  0  2  0  0  3  0  0  0  0  0  0
  189.6920  173.5330  145.7510 C   0  0  0  0  0  1  0  0  0  0  0  0
  193.4240  176.1660  146.5270 C   0  0  2  0  0  3  0  0  0  0  0  0
  192.6660  174.8780  146.1850 C   0  0  2  0  0  3  0  0  0  0  0  0
  192.5090  176.9590  147.4400 C   0  0  0  0  0  2  0  0  0  0  0  0
  196.7330  175.6830  143.3480 C   0  0  0  0  0  3  0  0  0  0  0  0
  196.2210  175.1750  142.0250 C   0  0  2  0  0  3  0  0  0  0  0  0
  195.3700  173.9150  142.1920 C   0  0  0  0  0  2  0  0  0  0  0  0
  194.4400  176.1810  144.1700 C   0  0  2  0  0  3  0  0  0  0  0  0
  193.9380  174.2460  142.6060 C   0  0  0  0  0  2  0  0  0  0  0  0
  193.8880  174.7460  144.0460 C   0  0  2  0  0  3  0  0  0  0  0  0
  186.4790  177.0410  145.2460 C   0  0  0  0  0  3  0  0  0  0  0  0
  188.5340  176.5830  143.3930 C   0  0  0  0  0  3  0  0  0  0  0  0
  184.7400  177.8240  142.0690 C   0  0  0  0  0  0  0  0  0  0  0  0
  184.9800  177.6330  143.4380 C   0  0  0  0  0  3  0  0  0  0  0  0
  186.2390  177.2240  143.8820 C   0  0  0  0  0  0  0  0  0  0  0  0
  187.0370  177.1890  141.5850 C   0  0  0  0  0  3  0  0  0  0  0  0
  187.2750  176.9970  142.9480 C   0  0  0  0  0  0  0  0  0  0  0  0
  185.7750  177.6020  141.1460 C   0  0  0  0  0  3  0  0  0  0  0  0
  188.7700  176.3900  144.7570 C   0  0  0  0  0  0  0  0  0  0  0  0
  187.7410  176.6300  145.6830 C   0  0  0  0  0  3  0  0  0  0  0  0
  183.4110  178.2600  141.6100 C   0  0  0  0  0  0  0  0  0  0  0  0
  182.5220  178.5810  142.4440 O   0  0  0  0  0  1  0  0  0  0  0  0
  183.1250  178.3230  140.2520 O   0  0  0  0  0  0  0  0  0  0  0  0
  197.3660  174.8870  141.1140 C   0  0  0  0  0  0  0  0  0  0  0  0
  197.7970  175.7890  140.3490 O   0  0  0  0  0  0  0  0  0  0  0  0
  197.9410  173.6220  141.0800 O   0  0  0  0  0  1  0  0  0  0  0  0
  1  5  1  6  0  0  0
  1 11  1  0  0  0  0
  4 27  1  6  0  0  0
  4  8  1  0  0  0  0
  5  4  1  0  0  0  0
  6  7  1  1  0  0  0
  8  9  1  6  0  0  0
  8  6  1  0  0  0  0
 10  3  1  6  0  0  0
 10 12  1  0  0  0  0
 11 10  1  0  0  0  0
 11  6  1  0  0  0  0
 12  7  1  0  0  0  0
 13  2  2  0  0  0  0
 14 15  1  0  0  0  0
 14 13  1  0  0  0  0
 15 17  1  0  0  0  0
 16  2  1  0  0  0  0
 16  3  1  0  0  0  0
 17 18  1  0  0  0  0
 18 16  1  0  0  0  0
 18  1  1  0  0  0  0
 19 28  1  0  0  0  0
 20 27  1  0  0  0  0
 21 22  2  0  0  0  0
 22 23  1  0  0  0  0
 23 19  2  0  0  0  0
 24 25  1  0  0  0  0
 25 20  2  0  0  0  0
 25 23  1  0  0  0  0
 26 24  2  0  0  0  0
 26 21  1  0  0  0  0
 27 28  2  0  0  0  0
 29 21  1  0  0  0  0
 29 30  1  0  0  0  0
 31 29  2  0  0  0  0
 32 14  1  0  0  0  0
 33 32  2  0  0  0  0
 34 32  1  0  0  0  0
M  END
>  <MODEL>
1

>  <REMARK>
 VINA RESULT:      -8.8      0.000      0.000
  Name = 
  3 active torsions:
  status: ('A' for Active; 'I' for Inactive)
    1  A    between atoms: C_3  and  C_25
    2  A    between atoms: C_7  and  C_11
    3  A    between atoms: C_8  and  C_30
                            x       y       z     vdW  Elec       q    Type
                         _______ _______ _______ _____ _____    ______ ____

>  <TORSDO>
F 3

$$$$
=
 OpenBabel11052420343D

 34 39  0  0  1  0  0  0  0  0999 V2000
  188.3090  177.2500  143.3510 C   0  0  2  0  0  3  0  0  0  0  0  0
  184.7930  178.1360  144.4280 C   0  0  0  0  0  3  0  0  0  0  0  0
  186.5790  176.7730  145.5230 C   0  0  0  0  0  2  0  0  0  0  0  0
  189.8580  175.1810  144.4370 C   0  0  2  0  0  3  0  0  0  0  0  0
  188.4990  175.4180  143.2310 S   0  0  0  0  0  0  0  0  0  0  0  0
  190.1620  177.5790  145.1810 C   0  0  1  0  0  3  0  0  0  0  0  0
  190.0450  177.3970  146.6860 C   0  0  0  0  0  2  0  0  0  0  0  0
  190.8250  176.3610  144.5390 C   0  0  2  0  0  3  0  0  0  0  0  0
  191.4500  176.7320  143.2030 C   0  0  0  0  0  1  0  0  0  0  0  0
  187.7750  177.6730  145.8610 C   0  0  2  0  0  3  0  0  0  0  0  0
  188.7450  177.8750  144.6900 C   0  0  2  0  0  3  0  0  0  0  0  0
  188.5930  177.0550  146.9780 C   0  0  0  0  0  2  0  0  0  0  0  0
  183.9050  178.4510  143.4740 C   0  0  0  0  0  3  0  0  0  0  0  0
  183.9150  177.8320  142.1010 C   0  0  2  0  0  3  0  0  0  0  0  0
  185.1770  178.2030  141.3210 C   0  0  0  0  0  2  0  0  0  0  0  0
  185.8920  177.1460  144.1990 C   0  0  2  0  0  3  0  0  0  0  0  0
  186.3660  177.3280  141.7120 C   0  0  0  0  0  2  0  0  0  0  0  0
  186.8570  177.6690  143.1140 C   0  0  2  0  0  3  0  0  0  0  0  0
  190.7270  171.6880  143.1920 C   0  0  0  0  0  3  0  0  0  0  0  0
  191.7950  173.6650  144.8710 C   0  0  0  0  0  3  0  0  0  0  0  0
  193.8720  170.0560  144.2800 C   0  0  0  0  0  0  0  0  0  0  0  0
  192.6410  170.2720  143.6420 C   0  0  0  0  0  3  0  0  0  0  0  0
  191.9490  171.4710  143.8330 C   0  0  0  0  0  0  0  0  0  0  0  0
  193.7160  172.2540  145.3100 C   0  0  0  0  0  3  0  0  0  0  0  0
  192.4900  172.4680  144.6760 C   0  0  0  0  0  0  0  0  0  0  0  0
  194.4050  171.0530  145.1120 C   0  0  0  0  0  3  0  0  0  0  0  0
  190.5670  173.8780  144.2370 C   0  0  0  0  0  0  0  0  0  0  0  0
  190.0410  172.8890  143.3890 C   0  0  0  0  0  3  0  0  0  0  0  0
  194.5960  168.7920  144.0680 C   0  0  0  0  0  0  0  0  0  0  0  0
  195.0850  168.1660  145.0460 O   0  0  0  0  0  1  0  0  0  0  0  0
  194.7470  168.2780  142.7860 O   0  0  0  0  0  0  0  0  0  0  0  0
  182.7100  178.2690  141.3370 C   0  0  0  0  0  0  0  0  0  0  0  0
  182.6550  178.0740  140.0940 O   0  0  0  0  0  0  0  0  0  0  0  0
  181.6630  178.9180  141.9800 O   0  0  0  0  0  1  0  0  0  0  0  0
  1  5  1  1  0  0  0
  1 11  1  0  0  0  0
  4 27  1  6  0  0  0
  4  8  1  0  0  0  0
  5  4  1  0  0  0  0
  6  7  1  1  0  0  0
  7 12  1  0  0  0  0
  8  9  1  6  0  0  0
  8  6  1  0  0  0  0
 10  3  1  6  0  0  0
 10 12  1  0  0  0  0
 11  6  1  0  0  0  0
 11 10  1  0  0  0  0
 13  2  2  0  0  0  0
 14 13  1  0  0  0  0
 15 17  1  0  0  0  0
 15 14  1  0  0  0  0
 16  2  1  0  0  0  0
 16  3  1  0  0  0  0
 17 18  1  0  0  0  0
 18  1  1  0  0  0  0
 18 16  1  0  0  0  0
 19 28  2  0  0  0  0
 19 23  1  0  0  0  0
 21 26  1  0  0  0  0
 22 23  1  0  0  0  0
 22 21  2  0  0  0  0
 23 25  2  0  0  0  0
 25 20  1  0  0  0  0
 25 24  1  0  0  0  0
 26 24  2  0  0  0  0
 27 20  2  0  0  0  0
 28 27  1  0  0  0  0
 29 21  1  0  0  0  0
 29 30  1  0  0  0  0
 31 29  2  0  0  0  0
 32 34  1  0  0  0  0
 32 14  1  0  0  0  0
 33 32  2  0  0  0  0
M  END
>  <MODEL>
2

>  <REMARK>
 VINA RESULT:      -8.6      3.137      9.675
  Name = 
  3 active torsions:
  status: ('A' for Active; 'I' for Inactive)
    1  A    between atoms: C_3  and  C_25
    2  A    between atoms: C_7  and  C_11
    3  A    between atoms: C_8  and  C_30
                            x       y       z     vdW  Elec       q    Type
                         _______ _______ _______ _____ _____    ______ ____

>  <TORSDO>
F 3

$$$$
=
 OpenBabel11052420343D

 34 39  0  0  1  0  0  0  0  0999 V2000
  193.4720  173.7780  145.7130 C   0  0  2  0  0  3  0  0  0  0  0  0
  196.1880  172.4420  143.4440 C   0  0  0  0  0  3  0  0  0  0  0  0
  195.0520  174.6660  143.5560 C   0  0  0  0  0  2  0  0  0  0  0  0
  191.9230  176.0590  145.2080 C   0  0  2  0  0  3  0  0  0  0  0  0
  192.0050  174.2940  144.7190 S   0  0  0  0  0  0  0  0  0  0  0  0
  193.9310  176.1480  146.7420 C   0  0  1  0  0  3  0  0  0  0  0  0
  194.6760  177.3190  146.1200 C   0  0  0  0  0  2  0  0  0  0  0  0
  192.4200  176.3450  146.6250 C   0  0  2  0  0  3  0  0  0  0  0  0
  191.6900  175.5350  147.6850 C   0  0  0  0  0  1  0  0  0  0  0  0
  195.3820  175.3420  144.8940 C   0  0  2  0  0  3  0  0  0  0  0  0
  194.4740  174.8990  146.0480 C   0  0  2  0  0  3  0  0  0  0  0  0
  195.2040  176.8430  144.7760 C   0  0  0  0  0  2  0  0  0  0  0  0
  196.2660  171.1140  143.2730 C   0  0  0  0  0  3  0  0  0  0  0  0
  195.0610  170.2110  143.2710 C   0  0  2  0  0  3  0  0  0  0  0  0
  194.3670  170.1900  144.6340 C   0  0  0  0  0  2  0  0  0  0  0  0
  194.8840  173.1420  143.6700 C   0  0  2  0  0  3  0  0  0  0  0  0
  193.4490  171.3940  144.8240 C   0  0  0  0  0  2  0  0  0  0  0  0
  194.2570  172.6750  145.0000 C   0  0  2  0  0  3  0  0  0  0  0  0
  189.0730  177.9880  143.5750 C   0  0  0  0  0  3  0  0  0  0  0  0
  189.5170  176.3560  145.8120 C   0  0  0  0  0  3  0  0  0  0  0  0
  185.6860  177.9270  145.0780 C   0  0  0  0  0  0  0  0  0  0  0  0
  186.7460  178.2220  144.2070 C   0  0  0  0  0  3  0  0  0  0  0  0
  188.0200  177.6990  144.4460 C   0  0  0  0  0  0  0  0  0  0  0  0
  187.1860  176.5790  146.4370 C   0  0  0  0  0  3  0  0  0  0  0  0
  188.2420  176.8740  145.5710 C   0  0  0  0  0  0  0  0  0  0  0  0
  185.9130  177.1020  146.1910 C   0  0  0  0  0  3  0  0  0  0  0  0
  190.5740  176.6530  144.9460 C   0  0  0  0  0  0  0  0  0  0  0  0
  190.3440  177.4630  143.8210 C   0  0  0  0  0  3  0  0  0  0  0  0
  184.3460  178.4780  144.8150 C   0  0  0  0  0  0  0  0  0  0  0  0
  183.6270  178.8850  145.7660 O   0  0  0  0  0  1  0  0  0  0  0  0
  183.8620  178.5530  143.5150 O   0  0  0  0  0  0  0  0  0  0  0  0
  195.4660  168.8240  142.8960 C   0  0  0  0  0  0  0  0  0  0  0  0
  196.3090  168.2090  143.6010 O   0  0  0  0  0  1  0  0  0  0  0  0
  194.9450  168.2190  141.7590 O   0  0  0  0  0  0  0  0  0  0  0  0
  1  5  1  6  0  0  0
  1 11  1  0  0  0  0
  2 16  1  0  0  0  0
  3 16  1  0  0  0  0
  4 27  1  1  0  0  0
  4  8  1  0  0  0  0
  5  4  1  0  0  0  0
  6  7  1  6  0  0  0
  8  6  1  0  0  0  0
  8  9  1  1  0  0  0
 10  3  1  6  0  0  0
 10 11  1  0  0  0  0
 11  6  1  0  0  0  0
 12 10  1  0  0  0  0
 12  7  1  0  0  0  0
 13  2  2  0  0  0  0
 14 13  1  0  0  0  0
 14 15  1  0  0  0  0
 15 17  1  0  0  0  0
 16 18  1  0  0  0  0
 17 18  1  0  0  0  0
 18  1  1  0  0  0  0
 19 28  2  0  0  0  0
 19 23  1  0  0  0  0
 21 26  1  0  0  0  0
 22 23  1  0  0  0  0
 22 21  2  0  0  0  0
 23 25  2  0  0  0  0
 25 20  1  0  0  0  0
 25 24  1  0  0  0  0
 26 24  2  0  0  0  0
 27 20  2  0  0  0  0
 28 27  1  0  0  0  0
 29 21  1  0  0  0  0
 29 30  1  0  0  0  0
 31 29  2  0  0  0  0
 32 14  1  0  0  0  0
 32 33  1  0  0  0  0
 34 32  2  0  0  0  0
M  END
>  <MODEL>
3

>  <REMARK>
 VINA RESULT:      -8.6      2.572      3.809
  Name = 
  3 active torsions:
  status: ('A' for Active; 'I' for Inactive)
    1  A    between atoms: C_3  and  C_25
    2  A    between atoms: C_7  and  C_11
    3  A    between atoms: C_8  and  C_30
                            x       y       z     vdW  Elec       q    Type
                         _______ _______ _______ _____ _____    ______ ____

>  <TORSDO>
F 3

$$$$
=
 OpenBabel11052420343D

 34 39  0  0  1  0  0  0  0  0999 V2000
  193.8610  174.3790  142.7820 C   0  0  2  0  0  3  0  0  0  0  0  0
  197.2430  175.5790  141.5860 C   0  0  0  0  0  3  0  0  0  0  0  0
  195.6010  176.5560  143.1970 C   0  0  0  0  0  2  0  0  0  0  0  0
  191.9460  175.9690  144.0710 C   0  0  2  0  0  3  0  0  0  0  0  0
  192.5610  175.6250  142.3790 S   0  0  0  0  0  0  0  0  0  0  0  0
  193.4950  174.4580  145.3800 C   0  0  1  0  0  3  0  0  0  0  0  0
  194.0460  175.4620  146.3810 C   0  0  0  0  0  2  0  0  0  0  0  0
  192.0430  174.7840  145.0310 C   0  0  2  0  0  3  0  0  0  0  0  0
  191.3230  173.5450  144.5190 C   0  0  0  0  0  1  0  0  0  0  0  0
  195.4600  175.6280  144.4100 C   0  0  2  0  0  3  0  0  0  0  0  0
  194.4620  174.4820  144.1970 C   0  0  2  0  0  3  0  0  0  0  0  0
  194.9490  176.4070  145.6060 C   0  0  0  0  0  2  0  0  0  0  0  0
  197.6790  175.1420  140.3950 C   0  0  0  0  0  3  0  0  0  0  0  0
  196.7610  174.8540  139.2360 C   0  0  2  0  0  3  0  0  0  0  0  0
  195.8180  173.6890  139.5360 C   0  0  0  0  0  2  0  0  0  0  0  0
  195.7900  175.8000  141.8710 C   0  0  2  0  0  3  0  0  0  0  0  0
  194.6140  174.1300  140.3650 C   0  0  0  0  0  2  0  0  0  0  0  0
  195.0270  174.4620  141.7950 C   0  0  2  0  0  3  0  0  0  0  0  0
  188.7250  177.6070  142.8670 C   0  0  0  0  0  3  0  0  0  0  0  0
  189.8490  176.6440  145.2490 C   0  0  0  0  0  3  0  0  0  0  0  0
  185.9780  178.2850  145.2600 C   0  0  0  0  0  0  0  0  0  0  0  0
  186.7120  178.2230  144.0660 C   0  0  0  0  0  3  0  0  0  0  0  0
  187.9970  177.6750  144.0580 C   0  0  0  0  0  0  0  0  0  0  0  0
  187.8300  177.2480  146.4460 C   0  0  0  0  0  3  0  0  0  0  0  0
  188.5620  177.1870  145.2580 C   0  0  0  0  0  0  0  0  0  0  0  0
  186.5430  177.7940  146.4480 C   0  0  0  0  0  3  0  0  0  0  0  0
  190.5810  176.5850  144.0590 C   0  0  0  0  0  0  0  0  0  0  0  0
  190.0100  177.0590  142.8670 C   0  0  0  0  0  3  0  0  0  0  0  0
  184.6220  178.8590  145.2580 C   0  0  0  0  0  0  0  0  0  0  0  0
  183.8840  178.7560  146.2750 O   0  0  0  0  0  1  0  0  0  0  0  0
  184.1430  179.5210  144.1340 O   0  0  0  0  0  0  0  0  0  0  0  0
  197.5640  174.5450  138.0170 C   0  0  0  0  0  0  0  0  0  0  0  0
  197.9410  173.3630  137.8020 O   0  0  0  0  0  1  0  0  0  0  0  0
  197.9240  175.5550  137.1330 O   0  0  0  0  0  0  0  0  0  0  0  0
  1  5  1  6  0  0  0
  1 11  1  0  0  0  0
  2 16  1  0  0  0  0
  4 27  1  6  0  0  0
  4  8  1  0  0  0  0
  5  4  1  0  0  0  0
  6  7  1  1  0  0  0
  8  9  1  6  0  0  0
  8  6  1  0  0  0  0
 10  3  1  6  0  0  0
 10 12  1  0  0  0  0
 11 10  1  0  0  0  0
 11  6  1  0  0  0  0
 12  7  1  0  0  0  0
 13  2  2  0  0  0  0
 14 15  1  0  0  0  0
 14 13  1  0  0  0  0
 15 17  1  0  0  0  0
 16  3  1  0  0  0  0
 17 18  1  0  0  0  0
 18 16  1  0  0  0  0
 18  1  1  0  0  0  0
 19 23  1  0  0  0  0
 20 25  1  0  0  0  0
 21 26  1  0  0  0  0
 22 21  2  0  0  0  0
 23 22  1  0  0  0  0
 23 25  2  0  0  0  0
 24 26  2  0  0  0  0
 25 24  1  0  0  0  0
 27 20  2  0  0  0  0
 28 19  2  0  0  0  0
 28 27  1  0  0  0  0
 29 21  1  0  0  0  0
 29 30  1  0  0  0  0
 31 29  2  0  0  0  0
 32 14  1  0  0  0  0
 33 32  1  0  0  0  0
 34 32  2  0  0  0  0
M  END
>  <MODEL>
4

>  <REMARK>
 VINA RESULT:      -8.5      2.015      3.119
  Name = 
  3 active torsions:
  status: ('A' for Active; 'I' for Inactive)
    1  A    between atoms: C_3  and  C_25
    2  A    between atoms: C_7  and  C_11
    3  A    between atoms: C_8  and  C_30
                            x       y       z     vdW  Elec       q    Type
                         _______ _______ _______ _____ _____    ______ ____

>  <TORSDO>
F 3

$$$$
=
 OpenBabel11052420343D

 34 39  0  0  1  0  0  0  0  0999 V2000
  189.9730  176.8720  144.5350 C   0  0  2  0  0  3  0  0  0  0  0  0
  187.1490  177.3350  147.0090 C   0  0  0  0  0  3  0  0  0  0  0  0
  188.9550  175.6140  146.8420 C   0  0  0  0  0  2  0  0  0  0  0  0
  191.4440  174.5110  144.1860 C   0  0  2  0  0  3  0  0  0  0  0  0
  189.8290  175.2310  143.7010 S   0  0  0  0  0  0  0  0  0  0  0  0
  192.3310  176.4160  145.5920 C   0  0  1  0  0  3  0  0  0  0  0  0
  192.6630  175.6590  146.8690 C   0  0  0  0  0  2  0  0  0  0  0  0
  192.5640  175.5360  144.3650 C   0  0  2  0  0  3  0  0  0  0  0  0
  192.7900  176.3890  143.1270 C   0  0  0  0  0  1  0  0  0  0  0  0
  190.3200  176.2840  147.0450 C   0  0  2  0  0  3  0  0  0  0  0  0
  190.8950  176.9100  145.7680 C   0  0  2  0  0  3  0  0  0  0  0  0
  191.3400  175.2600  147.5020 C   0  0  0  0  0  2  0  0  0  0  0  0
  186.0670  178.0180  146.6070 C   0  0  0  0  0  3  0  0  0  0  0  0
  185.5530  177.9890  145.1910 C   0  0  2  0  0  3  0  0  0  0  0  0
  186.5500  178.6110  144.2130 C   0  0  0  0  0  2  0  0  0  0  0  0
  187.9550  176.4920  146.0700 C   0  0  2  0  0  3  0  0  0  0  0  0
  187.6510  177.6280  143.8210 C   0  0  0  0  0  2  0  0  0  0  0  0
  188.6020  177.3800  144.9860 C   0  0  2  0  0  3  0  0  0  0  0  0
  193.2760  171.4760  142.7920 C   0  0  0  0  0  3  0  0  0  0  0  0
  191.0920  173.1140  142.1450 C   0  0  0  0  0  3  0  0  0  0  0  0
  192.1180  169.8900  139.6490 C   0  0  0  0  0  0  0  0  0  0  0  0
  192.8700  170.1520  140.8040 C   0  0  0  0  0  3  0  0  0  0  0  0
  192.5300  171.2200  141.6380 C   0  0  0  0  0  0  0  0  0  0  0  0
  190.6780  171.7810  140.1640 C   0  0  0  0  0  3  0  0  0  0  0  0
  191.4280  172.0430  141.3130 C   0  0  0  0  0  0  0  0  0  0  0  0
  191.0210  170.7080  139.3350 C   0  0  0  0  0  3  0  0  0  0  0  0
  191.8440  173.3760  143.2950 C   0  0  0  0  0  0  0  0  0  0  0  0
  192.9310  172.5470  143.6200 C   0  0  0  0  0  3  0  0  0  0  0  0
  192.4800  168.7580  138.7790 C   0  0  0  0  0  0  0  0  0  0  0  0
  193.5830  168.1660  138.9280 O   0  0  0  0  0  1  0  0  0  0  0  0
  191.6080  168.3330  137.7840 O   0  0  0  0  0  0  0  0  0  0  0  0
  184.2530  178.7160  145.1080 C   0  0  0  0  0  0  0  0  0  0  0  0
  183.6480  179.0360  146.1650 O   0  0  0  0  0  1  0  0  0  0  0  0
  183.6880  179.0150  143.8740 O   0  0  0  0  0  0  0  0  0  0  0  0
  1  5  1  1  0  0  0
  1 18  1  0  0  0  0
  1 11  1  0  0  0  0
  4 27  1  6  0  0  0
  4  8  1  0  0  0  0
  5  4  1  0  0  0  0
  6 11  1  0  0  0  0
  6  7  1  1  0  0  0
  7 12  1  0  0  0  0
  8  9  1  6  0  0  0
  8  6  1  0  0  0  0
 10  3  1  6  0  0  0
 10 12  1  0  0  0  0
 11 10  1  0  0  0  0
 13  2  2  0  0  0  0
 14 13  1  0  0  0  0
 15 14  1  0  0  0  0
 16  3  1  0  0  0  0
 16  2  1  0  0  0  0
 17 15  1  0  0  0  0
 17 18  1  0  0  0  0
 18 16  1  0  0  0  0
 19 28  1  0  0  0  0
 20 27  1  0  0  0  0
 21 22  2  0  0  0  0
 22 23  1  0  0  0  0
 23 19  2  0  0  0  0
 24 25  1  0  0  0  0
 25 23  1  0  0  0  0
 25 20  2  0  0  0  0
 26 21  1  0  0  0  0
 26 24  2  0  0  0  0
 27 28  2  0  0  0  0
 29 30  1  0  0  0  0
 29 21  1  0  0  0  0
 31 29  2  0  0  0  0
 32 14  1  0  0  0  0
 32 33  1  0  0  0  0
 34 32  2  0  0  0  0
M  END
>  <MODEL>
5

>  <REMARK>
 VINA RESULT:      -8.3      3.395      8.834
  Name = 
  3 active torsions:
  status: ('A' for Active; 'I' for Inactive)
    1  A    between atoms: C_3  and  C_25
    2  A    between atoms: C_7  and  C_11
    3  A    between atoms: C_8  and  C_30
                            x       y       z     vdW  Elec       q    Type
                         _______ _______ _______ _____ _____    ______ ____

>  <TORSDO>
F 3

$$$$
=
 OpenBabel11052420343D

 34 39  0  0  1  0  0  0  0  0999 V2000
  192.3850  173.8650  145.7520 C   0  0  2  0  0  3  0  0  0  0  0  0
  196.1140  174.4070  145.4240 C   0  0  0  0  0  3  0  0  0  0  0  0
  194.1970  176.0090  145.5130 C   0  0  0  0  0  2  0  0  0  0  0  0
  190.4170  175.7730  145.1650 C   0  0  2  0  0  3  0  0  0  0  0  0
  191.5040  174.5800  144.2960 S   0  0  0  0  0  0  0  0  0  0  0  0
  191.1840  175.3650  147.5400 C   0  0  1  0  0  3  0  0  0  0  0  0
  191.5140  176.7910  147.9510 C   0  0  0  0  0  2  0  0  0  0  0  0
  190.0020  175.3410  146.5710 C   0  0  2  0  0  3  0  0  0  0  0  0
  189.3150  173.9850  146.5960 C   0  0  0  0  0  1  0  0  0  0  0  0
  193.5160  175.9150  146.8840 C   0  0  2  0  0  3  0  0  0  0  0  0
  192.4840  174.7850  146.9840 C   0  0  2  0  0  3  0  0  0  0  0  0
  192.7600  177.1960  147.1780 C   0  0  0  0  0  2  0  0  0  0  0  0
  196.8520  173.4070  144.9190 C   0  0  0  0  0  3  0  0  0  0  0  0
  196.3440  172.4580  143.8660 C   0  0  2  0  0  3  0  0  0  0  0  0
  195.1870  171.6020  144.3850 C   0  0  0  0  0  2  0  0  0  0  0  0
  194.7020  174.6530  144.9910 C   0  0  2  0  0  3  0  0  0  0  0  0
  193.8580  172.3520  144.3330 C   0  0  0  0  0  2  0  0  0  0  0  0
  193.8120  173.4560  145.3840 C   0  0  2  0  0  3  0  0  0  0  0  0
  188.0990  176.2670  142.1830 C   0  0  0  0  0  3  0  0  0  0  0  0
  188.1590  176.8160  144.9330 C   0  0  0  0  0  3  0  0  0  0  0  0
  184.8120  177.9160  142.6380 C   0  0  0  0  0  0  0  0  0  0  0  0
  185.9030  177.2780  142.0300 C   0  0  0  0  0  3  0  0  0  0  0  0
  187.0160  176.9090  142.7890 C   0  0  0  0  0  0  0  0  0  0  0  0
  185.9560  177.8160  144.7820 C   0  0  0  0  0  3  0  0  0  0  0  0
  187.0440  177.1820  144.1750 C   0  0  0  0  0  0  0  0  0  0  0  0
  184.8440  178.1800  144.0170 C   0  0  0  0  0  3  0  0  0  0  0  0
  189.2480  176.1840  144.3240 C   0  0  0  0  0  0  0  0  0  0  0  0
  189.2090  175.9010  142.9490 C   0  0  0  0  0  3  0  0  0  0  0  0
  183.6410  178.2970  141.8310 C   0  0  0  0  0  0  0  0  0  0  0  0
  182.5690  178.6550  142.3900 O   0  0  0  0  0  1  0  0  0  0  0  0
  183.7070  178.2660  140.4430 O   0  0  0  0  0  0  0  0  0  0  0  0
  197.4520  171.5710  143.4050 C   0  0  0  0  0  0  0  0  0  0  0  0
  197.9410  171.7310  142.2550 O   0  0  0  0  0  0  0  0  0  0  0  0
  197.9260  170.5500  144.2200 O   0  0  0  0  0  1  0  0  0  0  0  0
  1  5  1  6  0  0  0
  1 11  1  0  0  0  0
  4 27  1  6  0  0  0
  4  8  1  0  0  0  0
  5  4  1  0  0  0  0
  6  7  1  6  0  0  0
  8  9  1  6  0  0  0
  8  6  1  0  0  0  0
 10  3  1  6  0  0  0
 10 11  1  0  0  0  0
 10 12  1  0  0  0  0
 11  6  1  0  0  0  0
 12  7  1  0  0  0  0
 13  2  2  0  0  0  0
 14 15  1  0  0  0  0
 14 13  1  0  0  0  0
 16 18  1  0  0  0  0
 16  2  1  0  0  0  0
 16  3  1  0  0  0  0
 17 15  1  0  0  0  0
 17 18  1  0  0  0  0
 18  1  1  0  0  0  0
 19 23  2  0  0  0  0
 19 28  1  0  0  0  0
 21 26  1  0  0  0  0
 22 21  2  0  0  0  0
 22 23  1  0  0  0  0
 23 25  1  0  0  0  0
 25 24  1  0  0  0  0
 25 20  2  0  0  0  0
 26 24  2  0  0  0  0
 27 20  1  0  0  0  0
 28 27  2  0  0  0  0
 29 30  1  0  0  0  0
 29 21  1  0  0  0  0
 31 29  2  0  0  0  0
 32 14  1  0  0  0  0
 32 34  1  0  0  0  0
 33 32  2  0  0  0  0
M  END
>  <MODEL>
6

>  <REMARK>
 VINA RESULT:      -8.2      1.653      2.197
  Name = 
  3 active torsions:
  status: ('A' for Active; 'I' for Inactive)
    1  A    between atoms: C_3  and  C_25
    2  A    between atoms: C_7  and  C_11
    3  A    between atoms: C_8  and  C_30
                            x       y       z     vdW  Elec       q    Type
                         _______ _______ _______ _____ _____    ______ ____

>  <TORSDO>
F 3

$$$$
=
 OpenBabel11052420343D

 34 39  0  0  1  0  0  0  0  0999 V2000
  193.6330  173.3630  143.9290 C   0  0  2  0  0  3  0  0  0  0  0  0
  194.6640  169.7320  143.6900 C   0  0  0  0  0  3  0  0  0  0  0  0
  192.5240  170.8980  143.1360 C   0  0  0  0  0  2  0  0  0  0  0  0
  190.9910  174.2990  143.8750 C   0  0  2  0  0  3  0  0  0  0  0  0
  192.1780  173.5420  145.0500 S   0  0  0  0  0  0  0  0  0  0  0  0
  192.4400  174.3360  141.8030 C   0  0  1  0  0  3  0  0  0  0  0  0
  191.5140  173.6220  140.8310 C   0  0  0  0  0  2  0  0  0  0  0  0
  191.6380  175.1720  142.7990 C   0  0  2  0  0  3  0  0  0  0  0  0
  192.4950  176.2880  143.3760 C   0  0  0  0  0  1  0  0  0  0  0  0
  192.7600  171.8790  141.9800 C   0  0  2  0  0  3  0  0  0  0  0  0
  193.3040  173.2410  142.4290 C   0  0  2  0  0  3  0  0  0  0  0  0
  191.4530  172.1670  141.2660 C   0  0  0  0  0  2  0  0  0  0  0  0
  195.6580  169.3070  144.4850 C   0  0  0  0  0  3  0  0  0  0  0  0
  195.8960  169.8520  145.8690 C   0  0  2  0  0  3  0  0  0  0  0  0
  196.2910  171.3290  145.8360 C   0  0  0  0  0  2  0  0  0  0  0  0
  193.7110  170.8070  144.1090 C   0  0  2  0  0  3  0  0  0  0  0  0
  195.0740  172.2410  145.7000 C   0  0  0  0  0  2  0  0  0  0  0  0
  194.4680  172.1380  144.3040 C   0  0  2  0  0  3  0  0  0  0  0  0
  188.7610  175.7000  146.6270 C   0  0  0  0  0  3  0  0  0  0  0  0
  188.9080  175.6770  143.8260 C   0  0  0  0  0  3  0  0  0  0  0  0
  185.7850  177.7290  145.7540 C   0  0  0  0  0  0  0  0  0  0  0  0
  186.7520  177.0500  146.5100 C   0  0  0  0  0  3  0  0  0  0  0  0
  187.7940  176.3700  145.8730 C   0  0  0  0  0  0  0  0  0  0  0  0
  186.9060  177.0390  143.7090 C   0  0  0  0  0  3  0  0  0  0  0  0
  187.8690  176.3620  144.4620 C   0  0  0  0  0  0  0  0  0  0  0  0
  185.8690  177.7210  144.3520 C   0  0  0  0  0  3  0  0  0  0  0  0
  189.8700  174.9980  144.5800 C   0  0  0  0  0  0  0  0  0  0  0  0
  189.7990  175.0210  145.9830 C   0  0  0  0  0  3  0  0  0  0  0  0
  184.6940  178.4470  146.4340 C   0  0  0  0  0  0  0  0  0  0  0  0
  184.7020  178.5820  147.6870 O   0  0  0  0  0  1  0  0  0  0  0  0
  183.6440  178.9840  145.6980 O   0  0  0  0  0  0  0  0  0  0  0  0
  196.9660  169.0640  146.5480 C   0  0  0  0  0  0  0  0  0  0  0  0
  197.9140  168.5870  145.8700 O   0  0  0  0  0  0  0  0  0  0  0  0
  196.9080  168.8260  147.9150 O   0  0  0  0  0  1  0  0  0  0  0  0
  1 18  1  0  0  0  0
  1  5  1  1  0  0  0
  2 16  1  0  0  0  0
  2 13  2  0  0  0  0
  3 16  1  0  0  0  0
  4 27  1  1  0  0  0
  4  5  1  0  0  0  0
  6  7  1  6  0  0  0
  6 11  1  0  0  0  0
  6  8  1  0  0  0  0
  7 12  1  0  0  0  0
  8  9  1  1  0  0  0
  8  4  1  0  0  0  0
 10 12  1  1  0  0  0
 10 11  1  0  0  0  0
 10  3  1  0  0  0  0
 11  1  1  0  0  0  0
 13 14  1  0  0  0  0
 14 32  1  0  0  0  0
 15 14  1  0  0  0  0
 16 18  1  0  0  0  0
 17 15  1  0  0  0  0
 18 17  1  0  0  0  0
 20 25  2  0  0  0  0
 20 27  1  0  0  0  0
 21 29  1  0  0  0  0
 21 22  2  0  0  0  0
 23 22  1  0  0  0  0
 23 19  2  0  0  0  0
 24 26  2  0  0  0  0
 24 25  1  0  0  0  0
 25 23  1  0  0  0  0
 26 21  1  0  0  0  0
 27 28  2  0  0  0  0
 28 19  1  0  0  0  0
 29 30  1  0  0  0  0
 31 29  2  0  0  0  0
 32 34  1  0  0  0  0
 33 32  2  0  0  0  0
M  END
>  <MODEL>
7

>  <REMARK>
 VINA RESULT:      -8.1      3.525      5.084
  Name = 
  3 active torsions:
  status: ('A' for Active; 'I' for Inactive)
    1  A    between atoms: C_3  and  C_25
    2  A    between atoms: C_7  and  C_11
    3  A    between atoms: C_8  and  C_30
                            x       y       z     vdW  Elec       q    Type
                         _______ _______ _______ _____ _____    ______ ____

>  <TORSDO>
F 3

$$$$
=
 OpenBabel11052420343D

 34 39  0  0  1  0  0  0  0  0999 V2000
  193.7580  174.2620  142.5500 C   0  0  2  0  0  3  0  0  0  0  0  0
  196.8150  175.6850  140.8360 C   0  0  0  0  0  3  0  0  0  0  0  0
  195.5480  176.4150  142.8640 C   0  0  0  0  0  2  0  0  0  0  0  0
  192.1580  175.6320  144.3990 C   0  0  2  0  0  3  0  0  0  0  0  0
  192.4030  175.5150  142.5860 S   0  0  0  0  0  0  0  0  0  0  0  0
  193.9450  174.0110  145.1560 C   0  0  1  0  0  3  0  0  0  0  0  0
  194.6950  174.8970  146.1380 C   0  0  0  0  0  2  0  0  0  0  0  0
  192.4530  174.3400  145.1610 C   0  0  2  0  0  3  0  0  0  0  0  0
  191.6400  173.1570  144.6590 C   0  0  0  0  0  1  0  0  0  0  0  0
  195.6640  175.3410  143.9530 C   0  0  2  0  0  3  0  0  0  0  0  0
  194.6430  174.2050  143.8100 C   0  0  2  0  0  3  0  0  0  0  0  0
  195.4170  175.9540  145.3170 C   0  0  0  0  0  2  0  0  0  0  0  0
  196.9900  175.4110  139.5350 C   0  0  0  0  0  3  0  0  0  0  0  0
  195.8490  175.2440  138.5650 C   0  0  2  0  0  3  0  0  0  0  0  0
  194.9890  174.0270  138.9070 C   0  0  0  0  0  2  0  0  0  0  0  0
  195.4540  175.8330  141.4430 C   0  0  2  0  0  3  0  0  0  0  0  0
  193.9860  174.3320  140.0170 C   0  0  0  0  0  2  0  0  0  0  0  0
  194.6900  174.4950  141.3590 C   0  0  2  0  0  3  0  0  0  0  0  0
  189.2150  176.9950  146.3980 C   0  0  0  0  0  3  0  0  0  0  0  0
  189.9470  176.5780  143.7220 C   0  0  0  0  0  3  0  0  0  0  0  0
  186.2160  178.2840  144.6440 C   0  0  0  0  0  0  0  0  0  0  0  0
  187.0950  177.9170  145.6740 C   0  0  0  0  0  3  0  0  0  0  0  0
  188.3370  177.3530  145.3720 C   0  0  0  0  0  0  0  0  0  0  0  0
  187.8320  177.5130  142.9980 C   0  0  0  0  0  3  0  0  0  0  0  0
  188.7070  177.1470  144.0240 C   0  0  0  0  0  0  0  0  0  0  0  0
  186.5920  178.0800  143.3060 C   0  0  0  0  0  3  0  0  0  0  0  0
  190.8220  176.2100  144.7500 C   0  0  0  0  0  0  0  0  0  0  0  0
  190.4550  176.4300  146.0880 C   0  0  0  0  0  3  0  0  0  0  0  0
  184.9110  178.8820  144.9720 C   0  0  0  0  0  0  0  0  0  0  0  0
  184.4400  179.8120  144.2630 O   0  0  0  0  0  0  0  0  0  0  0  0
  184.1870  178.4270  146.0670 O   0  0  0  0  0  1  0  0  0  0  0  0
  196.3780  175.1080  137.1770 C   0  0  0  0  0  0  0  0  0  0  0  0
  196.0300  174.1250  136.4710 O   0  0  0  0  0  0  0  0  0  0  0  0
  197.2740  176.0400  136.6670 O   0  0  0  0  0  1  0  0  0  0  0  0
  1  5  1  1  0  0  0
  1 11  1  0  0  0  0
  2 16  1  0  0  0  0
  4 27  1  6  0  0  0
  4  8  1  0  0  0  0
  5  4  1  0  0  0  0
  6  8  1  0  0  0  0
  6  7  1  1  0  0  0
  8  9  1  6  0  0  0
 10  3  1  6  0  0  0
 10 12  1  0  0  0  0
 11 10  1  0  0  0  0
 11  6  1  0  0  0  0
 12  7  1  0  0  0  0
 13  2  2  0  0  0  0
 14 15  1  0  0  0  0
 14 13  1  0  0  0  0
 15 17  1  0  0  0  0
 16  3  1  0  0  0  0
 17 18  1  0  0  0  0
 18 16  1  0  0  0  0
 18  1  1  0  0  0  0
 20 25  2  0  0  0  0
 20 27  1  0  0  0  0
 21 29  1  0  0  0  0
 21 22  2  0  0  0  0
 23 22  1  0  0  0  0
 23 19  2  0  0  0  0
 24 26  2  0  0  0  0
 24 25  1  0  0  0  0
 25 23  1  0  0  0  0
 26 21  1  0  0  0  0
 27 28  2  0  0  0  0
 28 19  1  0  0  0  0
 29 31  1  0  0  0  0
 30 29  2  0  0  0  0
 32 14  1  0  0  0  0
 33 32  2  0  0  0  0
 34 32  1  0  0  0  0
M  END
>  <MODEL>
8

>  <REMARK>
 VINA RESULT:      -8.0      2.088      3.215
  Name = 
  3 active torsions:
  status: ('A' for Active; 'I' for Inactive)
    1  A    between atoms: C_3  and  C_25
    2  A    between atoms: C_7  and  C_11
    3  A    between atoms: C_8  and  C_30
                            x       y       z     vdW  Elec       q    Type
                         _______ _______ _______ _____ _____    ______ ____

>  <TORSDO>
F 3

$$$$
=
 OpenBabel11052420343D

 34 39  0  0  1  0  0  0  0  0999 V2000
  189.9260  177.0420  144.4500 C   0  0  2  0  0  3  0  0  0  0  0  0
  187.1520  177.2060  147.0160 C   0  0  0  0  0  3  0  0  0  0  0  0
  189.0240  175.5830  146.6860 C   0  0  0  0  0  2  0  0  0  0  0  0
  191.4870  174.7790  143.9020 C   0  0  2  0  0  3  0  0  0  0  0  0
  189.8310  175.4580  143.5060 S   0  0  0  0  0  0  0  0  0  0  0  0
  192.3290  176.6190  145.4180 C   0  0  1  0  0  3  0  0  0  0  0  0
  192.7260  175.7910  146.6300 C   0  0  0  0  0  2  0  0  0  0  0  0
  192.5660  175.8380  144.1260 C   0  0  2  0  0  3  0  0  0  0  0  0
  192.7230  176.7840  142.9460 C   0  0  0  0  0  1  0  0  0  0  0  0
  190.3640  176.2980  146.9040 C   0  0  2  0  0  3  0  0  0  0  0  0
  190.8780  177.0350  145.6610 C   0  0  2  0  0  3  0  0  0  0  0  0
  191.4390  175.2900  147.2640 C   0  0  0  0  0  2  0  0  0  0  0  0
  186.0310  177.8660  146.6890 C   0  0  0  0  0  3  0  0  0  0  0  0
  185.4810  177.9120  145.2870 C   0  0  2  0  0  3  0  0  0  0  0  0
  186.4240  178.6440  144.3320 C   0  0  0  0  0  2  0  0  0  0  0  0
  187.9680  176.4670  146.0020 C   0  0  2  0  0  3  0  0  0  0  0  0
  187.5560  177.7420  143.8460 C   0  0  0  0  0  2  0  0  0  0  0  0
  188.5470  177.4550  144.9680 C   0  0  2  0  0  3  0  0  0  0  0  0
  191.5590  172.4720  140.8710 C   0  0  0  0  0  3  0  0  0  0  0  0
  193.1260  173.0620  143.1220 C   0  0  0  0  0  3  0  0  0  0  0  0
  194.4110  170.1620  140.3620 C   0  0  0  0  0  0  0  0  0  0  0  0
  193.1950  170.8330  140.1620 C   0  0  0  0  0  3  0  0  0  0  0  0
  192.7660  171.7990  141.0750 C   0  0  0  0  0  0  0  0  0  0  0  0
  194.7700  171.4310  142.4050 C   0  0  0  0  0  3  0  0  0  0  0  0
  193.5580  172.0980  142.2070 C   0  0  0  0  0  0  0  0  0  0  0  0
  195.1950  170.4680  141.4860 C   0  0  0  0  0  3  0  0  0  0  0  0
  191.9120  173.7280  142.9230 C   0  0  0  0  0  0  0  0  0  0  0  0
  191.1360  173.4370  141.7900 C   0  0  0  0  0  3  0  0  0  0  0  0
  194.8580  169.1480  139.3920 C   0  0  0  0  0  0  0  0  0  0  0  0
  194.0260  168.3680  138.8560 O   0  0  0  0  0  0  0  0  0  0  0  0
  196.2030  169.0420  139.0590 O   0  0  0  0  0  1  0  0  0  0  0  0
  184.1490  178.5840  145.2860 C   0  0  0  0  0  0  0  0  0  0  0  0
  183.5140  178.7130  146.3650 O   0  0  0  0  0  1  0  0  0  0  0  0
  183.5900  179.0420  144.0990 O   0  0  0  0  0  0  0  0  0  0  0  0
  1  5  1  1  0  0  0
  1 18  1  0  0  0  0
  1 11  1  0  0  0  0
  4 27  1  6  0  0  0
  4  8  1  0  0  0  0
  5  4  1  0  0  0  0
  6 11  1  0  0  0  0
  6  7  1  1  0  0  0
  7 12  1  0  0  0  0
  8  9  1  6  0  0  0
  8  6  1  0  0  0  0
 10  3  1  6  0  0  0
 10 12  1  0  0  0  0
 11 10  1  0  0  0  0
 13  2  2  0  0  0  0
 14 13  1  0  0  0  0
 15 14  1  0  0  0  0
 16  3  1  0  0  0  0
 16  2  1  0  0  0  0
 17 15  1  0  0  0  0
 17 18  1  0  0  0  0
 18 16  1  0  0  0  0
 19 23  2  0  0  0  0
 19 28  1  0  0  0  0
 21 26  1  0  0  0  0
 22 21  2  0  0  0  0
 22 23  1  0  0  0  0
 23 25  1  0  0  0  0
 25 24  1  0  0  0  0
 25 20  2  0  0  0  0
 26 24  2  0  0  0  0
 27 20  1  0  0  0  0
 28 27  2  0  0  0  0
 29 21  1  0  0  0  0
 30 29  2  0  0  0  0
 31 29  1  0  0  0  0
 32 14  1  0  0  0  0
 32 33  1  0  0  0  0
 34 32  2  0  0  0  0
M  END
>  <MODEL>
9

>  <REMARK>
 VINA RESULT:      -7.8      2.785      9.315
  Name = 
  3 active torsions:
  status: ('A' for Active; 'I' for Inactive)
    1  A    between atoms: C_3  and  C_25
    2  A    between atoms: C_7  and  C_11
    3  A    between atoms: C_8  and  C_30
                            x       y       z     vdW  Elec       q    Type
                         _______ _______ _______ _____ _____    ______ ____

>  <TORSDO>
F 3

$$$$
