=
 OpenBabel11052420423D

 43 49  0  0  1  0  0  0  0  0999 V2000
  184.7480  178.3910  145.6360 C   0  0  0  0  0  0  0  0  0  0  0  0
  188.7380  176.3140  146.0560 C   0  0  0  0  0  0  0  0  0  0  0  0
  189.3840  175.2080  143.5760 C   0  0  0  0  0  0  0  0  0  0  0  0
  187.1000  177.4390  146.7750 C   0  0  0  0  0  0  0  0  0  0  0  0
  185.3440  177.3730  143.4050 C   0  0  0  0  0  1  0  0  0  0  0  0
  183.5940  178.8690  145.1070 F   0  0  0  0  0  0  0  0  0  0  0  0
  186.8150  177.1850  145.4470 C   0  0  0  0  0  0  0  0  0  0  0  0
  185.0430  178.6470  146.9930 C   0  0  0  0  0  3  0  0  0  0  0  0
  185.6420  177.6460  144.8400 C   0  0  0  0  0  0  0  0  0  0  0  0
  188.1710  175.9130  143.7330 C   0  0  0  0  0  3  0  0  0  0  0  0
  187.8830  176.4500  144.9840 C   0  0  0  0  0  0  0  0  0  0  0  0
  188.2560  176.9110  147.1270 O   0  0  0  0  0  0  0  0  0  0  0  0
  189.9390  175.6140  145.9380 C   0  0  0  0  0  0  0  0  0  0  0  0
  190.2600  175.0670  144.6820 C   0  0  0  0  0  3  0  0  0  0  0  0
  186.2300  178.1680  147.5790 C   0  0  0  0  0  3  0  0  0  0  0  0
  189.7340  174.6520  142.3000 N   0  0  0  0  0  0  0  0  0  0  0  0
  188.7600  174.1090  141.3740 C   0  0  0  0  0  2  0  0  0  0  0  0
  191.0890  174.6210  141.7840 C   0  0  0  0  0  2  0  0  0  0  0  0
  189.5280  173.7870  140.1040 C   0  0  1  0  0  3  0  0  0  0  0  0
  191.0080  173.9060  140.4470 C   0  0  0  0  0  2  0  0  0  0  0  0
  189.2280  172.3730  139.6340 C   0  0  0  0  0  2  0  0  0  0  0  0
  190.1820  171.9540  138.5260 C   0  0  2  0  0  3  0  0  0  0  0  0
  191.0630  169.6960  137.2650 S   0  0  0  0  0  0  0  0  0  0  0  0
  189.4420  171.8470  137.2130 C   0  0  0  0  0  2  0  0  0  0  0  0
  190.7560  170.5820  138.8290 C   0  0  1  0  0  3  0  0  0  0  0  0
  190.3220  171.0380  136.2890 C   0  0  0  0  0  2  0  0  0  0  0  0
  191.9740  170.5250  141.0670 N   0  0  0  0  0  0  0  0  0  0  0  0
  192.0100  170.7070  139.6440 C   0  0  0  0  0  0  0  0  0  0  0  0
  192.9240  171.6630  143.0060 C   0  0  0  0  0  2  0  0  0  0  0  0
  190.4730  171.1470  142.8860 C   0  0  0  0  0  2  0  0  0  0  0  0
  191.6940  171.2290  143.8010 C   0  0  0  0  0  2  0  0  0  0  0  0
  190.7390  170.1580  141.7550 C   0  0  0  0  0  2  0  0  0  0  0  0
  193.1860  170.6820  141.8670 C   0  0  0  0  0  2  0  0  0  0  0  0
  193.0900  171.0320  139.0780 O   0  0  0  0  0  0  0  0  0  0  0  0
  190.8810  175.4890  147.0900 C   0  0  0  0  0  2  0  0  0  0  0  0
  194.0100  173.8460  145.7170 C   0  0  0  0  0  3  0  0  0  0  0  0
  194.9220  174.9070  145.7500 C   0  0  0  0  0  0  0  0  0  0  0  0
  193.1890  176.3500  146.6510 C   0  0  0  0  0  3  0  0  0  0  0  0
  192.6930  174.0350  146.1470 C   0  0  0  0  0  3  0  0  0  0  0  0
  192.2790  175.2890  146.6120 C   0  0  0  0  0  0  0  0  0  0  0  0
  194.5040  176.1640  146.2190 C   0  0  0  0  0  3  0  0  0  0  0  0
  197.0860  173.7440  145.8000 C   0  0  0  0  0  2  0  0  0  0  0  0
  196.2960  174.6770  145.2820 C   0  0  0  0  0  3  0  0  0  0  0  0
  1  8  1  0  0  0  0
  2 12  1  0  0  0  0
  3 10  2  0  0  0  0
  3 14  1  0  0  0  0
  4 12  1  0  0  0  0
  4 15  1  0  0  0  0
  5  9  1  0  0  0  0
  6  1  1  0  0  0  0
  7  4  2  0  0  0  0
  8 15  2  0  0  0  0
  9  7  1  0  0  0  0
  9  1  2  0  0  0  0
 10 11  1  0  0  0  0
 11  7  1  0  0  0  0
 11  2  2  0  0  0  0
 13  2  1  0  0  0  0
 13 35  1  0  0  0  0
 14 13  2  0  0  0  0
 16  3  1  0  0  0  0
 17 16  1  0  0  0  0
 18 16  1  0  0  0  0
 19 21  1  1  0  0  0
 19 20  1  0  0  0  0
 19 17  1  0  0  0  0
 20 18  1  0  0  0  0
 22 25  1  0  0  0  0
 22 21  1  1  0  0  0
 23 25  1  0  0  0  0
 24 22  1  0  0  0  0
 25 28  1  6  0  0  0
 26 24  1  0  0  0  0
 26 23  1  0  0  0  0
 27 32  1  0  0  0  0
 27 33  1  0  0  0  0
 28 27  1  0  0  0  0
 29 31  1  0  0  0  0
 30 31  1  0  0  0  0
 32 30  1  0  0  0  0
 33 29  1  0  0  0  0
 34 28  2  0  0  0  0
 36 37  2  0  0  0  0
 36 39  1  0  0  0  0
 37 41  1  0  0  0  0
 39 40  2  0  0  0  0
 40 38  1  0  0  0  0
 40 35  1  0  0  0  0
 41 38  2  0  0  0  0
 43 37  1  0  0  0  0
 43 42  2  0  0  0  0
M  END
>  <MODEL>
1

>  <REMARK>
 VINA RESULT:      -9.0      0.000      0.000
  Name = 
  7 active torsions:
  status: ('A' for Active; 'I' for Inactive)
    1  A    between atoms: C_1  and  C_34
    2  A    between atoms: C_1  and  C_35
    3  A    between atoms: N_2  and  C_13
    4  A    between atoms: C_3  and  C_4
    5  A    between atoms: C_3  and  C_12
    6  A    between atoms: C_14  and  C_22
    7  A    between atoms: C_19  and  C_37
                            x       y       z     vdW  Elec       q    Type
                         _______ _______ _______ _____ _____    ______ ____

>  <TORSDO>
F 7

$$$$
=
 OpenBabel11052420423D

 43 49  0  0  1  0  0  0  0  0999 V2000
  184.9800  178.8120  145.4830 C   0  0  0  0  0  0  0  0  0  0  0  0
  188.4240  175.8930  145.3290 C   0  0  0  0  0  0  0  0  0  0  0  0
  188.4780  174.7780  142.7710 C   0  0  0  0  0  0  0  0  0  0  0  0
  187.1870  177.3190  146.2780 C   0  0  0  0  0  0  0  0  0  0  0  0
  185.0360  177.7830  143.1790 C   0  0  0  0  0  1  0  0  0  0  0  0
  183.9030  179.5550  145.1220 F   0  0  0  0  0  0  0  0  0  0  0  0
  186.6820  177.1900  144.9990 C   0  0  0  0  0  0  0  0  0  0  0  0
  185.4990  178.9400  146.7900 C   0  0  0  0  0  3  0  0  0  0  0  0
  185.5730  177.9230  144.5640 C   0  0  0  0  0  0  0  0  0  0  0  0
  187.4840  175.7240  143.1010 C   0  0  0  0  0  3  0  0  0  0  0  0
  187.4890  176.2590  144.3860 C   0  0  0  0  0  0  0  0  0  0  0  0
  188.2320  176.5370  146.4630 O   0  0  0  0  0  0  0  0  0  0  0  0
  189.4130  174.9520  145.0400 C   0  0  0  0  0  0  0  0  0  0  0  0
  189.4360  174.4010  143.7460 C   0  0  0  0  0  3  0  0  0  0  0  0
  186.6150  178.1880  147.2020 C   0  0  0  0  0  3  0  0  0  0  0  0
  188.5250  174.2120  141.4530 N   0  0  0  0  0  0  0  0  0  0  0  0
  188.5840  172.7860  141.2010 C   0  0  0  0  0  2  0  0  0  0  0  0
  188.4670  175.0030  140.2390 C   0  0  0  0  0  2  0  0  0  0  0  0
  188.4520  172.6240  139.6960 C   0  0  1  0  0  3  0  0  0  0  0  0
  188.6010  174.0160  139.0930 C   0  0  0  0  0  2  0  0  0  0  0  0
  189.5440  171.7170  139.1520 C   0  0  0  0  0  2  0  0  0  0  0  0
  190.0580  172.2260  137.8140 C   0  0  2  0  0  3  0  0  0  0  0  0
  192.0960  171.7830  136.0490 S   0  0  0  0  0  0  0  0  0  0  0  0
  189.5110  171.3800  136.6880 C   0  0  0  0  0  2  0  0  0  0  0  0
  191.5710  172.1110  137.7640 C   0  0  1  0  0  3  0  0  0  0  0  0
  190.3740  171.6600  135.4810 C   0  0  0  0  0  2  0  0  0  0  0  0
  192.7970  173.3680  139.6120 N   0  0  0  0  0  0  0  0  0  0  0  0
  192.2090  173.3580  138.3030 C   0  0  0  0  0  0  0  0  0  0  0  0
  192.7910  174.8780  141.5290 C   0  0  0  0  0  2  0  0  0  0  0  0
  192.2410  172.4480  141.8010 C   0  0  0  0  0  2  0  0  0  0  0  0
  192.9340  173.6540  142.4310 C   0  0  0  0  0  2  0  0  0  0  0  0
  192.8460  172.1590  140.4310 C   0  0  0  0  0  2  0  0  0  0  0  0
  193.3860  174.5890  140.1540 C   0  0  0  0  0  2  0  0  0  0  0  0
  192.1730  174.4200  137.6220 O   0  0  0  0  0  0  0  0  0  0  0  0
  190.4450  174.5750  146.0520 C   0  0  0  0  0  2  0  0  0  0  0  0
  193.1200  176.8790  144.6680 C   0  0  0  0  0  3  0  0  0  0  0  0
  194.2850  176.1560  144.9470 C   0  0  0  0  0  0  0  0  0  0  0  0
  192.9390  174.4040  145.9570 C   0  0  0  0  0  3  0  0  0  0  0  0
  191.8690  176.3680  145.0320 C   0  0  0  0  0  3  0  0  0  0  0  0
  191.7770  175.1320  145.6800 C   0  0  0  0  0  0  0  0  0  0  0  0
  194.1890  174.9140  145.5960 C   0  0  0  0  0  3  0  0  0  0  0  0
  196.2020  176.4030  143.4290 C   0  0  0  0  0  2  0  0  0  0  0  0
  195.5830  176.7250  144.5600 C   0  0  0  0  0  3  0  0  0  0  0  0
  1  8  1  0  0  0  0
  2 12  1  0  0  0  0
  3 10  2  0  0  0  0
  3 14  1  0  0  0  0
  4 12  1  0  0  0  0
  4 15  1  0  0  0  0
  5  9  1  0  0  0  0
  6  1  1  0  0  0  0
  7  4  2  0  0  0  0
  8 15  2  0  0  0  0
  9  7  1  0  0  0  0
  9  1  2  0  0  0  0
 10 11  1  0  0  0  0
 11  7  1  0  0  0  0
 11  2  2  0  0  0  0
 13  2  1  0  0  0  0
 13 35  1  0  0  0  0
 14 13  2  0  0  0  0
 16  3  1  0  0  0  0
 17 16  1  0  0  0  0
 18 16  1  0  0  0  0
 19 21  1  6  0  0  0
 19 17  1  0  0  0  0
 20 19  1  0  0  0  0
 20 18  1  0  0  0  0
 22 21  1  1  0  0  0
 23 25  1  0  0  0  0
 24 22  1  0  0  0  0
 25 22  1  0  0  0  0
 25 28  1  6  0  0  0
 26 23  1  0  0  0  0
 26 24  1  0  0  0  0
 27 33  1  0  0  0  0
 27 32  1  0  0  0  0
 28 27  1  0  0  0  0
 29 31  1  0  0  0  0
 30 31  1  0  0  0  0
 32 30  1  0  0  0  0
 33 29  1  0  0  0  0
 34 28  2  0  0  0  0
 36 37  2  0  0  0  0
 36 39  1  0  0  0  0
 37 41  1  0  0  0  0
 39 40  2  0  0  0  0
 40 38  1  0  0  0  0
 40 35  1  0  0  0  0
 41 38  2  0  0  0  0
 42 43  2  0  0  0  0
 43 37  1  0  0  0  0
M  END
>  <MODEL>
2

>  <REMARK>
 VINA RESULT:      -9.0      1.636      2.092
  Name = 
  7 active torsions:
  status: ('A' for Active; 'I' for Inactive)
    1  A    between atoms: C_1  and  C_34
    2  A    between atoms: C_1  and  C_35
    3  A    between atoms: N_2  and  C_13
    4  A    between atoms: C_3  and  C_4
    5  A    between atoms: C_3  and  C_12
    6  A    between atoms: C_14  and  C_22
    7  A    between atoms: C_19  and  C_37
                            x       y       z     vdW  Elec       q    Type
                         _______ _______ _______ _____ _____    ______ ____

>  <TORSDO>
F 7

$$$$
=
 OpenBabel11052420423D

 43 49  0  0  1  0  0  0  0  0999 V2000
  184.6490  178.5090  145.8150 C   0  0  0  0  0  0  0  0  0  0  0  0
  188.5230  176.1870  145.8960 C   0  0  0  0  0  0  0  0  0  0  0  0
  188.9380  175.1380  143.3440 C   0  0  0  0  0  0  0  0  0  0  0  0
  187.0080  177.3790  146.7600 C   0  0  0  0  0  0  0  0  0  0  0  0
  185.0340  177.5410  143.5160 C   0  0  0  0  0  1  0  0  0  0  0  0
  183.4950  179.0740  145.3800 F   0  0  0  0  0  0  0  0  0  0  0  0
  186.6220  177.1920  145.4470 C   0  0  0  0  0  0  0  0  0  0  0  0
  185.0470  178.6970  147.1570 C   0  0  0  0  0  3  0  0  0  0  0  0
  185.4420  177.7430  144.9370 C   0  0  0  0  0  0  0  0  0  0  0  0
  187.7830  175.9060  143.6050 C   0  0  0  0  0  3  0  0  0  0  0  0
  187.6110  176.4130  144.8900 C   0  0  0  0  0  0  0  0  0  0  0  0
  188.1490  176.7730  147.0160 O   0  0  0  0  0  0  0  0  0  0  0  0
  189.6700  175.4240  145.6750 C   0  0  0  0  0  0  0  0  0  0  0  0
  189.8740  174.9050  144.3840 C   0  0  0  0  0  3  0  0  0  0  0  0
  186.2380  178.1290  147.6450 C   0  0  0  0  0  3  0  0  0  0  0  0
  189.1690  174.6090  142.0290 N   0  0  0  0  0  0  0  0  0  0  0  0
  190.2730  173.7260  141.7100 C   0  0  0  0  0  2  0  0  0  0  0  0
  188.2970  174.8630  140.8990 C   0  0  0  0  0  2  0  0  0  0  0  0
  190.0470  173.2820  140.2750 C   0  0  1  0  0  3  0  0  0  0  0  0
  188.9400  174.1650  139.7140 C   0  0  0  0  0  2  0  0  0  0  0  0
  191.3100  173.4650  139.4480 C   0  0  0  0  0  2  0  0  0  0  0  0
  192.0100  172.1340  139.2220 C   0  0  2  0  0  3  0  0  0  0  0  0
  193.0560  170.0490  140.6440 S   0  0  0  0  0  0  0  0  0  0  0  0
  191.0010  171.0110  139.1920 C   0  0  0  0  0  2  0  0  0  0  0  0
  192.9640  171.8500  140.3680 C   0  0  1  0  0  3  0  0  0  0  0  0
  191.7770  169.7300  139.3930 C   0  0  0  0  0  2  0  0  0  0  0  0
  194.7840  173.5810  140.8000 N   0  0  0  0  0  0  0  0  0  0  0  0
  194.3170  172.4300  140.0800 C   0  0  0  0  0  0  0  0  0  0  0  0
  195.9220  175.6640  140.2320 C   0  0  0  0  0  2  0  0  0  0  0  0
  193.8170  175.6740  141.5940 C   0  0  0  0  0  2  0  0  0  0  0  0
  195.1840  176.3260  141.3940 C   0  0  0  0  0  2  0  0  0  0  0  0
  193.9880  174.1830  141.8660 C   0  0  0  0  0  2  0  0  0  0  0  0
  196.0850  174.1700  140.4970 C   0  0  0  0  0  2  0  0  0  0  0  0
  195.0230  171.9370  139.1580 O   0  0  0  0  0  0  0  0  0  0  0  0
  190.6750  175.2010  146.7570 C   0  0  0  0  0  2  0  0  0  0  0  0
  194.1850  174.2870  145.6510 C   0  0  0  0  0  3  0  0  0  0  0  0
  194.6850  175.5300  145.2480 C   0  0  0  0  0  0  0  0  0  0  0  0
  192.5600  176.5560  145.8220 C   0  0  0  0  0  3  0  0  0  0  0  0
  192.8780  174.1770  146.1380 C   0  0  0  0  0  3  0  0  0  0  0  0
  192.0620  175.3110  146.2200 C   0  0  0  0  0  0  0  0  0  0  0  0
  193.8640  176.6670  145.3340 C   0  0  0  0  0  3  0  0  0  0  0  0
  196.7440  174.5400  144.3420 C   0  0  0  0  0  2  0  0  0  0  0  0
  196.0590  175.6090  144.7330 C   0  0  0  0  0  3  0  0  0  0  0  0
  1  8  1  0  0  0  0
  2 12  1  0  0  0  0
  3 10  2  0  0  0  0
  3 14  1  0  0  0  0
  4 12  1  0  0  0  0
  4 15  1  0  0  0  0
  5  9  1  0  0  0  0
  6  1  1  0  0  0  0
  7  4  2  0  0  0  0
  8 15  2  0  0  0  0
  9  7  1  0  0  0  0
  9  1  2  0  0  0  0
 10 11  1  0  0  0  0
 11  7  1  0  0  0  0
 11  2  2  0  0  0  0
 13  2  1  0  0  0  0
 13 35  1  0  0  0  0
 14 13  2  0  0  0  0
 16  3  1  0  0  0  0
 17 16  1  0  0  0  0
 18 16  1  0  0  0  0
 19 21  1  6  0  0  0
 19 17  1  0  0  0  0
 20 19  1  0  0  0  0
 20 18  1  0  0  0  0
 22 21  1  1  0  0  0
 22 25  1  0  0  0  0
 24 22  1  0  0  0  0
 24 26  1  0  0  0  0
 25 28  1  6  0  0  0
 25 23  1  0  0  0  0
 26 23  1  0  0  0  0
 27 32  1  0  0  0  0
 28 27  1  0  0  0  0
 29 33  1  0  0  0  0
 29 31  1  0  0  0  0
 30 32  1  0  0  0  0
 31 30  1  0  0  0  0
 33 27  1  0  0  0  0
 34 28  2  0  0  0  0
 36 39  1  0  0  0  0
 37 41  1  0  0  0  0
 37 36  2  0  0  0  0
 38 40  1  0  0  0  0
 39 40  2  0  0  0  0
 40 35  1  0  0  0  0
 41 38  2  0  0  0  0
 42 43  2  0  0  0  0
 43 37  1  0  0  0  0
M  END
>  <MODEL>
3

>  <REMARK>
 VINA RESULT:      -9.0      1.867      2.508
  Name = 
  7 active torsions:
  status: ('A' for Active; 'I' for Inactive)
    1  A    between atoms: C_1  and  C_34
    2  A    between atoms: C_1  and  C_35
    3  A    between atoms: N_2  and  C_13
    4  A    between atoms: C_3  and  C_4
    5  A    between atoms: C_3  and  C_12
    6  A    between atoms: C_14  and  C_22
    7  A    between atoms: C_19  and  C_37
                            x       y       z     vdW  Elec       q    Type
                         _______ _______ _______ _____ _____    ______ ____

>  <TORSDO>
F 7

$$$$
=
 OpenBabel11052420423D

 43 49  0  0  1  0  0  0  0  0999 V2000
  184.6220  178.6040  145.9170 C   0  0  0  0  0  0  0  0  0  0  0  0
  188.5320  176.3450  145.7970 C   0  0  0  0  0  0  0  0  0  0  0  0
  188.7660  175.1860  143.2700 C   0  0  0  0  0  0  0  0  0  0  0  0
  187.0680  177.5530  146.7240 C   0  0  0  0  0  0  0  0  0  0  0  0
  184.8450  177.5370  143.6400 C   0  0  0  0  0  1  0  0  0  0  0  0
  183.4270  179.1320  145.5500 F   0  0  0  0  0  0  0  0  0  0  0  0
  186.5840  177.3000  145.4550 C   0  0  0  0  0  0  0  0  0  0  0  0
  185.1200  178.8600  147.2140 C   0  0  0  0  0  3  0  0  0  0  0  0
  185.3580  177.8100  145.0140 C   0  0  0  0  0  0  0  0  0  0  0  0
  187.6210  175.9480  143.5860 C   0  0  0  0  0  3  0  0  0  0  0  0
  187.5400  176.5110  144.8570 C   0  0  0  0  0  0  0  0  0  0  0  0
  188.2360  176.9760  146.9160 O   0  0  0  0  0  0  0  0  0  0  0  0
  189.6720  175.5890  145.5210 C   0  0  0  0  0  0  0  0  0  0  0  0
  189.7840  175.0150  144.2420 C   0  0  0  0  0  3  0  0  0  0  0  0
  186.3550  178.3310  147.6320 C   0  0  0  0  0  3  0  0  0  0  0  0
  188.9040  174.6010  141.9660 N   0  0  0  0  0  0  0  0  0  0  0  0
  189.8260  173.5220  141.6720 C   0  0  0  0  0  2  0  0  0  0  0  0
  188.1010  174.9920  140.8230 C   0  0  0  0  0  2  0  0  0  0  0  0
  189.5320  173.1040  140.2410 C   0  0  1  0  0  3  0  0  0  0  0  0
  188.6120  174.1670  139.6560 C   0  0  0  0  0  2  0  0  0  0  0  0
  190.8120  173.0350  139.4240 C   0  0  0  0  0  2  0  0  0  0  0  0
  191.2350  171.5920  139.1950 C   0  0  2  0  0  3  0  0  0  0  0  0
  191.0510  169.1410  140.3880 S   0  0  0  0  0  0  0  0  0  0  0  0
  190.1320  170.8280  138.5000 C   0  0  0  0  0  2  0  0  0  0  0  0
  191.4830  170.9080  140.5270 C   0  0  1  0  0  3  0  0  0  0  0  0
  190.4390  169.3610  138.6910 C   0  0  0  0  0  2  0  0  0  0  0  0
  193.2410  171.2330  142.3430 N   0  0  0  0  0  0  0  0  0  0  0  0
  192.9090  171.0910  140.9530 C   0  0  0  0  0  0  0  0  0  0  0  0
  194.7040  172.6770  143.6600 C   0  0  0  0  0  2  0  0  0  0  0  0
  192.2910  172.3800  144.2740 C   0  0  0  0  0  2  0  0  0  0  0  0
  193.7100  172.5470  144.8130 C   0  0  0  0  0  2  0  0  0  0  0  0
  192.2170  171.1460  143.3810 C   0  0  0  0  0  2  0  0  0  0  0  0
  194.6250  171.4480  142.7580 C   0  0  0  0  0  2  0  0  0  0  0  0
  193.8140  171.1800  140.0780 O   0  0  0  0  0  0  0  0  0  0  0  0
  190.7620  175.4310  146.5300 C   0  0  0  0  0  2  0  0  0  0  0  0
  193.4280  176.4170  144.0200 C   0  0  0  0  0  3  0  0  0  0  0  0
  194.5910  176.3220  144.7940 C   0  0  0  0  0  0  0  0  0  0  0  0
  193.2480  175.6540  146.7040 C   0  0  0  0  0  3  0  0  0  0  0  0
  192.1800  176.1320  144.5850 C   0  0  0  0  0  3  0  0  0  0  0  0
  192.0880  175.7540  145.9290 C   0  0  0  0  0  0  0  0  0  0  0  0
  194.4940  175.9410  146.1420 C   0  0  0  0  0  3  0  0  0  0  0  0
  196.1400  176.4080  142.8880 C   0  0  0  0  0  2  0  0  0  0  0  0
  195.8840  176.6370  144.1720 C   0  0  0  0  0  3  0  0  0  0  0  0
  1  8  1  0  0  0  0
  2 12  1  0  0  0  0
  3 10  2  0  0  0  0
  3 14  1  0  0  0  0
  4 12  1  0  0  0  0
  4 15  1  0  0  0  0
  5  9  1  0  0  0  0
  6  1  1  0  0  0  0
  7  4  2  0  0  0  0
  8 15  2  0  0  0  0
  9  7  1  0  0  0  0
  9  1  2  0  0  0  0
 10 11  1  0  0  0  0
 11  7  1  0  0  0  0
 11  2  2  0  0  0  0
 13  2  1  0  0  0  0
 13 35  1  0  0  0  0
 14 13  2  0  0  0  0
 16  3  1  0  0  0  0
 17 16  1  0  0  0  0
 18 16  1  0  0  0  0
 19 21  1  6  0  0  0
 19 17  1  0  0  0  0
 20 19  1  0  0  0  0
 20 18  1  0  0  0  0
 22 21  1  1  0  0  0
 22 25  1  0  0  0  0
 23 25  1  0  0  0  0
 24 26  1  0  0  0  0
 24 22  1  0  0  0  0
 25 28  1  6  0  0  0
 26 23  1  0  0  0  0
 27 33  1  0  0  0  0
 27 32  1  0  0  0  0
 28 27  1  0  0  0  0
 29 31  1  0  0  0  0
 30 31  1  0  0  0  0
 32 30  1  0  0  0  0
 33 29  1  0  0  0  0
 34 28  2  0  0  0  0
 36 39  2  0  0  0  0
 36 37  1  0  0  0  0
 37 41  2  0  0  0  0
 39 40  1  0  0  0  0
 40 35  1  0  0  0  0
 40 38  2  0  0  0  0
 41 38  1  0  0  0  0
 42 43  2  0  0  0  0
 43 37  1  0  0  0  0
M  END
>  <MODEL>
4

>  <REMARK>
 VINA RESULT:      -8.8      1.298      1.745
  Name = 
  7 active torsions:
  status: ('A' for Active; 'I' for Inactive)
    1  A    between atoms: C_1  and  C_34
    2  A    between atoms: C_1  and  C_35
    3  A    between atoms: N_2  and  C_13
    4  A    between atoms: C_3  and  C_4
    5  A    between atoms: C_3  and  C_12
    6  A    between atoms: C_14  and  C_22
    7  A    between atoms: C_19  and  C_37
                            x       y       z     vdW  Elec       q    Type
                         _______ _______ _______ _____ _____    ______ ____

>  <TORSDO>
F 7

$$$$
=
 OpenBabel11052420423D

 43 49  0  0  1  0  0  0  0  0999 V2000
  185.2480  178.6310  146.8730 C   0  0  0  0  0  0  0  0  0  0  0  0
  187.8890  176.6610  143.7820 C   0  0  0  0  0  0  0  0  0  0  0  0
  190.4760  176.5530  144.8220 C   0  0  0  0  0  0  0  0  0  0  0  0
  186.0470  177.3940  144.5140 C   0  0  0  0  0  0  0  0  0  0  0  0
  187.5970  178.5360  147.7910 C   0  0  0  0  0  1  0  0  0  0  0  0
  184.8290  179.2340  148.0140 F   0  0  0  0  0  0  0  0  0  0  0  0
  186.9650  177.6490  145.5140 C   0  0  0  0  0  0  0  0  0  0  0  0
  184.3130  178.3710  145.8480 C   0  0  0  0  0  3  0  0  0  0  0  0
  186.6010  178.2700  146.7130 C   0  0  0  0  0  0  0  0  0  0  0  0
  189.4410  177.1360  145.5830 C   0  0  0  0  0  3  0  0  0  0  0  0
  188.1630  177.1710  145.0320 C   0  0  0  0  0  0  0  0  0  0  0  0
  186.6130  176.8020  143.4820 O   0  0  0  0  0  0  0  0  0  0  0  0
  188.8910  176.0880  142.9990 C   0  0  0  0  0  0  0  0  0  0  0  0
  190.1900  176.0310  143.5350 C   0  0  0  0  0  3  0  0  0  0  0  0
  184.7080  177.7460  144.6500 C   0  0  0  0  0  3  0  0  0  0  0  0
  191.8070  176.4760  145.3550 N   0  0  0  0  0  0  0  0  0  0  0  0
  192.9710  176.1690  144.5490 C   0  0  0  0  0  2  0  0  0  0  0  0
  192.1310  176.7450  146.7430 C   0  0  0  0  0  2  0  0  0  0  0  0
  194.1700  176.3520  145.4630 C   0  0  1  0  0  3  0  0  0  0  0  0
  193.6220  176.4960  146.8770 C   0  0  0  0  0  2  0  0  0  0  0  0
  195.0900  175.1440  145.3960 C   0  0  0  0  0  2  0  0  0  0  0  0
  196.0420  175.2490  144.2150 C   0  0  2  0  0  3  0  0  0  0  0  0
  195.9860  175.5680  141.5020 S   0  0  0  0  0  0  0  0  0  0  0  0
  196.3510  176.6980  143.9200 C   0  0  0  0  0  2  0  0  0  0  0  0
  195.3910  174.6680  142.9730 C   0  0  1  0  0  3  0  0  0  0  0  0
  196.9280  176.7400  142.5240 C   0  0  0  0  0  2  0  0  0  0  0  0
  194.6160  172.2400  142.9850 N   0  0  0  0  0  0  0  0  0  0  0  0
  195.6780  173.1990  142.8690 C   0  0  0  0  0  0  0  0  0  0  0  0
  194.2890  170.1130  144.1360 C   0  0  0  0  0  2  0  0  0  0  0  0
  192.6250  171.9740  144.3680 C   0  0  0  0  0  2  0  0  0  0  0  0
  192.8070  170.4620  144.2540 C   0  0  0  0  0  2  0  0  0  0  0  0
  193.2270  172.6620  143.1470 C   0  0  0  0  0  2  0  0  0  0  0  0
  194.8970  170.8090  142.9210 C   0  0  0  0  0  2  0  0  0  0  0  0
  196.8700  172.8050  142.7390 O   0  0  0  0  0  0  0  0  0  0  0  0
  188.5910  175.5090  141.6560 C   0  0  0  0  0  2  0  0  0  0  0  0
  189.4050  171.8770  142.3820 C   0  0  0  0  0  3  0  0  0  0  0  0
  190.2630  171.5640  141.3220 C   0  0  0  0  0  0  0  0  0  0  0  0
  190.0200  173.8280  140.4750 C   0  0  0  0  0  3  0  0  0  0  0  0
  188.8550  173.1590  142.4890 C   0  0  0  0  0  3  0  0  0  0  0  0
  189.1580  174.1350  141.5340 C   0  0  0  0  0  0  0  0  0  0  0  0
  190.5670  172.5480  140.3650 C   0  0  0  0  0  3  0  0  0  0  0  0
  191.9790  169.9380  140.6490 C   0  0  0  0  0  2  0  0  0  0  0  0
  190.8160  170.2060  141.2330 C   0  0  0  0  0  3  0  0  0  0  0  0
  1  6  1  0  0  0  0
  2 11  1  0  0  0  0
  3 16  1  0  0  0  0
  3 10  1  0  0  0  0
  4 15  2  0  0  0  0
  4  7  1  0  0  0  0
  7  9  2  0  0  0  0
  8  1  2  0  0  0  0
  9  1  1  0  0  0  0
  9  5  1  0  0  0  0
 11  7  1  0  0  0  0
 11 10  2  0  0  0  0
 12  2  1  0  0  0  0
 12  4  1  0  0  0  0
 13 14  1  0  0  0  0
 13  2  2  0  0  0  0
 14  3  2  0  0  0  0
 15  8  1  0  0  0  0
 16 18  1  0  0  0  0
 17 16  1  0  0  0  0
 17 19  1  0  0  0  0
 18 20  1  0  0  0  0
 19 21  1  1  0  0  0
 19 20  1  0  0  0  0
 22 21  1  1  0  0  0
 23 26  1  0  0  0  0
 23 25  1  0  0  0  0
 24 22  1  0  0  0  0
 25 28  1  6  0  0  0
 25 22  1  0  0  0  0
 26 24  1  0  0  0  0
 27 32  1  0  0  0  0
 28 27  1  0  0  0  0
 29 31  1  0  0  0  0
 31 30  1  0  0  0  0
 32 30  1  0  0  0  0
 33 27  1  0  0  0  0
 33 29  1  0  0  0  0
 34 28  2  0  0  0  0
 35 13  1  0  0  0  0
 36 39  1  0  0  0  0
 37 36  2  0  0  0  0
 38 40  1  0  0  0  0
 40 35  1  0  0  0  0
 40 39  2  0  0  0  0
 41 38  2  0  0  0  0
 41 37  1  0  0  0  0
 42 43  2  0  0  0  0
 43 37  1  0  0  0  0
M  END
>  <MODEL>
5

>  <REMARK>
 VINA RESULT:      -8.4      2.453      5.630
  Name = 
  7 active torsions:
  status: ('A' for Active; 'I' for Inactive)
    1  A    between atoms: C_1  and  C_34
    2  A    between atoms: C_1  and  C_35
    3  A    between atoms: N_2  and  C_13
    4  A    between atoms: C_3  and  C_4
    5  A    between atoms: C_3  and  C_12
    6  A    between atoms: C_14  and  C_22
    7  A    between atoms: C_19  and  C_37
                            x       y       z     vdW  Elec       q    Type
                         _______ _______ _______ _____ _____    ______ ____

>  <TORSDO>
F 7

$$$$
=
 OpenBabel11052420423D

 43 49  0  0  1  0  0  0  0  0999 V2000
  197.0010  173.4600  145.5410 C   0  0  0  0  0  0  0  0  0  0  0  0
  193.0790  172.6670  143.4420 C   0  0  0  0  0  0  0  0  0  0  0  0
  191.2340  174.5520  144.3520 C   0  0  0  0  0  0  0  0  0  0  0  0
  195.1150  172.2890  143.8650 C   0  0  0  0  0  0  0  0  0  0  0  0
  195.3140  175.1490  146.3610 C   0  0  0  0  0  1  0  0  0  0  0  0
  197.9410  174.0120  146.3470 F   0  0  0  0  0  0  0  0  0  0  0  0
  194.7700  173.3670  144.6570 C   0  0  0  0  0  0  0  0  0  0  0  0
  197.3480  172.3570  144.7300 C   0  0  0  0  0  3  0  0  0  0  0  0
  195.6910  173.9810  145.5130 C   0  0  0  0  0  0  0  0  0  0  0  0
  192.5510  174.5630  144.8570 C   0  0  0  0  0  3  0  0  0  0  0  0
  193.4440  173.6080  144.3800 C   0  0  0  0  0  0  0  0  0  0  0  0
  194.0920  171.8790  143.1410 O   0  0  0  0  0  0  0  0  0  0  0  0
  191.7820  172.6210  142.9300 C   0  0  0  0  0  0  0  0  0  0  0  0
  190.8610  173.5800  143.3890 C   0  0  0  0  0  3  0  0  0  0  0  0
  196.4000  171.7570  143.8800 C   0  0  0  0  0  3  0  0  0  0  0  0
  190.2820  175.5290  144.8000 N   0  0  0  0  0  0  0  0  0  0  0  0
  189.3160  175.2760  145.8500 C   0  0  0  0  0  2  0  0  0  0  0  0
  190.2210  176.8840  144.2840 C   0  0  0  0  0  2  0  0  0  0  0  0
  188.6330  176.6070  146.1150 C   0  0  1  0  0  3  0  0  0  0  0  0
  189.0490  177.5430  144.9880 C   0  0  0  0  0  2  0  0  0  0  0  0
  187.1210  176.4480  146.1100 C   0  0  0  0  0  2  0  0  0  0  0  0
  186.4320  177.7960  146.2560 C   0  0  2  0  0  3  0  0  0  0  0  0
  183.9700  178.9360  145.9270 S   0  0  0  0  0  0  0  0  0  0  0  0
  185.7970  177.9130  147.6220 C   0  0  0  0  0  2  0  0  0  0  0  0
  185.3170  177.9210  145.2330 C   0  0  1  0  0  3  0  0  0  0  0  0
  184.8030  179.0480  147.5380 C   0  0  0  0  0  2  0  0  0  0  0  0
  186.1850  177.6550  142.8510 N   0  0  0  0  0  0  0  0  0  0  0  0
  185.8430  178.5060  143.9550 C   0  0  0  0  0  0  0  0  0  0  0  0
  188.0280  177.5010  141.2590 C   0  0  0  0  0  2  0  0  0  0  0  0
  187.2810  175.4960  142.5640 C   0  0  0  0  0  2  0  0  0  0  0  0
  187.7990  175.9910  141.2160 C   0  0  0  0  0  2  0  0  0  0  0  0
  185.9790  176.2100  142.9140 C   0  0  0  0  0  2  0  0  0  0  0  0
  186.7300  178.2180  141.6190 C   0  0  0  0  0  2  0  0  0  0  0  0
  186.0390  179.7500  143.8750 O   0  0  0  0  0  0  0  0  0  0  0  0
  191.3920  171.6200  141.8930 C   0  0  0  0  0  2  0  0  0  0  0  0
  190.5950  173.6960  138.8210 C   0  0  0  0  0  3  0  0  0  0  0  0
  189.2080  173.5350  138.7260 C   0  0  0  0  0  0  0  0  0  0  0  0
  189.2520  172.1140  140.6950 C   0  0  0  0  0  3  0  0  0  0  0  0
  191.3090  173.0680  139.8490 C   0  0  0  0  0  3  0  0  0  0  0  0
  190.6380  172.2730  140.7850 C   0  0  0  0  0  0  0  0  0  0  0  0
  188.5390  172.7370  139.6680 C   0  0  0  0  0  3  0  0  0  0  0  0
  187.4360  174.9820  137.8290 C   0  0  0  0  0  2  0  0  0  0  0  0
  188.4910  174.2000  137.6290 C   0  0  0  0  0  3  0  0  0  0  0  0
  1  6  1  0  0  0  0
  2 11  1  0  0  0  0
  3 16  1  0  0  0  0
  3 10  1  0  0  0  0
  4 15  2  0  0  0  0
  4  7  1  0  0  0  0
  7  9  2  0  0  0  0
  8  1  2  0  0  0  0
  9  1  1  0  0  0  0
  9  5  1  0  0  0  0
 11  7  1  0  0  0  0
 11 10  2  0  0  0  0
 12  2  1  0  0  0  0
 12  4  1  0  0  0  0
 13 14  1  0  0  0  0
 13  2  2  0  0  0  0
 14  3  2  0  0  0  0
 15  8  1  0  0  0  0
 16 17  1  0  0  0  0
 17 19  1  0  0  0  0
 18 16  1  0  0  0  0
 18 20  1  0  0  0  0
 19 21  1  6  0  0  0
 20 19  1  0  0  0  0
 22 21  1  1  0  0  0
 22 24  1  0  0  0  0
 23 26  1  0  0  0  0
 25 28  1  6  0  0  0
 25 23  1  0  0  0  0
 25 22  1  0  0  0  0
 26 24  1  0  0  0  0
 27 32  1  0  0  0  0
 27 28  1  0  0  0  0
 29 33  1  0  0  0  0
 30 32  1  0  0  0  0
 31 29  1  0  0  0  0
 31 30  1  0  0  0  0
 33 27  1  0  0  0  0
 34 28  2  0  0  0  0
 35 13  1  0  0  0  0
 36 39  1  0  0  0  0
 37 36  2  0  0  0  0
 37 41  1  0  0  0  0
 38 40  1  0  0  0  0
 39 40  2  0  0  0  0
 40 35  1  0  0  0  0
 41 38  2  0  0  0  0
 43 42  2  0  0  0  0
 43 37  1  0  0  0  0
M  END
>  <MODEL>
6

>  <REMARK>
 VINA RESULT:      -8.4      3.822      9.325
  Name = 
  7 active torsions:
  status: ('A' for Active; 'I' for Inactive)
    1  A    between atoms: C_1  and  C_34
    2  A    between atoms: C_1  and  C_35
    3  A    between atoms: N_2  and  C_13
    4  A    between atoms: C_3  and  C_4
    5  A    between atoms: C_3  and  C_12
    6  A    between atoms: C_14  and  C_22
    7  A    between atoms: C_19  and  C_37
                            x       y       z     vdW  Elec       q    Type
                         _______ _______ _______ _____ _____    ______ ____

>  <TORSDO>
F 7

$$$$
=
 OpenBabel11052420423D

 43 49  0  0  1  0  0  0  0  0999 V2000
  191.1810  172.3630  135.7980 C   0  0  0  0  0  0  0  0  0  0  0  0
  191.5230  172.4230  140.3020 C   0  0  0  0  0  0  0  0  0  0  0  0
  189.5350  174.1200  141.2820 C   0  0  0  0  0  0  0  0  0  0  0  0
  192.0960  171.8060  138.3640 C   0  0  0  0  0  0  0  0  0  0  0  0
  189.3970  173.9040  136.7020 C   0  0  0  0  0  1  0  0  0  0  0  0
  190.7540  172.6150  134.5350 F   0  0  0  0  0  0  0  0  0  0  0  0
  191.0340  172.6690  138.1740 C   0  0  0  0  0  0  0  0  0  0  0  0
  192.2660  171.4820  135.9970 C   0  0  0  0  0  3  0  0  0  0  0  0
  190.5470  172.9750  136.8990 C   0  0  0  0  0  0  0  0  0  0  0  0
  189.6640  173.9240  139.8900 C   0  0  0  0  0  3  0  0  0  0  0  0
  190.6660  173.0700  139.4390 C   0  0  0  0  0  0  0  0  0  0  0  0
  192.3780  171.6670  139.6440 O   0  0  0  0  0  0  0  0  0  0  0  0
  191.4300  172.6030  141.6820 C   0  0  0  0  0  0  0  0  0  0  0  0
  190.4200  173.4540  142.1670 C   0  0  0  0  0  3  0  0  0  0  0  0
  192.7370  171.1940  137.2920 C   0  0  0  0  0  3  0  0  0  0  0  0
  188.5040  174.9760  141.7960 N   0  0  0  0  0  0  0  0  0  0  0  0
  188.5490  176.4210  141.7010 C   0  0  0  0  0  2  0  0  0  0  0  0
  187.2900  174.4830  142.4190 C   0  0  0  0  0  2  0  0  0  0  0  0
  187.2060  176.9130  142.2120 C   0  0  1  0  0  3  0  0  0  0  0  0
  186.5200  175.7160  142.8580 C   0  0  0  0  0  2  0  0  0  0  0  0
  187.3910  178.0110  143.2480 C   0  0  0  0  0  2  0  0  0  0  0  0
  186.2380  178.0230  144.2400 C   0  0  2  0  0  3  0  0  0  0  0  0
  185.5340  179.1720  146.6160 S   0  0  0  0  0  0  0  0  0  0  0  0
  185.2970  179.1650  143.9330 C   0  0  0  0  0  2  0  0  0  0  0  0
  186.7680  178.2450  145.6450 C   0  0  1  0  0  3  0  0  0  0  0  0
  184.4530  179.3690  145.1690 C   0  0  0  0  0  2  0  0  0  0  0  0
  188.4640  176.4880  146.3730 N   0  0  0  0  0  0  0  0  0  0  0  0
  187.1020  176.9330  146.2920 C   0  0  0  0  0  0  0  0  0  0  0  0
  189.6490  174.3860  146.0030 C   0  0  0  0  0  2  0  0  0  0  0  0
  190.4150  176.5090  144.9100 C   0  0  0  0  0  2  0  0  0  0  0  0
  190.8630  175.2050  145.5680 C   0  0  0  0  0  2  0  0  0  0  0  0
  189.5640  177.3160  145.8850 C   0  0  0  0  0  2  0  0  0  0  0  0
  188.7890  175.1950  146.9700 C   0  0  0  0  0  2  0  0  0  0  0  0
  186.1720  176.1930  146.7140 O   0  0  0  0  0  0  0  0  0  0  0  0
  192.3390  171.8810  142.6220 C   0  0  0  0  0  2  0  0  0  0  0  0
  194.1140  174.9600  143.9430 C   0  0  0  0  0  3  0  0  0  0  0  0
  194.3110  174.6170  145.2860 C   0  0  0  0  0  0  0  0  0  0  0  0
  193.2100  172.4890  144.8880 C   0  0  0  0  0  3  0  0  0  0  0  0
  193.4670  174.0730  143.0760 C   0  0  0  0  0  3  0  0  0  0  0  0
  193.0100  172.8370  143.5480 C   0  0  0  0  0  0  0  0  0  0  0  0
  193.8530  173.3750  145.7550 C   0  0  0  0  0  3  0  0  0  0  0  0
  194.4530  176.7480  146.5010 C   0  0  0  0  0  2  0  0  0  0  0  0
  194.9850  175.5760  146.1720 C   0  0  0  0  0  3  0  0  0  0  0  0
  1  8  2  0  0  0  0
  1  9  1  0  0  0  0
  2 13  1  0  0  0  0
  3 16  1  0  0  0  0
  3 14  1  0  0  0  0
  4 12  1  0  0  0  0
  5  9  1  0  0  0  0
  6  1  1  0  0  0  0
  7  4  1  0  0  0  0
  7 11  1  0  0  0  0
  8 15  1  0  0  0  0
  9  7  2  0  0  0  0
 10  3  2  0  0  0  0
 11 10  1  0  0  0  0
 11  2  2  0  0  0  0
 12  2  1  0  0  0  0
 13 14  2  0  0  0  0
 13 35  1  0  0  0  0
 15  4  2  0  0  0  0
 16 18  1  0  0  0  0
 17 16  1  0  0  0  0
 17 19  1  0  0  0  0
 18 20  1  0  0  0  0
 19 20  1  0  0  0  0
 19 21  1  1  0  0  0
 22 21  1  6  0  0  0
 22 25  1  0  0  0  0
 24 22  1  0  0  0  0
 24 26  1  0  0  0  0
 25 28  1  1  0  0  0
 25 23  1  0  0  0  0
 26 23  1  0  0  0  0
 27 33  1  0  0  0  0
 28 27  1  0  0  0  0
 28 34  2  0  0  0  0
 29 33  1  0  0  0  0
 30 31  1  0  0  0  0
 30 32  1  0  0  0  0
 31 29  1  0  0  0  0
 32 27  1  0  0  0  0
 35 40  1  0  0  0  0
 36 37  1  0  0  0  0
 37 41  2  0  0  0  0
 37 43  1  0  0  0  0
 38 41  1  0  0  0  0
 39 40  1  0  0  0  0
 39 36  2  0  0  0  0
 40 38  2  0  0  0  0
 43 42  2  0  0  0  0
M  END
>  <MODEL>
7

>  <REMARK>
 VINA RESULT:      -8.3      3.532      8.277
  Name = 
  7 active torsions:
  status: ('A' for Active; 'I' for Inactive)
    1  A    between atoms: C_1  and  C_34
    2  A    between atoms: C_1  and  C_35
    3  A    between atoms: N_2  and  C_13
    4  A    between atoms: C_3  and  C_4
    5  A    between atoms: C_3  and  C_12
    6  A    between atoms: C_14  and  C_22
    7  A    between atoms: C_19  and  C_37
                            x       y       z     vdW  Elec       q    Type
                         _______ _______ _______ _____ _____    ______ ____

>  <TORSDO>
F 7

$$$$
=
 OpenBabel11052420423D

 43 49  0  0  1  0  0  0  0  0999 V2000
  184.7750  178.5860  145.8330 C   0  0  0  0  0  0  0  0  0  0  0  0
  188.5670  176.1350  145.9700 C   0  0  0  0  0  0  0  0  0  0  0  0
  188.9930  175.0860  143.4200 C   0  0  0  0  0  0  0  0  0  0  0  0
  187.0770  177.3720  146.8140 C   0  0  0  0  0  0  0  0  0  0  0  0
  185.1700  177.6180  143.5360 C   0  0  0  0  0  1  0  0  0  0  0  0
  183.6490  179.1920  145.3810 F   0  0  0  0  0  0  0  0  0  0  0  0
  186.7090  177.2050  145.4930 C   0  0  0  0  0  0  0  0  0  0  0  0
  185.1550  178.7530  147.1830 C   0  0  0  0  0  3  0  0  0  0  0  0
  185.5580  177.7980  144.9650 C   0  0  0  0  0  0  0  0  0  0  0  0
  187.8600  175.8910  143.6650 C   0  0  0  0  0  3  0  0  0  0  0  0
  187.6810  176.3970  144.9490 C   0  0  0  0  0  0  0  0  0  0  0  0
  188.1930  176.7260  147.0870 O   0  0  0  0  0  0  0  0  0  0  0  0
  189.6910  175.3340  145.7650 C   0  0  0  0  0  0  0  0  0  0  0  0
  189.9010  174.8160  144.4750 C   0  0  0  0  0  3  0  0  0  0  0  0
  186.3170  178.1420  147.6890 C   0  0  0  0  0  3  0  0  0  0  0  0
  189.2300  174.5570  142.1060 N   0  0  0  0  0  0  0  0  0  0  0  0
  190.3520  173.6980  141.7860 C   0  0  0  0  0  2  0  0  0  0  0  0
  188.3470  174.7850  140.9790 C   0  0  0  0  0  2  0  0  0  0  0  0
  190.1310  173.2430  140.3530 C   0  0  1  0  0  3  0  0  0  0  0  0
  189.0010  174.0980  139.7940 C   0  0  0  0  0  2  0  0  0  0  0  0
  191.3850  173.4510  139.5200 C   0  0  0  0  0  2  0  0  0  0  0  0
  192.6350  173.3220  140.3760 C   0  0  2  0  0  3  0  0  0  0  0  0
  195.2880  172.7150  140.1300 S   0  0  0  0  0  0  0  0  0  0  0  0
  193.4030  174.6230  140.3790 C   0  0  0  0  0  2  0  0  0  0  0  0
  193.5530  172.2620  139.7940 C   0  0  1  0  0  3  0  0  0  0  0  0
  194.7950  174.3000  140.8700 C   0  0  0  0  0  2  0  0  0  0  0  0
  192.5560  169.9290  139.5520 N   0  0  0  0  0  0  0  0  0  0  0  0
  193.2200  170.9130  140.3600 C   0  0  0  0  0  0  0  0  0  0  0  0
  190.7170  168.3540  139.8610 C   0  0  0  0  0  2  0  0  0  0  0  0
  190.7570  169.9230  137.9050 C   0  0  0  0  0  2  0  0  0  0  0  0
  190.3950  168.5160  138.3760 C   0  0  0  0  0  2  0  0  0  0  0  0
  192.2390  170.1870  138.1490 C   0  0  0  0  0  2  0  0  0  0  0  0
  192.1970  168.6280  140.1100 C   0  0  0  0  0  2  0  0  0  0  0  0
  193.4730  170.6650  141.5710 O   0  0  0  0  0  0  0  0  0  0  0  0
  190.6690  175.0720  146.8640 C   0  0  0  0  0  2  0  0  0  0  0  0
  194.1200  174.0450  145.6740 C   0  0  0  0  0  3  0  0  0  0  0  0
  194.7160  175.2890  145.4350 C   0  0  0  0  0  0  0  0  0  0  0  0
  192.6620  176.3890  146.1210 C   0  0  0  0  0  3  0  0  0  0  0  0
  192.8000  173.9720  146.1340 C   0  0  0  0  0  3  0  0  0  0  0  0
  192.0680  175.1440  146.3540 C   0  0  0  0  0  0  0  0  0  0  0  0
  193.9780  176.4630  145.6590 C   0  0  0  0  0  3  0  0  0  0  0  0
  196.5820  174.4430  144.0790 C   0  0  0  0  0  2  0  0  0  0  0  0
  196.1000  175.3290  144.9430 C   0  0  0  0  0  3  0  0  0  0  0  0
  1  8  1  0  0  0  0
  2 12  1  0  0  0  0
  3 10  2  0  0  0  0
  3 14  1  0  0  0  0
  4 12  1  0  0  0  0
  4 15  1  0  0  0  0
  5  9  1  0  0  0  0
  6  1  1  0  0  0  0
  7  4  2  0  0  0  0
  8 15  2  0  0  0  0
  9  7  1  0  0  0  0
  9  1  2  0  0  0  0
 10 11  1  0  0  0  0
 11  7  1  0  0  0  0
 11  2  2  0  0  0  0
 13  2  1  0  0  0  0
 13 35  1  0  0  0  0
 14 13  2  0  0  0  0
 16  3  1  0  0  0  0
 17 16  1  0  0  0  0
 18 16  1  0  0  0  0
 19 21  1  6  0  0  0
 19 17  1  0  0  0  0
 20 19  1  0  0  0  0
 20 18  1  0  0  0  0
 22 21  1  6  0  0  0
 22 24  1  0  0  0  0
 23 26  1  0  0  0  0
 24 26  1  0  0  0  0
 25 23  1  0  0  0  0
 25 28  1  1  0  0  0
 25 22  1  0  0  0  0
 27 33  1  0  0  0  0
 27 28  1  0  0  0  0
 28 34  2  0  0  0  0
 29 33  1  0  0  0  0
 30 32  1  0  0  0  0
 30 31  1  0  0  0  0
 31 29  1  0  0  0  0
 32 27  1  0  0  0  0
 36 39  1  0  0  0  0
 37 41  1  0  0  0  0
 37 36  2  0  0  0  0
 38 40  1  0  0  0  0
 39 40  2  0  0  0  0
 40 35  1  0  0  0  0
 41 38  2  0  0  0  0
 42 43  2  0  0  0  0
 43 37  1  0  0  0  0
M  END
>  <MODEL>
8

>  <REMARK>
 VINA RESULT:      -8.2      1.621      2.636
  Name = 
  7 active torsions:
  status: ('A' for Active; 'I' for Inactive)
    1  A    between atoms: C_1  and  C_34
    2  A    between atoms: C_1  and  C_35
    3  A    between atoms: N_2  and  C_13
    4  A    between atoms: C_3  and  C_4
    5  A    between atoms: C_3  and  C_12
    6  A    between atoms: C_14  and  C_22
    7  A    between atoms: C_19  and  C_37
                            x       y       z     vdW  Elec       q    Type
                         _______ _______ _______ _____ _____    ______ ____

>  <TORSDO>
F 7

$$$$
=
 OpenBabel11052420423D

 43 49  0  0  1  0  0  0  0  0999 V2000
  196.1630  173.2640  145.8200 C   0  0  0  0  0  0  0  0  0  0  0  0
  193.1160  171.4760  143.0050 C   0  0  0  0  0  0  0  0  0  0  0  0
  191.0280  173.3080  142.7380 C   0  0  0  0  0  0  0  0  0  0  0  0
  194.9270  171.4690  144.0930 C   0  0  0  0  0  0  0  0  0  0  0  0
  194.2590  174.9040  145.5760 C   0  0  0  0  0  1  0  0  0  0  0  0
  196.7900  174.1220  146.6640 F   0  0  0  0  0  0  0  0  0  0  0  0
  194.3240  172.6740  144.3950 C   0  0  0  0  0  0  0  0  0  0  0  0
  196.7760  172.0310  145.5100 C   0  0  0  0  0  3  0  0  0  0  0  0
  194.9140  173.6010  145.2600 C   0  0  0  0  0  0  0  0  0  0  0  0
  192.1210  173.6110  143.5780 C   0  0  0  0  0  3  0  0  0  0  0  0
  193.1440  172.6730  143.6860 C   0  0  0  0  0  0  0  0  0  0  0  0
  194.1940  170.7600  143.2590 O   0  0  0  0  0  0  0  0  0  0  0  0
  192.0460  171.1400  142.1760 C   0  0  0  0  0  0  0  0  0  0  0  0
  191.0020  172.0730  142.0420 C   0  0  0  0  0  3  0  0  0  0  0  0
  196.1580  171.1150  144.6380 C   0  0  0  0  0  3  0  0  0  0  0  0
  189.9580  174.2520  142.5800 N   0  0  0  0  0  0  0  0  0  0  0  0
  190.1710  175.6540  142.2820 C   0  0  0  0  0  2  0  0  0  0  0  0
  188.5550  173.8920  142.6520 C   0  0  0  0  0  2  0  0  0  0  0  0
  188.7920  176.2410  142.0380 C   0  0  1  0  0  3  0  0  0  0  0  0
  187.7850  175.1900  142.4850 C   0  0  0  0  0  2  0  0  0  0  0  0
  188.5930  177.5110  142.8510 C   0  0  0  0  0  2  0  0  0  0  0  0
  187.1430  177.6610  143.2810 C   0  0  2  0  0  3  0  0  0  0  0  0
  185.5870  179.2290  144.8890 S   0  0  0  0  0  0  0  0  0  0  0  0
  186.4360  178.6620  142.3960 C   0  0  0  0  0  2  0  0  0  0  0  0
  187.0770  178.1940  144.7010 C   0  0  1  0  0  3  0  0  0  0  0  0
  185.1770  179.0660  143.1260 C   0  0  0  0  0  2  0  0  0  0  0  0
  188.3060  176.6710  146.3330 N   0  0  0  0  0  0  0  0  0  0  0  0
  187.0860  177.0620  145.6860 C   0  0  0  0  0  0  0  0  0  0  0  0
  189.4160  174.5620  146.8570 C   0  0  0  0  0  2  0  0  0  0  0  0
  190.6410  176.4070  145.6820 C   0  0  0  0  0  2  0  0  0  0  0  0
  190.7530  175.2880  146.7150 C   0  0  0  0  0  2  0  0  0  0  0  0
  189.5540  177.3920  146.1010 C   0  0  0  0  0  2  0  0  0  0  0  0
  188.3250  175.5470  147.2660 C   0  0  0  0  0  2  0  0  0  0  0  0
  186.0240  176.4140  145.9000 O   0  0  0  0  0  0  0  0  0  0  0  0
  192.0260  169.8550  141.4140 C   0  0  0  0  0  2  0  0  0  0  0  0
  191.9860  171.1370  137.8460 C   0  0  0  0  0  3  0  0  0  0  0  0
  190.8160  170.5490  137.3490 C   0  0  0  0  0  0  0  0  0  0  0  0
  190.4440  169.5000  139.5080 C   0  0  0  0  0  3  0  0  0  0  0  0
  192.3840  170.9080  139.1670 C   0  0  0  0  0  3  0  0  0  0  0  0
  191.6160  170.0860  139.9990 C   0  0  0  0  0  0  0  0  0  0  0  0
  190.0470  169.7260  138.1880 C   0  0  0  0  0  3  0  0  0  0  0  0
  189.3680  171.5250  135.6210 C   0  0  0  0  0  2  0  0  0  0  0  0
  190.4320  170.8030  135.9540 C   0  0  0  0  0  3  0  0  0  0  0  0
  1  6  1  0  0  0  0
  2 12  1  0  0  0  0
  2 11  1  0  0  0  0
  3 10  1  0  0  0  0
  4  7  2  0  0  0  0
  4 15  1  0  0  0  0
  7  9  1  0  0  0  0
  8  1  1  0  0  0  0
  9  5  1  0  0  0  0
  9  1  2  0  0  0  0
 10 11  2  0  0  0  0
 11  7  1  0  0  0  0
 12  4  1  0  0  0  0
 13  2  2  0  0  0  0
 14 13  1  0  0  0  0
 14  3  2  0  0  0  0
 15  8  2  0  0  0  0
 16 18  1  0  0  0  0
 16  3  1  0  0  0  0
 17 16  1  0  0  0  0
 19 17  1  0  0  0  0
 19 20  1  0  0  0  0
 19 21  1  1  0  0  0
 20 18  1  0  0  0  0
 22 21  1  6  0  0  0
 22 25  1  0  0  0  0
 24 26  1  0  0  0  0
 24 22  1  0  0  0  0
 25 23  1  0  0  0  0
 25 28  1  1  0  0  0
 26 23  1  0  0  0  0
 27 33  1  0  0  0  0
 28 34  2  0  0  0  0
 28 27  1  0  0  0  0
 29 33  1  0  0  0  0
 30 32  1  0  0  0  0
 30 31  1  0  0  0  0
 31 29  1  0  0  0  0
 32 27  1  0  0  0  0
 35 13  1  0  0  0  0
 36 39  1  0  0  0  0
 37 36  2  0  0  0  0
 37 41  1  0  0  0  0
 38 40  1  0  0  0  0
 39 40  2  0  0  0  0
 40 35  1  0  0  0  0
 41 38  2  0  0  0  0
 42 43  2  0  0  0  0
 43 37  1  0  0  0  0
M  END
>  <MODEL>
9

>  <REMARK>
 VINA RESULT:      -8.1      3.489      8.952
  Name = 
  7 active torsions:
  status: ('A' for Active; 'I' for Inactive)
    1  A    between atoms: C_1  and  C_34
    2  A    between atoms: C_1  and  C_35
    3  A    between atoms: N_2  and  C_13
    4  A    between atoms: C_3  and  C_4
    5  A    between atoms: C_3  and  C_12
    6  A    between atoms: C_14  and  C_22
    7  A    between atoms: C_19  and  C_37
                            x       y       z     vdW  Elec       q    Type
                         _______ _______ _______ _____ _____    ______ ____

>  <TORSDO>
F 7

$$$$
