=
 OpenBabel11052421403D

 32 37  0  0  1  0  0  0  0  0999 V2000
  190.9350  175.9010  143.9510 C   0  0  2  0  0  3  0  0  0  0  0  0
  189.0590  174.8550  147.2450 C   0  0  0  0  0  2  0  0  0  0  0  0
  187.9040  177.7670  147.3260 C   0  0  0  0  0  1  0  0  0  0  0  0
  188.5680  175.7100  142.8560 C   0  0  1  0  0  3  0  0  0  0  0  0
  187.5610  176.5450  142.1170 C   0  0  0  0  0  0  0  0  0  0  0  0
  192.5240  176.9380  145.2460 C   0  0  2  0  0  3  0  0  0  0  0  0
  191.6220  176.2040  147.6500 C   0  0  0  0  0  1  0  0  0  0  0  0
  185.7660  178.2270  140.7700 C   0  0  0  0  0  3  0  0  0  0  0  0
  191.8660  174.6220  145.7600 O   0  0  0  0  0  0  0  0  0  0  0  0
  188.2920  175.5880  146.1620 C   0  0  2  0  0  3  0  0  0  0  0  0
  190.7450  175.3860  145.3610 C   0  0  2  0  0  0  0  0  0  0  0  0
  189.4530  174.6560  145.7930 C   0  0  1  0  0  3  0  0  0  0  0  0
  189.3800  177.8520  143.9330 O   0  0  0  0  0  0  0  0  0  0  0  0
  186.5420  177.3140  140.0500 C   0  0  0  0  0  3  0  0  0  0  0  0
  191.8150  175.9630  146.1630 C   0  0  2  0  0  0  0  0  0  0  0  0
  187.4410  176.4800  140.7210 C   0  0  0  0  0  3  0  0  0  0  0  0
  188.6450  177.0770  146.1940 C   0  0  1  0  0  3  0  0  0  0  0  0
  188.3150  177.7660  144.8700 C   0  0  2  0  0  3  0  0  0  0  0  0
  186.8840  177.5650  144.3270 C   0  0  0  0  0  2  0  0  0  0  0  0
  192.0530  176.7670  143.9220 O   0  0  0  0  0  0  0  0  0  0  0  0
  189.0600  174.6760  142.0530 O   0  0  0  0  0  1  0  0  0  0  0  0
  185.8910  178.3080  142.1590 C   0  0  0  0  0  3  0  0  0  0  0  0
  189.7170  176.6060  143.3380 C   0  0  1  0  0  3  0  0  0  0  0  0
  186.7940  177.4800  142.8350 C   0  0  0  0  0  0  0  0  0  0  0  0
  194.0350  176.7370  145.2720 C   0  0  0  0  0  2  0  0  0  0  0  0
  195.7540  176.2420  143.6910 C   0  0  0  0  0  3  0  0  0  0  0  0
  194.5010  176.1740  144.0160 N   0  0  0  0  0  0  0  0  0  0  0  0
  196.0480  176.2900  141.3180 C   0  0  0  0  0  3  0  0  0  0  0  0
  196.2350  175.7030  142.4570 N   0  0  0  0  0  0  0  0  0  0  0  0
  196.5570  175.7060  140.0780 C   0  0  0  0  0  0  0  0  0  0  0  0
  195.6660  175.1600  139.1110 N   0  0  0  0  0  2  0  0  0  0  0  0
  197.8290  175.6860  139.8580 N   0  0  0  0  0  1  0  0  0  0  0  0
  1 20  1  1  0  0  0
  1 11  1  0  0  0  0
  4 21  1  6  0  0  0
  4 23  1  0  0  0  0
  5 24  1  0  0  0  0
  5  4  1  0  0  0  0
  6 25  1  6  0  0  0
  6 15  1  0  0  0  0
  8 22  1  0  0  0  0
  9 15  1  0  0  0  0
 10 17  1  0  0  0  0
 10  2  1  1  0  0  0
 11  9  1  6  0  0  0
 11 12  1  0  0  0  0
 11 15  1  0  0  0  0
 12 10  1  0  0  0  0
 12  2  1  1  0  0  0
 13 18  1  0  0  0  0
 14 16  1  0  0  0  0
 14  8  2  0  0  0  0
 15  7  1  1  0  0  0
 16  5  2  0  0  0  0
 17  3  1  1  0  0  0
 18 19  1  6  0  0  0
 18 17  1  0  0  0  0
 20  6  1  0  0  0  0
 22 24  2  0  0  0  0
 23 13  1  1  0  0  0
 23  1  1  0  0  0  0
 24 19  1  0  0  0  0
 26 27  2  0  0  0  0
 27 25  1  0  0  0  0
 28 29  2  0  0  0  0
 29 26  1  0  0  0  0
 30 28  1  0  0  0  0
 31 30  2  0  0  0  0
 32 30  1  0  0  0  0
M  END
>  <MODEL>
1

>  <REMARK>
 VINA RESULT:      -8.2      0.000      0.000
  Name = 
  4 active torsions:
  status: ('A' for Active; 'I' for Inactive)
    1  A    between atoms: C_1  and  C_10
    2  A    between atoms: C_2  and  N_24
    3  A    between atoms: C_8  and  C_23
    4  A    between atoms: N_19  and  C_23
                            x       y       z     vdW  Elec       q    Type
                         _______ _______ _______ _____ _____    ______ ____

>  <TORSDO>
F 4

$$$$
=
 OpenBabel11052421403D

 32 37  0  0  1  0  0  0  0  0999 V2000
  191.0220  175.8480  143.9600 C   0  0  2  0  0  3  0  0  0  0  0  0
  189.1130  174.8250  147.2420 C   0  0  0  0  0  2  0  0  0  0  0  0
  187.9330  177.7270  147.2750 C   0  0  0  0  0  1  0  0  0  0  0  0
  188.6700  175.6240  142.8370 C   0  0  1  0  0  3  0  0  0  0  0  0
  187.6650  176.4420  142.0770 C   0  0  0  0  0  0  0  0  0  0  0  0
  192.5860  176.9130  145.2610 C   0  0  2  0  0  3  0  0  0  0  0  0
  191.6600  176.2000  147.6630 C   0  0  0  0  0  1  0  0  0  0  0  0
  185.8740  178.0930  140.6870 C   0  0  0  0  0  3  0  0  0  0  0  0
  191.9410  174.5980  145.7950 O   0  0  0  0  0  0  0  0  0  0  0  0
  188.3540  175.5380  146.1410 C   0  0  2  0  0  3  0  0  0  0  0  0
  190.8180  175.3480  145.3730 C   0  0  2  0  0  0  0  0  0  0  0  0
  189.5270  174.6120  145.7980 C   0  0  1  0  0  3  0  0  0  0  0  0
  189.4500  177.7860  143.9000 O   0  0  0  0  0  0  0  0  0  0  0  0
  186.6660  177.1780  139.9880 C   0  0  0  0  0  3  0  0  0  0  0  0
  191.8730  175.9430  146.1820 C   0  0  2  0  0  0  0  0  0  0  0  0
  187.5630  176.3590  140.6800 C   0  0  0  0  0  3  0  0  0  0  0  0
  188.6940  177.0310  146.1600 C   0  0  1  0  0  3  0  0  0  0  0  0
  188.3750  177.7010  144.8240 C   0  0  2  0  0  3  0  0  0  0  0  0
  186.9530  177.4820  144.2660 C   0  0  0  0  0  2  0  0  0  0  0  0
  192.1320  176.7230  143.9340 O   0  0  0  0  0  0  0  0  0  0  0  0
  189.1810  174.5850  142.0530 O   0  0  0  0  0  1  0  0  0  0  0  0
  185.9800  178.1910  142.0770 C   0  0  0  0  0  3  0  0  0  0  0  0
  189.8060  176.5350  143.3230 C   0  0  1  0  0  3  0  0  0  0  0  0
  186.8810  177.3780  142.7730 C   0  0  0  0  0  0  0  0  0  0  0  0
  194.0970  176.7250  145.3090 C   0  0  0  0  0  2  0  0  0  0  0  0
  195.3580  174.7360  145.6960 C   0  0  0  0  0  3  0  0  0  0  0  0
  194.4550  175.3510  145.0000 N   0  0  0  0  0  0  0  0  0  0  0  0
  196.7940  172.8340  145.9000 C   0  0  0  0  0  3  0  0  0  0  0  0
  195.7320  173.3860  145.4060 N   0  0  0  0  0  0  0  0  0  0  0  0
  197.1420  171.4500  145.5790 C   0  0  0  0  0  0  0  0  0  0  0  0
  196.6080  170.3710  146.3400 N   0  0  0  0  0  1  0  0  0  0  0  0
  197.9400  171.2050  144.5960 N   0  0  0  0  0  2  0  0  0  0  0  0
  1 20  1  1  0  0  0
  1 11  1  0  0  0  0
  4 21  1  6  0  0  0
  4 23  1  0  0  0  0
  5 24  1  0  0  0  0
  5  4  1  0  0  0  0
  6 25  1  6  0  0  0
  6 15  1  0  0  0  0
  8 22  1  0  0  0  0
  9 15  1  0  0  0  0
 10 17  1  0  0  0  0
 10  2  1  1  0  0  0
 11  9  1  6  0  0  0
 11 12  1  0  0  0  0
 11 15  1  0  0  0  0
 12 10  1  0  0  0  0
 12  2  1  1  0  0  0
 13 18  1  0  0  0  0
 14 16  1  0  0  0  0
 14  8  2  0  0  0  0
 15  7  1  1  0  0  0
 16  5  2  0  0  0  0
 17  3  1  1  0  0  0
 18 19  1  6  0  0  0
 18 17  1  0  0  0  0
 20  6  1  0  0  0  0
 22 24  2  0  0  0  0
 23 13  1  1  0  0  0
 23  1  1  0  0  0  0
 24 19  1  0  0  0  0
 27 25  1  0  0  0  0
 27 26  2  0  0  0  0
 29 26  1  0  0  0  0
 29 28  2  0  0  0  0
 30 28  1  0  0  0  0
 30 31  1  0  0  0  0
 32 30  2  0  0  0  0
M  END
>  <MODEL>
2

>  <REMARK>
 VINA RESULT:      -7.9      2.131      2.643
  Name = 
  4 active torsions:
  status: ('A' for Active; 'I' for Inactive)
    1  A    between atoms: C_1  and  C_10
    2  A    between atoms: C_2  and  N_24
    3  A    between atoms: C_8  and  C_23
    4  A    between atoms: N_19  and  C_23
                            x       y       z     vdW  Elec       q    Type
                         _______ _______ _______ _____ _____    ______ ____

>  <TORSDO>
F 4

$$$$
=
 OpenBabel11052421403D

 32 37  0  0  1  0  0  0  0  0999 V2000
  191.1070  176.2800  143.1600 C   0  0  2  0  0  3  0  0  0  0  0  0
  190.2660  173.0290  145.2060 C   0  0  0  0  0  2  0  0  0  0  0  0
  189.6420  174.9080  147.6350 C   0  0  0  0  0  1  0  0  0  0  0  0
  188.5120  176.5990  143.1060 C   0  0  1  0  0  3  0  0  0  0  0  0
  187.4540  177.5770  143.5330 C   0  0  0  0  0  0  0  0  0  0  0  0
  193.1640  176.3290  144.1790 C   0  0  2  0  0  3  0  0  0  0  0  0
  192.9920  174.0370  145.5380 C   0  0  0  0  0  1  0  0  0  0  0  0
  185.5880  179.4800  144.4070 C   0  0  0  0  0  3  0  0  0  0  0  0
  192.3740  174.2390  143.1480 O   0  0  0  0  0  0  0  0  0  0  0  0
  189.3070  174.2010  145.2600 C   0  0  2  0  0  3  0  0  0  0  0  0
  191.3100  174.9180  143.7850 C   0  0  2  0  0  0  0  0  0  0  0  0
  190.1350  173.9360  143.9960 C   0  0  1  0  0  3  0  0  0  0  0  0
  189.9350  177.4900  145.0010 O   0  0  0  0  0  0  0  0  0  0  0  0
  185.9460  179.4210  143.0570 C   0  0  0  0  0  3  0  0  0  0  0  0
  192.6540  174.9120  144.3440 C   0  0  2  0  0  0  0  0  0  0  0  0
  186.8800  178.4770  142.6220 C   0  0  0  0  0  3  0  0  0  0  0  0
  189.8670  175.2880  146.1820 C   0  0  1  0  0  3  0  0  0  0  0  0
  189.2310  176.6500  145.9030 C   0  0  2  0  0  3  0  0  0  0  0  0
  187.6880  176.6990  145.8900 C   0  0  0  0  0  2  0  0  0  0  0  0
  192.2690  177.0600  143.3610 O   0  0  0  0  0  0  0  0  0  0  0  0
  188.5590  176.4760  141.7140 O   0  0  0  0  0  1  0  0  0  0  0  0
  186.1670  178.5970  145.3220 C   0  0  0  0  0  3  0  0  0  0  0  0
  189.8740  177.0520  143.6490 C   0  0  1  0  0  3  0  0  0  0  0  0
  187.1070  177.6550  144.8940 C   0  0  0  0  0  0  0  0  0  0  0  0
  194.5540  176.3580  143.5560 C   0  0  0  0  0  2  0  0  0  0  0  0
  195.5050  175.8070  141.4370 C   0  0  0  0  0  3  0  0  0  0  0  0
  194.4750  176.2070  142.1130 N   0  0  0  0  0  0  0  0  0  0  0  0
  196.4270  175.1500  139.3300 C   0  0  0  0  0  3  0  0  0  0  0  0
  195.4530  175.6590  140.0160 N   0  0  0  0  0  0  0  0  0  0  0  0
  196.3330  175.0150  137.8770 C   0  0  0  0  0  0  0  0  0  0  0  0
  195.3160  174.2130  137.2850 N   0  0  0  0  0  1  0  0  0  0  0  0
  197.1830  175.6290  137.1240 N   0  0  0  0  0  2  0  0  0  0  0  0
  1 20  1  1  0  0  0
  1 23  1  0  0  0  0
  1 11  1  0  0  0  0
  4 21  1  6  0  0  0
  4  5  1  0  0  0  0
  4 23  1  0  0  0  0
  5 24  1  0  0  0  0
  6 25  1  6  0  0  0
  6 15  1  0  0  0  0
  8 22  1  0  0  0  0
  9 15  1  0  0  0  0
 10  2  1  1  0  0  0
 10 17  1  0  0  0  0
 11  9  1  6  0  0  0
 11 12  1  0  0  0  0
 11 15  1  0  0  0  0
 12  2  1  1  0  0  0
 12 10  1  0  0  0  0
 13 18  1  0  0  0  0
 14  8  2  0  0  0  0
 15  7  1  1  0  0  0
 16 14  1  0  0  0  0
 16  5  2  0  0  0  0
 17  3  1  1  0  0  0
 18 19  1  6  0  0  0
 18 17  1  0  0  0  0
 20  6  1  0  0  0  0
 23 13  1  1  0  0  0
 24 22  2  0  0  0  0
 24 19  1  0  0  0  0
 26 27  2  0  0  0  0
 27 25  1  0  0  0  0
 28 29  2  0  0  0  0
 29 26  1  0  0  0  0
 30 28  1  0  0  0  0
 31 30  1  0  0  0  0
 32 30  2  0  0  0  0
M  END
>  <MODEL>
3

>  <REMARK>
 VINA RESULT:      -7.6      1.572      2.318
  Name = 
  4 active torsions:
  status: ('A' for Active; 'I' for Inactive)
    1  A    between atoms: C_1  and  C_10
    2  A    between atoms: C_2  and  N_24
    3  A    between atoms: C_8  and  C_23
    4  A    between atoms: N_19  and  C_23
                            x       y       z     vdW  Elec       q    Type
                         _______ _______ _______ _____ _____    ______ ____

>  <TORSDO>
F 4

$$$$
=
 OpenBabel11052421403D

 32 37  0  0  1  0  0  0  0  0999 V2000
  191.5950  176.9230  144.4350 C   0  0  2  0  0  3  0  0  0  0  0  0
  189.0560  174.9830  146.7260 C   0  0  0  0  0  2  0  0  0  0  0  0
  189.6920  172.4390  145.0110 C   0  0  0  0  0  1  0  0  0  0  0  0
  193.4100  175.6330  145.8050 C   0  0  1  0  0  3  0  0  0  0  0  0
  194.5360  174.6570  145.6090 C   0  0  0  0  0  0  0  0  0  0  0  0
  189.9530  177.0840  142.8370 C   0  0  2  0  0  3  0  0  0  0  0  0
  187.9410  176.0010  144.2200 C   0  0  0  0  0  1  0  0  0  0  0  0
  196.5920  172.8200  145.0980 C   0  0  0  0  0  3  0  0  0  0  0  0
  189.4490  177.7280  145.1590 O   0  0  0  0  0  0  0  0  0  0  0  0
  190.4080  174.3640  146.4380 C   0  0  2  0  0  3  0  0  0  0  0  0
  190.2900  176.5910  145.1240 C   0  0  2  0  0  0  0  0  0  0  0  0
  190.2520  175.8890  146.5000 C   0  0  1  0  0  3  0  0  0  0  0  0
  192.3580  174.6580  143.7190 O   0  0  0  0  0  0  0  0  0  0  0  0
  196.8970  174.1650  145.3220 C   0  0  0  0  0  3  0  0  0  0  0  0
  189.2360  176.7910  144.1390 C   0  0  2  0  0  0  0  0  0  0  0  0
  195.8730  175.0820  145.5710 C   0  0  0  0  0  3  0  0  0  0  0  0
  190.4180  173.7730  145.0260 C   0  0  1  0  0  3  0  0  0  0  0  0
  191.8410  173.5890  144.4990 C   0  0  2  0  0  3  0  0  0  0  0  0
  192.8180  172.8160  145.4110 C   0  0  0  0  0  2  0  0  0  0  0  0
  191.3320  177.2800  143.0920 O   0  0  0  0  0  0  0  0  0  0  0  0
  193.8780  176.8630  146.2790 O   0  0  0  0  0  1  0  0  0  0  0  0
  195.2620  172.3920  145.1190 C   0  0  0  0  0  3  0  0  0  0  0  0
  192.6620  175.8210  144.4780 C   0  0  1  0  0  3  0  0  0  0  0  0
  194.2320  173.3070  145.3620 C   0  0  0  0  0  0  0  0  0  0  0  0
  189.3870  178.3210  142.1490 C   0  0  0  0  0  2  0  0  0  0  0  0
  187.3920  177.7120  140.9900 C   0  0  0  0  0  3  0  0  0  0  0  0
  187.9410  178.2330  142.0410 N   0  0  0  0  0  0  0  0  0  0  0  0
  185.1560  178.3220  141.5810 C   0  0  0  0  0  3  0  0  0  0  0  0
  185.9710  177.6220  140.8580 N   0  0  0  0  0  0  0  0  0  0  0  0
  183.7080  178.2020  141.4140 C   0  0  0  0  0  0  0  0  0  0  0  0
  183.1440  177.9160  140.1380 N   0  0  0  0  0  2  0  0  0  0  0  0
  182.9340  178.3580  142.4340 N   0  0  0  0  0  1  0  0  0  0  0  0
  1 20  1  6  0  0  0
  1 23  1  0  0  0  0
  1 11  1  0  0  0  0
  4 21  1  6  0  0  0
  5  4  1  0  0  0  0
  6 25  1  1  0  0  0
  6 20  1  0  0  0  0
  6 15  1  0  0  0  0
  8 22  2  0  0  0  0
  8 14  1  0  0  0  0
 10 12  1  0  0  0  0
 10  2  1  1  0  0  0
 11  9  1  1  0  0  0
 11 12  1  0  0  0  0
 12  2  1  6  0  0  0
 13 18  1  0  0  0  0
 14 16  2  0  0  0  0
 15  7  1  1  0  0  0
 15 11  1  0  0  0  0
 15  9  1  0  0  0  0
 16  5  1  0  0  0  0
 17  3  1  1  0  0  0
 17 10  1  0  0  0  0
 18 17  1  0  0  0  0
 18 19  1  1  0  0  0
 22 24  1  0  0  0  0
 23 13  1  1  0  0  0
 23  4  1  0  0  0  0
 24 19  1  0  0  0  0
 24  5  2  0  0  0  0
 26 27  2  0  0  0  0
 27 25  1  0  0  0  0
 29 26  1  0  0  0  0
 29 28  2  0  0  0  0
 30 28  1  0  0  0  0
 30 32  1  0  0  0  0
 31 30  2  0  0  0  0
M  END
>  <MODEL>
4

>  <REMARK>
 VINA RESULT:      -7.5      4.151      7.872
  Name = 
  4 active torsions:
  status: ('A' for Active; 'I' for Inactive)
    1  A    between atoms: C_1  and  C_10
    2  A    between atoms: C_2  and  N_24
    3  A    between atoms: C_8  and  C_23
    4  A    between atoms: N_19  and  C_23
                            x       y       z     vdW  Elec       q    Type
                         _______ _______ _______ _____ _____    ______ ____

>  <TORSDO>
F 4

$$$$
=
 OpenBabel11052421403D

 32 37  0  0  1  0  0  0  0  0999 V2000
  189.5960  175.4900  145.6000 C   0  0  2  0  0  3  0  0  0  0  0  0
  191.2530  178.0710  143.1390 C   0  0  0  0  0  2  0  0  0  0  0  0
  188.6440  177.8650  141.4150 C   0  0  0  0  0  1  0  0  0  0  0  0
  188.1430  177.5330  146.3440 C   0  0  1  0  0  3  0  0  0  0  0  0
  186.7080  177.9720  146.4130 C   0  0  0  0  0  0  0  0  0  0  0  0
  190.1900  173.8070  144.1560 C   0  0  2  0  0  3  0  0  0  0  0  0
  191.5810  175.2600  142.3980 C   0  0  0  0  0  1  0  0  0  0  0  0
  183.9910  178.6660  146.4620 C   0  0  0  0  0  3  0  0  0  0  0  0
  191.8790  175.4580  144.8500 O   0  0  0  0  0  0  0  0  0  0  0  0
  189.8200  178.2910  143.5810 C   0  0  2  0  0  3  0  0  0  0  0  0
  190.6210  176.0760  144.6550 C   0  0  2  0  0  0  0  0  0  0  0  0
  190.8220  177.6020  144.5170 C   0  0  1  0  0  3  0  0  0  0  0  0
  187.4710  176.0400  144.4140 O   0  0  0  0  0  0  0  0  0  0  0  0
  184.6300  178.2650  147.6380 C   0  0  0  0  0  3  0  0  0  0  0  0
  191.0750  174.9850  143.8040 C   0  0  2  0  0  0  0  0  0  0  0  0
  185.9820  177.9130  147.6130 C   0  0  0  0  0  3  0  0  0  0  0  0
  188.8910  177.3420  142.8200 C   0  0  1  0  0  3  0  0  0  0  0  0
  187.5560  177.1570  143.5410 C   0  0  2  0  0  3  0  0  0  0  0  0
  186.8020  178.4450  143.9340 C   0  0  0  0  0  2  0  0  0  0  0  0
  189.4280  174.1170  145.3070 O   0  0  0  0  0  0  0  0  0  0  0  0
  188.7050  177.4260  147.6200 O   0  0  0  0  0  1  0  0  0  0  0  0
  184.7030  178.7130  145.2600 C   0  0  0  0  0  3  0  0  0  0  0  0
  188.2300  176.1900  145.6070 C   0  0  1  0  0  3  0  0  0  0  0  0
  186.0550  178.3560  145.2290 C   0  0  0  0  0  0  0  0  0  0  0  0
  191.0090  172.5480  144.4180 C   0  0  0  0  0  2  0  0  0  0  0  0
  190.2200  171.5490  142.4000 C   0  0  0  0  0  3  0  0  0  0  0  0
  191.2160  171.8030  143.1880 N   0  0  0  0  0  0  0  0  0  0  0  0
  190.5320  171.3820  140.0340 C   0  0  0  0  0  3  0  0  0  0  0  0
  190.3980  170.8100  141.1880 N   0  0  0  0  0  0  0  0  0  0  0  0
  190.7140  170.5900  138.8170 C   0  0  0  0  0  0  0  0  0  0  0  0
  192.0060  170.4310  138.2400 N   0  0  0  0  0  2  0  0  0  0  0  0
  189.6910  170.0310  138.2630 N   0  0  0  0  0  1  0  0  0  0  0  0
  1 20  1  6  0  0  0
  1 23  1  0  0  0  0
  4  5  1  0  0  0  0
  4 21  1  1  0  0  0
  5 16  1  0  0  0  0
  6 25  1  1  0  0  0
  6 20  1  0  0  0  0
  8 14  1  0  0  0  0
 10  2  1  6  0  0  0
 10 12  1  0  0  0  0
 11  9  1  1  0  0  0
 11  1  1  0  0  0  0
 12  2  1  6  0  0  0
 12 11  1  0  0  0  0
 15  7  1  6  0  0  0
 15  6  1  0  0  0  0
 15 11  1  0  0  0  0
 15  9  1  0  0  0  0
 16 14  2  0  0  0  0
 17  3  1  6  0  0  0
 17 18  1  0  0  0  0
 17 10  1  0  0  0  0
 18 19  1  1  0  0  0
 18 13  1  0  0  0  0
 19 24  1  0  0  0  0
 22  8  2  0  0  0  0
 23 13  1  6  0  0  0
 23  4  1  0  0  0  0
 24 22  1  0  0  0  0
 24  5  2  0  0  0  0
 26 27  2  0  0  0  0
 27 25  1  0  0  0  0
 28 29  2  0  0  0  0
 29 26  1  0  0  0  0
 30 28  1  0  0  0  0
 31 30  2  0  0  0  0
 32 30  1  0  0  0  0
M  END
>  <MODEL>
5

>  <REMARK>
 VINA RESULT:      -7.4      3.471      5.219
  Name = 
  4 active torsions:
  status: ('A' for Active; 'I' for Inactive)
    1  A    between atoms: C_1  and  C_10
    2  A    between atoms: C_2  and  N_24
    3  A    between atoms: C_8  and  C_23
    4  A    between atoms: N_19  and  C_23
                            x       y       z     vdW  Elec       q    Type
                         _______ _______ _______ _____ _____    ______ ____

>  <TORSDO>
F 4

$$$$
=
 OpenBabel11052421403D

 32 37  0  0  1  0  0  0  0  0999 V2000
  189.0990  175.5600  143.1990 C   0  0  2  0  0  3  0  0  0  0  0  0
  189.7860  172.2020  141.2720 C   0  0  0  0  0  2  0  0  0  0  0  0
  192.3490  173.5760  140.1060 C   0  0  0  0  0  1  0  0  0  0  0  0
  191.0470  174.7610  144.7500 C   0  0  1  0  0  3  0  0  0  0  0  0
  192.4080  175.1920  145.2180 C   0  0  0  0  0  0  0  0  0  0  0  0
  188.2460  176.4410  141.2570 C   0  0  2  0  0  3  0  0  0  0  0  0
  188.3770  174.2520  139.7330 C   0  0  0  0  0  1  0  0  0  0  0  0
  194.9430  176.1100  145.9900 C   0  0  0  0  0  3  0  0  0  0  0  0
  187.4620  174.2410  142.0350 O   0  0  0  0  0  0  0  0  0  0  0  0
  190.9210  172.8600  142.0300 C   0  0  2  0  0  3  0  0  0  0  0  0
  188.8480  174.3920  142.2700 C   0  0  2  0  0  0  0  0  0  0  0  0
  189.4750  173.0020  142.5230 C   0  0  1  0  0  3  0  0  0  0  0  0
  191.4700  176.1150  142.6530 O   0  0  0  0  0  0  0  0  0  0  0  0
  193.8570  176.2440  146.8600 C   0  0  0  0  0  3  0  0  0  0  0  0
  188.2130  174.9370  141.0780 C   0  0  2  0  0  0  0  0  0  0  0  0
  192.5930  175.7910  146.4730 C   0  0  0  0  0  3  0  0  0  0  0  0
  191.4520  174.0550  141.2340 C   0  0  1  0  0  3  0  0  0  0  0  0
  192.2210  175.0320  142.1240 C   0  0  2  0  0  3  0  0  0  0  0  0
  193.3420  174.4290  142.9980 C   0  0  0  0  0  2  0  0  0  0  0  0
  188.6570  176.7500  142.5760 O   0  0  0  0  0  0  0  0  0  0  0  0
  190.1360  174.7070  145.8090 O   0  0  0  0  0  1  0  0  0  0  0  0
  194.7640  175.5270  144.7330 C   0  0  0  0  0  3  0  0  0  0  0  0
  190.5510  175.7290  143.6670 C   0  0  1  0  0  3  0  0  0  0  0  0
  193.4990  175.0790  144.3380 C   0  0  0  0  0  0  0  0  0  0  0  0
  186.8820  177.0680  140.9950 C   0  0  0  0  0  2  0  0  0  0  0  0
  186.1020  178.6430  142.6100 C   0  0  0  0  0  3  0  0  0  0  0  0
  186.2210  177.4060  142.2440 N   0  0  0  0  0  0  0  0  0  0  0  0
  185.7610  178.4410  144.9690 C   0  0  0  0  0  3  0  0  0  0  0  0
  185.4630  178.9990  143.8390 N   0  0  0  0  0  0  0  0  0  0  0  0
  185.0840  178.8350  146.2040 C   0  0  0  0  0  0  0  0  0  0  0  0
  185.8260  179.3340  147.3120 N   0  0  0  0  0  1  0  0  0  0  0  0
  183.8010  178.7290  146.2890 N   0  0  0  0  0  2  0  0  0  0  0  0
  1 20  1  6  0  0  0
  1 23  1  0  0  0  0
  4  5  1  0  0  0  0
  4 21  1  1  0  0  0
  5 16  1  0  0  0  0
  6 25  1  1  0  0  0
  6 20  1  0  0  0  0
  8 14  1  0  0  0  0
 10  2  1  6  0  0  0
 10 12  1  0  0  0  0
 11  9  1  1  0  0  0
 11 12  1  0  0  0  0
 11  1  1  0  0  0  0
 12  2  1  6  0  0  0
 15  7  1  6  0  0  0
 15  6  1  0  0  0  0
 15  9  1  0  0  0  0
 15 11  1  0  0  0  0
 16 14  2  0  0  0  0
 17  3  1  6  0  0  0
 17 10  1  0  0  0  0
 17 18  1  0  0  0  0
 18 13  1  0  0  0  0
 18 19  1  1  0  0  0
 19 24  1  0  0  0  0
 22  8  2  0  0  0  0
 23 13  1  6  0  0  0
 23  4  1  0  0  0  0
 24 22  1  0  0  0  0
 24  5  2  0  0  0  0
 25 27  1  0  0  0  0
 26 29  1  0  0  0  0
 27 26  2  0  0  0  0
 28 30  1  0  0  0  0
 29 28  2  0  0  0  0
 30 32  2  0  0  0  0
 30 31  1  0  0  0  0
M  END
>  <MODEL>
6

>  <REMARK>
 VINA RESULT:      -7.3      4.129      8.134
  Name = 
  4 active torsions:
  status: ('A' for Active; 'I' for Inactive)
    1  A    between atoms: C_1  and  C_10
    2  A    between atoms: C_2  and  N_24
    3  A    between atoms: C_8  and  C_23
    4  A    between atoms: N_19  and  C_23
                            x       y       z     vdW  Elec       q    Type
                         _______ _______ _______ _____ _____    ______ ____

>  <TORSDO>
F 4

$$$$
=
 OpenBabel11052421403D

 32 37  0  0  1  0  0  0  0  0999 V2000
  190.0830  175.5760  143.1770 C   0  0  2  0  0  3  0  0  0  0  0  0
  190.2160  174.5280  146.9650 C   0  0  0  0  0  2  0  0  0  0  0  0
  189.9870  177.5750  147.6550 C   0  0  0  0  0  1  0  0  0  0  0  0
  187.5400  175.9630  143.6460 C   0  0  1  0  0  3  0  0  0  0  0  0
  186.5060  177.0540  143.6110 C   0  0  0  0  0  0  0  0  0  0  0  0
  192.3060  176.1360  143.3060 C   0  0  2  0  0  3  0  0  0  0  0  0
  192.7820  175.3120  145.8010 C   0  0  0  0  0  1  0  0  0  0  0  0
  184.6910  179.1890  143.5180 C   0  0  0  0  0  3  0  0  0  0  0  0
  191.5610  173.9420  144.1370 O   0  0  0  0  0  0  0  0  0  0  0  0
  189.1570  175.5130  146.5100 C   0  0  2  0  0  3  0  0  0  0  0  0
  190.6120  174.9450  144.4460 C   0  0  2  0  0  0  0  0  0  0  0  0
  189.6670  174.4270  145.5530 C   0  0  1  0  0  3  0  0  0  0  0  0
  189.2670  177.7740  144.0300 O   0  0  0  0  0  0  0  0  0  0  0  0
  184.7010  178.2360  142.4960 C   0  0  0  0  0  3  0  0  0  0  0  0
  192.0440  175.2130  144.4780 C   0  0  2  0  0  0  0  0  0  0  0  0
  185.6090  177.1750  142.5390 C   0  0  0  0  0  3  0  0  0  0  0  0
  189.7860  176.8940  146.3120 C   0  0  1  0  0  3  0  0  0  0  0  0
  188.9290  177.7820  145.4090 C   0  0  2  0  0  3  0  0  0  0  0  0
  187.4400  177.9190  145.7920 C   0  0  0  0  0  2  0  0  0  0  0  0
  191.1470  176.2120  142.4970 O   0  0  0  0  0  0  0  0  0  0  0  0
  187.2500  174.9560  142.7210 O   0  0  0  0  0  1  0  0  0  0  0  0
  185.5920  179.0830  144.5810 C   0  0  0  0  0  3  0  0  0  0  0  0
  188.9240  176.5640  143.3660 C   0  0  1  0  0  3  0  0  0  0  0  0
  186.5070  178.0270  144.6250 C   0  0  0  0  0  0  0  0  0  0  0  0
  193.4780  175.6510  142.4600 C   0  0  0  0  0  2  0  0  0  0  0  0
  193.2160  173.6610  141.1700 C   0  0  0  0  0  3  0  0  0  0  0  0
  193.0060  174.9340  141.2890 N   0  0  0  0  0  0  0  0  0  0  0  0
  191.7720  173.3270  139.2930 C   0  0  0  0  0  3  0  0  0  0  0  0
  192.7670  172.9350  140.0220 N   0  0  0  0  0  0  0  0  0  0  0  0
  191.3440  172.5560  138.1250 C   0  0  0  0  0  0  0  0  0  0  0  0
  190.1190  171.8300  138.1410 N   0  0  0  0  0  1  0  0  0  0  0  0
  192.0860  172.5360  137.0690 N   0  0  0  0  0  2  0  0  0  0  0  0
  1 20  1  1  0  0  0
  1 23  1  0  0  0  0
  1 11  1  0  0  0  0
  4 21  1  6  0  0  0
  5  4  1  0  0  0  0
  5 24  1  0  0  0  0
  6 25  1  6  0  0  0
  6 15  1  0  0  0  0
  8 22  1  0  0  0  0
  9 15  1  0  0  0  0
 10  2  1  1  0  0  0
 11  9  1  6  0  0  0
 11 15  1  0  0  0  0
 11 12  1  0  0  0  0
 12 10  1  0  0  0  0
 12  2  1  1  0  0  0
 13 18  1  0  0  0  0
 14 16  1  0  0  0  0
 14  8  2  0  0  0  0
 15  7  1  1  0  0  0
 16  5  2  0  0  0  0
 17 10  1  0  0  0  0
 17  3  1  1  0  0  0
 18 19  1  6  0  0  0
 18 17  1  0  0  0  0
 20  6  1  0  0  0  0
 22 24  2  0  0  0  0
 23  4  1  0  0  0  0
 23 13  1  1  0  0  0
 24 19  1  0  0  0  0
 26 27  2  0  0  0  0
 27 25  1  0  0  0  0
 28 29  2  0  0  0  0
 29 26  1  0  0  0  0
 30 31  1  0  0  0  0
 30 28  1  0  0  0  0
 32 30  2  0  0  0  0
M  END
>  <MODEL>
7

>  <REMARK>
 VINA RESULT:      -7.1      2.643      3.123
  Name = 
  4 active torsions:
  status: ('A' for Active; 'I' for Inactive)
    1  A    between atoms: C_1  and  C_10
    2  A    between atoms: C_2  and  N_24
    3  A    between atoms: C_8  and  C_23
    4  A    between atoms: N_19  and  C_23
                            x       y       z     vdW  Elec       q    Type
                         _______ _______ _______ _____ _____    ______ ____

>  <TORSDO>
F 4

$$$$
=
 OpenBabel11052421403D

 32 37  0  0  1  0  0  0  0  0999 V2000
  190.3910  173.8000  145.4800 C   0  0  2  0  0  3  0  0  0  0  0  0
  193.3120  176.4200  145.2280 C   0  0  0  0  0  2  0  0  0  0  0  0
  191.8210  177.6110  142.7430 C   0  0  0  0  0  1  0  0  0  0  0  0
  189.0200  175.8140  146.4290 C   0  0  1  0  0  3  0  0  0  0  0  0
  187.7870  176.6200  146.1330 C   0  0  0  0  0  0  0  0  0  0  0  0
  191.3860  172.6030  143.7910 C   0  0  2  0  0  3  0  0  0  0  0  0
  193.6060  174.0640  143.5200 C   0  0  0  0  0  1  0  0  0  0  0  0
  185.4750  178.0510  145.4460 C   0  0  0  0  0  3  0  0  0  0  0  0
  192.7350  173.3270  145.7190 O   0  0  0  0  0  0  0  0  0  0  0  0
  191.8790  176.9050  145.1410 C   0  0  2  0  0  3  0  0  0  0  0  0
  191.8040  174.3260  145.3540 C   0  0  2  0  0  0  0  0  0  0  0  0
  192.2300  175.6720  145.9840 C   0  0  1  0  0  3  0  0  0  0  0  0
  189.1610  175.3360  143.9470 O   0  0  0  0  0  0  0  0  0  0  0  0
  185.4310  177.1040  146.4730 C   0  0  0  0  0  3  0  0  0  0  0  0
  192.4680  173.5020  144.3540 C   0  0  2  0  0  0  0  0  0  0  0  0
  186.5810  176.3870  146.8110 C   0  0  0  0  0  3  0  0  0  0  0  0
  191.3100  176.5980  143.7540 C   0  0  1  0  0  3  0  0  0  0  0  0
  189.7820  176.5990  143.7550 C   0  0  2  0  0  3  0  0  0  0  0  0
  189.0950  177.8450  144.3530 C   0  0  0  0  0  2  0  0  0  0  0  0
  190.2150  172.7260  144.5770 O   0  0  0  0  0  0  0  0  0  0  0  0
  188.8970  175.1190  147.6360 O   0  0  0  0  0  1  0  0  0  0  0  0
  186.6690  178.2790  144.7560 C   0  0  0  0  0  3  0  0  0  0  0  0
  189.2800  174.8380  145.2740 C   0  0  1  0  0  3  0  0  0  0  0  0
  187.8210  177.5590  145.0870 C   0  0  0  0  0  0  0  0  0  0  0  0
  191.8240  171.1440  143.7660 C   0  0  0  0  0  2  0  0  0  0  0  0
  190.7640  170.6430  141.6870 C   0  0  0  0  0  3  0  0  0  0  0  0
  191.8420  170.6350  142.4050 N   0  0  0  0  0  0  0  0  0  0  0  0
  190.6690  170.9140  139.3120 C   0  0  0  0  0  3  0  0  0  0  0  0
  190.7560  170.1410  140.3480 N   0  0  0  0  0  0  0  0  0  0  0  0
  190.6650  170.3600  137.9580 C   0  0  0  0  0  0  0  0  0  0  0  0
  191.7530  170.6010  137.0710 N   0  0  0  0  0  2  0  0  0  0  0  0
  189.6650  169.6460  137.5650 N   0  0  0  0  0  1  0  0  0  0  0  0
  1 20  1  6  0  0  0
  4 21  1  1  0  0  0
  5  4  1  0  0  0  0
  5 16  1  0  0  0  0
  6 25  1  1  0  0  0
  6 15  1  0  0  0  0
  6 20  1  0  0  0  0
  8 14  1  0  0  0  0
 10  2  1  6  0  0  0
 10 12  1  0  0  0  0
 11  1  1  0  0  0  0
 11  9  1  1  0  0  0
 11 12  1  0  0  0  0
 12  2  1  6  0  0  0
 14 16  2  0  0  0  0
 15  7  1  6  0  0  0
 15 11  1  0  0  0  0
 15  9  1  0  0  0  0
 17  3  1  6  0  0  0
 17 18  1  0  0  0  0
 17 10  1  0  0  0  0
 18 13  1  0  0  0  0
 18 19  1  1  0  0  0
 19 24  1  0  0  0  0
 22 24  1  0  0  0  0
 22  8  2  0  0  0  0
 23 13  1  6  0  0  0
 23  1  1  0  0  0  0
 23  4  1  0  0  0  0
 24  5  2  0  0  0  0
 26 27  2  0  0  0  0
 27 25  1  0  0  0  0
 28 29  2  0  0  0  0
 29 26  1  0  0  0  0
 30 28  1  0  0  0  0
 31 30  2  0  0  0  0
 32 30  1  0  0  0  0
M  END
>  <MODEL>
8

>  <REMARK>
 VINA RESULT:      -7.0      3.679      5.215
  Name = 
  4 active torsions:
  status: ('A' for Active; 'I' for Inactive)
    1  A    between atoms: C_1  and  C_10
    2  A    between atoms: C_2  and  N_24
    3  A    between atoms: C_8  and  C_23
    4  A    between atoms: N_19  and  C_23
                            x       y       z     vdW  Elec       q    Type
                         _______ _______ _______ _____ _____    ______ ____

>  <TORSDO>
F 4

$$$$
=
 OpenBabel11052421403D

 32 37  0  0  1  0  0  0  0  0999 V2000
  188.1720  177.6880  142.6410 C   0  0  2  0  0  3  0  0  0  0  0  0
  185.3980  179.2900  144.9210 C   0  0  0  0  0  2  0  0  0  0  0  0
  185.0840  176.4710  146.2520 C   0  0  0  0  0  1  0  0  0  0  0  0
  189.6420  177.8050  144.8010 C   0  0  1  0  0  3  0  0  0  0  0  0
  190.4030  176.9080  145.7360 C   0  0  0  0  0  0  0  0  0  0  0  0
  186.5100  176.7980  141.3300 C   0  0  2  0  0  3  0  0  0  0  0  0
  184.4070  177.9190  142.5350 C   0  0  0  0  0  1  0  0  0  0  0  0
  191.7620  175.1140  147.4090 C   0  0  0  0  0  3  0  0  0  0  0  0
  186.4410  179.1880  141.9140 O   0  0  0  0  0  0  0  0  0  0  0  0
  186.4720  178.4330  145.5610 C   0  0  2  0  0  3  0  0  0  0  0  0
  186.8980  178.4170  143.0080 C   0  0  2  0  0  0  0  0  0  0  0  0
  186.7830  179.2530  144.3020 C   0  0  1  0  0  3  0  0  0  0  0  0
  188.1560  175.8190  144.2930 O   0  0  0  0  0  0  0  0  0  0  0  0
  192.4730  175.8770  146.4790 C   0  0  0  0  0  3  0  0  0  0  0  0
  185.8640  177.9260  142.1080 C   0  0  2  0  0  0  0  0  0  0  0  0
  191.7960  176.7670  145.6410 C   0  0  0  0  0  3  0  0  0  0  0  0
  186.1730  176.9530  145.3090 C   0  0  1  0  0  3  0  0  0  0  0  0
  187.4210  176.0860  145.4780 C   0  0  2  0  0  3  0  0  0  0  0  0
  188.2040  176.2590  146.7970 C   0  0  0  0  0  2  0  0  0  0  0  0
  187.9020  176.7850  141.5870 O   0  0  0  0  0  0  0  0  0  0  0  0
  190.4970  178.6860  144.1310 O   0  0  0  0  0  1  0  0  0  0  0  0
  190.3730  175.2380  147.4990 C   0  0  0  0  0  3  0  0  0  0  0  0
  188.8630  176.9470  143.7940 C   0  0  1  0  0  3  0  0  0  0  0  0
  189.6890  176.1220  146.6580 C   0  0  0  0  0  0  0  0  0  0  0  0
  186.2760  176.9420  139.8310 C   0  0  0  0  0  2  0  0  0  0  0  0
  187.0080  175.8020  137.8660 C   0  0  0  0  0  3  0  0  0  0  0  0
  187.2580  176.1770  139.0810 N   0  0  0  0  0  0  0  0  0  0  0  0
  188.6110  174.0440  137.6130 C   0  0  0  0  0  3  0  0  0  0  0  0
  187.9560  175.0420  137.1110 N   0  0  0  0  0  0  0  0  0  0  0  0
  189.5710  173.2920  136.8060 C   0  0  0  0  0  0  0  0  0  0  0  0
  189.3850  173.1460  135.4020 N   0  0  0  0  0  2  0  0  0  0  0  0
  190.5980  172.7550  137.3750 N   0  0  0  0  0  1  0  0  0  0  0  0
  1 20  1  6  0  0  0
  1 11  1  0  0  0  0
  1 23  1  0  0  0  0
  4 21  1  6  0  0  0
  4  5  1  0  0  0  0
  5 24  1  0  0  0  0
  6 25  1  6  0  0  0
  6 20  1  0  0  0  0
  6 15  1  0  0  0  0
  8 22  1  0  0  0  0
  9 15  1  0  0  0  0
 10  2  1  6  0  0  0
 11  9  1  6  0  0  0
 11 12  1  0  0  0  0
 12  2  1  6  0  0  0
 12 10  1  0  0  0  0
 13 18  1  0  0  0  0
 14  8  2  0  0  0  0
 15  7  1  1  0  0  0
 15 11  1  0  0  0  0
 16  5  2  0  0  0  0
 16 14  1  0  0  0  0
 17 18  1  0  0  0  0
 17 10  1  0  0  0  0
 17  3  1  1  0  0  0
 18 19  1  1  0  0  0
 23 13  1  1  0  0  0
 23  4  1  0  0  0  0
 24 19  1  0  0  0  0
 24 22  2  0  0  0  0
 26 27  2  0  0  0  0
 27 25  1  0  0  0  0
 29 28  2  0  0  0  0
 29 26  1  0  0  0  0
 30 32  1  0  0  0  0
 30 28  1  0  0  0  0
 31 30  2  0  0  0  0
M  END
>  <MODEL>
9

>  <REMARK>
 VINA RESULT:      -7.0      3.614      6.669
  Name = 
  4 active torsions:
  status: ('A' for Active; 'I' for Inactive)
    1  A    between atoms: C_1  and  C_10
    2  A    between atoms: C_2  and  N_24
    3  A    between atoms: C_8  and  C_23
    4  A    between atoms: N_19  and  C_23
                            x       y       z     vdW  Elec       q    Type
                         _______ _______ _______ _____ _____    ______ ____

>  <TORSDO>
F 4

$$$$
