=
 OpenBabel11052420253D

 34 36  0  0  1  0  0  0  0  0999 V2000
  186.4290  177.9930  144.2840 C   0  0  0  0  0  0  0  0  0  0  0  0
  187.4050  177.4980  146.5220 C   0  0  1  0  0  3  0  0  0  0  0  0
  187.3390  177.3650  145.0360 C   0  0  0  0  0  3  0  0  0  0  0  0
  184.9640  177.4840  146.9650 C   0  0  0  0  0  3  0  0  0  0  0  0
  183.5990  179.3280  146.3700 F   0  0  0  0  0  0  0  0  0  0  0  0
  186.1710  176.9560  147.1620 C   0  0  0  0  0  3  0  0  0  0  0  0
  185.1440  179.9740  144.2780 O   0  0  0  0  0  0  0  0  0  0  0  0
  185.4220  178.9070  144.8870 C   0  0  0  0  0  0  0  0  0  0  0  0
  184.7050  178.5990  146.0970 N   0  0  0  0  0  0  0  0  0  0  0  0
  185.4300  177.5470  140.6390 C   0  0  0  0  0  3  0  0  0  0  0  0
  184.1050  177.6350  142.6010 F   0  0  0  0  0  0  0  0  0  0  0  0
  186.6740  177.5520  140.0030 C   0  0  0  0  0  0  0  0  0  0  0  0
  187.8350  177.6880  140.7780 C   0  0  0  0  0  3  0  0  0  0  0  0
  185.3330  177.6860  142.0260 C   0  0  0  0  0  0  0  0  0  0  0  0
  187.7470  177.8250  142.1640 C   0  0  0  0  0  3  0  0  0  0  0  0
  186.4980  177.8350  142.8080 C   0  0  0  0  0  0  0  0  0  0  0  0
  186.7080  177.4150  138.6070 O   0  0  0  0  0  0  0  0  0  0  0  0
  187.4690  175.2490  138.2310 O   0  0  0  0  0  0  0  0  0  0  0  0
  185.8510  176.0610  136.7020 C   0  0  0  0  0  1  0  0  0  0  0  0
  186.7280  176.2080  137.8930 C   0  0  0  0  0  0  0  0  0  0  0  0
  188.5790  176.8710  147.0450 O   0  0  0  0  0  0  0  0  0  0  0  0
  190.2540  174.0230  145.3370 C   0  0  0  0  0  2  0  0  0  0  0  0
  190.6880  176.7810  145.7560 C   0  0  0  0  0  3  0  0  0  0  0  0
  191.0300  174.8290  144.2860 C   0  0  2  0  0  3  0  0  0  0  0  0
  191.4490  176.1700  144.8440 C   0  0  0  0  0  0  0  0  0  0  0  0
  189.4890  176.1180  146.2910 C   0  0  0  0  0  0  0  0  0  0  0  0
  189.2780  174.8560  146.0430 N   0  0  0  0  0  0  0  0  0  0  0  0
  190.0130  174.1120  142.0870 C   0  0  0  0  0  3  0  0  0  0  0  0
  190.2040  175.0210  143.0510 C   0  0  0  0  0  3  0  0  0  0  0  0
  191.8990  172.5090  141.4690 C   0  0  0  0  0  1  0  0  0  0  0  0
  189.7560  171.6780  142.4170 C   0  0  0  0  0  1  0  0  0  0  0  0
  190.5930  172.7990  142.0380 N   0  0  0  0  0  0  0  0  0  0  0  0
  192.6410  176.8670  144.3470 C   0  0  0  0  0  3  0  0  0  0  0  0
  193.8640  176.5710  144.7680 C   0  0  0  0  0  2  0  0  0  0  0  0
  1  8  1  0  0  0  0
  1  3  2  0  0  0  0
  2 21  1  1  0  0  0
  2  6  1  0  0  0  0
  3  2  1  0  0  0  0
  4  6  2  0  0  0  0
  7  8  2  0  0  0  0
  8  9  1  0  0  0  0
  9  5  1  0  0  0  0
  9  4  1  0  0  0  0
 10 14  1  0  0  0  0
 12 10  2  0  0  0  0
 12 13  1  0  0  0  0
 13 15  2  0  0  0  0
 14 11  1  0  0  0  0
 14 16  2  0  0  0  0
 15 16  1  0  0  0  0
 16  1  1  0  0  0  0
 17 12  1  0  0  0  0
 19 20  1  0  0  0  0
 20 18  2  0  0  0  0
 20 17  1  0  0  0  0
 22 27  1  0  0  0  0
 23 26  1  0  0  0  0
 24 29  1  6  0  0  0
 24 25  1  0  0  0  0
 24 22  1  0  0  0  0
 25 23  2  0  0  0  0
 26 21  1  0  0  0  0
 27 26  2  0  0  0  0
 28 29  2  0  0  0  0
 30 32  1  0  0  0  0
 32 28  1  0  0  0  0
 32 31  1  0  0  0  0
 33 34  2  0  0  0  0
 33 25  1  0  0  0  0
M  END
>  <MODEL>
1

>  <REMARK>
 VINA RESULT:      -7.4      0.000      0.000
  Name = 
  8 active torsions:
  status: ('A' for Active; 'I' for Inactive)
    1  A    between atoms: C_1  and  C_34
    2  A    between atoms: C_7  and  N_21
    3  A    between atoms: C_8  and  O_18
    4  A    between atoms: C_14  and  C_16
    5  A    between atoms: O_18  and  C_30
    6  A    between atoms: O_23  and  C_24
    7  A    between atoms: O_23  and  C_25
    8  A    between atoms: C_26  and  C_28
                            x       y       z     vdW  Elec       q    Type
                         _______ _______ _______ _____ _____    ______ ____

>  <TORSDO>
F 8

$$$$
=
 OpenBabel11052420253D

 34 36  0  0  1  0  0  0  0  0999 V2000
  186.2270  177.9290  144.0270 C   0  0  0  0  0  0  0  0  0  0  0  0
  187.1440  177.3860  146.2780 C   0  0  1  0  0  3  0  0  0  0  0  0
  187.1140  177.2800  144.7890 C   0  0  0  0  0  3  0  0  0  0  0  0
  184.6930  177.3840  146.6620 C   0  0  0  0  0  3  0  0  0  0  0  0
  183.3570  179.2490  146.0680 F   0  0  0  0  0  0  0  0  0  0  0  0
  185.8910  176.8420  146.8790 C   0  0  0  0  0  3  0  0  0  0  0  0
  184.9570  179.9200  144.0260 O   0  0  0  0  0  0  0  0  0  0  0  0
  185.2120  178.8400  144.6220 C   0  0  0  0  0  0  0  0  0  0  0  0
  184.4630  178.5160  145.8090 N   0  0  0  0  0  0  0  0  0  0  0  0
  187.6420  177.5000  140.5210 C   0  0  0  0  0  3  0  0  0  0  0  0
  188.7340  177.6290  142.6190 F   0  0  0  0  0  0  0  0  0  0  0  0
  186.4820  177.5350  139.7420 C   0  0  0  0  0  0  0  0  0  0  0  0
  185.2430  177.7150  140.3740 C   0  0  0  0  0  3  0  0  0  0  0  0
  187.5770  177.6300  141.9110 C   0  0  0  0  0  0  0  0  0  0  0  0
  185.1690  177.8460  141.7610 C   0  0  0  0  0  3  0  0  0  0  0  0
  186.3310  177.7970  142.5500 C   0  0  0  0  0  0  0  0  0  0  0  0
  186.6090  177.3940  138.3510 O   0  0  0  0  0  0  0  0  0  0  0  0
  187.3560  175.2340  137.9200 O   0  0  0  0  0  0  0  0  0  0  0  0
  185.6340  176.0380  136.5060 C   0  0  0  0  0  1  0  0  0  0  0  0
  186.5880  176.1900  137.6350 C   0  0  0  0  0  0  0  0  0  0  0  0
  188.3000  176.7400  146.8190 O   0  0  0  0  0  0  0  0  0  0  0  0
  191.5020  176.8230  144.9280 C   0  0  0  0  0  2  0  0  0  0  0  0
  189.5190  174.9420  145.6360 C   0  0  0  0  0  3  0  0  0  0  0  0
  191.8940  175.3490  145.1060 C   0  0  2  0  0  3  0  0  0  0  0  0
  190.6650  174.4700  145.1380 C   0  0  0  0  0  0  0  0  0  0  0  0
  189.4180  176.3440  146.0730 C   0  0  0  0  0  0  0  0  0  0  0  0
  190.3680  177.1860  145.7820 N   0  0  0  0  0  0  0  0  0  0  0  0
  193.9450  175.5920  146.5600 C   0  0  0  0  0  3  0  0  0  0  0  0
  192.6930  175.1610  146.3570 C   0  0  0  0  0  3  0  0  0  0  0  0
  195.5860  175.6130  144.6070 C   0  0  0  0  0  1  0  0  0  0  0  0
  194.9190  177.7150  145.7560 C   0  0  0  0  0  1  0  0  0  0  0  0
  194.7650  176.2810  145.6040 N   0  0  0  0  0  0  0  0  0  0  0  0
  190.7150  173.0680  144.7060 C   0  0  0  0  0  3  0  0  0  0  0  0
  189.7040  172.2290  144.8970 C   0  0  0  0  0  2  0  0  0  0  0  0
  1  8  1  0  0  0  0
  1  3  2  0  0  0  0
  2 21  1  1  0  0  0
  2  6  1  0  0  0  0
  3  2  1  0  0  0  0
  4  6  2  0  0  0  0
  7  8  2  0  0  0  0
  8  9  1  0  0  0  0
  9  5  1  0  0  0  0
  9  4  1  0  0  0  0
 10 14  1  0  0  0  0
 12 13  1  0  0  0  0
 12 10  2  0  0  0  0
 13 15  2  0  0  0  0
 14 16  2  0  0  0  0
 14 11  1  0  0  0  0
 15 16  1  0  0  0  0
 16  1  1  0  0  0  0
 17 12  1  0  0  0  0
 19 20  1  0  0  0  0
 20 18  2  0  0  0  0
 20 17  1  0  0  0  0
 22 24  1  0  0  0  0
 22 27  1  0  0  0  0
 23 26  1  0  0  0  0
 24 25  1  0  0  0  0
 24 29  1  1  0  0  0
 25 23  2  0  0  0  0
 26 21  1  0  0  0  0
 27 26  2  0  0  0  0
 29 28  2  0  0  0  0
 30 32  1  0  0  0  0
 32 31  1  0  0  0  0
 32 28  1  0  0  0  0
 33 34  2  0  0  0  0
 33 25  1  0  0  0  0
M  END
>  <MODEL>
2

>  <REMARK>
 VINA RESULT:      -7.3      1.697      3.126
  Name = 
  8 active torsions:
  status: ('A' for Active; 'I' for Inactive)
    1  A    between atoms: C_1  and  C_34
    2  A    between atoms: C_7  and  N_21
    3  A    between atoms: C_8  and  O_18
    4  A    between atoms: C_14  and  C_16
    5  A    between atoms: O_18  and  C_30
    6  A    between atoms: O_23  and  C_24
    7  A    between atoms: O_23  and  C_25
    8  A    between atoms: C_26  and  C_28
                            x       y       z     vdW  Elec       q    Type
                         _______ _______ _______ _____ _____    ______ ____

>  <TORSDO>
F 8

$$$$
=
 OpenBabel11052420253D

 34 36  0  0  1  0  0  0  0  0999 V2000
  188.1350  176.9210  145.2190 C   0  0  0  0  0  0  0  0  0  0  0  0
  190.6240  176.8730  145.3140 C   0  0  1  0  0  3  0  0  0  0  0  0
  189.3200  177.2280  144.6800 C   0  0  0  0  0  3  0  0  0  0  0  0
  189.9940  174.6160  146.1290 C   0  0  0  0  0  3  0  0  0  0  0  0
  188.4830  174.3430  147.9350 F   0  0  0  0  0  0  0  0  0  0  0  0
  190.7930  175.3930  145.3980 C   0  0  0  0  0  3  0  0  0  0  0  0
  187.1450  176.5860  147.3360 O   0  0  0  0  0  0  0  0  0  0  0  0
  188.0370  176.2190  146.5270 C   0  0  0  0  0  0  0  0  0  0  0  0
  188.8710  175.0990  146.8840 N   0  0  0  0  0  0  0  0  0  0  0  0
  185.1830  177.1110  142.8260 C   0  0  0  0  0  3  0  0  0  0  0  0
  186.9500  175.5400  142.9720 F   0  0  0  0  0  0  0  0  0  0  0  0
  184.5470  178.2800  143.2550 C   0  0  0  0  0  0  0  0  0  0  0  0
  185.1020  179.0060  144.3180 C   0  0  0  0  0  3  0  0  0  0  0  0
  186.3480  176.6580  143.4500 C   0  0  0  0  0  0  0  0  0  0  0  0
  186.2670  178.5620  144.9460 C   0  0  0  0  0  3  0  0  0  0  0  0
  186.9020  177.3800  144.5290 C   0  0  0  0  0  0  0  0  0  0  0  0
  183.3760  178.6810  142.5930 O   0  0  0  0  0  0  0  0  0  0  0  0
  183.9100  178.5770  140.3310 O   0  0  0  0  0  0  0  0  0  0  0  0
  181.6800  178.0120  140.8990 C   0  0  0  0  0  1  0  0  0  0  0  0
  183.0590  178.4390  141.2490 C   0  0  0  0  0  0  0  0  0  0  0  0
  191.7180  177.4810  144.6210 O   0  0  0  0  0  0  0  0  0  0  0  0
  195.1440  176.0400  144.7560 C   0  0  0  0  0  2  0  0  0  0  0  0
  193.0450  176.3180  142.8880 C   0  0  0  0  0  3  0  0  0  0  0  0
  194.9780  174.9870  143.6510 C   0  0  2  0  0  3  0  0  0  0  0  0
  194.0420  175.4860  142.5730 C   0  0  0  0  0  0  0  0  0  0  0  0
  192.9020  176.8240  144.2620 C   0  0  0  0  0  0  0  0  0  0  0  0
  193.8600  176.6410  145.1260 N   0  0  0  0  0  0  0  0  0  0  0  0
  195.2000  172.7760  144.8510 C   0  0  0  0  0  3  0  0  0  0  0  0
  194.4660  173.7000  144.2190 C   0  0  0  0  0  3  0  0  0  0  0  0
  197.5960  172.1840  144.2040 C   0  0  0  0  0  1  0  0  0  0  0  0
  197.0910  173.4070  146.3100 C   0  0  0  0  0  1  0  0  0  0  0  0
  196.6190  172.8280  145.0670 N   0  0  0  0  0  0  0  0  0  0  0  0
  194.1490  175.0160  141.1880 C   0  0  0  0  0  3  0  0  0  0  0  0
  193.1630  174.3710  140.5780 C   0  0  0  0  0  2  0  0  0  0  0  0
  1  8  1  0  0  0  0
  2 21  1  6  0  0  0
  2  6  1  0  0  0  0
  3  1  2  0  0  0  0
  3  2  1  0  0  0  0
  4  9  1  0  0  0  0
  6  4  2  0  0  0  0
  8  9  1  0  0  0  0
  8  7  2  0  0  0  0
  9  5  1  0  0  0  0
 10 12  2  0  0  0  0
 10 14  1  0  0  0  0
 11 14  1  0  0  0  0
 12 13  1  0  0  0  0
 13 15  2  0  0  0  0
 14 16  2  0  0  0  0
 16 15  1  0  0  0  0
 16  1  1  0  0  0  0
 17 12  1  0  0  0  0
 18 20  2  0  0  0  0
 19 20  1  0  0  0  0
 20 17  1  0  0  0  0
 22 27  1  0  0  0  0
 23 26  1  0  0  0  0
 24 29  1  1  0  0  0
 24 22  1  0  0  0  0
 25 23  2  0  0  0  0
 25 24  1  0  0  0  0
 26 21  1  0  0  0  0
 26 27  2  0  0  0  0
 28 32  1  0  0  0  0
 29 28  2  0  0  0  0
 30 32  1  0  0  0  0
 32 31  1  0  0  0  0
 33 25  1  0  0  0  0
 34 33  2  0  0  0  0
M  END
>  <MODEL>
3

>  <REMARK>
 VINA RESULT:      -7.2      3.102      4.806
  Name = 
  8 active torsions:
  status: ('A' for Active; 'I' for Inactive)
    1  A    between atoms: C_1  and  C_34
    2  A    between atoms: C_7  and  N_21
    3  A    between atoms: C_8  and  O_18
    4  A    between atoms: C_14  and  C_16
    5  A    between atoms: O_18  and  C_30
    6  A    between atoms: O_23  and  C_24
    7  A    between atoms: O_23  and  C_25
    8  A    between atoms: C_26  and  C_28
                            x       y       z     vdW  Elec       q    Type
                         _______ _______ _______ _____ _____    ______ ____

>  <TORSDO>
F 8

$$$$
=
 OpenBabel11052420253D

 34 36  0  0  1  0  0  0  0  0999 V2000
  188.0610  176.9140  145.3950 C   0  0  0  0  0  0  0  0  0  0  0  0
  190.5300  176.6990  145.6560 C   0  0  1  0  0  3  0  0  0  0  0  0
  189.2960  177.0990  144.9150 C   0  0  0  0  0  3  0  0  0  0  0  0
  189.6850  174.5550  146.5750 C   0  0  0  0  0  3  0  0  0  0  0  0
  188.0510  174.5150  148.2910 F   0  0  0  0  0  0  0  0  0  0  0  0
  190.5820  175.2200  145.8490 C   0  0  0  0  0  3  0  0  0  0  0  0
  186.9220  176.7990  147.4600 O   0  0  0  0  0  0  0  0  0  0  0  0
  187.8320  176.3140  146.7370 C   0  0  0  0  0  0  0  0  0  0  0  0
  188.5570  175.1670  147.2200 N   0  0  0  0  0  0  0  0  0  0  0  0
  185.3010  177.1540  142.7870 C   0  0  0  0  0  3  0  0  0  0  0  0
  186.9530  175.4920  143.1340 F   0  0  0  0  0  0  0  0  0  0  0  0
  184.7100  178.3780  143.1140 C   0  0  0  0  0  0  0  0  0  0  0  0
  185.2330  179.1230  144.1800 C   0  0  0  0  0  3  0  0  0  0  0  0
  186.3900  176.6670  143.5150 C   0  0  0  0  0  0  0  0  0  0  0  0
  186.3210  178.6450  144.9110 C   0  0  0  0  0  3  0  0  0  0  0  0
  186.9100  177.4080  144.5960 C   0  0  0  0  0  0  0  0  0  0  0  0
  183.6150  178.8130  142.3510 O   0  0  0  0  0  0  0  0  0  0  0  0
  184.0910  178.2920  140.1340 O   0  0  0  0  0  0  0  0  0  0  0  0
  181.8560  177.9240  140.8300 C   0  0  0  0  0  1  0  0  0  0  0  0
  183.2580  178.3510  141.0760 C   0  0  0  0  0  0  0  0  0  0  0  0
  191.7050  177.1790  144.9990 O   0  0  0  0  0  0  0  0  0  0  0  0
  193.8020  175.2120  142.6380 C   0  0  0  0  0  2  0  0  0  0  0  0
  193.7110  175.7880  145.4010 C   0  0  0  0  0  3  0  0  0  0  0  0
  195.1080  175.2310  143.4440 C   0  0  2  0  0  3  0  0  0  0  0  0
  194.8200  175.2120  144.9280 C   0  0  0  0  0  0  0  0  0  0  0  0
  192.7200  176.3650  144.4780 C   0  0  0  0  0  0  0  0  0  0  0  0
  192.8080  176.1310  143.2000 N   0  0  0  0  0  0  0  0  0  0  0  0
  196.9120  176.4750  142.1880 C   0  0  0  0  0  3  0  0  0  0  0  0
  195.9280  176.4340  143.0950 C   0  0  0  0  0  3  0  0  0  0  0  0
  197.9410  174.1500  141.9790 C   0  0  0  0  0  1  0  0  0  0  0  0
  197.4830  175.5450  139.9720 C   0  0  0  0  0  1  0  0  0  0  0  0
  197.3870  175.3670  141.4080 N   0  0  0  0  0  0  0  0  0  0  0  0
  195.7740  174.6420  145.8860 C   0  0  0  0  0  3  0  0  0  0  0  0
  196.6220  173.6760  145.5550 C   0  0  0  0  0  2  0  0  0  0  0  0
  1  8  1  0  0  0  0
  2 21  1  6  0  0  0
  2  6  1  0  0  0  0
  3  1  2  0  0  0  0
  3  2  1  0  0  0  0
  4  9  1  0  0  0  0
  6  4  2  0  0  0  0
  8  9  1  0  0  0  0
  8  7  2  0  0  0  0
  9  5  1  0  0  0  0
 10 12  2  0  0  0  0
 10 14  1  0  0  0  0
 11 14  1  0  0  0  0
 12 13  1  0  0  0  0
 13 15  2  0  0  0  0
 14 16  2  0  0  0  0
 16 15  1  0  0  0  0
 16  1  1  0  0  0  0
 17 12  1  0  0  0  0
 18 20  2  0  0  0  0
 19 20  1  0  0  0  0
 20 17  1  0  0  0  0
 22 27  1  0  0  0  0
 22 24  1  0  0  0  0
 24 29  1  1  0  0  0
 24 25  1  0  0  0  0
 25 23  2  0  0  0  0
 25 33  1  0  0  0  0
 26 21  1  0  0  0  0
 26 23  1  0  0  0  0
 27 26  2  0  0  0  0
 28 29  2  0  0  0  0
 31 32  1  0  0  0  0
 32 30  1  0  0  0  0
 32 28  1  0  0  0  0
 34 33  2  0  0  0  0
M  END
>  <MODEL>
4

>  <REMARK>
 VINA RESULT:      -7.1      3.125      4.787
  Name = 
  8 active torsions:
  status: ('A' for Active; 'I' for Inactive)
    1  A    between atoms: C_1  and  C_34
    2  A    between atoms: C_7  and  N_21
    3  A    between atoms: C_8  and  O_18
    4  A    between atoms: C_14  and  C_16
    5  A    between atoms: O_18  and  C_30
    6  A    between atoms: O_23  and  C_24
    7  A    between atoms: O_23  and  C_25
    8  A    between atoms: C_26  and  C_28
                            x       y       z     vdW  Elec       q    Type
                         _______ _______ _______ _____ _____    ______ ____

>  <TORSDO>
F 8

$$$$
=
 OpenBabel11052420253D

 34 36  0  0  1  0  0  0  0  0999 V2000
  190.8800  173.6240  144.0860 C   0  0  0  0  0  0  0  0  0  0  0  0
  190.9810  174.9180  146.2120 C   0  0  1  0  0  3  0  0  0  0  0  0
  190.4570  174.6430  144.8410 C   0  0  0  0  0  3  0  0  0  0  0  0
  193.3640  174.3920  145.7680 C   0  0  0  0  0  3  0  0  0  0  0  0
  194.0810  172.1610  145.4100 F   0  0  0  0  0  0  0  0  0  0  0  0
  192.4340  175.2550  146.1720 C   0  0  0  0  0  3  0  0  0  0  0  0
  191.7440  171.4380  144.3170 O   0  0  0  0  0  0  0  0  0  0  0  0
  191.8980  172.6600  144.5830 C   0  0  0  0  0  0  0  0  0  0  0  0
  193.0820  173.0640  145.2980 N   0  0  0  0  0  0  0  0  0  0  0  0
  190.3670  173.2240  140.3370 C   0  0  0  0  0  3  0  0  0  0  0  0
  192.3250  173.7000  141.5830 F   0  0  0  0  0  0  0  0  0  0  0  0
  188.9910  172.9880  140.2640 C   0  0  0  0  0  0  0  0  0  0  0  0
  188.2390  172.9760  141.4470 C   0  0  0  0  0  3  0  0  0  0  0  0
  190.9940  173.4350  141.5670 C   0  0  0  0  0  0  0  0  0  0  0  0
  188.8570  173.1880  142.6800 C   0  0  0  0  0  3  0  0  0  0  0  0
  190.2420  173.4110  142.7610 C   0  0  0  0  0  0  0  0  0  0  0  0
  188.4180  172.7770  139.0000 O   0  0  0  0  0  0  0  0  0  0  0  0
  187.8190  174.6050  137.6910 O   0  0  0  0  0  0  0  0  0  0  0  0
  189.6130  173.2900  136.8770 C   0  0  0  0  0  1  0  0  0  0  0  0
  188.5600  173.6050  137.8770 C   0  0  0  0  0  0  0  0  0  0  0  0
  190.2270  175.9480  146.8570 O   0  0  0  0  0  0  0  0  0  0  0  0
  188.3500  178.1750  144.5440 C   0  0  0  0  0  2  0  0  0  0  0  0
  187.8660  176.6840  146.8920 C   0  0  0  0  0  3  0  0  0  0  0  0
  186.9440  177.6170  144.8020 C   0  0  2  0  0  3  0  0  0  0  0  0
  186.8040  177.1630  146.2370 C   0  0  0  0  0  0  0  0  0  0  0  0
  189.1930  176.6790  146.2570 C   0  0  0  0  0  0  0  0  0  0  0  0
  189.3850  177.3300  145.1450 N   0  0  0  0  0  0  0  0  0  0  0  0
  185.9270  176.5590  142.7460 C   0  0  0  0  0  3  0  0  0  0  0  0
  186.6470  176.4810  143.8730 C   0  0  0  0  0  3  0  0  0  0  0  0
  184.0470  178.2840  142.7920 C   0  0  0  0  0  1  0  0  0  0  0  0
  185.7740  178.3010  141.0020 C   0  0  0  0  0  1  0  0  0  0  0  0
  185.2750  177.7340  142.2400 N   0  0  0  0  0  0  0  0  0  0  0  0
  185.5030  177.1570  146.9150 C   0  0  0  0  0  3  0  0  0  0  0  0
  184.4870  177.9080  146.5100 C   0  0  0  0  0  2  0  0  0  0  0  0
  1  8  1  0  0  0  0
  1  3  2  0  0  0  0
  2 21  1  6  0  0  0
  3  2  1  0  0  0  0
  4  6  2  0  0  0  0
  6  2  1  0  0  0  0
  7  8  2  0  0  0  0
  8  9  1  0  0  0  0
  9  5  1  0  0  0  0
  9  4  1  0  0  0  0
 10 14  1  0  0  0  0
 12 10  2  0  0  0  0
 12 13  1  0  0  0  0
 13 15  2  0  0  0  0
 14 11  1  0  0  0  0
 14 16  2  0  0  0  0
 15 16  1  0  0  0  0
 16  1  1  0  0  0  0
 17 12  1  0  0  0  0
 18 20  2  0  0  0  0
 19 20  1  0  0  0  0
 20 17  1  0  0  0  0
 22 24  1  0  0  0  0
 22 27  1  0  0  0  0
 24 29  1  6  0  0  0
 24 25  1  0  0  0  0
 25 23  2  0  0  0  0
 25 33  1  0  0  0  0
 26 21  1  0  0  0  0
 26 23  1  0  0  0  0
 27 26  2  0  0  0  0
 28 29  2  0  0  0  0
 31 32  1  0  0  0  0
 32 28  1  0  0  0  0
 32 30  1  0  0  0  0
 34 33  2  0  0  0  0
M  END
>  <MODEL>
5

>  <REMARK>
 VINA RESULT:      -6.9      3.430      6.627
  Name = 
  8 active torsions:
  status: ('A' for Active; 'I' for Inactive)
    1  A    between atoms: C_1  and  C_34
    2  A    between atoms: C_7  and  N_21
    3  A    between atoms: C_8  and  O_18
    4  A    between atoms: C_14  and  C_16
    5  A    between atoms: O_18  and  C_30
    6  A    between atoms: O_23  and  C_24
    7  A    between atoms: O_23  and  C_25
    8  A    between atoms: C_26  and  C_28
                            x       y       z     vdW  Elec       q    Type
                         _______ _______ _______ _____ _____    ______ ____

>  <TORSDO>
F 8

$$$$
=
 OpenBabel11052420253D

 34 36  0  0  1  0  0  0  0  0999 V2000
  191.8910  173.8310  144.7770 C   0  0  0  0  0  0  0  0  0  0  0  0
  191.4470  175.3760  146.6800 C   0  0  1  0  0  3  0  0  0  0  0  0
  191.0810  174.6900  145.4050 C   0  0  0  0  0  3  0  0  0  0  0  0
  193.8290  175.8220  146.1470 C   0  0  0  0  0  3  0  0  0  0  0  0
  195.4170  174.0640  146.0650 F   0  0  0  0  0  0  0  0  0  0  0  0
  192.6230  176.2740  146.4870 C   0  0  0  0  0  3  0  0  0  0  0  0
  193.5960  172.2700  145.2600 O   0  0  0  0  0  0  0  0  0  0  0  0
  193.2230  173.4710  145.3340 C   0  0  0  0  0  0  0  0  0  0  0  0
  194.1290  174.4400  145.8950 N   0  0  0  0  0  0  0  0  0  0  0  0
  189.9510  171.5560  142.4230 C   0  0  0  0  0  3  0  0  0  0  0  0
  189.8920  171.7420  144.7840 F   0  0  0  0  0  0  0  0  0  0  0  0
  190.4740  171.9250  141.1800 C   0  0  0  0  0  0  0  0  0  0  0  0
  191.4710  172.9080  141.1250 C   0  0  0  0  0  3  0  0  0  0  0  0
  190.4020  172.1620  143.5990 C   0  0  0  0  0  0  0  0  0  0  0  0
  191.9280  173.5180  142.2950 C   0  0  0  0  0  3  0  0  0  0  0  0
  191.3960  173.1610  143.5460 C   0  0  0  0  0  0  0  0  0  0  0  0
  189.9770  171.2850  140.0330 O   0  0  0  0  0  0  0  0  0  0  0  0
  189.8860  171.7720  137.7610 O   0  0  0  0  0  0  0  0  0  0  0  0
  188.2050  172.7650  139.1030 C   0  0  0  0  0  1  0  0  0  0  0  0
  189.4070  171.9110  138.9160 C   0  0  0  0  0  0  0  0  0  0  0  0
  190.3320  176.0900  147.2210 O   0  0  0  0  0  0  0  0  0  0  0  0
  188.6160  178.1230  144.6220 C   0  0  0  0  0  2  0  0  0  0  0  0
  187.9310  176.5740  146.8810 C   0  0  0  0  0  3  0  0  0  0  0  0
  187.2530  177.4180  144.6630 C   0  0  2  0  0  3  0  0  0  0  0  0
  186.9400  176.9420  146.0640 C   0  0  0  0  0  0  0  0  0  0  0  0
  189.3340  176.7120  146.4600 C   0  0  0  0  0  0  0  0  0  0  0  0
  189.6270  177.3870  145.3850 N   0  0  0  0  0  0  0  0  0  0  0  0
  186.6760  176.2690  142.4890 C   0  0  0  0  0  3  0  0  0  0  0  0
  187.2250  176.2640  143.7100 C   0  0  0  0  0  3  0  0  0  0  0  0
  184.7400  177.9280  142.3960 C   0  0  0  0  0  1  0  0  0  0  0  0
  186.4450  177.8300  140.5890 C   0  0  0  0  0  1  0  0  0  0  0  0
  185.9790  177.3680  141.8820 N   0  0  0  0  0  0  0  0  0  0  0  0
  185.5570  176.7950  146.5310 C   0  0  0  0  0  3  0  0  0  0  0  0
  184.6900  177.8000  146.5140 C   0  0  0  0  0  2  0  0  0  0  0  0
  1  8  1  0  0  0  0
  1  3  2  0  0  0  0
  2 21  1  6  0  0  0
  3  2  1  0  0  0  0
  4  6  2  0  0  0  0
  6  2  1  0  0  0  0
  7  8  2  0  0  0  0
  8  9  1  0  0  0  0
  9  5  1  0  0  0  0
  9  4  1  0  0  0  0
 10 14  1  0  0  0  0
 12 10  2  0  0  0  0
 13 12  1  0  0  0  0
 13 15  2  0  0  0  0
 14 11  1  0  0  0  0
 15 16  1  0  0  0  0
 16 14  2  0  0  0  0
 16  1  1  0  0  0  0
 17 12  1  0  0  0  0
 18 20  2  0  0  0  0
 20 19  1  0  0  0  0
 20 17  1  0  0  0  0
 22 24  1  0  0  0  0
 22 27  1  0  0  0  0
 24 29  1  6  0  0  0
 24 25  1  0  0  0  0
 25 33  1  0  0  0  0
 25 23  2  0  0  0  0
 26 23  1  0  0  0  0
 26 21  1  0  0  0  0
 27 26  2  0  0  0  0
 28 29  2  0  0  0  0
 31 32  1  0  0  0  0
 32 30  1  0  0  0  0
 32 28  1  0  0  0  0
 34 33  2  0  0  0  0
M  END
>  <MODEL>
6

>  <REMARK>
 VINA RESULT:      -6.9      3.612      6.891
  Name = 
  8 active torsions:
  status: ('A' for Active; 'I' for Inactive)
    1  A    between atoms: C_1  and  C_34
    2  A    between atoms: C_7  and  N_21
    3  A    between atoms: C_8  and  O_18
    4  A    between atoms: C_14  and  C_16
    5  A    between atoms: O_18  and  C_30
    6  A    between atoms: O_23  and  C_24
    7  A    between atoms: O_23  and  C_25
    8  A    between atoms: C_26  and  C_28
                            x       y       z     vdW  Elec       q    Type
                         _______ _______ _______ _____ _____    ______ ____

>  <TORSDO>
F 8

$$$$
=
 OpenBabel11052420253D

 34 36  0  0  1  0  0  0  0  0999 V2000
  187.8110  175.8970  143.2150 C   0  0  0  0  0  0  0  0  0  0  0  0
  187.9480  177.2280  145.3160 C   0  0  1  0  0  3  0  0  0  0  0  0
  188.3900  176.1390  144.3960 C   0  0  0  0  0  3  0  0  0  0  0  0
  185.5030  176.9790  144.9750 C   0  0  0  0  0  3  0  0  0  0  0  0
  184.4780  177.6170  142.9360 F   0  0  0  0  0  0  0  0  0  0  0  0
  186.5540  176.9920  145.7940 C   0  0  0  0  0  3  0  0  0  0  0  0
  186.6630  177.0390  141.4960 O   0  0  0  0  0  0  0  0  0  0  0  0
  186.6850  176.7330  142.7180 C   0  0  0  0  0  0  0  0  0  0  0  0
  185.5880  177.1530  143.5520 N   0  0  0  0  0  0  0  0  0  0  0  0
  190.2190  173.8390  141.1070 C   0  0  0  0  0  3  0  0  0  0  0  0
  190.5220  175.9120  142.2120 F   0  0  0  0  0  0  0  0  0  0  0  0
  189.4140  172.7590  140.7320 C   0  0  0  0  0  0  0  0  0  0  0  0
  188.0800  172.7230  141.1640 C   0  0  0  0  0  3  0  0  0  0  0  0
  189.7140  174.8660  141.9090 C   0  0  0  0  0  0  0  0  0  0  0  0
  187.5670  173.7450  141.9630 C   0  0  0  0  0  3  0  0  0  0  0  0
  188.3760  174.8250  142.3550 C   0  0  0  0  0  0  0  0  0  0  0  0
  189.9790  171.7550  139.9310 O   0  0  0  0  0  0  0  0  0  0  0  0
  189.2810  172.3840  137.8030 O   0  0  0  0  0  0  0  0  0  0  0  0
  189.7490  170.0810  138.1030 C   0  0  0  0  0  1  0  0  0  0  0  0
  189.6540  171.4800  138.5950 C   0  0  0  0  0  0  0  0  0  0  0  0
  188.8530  177.3780  146.4130 O   0  0  0  0  0  0  0  0  0  0  0  0
  191.4880  175.0270  147.5790 C   0  0  0  0  0  2  0  0  0  0  0  0
  191.2150  177.1350  145.7200 C   0  0  0  0  0  3  0  0  0  0  0  0
  192.3520  175.0250  146.3100 C   0  0  2  0  0  3  0  0  0  0  0  0
  192.3120  176.3780  145.6350 C   0  0  0  0  0  0  0  0  0  0  0  0
  190.0730  176.7020  146.5420 C   0  0  0  0  0  0  0  0  0  0  0  0
  190.2030  175.6940  147.3560 N   0  0  0  0  0  0  0  0  0  0  0  0
  192.6860  173.1520  144.6490 C   0  0  0  0  0  3  0  0  0  0  0  0
  191.8930  173.9640  145.3590 C   0  0  0  0  0  3  0  0  0  0  0  0
  194.9170  173.8040  143.5980 C   0  0  0  0  0  1  0  0  0  0  0  0
  194.8150  172.3670  145.6260 C   0  0  0  0  0  1  0  0  0  0  0  0
  194.1220  173.1720  144.6390 N   0  0  0  0  0  0  0  0  0  0  0  0
  193.4290  176.8550  144.8120 C   0  0  0  0  0  3  0  0  0  0  0  0
  194.6380  177.0750  145.3120 C   0  0  0  0  0  2  0  0  0  0  0  0
  1  3  2  0  0  0  0
  2  6  1  0  0  0  0
  2 21  1  1  0  0  0
  3  2  1  0  0  0  0
  4  6  2  0  0  0  0
  5  9  1  0  0  0  0
  7  8  2  0  0  0  0
  8  1  1  0  0  0  0
  8  9  1  0  0  0  0
  9  4  1  0  0  0  0
 10 14  1  0  0  0  0
 12 10  2  0  0  0  0
 12 13  1  0  0  0  0
 13 15  2  0  0  0  0
 14 11  1  0  0  0  0
 14 16  2  0  0  0  0
 15 16  1  0  0  0  0
 16  1  1  0  0  0  0
 17 12  1  0  0  0  0
 18 20  2  0  0  0  0
 19 20  1  0  0  0  0
 20 17  1  0  0  0  0
 21 26  1  0  0  0  0
 23 26  1  0  0  0  0
 24 29  1  6  0  0  0
 24 22  1  0  0  0  0
 25 23  2  0  0  0  0
 25 24  1  0  0  0  0
 26 27  2  0  0  0  0
 27 22  1  0  0  0  0
 28 29  2  0  0  0  0
 30 32  1  0  0  0  0
 32 28  1  0  0  0  0
 32 31  1  0  0  0  0
 33 34  2  0  0  0  0
 33 25  1  0  0  0  0
M  END
>  <MODEL>
7

>  <REMARK>
 VINA RESULT:      -6.8      2.663      3.928
  Name = 
  8 active torsions:
  status: ('A' for Active; 'I' for Inactive)
    1  A    between atoms: C_1  and  C_34
    2  A    between atoms: C_7  and  N_21
    3  A    between atoms: C_8  and  O_18
    4  A    between atoms: C_14  and  C_16
    5  A    between atoms: O_18  and  C_30
    6  A    between atoms: O_23  and  C_24
    7  A    between atoms: O_23  and  C_25
    8  A    between atoms: C_26  and  C_28
                            x       y       z     vdW  Elec       q    Type
                         _______ _______ _______ _____ _____    ______ ____

>  <TORSDO>
F 8

$$$$
=
 OpenBabel11052420253D

 34 36  0  0  1  0  0  0  0  0999 V2000
  193.7140  172.9200  144.5890 C   0  0  0  0  0  0  0  0  0  0  0  0
  194.1620  175.0900  145.7290 C   0  0  1  0  0  3  0  0  0  0  0  0
  193.4790  174.2310  144.7160 C   0  0  0  0  0  3  0  0  0  0  0  0
  196.4200  174.0770  145.5550 C   0  0  0  0  0  3  0  0  0  0  0  0
  196.8560  171.9010  146.3870 F   0  0  0  0  0  0  0  0  0  0  0  0
  195.6320  175.1480  145.4770 C   0  0  0  0  0  3  0  0  0  0  0  0
  194.3580  171.0630  145.8970 O   0  0  0  0  0  0  0  0  0  0  0  0
  194.6670  172.2130  145.4850 C   0  0  0  0  0  0  0  0  0  0  0  0
  195.9520  172.7520  145.8510 N   0  0  0  0  0  0  0  0  0  0  0  0
  190.8310  171.2240  142.7750 C   0  0  0  0  0  3  0  0  0  0  0  0
  190.8820  172.3930  144.8340 F   0  0  0  0  0  0  0  0  0  0  0  0
  191.4740  170.7030  141.6480 C   0  0  0  0  0  0  0  0  0  0  0  0
  192.8540  170.9010  141.5000 C   0  0  0  0  0  3  0  0  0  0  0  0
  191.5430  171.9420  143.7390 C   0  0  0  0  0  0  0  0  0  0  0  0
  193.5740  171.6160  142.4590 C   0  0  0  0  0  3  0  0  0  0  0  0
  192.9300  172.1540  143.5860 C   0  0  0  0  0  0  0  0  0  0  0  0
  190.7060  169.9960  140.7110 O   0  0  0  0  0  0  0  0  0  0  0  0
  190.5380  169.5480  138.4340 O   0  0  0  0  0  0  0  0  0  0  0  0
  190.1140  171.7860  139.0860 C   0  0  0  0  0  1  0  0  0  0  0  0
  190.4640  170.3730  139.3830 C   0  0  0  0  0  0  0  0  0  0  0  0
  193.5900  176.4000  145.7650 O   0  0  0  0  0  0  0  0  0  0  0  0
  190.6320  177.8500  144.0390 C   0  0  0  0  0  2  0  0  0  0  0  0
  191.1740  176.1680  146.2410 C   0  0  0  0  0  3  0  0  0  0  0  0
  189.6050  176.7800  144.4380 C   0  0  2  0  0  3  0  0  0  0  0  0
  189.9100  176.2340  145.8140 C   0  0  0  0  0  0  0  0  0  0  0  0
  192.2680  176.7070  145.4170 C   0  0  0  0  0  0  0  0  0  0  0  0
  191.9970  177.4380  144.3740 N   0  0  0  0  0  0  0  0  0  0  0  0
  188.6630  175.4920  142.4800 C   0  0  0  0  0  3  0  0  0  0  0  0
  189.5840  175.6670  143.4360 C   0  0  0  0  0  3  0  0  0  0  0  0
  186.2700  176.1950  143.0170 C   0  0  0  0  0  1  0  0  0  0  0  0
  187.5120  177.1900  141.1050 C   0  0  0  0  0  1  0  0  0  0  0  0
  187.5070  176.3130  142.2600 N   0  0  0  0  0  0  0  0  0  0  0  0
  188.8520  175.6920  146.6740 C   0  0  0  0  0  3  0  0  0  0  0  0
  189.0290  174.6120  147.4240 C   0  0  0  0  0  2  0  0  0  0  0  0
  1  3  2  0  0  0  0
  1  8  1  0  0  0  0
  2 21  1  6  0  0  0
  3  2  1  0  0  0  0
  4  9  1  0  0  0  0
  6  4  2  0  0  0  0
  6  2  1  0  0  0  0
  8  9  1  0  0  0  0
  8  7  2  0  0  0  0
  9  5  1  0  0  0  0
 10 14  1  0  0  0  0
 12 10  2  0  0  0  0
 13 12  1  0  0  0  0
 13 15  2  0  0  0  0
 14 11  1  0  0  0  0
 15 16  1  0  0  0  0
 16 14  2  0  0  0  0
 16  1  1  0  0  0  0
 17 12  1  0  0  0  0
 18 20  2  0  0  0  0
 19 20  1  0  0  0  0
 20 17  1  0  0  0  0
 22 27  1  0  0  0  0
 22 24  1  0  0  0  0
 24 29  1  6  0  0  0
 24 25  1  0  0  0  0
 25 23  2  0  0  0  0
 25 33  1  0  0  0  0
 26 21  1  0  0  0  0
 26 23  1  0  0  0  0
 27 26  2  0  0  0  0
 28 29  2  0  0  0  0
 31 32  1  0  0  0  0
 32 28  1  0  0  0  0
 32 30  1  0  0  0  0
 33 34  2  0  0  0  0
M  END
>  <MODEL>
8

>  <REMARK>
 VINA RESULT:      -6.5      4.451      7.825
  Name = 
  8 active torsions:
  status: ('A' for Active; 'I' for Inactive)
    1  A    between atoms: C_1  and  C_34
    2  A    between atoms: C_7  and  N_21
    3  A    between atoms: C_8  and  O_18
    4  A    between atoms: C_14  and  C_16
    5  A    between atoms: O_18  and  C_30
    6  A    between atoms: O_23  and  C_24
    7  A    between atoms: O_23  and  C_25
    8  A    between atoms: C_26  and  C_28
                            x       y       z     vdW  Elec       q    Type
                         _______ _______ _______ _____ _____    ______ ____

>  <TORSDO>
F 8

$$$$
=
 OpenBabel11052420253D

 34 36  0  0  1  0  0  0  0  0999 V2000
  189.9190  175.4960  145.2450 C   0  0  0  0  0  0  0  0  0  0  0  0
  188.1280  175.6730  143.5220 C   0  0  1  0  0  3  0  0  0  0  0  0
  189.5520  175.5750  143.9610 C   0  0  0  0  0  3  0  0  0  0  0  0
  187.3360  177.2040  145.3060 C   0  0  0  0  0  3  0  0  0  0  0  0
  187.1050  176.4620  147.5450 F   0  0  0  0  0  0  0  0  0  0  0  0
  187.5040  176.9360  144.0120 C   0  0  0  0  0  3  0  0  0  0  0  0
  189.1070  174.6950  147.3120 O   0  0  0  0  0  0  0  0  0  0  0  0
  188.9120  175.4710  146.3390 C   0  0  0  0  0  0  0  0  0  0  0  0
  187.7610  176.3370  146.3700 N   0  0  0  0  0  0  0  0  0  0  0  0
  193.3880  173.9940  145.6790 C   0  0  0  0  0  3  0  0  0  0  0  0
  191.3610  173.0070  144.9530 F   0  0  0  0  0  0  0  0  0  0  0  0
  194.1120  175.0890  146.1610 C   0  0  0  0  0  0  0  0  0  0  0  0
  193.4500  176.3100  146.3530 C   0  0  0  0  0  3  0  0  0  0  0  0
  192.0280  174.1090  145.3800 C   0  0  0  0  0  0  0  0  0  0  0  0
  192.0910  176.4330  146.0590 C   0  0  0  0  0  3  0  0  0  0  0  0
  191.3630  175.3400  145.5610 C   0  0  0  0  0  0  0  0  0  0  0  0
  195.4760  174.9150  146.4370 O   0  0  0  0  0  0  0  0  0  0  0  0
  196.8580  174.6350  144.5880 O   0  0  0  0  0  0  0  0  0  0  0  0
  196.8200  172.8420  146.1360 C   0  0  0  0  0  1  0  0  0  0  0  0
  196.3920  174.1850  145.6670 C   0  0  0  0  0  0  0  0  0  0  0  0
  188.0170  175.5560  142.1010 O   0  0  0  0  0  0  0  0  0  0  0  0
  188.5900  173.2150  139.2690 C   0  0  0  0  0  2  0  0  0  0  0  0
  189.0600  173.3140  142.0520 C   0  0  0  0  0  3  0  0  0  0  0  0
  189.7910  172.4580  139.8560 C   0  0  2  0  0  3  0  0  0  0  0  0
  189.6710  172.3490  141.3590 C   0  0  0  0  0  0  0  0  0  0  0  0
  188.4220  174.4420  141.3540 C   0  0  0  0  0  0  0  0  0  0  0  0
  188.2610  174.4010  140.0620 N   0  0  0  0  0  0  0  0  0  0  0  0
  191.9090  172.7630  138.5130 C   0  0  0  0  0  3  0  0  0  0  0  0
  191.0740  173.1380  139.4910 C   0  0  0  0  0  3  0  0  0  0  0  0
  192.2470  170.2920  137.9790 C   0  0  0  0  0  1  0  0  0  0  0  0
  191.2170  171.8410  136.3290 C   0  0  0  0  0  1  0  0  0  0  0  0
  191.7490  171.6200  137.6590 N   0  0  0  0  0  0  0  0  0  0  0  0
  190.2850  171.2400  142.0970 C   0  0  0  0  0  3  0  0  0  0  0  0
  190.7610  170.1600  141.4910 C   0  0  0  0  0  2  0  0  0  0  0  0
  1 16  1  0  0  0  0
  1  8  1  0  0  0  0
  2 21  1  6  0  0  0
  2  3  1  0  0  0  0
  2  6  1  0  0  0  0
  3  1  2  0  0  0  0
  4  9  1  0  0  0  0
  6  4  2  0  0  0  0
  8  9  1  0  0  0  0
  8  7  2  0  0  0  0
  9  5  1  0  0  0  0
 10 12  1  0  0  0  0
 11 14  1  0  0  0  0
 12 13  2  0  0  0  0
 12 17  1  0  0  0  0
 14 16  1  0  0  0  0
 14 10  2  0  0  0  0
 15 13  1  0  0  0  0
 16 15  2  0  0  0  0
 18 20  2  0  0  0  0
 20 19  1  0  0  0  0
 20 17  1  0  0  0  0
 22 24  1  0  0  0  0
 22 27  1  0  0  0  0
 24 29  1  1  0  0  0
 24 25  1  0  0  0  0
 25 23  2  0  0  0  0
 25 33  1  0  0  0  0
 26 23  1  0  0  0  0
 26 21  1  0  0  0  0
 27 26  2  0  0  0  0
 28 29  2  0  0  0  0
 31 32  1  0  0  0  0
 32 30  1  0  0  0  0
 32 28  1  0  0  0  0
 34 33  2  0  0  0  0
M  END
>  <MODEL>
9

>  <REMARK>
 VINA RESULT:      -6.4      3.626      7.173
  Name = 
  8 active torsions:
  status: ('A' for Active; 'I' for Inactive)
    1  A    between atoms: C_1  and  C_34
    2  A    between atoms: C_7  and  N_21
    3  A    between atoms: C_8  and  O_18
    4  A    between atoms: C_14  and  C_16
    5  A    between atoms: O_18  and  C_30
    6  A    between atoms: O_23  and  C_24
    7  A    between atoms: O_23  and  C_25
    8  A    between atoms: C_26  and  C_28
                            x       y       z     vdW  Elec       q    Type
                         _______ _______ _______ _____ _____    ______ ____

>  <TORSDO>
F 8

$$$$
