=
 OpenBabel11052418223D

 27 32  0  0  1  0  0  0  0  0999 V2000
  190.6810  173.2720  144.3860 C   0  0  2  0  0  0  0  0  0  0  0  0
  189.3280  175.0670  145.5910 C   0  0  1  0  0  3  0  0  0  0  0  0
  188.9580  174.6830  143.1350 C   0  0  0  0  0  2  0  0  0  0  0  0
  186.2660  178.1460  145.5970 C   0  0  0  0  0  2  0  0  0  0  0  0
  184.6180  179.5530  144.3870 C   0  0  0  0  0  1  0  0  0  0  0  0
  189.2720  176.0580  146.7550 C   0  0  0  0  0  2  0  0  0  0  0  0
  187.3560  177.2310  143.0320 C   0  0  0  0  0  2  0  0  0  0  0  0
  191.4800  173.4920  140.9130 C   0  0  0  0  0  2  0  0  0  0  0  0
  186.0010  177.9290  143.1150 C   0  0  0  0  0  2  0  0  0  0  0  0
  191.7350  172.2870  141.7960 C   0  0  2  0  0  3  0  0  0  0  0  0
  188.9850  175.7390  144.2440 C   0  0  1  0  0  3  0  0  0  0  0  0
  190.6730  174.3090  145.5350 C   0  0  2  0  0  3  0  0  0  0  0  0
  185.9780  178.8930  144.2990 C   0  0  2  0  0  3  0  0  0  0  0  0
  187.6200  177.4480  145.5110 C   0  0  2  0  0  3  0  0  0  0  0  0
  189.6590  172.1860  144.7110 C   0  0  0  0  0  1  0  0  0  0  0  0
  187.6370  176.4660  144.3270 C   0  0  1  0  0  3  0  0  0  0  0  0
  190.3920  173.0310  141.8600 C   0  0  1  0  0  3  0  0  0  0  0  0
  187.9000  176.7150  146.8170 C   0  0  0  0  0  2  0  0  0  0  0  0
  192.7080  172.6800  142.9120 C   0  0  0  0  0  2  0  0  0  0  0  0
  192.0490  172.5660  144.2900 C   0  0  0  0  0  2  0  0  0  0  0  0
  190.3110  173.9780  143.0580 C   0  0  2  0  0  3  0  0  0  0  0  0
  194.1350  176.8820  145.6370 C   0  0  0  0  0  3  0  0  0  0  0  0
  191.8780  175.2230  145.5510 C   0  0  0  0  0  0  0  0  0  0  0  0
  192.1010  176.1690  144.5380 C   0  0  0  0  0  3  0  0  0  0  0  0
  193.2260  176.9960  144.5830 C   0  0  0  0  0  3  0  0  0  0  0  0
  193.9190  175.9410  146.6490 C   0  0  0  0  0  3  0  0  0  0  0  0
  192.7930  175.1140  146.6050 C   0  0  0  0  0  3  0  0  0  0  0  0
  1 15  1  1  0  0  0
  1 12  1  0  0  0  0
  2  6  1  1  0  0  0
  6 18  1  0  0  0  0
  7  9  1  0  0  0  0
  9 13  1  0  0  0  0
 10  8  1  6  0  0  0
 10 17  1  0  0  0  0
 10 19  1  0  0  0  0
 11  3  1  6  0  0  0
 11 16  1  0  0  0  0
 11  2  1  0  0  0  0
 12 23  1  6  0  0  0
 12  2  1  0  0  0  0
 13  5  1  1  0  0  0
 13  4  1  0  0  0  0
 14  4  1  1  0  0  0
 14 18  1  0  0  0  0
 16  7  1  6  0  0  0
 16 14  1  0  0  0  0
 17  8  1  6  0  0  0
 17 21  1  0  0  0  0
 19 20  1  0  0  0  0
 20  1  1  0  0  0  0
 21  3  1  1  0  0  0
 21  1  1  0  0  0  0
 22 26  1  0  0  0  0
 23 27  1  0  0  0  0
 24 25  1  0  0  0  0
 24 23  2  0  0  0  0
 25 22  2  0  0  0  0
 27 26  2  0  0  0  0
M  END
>  <MODEL>
1

>  <REMARK>
 VINA RESULT:      -8.7      0.000      0.000
  Name = 
  1 active torsions:
  status: ('A' for Active; 'I' for Inactive)
    1  A    between atoms: C_9  and  C_15
                            x       y       z     vdW  Elec       q    Type
                         _______ _______ _______ _____ _____    ______ ____

>  <TORSDO>
F 1

$$$$
=
 OpenBabel11052418223D

 27 32  0  0  1  0  0  0  0  0999 V2000
  191.5860  176.2810  143.5570 C   0  0  2  0  0  0  0  0  0  0  0  0
  189.0930  176.6560  143.1650 C   0  0  1  0  0  3  0  0  0  0  0  0
  190.0610  177.0740  145.4470 C   0  0  0  0  0  2  0  0  0  0  0  0
  185.1720  177.8720  144.5770 C   0  0  0  0  0  2  0  0  0  0  0  0
  183.6690  178.6020  146.4130 C   0  0  0  0  0  1  0  0  0  0  0  0
  187.8580  176.2740  142.3490 C   0  0  0  0  0  2  0  0  0  0  0  0
  187.2610  177.2590  146.5420 C   0  0  0  0  0  2  0  0  0  0  0  0
  192.9000  175.3480  146.7440 C   0  0  0  0  0  2  0  0  0  0  0  0
  186.0540  178.1180  146.9090 C   0  0  0  0  0  2  0  0  0  0  0  0
  193.7270  175.7330  145.5330 C   0  0  2  0  0  3  0  0  0  0  0  0
  188.8260  176.5860  144.6840 C   0  0  1  0  0  3  0  0  0  0  0  0
  190.3380  175.8350  142.7580 C   0  0  2  0  0  3  0  0  0  0  0  0
  184.8490  177.7210  146.0600 C   0  0  2  0  0  3  0  0  0  0  0  0
  186.3790  177.0140  144.2120 C   0  0  2  0  0  3  0  0  0  0  0  0
  191.9350  177.7090  143.1460 C   0  0  0  0  0  1  0  0  0  0  0  0
  187.5970  177.4260  145.0580 C   0  0  1  0  0  3  0  0  0  0  0  0
  192.4920  176.5580  145.9290 C   0  0  1  0  0  3  0  0  0  0  0  0
  186.6840  177.1660  142.7280 C   0  0  0  0  0  2  0  0  0  0  0  0
  193.4600  174.7310  144.4050 C   0  0  0  0  0  2  0  0  0  0  0  0
  192.8100  175.4150  143.1970 C   0  0  0  0  0  2  0  0  0  0  0  0
  191.2710  176.2210  145.0720 C   0  0  2  0  0  3  0  0  0  0  0  0
  189.6760  171.5720  142.7120 C   0  0  0  0  0  3  0  0  0  0  0  0
  190.1000  174.3410  142.7660 C   0  0  0  0  0  0  0  0  0  0  0  0
  189.8570  173.6390  143.9570 C   0  0  0  0  0  3  0  0  0  0  0  0
  189.6440  172.2580  143.9280 C   0  0  0  0  0  3  0  0  0  0  0  0
  189.9190  172.2660  141.5230 C   0  0  0  0  0  3  0  0  0  0  0  0
  190.1300  173.6480  141.5510 C   0  0  0  0  0  3  0  0  0  0  0  0
  1 15  1  6  0  0  0
  1 21  1  0  0  0  0
  2  6  1  6  0  0  0
  2 11  1  0  0  0  0
  4 13  1  0  0  0  0
  6 18  1  0  0  0  0
  7  9  1  0  0  0  0
 10 19  1  6  0  0  0
 10 17  1  0  0  0  0
 10  8  1  0  0  0  0
 11 16  1  0  0  0  0
 11  3  1  1  0  0  0
 12 23  1  1  0  0  0
 12  2  1  0  0  0  0
 12  1  1  0  0  0  0
 13  5  1  1  0  0  0
 13  9  1  0  0  0  0
 14 18  1  6  0  0  0
 14  4  1  0  0  0  0
 14 16  1  0  0  0  0
 16  7  1  1  0  0  0
 17  8  1  1  0  0  0
 20  1  1  0  0  0  0
 20 19  1  0  0  0  0
 21  3  1  6  0  0  0
 21 17  1  0  0  0  0
 22 25  1  0  0  0  0
 23 24  1  0  0  0  0
 25 24  2  0  0  0  0
 26 27  1  0  0  0  0
 26 22  2  0  0  0  0
 27 23  2  0  0  0  0
M  END
>  <MODEL>
2

>  <REMARK>
 VINA RESULT:      -8.6      1.399      4.312
  Name = 
  1 active torsions:
  status: ('A' for Active; 'I' for Inactive)
    1  A    between atoms: C_9  and  C_15
                            x       y       z     vdW  Elec       q    Type
                         _______ _______ _______ _____ _____    ______ ____

>  <TORSDO>
F 1

$$$$
=
 OpenBabel11052418223D

 27 32  0  0  1  0  0  0  0  0999 V2000
  191.5530  176.2380  144.2580 C   0  0  2  0  0  0  0  0  0  0  0  0
  189.4270  176.8030  142.9650 C   0  0  1  0  0  3  0  0  0  0  0  0
  189.5080  177.2040  145.4450 C   0  0  0  0  0  2  0  0  0  0  0  0
  185.3820  178.3730  142.8160 C   0  0  0  0  0  2  0  0  0  0  0  0
  183.3730  179.2740  143.9610 C   0  0  0  0  0  1  0  0  0  0  0  0
  188.5570  176.5010  141.7440 C   0  0  0  0  0  2  0  0  0  0  0  0
  186.5290  177.6470  145.4160 C   0  0  0  0  0  2  0  0  0  0  0  0
  191.5000  175.2910  147.7000 C   0  0  0  0  0  2  0  0  0  0  0  0
  185.3510  178.6110  145.3090 C   0  0  0  0  0  2  0  0  0  0  0  0
  192.7490  175.5730  146.8880 C   0  0  2  0  0  3  0  0  0  0  0  0
  188.6090  176.7980  144.2740 C   0  0  1  0  0  3  0  0  0  0  0  0
  190.6590  175.8730  143.0490 C   0  0  2  0  0  3  0  0  0  0  0  0
  184.5190  178.2900  144.0700 C   0  0  2  0  0  3  0  0  0  0  0  0
  186.5600  177.4100  142.9250 C   0  0  2  0  0  3  0  0  0  0  0  0
  192.1510  177.6210  144.0130 C   0  0  0  0  0  1  0  0  0  0  0  0
  187.4060  177.7450  144.1660 C   0  0  1  0  0  3  0  0  0  0  0  0
  191.5310  176.5070  146.7980 C   0  0  1  0  0  3  0  0  0  0  0  0
  187.4080  177.4950  141.6620 C   0  0  0  0  0  2  0  0  0  0  0  0
  192.8360  174.5650  145.7370 C   0  0  0  0  0  2  0  0  0  0  0  0
  192.7440  175.2650  144.3770 C   0  0  0  0  0  2  0  0  0  0  0  0
  190.6930  176.2460  145.5460 C   0  0  2  0  0  3  0  0  0  0  0  0
  189.6950  171.6790  142.7370 C   0  0  0  0  0  3  0  0  0  0  0  0
  190.3080  174.4040  142.9610 C   0  0  0  0  0  0  0  0  0  0  0  0
  189.6310  173.7430  143.9980 C   0  0  0  0  0  3  0  0  0  0  0  0
  189.3260  172.3850  143.8840 C   0  0  0  0  0  3  0  0  0  0  0  0
  190.3700  172.3320  141.7010 C   0  0  0  0  0  3  0  0  0  0  0  0
  190.6760  173.6910  141.8130 C   0  0  0  0  0  3  0  0  0  0  0  0
  1 15  1  6  0  0  0
  1 20  1  0  0  0  0
  1 21  1  0  0  0  0
  2  6  1  6  0  0  0
  2 12  1  0  0  0  0
  2 11  1  0  0  0  0
  4 14  1  0  0  0  0
  4 13  1  0  0  0  0
  9  7  1  0  0  0  0
 10 19  1  6  0  0  0
 10  8  1  0  0  0  0
 11  3  1  1  0  0  0
 12 23  1  1  0  0  0
 12  1  1  0  0  0  0
 13  5  1  6  0  0  0
 13  9  1  0  0  0  0
 14 18  1  6  0  0  0
 14 16  1  0  0  0  0
 16 11  1  0  0  0  0
 16  7  1  1  0  0  0
 17 10  1  0  0  0  0
 17  8  1  1  0  0  0
 18  6  1  0  0  0  0
 20 19  1  0  0  0  0
 21  3  1  6  0  0  0
 21 17  1  0  0  0  0
 22 25  1  0  0  0  0
 23 24  1  0  0  0  0
 25 24  2  0  0  0  0
 26 27  1  0  0  0  0
 26 22  2  0  0  0  0
 27 23  2  0  0  0  0
M  END
>  <MODEL>
3

>  <REMARK>
 VINA RESULT:      -8.2      1.431      4.367
  Name = 
  1 active torsions:
  status: ('A' for Active; 'I' for Inactive)
    1  A    between atoms: C_9  and  C_15
                            x       y       z     vdW  Elec       q    Type
                         _______ _______ _______ _____ _____    ______ ____

>  <TORSDO>
F 1

$$$$
=
 OpenBabel11052418223D

 27 32  0  0  1  0  0  0  0  0999 V2000
  190.7830  172.8680  143.6040 C   0  0  2  0  0  0  0  0  0  0  0  0
  189.6570  174.2810  145.4040 C   0  0  1  0  0  3  0  0  0  0  0  0
  188.9570  174.5510  143.0050 C   0  0  0  0  0  2  0  0  0  0  0  0
  186.7230  177.2420  146.6200 C   0  0  0  0  0  2  0  0  0  0  0  0
  184.9770  178.9110  146.0490 C   0  0  0  0  0  1  0  0  0  0  0  0
  189.7860  174.9340  146.7810 C   0  0  0  0  0  2  0  0  0  0  0  0
  187.4370  177.0320  143.7830 C   0  0  0  0  0  2  0  0  0  0  0  0
  191.1260  173.9890  140.2310 C   0  0  0  0  0  2  0  0  0  0  0  0
  186.1290  177.6800  144.2260 C   0  0  0  0  0  2  0  0  0  0  0  0
  191.4560  172.5960  140.7290 C   0  0  2  0  0  3  0  0  0  0  0  0
  189.1630  175.2800  144.3360 C   0  0  1  0  0  3  0  0  0  0  0  0
  190.9580  173.5680  144.9720 C   0  0  2  0  0  3  0  0  0  0  0  0
  186.2920  178.3010  145.6110 C   0  0  2  0  0  3  0  0  0  0  0  0
  188.0310  176.5950  146.1750 C   0  0  2  0  0  3  0  0  0  0  0  0
  189.7770  171.7310  143.7710 C   0  0  0  0  0  1  0  0  0  0  0  0
  187.8610  175.9560  144.7850 C   0  0  1  0  0  3  0  0  0  0  0  0
  190.1570  173.2930  141.1640 C   0  0  1  0  0  3  0  0  0  0  0  0
  188.4560  175.5480  147.1950 C   0  0  0  0  0  2  0  0  0  0  0  0
  192.5790  172.6870  141.7670 C   0  0  0  0  0  2  0  0  0  0  0  0
  192.1030  172.2150  143.1440 C   0  0  0  0  0  2  0  0  0  0  0  0
  190.2640  173.8940  142.5670 C   0  0  2  0  0  3  0  0  0  0  0  0
  194.4880  176.0320  145.2610 C   0  0  0  0  0  3  0  0  0  0  0  0
  192.1840  174.4500  145.0620 C   0  0  0  0  0  0  0  0  0  0  0  0
  192.2320  175.7120  144.4480 C   0  0  0  0  0  3  0  0  0  0  0  0
  193.3820  176.5000  144.5490 C   0  0  0  0  0  3  0  0  0  0  0  0
  194.4470  174.7760  145.8730 C   0  0  0  0  0  3  0  0  0  0  0  0
  193.2970  173.9880  145.7740 C   0  0  0  0  0  3  0  0  0  0  0  0
  1 15  1  1  0  0  0
  1 12  1  0  0  0  0
  2  6  1  1  0  0  0
  6 18  1  0  0  0  0
  7  9  1  0  0  0  0
  9 13  1  0  0  0  0
 10  8  1  6  0  0  0
 10 17  1  0  0  0  0
 10 19  1  0  0  0  0
 11  3  1  6  0  0  0
 11 16  1  0  0  0  0
 11  2  1  0  0  0  0
 12 23  1  6  0  0  0
 12  2  1  0  0  0  0
 13  5  1  1  0  0  0
 13  4  1  0  0  0  0
 14  4  1  1  0  0  0
 14 18  1  0  0  0  0
 16  7  1  6  0  0  0
 16 14  1  0  0  0  0
 17  8  1  6  0  0  0
 17 21  1  0  0  0  0
 19 20  1  0  0  0  0
 20  1  1  0  0  0  0
 21  3  1  1  0  0  0
 21  1  1  0  0  0  0
 22 26  1  0  0  0  0
 23 27  1  0  0  0  0
 24 25  1  0  0  0  0
 24 23  2  0  0  0  0
 25 22  2  0  0  0  0
 27 26  2  0  0  0  0
M  END
>  <MODEL>
4

>  <REMARK>
 VINA RESULT:      -7.8      0.968      1.075
  Name = 
  1 active torsions:
  status: ('A' for Active; 'I' for Inactive)
    1  A    between atoms: C_9  and  C_15
                            x       y       z     vdW  Elec       q    Type
                         _______ _______ _______ _____ _____    ______ ____

>  <TORSDO>
F 1

$$$$
=
 OpenBabel11052418223D

 27 32  0  0  1  0  0  0  0  0999 V2000
  189.7940  176.8360  143.9140 C   0  0  2  0  0  0  0  0  0  0  0  0
  188.1760  177.2640  141.9900 C   0  0  1  0  0  3  0  0  0  0  0  0
  187.3600  177.4690  144.3580 C   0  0  0  0  0  2  0  0  0  0  0  0
  184.2490  178.3810  140.5130 C   0  0  0  0  0  2  0  0  0  0  0  0
  181.8700  178.9570  140.9280 C   0  0  0  0  0  1  0  0  0  0  0  0
  187.8170  176.9660  140.5330 C   0  0  0  0  0  2  0  0  0  0  0  0
  184.5350  177.5790  143.3200 C   0  0  0  0  0  2  0  0  0  0  0  0
  188.7080  175.6120  147.0890 C   0  0  0  0  0  2  0  0  0  0  0  0
  183.3460  178.4110  142.8500 C   0  0  0  0  0  2  0  0  0  0  0  0
  190.1080  176.0960  146.7680 C   0  0  2  0  0  3  0  0  0  0  0  0
  186.9720  177.0610  142.9340 C   0  0  1  0  0  3  0  0  0  0  0  0
  189.4180  176.4720  142.4580 C   0  0  2  0  0  3  0  0  0  0  0  0
  183.0310  178.1010  141.3880 C   0  0  2  0  0  3  0  0  0  0  0  0
  185.4370  177.5490  140.9850 C   0  0  2  0  0  3  0  0  0  0  0  0
  190.2520  178.2920  143.9440 C   0  0  0  0  0  1  0  0  0  0  0  0
  185.7620  177.8740  142.4540 C   0  0  1  0  0  3  0  0  0  0  0  0
  188.8810  176.8930  146.2990 C   0  0  1  0  0  3  0  0  0  0  0  0
  186.6420  177.8300  140.0970 C   0  0  0  0  0  2  0  0  0  0  0  0
  190.7120  175.2010  145.6810 C   0  0  0  0  0  2  0  0  0  0  0  0
  190.9930  175.9950  144.4010 C   0  0  0  0  0  2  0  0  0  0  0  0
  188.5570  176.6430  144.8250 C   0  0  2  0  0  3  0  0  0  0  0  0
  189.1900  172.2330  141.6910 C   0  0  0  0  0  3  0  0  0  0  0  0
  189.3150  174.9860  142.1990 C   0  0  0  0  0  0  0  0  0  0  0  0
  188.2160  174.2330  142.6410 C   0  0  0  0  0  3  0  0  0  0  0  0
  188.1550  172.8610  142.3870 C   0  0  0  0  0  3  0  0  0  0  0  0
  190.2880  172.9770  141.2480 C   0  0  0  0  0  3  0  0  0  0  0  0
  190.3500  174.3500  141.5020 C   0  0  0  0  0  3  0  0  0  0  0  0
  1 15  1  1  0  0  0
  1 20  1  0  0  0  0
  1 21  1  0  0  0  0
  2  6  1  6  0  0  0
  2 12  1  0  0  0  0
  2 11  1  0  0  0  0
  4 14  1  0  0  0  0
  4 13  1  0  0  0  0
  9  7  1  0  0  0  0
 10 19  1  6  0  0  0
 10  8  1  0  0  0  0
 11  3  1  1  0  0  0
 12 23  1  1  0  0  0
 12  1  1  0  0  0  0
 13  5  1  6  0  0  0
 13  9  1  0  0  0  0
 14 18  1  6  0  0  0
 14 16  1  0  0  0  0
 16 11  1  0  0  0  0
 16  7  1  1  0  0  0
 17 10  1  0  0  0  0
 17  8  1  1  0  0  0
 18  6  1  0  0  0  0
 20 19  1  0  0  0  0
 21  3  1  6  0  0  0
 21 17  1  0  0  0  0
 22 25  1  0  0  0  0
 23 24  1  0  0  0  0
 25 24  2  0  0  0  0
 26 27  1  0  0  0  0
 26 22  2  0  0  0  0
 27 23  2  0  0  0  0
M  END
>  <MODEL>
5

>  <REMARK>
 VINA RESULT:      -7.2      1.968      5.163
  Name = 
  1 active torsions:
  status: ('A' for Active; 'I' for Inactive)
    1  A    between atoms: C_9  and  C_15
                            x       y       z     vdW  Elec       q    Type
                         _______ _______ _______ _____ _____    ______ ____

>  <TORSDO>
F 1

$$$$
=
 OpenBabel11052418223D

 27 32  0  0  1  0  0  0  0  0999 V2000
  194.7100  174.5510  144.3350 C   0  0  2  0  0  0  0  0  0  0  0  0
  192.7240  176.1490  144.2430 C   0  0  1  0  0  3  0  0  0  0  0  0
  192.6380  174.1610  145.7780 C   0  0  0  0  0  2  0  0  0  0  0  0
  188.7970  177.4030  145.6050 C   0  0  0  0  0  2  0  0  0  0  0  0
  186.7600  177.0150  146.9690 C   0  0  0  0  0  1  0  0  0  0  0  0
  191.9340  177.1560  143.4060 C   0  0  0  0  0  2  0  0  0  0  0  0
  189.7000  174.6750  146.1930 C   0  0  0  0  0  2  0  0  0  0  0  0
  194.3430  171.0920  145.1470 C   0  0  0  0  0  2  0  0  0  0  0  0
  188.5890  175.3360  147.0040 C   0  0  0  0  0  2  0  0  0  0  0  0
  195.6630  171.8200  144.9900 C   0  0  2  0  0  3  0  0  0  0  0  0
  191.8100  175.0780  144.8740 C   0  0  1  0  0  3  0  0  0  0  0  0
  193.8920  175.5190  143.4490 C   0  0  2  0  0  3  0  0  0  0  0  0
  187.8370  176.3460  146.1420 C   0  0  2  0  0  3  0  0  0  0  0  0
  189.9070  176.7410  144.7950 C   0  0  2  0  0  3  0  0  0  0  0  0
  195.4020  175.3640  145.4260 C   0  0  0  0  0  1  0  0  0  0  0  0
  190.6740  175.7330  145.6700 C   0  0  1  0  0  3  0  0  0  0  0  0
  194.5110  172.4560  145.7840 C   0  0  1  0  0  3  0  0  0  0  0  0
  190.8520  177.8070  144.2560 C   0  0  0  0  0  2  0  0  0  0  0  0
  195.7810  172.3420  143.5550 C   0  0  0  0  0  2  0  0  0  0  0  0
  195.8320  173.8730  143.5220 C   0  0  0  0  0  2  0  0  0  0  0  0
  193.7570  173.5070  144.9680 C   0  0  2  0  0  3  0  0  0  0  0  0
  192.7330  173.8810  139.6300 C   0  0  0  0  0  3  0  0  0  0  0  0
  193.4670  174.9330  142.1210 C   0  0  0  0  0  0  0  0  0  0  0  0
  192.4430  173.9770  142.0300 C   0  0  0  0  0  3  0  0  0  0  0  0
  192.0780  173.4540  140.7870 C   0  0  0  0  0  3  0  0  0  0  0  0
  193.7540  174.8320  139.7150 C   0  0  0  0  0  3  0  0  0  0  0  0
  194.1190  175.3570  140.9580 C   0  0  0  0  0  3  0  0  0  0  0  0
  1 21  1  0  0  0  0
  1 15  1  1  0  0  0
  2  6  1  6  0  0  0
  2 11  1  0  0  0  0
  4 13  1  0  0  0  0
  6 18  1  0  0  0  0
  7  9  1  0  0  0  0
 10 19  1  6  0  0  0
 10  8  1  0  0  0  0
 10 17  1  0  0  0  0
 11 16  1  0  0  0  0
 11  3  1  1  0  0  0
 12 23  1  6  0  0  0
 12  2  1  0  0  0  0
 12  1  1  0  0  0  0
 13  5  1  1  0  0  0
 13  9  1  0  0  0  0
 14 18  1  1  0  0  0
 14  4  1  0  0  0  0
 14 16  1  0  0  0  0
 16  7  1  6  0  0  0
 17  8  1  6  0  0  0
 20 19  1  0  0  0  0
 20  1  1  0  0  0  0
 21  3  1  1  0  0  0
 21 17  1  0  0  0  0
 22 26  2  0  0  0  0
 22 25  1  0  0  0  0
 24 23  1  0  0  0  0
 25 24  2  0  0  0  0
 26 27  1  0  0  0  0
 27 23  2  0  0  0  0
M  END
>  <MODEL>
6

>  <REMARK>
 VINA RESULT:      -7.1      2.115      4.638
  Name = 
  1 active torsions:
  status: ('A' for Active; 'I' for Inactive)
    1  A    between atoms: C_9  and  C_15
                            x       y       z     vdW  Elec       q    Type
                         _______ _______ _______ _____ _____    ______ ____

>  <TORSDO>
F 1

$$$$
=
 OpenBabel11052418223D

 27 32  0  0  1  0  0  0  0  0999 V2000
  193.3850  174.3970  145.2300 C   0  0  2  0  0  0  0  0  0  0  0  0
  192.0040  176.3580  144.3630 C   0  0  1  0  0  3  0  0  0  0  0  0
  191.2120  174.0100  143.9440 C   0  0  0  0  0  2  0  0  0  0  0  0
  188.4990  177.9300  142.3400 C   0  0  0  0  0  2  0  0  0  0  0  0
  186.4070  177.5700  141.0530 C   0  0  0  0  0  1  0  0  0  0  0  0
  192.0090  177.8120  143.8870 C   0  0  0  0  0  2  0  0  0  0  0  0
  189.1830  175.0970  142.0020 C   0  0  0  0  0  2  0  0  0  0  0  0
  193.3950  171.2080  143.6210 C   0  0  0  0  0  2  0  0  0  0  0  0
  187.7710  175.6100  141.7350 C   0  0  0  0  0  2  0  0  0  0  0  0
  194.0430  171.5180  144.9560 C   0  0  2  0  0  3  0  0  0  0  0  0
  191.2730  175.4290  143.3710 C   0  0  1  0  0  3  0  0  0  0  0  0
  193.4250  175.8480  144.6960 C   0  0  2  0  0  3  0  0  0  0  0  0
  187.8160  177.0670  141.2830 C   0  0  2  0  0  3  0  0  0  0  0  0
  189.9100  177.4150  142.6060 C   0  0  2  0  0  3  0  0  0  0  0  0
  192.6690  174.4000  146.5780 C   0  0  0  0  0  1  0  0  0  0  0  0
  189.8610  175.9510  143.0760 C   0  0  1  0  0  3  0  0  0  0  0  0
  192.6290  172.0290  144.6380 C   0  0  1  0  0  3  0  0  0  0  0  0
  190.5830  178.2910  143.6540 C   0  0  0  0  0  2  0  0  0  0  0  0
  195.1370  172.5710  144.7490 C   0  0  0  0  0  2  0  0  0  0  0  0
  194.8100  173.8670  145.4960 C   0  0  0  0  0  2  0  0  0  0  0  0
  192.6250  173.5010  144.2210 C   0  0  2  0  0  3  0  0  0  0  0  0
  196.3090  176.4930  141.5520 C   0  0  0  0  0  3  0  0  0  0  0  0
  194.4180  176.0680  143.5770 C   0  0  0  0  0  0  0  0  0  0  0  0
  194.1050  175.7710  142.2410 C   0  0  0  0  0  3  0  0  0  0  0  0
  195.0480  175.9830  141.2330 C   0  0  0  0  0  3  0  0  0  0  0  0
  196.6270  176.7910  142.8800 C   0  0  0  0  0  3  0  0  0  0  0  0
  195.6840  176.5790  143.8900 C   0  0  0  0  0  3  0  0  0  0  0  0
  1 20  1  0  0  0  0
  1 15  1  1  0  0  0
  2  6  1  6  0  0  0
  2 12  1  0  0  0  0
  9  7  1  0  0  0  0
 10  8  1  6  0  0  0
 11  3  1  1  0  0  0
 11  2  1  0  0  0  0
 12 23  1  6  0  0  0
 12  1  1  0  0  0  0
 13  5  1  1  0  0  0
 13  9  1  0  0  0  0
 13  4  1  0  0  0  0
 14  4  1  1  0  0  0
 14 16  1  0  0  0  0
 14 18  1  0  0  0  0
 16  7  1  6  0  0  0
 16 11  1  0  0  0  0
 17  8  1  6  0  0  0
 17 10  1  0  0  0  0
 18  6  1  0  0  0  0
 19 10  1  0  0  0  0
 19 20  1  0  0  0  0
 21  3  1  1  0  0  0
 21 17  1  0  0  0  0
 21  1  1  0  0  0  0
 22 26  1  0  0  0  0
 23 27  1  0  0  0  0
 24 23  2  0  0  0  0
 25 22  2  0  0  0  0
 25 24  1  0  0  0  0
 26 27  2  0  0  0  0
M  END
>  <MODEL>
7

>  <REMARK>
 VINA RESULT:      -6.9      2.436      3.644
  Name = 
  1 active torsions:
  status: ('A' for Active; 'I' for Inactive)
    1  A    between atoms: C_9  and  C_15
                            x       y       z     vdW  Elec       q    Type
                         _______ _______ _______ _____ _____    ______ ____

>  <TORSDO>
F 1

$$$$
=
 OpenBabel11052418223D

 27 32  0  0  1  0  0  0  0  0999 V2000
  192.7010  174.1150  145.4000 C   0  0  2  0  0  0  0  0  0  0  0  0
  191.0000  173.0750  143.8100 C   0  0  1  0  0  3  0  0  0  0  0  0
  193.1010  174.0900  142.8770 C   0  0  0  0  0  2  0  0  0  0  0  0
  189.7400  171.9440  139.8110 C   0  0  0  0  0  2  0  0  0  0  0  0
  190.0950  171.9490  137.3550 C   0  0  0  0  0  1  0  0  0  0  0  0
  189.5330  172.7170  143.5650 C   0  0  0  0  0  2  0  0  0  0  0  0
  191.9070  173.8970  140.1190 C   0  0  0  0  0  2  0  0  0  0  0  0
  194.8510  176.7910  144.4140 C   0  0  0  0  0  2  0  0  0  0  0  0
  191.7250  173.1110  138.8240 C   0  0  0  0  0  2  0  0  0  0  0  0
  194.9410  176.0310  145.7220 C   0  0  2  0  0  3  0  0  0  0  0  0
  191.6110  173.8470  142.6210 C   0  0  1  0  0  3  0  0  0  0  0  0
  191.2040  173.8170  145.1500 C   0  0  2  0  0  3  0  0  0  0  0  0
  190.2540  172.7560  138.6260 C   0  0  2  0  0  3  0  0  0  0  0  0
  189.9240  172.7320  141.1050 C   0  0  2  0  0  3  0  0  0  0  0  0
  193.4290  172.7880  145.5990 C   0  0  0  0  0  1  0  0  0  0  0  0
  191.4090  173.0760  141.3100 C   0  0  1  0  0  3  0  0  0  0  0  0
  194.7410  175.2810  144.3960 C   0  0  1  0  0  3  0  0  0  0  0  0
  189.3980  171.9160  142.2780 C   0  0  0  0  0  2  0  0  0  0  0  0
  193.6450  176.2370  146.5130 C   0  0  0  0  0  2  0  0  0  0  0  0
  192.8950  174.9160  146.7040 C   0  0  0  0  0  2  0  0  0  0  0  0
  193.2840  174.8680  144.1780 C   0  0  2  0  0  3  0  0  0  0  0  0
  188.5950  177.2130  145.6760 C   0  0  0  0  0  3  0  0  0  0  0  0
  190.2990  175.0180  145.3140 C   0  0  0  0  0  0  0  0  0  0  0  0
  190.4240  176.1540  144.4980 C   0  0  0  0  0  3  0  0  0  0  0  0
  189.5730  177.2470  144.6800 C   0  0  0  0  0  3  0  0  0  0  0  0
  188.4660  176.0850  146.4920 C   0  0  0  0  0  3  0  0  0  0  0  0
  189.3160  174.9900  146.3110 C   0  0  0  0  0  3  0  0  0  0  0  0
  1 15  1  1  0  0  0
  1 20  1  0  0  0  0
  2  6  1  6  0  0  0
  2 12  1  0  0  0  0
  9  7  1  0  0  0  0
 10  8  1  6  0  0  0
 10 19  1  0  0  0  0
 11  3  1  1  0  0  0
 11  2  1  0  0  0  0
 12 23  1  6  0  0  0
 12  1  1  0  0  0  0
 13  5  1  6  0  0  0
 13  9  1  0  0  0  0
 13  4  1  0  0  0  0
 14  4  1  6  0  0  0
 14 16  1  0  0  0  0
 14 18  1  0  0  0  0
 16  7  1  6  0  0  0
 16 11  1  0  0  0  0
 17  8  1  6  0  0  0
 17 10  1  0  0  0  0
 18  6  1  0  0  0  0
 19 20  1  0  0  0  0
 21  3  1  6  0  0  0
 21 17  1  0  0  0  0
 21  1  1  0  0  0  0
 22 26  1  0  0  0  0
 23 27  1  0  0  0  0
 24 25  1  0  0  0  0
 24 23  2  0  0  0  0
 25 22  2  0  0  0  0
 27 26  2  0  0  0  0
M  END
>  <MODEL>
8

>  <REMARK>
 VINA RESULT:      -6.8      1.875      5.713
  Name = 
  1 active torsions:
  status: ('A' for Active; 'I' for Inactive)
    1  A    between atoms: C_9  and  C_15
                            x       y       z     vdW  Elec       q    Type
                         _______ _______ _______ _____ _____    ______ ____

>  <TORSDO>
F 1

$$$$
=
 OpenBabel11052418223D

 27 32  0  0  1  0  0  0  0  0999 V2000
  189.0200  177.3600  143.2850 C   0  0  2  0  0  0  0  0  0  0  0  0
  190.8710  175.7380  142.6120 C   0  0  1  0  0  3  0  0  0  0  0  0
  188.5250  175.3390  141.8020 C   0  0  0  0  0  2  0  0  0  0  0  0
  192.2430  172.2340  140.4470 C   0  0  0  0  0  2  0  0  0  0  0  0
  191.7700  170.2440  139.0410 C   0  0  0  0  0  1  0  0  0  0  0  0
  192.2220  175.1210  142.9760 C   0  0  0  0  0  2  0  0  0  0  0  0
  189.3650  172.5960  140.8860 C   0  0  0  0  0  2  0  0  0  0  0  0
  185.6100  176.3450  143.5930 C   0  0  0  0  0  2  0  0  0  0  0  0
  189.8910  171.6920  139.7750 C   0  0  0  0  0  2  0  0  0  0  0  0
  186.1090  177.7740  143.6670 C   0  0  2  0  0  3  0  0  0  0  0  0
  189.8230  174.6630  142.2530 C   0  0  1  0  0  3  0  0  0  0  0  0
  190.3580  176.7050  143.7040 C   0  0  2  0  0  3  0  0  0  0  0  0
  191.2480  171.1120  140.1660 C   0  0  2  0  0  3  0  0  0  0  0  0
  191.7150  173.1370  141.5580 C   0  0  2  0  0  3  0  0  0  0  0  0
  189.2830  178.2650  142.0840 C   0  0  0  0  0  1  0  0  0  0  0  0
  190.3540  173.7320  141.1550 C   0  0  1  0  0  3  0  0  0  0  0  0
  186.6250  176.8230  142.5750 C   0  0  1  0  0  3  0  0  0  0  0  0
  192.7210  174.2460  141.8360 C   0  0  0  0  0  2  0  0  0  0  0  0
  187.0590  177.9120  144.8610 C   0  0  0  0  0  2  0  0  0  0  0  0
  188.4770  178.2710  144.4050 C   0  0  0  0  0  2  0  0  0  0  0  0
  188.0040  176.2520  142.9100 C   0  0  2  0  0  3  0  0  0  0  0  0
  190.3560  175.0070  147.6700 C   0  0  0  0  0  3  0  0  0  0  0  0
  190.3400  176.0930  145.0870 C   0  0  0  0  0  0  0  0  0  0  0  0
  189.4230  175.0910  145.4390 C   0  0  0  0  0  3  0  0  0  0  0  0
  189.4320  174.5500  146.7270 C   0  0  0  0  0  3  0  0  0  0  0  0
  191.2720  176.0050  147.3250 C   0  0  0  0  0  3  0  0  0  0  0  0
  191.2630  176.5470  146.0360 C   0  0  0  0  0  3  0  0  0  0  0  0
  1 15  1  6  0  0  0
  1 12  1  0  0  0  0
  1 20  1  0  0  0  0
  2  6  1  1  0  0  0
  2 12  1  0  0  0  0
  9 13  1  0  0  0  0
  9  7  1  0  0  0  0
 10  8  1  1  0  0  0
 10 19  1  0  0  0  0
 11  3  1  6  0  0  0
 11  2  1  0  0  0  0
 12 23  1  1  0  0  0
 13  5  1  6  0  0  0
 13  4  1  0  0  0  0
 14  4  1  6  0  0  0
 14 18  1  0  0  0  0
 16  7  1  1  0  0  0
 16 14  1  0  0  0  0
 16 11  1  0  0  0  0
 17 21  1  0  0  0  0
 17  8  1  1  0  0  0
 17 10  1  0  0  0  0
 18  6  1  0  0  0  0
 20 19  1  0  0  0  0
 21  3  1  6  0  0  0
 21  1  1  0  0  0  0
 23 24  2  0  0  0  0
 23 27  1  0  0  0  0
 24 25  1  0  0  0  0
 25 22  2  0  0  0  0
 26 22  1  0  0  0  0
 27 26  2  0  0  0  0
M  END
>  <MODEL>
9

>  <REMARK>
 VINA RESULT:      -6.8      1.807      6.226
  Name = 
  1 active torsions:
  status: ('A' for Active; 'I' for Inactive)
    1  A    between atoms: C_9  and  C_15
                            x       y       z     vdW  Elec       q    Type
                         _______ _______ _______ _____ _____    ______ ____

>  <TORSDO>
F 1

$$$$
