=
 OpenBabel11052418493D

 34 39  0  0  1  0  0  0  0  0999 V2000
  192.3600  175.5910  144.3620 C   0  0  2  0  0  3  0  0  0  0  0  0
  191.2720  173.3100  144.6280 C   0  0  0  0  0  0  0  0  0  0  0  0
  189.8510  175.3690  144.6530 C   0  0  1  0  0  3  0  0  0  0  0  0
  187.4760  176.8990  142.1880 C   0  0  0  0  0  2  0  0  0  0  0  0
  193.5210  173.6620  145.5420 C   0  0  0  0  0  2  0  0  0  0  0  0
  192.6000  172.6700  144.8560 C   0  0  0  0  0  2  0  0  0  0  0  0
  189.3820  174.6000  142.1740 C   0  0  0  0  0  2  0  0  0  0  0  0
  191.1660  174.7380  144.4620 N   0  0  0  0  0  0  0  0  0  0  0  0
  187.7750  176.1380  140.8880 C   0  0  0  0  0  2  0  0  0  0  0  0
  193.6900  174.8760  144.6430 C   0  0  0  0  0  2  0  0  0  0  0  0
  189.8990  176.8500  145.1440 C   0  0  2  0  0  3  0  0  0  0  0  0
  192.1800  176.7910  145.2660 C   0  0  0  0  0  2  0  0  0  0  0  0
  190.2440  172.5830  144.5830 O   0  0  0  0  0  0  0  0  0  0  0  0
  188.6990  176.7770  143.0820 C   0  0  1  0  0  3  0  0  0  0  0  0
  188.7540  177.5400  144.3970 C   0  0  1  0  0  3  0  0  0  0  0  0
  188.2350  174.6860  141.1490 C   0  0  1  0  0  3  0  0  0  0  0  0
  188.9400  175.3360  143.4290 C   0  0  2  0  0  3  0  0  0  0  0  0
  191.0880  177.5220  144.7820 O   0  0  0  0  0  0  0  0  0  0  0  0
  185.1430  178.1690  145.4900 C   0  0  0  0  0  0  0  0  0  0  0  0
  185.1080  177.4650  146.6950 C   0  0  0  0  0  3  0  0  0  0  0  0
  187.4640  177.5230  145.1770 C   0  0  0  0  0  0  0  0  0  0  0  0
  186.2470  176.7910  147.1450 C   0  0  0  0  0  3  0  0  0  0  0  0
  186.3160  178.2000  144.7320 C   0  0  0  0  0  3  0  0  0  0  0  0
  187.4230  176.8220  146.3870 C   0  0  0  0  0  3  0  0  0  0  0  0
  184.0390  178.8230  145.0550 F   0  0  0  0  0  0  0  0  0  0  0  0
  189.8360  173.5250  139.6540 C   0  0  0  0  0  3  0  0  0  0  0  0
  188.6060  174.0000  139.8700 C   0  0  0  0  0  3  0  0  0  0  0  0
  190.3350  170.6530  139.3490 O   0  0  0  0  0  1  0  0  0  0  0  0
  190.1850  172.8470  138.3680 C   0  0  1  0  0  3  0  0  0  0  0  0
  189.6910  171.3910  138.3560 C   0  0  1  0  0  3  0  0  0  0  0  0
  189.3160  171.5400  135.8800 C   0  0  0  0  0  2  0  0  0  0  0  0
  189.8480  172.9700  135.8840 C   0  0  0  0  0  2  0  0  0  0  0  0
  189.5460  173.6320  137.2230 C   0  0  0  0  0  2  0  0  0  0  0  0
  189.9690  170.7410  137.0020 C   0  0  0  0  0  2  0  0  0  0  0  0
  1  8  1  0  0  0  0
  1 10  1  1  0  0  0
  1 12  1  0  0  0  0
  2  6  1  0  0  0  0
  3  8  1  6  0  0  0
  3 11  1  0  0  0  0
  6  5  1  0  0  0  0
  8  2  1  0  0  0  0
  9 16  1  0  0  0  0
  9  4  1  0  0  0  0
 10  5  1  0  0  0  0
 11 18  1  6  0  0  0
 13  2  2  0  0  0  0
 14  4  1  1  0  0  0
 14 17  1  0  0  0  0
 14 15  1  0  0  0  0
 15 11  1  0  0  0  0
 15 21  1  1  0  0  0
 16 27  1  6  0  0  0
 16  7  1  0  0  0  0
 17  7  1  6  0  0  0
 17  3  1  0  0  0  0
 18 12  1  0  0  0  0
 19 20  1  0  0  0  0
 20 22  2  0  0  0  0
 21 24  2  0  0  0  0
 23 21  1  0  0  0  0
 23 19  2  0  0  0  0
 24 22  1  0  0  0  0
 25 19  1  0  0  0  0
 26 27  2  0  0  0  0
 29 26  1  1  0  0  0
 30 29  1  0  0  0  0
 30 28  1  1  0  0  0
 31 32  1  0  0  0  0
 31 34  1  0  0  0  0
 32 33  1  0  0  0  0
 33 29  1  0  0  0  0
 34 30  1  0  0  0  0
M  END
>  <MODEL>
1

>  <REMARK>
 VINA RESULT:      -9.1      0.000      0.000
  Name = 
  3 active torsions:
  status: ('A' for Active; 'I' for Inactive)
    1  A    between atoms: C_3  and  C_13
    2  A    between atoms: C_12  and  C_28
    3  A    between atoms: C_17  and  C_29
                            x       y       z     vdW  Elec       q    Type
                         _______ _______ _______ _____ _____    ______ ____

>  <TORSDO>
F 3

$$$$
=
 OpenBabel11052418493D

 34 39  0  0  1  0  0  0  0  0999 V2000
  192.3070  175.9800  144.1590 C   0  0  2  0  0  3  0  0  0  0  0  0
  191.3520  173.7340  144.8640 C   0  0  0  0  0  0  0  0  0  0  0  0
  189.8370  175.7140  144.6690 C   0  0  1  0  0  3  0  0  0  0  0  0
  187.2280  176.7360  142.1780 C   0  0  0  0  0  2  0  0  0  0  0  0
  193.6380  174.3120  145.5400 C   0  0  0  0  0  2  0  0  0  0  0  0
  192.7220  173.1890  145.0910 C   0  0  0  0  0  2  0  0  0  0  0  0
  189.2380  174.5380  142.3860 C   0  0  0  0  0  2  0  0  0  0  0  0
  191.1650  175.1110  144.4830 N   0  0  0  0  0  0  0  0  0  0  0  0
  187.4750  175.7870  140.9960 C   0  0  0  0  0  2  0  0  0  0  0  0
  193.6860  175.3700  144.4500 C   0  0  0  0  0  2  0  0  0  0  0  0
  189.8460  177.2570  144.9140 C   0  0  2  0  0  3  0  0  0  0  0  0
  192.1300  177.3030  144.8730 C   0  0  0  0  0  2  0  0  0  0  0  0
  190.3600  172.9710  145.0130 O   0  0  0  0  0  0  0  0  0  0  0  0
  188.5130  176.8060  142.9860 C   0  0  1  0  0  3  0  0  0  0  0  0
  188.6200  177.7740  144.1550 C   0  0  1  0  0  3  0  0  0  0  0  0
  188.0220  174.4140  141.4500 C   0  0  1  0  0  3  0  0  0  0  0  0
  188.8470  175.4500  143.5380 C   0  0  2  0  0  3  0  0  0  0  0  0
  190.9730  177.9050  144.3620 O   0  0  0  0  0  0  0  0  0  0  0  0
  186.1040  177.1510  146.9680 C   0  0  0  0  0  0  0  0  0  0  0  0
  185.0570  177.9840  146.5710 C   0  0  0  0  0  3  0  0  0  0  0  0
  187.3890  177.8350  145.0220 C   0  0  0  0  0  0  0  0  0  0  0  0
  185.1700  178.7420  145.4020 C   0  0  0  0  0  3  0  0  0  0  0  0
  187.2680  177.0750  146.1970 C   0  0  0  0  0  3  0  0  0  0  0  0
  186.3340  178.6660  144.6290 C   0  0  0  0  0  3  0  0  0  0  0  0
  185.9940  176.4160  148.1000 F   0  0  0  0  0  0  0  0  0  0  0  0
  188.4520  174.0430  139.0370 C   0  0  0  0  0  3  0  0  0  0  0  0
  188.3380  173.5450  140.2710 C   0  0  0  0  0  3  0  0  0  0  0  0
  188.5670  174.9160  136.2410 O   0  0  0  0  0  1  0  0  0  0  0  0
  188.7650  173.1570  137.8740 C   0  0  1  0  0  3  0  0  0  0  0  0
  189.4380  173.9470  136.7400 C   0  0  1  0  0  3  0  0  0  0  0  0
  190.7620  171.9100  136.1090 C   0  0  0  0  0  2  0  0  0  0  0  0
  190.0620  171.1140  137.2050 C   0  0  0  0  0  2  0  0  0  0  0  0
  189.6870  172.0380  138.3580 C   0  0  0  0  0  2  0  0  0  0  0  0
  189.8400  173.0120  135.5990 C   0  0  0  0  0  2  0  0  0  0  0  0
  1 10  1  1  0  0  0
  1  8  1  0  0  0  0
  1 12  1  0  0  0  0
  2 13  2  0  0  0  0
  2  6  1  0  0  0  0
  3  8  1  6  0  0  0
  3 11  1  0  0  0  0
  6  5  1  0  0  0  0
  8  2  1  0  0  0  0
  9 16  1  0  0  0  0
  9  4  1  0  0  0  0
 10  5  1  0  0  0  0
 11 18  1  6  0  0  0
 14  4  1  1  0  0  0
 14 17  1  0  0  0  0
 14 15  1  0  0  0  0
 15 11  1  0  0  0  0
 15 21  1  1  0  0  0
 16 27  1  6  0  0  0
 16  7  1  0  0  0  0
 17  7  1  6  0  0  0
 17  3  1  0  0  0  0
 18 12  1  0  0  0  0
 19 25  1  0  0  0  0
 20 19  1  0  0  0  0
 21 23  1  0  0  0  0
 22 20  2  0  0  0  0
 23 19  2  0  0  0  0
 24 21  2  0  0  0  0
 24 22  1  0  0  0  0
 26 27  2  0  0  0  0
 29 33  1  0  0  0  0
 29 26  1  1  0  0  0
 30 28  1  6  0  0  0
 30 29  1  0  0  0  0
 31 32  1  0  0  0  0
 32 33  1  0  0  0  0
 34 31  1  0  0  0  0
 34 30  1  0  0  0  0
M  END
>  <MODEL>
2

>  <REMARK>
 VINA RESULT:      -8.8      1.353      1.810
  Name = 
  3 active torsions:
  status: ('A' for Active; 'I' for Inactive)
    1  A    between atoms: C_3  and  C_13
    2  A    between atoms: C_12  and  C_28
    3  A    between atoms: C_17  and  C_29
                            x       y       z     vdW  Elec       q    Type
                         _______ _______ _______ _____ _____    ______ ____

>  <TORSDO>
F 3

$$$$
=
 OpenBabel11052418493D

 34 39  0  0  1  0  0  0  0  0999 V2000
  191.0130  173.9610  141.2280 C   0  0  2  0  0  3  0  0  0  0  0  0
  189.4780  172.4450  142.5710 C   0  0  0  0  0  0  0  0  0  0  0  0
  191.8120  172.8600  143.3690 C   0  0  1  0  0  3  0  0  0  0  0  0
  193.2630  174.8940  146.1630 C   0  0  0  0  0  2  0  0  0  0  0  0
  189.2550  172.4910  140.1280 C   0  0  0  0  0  2  0  0  0  0  0  0
  188.5040  172.3820  141.4420 C   0  0  0  0  0  2  0  0  0  0  0  0
  190.5450  174.5140  144.9850 C   0  0  0  0  0  2  0  0  0  0  0  0
  190.7230  173.1550  142.4240 N   0  0  0  0  0  0  0  0  0  0  0  0
  192.0870  175.7770  146.6080 C   0  0  0  0  0  2  0  0  0  0  0  0
  189.9890  173.8220  140.0920 C   0  0  0  0  0  2  0  0  0  0  0  0
  193.2500  173.0780  142.8000 C   0  0  2  0  0  3  0  0  0  0  0  0
  192.4120  173.6380  140.7500 C   0  0  0  0  0  2  0  0  0  0  0  0
  189.1950  171.8660  143.6530 O   0  0  0  0  0  0  0  0  0  0  0  0
  192.9880  174.4480  144.7370 C   0  0  1  0  0  3  0  0  0  0  0  0
  194.0430  173.6610  143.9740 C   0  0  1  0  0  3  0  0  0  0  0  0
  190.7210  175.0800  146.4070 C   0  0  1  0  0  3  0  0  0  0  0  0
  191.7380  173.6170  144.6910 C   0  0  2  0  0  3  0  0  0  0  0  0
  193.3020  174.0290  141.7570 O   0  0  0  0  0  0  0  0  0  0  0  0
  194.7680  170.4310  145.8890 C   0  0  0  0  0  0  0  0  0  0  0  0
  196.0710  170.6760  146.3300 C   0  0  0  0  0  3  0  0  0  0  0  0
  194.7320  172.5970  144.7890 C   0  0  0  0  0  0  0  0  0  0  0  0
  196.7060  171.8780  146.0040 C   0  0  0  0  0  3  0  0  0  0  0  0
  194.0990  171.3880  145.1210 C   0  0  0  0  0  3  0  0  0  0  0  0
  196.0360  172.8360  145.2360 C   0  0  0  0  0  3  0  0  0  0  0  0
  194.1530  169.2670  146.2060 F   0  0  0  0  0  0  0  0  0  0  0  0
  188.7550  176.4790  145.8400 C   0  0  0  0  0  3  0  0  0  0  0  0
  189.5930  175.9980  146.7630 C   0  0  0  0  0  3  0  0  0  0  0  0
  187.3390  178.2550  143.9860 O   0  0  0  0  0  1  0  0  0  0  0  0
  187.6360  177.3970  146.2170 C   0  0  1  0  0  3  0  0  0  0  0  0
  186.6770  177.6180  145.0360 C   0  0  1  0  0  3  0  0  0  0  0  0
  184.7580  177.8380  146.6380 C   0  0  0  0  0  2  0  0  0  0  0  0
  185.7160  177.6630  147.8110 C   0  0  0  0  0  2  0  0  0  0  0  0
  186.8880  176.7800  147.3980 C   0  0  0  0  0  2  0  0  0  0  0  0
  185.4890  178.4780  145.4630 C   0  0  0  0  0  2  0  0  0  0  0  0
  1 10  1  6  0  0  0
  1  8  1  0  0  0  0
  2 13  2  0  0  0  0
  3  8  1  6  0  0  0
  3 17  1  0  0  0  0
  4  9  1  0  0  0  0
  5  6  1  0  0  0  0
  6  2  1  0  0  0  0
  7 16  1  0  0  0  0
  8  2  1  0  0  0  0
 10  5  1  0  0  0  0
 11 18  1  6  0  0  0
 11  3  1  0  0  0  0
 11 15  1  0  0  0  0
 12  1  1  0  0  0  0
 12 18  1  0  0  0  0
 14  4  1  1  0  0  0
 15 14  1  0  0  0  0
 15 21  1  1  0  0  0
 16  9  1  0  0  0  0
 16 27  1  6  0  0  0
 17 14  1  0  0  0  0
 17  7  1  6  0  0  0
 19 25  1  0  0  0  0
 19 20  1  0  0  0  0
 21 23  1  0  0  0  0
 21 24  2  0  0  0  0
 22 20  2  0  0  0  0
 23 19  2  0  0  0  0
 24 22  1  0  0  0  0
 26 27  2  0  0  0  0
 29 26  1  6  0  0  0
 29 33  1  0  0  0  0
 30 28  1  6  0  0  0
 30 34  1  0  0  0  0
 30 29  1  0  0  0  0
 31 32  1  0  0  0  0
 33 32  1  0  0  0  0
 34 31  1  0  0  0  0
M  END
>  <MODEL>
3

>  <REMARK>
 VINA RESULT:      -8.4      3.304      8.399
  Name = 
  3 active torsions:
  status: ('A' for Active; 'I' for Inactive)
    1  A    between atoms: C_3  and  C_13
    2  A    between atoms: C_12  and  C_28
    3  A    between atoms: C_17  and  C_29
                            x       y       z     vdW  Elec       q    Type
                         _______ _______ _______ _____ _____    ______ ____

>  <TORSDO>
F 3

$$$$
=
 OpenBabel11052418493D

 34 39  0  0  1  0  0  0  0  0999 V2000
  192.4990  173.9490  145.1110 C   0  0  2  0  0  3  0  0  0  0  0  0
  192.6380  176.3140  144.1920 C   0  0  0  0  0  0  0  0  0  0  0  0
  191.8650  174.4550  142.7080 C   0  0  1  0  0  3  0  0  0  0  0  0
  188.5180  173.4620  141.3420 C   0  0  0  0  0  2  0  0  0  0  0  0
  194.2670  175.6040  145.8830 C   0  0  0  0  0  2  0  0  0  0  0  0
  193.4250  176.7600  145.3790 C   0  0  0  0  0  2  0  0  0  0  0  0
  189.5130  175.4980  143.2870 C   0  0  0  0  0  2  0  0  0  0  0  0
  192.2600  174.9320  144.0430 N   0  0  0  0  0  0  0  0  0  0  0  0
  187.5330  174.2950  142.1760 C   0  0  0  0  0  2  0  0  0  0  0  0
  193.3440  174.4640  146.2840 C   0  0  0  0  0  2  0  0  0  0  0  0
  192.1400  172.9410  142.4440 C   0  0  2  0  0  3  0  0  0  0  0  0
  193.1060  172.7050  144.5010 C   0  0  0  0  0  2  0  0  0  0  0  0
  192.3110  177.1650  143.3220 O   0  0  0  0  0  0  0  0  0  0  0  0
  189.8090  173.3490  142.1350 C   0  0  1  0  0  3  0  0  0  0  0  0
  190.9380  172.4690  141.6200 C   0  0  1  0  0  3  0  0  0  0  0  0
  188.1340  175.6490  142.6170 C   0  0  1  0  0  3  0  0  0  0  0  0
  190.4060  174.7120  142.3400 C   0  0  2  0  0  3  0  0  0  0  0  0
  192.1600  172.1620  143.6230 O   0  0  0  0  0  0  0  0  0  0  0  0
  192.0490  173.7360  138.1870 C   0  0  0  0  0  0  0  0  0  0  0  0
  191.5680  172.7160  137.3640 C   0  0  0  0  0  3  0  0  0  0  0  0
  191.1790  172.5760  140.1370 C   0  0  0  0  0  0  0  0  0  0  0  0
  190.8930  171.6260  137.9220 C   0  0  0  0  0  3  0  0  0  0  0  0
  191.8560  173.6690  139.5690 C   0  0  0  0  0  3  0  0  0  0  0  0
  190.6980  171.5590  139.3050 C   0  0  0  0  0  3  0  0  0  0  0  0
  192.7020  174.7920  137.6460 F   0  0  0  0  0  0  0  0  0  0  0  0
  187.4740  177.6080  143.9850 C   0  0  0  0  0  3  0  0  0  0  0  0
  187.1860  176.3960  143.5030 C   0  0  0  0  0  3  0  0  0  0  0  0
  185.0270  178.9420  143.0750 O   0  0  0  0  0  1  0  0  0  0  0  0
  186.5130  178.3340  144.8710 C   0  0  1  0  0  3  0  0  0  0  0  0
  185.0850  178.2810  144.3020 C   0  0  1  0  0  3  0  0  0  0  0  0
  184.1590  178.2770  146.6340 C   0  0  0  0  0  2  0  0  0  0  0  0
  185.5720  178.3740  147.1970 C   0  0  0  0  0  2  0  0  0  0  0  0
  186.5550  177.6890  146.2550 C   0  0  0  0  0  2  0  0  0  0  0  0
  184.0990  178.9430  145.2640 C   0  0  0  0  0  2  0  0  0  0  0  0
  1 12  1  6  0  0  0
  1 10  1  0  0  0  0
  2  6  1  0  0  0  0
  3  8  1  1  0  0  0
  4  9  1  0  0  0  0
  5 10  1  0  0  0  0
  6  5  1  0  0  0  0
  8  2  1  0  0  0  0
  8  1  1  0  0  0  0
  9 16  1  0  0  0  0
 11  3  1  0  0  0  0
 11 18  1  1  0  0  0
 13  2  2  0  0  0  0
 14  4  1  6  0  0  0
 14 17  1  0  0  0  0
 15 21  1  6  0  0  0
 15 14  1  0  0  0  0
 15 11  1  0  0  0  0
 16  7  1  0  0  0  0
 16 27  1  1  0  0  0
 17  3  1  0  0  0  0
 17  7  1  1  0  0  0
 18 12  1  0  0  0  0
 19 23  1  0  0  0  0
 20 22  1  0  0  0  0
 20 19  2  0  0  0  0
 22 24  2  0  0  0  0
 23 21  2  0  0  0  0
 24 21  1  0  0  0  0
 25 19  1  0  0  0  0
 27 26  2  0  0  0  0
 29 26  1  6  0  0  0
 29 33  1  0  0  0  0
 30 28  1  6  0  0  0
 30 29  1  0  0  0  0
 30 34  1  0  0  0  0
 31 32  1  0  0  0  0
 33 32  1  0  0  0  0
 34 31  1  0  0  0  0
M  END
>  <MODEL>
4

>  <REMARK>
 VINA RESULT:      -8.3      2.757      7.703
  Name = 
  3 active torsions:
  status: ('A' for Active; 'I' for Inactive)
    1  A    between atoms: C_3  and  C_13
    2  A    between atoms: C_12  and  C_28
    3  A    between atoms: C_17  and  C_29
                            x       y       z     vdW  Elec       q    Type
                         _______ _______ _______ _____ _____    ______ ____

>  <TORSDO>
F 3

$$$$
=
 OpenBabel11052418493D

 34 39  0  0  1  0  0  0  0  0999 V2000
  192.2550  176.8510  144.2940 C   0  0  2  0  0  3  0  0  0  0  0  0
  191.4180  175.4750  146.2590 C   0  0  0  0  0  0  0  0  0  0  0  0
  189.7730  176.4990  144.6770 C   0  0  1  0  0  3  0  0  0  0  0  0
  187.5770  175.1100  141.9760 C   0  0  0  0  0  2  0  0  0  0  0  0
  193.4710  176.7910  146.5250 C   0  0  0  0  0  2  0  0  0  0  0  0
  192.7710  175.4940  146.8870 C   0  0  0  0  0  2  0  0  0  0  0  0
  189.7250  174.0320  143.7470 C   0  0  0  0  0  2  0  0  0  0  0  0
  191.1670  176.1980  145.0380 N   0  0  0  0  0  0  0  0  0  0  0  0
  188.1310  173.6940  141.7610 C   0  0  0  0  0  2  0  0  0  0  0  0
  193.6110  176.8660  145.0130 C   0  0  0  0  0  2  0  0  0  0  0  0
  189.5810  177.7910  143.8210 C   0  0  2  0  0  3  0  0  0  0  0  0
  191.8180  178.2490  143.9170 C   0  0  0  0  0  2  0  0  0  0  0  0
  190.4970  174.8170  146.8130 O   0  0  0  0  0  0  0  0  0  0  0  0
  188.6780  175.9420  142.6110 C   0  0  1  0  0  3  0  0  0  0  0  0
  188.4700  177.4330  142.8290 C   0  0  1  0  0  3  0  0  0  0  0  0
  188.7200  173.0910  143.0570 C   0  0  1  0  0  3  0  0  0  0  0  0
  189.0390  175.3740  143.9540 C   0  0  2  0  0  3  0  0  0  0  0  0
  190.7200  178.1290  143.0560 O   0  0  0  0  0  0  0  0  0  0  0  0
  184.7000  178.0370  143.0530 C   0  0  0  0  0  0  0  0  0  0  0  0
  184.5910  178.5240  144.3570 C   0  0  0  0  0  3  0  0  0  0  0  0
  187.1010  177.7990  143.3410 C   0  0  0  0  0  0  0  0  0  0  0  0
  185.7310  178.6500  145.1550 C   0  0  0  0  0  3  0  0  0  0  0  0
  185.9510  177.6760  142.5440 C   0  0  0  0  0  3  0  0  0  0  0  0
  186.9840  178.2900  144.6460 C   0  0  0  0  0  3  0  0  0  0  0  0
  183.5950  177.9160  142.2790 F   0  0  0  0  0  0  0  0  0  0  0  0
  190.2180  171.5570  141.8140 C   0  0  0  0  0  3  0  0  0  0  0  0
  189.3330  171.7500  142.7960 C   0  0  0  0  0  3  0  0  0  0  0  0
  190.3440  170.2210  139.2080 O   0  0  0  0  0  1  0  0  0  0  0  0
  190.8160  170.2080  141.5700 C   0  0  1  0  0  3  0  0  0  0  0  0
  191.3740  170.0990  140.1410 C   0  0  1  0  0  3  0  0  0  0  0  0
  193.1750  168.5580  140.9640 C   0  0  0  0  0  2  0  0  0  0  0  0
  192.5960  168.6300  142.3730 C   0  0  0  0  0  2  0  0  0  0  0  0
  191.9300  169.9840  142.5910 C   0  0  0  0  0  2  0  0  0  0  0  0
  192.0660  168.7520  139.9360 C   0  0  0  0  0  2  0  0  0  0  0  0
  1 12  1  1  0  0  0
  1 10  1  0  0  0  0
  1  8  1  0  0  0  0
  2 13  2  0  0  0  0
  2  6  1  0  0  0  0
  3  8  1  6  0  0  0
  5  6  1  0  0  0  0
  8  2  1  0  0  0  0
  9  4  1  0  0  0  0
  9 16  1  0  0  0  0
 10  5  1  0  0  0  0
 11 18  1  6  0  0  0
 11  3  1  0  0  0  0
 14  4  1  1  0  0  0
 14 15  1  0  0  0  0
 14 17  1  0  0  0  0
 15 21  1  1  0  0  0
 15 11  1  0  0  0  0
 16 27  1  6  0  0  0
 16  7  1  0  0  0  0
 17  7  1  6  0  0  0
 17  3  1  0  0  0  0
 18 12  1  0  0  0  0
 19 20  1  0  0  0  0
 20 22  2  0  0  0  0
 21 24  2  0  0  0  0
 23 19  2  0  0  0  0
 23 21  1  0  0  0  0
 24 22  1  0  0  0  0
 25 19  1  0  0  0  0
 26 27  2  0  0  0  0
 29 26  1  1  0  0  0
 29 33  1  0  0  0  0
 30 28  1  6  0  0  0
 30 29  1  0  0  0  0
 31 32  1  0  0  0  0
 32 33  1  0  0  0  0
 34 30  1  0  0  0  0
 34 31  1  0  0  0  0
M  END
>  <MODEL>
5

>  <REMARK>
 VINA RESULT:      -8.2      2.437      3.245
  Name = 
  3 active torsions:
  status: ('A' for Active; 'I' for Inactive)
    1  A    between atoms: C_3  and  C_13
    2  A    between atoms: C_12  and  C_28
    3  A    between atoms: C_17  and  C_29
                            x       y       z     vdW  Elec       q    Type
                         _______ _______ _______ _____ _____    ______ ____

>  <TORSDO>
F 3

$$$$
=
 OpenBabel11052418493D

 34 39  0  0  1  0  0  0  0  0999 V2000
  192.9170  173.7230  144.6710 C   0  0  2  0  0  3  0  0  0  0  0  0
  192.8790  176.2530  144.4350 C   0  0  0  0  0  0  0  0  0  0  0  0
  192.3950  174.8170  142.4440 C   0  0  1  0  0  3  0  0  0  0  0  0
  189.2630  173.9780  140.5640 C   0  0  0  0  0  2  0  0  0  0  0  0
  194.4550  175.2350  146.0160 C   0  0  0  0  0  2  0  0  0  0  0  0
  193.5360  176.4160  145.7640 C   0  0  0  0  0  2  0  0  0  0  0  0
  189.9180  175.4730  143.0650 C   0  0  0  0  0  2  0  0  0  0  0  0
  192.6520  174.9390  143.8880 N   0  0  0  0  0  0  0  0  0  0  0  0
  188.1460  174.4690  141.4980 C   0  0  0  0  0  2  0  0  0  0  0  0
  193.6270  173.9610  146.0120 C   0  0  0  0  0  2  0  0  0  0  0  0
  192.8380  173.4600  141.8110 C   0  0  2  0  0  3  0  0  0  0  0  0
  193.6850  172.7450  143.8090 C   0  0  0  0  0  2  0  0  0  0  0  0
  192.5260  177.2810  143.7980 O   0  0  0  0  0  0  0  0  0  0  0  0
  190.5030  173.7530  141.4120 C   0  0  1  0  0  3  0  0  0  0  0  0
  191.7470  173.1400  140.7860 C   0  0  1  0  0  3  0  0  0  0  0  0
  188.5780  175.6930  142.3370 C   0  0  1  0  0  3  0  0  0  0  0  0
  190.9460  175.0490  142.0270 C   0  0  2  0  0  3  0  0  0  0  0  0
  192.8590  172.3920  142.7350 O   0  0  0  0  0  0  0  0  0  0  0  0
  193.5270  174.8450  137.8610 C   0  0  0  0  0  0  0  0  0  0  0  0
  192.5990  174.6440  136.8370 C   0  0  0  0  0  3  0  0  0  0  0  0
  192.0730  173.6690  139.4130 C   0  0  0  0  0  0  0  0  0  0  0  0
  191.4090  173.9570  137.0960 C   0  0  0  0  0  3  0  0  0  0  0  0
  193.2660  174.3610  139.1460 C   0  0  0  0  0  3  0  0  0  0  0  0
  191.1480  173.4720  138.3820 C   0  0  0  0  0  3  0  0  0  0  0  0
  194.6790  175.5120  137.6100 F   0  0  0  0  0  0  0  0  0  0  0  0
  187.7690  176.7920  144.4060 C   0  0  0  0  0  3  0  0  0  0  0  0
  187.5030  176.0900  143.3010 C   0  0  0  0  0  3  0  0  0  0  0  0
  187.6030  175.9410  147.2070 O   0  0  0  0  0  1  0  0  0  0  0  0
  186.6790  177.1760  145.3560 C   0  0  1  0  0  3  0  0  0  0  0  0
  187.1940  177.2130  146.8040 C   0  0  1  0  0  3  0  0  0  0  0  0
  185.5910  179.0720  147.3250 C   0  0  0  0  0  2  0  0  0  0  0  0
  185.0500  179.0060  145.9010 C   0  0  0  0  0  2  0  0  0  0  0  0
  186.1490  178.5500  144.9480 C   0  0  0  0  0  2  0  0  0  0  0  0
  186.0980  177.6990  147.7510 C   0  0  0  0  0  2  0  0  0  0  0  0
  1 12  1  6  0  0  0
  1 10  1  0  0  0  0
  2  6  1  0  0  0  0
  3  8  1  1  0  0  0
  4  9  1  0  0  0  0
  6  5  1  0  0  0  0
  8  2  1  0  0  0  0
  8  1  1  0  0  0  0
  9 16  1  0  0  0  0
 10  5  1  0  0  0  0
 11  3  1  0  0  0  0
 11 18  1  1  0  0  0
 13  2  2  0  0  0  0
 14  4  1  6  0  0  0
 14 17  1  0  0  0  0
 15 21  1  6  0  0  0
 15 14  1  0  0  0  0
 15 11  1  0  0  0  0
 16  7  1  0  0  0  0
 16 27  1  1  0  0  0
 17  3  1  0  0  0  0
 17  7  1  1  0  0  0
 18 12  1  0  0  0  0
 19 23  1  0  0  0  0
 20 22  1  0  0  0  0
 20 19  2  0  0  0  0
 22 24  2  0  0  0  0
 23 21  2  0  0  0  0
 24 21  1  0  0  0  0
 25 19  1  0  0  0  0
 27 26  2  0  0  0  0
 29 26  1  6  0  0  0
 29 30  1  0  0  0  0
 30 28  1  1  0  0  0
 30 34  1  0  0  0  0
 31 34  1  0  0  0  0
 32 31  1  0  0  0  0
 33 29  1  0  0  0  0
 33 32  1  0  0  0  0
M  END
>  <MODEL>
6

>  <REMARK>
 VINA RESULT:      -7.9      3.027      7.855
  Name = 
  3 active torsions:
  status: ('A' for Active; 'I' for Inactive)
    1  A    between atoms: C_3  and  C_13
    2  A    between atoms: C_12  and  C_28
    3  A    between atoms: C_17  and  C_29
                            x       y       z     vdW  Elec       q    Type
                         _______ _______ _______ _____ _____    ______ ____

>  <TORSDO>
F 3

$$$$
=
 OpenBabel11052418493D

 34 39  0  0  1  0  0  0  0  0999 V2000
  186.0200  176.9040  144.3450 C   0  0  2  0  0  3  0  0  0  0  0  0
  187.3350  177.9560  142.4420 C   0  0  0  0  0  0  0  0  0  0  0  0
  188.5540  176.8280  144.3120 C   0  0  1  0  0  3  0  0  0  0  0  0
  190.3950  173.5760  144.6080 C   0  0  0  0  0  2  0  0  0  0  0  0
  185.2220  178.9920  143.1340 C   0  0  0  0  0  2  0  0  0  0  0  0
  186.1170  178.6660  141.9530 C   0  0  0  0  0  2  0  0  0  0  0  0
  188.7220  174.9020  142.5200 C   0  0  0  0  0  2  0  0  0  0  0  0
  187.2870  177.1630  143.6440 N   0  0  0  0  0  0  0  0  0  0  0  0
  189.9780  172.8160  143.3400 C   0  0  0  0  0  2  0  0  0  0  0  0
  184.8160  177.6940  143.8130 C   0  0  0  0  0  2  0  0  0  0  0  0
  188.4470  176.6180  145.8560 C   0  0  2  0  0  3  0  0  0  0  0  0
  186.2230  177.1430  145.8250 C   0  0  0  0  0  2  0  0  0  0  0  0
  188.4060  178.0600  141.7870 O   0  0  0  0  0  0  0  0  0  0  0  0
  189.3320  174.6270  144.8830 C   0  0  1  0  0  3  0  0  0  0  0  0
  189.4040  175.4600  146.1540 C   0  0  1  0  0  3  0  0  0  0  0  0
  189.6930  173.7640  142.1530 C   0  0  1  0  0  3  0  0  0  0  0  0
  189.2760  175.6080  143.7470 C   0  0  2  0  0  3  0  0  0  0  0  0
  187.1620  176.2080  146.2770 O   0  0  0  0  0  0  0  0  0  0  0  0
  193.1080  176.3870  145.9360 C   0  0  0  0  0  0  0  0  0  0  0  0
  193.3490  176.8070  147.2460 C   0  0  0  0  0  3  0  0  0  0  0  0
  190.7900  175.9340  146.5070 C   0  0  0  0  0  0  0  0  0  0  0  0
  192.3160  176.7910  148.1880 C   0  0  0  0  0  3  0  0  0  0  0  0
  191.8330  175.9510  145.5660 C   0  0  0  0  0  3  0  0  0  0  0  0
  191.0400  176.3540  147.8180 C   0  0  0  0  0  3  0  0  0  0  0  0
  194.1090  176.4020  145.0240 F   0  0  0  0  0  0  0  0  0  0  0  0
  189.9910  172.7340  139.9180 C   0  0  0  0  0  3  0  0  0  0  0  0
  189.2010  173.0020  140.9610 C   0  0  0  0  0  3  0  0  0  0  0  0
  189.0730  173.9410  137.4100 O   0  0  0  0  0  1  0  0  0  0  0  0
  189.4780  171.9730  138.7370 C   0  0  1  0  0  3  0  0  0  0  0  0
  189.7590  172.7270  137.4270 C   0  0  1  0  0  3  0  0  0  0  0  0
  190.0130  170.5390  136.2250 C   0  0  0  0  0  2  0  0  0  0  0  0
  189.6910  169.7920  137.5150 C   0  0  0  0  0  2  0  0  0  0  0  0
  190.1580  170.6050  138.7160 C   0  0  0  0  0  2  0  0  0  0  0  0
  189.3170  171.8950  136.2240 C   0  0  0  0  0  2  0  0  0  0  0  0
  1 10  1  6  0  0  0
  1 12  1  0  0  0  0
  2  8  1  0  0  0  0
  3  8  1  6  0  0  0
  3 11  1  0  0  0  0
  5 10  1  0  0  0  0
  6  2  1  0  0  0  0
  6  5  1  0  0  0  0
  8  1  1  0  0  0  0
  9  4  1  0  0  0  0
 11 15  1  0  0  0  0
 11 18  1  6  0  0  0
 12 18  1  0  0  0  0
 13  2  2  0  0  0  0
 14  4  1  6  0  0  0
 14 15  1  0  0  0  0
 15 21  1  6  0  0  0
 16 27  1  6  0  0  0
 16  7  1  0  0  0  0
 16  9  1  0  0  0  0
 17  7  1  6  0  0  0
 17  3  1  0  0  0  0
 17 14  1  0  0  0  0
 19 20  1  0  0  0  0
 20 22  2  0  0  0  0
 21 24  2  0  0  0  0
 23 19  2  0  0  0  0
 23 21  1  0  0  0  0
 24 22  1  0  0  0  0
 25 19  1  0  0  0  0
 26 27  2  0  0  0  0
 29 26  1  1  0  0  0
 30 28  1  1  0  0  0
 30 29  1  0  0  0  0
 31 32  1  0  0  0  0
 32 33  1  0  0  0  0
 33 29  1  0  0  0  0
 34 31  1  0  0  0  0
 34 30  1  0  0  0  0
M  END
>  <MODEL>
7

>  <REMARK>
 VINA RESULT:      -7.9      2.685      5.295
  Name = 
  3 active torsions:
  status: ('A' for Active; 'I' for Inactive)
    1  A    between atoms: C_3  and  C_13
    2  A    between atoms: C_12  and  C_28
    3  A    between atoms: C_17  and  C_29
                            x       y       z     vdW  Elec       q    Type
                         _______ _______ _______ _____ _____    ______ ____

>  <TORSDO>
F 3

$$$$
=
 OpenBabel11052418493D

 34 39  0  0  1  0  0  0  0  0999 V2000
  192.8310  173.8220  144.9730 C   0  0  2  0  0  3  0  0  0  0  0  0
  193.4440  175.8010  143.5020 C   0  0  0  0  0  0  0  0  0  0  0  0
  192.2330  173.8510  142.5090 C   0  0  1  0  0  3  0  0  0  0  0  0
  188.7040  173.3090  141.3690 C   0  0  0  0  0  2  0  0  0  0  0  0
  194.9410  175.1880  145.3460 C   0  0  0  0  0  2  0  0  0  0  0  0
  194.3510  176.3420  144.5570 C   0  0  0  0  0  2  0  0  0  0  0  0
  190.1850  175.4910  142.7700 C   0  0  0  0  0  2  0  0  0  0  0  0
  192.7700  174.5410  143.6920 N   0  0  0  0  0  0  0  0  0  0  0  0
  187.9520  174.5140  141.9540 C   0  0  0  0  0  2  0  0  0  0  0  0
  193.8090  174.4110  145.9990 C   0  0  0  0  0  2  0  0  0  0  0  0
  192.1660  172.2960  142.6310 C   0  0  2  0  0  3  0  0  0  0  0  0
  193.1320  172.3650  144.7010 C   0  0  0  0  0  2  0  0  0  0  0  0
  193.2760  176.4630  142.4440 O   0  0  0  0  0  0  0  0  0  0  0  0
  189.9680  173.1140  142.1890 C   0  0  1  0  0  3  0  0  0  0  0  0
  190.8610  171.9110  141.9270 C   0  0  1  0  0  3  0  0  0  0  0  0
  188.8480  175.7710  142.0580 C   0  0  1  0  0  3  0  0  0  0  0  0
  190.8520  174.3220  142.0620 C   0  0  2  0  0  3  0  0  0  0  0  0
  192.0600  171.8440  143.9660 O   0  0  0  0  0  0  0  0  0  0  0  0
  190.3460  170.6000  138.3710 C   0  0  0  0  0  0  0  0  0  0  0  0
  191.5270  171.0290  137.7610 C   0  0  0  0  0  3  0  0  0  0  0  0
  191.0650  171.5970  140.4680 C   0  0  0  0  0  0  0  0  0  0  0  0
  192.4780  171.7400  138.5000 C   0  0  0  0  0  3  0  0  0  0  0  0
  190.1150  170.8820  139.7200 C   0  0  0  0  0  3  0  0  0  0  0  0
  192.2470  172.0210  139.8500 C   0  0  0  0  0  3  0  0  0  0  0  0
  189.4260  169.9110  137.6560 F   0  0  0  0  0  0  0  0  0  0  0  0
  186.8350  176.7940  143.0790 C   0  0  0  0  0  3  0  0  0  0  0  0
  188.1160  176.9000  142.7160 C   0  0  0  0  0  3  0  0  0  0  0  0
  184.4130  178.0800  142.0410 O   0  0  0  0  0  1  0  0  0  0  0  0
  186.1220  177.9360  143.7320 C   0  0  1  0  0  3  0  0  0  0  0  0
  184.6190  177.9090  143.4100 C   0  0  1  0  0  3  0  0  0  0  0  0
  184.1210  178.8970  145.6620 C   0  0  0  0  0  2  0  0  0  0  0  0
  185.6130  178.9650  145.9640 C   0  0  0  0  0  2  0  0  0  0  0  0
  186.3410  177.8380  145.2410 C   0  0  0  0  0  2  0  0  0  0  0  0
  183.8890  179.0220  144.1600 C   0  0  0  0  0  2  0  0  0  0  0  0
  1 12  1  6  0  0  0
  1 10  1  0  0  0  0
  2  8  1  0  0  0  0
  2  6  1  0  0  0  0
  3 11  1  0  0  0  0
  3  8  1  1  0  0  0
  4  9  1  0  0  0  0
  5 10  1  0  0  0  0
  6  5  1  0  0  0  0
  8  1  1  0  0  0  0
  9 16  1  0  0  0  0
 11 18  1  1  0  0  0
 13  2  2  0  0  0  0
 14  4  1  6  0  0  0
 15 21  1  6  0  0  0
 15 14  1  0  0  0  0
 15 11  1  0  0  0  0
 16 27  1  1  0  0  0
 16  7  1  0  0  0  0
 17 14  1  0  0  0  0
 17  3  1  0  0  0  0
 17  7  1  1  0  0  0
 18 12  1  0  0  0  0
 19 23  1  0  0  0  0
 20 19  2  0  0  0  0
 20 22  1  0  0  0  0
 22 24  2  0  0  0  0
 23 21  2  0  0  0  0
 24 21  1  0  0  0  0
 25 19  1  0  0  0  0
 27 26  2  0  0  0  0
 29 26  1  6  0  0  0
 29 33  1  0  0  0  0
 30 28  1  6  0  0  0
 30 29  1  0  0  0  0
 30 34  1  0  0  0  0
 31 32  1  0  0  0  0
 33 32  1  0  0  0  0
 34 31  1  0  0  0  0
M  END
>  <MODEL>
8

>  <REMARK>
 VINA RESULT:      -7.9      3.043      7.674
  Name = 
  3 active torsions:
  status: ('A' for Active; 'I' for Inactive)
    1  A    between atoms: C_3  and  C_13
    2  A    between atoms: C_12  and  C_28
    3  A    between atoms: C_17  and  C_29
                            x       y       z     vdW  Elec       q    Type
                         _______ _______ _______ _____ _____    ______ ____

>  <TORSDO>
F 3

$$$$
=
 OpenBabel11052418493D

 34 39  0  0  1  0  0  0  0  0999 V2000
  187.2060  176.4630  144.6480 C   0  0  2  0  0  3  0  0  0  0  0  0
  188.2970  177.8320  142.8060 C   0  0  0  0  0  0  0  0  0  0  0  0
  189.7100  176.3640  144.2560 C   0  0  1  0  0  3  0  0  0  0  0  0
  191.4510  173.0910  143.7020 C   0  0  0  0  0  2  0  0  0  0  0  0
  186.3340  178.7490  143.9570 C   0  0  0  0  0  2  0  0  0  0  0  0
  187.0530  178.6360  142.6250 C   0  0  0  0  0  2  0  0  0  0  0  0
  189.5670  174.8000  142.1380 C   0  0  0  0  0  2  0  0  0  0  0  0
  188.3790  176.8320  143.8390 N   0  0  0  0  0  0  0  0  0  0  0  0
  190.8420  172.5830  142.3860 C   0  0  0  0  0  2  0  0  0  0  0  0
  185.9720  177.3530  144.4380 C   0  0  0  0  0  2  0  0  0  0  0  0
  189.7990  175.8730  145.7360 C   0  0  2  0  0  3  0  0  0  0  0  0
  187.6120  176.4210  146.1050 C   0  0  0  0  0  2  0  0  0  0  0  0
  189.2760  178.0430  142.0410 O   0  0  0  0  0  0  0  0  0  0  0  0
  190.4740  174.0850  144.3050 C   0  0  1  0  0  3  0  0  0  0  0  0
  190.7430  174.6680  145.6850 C   0  0  1  0  0  3  0  0  0  0  0  0
  190.4390  173.7380  141.4410 C   0  0  1  0  0  3  0  0  0  0  0  0
  190.3040  175.2600  143.3860 C   0  0  2  0  0  3  0  0  0  0  0  0
  188.5670  175.4070  146.2460 O   0  0  0  0  0  0  0  0  0  0  0  0
  193.8820  176.6100  146.6850 C   0  0  0  0  0  0  0  0  0  0  0  0
  194.8780  175.7020  146.3210 C   0  0  0  0  0  3  0  0  0  0  0  0
  192.1800  175.0510  145.9260 C   0  0  0  0  0  0  0  0  0  0  0  0
  194.5310  174.4710  145.7580 C   0  0  0  0  0  3  0  0  0  0  0  0
  192.5360  176.2880  146.4890 C   0  0  0  0  0  3  0  0  0  0  0  0
  193.1840  174.1470  145.5610 C   0  0  0  0  0  3  0  0  0  0  0  0
  194.2190  177.8040  147.2290 F   0  0  0  0  0  0  0  0  0  0  0  0
  190.4540  172.9010  139.1080 C   0  0  0  0  0  3  0  0  0  0  0  0
  189.7660  173.2150  140.2090 C   0  0  0  0  0  3  0  0  0  0  0  0
  189.2900  174.5710  136.9980 O   0  0  0  0  0  1  0  0  0  0  0  0
  189.7610  172.3830  137.8880 C   0  0  1  0  0  3  0  0  0  0  0  0
  189.9130  173.3570  136.7080 C   0  0  1  0  0  3  0  0  0  0  0  0
  189.9070  171.4200  135.1120 C   0  0  0  0  0  2  0  0  0  0  0  0
  189.7120  170.4580  136.2790 C   0  0  0  0  0  2  0  0  0  0  0  0
  190.3640  171.0250  137.5340 C   0  0  0  0  0  2  0  0  0  0  0  0
  189.2840  172.7710  135.4450 C   0  0  0  0  0  2  0  0  0  0  0  0
  1 10  1  1  0  0  0
  1 12  1  0  0  0  0
  2  8  1  0  0  0  0
  3  8  1  6  0  0  0
  3 11  1  0  0  0  0
  5 10  1  0  0  0  0
  6  2  1  0  0  0  0
  6  5  1  0  0  0  0
  8  1  1  0  0  0  0
  9  4  1  0  0  0  0
 11 18  1  6  0  0  0
 12 18  1  0  0  0  0
 13  2  2  0  0  0  0
 14  4  1  6  0  0  0
 14 15  1  0  0  0  0
 15 11  1  0  0  0  0
 15 21  1  6  0  0  0
 16 27  1  6  0  0  0
 16  7  1  0  0  0  0
 16  9  1  0  0  0  0
 17  7  1  6  0  0  0
 17  3  1  0  0  0  0
 17 14  1  0  0  0  0
 19 25  1  0  0  0  0
 20 19  2  0  0  0  0
 21 23  2  0  0  0  0
 22 20  1  0  0  0  0
 23 19  1  0  0  0  0
 24 22  2  0  0  0  0
 24 21  1  0  0  0  0
 26 27  2  0  0  0  0
 29 26  1  1  0  0  0
 30 28  1  1  0  0  0
 30 29  1  0  0  0  0
 31 34  1  0  0  0  0
 31 32  1  0  0  0  0
 32 33  1  0  0  0  0
 33 29  1  0  0  0  0
 34 30  1  0  0  0  0
M  END
>  <MODEL>
9

>  <REMARK>
 VINA RESULT:      -7.7      2.537      5.392
  Name = 
  3 active torsions:
  status: ('A' for Active; 'I' for Inactive)
    1  A    between atoms: C_3  and  C_13
    2  A    between atoms: C_12  and  C_28
    3  A    between atoms: C_17  and  C_29
                            x       y       z     vdW  Elec       q    Type
                         _______ _______ _______ _____ _____    ______ ____

>  <TORSDO>
F 3

$$$$
