=
 OpenBabel11052420473D

 43 50  0  0  1  0  0  0  0  0999 V2000
  184.0990  178.7050  143.9990 C   0  0  0  0  0  0  0  0  0  0  0  0
  188.3920  176.7170  145.7690 C   0  0  0  0  0  0  0  0  0  0  0  0
  189.3600  174.9710  143.7670 C   0  0  0  0  0  0  0  0  0  0  0  0
  186.0060  178.1390  145.3810 C   0  0  0  0  0  0  0  0  0  0  0  0
  184.5650  177.8470  142.9970 C   0  0  0  0  0  3  0  0  0  0  0  0
  182.9480  179.3940  143.8180 F   0  0  0  0  0  0  0  0  0  0  0  0
  186.4810  177.2710  144.3700 C   0  0  0  0  0  0  0  0  0  0  0  0
  184.8180  178.8500  145.1890 C   0  0  0  0  0  3  0  0  0  0  0  0
  185.7520  177.1330  143.1810 C   0  0  0  0  0  3  0  0  0  0  0  0
  188.1690  175.6910  143.5910 O   0  0  0  0  0  0  0  0  0  0  0  0
  187.6740  176.5620  144.5710 C   0  0  0  0  0  0  0  0  0  0  0  0
  187.9100  177.5790  146.7650 C   0  0  0  0  0  3  0  0  0  0  0  0
  189.6140  175.9770  145.9410 N   0  0  0  0  0  0  0  0  0  0  0  0
  190.0630  175.1020  144.8980 C   0  0  0  0  0  3  0  0  0  0  0  0
  186.7220  178.2870  146.5700 C   0  0  0  0  0  3  0  0  0  0  0  0
  189.8300  174.0750  142.7010 C   0  0  0  0  0  0  0  0  0  0  0  0
  190.8240  174.5170  141.7740 N   0  0  0  0  0  2  0  0  0  0  0  0
  189.3450  172.9160  142.6040 O   0  0  0  0  0  0  0  0  0  0  0  0
  192.6900  174.1650  140.2470 C   0  0  1  0  0  3  0  0  0  0  0  0
  193.7690  173.9190  141.2780 C   0  0  2  0  0  0  0  0  0  0  0  0
  192.6020  172.9600  141.1850 C   0  0  1  0  0  3  0  0  0  0  0  0
  193.7590  174.8320  142.4980 C   0  0  0  0  0  1  0  0  0  0  0  0
  191.3370  173.6580  140.7170 C   0  0  1  0  0  3  0  0  0  0  0  0
  195.0880  173.3670  140.7400 C   0  0  1  0  0  3  0  0  0  0  0  0
  195.6230  174.2190  139.6320 C   0  0  0  0  0  3  0  0  0  0  0  0
  196.7920  174.1320  139.2890 O   0  0  0  0  0  0  0  0  0  0  0  0
  196.0320  173.2960  141.7720 O   0  0  0  0  0  0  0  0  0  0  0  0
  196.9960  171.7540  143.1650 C   0  0  0  0  0  0  0  0  0  0  0  0
  194.8020  171.2670  144.3080 C   0  0  0  0  0  3  0  0  0  0  0  0
  197.1310  171.2630  145.3890 C   0  0  0  0  0  3  0  0  0  0  0  0
  195.6760  171.0990  145.4400 C   0  0  0  0  0  3  0  0  0  0  0  0
  197.8670  171.6110  144.2020 C   0  0  0  0  0  3  0  0  0  0  0  0
  195.5460  171.5900  143.2140 C   0  0  0  0  0  0  0  0  0  0  0  0
  196.2010  171.9310  142.0200 C   0  0  1  0  0  3  0  0  0  0  0  0
  190.4540  176.1530  147.1200 C   0  0  0  0  0  2  0  0  0  0  0  0
  194.1780  176.4150  146.4590 C   0  0  0  0  0  3  0  0  0  0  0  0
  194.4940  175.0910  146.1360 C   0  0  0  0  0  0  0  0  0  0  0  0
  192.1770  174.4570  146.4740 C   0  0  0  0  0  3  0  0  0  0  0  0
  192.8660  176.7580  146.7960 C   0  0  0  0  0  3  0  0  0  0  0  0
  191.8650  175.7780  146.8090 C   0  0  0  0  0  0  0  0  0  0  0  0
  193.4900  174.1130  146.1400 C   0  0  0  0  0  3  0  0  0  0  0  0
  196.3160  175.5070  144.5270 C   0  0  0  0  0  1  0  0  0  0  0  0
  195.8890  174.7290  145.7590 C   0  0  0  0  0  2  0  0  0  0  0  0
  1  8  1  0  0  0  0
  2 13  1  0  0  0  0
  2 12  1  0  0  0  0
  3 14  2  0  0  0  0
  4 15  1  0  0  0  0
  5  9  1  0  0  0  0
  5  1  2  0  0  0  0
  6  1  1  0  0  0  0
  7 11  1  0  0  0  0
  7  4  1  0  0  0  0
  8  4  2  0  0  0  0
  9  7  2  0  0  0  0
 10  3  1  0  0  0  0
 10 11  1  0  0  0  0
 11  2  2  0  0  0  0
 13 35  1  0  0  0  0
 14 13  1  0  0  0  0
 15 12  2  0  0  0  0
 16  3  1  0  0  0  0
 17 16  1  0  0  0  0
 18 16  2  0  0  0  0
 19 23  1  0  0  0  0
 19 21  1  0  0  0  0
 19 20  1  0  0  0  0
 20 22  1  0  0  0  0
 21 20  1  0  0  0  0
 23 21  1  0  0  0  0
 23 17  1  0  0  0  0
 24 20  1  0  0  0  0
 24 27  1  0  0  0  0
 25 24  1  0  0  0  0
 26 25  2  0  0  0  0
 27 34  1  0  0  0  0
 28 33  2  0  0  0  0
 28 32  1  0  0  0  0
 29 31  2  0  0  0  0
 30 31  1  0  0  0  0
 32 30  2  0  0  0  0
 33 29  1  0  0  0  0
 34 28  1  0  0  0  0
 34 33  1  0  0  0  0
 36 39  1  0  0  0  0
 37 41  1  0  0  0  0
 37 36  2  0  0  0  0
 38 40  1  0  0  0  0
 39 40  2  0  0  0  0
 40 35  1  0  0  0  0
 41 38  2  0  0  0  0
 42 43  1  0  0  0  0
 43 37  1  0  0  0  0
M  END
>  <MODEL>
1

>  <REMARK>
 VINA RESULT:      -7.6      0.000      0.000
  Name = 
  9 active torsions:
  status: ('A' for Active; 'I' for Inactive)
    1  A    between atoms: C_1  and  N_34
    2  A    between atoms: C_1  and  C_35
    3  A    between atoms: C_2  and  C_13
    4  A    between atoms: C_4  and  C_22
    5  A    between atoms: N_6  and  C_17
    6  A    between atoms: C_10  and  C_22
    7  A    between atoms: O_14  and  C_22
    8  A    between atoms: O_14  and  C_41
    9  A    between atoms: C_19  and  C_37
                            x       y       z     vdW  Elec       q    Type
                         _______ _______ _______ _____ _____    ______ ____

>  <TORSDO>
F 9

$$$$
=
 OpenBabel11052420473D

 43 50  0  0  1  0  0  0  0  0999 V2000
  184.9520  178.2070  147.0240 C   0  0  0  0  0  0  0  0  0  0  0  0
  188.1490  176.1990  143.6680 C   0  0  0  0  0  0  0  0  0  0  0  0
  190.7160  176.2700  144.8550 C   0  0  0  0  0  0  0  0  0  0  0  0
  185.9180  177.1880  145.0510 C   0  0  0  0  0  0  0  0  0  0  0  0
  186.2130  178.2480  147.6260 C   0  0  0  0  0  3  0  0  0  0  0  0
  183.8710  178.6840  147.6850 F   0  0  0  0  0  0  0  0  0  0  0  0
  187.1960  177.2270  145.6560 C   0  0  0  0  0  0  0  0  0  0  0  0
  184.8040  177.6790  145.7380 C   0  0  0  0  0  3  0  0  0  0  0  0
  187.3320  177.7600  146.9450 C   0  0  0  0  0  3  0  0  0  0  0  0
  189.5870  176.7610  145.5300 O   0  0  0  0  0  0  0  0  0  0  0  0
  188.3080  176.7320  144.9590 C   0  0  0  0  0  0  0  0  0  0  0  0
  186.8780  176.1680  143.0780 C   0  0  0  0  0  3  0  0  0  0  0  0
  189.3110  175.6970  142.9840 N   0  0  0  0  0  0  0  0  0  0  0  0
  190.5910  175.7560  143.6250 C   0  0  0  0  0  3  0  0  0  0  0  0
  185.7680  176.6600  143.7670 C   0  0  0  0  0  3  0  0  0  0  0  0
  192.0310  176.3250  145.5070 C   0  0  0  0  0  0  0  0  0  0  0  0
  193.1840  176.7380  144.7690 N   0  0  0  0  0  2  0  0  0  0  0  0
  192.1390  175.9980  146.7190 O   0  0  0  0  0  0  0  0  0  0  0  0
  195.0390  175.4390  145.6680 C   0  0  1  0  0  3  0  0  0  0  0  0
  195.4280  174.7140  144.3980 C   0  0  2  0  0  0  0  0  0  0  0  0
  195.5430  176.2220  144.4540 C   0  0  1  0  0  3  0  0  0  0  0  0
  194.2850  174.1840  143.5440 C   0  0  0  0  0  1  0  0  0  0  0  0
  194.5030  176.8310  145.3770 C   0  0  1  0  0  3  0  0  0  0  0  0
  196.7660  173.9750  144.4400 C   0  0  1  0  0  3  0  0  0  0  0  0
  196.8430  173.0550  145.6190 C   0  0  0  0  0  3  0  0  0  0  0  0
  196.0280  172.1560  145.7610 O   0  0  0  0  0  0  0  0  0  0  0  0
  196.9400  173.2380  143.2610 O   0  0  0  0  0  0  0  0  0  0  0  0
  197.9120  173.5180  141.2060 C   0  0  0  0  0  0  0  0  0  0  0  0
  196.7500  175.7280  140.8470 C   0  0  0  0  0  3  0  0  0  0  0  0
  197.3220  173.9830  139.0510 C   0  0  0  0  0  3  0  0  0  0  0  0
  196.7570  175.2640  139.4840 C   0  0  0  0  0  3  0  0  0  0  0  0
  197.9410  173.0300  139.9350 C   0  0  0  0  0  3  0  0  0  0  0  0
  197.3500  174.7950  141.6370 C   0  0  0  0  0  0  0  0  0  0  0  0
  197.9410  173.9110  142.5550 C   0  0  1  0  0  3  0  0  0  0  0  0
  189.2090  175.0530  141.6790 C   0  0  0  0  0  2  0  0  0  0  0  0
  189.9750  171.4080  142.3830 C   0  0  0  0  0  3  0  0  0  0  0  0
  191.2480  171.2790  141.8180 C   0  0  0  0  0  0  0  0  0  0  0  0
  191.1820  173.6090  141.1460 C   0  0  0  0  0  3  0  0  0  0  0  0
  189.3030  172.6310  142.3240 C   0  0  0  0  0  3  0  0  0  0  0  0
  189.9040  173.7320  141.6990 C   0  0  0  0  0  0  0  0  0  0  0  0
  191.8530  172.3840  141.2020 C   0  0  0  0  0  3  0  0  0  0  0  0
  193.3680  170.1920  142.4560 C   0  0  0  0  0  1  0  0  0  0  0  0
  191.9710  169.9790  141.8980 C   0  0  0  0  0  2  0  0  0  0  0  0
  1  5  1  0  0  0  0
  1  6  1  0  0  0  0
  2 11  1  0  0  0  0
  3 16  1  0  0  0  0
  3 10  1  0  0  0  0
  4  7  1  0  0  0  0
  4  8  1  0  0  0  0
  7  9  1  0  0  0  0
  8  1  2  0  0  0  0
  9  5  2  0  0  0  0
 11 10  1  0  0  0  0
 11  7  2  0  0  0  0
 12  2  2  0  0  0  0
 12 15  1  0  0  0  0
 13 14  1  0  0  0  0
 13  2  1  0  0  0  0
 14  3  2  0  0  0  0
 15  4  2  0  0  0  0
 16 18  2  0  0  0  0
 17 23  1  0  0  0  0
 17 16  1  0  0  0  0
 20 24  1  0  0  0  0
 20 21  1  0  0  0  0
 20 19  1  0  0  0  0
 21 23  1  0  0  0  0
 21 19  1  0  0  0  0
 22 20  1  0  0  0  0
 23 19  1  0  0  0  0
 24 25  1  0  0  0  0
 25 26  2  0  0  0  0
 27 24  1  0  0  0  0
 28 33  1  0  0  0  0
 28 34  1  0  0  0  0
 29 33  2  0  0  0  0
 30 31  2  0  0  0  0
 30 32  1  0  0  0  0
 31 29  1  0  0  0  0
 32 28  2  0  0  0  0
 33 34  1  0  0  0  0
 34 27  1  0  0  0  0
 35 40  1  0  0  0  0
 35 13  1  0  0  0  0
 37 43  1  0  0  0  0
 37 36  2  0  0  0  0
 38 41  2  0  0  0  0
 38 40  1  0  0  0  0
 39 36  1  0  0  0  0
 40 39  2  0  0  0  0
 41 37  1  0  0  0  0
 43 42  1  0  0  0  0
M  END
>  <MODEL>
2

>  <REMARK>
 VINA RESULT:      -7.6      2.123      4.800
  Name = 
  9 active torsions:
  status: ('A' for Active; 'I' for Inactive)
    1  A    between atoms: C_1  and  N_34
    2  A    between atoms: C_1  and  C_35
    3  A    between atoms: C_2  and  C_13
    4  A    between atoms: C_4  and  C_22
    5  A    between atoms: N_6  and  C_17
    6  A    between atoms: C_10  and  C_22
    7  A    between atoms: O_14  and  C_22
    8  A    between atoms: O_14  and  C_41
    9  A    between atoms: C_19  and  C_37
                            x       y       z     vdW  Elec       q    Type
                         _______ _______ _______ _____ _____    ______ ____

>  <TORSDO>
F 9

$$$$
=
 OpenBabel11052420473D

 43 50  0  0  1  0  0  0  0  0999 V2000
  196.6240  170.2620  145.9560 C   0  0  0  0  0  0  0  0  0  0  0  0
  192.4330  171.2300  143.3080 C   0  0  0  0  0  0  0  0  0  0  0  0
  191.9190  173.9960  143.5900 C   0  0  0  0  0  0  0  0  0  0  0  0
  194.6530  170.0620  144.5640 C   0  0  0  0  0  0  0  0  0  0  0  0
  196.3860  171.6330  146.1040 C   0  0  0  0  0  3  0  0  0  0  0  0
  197.6930  169.6920  146.5600 F   0  0  0  0  0  0  0  0  0  0  0  0
  194.4080  171.4480  144.7110 C   0  0  0  0  0  0  0  0  0  0  0  0
  195.7590  169.4780  145.1880 C   0  0  0  0  0  3  0  0  0  0  0  0
  195.2820  172.2240  145.4840 C   0  0  0  0  0  3  0  0  0  0  0  0
  193.0240  173.3940  144.2110 O   0  0  0  0  0  0  0  0  0  0  0  0
  193.2950  172.0260  144.0810 C   0  0  0  0  0  0  0  0  0  0  0  0
  192.6840  169.8570  143.1710 C   0  0  0  0  0  3  0  0  0  0  0  0
  191.3030  171.8560  142.6730 N   0  0  0  0  0  0  0  0  0  0  0  0
  191.0830  173.2610  142.8470 C   0  0  0  0  0  3  0  0  0  0  0  0
  193.7900  169.2770  143.7970 C   0  0  0  0  0  3  0  0  0  0  0  0
  191.6880  175.4380  143.7610 C   0  0  0  0  0  0  0  0  0  0  0  0
  190.7480  176.1200  142.9280 N   0  0  0  0  0  2  0  0  0  0  0  0
  192.3300  176.0700  144.6420 O   0  0  0  0  0  0  0  0  0  0  0  0
  189.4560  177.9810  142.0310 C   0  0  1  0  0  3  0  0  0  0  0  0
  188.0730  177.4480  142.3340 C   0  0  2  0  0  0  0  0  0  0  0  0
  189.0180  177.7440  143.4780 C   0  0  1  0  0  3  0  0  0  0  0  0
  187.8410  175.9690  142.0530 C   0  0  0  0  0  1  0  0  0  0  0  0
  190.4680  177.5400  143.0750 C   0  0  1  0  0  3  0  0  0  0  0  0
  186.9280  178.4490  142.1830 C   0  0  1  0  0  3  0  0  0  0  0  0
  185.7990  177.8680  141.3900 C   0  0  0  0  0  3  0  0  0  0  0  0
  185.8080  177.9120  140.1690 O   0  0  0  0  0  0  0  0  0  0  0  0
  186.4620  178.8360  143.4450 O   0  0  0  0  0  0  0  0  0  0  0  0
  185.8840  177.3160  145.0590 C   0  0  0  0  0  0  0  0  0  0  0  0
  184.0370  178.7960  145.9320 C   0  0  0  0  0  3  0  0  0  0  0  0
  185.5250  177.2210  147.3110 C   0  0  0  0  0  3  0  0  0  0  0  0
  184.4450  178.2030  147.1790 C   0  0  0  0  0  3  0  0  0  0  0  0
  186.3120  176.7280  146.2110 C   0  0  0  0  0  3  0  0  0  0  0  0
  184.8080  178.2940  144.9270 C   0  0  0  0  0  0  0  0  0  0  0  0
  185.5350  177.8550  143.8090 C   0  0  1  0  0  3  0  0  0  0  0  0
  190.4160  171.1110  141.7880 C   0  0  0  0  0  2  0  0  0  0  0  0
  188.4550  173.3440  139.4340 C   0  0  0  0  0  3  0  0  0  0  0  0
  189.3270  173.4270  138.3430 C   0  0  0  0  0  0  0  0  0  0  0  0
  190.9170  172.0140  139.5090 C   0  0  0  0  0  3  0  0  0  0  0  0
  188.8150  172.6030  140.5630 C   0  0  0  0  0  3  0  0  0  0  0  0
  190.0500  171.9430  140.6040 C   0  0  0  0  0  0  0  0  0  0  0  0
  190.5570  172.7580  138.3810 C   0  0  0  0  0  3  0  0  0  0  0  0
  189.6300  173.6410  135.9050 C   0  0  0  0  0  1  0  0  0  0  0  0
  188.9330  174.2020  137.1330 C   0  0  0  0  0  2  0  0  0  0  0  0
  1  5  1  0  0  0  0
  1  6  1  0  0  0  0
  2 11  1  0  0  0  0
  3 16  1  0  0  0  0
  3 10  1  0  0  0  0
  4  7  1  0  0  0  0
  4  8  1  0  0  0  0
  7  9  1  0  0  0  0
  8  1  2  0  0  0  0
  9  5  2  0  0  0  0
 11 10  1  0  0  0  0
 11  7  2  0  0  0  0
 12  2  2  0  0  0  0
 12 15  1  0  0  0  0
 13 14  1  0  0  0  0
 13  2  1  0  0  0  0
 14  3  2  0  0  0  0
 15  4  2  0  0  0  0
 16 18  2  0  0  0  0
 17 23  1  0  0  0  0
 17 16  1  0  0  0  0
 19 20  1  0  0  0  0
 19 23  1  0  0  0  0
 19 21  1  0  0  0  0
 20 21  1  0  0  0  0
 22 20  1  0  0  0  0
 23 21  1  0  0  0  0
 24 20  1  0  0  0  0
 24 27  1  0  0  0  0
 25 24  1  0  0  0  0
 26 25  2  0  0  0  0
 27 34  1  0  0  0  0
 28 32  1  0  0  0  0
 29 31  2  0  0  0  0
 31 30  1  0  0  0  0
 32 30  2  0  0  0  0
 33 28  2  0  0  0  0
 33 29  1  0  0  0  0
 34 33  1  0  0  0  0
 34 28  1  0  0  0  0
 35 13  1  0  0  0  0
 36 39  1  0  0  0  0
 37 41  1  0  0  0  0
 37 36  2  0  0  0  0
 38 40  1  0  0  0  0
 39 40  2  0  0  0  0
 40 35  1  0  0  0  0
 41 38  2  0  0  0  0
 42 43  1  0  0  0  0
 43 37  1  0  0  0  0
M  END
>  <MODEL>
3

>  <REMARK>
 VINA RESULT:      -7.4      3.888      9.996
  Name = 
  9 active torsions:
  status: ('A' for Active; 'I' for Inactive)
    1  A    between atoms: C_1  and  N_34
    2  A    between atoms: C_1  and  C_35
    3  A    between atoms: C_2  and  C_13
    4  A    between atoms: C_4  and  C_22
    5  A    between atoms: N_6  and  C_17
    6  A    between atoms: C_10  and  C_22
    7  A    between atoms: O_14  and  C_22
    8  A    between atoms: O_14  and  C_41
    9  A    between atoms: C_19  and  C_37
                            x       y       z     vdW  Elec       q    Type
                         _______ _______ _______ _____ _____    ______ ____

>  <TORSDO>
F 9

$$$$
=
 OpenBabel11052420473D

 43 50  0  0  1  0  0  0  0  0999 V2000
  196.3710  175.3740  136.1710 C   0  0  0  0  0  0  0  0  0  0  0  0
  196.1980  174.9640  141.2030 C   0  0  0  0  0  0  0  0  0  0  0  0
  193.5160  174.3670  141.8730 C   0  0  0  0  0  0  0  0  0  0  0  0
  196.9470  175.3190  138.5230 C   0  0  0  0  0  0  0  0  0  0  0  0
  195.0410  175.0770  136.4850 C   0  0  0  0  0  3  0  0  0  0  0  0
  196.7390  175.5470  134.8800 F   0  0  0  0  0  0  0  0  0  0  0  0
  195.6020  175.0180  138.8450 C   0  0  0  0  0  0  0  0  0  0  0  0
  197.3230  175.4960  137.1890 C   0  0  0  0  0  3  0  0  0  0  0  0
  194.6570  174.9000  137.8170 C   0  0  0  0  0  3  0  0  0  0  0  0
  193.9100  174.5490  140.5390 O   0  0  0  0  0  0  0  0  0  0  0  0
  195.2340  174.8430  140.1870 C   0  0  0  0  0  0  0  0  0  0  0  0
  197.5270  175.2640  140.8720 C   0  0  0  0  0  3  0  0  0  0  0  0
  195.7860  174.7740  142.5690 N   0  0  0  0  0  0  0  0  0  0  0  0
  194.4150  174.4750  142.8590 C   0  0  0  0  0  3  0  0  0  0  0  0
  197.8980  175.4400  139.5370 C   0  0  0  0  0  3  0  0  0  0  0  0
  192.1130  174.0570  142.1790 C   0  0  0  0  0  0  0  0  0  0  0  0
  191.7270  173.7010  143.5090 N   0  0  0  0  0  2  0  0  0  0  0  0
  191.2510  174.1000  141.2610 O   0  0  0  0  0  0  0  0  0  0  0  0
  190.0080  174.0520  145.2000 C   0  0  1  0  0  3  0  0  0  0  0  0
  189.8950  175.5560  145.0820 C   0  0  2  0  0  0  0  0  0  0  0  0
  189.5360  174.6930  143.8930 C   0  0  1  0  0  3  0  0  0  0  0  0
  191.2040  176.3240  144.9510 C   0  0  0  0  0  1  0  0  0  0  0  0
  190.3470  173.4090  143.8650 C   0  0  1  0  0  3  0  0  0  0  0  0
  188.6980  176.1890  145.7900 C   0  0  1  0  0  3  0  0  0  0  0  0
  189.0510  176.6150  147.1810 C   0  0  0  0  0  3  0  0  0  0  0  0
  189.3270  177.7800  147.4240 O   0  0  0  0  0  0  0  0  0  0  0  0
  188.2450  177.2970  145.0630 O   0  0  0  0  0  0  0  0  0  0  0  0
  186.0030  177.0480  145.4580 C   0  0  0  0  0  0  0  0  0  0  0  0
  185.4390  179.1310  144.1530 C   0  0  0  0  0  3  0  0  0  0  0  0
  184.2290  178.2510  146.2410 C   0  0  0  0  0  3  0  0  0  0  0  0
  184.4120  179.2220  145.1580 C   0  0  0  0  0  3  0  0  0  0  0  0
  185.0530  177.0870  146.4340 C   0  0  0  0  0  3  0  0  0  0  0  0
  186.1850  178.0140  144.3790 C   0  0  0  0  0  0  0  0  0  0  0  0
  187.0270  176.8970  144.5080 C   0  0  1  0  0  3  0  0  0  0  0  0
  196.7470  174.7990  143.6660 C   0  0  0  0  0  2  0  0  0  0  0  0
  196.7180  171.9030  146.1110 C   0  0  0  0  0  3  0  0  0  0  0  0
  197.3050  170.8900  145.3460 C   0  0  0  0  0  0  0  0  0  0  0  0
  197.5100  172.4240  143.4770 C   0  0  0  0  0  3  0  0  0  0  0  0
  196.5210  173.1710  145.5600 C   0  0  0  0  0  3  0  0  0  0  0  0
  196.9110  173.4320  144.2400 C   0  0  0  0  0  0  0  0  0  0  0  0
  197.7040  171.1540  144.0280 C   0  0  0  0  0  3  0  0  0  0  0  0
  196.6700  169.3670  147.1790 C   0  0  0  0  0  1  0  0  0  0  0  0
  197.5320  169.5430  145.9400 C   0  0  0  0  0  2  0  0  0  0  0  0
  1  5  2  0  0  0  0
  1  8  1  0  0  0  0
  2 13  1  0  0  0  0
  3 16  1  0  0  0  0
  3 14  2  0  0  0  0
  4  7  1  0  0  0  0
  4 15  1  0  0  0  0
  5  9  1  0  0  0  0
  6  1  1  0  0  0  0
  7 11  1  0  0  0  0
  8  4  2  0  0  0  0
  9  7  2  0  0  0  0
 10  3  1  0  0  0  0
 11 10  1  0  0  0  0
 11  2  2  0  0  0  0
 12  2  1  0  0  0  0
 13 14  1  0  0  0  0
 13 35  1  0  0  0  0
 15 12  2  0  0  0  0
 16 17  1  0  0  0  0
 17 23  1  0  0  0  0
 18 16  2  0  0  0  0
 20 19  1  0  0  0  0
 20 24  1  0  0  0  0
 21 20  1  0  0  0  0
 21 19  1  0  0  0  0
 22 20  1  0  0  0  0
 23 21  1  0  0  0  0
 23 19  1  0  0  0  0
 24 25  1  0  0  0  0
 25 26  2  0  0  0  0
 27 24  1  0  0  0  0
 28 32  1  0  0  0  0
 29 33  1  0  0  0  0
 29 31  2  0  0  0  0
 30 32  2  0  0  0  0
 31 30  1  0  0  0  0
 33 34  1  0  0  0  0
 33 28  2  0  0  0  0
 34 27  1  0  0  0  0
 34 28  1  0  0  0  0
 35 40  1  0  0  0  0
 37 43  1  0  0  0  0
 37 36  2  0  0  0  0
 38 41  2  0  0  0  0
 38 40  1  0  0  0  0
 39 36  1  0  0  0  0
 40 39  2  0  0  0  0
 41 37  1  0  0  0  0
 43 42  1  0  0  0  0
M  END
>  <MODEL>
4

>  <REMARK>
 VINA RESULT:      -7.4      3.270      9.559
  Name = 
  9 active torsions:
  status: ('A' for Active; 'I' for Inactive)
    1  A    between atoms: C_1  and  N_34
    2  A    between atoms: C_1  and  C_35
    3  A    between atoms: C_2  and  C_13
    4  A    between atoms: C_4  and  C_22
    5  A    between atoms: N_6  and  C_17
    6  A    between atoms: C_10  and  C_22
    7  A    between atoms: O_14  and  C_22
    8  A    between atoms: O_14  and  C_41
    9  A    between atoms: C_19  and  C_37
                            x       y       z     vdW  Elec       q    Type
                         _______ _______ _______ _____ _____    ______ ____

>  <TORSDO>
F 9

$$$$
=
 OpenBabel11052420473D

 43 50  0  0  1  0  0  0  0  0999 V2000
  195.0820  173.9210  138.0610 C   0  0  0  0  0  0  0  0  0  0  0  0
  195.7620  174.1970  143.0590 C   0  0  0  0  0  0  0  0  0  0  0  0
  193.7000  175.8510  144.0650 C   0  0  0  0  0  0  0  0  0  0  0  0
  195.9330  173.6530  140.3130 C   0  0  0  0  0  0  0  0  0  0  0  0
  194.0540  174.7390  138.5420 C   0  0  0  0  0  3  0  0  0  0  0  0
  195.1710  173.6550  136.7370 F   0  0  0  0  0  0  0  0  0  0  0  0
  194.8950  174.4800  140.8040 C   0  0  0  0  0  0  0  0  0  0  0  0
  196.0200  173.3790  138.9450 C   0  0  0  0  0  3  0  0  0  0  0  0
  193.9610  175.0180  139.9090 C   0  0  0  0  0  3  0  0  0  0  0  0
  193.8030  175.5680  142.6940 O   0  0  0  0  0  0  0  0  0  0  0  0
  194.8160  174.7490  142.1780 C   0  0  0  0  0  0  0  0  0  0  0  0
  196.7870  173.3810  142.5610 C   0  0  0  0  0  3  0  0  0  0  0  0
  195.6480  174.4910  144.4630 N   0  0  0  0  0  0  0  0  0  0  0  0
  194.5880  175.3360  144.9250 C   0  0  0  0  0  3  0  0  0  0  0  0
  196.8710  173.1100  141.1930 C   0  0  0  0  0  3  0  0  0  0  0  0
  192.6130  176.7140  144.5470 C   0  0  0  0  0  0  0  0  0  0  0  0
  191.8370  177.4790  143.6220 N   0  0  0  0  0  2  0  0  0  0  0  0
  192.3740  176.7820  145.7830 O   0  0  0  0  0  0  0  0  0  0  0  0
  189.6710  178.3830  142.9670 C   0  0  1  0  0  3  0  0  0  0  0  0
  188.9160  177.0760  142.8620 C   0  0  2  0  0  0  0  0  0  0  0  0
  189.4720  177.5030  144.2030 C   0  0  1  0  0  3  0  0  0  0  0  0
  189.6530  175.9210  142.1950 C   0  0  0  0  0  1  0  0  0  0  0  0
  190.7360  178.3300  144.0490 C   0  0  1  0  0  3  0  0  0  0  0  0
  187.3980  177.1940  142.7390 C   0  0  1  0  0  3  0  0  0  0  0  0
  186.9310  176.8070  141.3690 C   0  0  0  0  0  3  0  0  0  0  0  0
  186.3840  177.6250  140.6450 O   0  0  0  0  0  0  0  0  0  0  0  0
  186.7760  176.3780  143.6910 O   0  0  0  0  0  0  0  0  0  0  0  0
  185.2420  177.0250  145.2640 C   0  0  0  0  0  0  0  0  0  0  0  0
  185.8270  179.4610  144.9780 C   0  0  0  0  0  3  0  0  0  0  0  0
  185.1190  178.2960  147.1550 C   0  0  0  0  0  3  0  0  0  0  0  0
  185.5320  179.4740  146.3880 C   0  0  0  0  0  3  0  0  0  0  0  0
  184.9550  176.9810  146.5950 C   0  0  0  0  0  3  0  0  0  0  0  0
  185.6530  178.1980  144.4990 C   0  0  0  0  0  0  0  0  0  0  0  0
  185.5120  176.9420  143.8880 C   0  0  1  0  0  3  0  0  0  0  0  0
  196.5410  173.8850  145.4450 C   0  0  0  0  0  2  0  0  0  0  0  0
  194.5080  170.7140  145.8660 C   0  0  0  0  0  3  0  0  0  0  0  0
  195.5110  169.7760  146.1280 C   0  0  0  0  0  0  0  0  0  0  0  0
  197.1890  171.5170  145.9260 C   0  0  0  0  0  3  0  0  0  0  0  0
  194.8430  172.0490  145.6270 C   0  0  0  0  0  3  0  0  0  0  0  0
  196.1850  172.4510  145.6500 C   0  0  0  0  0  0  0  0  0  0  0  0
  196.8530  170.1800  146.1620 C   0  0  0  0  0  3  0  0  0  0  0  0
  194.8220  168.1750  147.8730 C   0  0  0  0  0  1  0  0  0  0  0  0
  195.1520  168.3560  146.4020 C   0  0  0  0  0  2  0  0  0  0  0  0
  1  5  2  0  0  0  0
  1  8  1  0  0  0  0
  2 13  1  0  0  0  0
  3 16  1  0  0  0  0
  3 14  2  0  0  0  0
  4  7  1  0  0  0  0
  4 15  1  0  0  0  0
  5  9  1  0  0  0  0
  6  1  1  0  0  0  0
  7 11  1  0  0  0  0
  8  4  2  0  0  0  0
  9  7  2  0  0  0  0
 10  3  1  0  0  0  0
 11 10  1  0  0  0  0
 11  2  2  0  0  0  0
 12  2  1  0  0  0  0
 13 14  1  0  0  0  0
 13 35  1  0  0  0  0
 15 12  2  0  0  0  0
 16 18  2  0  0  0  0
 17 23  1  0  0  0  0
 17 16  1  0  0  0  0
 19 23  1  0  0  0  0
 19 21  1  0  0  0  0
 20 19  1  0  0  0  0
 20 21  1  0  0  0  0
 22 20  1  0  0  0  0
 23 21  1  0  0  0  0
 24 20  1  0  0  0  0
 24 27  1  0  0  0  0
 25 24  1  0  0  0  0
 26 25  2  0  0  0  0
 27 34  1  0  0  0  0
 28 32  1  0  0  0  0
 29 31  2  0  0  0  0
 31 30  1  0  0  0  0
 32 30  2  0  0  0  0
 33 29  1  0  0  0  0
 33 28  2  0  0  0  0
 34 33  1  0  0  0  0
 34 28  1  0  0  0  0
 35 40  1  0  0  0  0
 36 37  1  0  0  0  0
 37 41  2  0  0  0  0
 37 43  1  0  0  0  0
 38 41  1  0  0  0  0
 39 40  1  0  0  0  0
 39 36  2  0  0  0  0
 40 38  2  0  0  0  0
 43 42  1  0  0  0  0
M  END
>  <MODEL>
5

>  <REMARK>
 VINA RESULT:      -7.4      3.242      9.252
  Name = 
  9 active torsions:
  status: ('A' for Active; 'I' for Inactive)
    1  A    between atoms: C_1  and  N_34
    2  A    between atoms: C_1  and  C_35
    3  A    between atoms: C_2  and  C_13
    4  A    between atoms: C_4  and  C_22
    5  A    between atoms: N_6  and  C_17
    6  A    between atoms: C_10  and  C_22
    7  A    between atoms: O_14  and  C_22
    8  A    between atoms: O_14  and  C_41
    9  A    between atoms: C_19  and  C_37
                            x       y       z     vdW  Elec       q    Type
                         _______ _______ _______ _____ _____    ______ ____

>  <TORSDO>
F 9

$$$$
=
 OpenBabel11052420473D

 43 50  0  0  1  0  0  0  0  0999 V2000
  197.1140  175.4590  137.2080 C   0  0  0  0  0  0  0  0  0  0  0  0
  195.2490  174.5110  141.8060 C   0  0  0  0  0  0  0  0  0  0  0  0
  192.4640  174.1390  141.4870 C   0  0  0  0  0  0  0  0  0  0  0  0
  196.8680  175.0800  139.5870 C   0  0  0  0  0  0  0  0  0  0  0  0
  195.7380  175.2760  137.0320 C   0  0  0  0  0  3  0  0  0  0  0  0
  197.9010  175.7350  136.1410 F   0  0  0  0  0  0  0  0  0  0  0  0
  195.4770  174.8940  139.4140 C   0  0  0  0  0  0  0  0  0  0  0  0
  197.6780  175.3630  138.4830 C   0  0  0  0  0  3  0  0  0  0  0  0
  194.9220  174.9940  138.1310 C   0  0  0  0  0  3  0  0  0  0  0  0
  193.2900  174.4250  140.3890 O   0  0  0  0  0  0  0  0  0  0  0  0
  194.6720  174.6110  140.5280 C   0  0  0  0  0  0  0  0  0  0  0  0
  196.6290  174.7000  141.9650 C   0  0  0  0  0  3  0  0  0  0  0  0
  194.3940  174.2160  142.9250 N   0  0  0  0  0  0  0  0  0  0  0  0
  192.9880  174.0380  142.7150 C   0  0  0  0  0  3  0  0  0  0  0  0
  197.4340  174.9830  140.8590 C   0  0  0  0  0  3  0  0  0  0  0  0
  191.0210  173.9520  141.2790 C   0  0  0  0  0  0  0  0  0  0  0  0
  190.0800  174.5700  142.1610 N   0  0  0  0  0  2  0  0  0  0  0  0
  190.6180  173.2370  140.3230 O   0  0  0  0  0  0  0  0  0  0  0  0
  187.9150  175.4940  142.7890 C   0  0  1  0  0  3  0  0  0  0  0  0
  188.0860  176.8710  142.1860 C   0  0  2  0  0  0  0  0  0  0  0  0
  188.0890  175.6600  141.2780 C   0  0  1  0  0  3  0  0  0  0  0  0
  189.4430  177.5330  142.3850 C   0  0  0  0  0  1  0  0  0  0  0  0
  188.6420  174.4330  141.9810 C   0  0  1  0  0  3  0  0  0  0  0  0
  186.8180  177.7210  142.1040 C   0  0  1  0  0  3  0  0  0  0  0  0
  186.0450  177.4250  140.8570 C   0  0  0  0  0  3  0  0  0  0  0  0
  186.2850  178.0230  139.8200 O   0  0  0  0  0  0  0  0  0  0  0  0
  186.0100  177.4830  143.2230 O   0  0  0  0  0  0  0  0  0  0  0  0
  185.1400  178.6500  144.9910 C   0  0  0  0  0  0  0  0  0  0  0  0
  186.9070  177.7760  146.5650 C   0  0  0  0  0  3  0  0  0  0  0  0
  184.4590  178.3000  147.1410 C   0  0  0  0  0  3  0  0  0  0  0  0
  185.8070  177.8460  147.4930 C   0  0  0  0  0  3  0  0  0  0  0  0
  184.0660  178.7320  145.8250 C   0  0  0  0  0  3  0  0  0  0  0  0
  186.4840  178.1990  145.3410 C   0  0  0  0  0  0  0  0  0  0  0  0
  186.1700  178.6090  144.0360 C   0  0  1  0  0  3  0  0  0  0  0  0
  194.9340  174.0140  144.2650 C   0  0  0  0  0  2  0  0  0  0  0  0
  192.3470  174.9180  146.8830 C   0  0  0  0  0  3  0  0  0  0  0  0
  192.6050  176.2800  147.0680 C   0  0  0  0  0  0  0  0  0  0  0  0
  194.3960  176.1580  145.4360 C   0  0  0  0  0  3  0  0  0  0  0  0
  193.1150  174.1750  145.9830 C   0  0  0  0  0  3  0  0  0  0  0  0
  194.1450  174.7940  145.2630 C   0  0  0  0  0  0  0  0  0  0  0  0
  193.6290  176.9000  146.3390 C   0  0  0  0  0  3  0  0  0  0  0  0
  190.3350  177.1260  147.5280 C   0  0  0  0  0  1  0  0  0  0  0  0
  191.7730  177.0750  148.0140 C   0  0  0  0  0  2  0  0  0  0  0  0
  1  8  1  0  0  0  0
  2 12  1  0  0  0  0
  2 13  1  0  0  0  0
  3 14  2  0  0  0  0
  4 15  1  0  0  0  0
  5  1  2  0  0  0  0
  5  9  1  0  0  0  0
  6  1  1  0  0  0  0
  7  4  1  0  0  0  0
  7 11  1  0  0  0  0
  8  4  2  0  0  0  0
  9  7  2  0  0  0  0
 10 11  1  0  0  0  0
 10  3  1  0  0  0  0
 11  2  2  0  0  0  0
 13 35  1  0  0  0  0
 14 13  1  0  0  0  0
 15 12  2  0  0  0  0
 16  3  1  0  0  0  0
 16 17  1  0  0  0  0
 18 16  2  0  0  0  0
 20 22  1  0  0  0  0
 20 19  1  0  0  0  0
 21 23  1  0  0  0  0
 21 20  1  0  0  0  0
 21 19  1  0  0  0  0
 23 17  1  0  0  0  0
 23 19  1  0  0  0  0
 24 20  1  0  0  0  0
 24 27  1  0  0  0  0
 25 24  1  0  0  0  0
 26 25  2  0  0  0  0
 27 34  1  0  0  0  0
 28 33  2  0  0  0  0
 28 32  1  0  0  0  0
 29 31  2  0  0  0  0
 30 31  1  0  0  0  0
 32 30  2  0  0  0  0
 33 29  1  0  0  0  0
 34 28  1  0  0  0  0
 34 33  1  0  0  0  0
 35 40  1  0  0  0  0
 36 37  1  0  0  0  0
 37 43  1  0  0  0  0
 38 41  1  0  0  0  0
 39 36  2  0  0  0  0
 40 38  2  0  0  0  0
 40 39  1  0  0  0  0
 41 37  2  0  0  0  0
 42 43  1  0  0  0  0
M  END
>  <MODEL>
6

>  <REMARK>
 VINA RESULT:      -7.2      3.341      9.308
  Name = 
  9 active torsions:
  status: ('A' for Active; 'I' for Inactive)
    1  A    between atoms: C_1  and  N_34
    2  A    between atoms: C_1  and  C_35
    3  A    between atoms: C_2  and  C_13
    4  A    between atoms: C_4  and  C_22
    5  A    between atoms: N_6  and  C_17
    6  A    between atoms: C_10  and  C_22
    7  A    between atoms: O_14  and  C_22
    8  A    between atoms: O_14  and  C_41
    9  A    between atoms: C_19  and  C_37
                            x       y       z     vdW  Elec       q    Type
                         _______ _______ _______ _____ _____    ______ ____

>  <TORSDO>
F 9

$$$$
=
 OpenBabel11052420473D

 43 50  0  0  1  0  0  0  0  0999 V2000
  197.0330  175.2850  137.4630 C   0  0  0  0  0  0  0  0  0  0  0  0
  195.1570  174.9710  142.1420 C   0  0  0  0  0  0  0  0  0  0  0  0
  192.3830  174.4900  141.8700 C   0  0  0  0  0  0  0  0  0  0  0  0
  196.7790  175.2490  139.8710 C   0  0  0  0  0  0  0  0  0  0  0  0
  195.6630  175.0450  137.3100 C   0  0  0  0  0  3  0  0  0  0  0  0
  197.8220  175.4210  136.3710 F   0  0  0  0  0  0  0  0  0  0  0  0
  195.3930  175.0070  139.7210 C   0  0  0  0  0  0  0  0  0  0  0  0
  197.5900  175.3870  138.7410 C   0  0  0  0  0  3  0  0  0  0  0  0
  194.8460  174.9060  138.4350 C   0  0  0  0  0  3  0  0  0  0  0  0
  193.2110  174.6330  140.7460 O   0  0  0  0  0  0  0  0  0  0  0  0
  194.5870  174.8700  140.8610 C   0  0  0  0  0  0  0  0  0  0  0  0
  196.5310  175.2130  142.2780 C   0  0  0  0  0  3  0  0  0  0  0  0
  194.3010  174.8210  143.2890 N   0  0  0  0  0  0  0  0  0  0  0  0
  192.9010  174.5810  143.1010 C   0  0  0  0  0  3  0  0  0  0  0  0
  197.3370  175.3510  141.1460 C   0  0  0  0  0  3  0  0  0  0  0  0
  190.9470  174.2400  141.6850 C   0  0  0  0  0  0  0  0  0  0  0  0
  189.9910  174.8690  142.5430 N   0  0  0  0  0  2  0  0  0  0  0  0
  190.5620  173.4630  140.7710 O   0  0  0  0  0  0  0  0  0  0  0  0
  187.7990  175.7900  143.0780 C   0  0  1  0  0  3  0  0  0  0  0  0
  187.9290  177.0990  142.3300 C   0  0  2  0  0  0  0  0  0  0  0  0
  187.9670  175.7990  141.5570 C   0  0  1  0  0  3  0  0  0  0  0  0
  189.2650  177.8190  142.4520 C   0  0  0  0  0  1  0  0  0  0  0  0
  188.5570  174.6710  142.3840 C   0  0  1  0  0  3  0  0  0  0  0  0
  186.6360  177.8980  142.1630 C   0  0  1  0  0  3  0  0  0  0  0  0
  185.9370  177.5400  140.8880 C   0  0  0  0  0  3  0  0  0  0  0  0
  185.5240  178.4130  140.1390 O   0  0  0  0  0  0  0  0  0  0  0  0
  185.7830  177.6580  143.2460 O   0  0  0  0  0  0  0  0  0  0  0  0
  184.9890  178.7040  145.1240 C   0  0  0  0  0  0  0  0  0  0  0  0
  186.9620  177.9470  146.5010 C   0  0  0  0  0  3  0  0  0  0  0  0
  184.5440  178.2450  147.3140 C   0  0  0  0  0  3  0  0  0  0  0  0
  185.9530  177.9000  147.5270 C   0  0  0  0  0  3  0  0  0  0  0  0
  183.9950  178.6740  146.0550 C   0  0  0  0  0  3  0  0  0  0  0  0
  186.3930  178.3610  145.3350 C   0  0  0  0  0  0  0  0  0  0  0  0
  185.9240  178.7740  144.0770 C   0  0  1  0  0  3  0  0  0  0  0  0
  194.8350  174.8280  144.6460 C   0  0  0  0  0  2  0  0  0  0  0  0
  194.5360  171.1950  145.6840 C   0  0  0  0  0  3  0  0  0  0  0  0
  195.8720  170.8710  145.9420 C   0  0  0  0  0  0  0  0  0  0  0  0
  196.5330  173.1250  145.3350 C   0  0  0  0  0  3  0  0  0  0  0  0
  194.1990  172.4780  145.2470 C   0  0  0  0  0  3  0  0  0  0  0  0
  195.1980  173.4430  145.0660 C   0  0  0  0  0  0  0  0  0  0  0  0
  196.8700  171.8400  145.7710 C   0  0  0  0  0  3  0  0  0  0  0  0
  195.0870  168.9310  147.2460 C   0  0  0  0  0  1  0  0  0  0  0  0
  196.2280  169.5080  146.4270 C   0  0  0  0  0  2  0  0  0  0  0  0
  1  8  1  0  0  0  0
  2 12  1  0  0  0  0
  2 13  1  0  0  0  0
  3 14  2  0  0  0  0
  4 15  1  0  0  0  0
  5  1  2  0  0  0  0
  5  9  1  0  0  0  0
  6  1  1  0  0  0  0
  7  4  1  0  0  0  0
  7 11  1  0  0  0  0
  8  4  2  0  0  0  0
  9  7  2  0  0  0  0
 10 11  1  0  0  0  0
 10  3  1  0  0  0  0
 11  2  2  0  0  0  0
 13 35  1  0  0  0  0
 14 13  1  0  0  0  0
 15 12  2  0  0  0  0
 16  3  1  0  0  0  0
 16 17  1  0  0  0  0
 18 16  2  0  0  0  0
 20 22  1  0  0  0  0
 20 19  1  0  0  0  0
 21 20  1  0  0  0  0
 21 23  1  0  0  0  0
 21 19  1  0  0  0  0
 23 17  1  0  0  0  0
 23 19  1  0  0  0  0
 24 20  1  0  0  0  0
 24 27  1  0  0  0  0
 25 24  1  0  0  0  0
 26 25  2  0  0  0  0
 27 34  1  0  0  0  0
 28 33  2  0  0  0  0
 28 32  1  0  0  0  0
 29 31  2  0  0  0  0
 30 31  1  0  0  0  0
 32 30  2  0  0  0  0
 33 29  1  0  0  0  0
 34 28  1  0  0  0  0
 34 33  1  0  0  0  0
 35 40  1  0  0  0  0
 36 37  1  0  0  0  0
 37 43  1  0  0  0  0
 38 41  1  0  0  0  0
 39 36  2  0  0  0  0
 40 39  1  0  0  0  0
 40 38  2  0  0  0  0
 41 37  2  0  0  0  0
 43 42  1  0  0  0  0
M  END
>  <MODEL>
7

>  <REMARK>
 VINA RESULT:      -7.2      3.386      9.400
  Name = 
  9 active torsions:
  status: ('A' for Active; 'I' for Inactive)
    1  A    between atoms: C_1  and  N_34
    2  A    between atoms: C_1  and  C_35
    3  A    between atoms: C_2  and  C_13
    4  A    between atoms: C_4  and  C_22
    5  A    between atoms: N_6  and  C_17
    6  A    between atoms: C_10  and  C_22
    7  A    between atoms: O_14  and  C_22
    8  A    between atoms: O_14  and  C_41
    9  A    between atoms: C_19  and  C_37
                            x       y       z     vdW  Elec       q    Type
                         _______ _______ _______ _____ _____    ______ ____

>  <TORSDO>
F 9

$$$$
=
 OpenBabel11052420473D

 43 50  0  0  1  0  0  0  0  0999 V2000
  195.8700  176.4060  143.2900 C   0  0  0  0  0  0  0  0  0  0  0  0
  191.1390  175.9960  145.0110 C   0  0  0  0  0  0  0  0  0  0  0  0
  189.5340  175.2720  142.7970 C   0  0  0  0  0  0  0  0  0  0  0  0
  193.8990  176.3830  144.6960 C   0  0  0  0  0  0  0  0  0  0  0  0
  195.0910  176.0460  142.1850 C   0  0  0  0  0  3  0  0  0  0  0  0
  197.2030  176.5950  143.1450 F   0  0  0  0  0  0  0  0  0  0  0  0
  193.1080  176.0180  143.5820 C   0  0  0  0  0  0  0  0  0  0  0  0
  195.2750  176.5750  144.5430 C   0  0  0  0  0  3  0  0  0  0  0  0
  193.7150  175.8530  142.3300 C   0  0  0  0  0  3  0  0  0  0  0  0
  190.9160  175.4700  142.6600 O   0  0  0  0  0  0  0  0  0  0  0  0
  191.7280  175.8280  143.7450 C   0  0  0  0  0  0  0  0  0  0  0  0
  191.9330  176.3590  146.1070 C   0  0  0  0  0  3  0  0  0  0  0  0
  189.7210  175.7880  145.1430 N   0  0  0  0  0  0  0  0  0  0  0  0
  188.9490  175.4250  143.9920 C   0  0  0  0  0  3  0  0  0  0  0  0
  193.3070  176.5510  145.9500 C   0  0  0  0  0  3  0  0  0  0  0  0
  188.7360  174.8950  141.6220 C   0  0  0  0  0  0  0  0  0  0  0  0
  188.9710  173.6500  140.9610 N   0  0  0  0  0  2  0  0  0  0  0  0
  187.8470  175.6800  141.1960 O   0  0  0  0  0  0  0  0  0  0  0  0
  188.7250  173.8820  138.5480 C   0  0  1  0  0  3  0  0  0  0  0  0
  190.0620  173.3050  138.1390 C   0  0  2  0  0  0  0  0  0  0  0  0
  189.0650  172.4240  138.8590 C   0  0  1  0  0  3  0  0  0  0  0  0
  191.2650  173.7320  138.9690 C   0  0  0  0  0  1  0  0  0  0  0  0
  188.1910  173.2230  139.8090 C   0  0  1  0  0  3  0  0  0  0  0  0
  190.2240  172.9950  136.6510 C   0  0  1  0  0  3  0  0  0  0  0  0
  190.1700  174.2440  135.8260 C   0  0  0  0  0  3  0  0  0  0  0  0
  191.1420  174.9800  135.7490 O   0  0  0  0  0  0  0  0  0  0  0  0
  191.4420  172.3410  136.4300 O   0  0  0  0  0  0  0  0  0  0  0  0
  192.0470  170.2080  135.8560 C   0  0  0  0  0  0  0  0  0  0  0  0
  190.1910  169.2030  137.2370 C   0  0  0  0  0  3  0  0  0  0  0  0
  192.5280  168.2090  136.8480 C   0  0  0  0  0  3  0  0  0  0  0  0
  191.1830  168.1770  137.4310 C   0  0  0  0  0  3  0  0  0  0  0  0
  193.0230  169.2690  136.0100 C   0  0  0  0  0  3  0  0  0  0  0  0
  190.7080  170.1760  136.4360 C   0  0  0  0  0  0  0  0  0  0  0  0
  191.1260  171.2430  135.6240 C   0  0  1  0  0  3  0  0  0  0  0  0
  189.0570  175.8610  146.4390 C   0  0  0  0  0  2  0  0  0  0  0  0
  185.5090  177.0510  147.0440 C   0  0  0  0  0  3  0  0  0  0  0  0
  185.3720  178.0260  146.0500 C   0  0  0  0  0  0  0  0  0  0  0  0
  187.6470  177.6010  145.3230 C   0  0  0  0  0  3  0  0  0  0  0  0
  186.7130  176.3570  147.1820 C   0  0  0  0  0  3  0  0  0  0  0  0
  187.7860  176.6360  146.3250 C   0  0  0  0  0  0  0  0  0  0  0  0
  186.4420  178.2970  145.1870 C   0  0  0  0  0  3  0  0  0  0  0  0
  183.9410  179.2640  144.4690 C   0  0  0  0  0  1  0  0  0  0  0  0
  184.0810  178.7520  145.8920 C   0  0  0  0  0  2  0  0  0  0  0  0
  1  8  1  0  0  0  0
  2 13  1  0  0  0  0
  2 12  1  0  0  0  0
  3 14  2  0  0  0  0
  4 15  1  0  0  0  0
  5  9  1  0  0  0  0
  5  1  2  0  0  0  0
  6  1  1  0  0  0  0
  7 11  1  0  0  0  0
  7  4  1  0  0  0  0
  8  4  2  0  0  0  0
  9  7  2  0  0  0  0
 10  3  1  0  0  0  0
 10 11  1  0  0  0  0
 11  2  2  0  0  0  0
 13 35  1  0  0  0  0
 14 13  1  0  0  0  0
 15 12  2  0  0  0  0
 16  3  1  0  0  0  0
 17 16  1  0  0  0  0
 18 16  2  0  0  0  0
 19 21  1  0  0  0  0
 19 23  1  0  0  0  0
 20 19  1  0  0  0  0
 20 21  1  0  0  0  0
 20 22  1  0  0  0  0
 21 23  1  0  0  0  0
 23 17  1  0  0  0  0
 24 20  1  0  0  0  0
 25 24  1  0  0  0  0
 26 25  2  0  0  0  0
 27 24  1  0  0  0  0
 28 32  2  0  0  0  0
 28 33  1  0  0  0  0
 29 31  1  0  0  0  0
 30 31  2  0  0  0  0
 32 30  1  0  0  0  0
 33 29  2  0  0  0  0
 34 28  1  0  0  0  0
 34 27  1  0  0  0  0
 34 33  1  0  0  0  0
 36 39  1  0  0  0  0
 37 36  2  0  0  0  0
 38 40  1  0  0  0  0
 40 35  1  0  0  0  0
 40 39  2  0  0  0  0
 41 38  2  0  0  0  0
 41 37  1  0  0  0  0
 42 43  1  0  0  0  0
 43 37  1  0  0  0  0
M  END
>  <MODEL>
8

>  <REMARK>
 VINA RESULT:      -7.1      4.029      7.462
  Name = 
  9 active torsions:
  status: ('A' for Active; 'I' for Inactive)
    1  A    between atoms: C_1  and  N_34
    2  A    between atoms: C_1  and  C_35
    3  A    between atoms: C_2  and  C_13
    4  A    between atoms: C_4  and  C_22
    5  A    between atoms: N_6  and  C_17
    6  A    between atoms: C_10  and  C_22
    7  A    between atoms: O_14  and  C_22
    8  A    between atoms: O_14  and  C_41
    9  A    between atoms: C_19  and  C_37
                            x       y       z     vdW  Elec       q    Type
                         _______ _______ _______ _____ _____    ______ ____

>  <TORSDO>
F 9

$$$$
=
 OpenBabel11052420473D

 43 50  0  0  1  0  0  0  0  0999 V2000
  184.4820  178.6060  144.2150 C   0  0  0  0  0  0  0  0  0  0  0  0
  188.6200  176.1310  145.7200 C   0  0  0  0  0  0  0  0  0  0  0  0
  189.4280  174.5120  143.5460 C   0  0  0  0  0  0  0  0  0  0  0  0
  186.3510  177.7650  145.5060 C   0  0  0  0  0  0  0  0  0  0  0  0
  184.8690  177.8130  143.1300 C   0  0  0  0  0  3  0  0  0  0  0  0
  183.3870  179.3960  144.1190 F   0  0  0  0  0  0  0  0  0  0  0  0
  186.7460  176.9620  144.4100 C   0  0  0  0  0  0  0  0  0  0  0  0
  185.2210  178.5810  145.4020 C   0  0  0  0  0  3  0  0  0  0  0  0
  185.9970  176.9940  143.2270 C   0  0  0  0  0  3  0  0  0  0  0  0
  188.2960  175.3350  143.4580 O   0  0  0  0  0  0  0  0  0  0  0  0
  187.8810  176.1450  144.5240 C   0  0  0  0  0  0  0  0  0  0  0  0
  188.2180  176.9300  146.7990 C   0  0  0  0  0  3  0  0  0  0  0  0
  189.7820  175.2840  145.8000 N   0  0  0  0  0  0  0  0  0  0  0  0
  190.1500  174.4800  144.6730 C   0  0  0  0  0  3  0  0  0  0  0  0
  187.0880  177.7430  146.6910 C   0  0  0  0  0  3  0  0  0  0  0  0
  189.8150  173.6860  142.3930 C   0  0  0  0  0  0  0  0  0  0  0  0
  188.9050  173.4950  141.3080 N   0  0  0  0  0  2  0  0  0  0  0  0
  190.9510  173.1410  142.3710 O   0  0  0  0  0  0  0  0  0  0  0  0
  188.2190  172.9210  139.0410 C   0  0  1  0  0  3  0  0  0  0  0  0
  188.3340  174.2980  138.4260 C   0  0  2  0  0  0  0  0  0  0  0  0
  189.5750  173.6240  138.9700 C   0  0  1  0  0  3  0  0  0  0  0  0
  187.8110  175.4590  139.2630 C   0  0  0  0  0  1  0  0  0  0  0  0
  189.2510  172.7060  140.1350 C   0  0  1  0  0  3  0  0  0  0  0  0
  188.2590  174.3530  136.9010 C   0  0  1  0  0  3  0  0  0  0  0  0
  187.3950  175.4850  136.4390 C   0  0  0  0  0  3  0  0  0  0  0  0
  187.8940  176.5150  136.0140 O   0  0  0  0  0  0  0  0  0  0  0  0
  189.5450  174.4990  136.3650 O   0  0  0  0  0  0  0  0  0  0  0  0
  190.8400  173.0500  135.1520 C   0  0  0  0  0  0  0  0  0  0  0  0
  189.6800  171.0360  136.1330 C   0  0  0  0  0  3  0  0  0  0  0  0
  192.1550  171.2110  135.4670 C   0  0  0  0  0  3  0  0  0  0  0  0
  191.0020  170.4800  136.0010 C   0  0  0  0  0  3  0  0  0  0  0  0
  192.1090  172.5750  135.0090 C   0  0  0  0  0  3  0  0  0  0  0  0
  189.6910  172.3210  135.6830 C   0  0  0  0  0  0  0  0  0  0  0  0
  189.5750  173.6530  135.2520 C   0  0  1  0  0  3  0  0  0  0  0  0
  190.6440  175.2820  146.9760 C   0  0  0  0  0  2  0  0  0  0  0  0
  194.1910  176.2350  146.0360 C   0  0  0  0  0  3  0  0  0  0  0  0
  194.7340  174.9880  145.7090 C   0  0  0  0  0  0  0  0  0  0  0  0
  192.6120  173.9310  146.2270 C   0  0  0  0  0  3  0  0  0  0  0  0
  192.8650  176.3300  146.4650 C   0  0  0  0  0  3  0  0  0  0  0  0
  192.0750  175.1770  146.5670 C   0  0  0  0  0  0  0  0  0  0  0  0
  193.9410  173.8360  145.8020 C   0  0  0  0  0  3  0  0  0  0  0  0
  196.7150  173.5250  145.5770 C   0  0  0  0  0  1  0  0  0  0  0  0
  196.1430  174.8900  145.2350 C   0  0  0  0  0  2  0  0  0  0  0  0
  1  8  1  0  0  0  0
  2 13  1  0  0  0  0
  2 12  1  0  0  0  0
  3 14  2  0  0  0  0
  4 15  1  0  0  0  0
  5  9  1  0  0  0  0
  5  1  2  0  0  0  0
  6  1  1  0  0  0  0
  7 11  1  0  0  0  0
  7  4  1  0  0  0  0
  8  4  2  0  0  0  0
  9  7  2  0  0  0  0
 10  3  1  0  0  0  0
 10 11  1  0  0  0  0
 11  2  2  0  0  0  0
 13 35  1  0  0  0  0
 14 13  1  0  0  0  0
 15 12  2  0  0  0  0
 16  3  1  0  0  0  0
 17 16  1  0  0  0  0
 18 16  2  0  0  0  0
 19 23  1  0  0  0  0
 20 21  1  0  0  0  0
 20 19  1  0  0  0  0
 20 22  1  0  0  0  0
 21 19  1  0  0  0  0
 21 23  1  0  0  0  0
 23 17  1  0  0  0  0
 24 20  1  0  0  0  0
 25 24  1  0  0  0  0
 26 25  2  0  0  0  0
 27 24  1  0  0  0  0
 28 34  1  0  0  0  0
 28 33  1  0  0  0  0
 30 31  2  0  0  0  0
 31 29  1  0  0  0  0
 32 28  2  0  0  0  0
 32 30  1  0  0  0  0
 33 29  2  0  0  0  0
 34 33  1  0  0  0  0
 34 27  1  0  0  0  0
 36 39  1  0  0  0  0
 37 41  1  0  0  0  0
 37 36  2  0  0  0  0
 38 40  1  0  0  0  0
 39 40  2  0  0  0  0
 40 35  1  0  0  0  0
 41 38  2  0  0  0  0
 43 42  1  0  0  0  0
 43 37  1  0  0  0  0
M  END
>  <MODEL>
9

>  <REMARK>
 VINA RESULT:      -7.0      3.253      5.266
  Name = 
  9 active torsions:
  status: ('A' for Active; 'I' for Inactive)
    1  A    between atoms: C_1  and  N_34
    2  A    between atoms: C_1  and  C_35
    3  A    between atoms: C_2  and  C_13
    4  A    between atoms: C_4  and  C_22
    5  A    between atoms: N_6  and  C_17
    6  A    between atoms: C_10  and  C_22
    7  A    between atoms: O_14  and  C_22
    8  A    between atoms: O_14  and  C_41
    9  A    between atoms: C_19  and  C_37
                            x       y       z     vdW  Elec       q    Type
                         _______ _______ _______ _____ _____    ______ ____

>  <TORSDO>
F 9

$$$$
