=
 OpenBabel11052420503D

 43 49  0  0  1  0  0  0  0  0999 V2000
  185.9340  178.9800  143.9810 C   0  0  0  0  0  0  0  0  0  0  0  0
  188.2990  175.2430  141.3470 C   0  0  2  0  0  3  0  0  0  0  0  0
  189.6430  173.6640  143.1610 C   0  0  2  0  0  3  0  0  0  0  0  0
  186.9620  177.6220  142.2520 C   0  0  0  0  0  0  0  0  0  0  0  0
  186.0280  177.9150  144.8780 C   0  0  0  0  0  3  0  0  0  0  0  0
  185.3670  180.1780  144.3910 O   0  0  0  0  0  1  0  0  0  0  0  0
  187.0970  176.5490  143.1710 C   0  0  0  0  0  0  0  0  0  0  0  0
  186.3980  178.8300  142.6730 C   0  0  0  0  0  3  0  0  0  0  0  0
  186.6010  176.7050  144.4740 C   0  0  0  0  0  3  0  0  0  0  0  0
  188.5990  174.6190  143.7700 C   0  0  0  0  0  2  0  0  0  0  0  0
  187.6390  175.2110  142.7340 C   0  0  2  0  0  3  0  0  0  0  0  0
  187.4660  176.0580  140.3620 C   0  0  0  0  0  2  0  0  0  0  0  0
  188.5470  173.8090  140.8530 C   0  0  2  0  0  3  0  0  0  0  0  0
  189.0910  172.8780  141.9670 C   0  0  0  0  0  2  0  0  0  0  0  0
  187.4470  177.5060  140.8350 C   0  0  0  0  0  2  0  0  0  0  0  0
  189.4130  173.7730  139.5860 C   0  0  2  0  0  3  0  0  0  0  0  0
  191.5750  174.1170  137.6040 C   0  0  0  0  0  2  0  0  0  0  0  0
  190.5340  173.9240  136.5000 C   0  0  0  0  0  0  0  0  0  0  0  0
  190.8040  174.8450  135.5000 F   0  0  0  0  0  0  0  0  0  0  0  0
  188.5480  172.9320  138.2180 S   0  0  0  0  0  0  0  0  0  0  0  0
  191.6150  172.9350  138.5670 C   0  0  0  0  0  2  0  0  0  0  0  0
  190.8140  173.1940  139.8410 C   0  0  0  0  0  2  0  0  0  0  0  0
  190.6310  172.6530  135.9590 F   0  0  0  0  0  0  0  0  0  0  0  0
  189.1050  174.1720  136.9990 C   0  0  0  0  0  2  0  0  0  0  0  0
  190.2240  172.7630  144.2010 C   0  0  0  0  0  0  0  0  0  0  0  0
  191.5240  173.0560  144.7160 N   0  0  0  0  0  2  0  0  0  0  0  0
  189.4460  171.9720  144.8720 N   0  0  0  0  0  2  0  0  0  0  0  0
  192.7610  172.7710  143.9910 C   0  0  2  0  0  3  0  0  0  0  0  0
  192.9170  171.2830  143.7360 C   0  0  0  0  0  1  0  0  0  0  0  0
  193.9850  173.3270  144.7590 C   0  0  2  0  0  3  0  0  0  0  0  0
  194.0340  174.7970  144.9020 C   0  0  1  0  0  3  0  0  0  0  0  0
  195.6060  174.8900  141.7410 C   0  0  0  0  0  1  0  0  0  0  0  0
  194.9480  174.1390  143.9630 N   0  0  2  0  0  0  0  0  0  0  0  0
  193.0680  175.5780  144.0380 C   0  0  2  0  0  3  0  0  0  0  0  0
  193.5470  175.5860  142.7200 O   0  0  0  0  0  0  0  0  0  0  0  0
  194.4460  174.5070  142.6360 C   0  0  1  0  0  3  0  0  0  0  0  0
  192.0870  177.8340  143.7060 C   0  0  0  0  0  2  0  0  0  0  0  0
  192.8640  176.9310  144.5740 N   0  0  1  0  0  0  0  0  0  0  0  0
  190.4220  176.5450  147.2940 F   0  0  0  0  0  0  0  0  0  0  0  0
  190.0880  177.5770  145.1850 C   0  0  0  0  0  2  0  0  0  0  0  0
  190.8560  176.5410  145.9870 C   0  0  1  0  0  3  0  0  0  0  0  0
  190.5820  177.5580  143.7470 C   0  0  0  0  0  2  0  0  0  0  0  0
  192.3490  176.8670  145.9470 C   0  0  0  0  0  2  0  0  0  0  0  0
  1  6  1  0  0  0  0
  1  5  1  0  0  0  0
  2 12  1  6  0  0  0
  2 11  1  0  0  0  0
  3 10  1  0  0  0  0
  3 25  1  1  0  0  0
  4  8  1  0  0  0  0
  4  7  2  0  0  0  0
  7  9  1  0  0  0  0
  8  1  2  0  0  0  0
  9  5  2  0  0  0  0
 11  7  1  0  0  0  0
 11 10  1  1  0  0  0
 12 15  1  0  0  0  0
 13  2  1  0  0  0  0
 13 14  1  1  0  0  0
 14  3  1  0  0  0  0
 15  4  1  0  0  0  0
 16 22  1  1  0  0  0
 16 13  1  0  0  0  0
 17 21  1  0  0  0  0
 18 24  1  0  0  0  0
 18 17  1  0  0  0  0
 19 18  1  0  0  0  0
 20 16  1  0  0  0  0
 21 22  1  0  0  0  0
 23 18  1  0  0  0  0
 24 20  1  0  0  0  0
 25 26  1  0  0  0  0
 25 27  2  0  0  0  0
 28 29  1  1  0  0  0
 28 26  1  0  0  0  0
 30 28  1  6  0  0  0
 30 31  1  0  0  0  0
 32 36  1  0  0  0  0
 33 30  1  0  0  0  0
 33 31  1  0  0  0  0
 34 38  1  0  0  0  0
 34 31  1  0  0  0  0
 35 34  1  0  0  0  0
 36 35  1  0  0  0  0
 36 33  1  0  0  0  0
 37 42  1  0  0  0  0
 37 38  1  0  0  0  0
 38 43  1  0  0  0  0
 40 41  1  0  0  0  0
 41 39  1  0  0  0  0
 42 40  1  0  0  0  0
 43 41  1  0  0  0  0
M  END
>  <MODEL>
1

>  <REMARK>
 VINA RESULT:      -8.3      0.000      0.000
  Name = 
  5 active torsions:
  status: ('A' for Active; 'I' for Inactive)
    1  A    between atoms: C_1  and  C_34
    2  A    between atoms: C_2  and  C_13
    3  A    between atoms: C_3  and  C_12
    4  A    between atoms: N_6  and  C_12
    5  A    between atoms: N_14  and  C_22
                            x       y       z     vdW  Elec       q    Type
                         _______ _______ _______ _____ _____    ______ ____

>  <TORSDO>
F 5

$$$$
=
 OpenBabel11052420503D

 43 49  0  0  1  0  0  0  0  0999 V2000
  188.2620  176.5580  146.4480 C   0  0  0  0  0  0  0  0  0  0  0  0
  189.9750  173.7770  142.4700 C   0  0  2  0  0  3  0  0  0  0  0  0
  192.0320  172.1890  143.3840 C   0  0  2  0  0  3  0  0  0  0  0  0
  188.7750  175.7020  144.2360 C   0  0  0  0  0  0  0  0  0  0  0  0
  188.7800  175.3960  147.0210 C   0  0  0  0  0  3  0  0  0  0  0  0
  187.7400  177.5540  147.2610 O   0  0  0  0  0  1  0  0  0  0  0  0
  189.3390  174.5360  144.8150 C   0  0  0  0  0  0  0  0  0  0  0  0
  188.2580  176.7070  145.0600 C   0  0  0  0  0  3  0  0  0  0  0  0
  189.3100  174.3890  146.2090 C   0  0  0  0  0  3  0  0  0  0  0  0
  191.1630  172.8330  144.4820 C   0  0  0  0  0  2  0  0  0  0  0  0
  189.8430  173.4040  143.9540 C   0  0  2  0  0  3  0  0  0  0  0  0
  188.7660  174.5790  141.9970 C   0  0  0  0  0  2  0  0  0  0  0  0
  190.1960  172.5090  141.6300 C   0  0  2  0  0  3  0  0  0  0  0  0
  191.1940  171.5220  142.2900 C   0  0  0  0  0  2  0  0  0  0  0  0
  188.7490  175.9060  142.7470 C   0  0  0  0  0  2  0  0  0  0  0  0
  190.5690  172.8330  140.1760 C   0  0  2  0  0  3  0  0  0  0  0  0
  191.9120  173.7900  137.7270 C   0  0  0  0  0  2  0  0  0  0  0  0
  190.5510  173.7770  137.0280 C   0  0  0  0  0  0  0  0  0  0  0  0
  190.4650  174.9220  136.2510 F   0  0  0  0  0  0  0  0  0  0  0  0
  189.2760  172.2660  139.0210 S   0  0  0  0  0  0  0  0  0  0  0  0
  192.2740  172.4240  138.3020 C   0  0  0  0  0  2  0  0  0  0  0  0
  191.9670  172.3210  139.7930 C   0  0  0  0  0  2  0  0  0  0  0  0
  190.4440  172.6760  136.1950 F   0  0  0  0  0  0  0  0  0  0  0  0
  189.3860  173.7930  138.0260 C   0  0  0  0  0  2  0  0  0  0  0  0
  193.0340  171.2490  143.9700 C   0  0  0  0  0  0  0  0  0  0  0  0
  194.2340  171.7860  144.5330 N   0  0  0  0  0  2  0  0  0  0  0  0
  192.6760  170.0450  144.2890 N   0  0  0  0  0  2  0  0  0  0  0  0
  195.3620  172.2540  143.7280 C   0  0  2  0  0  3  0  0  0  0  0  0
  195.8410  171.1740  142.7760 C   0  0  0  0  0  1  0  0  0  0  0  0
  196.5180  172.7350  144.6380 C   0  0  2  0  0  3  0  0  0  0  0  0
  196.4030  174.1210  145.1380 C   0  0  1  0  0  3  0  0  0  0  0  0
  197.9410  175.1600  142.1330 C   0  0  0  0  0  1  0  0  0  0  0  0
  197.3810  173.8180  144.0870 N   0  0  2  0  0  0  0  0  0  0  0  0
  195.3510  174.9790  144.4680 C   0  0  2  0  0  3  0  0  0  0  0  0
  195.8210  175.3630  143.2040 O   0  0  0  0  0  0  0  0  0  0  0  0
  196.8350  174.4440  142.8800 C   0  0  1  0  0  3  0  0  0  0  0  0
  194.2380  177.1910  144.6340 C   0  0  0  0  0  2  0  0  0  0  0  0
  195.0000  176.1270  145.3150 N   0  0  1  0  0  0  0  0  0  0  0  0
  192.3570  174.9110  147.5620 F   0  0  0  0  0  0  0  0  0  0  0  0
  192.1390  176.4520  145.7730 C   0  0  0  0  0  2  0  0  0  0  0  0
  192.9070  175.2770  146.3530 C   0  0  1  0  0  3  0  0  0  0  0  0
  192.7610  176.8420  144.4410 C   0  0  0  0  0  2  0  0  0  0  0  0
  194.3690  175.6740  146.5600 C   0  0  0  0  0  2  0  0  0  0  0  0
  1  5  1  0  0  0  0
  1  6  1  0  0  0  0
  2 12  1  6  0  0  0
  2 11  1  0  0  0  0
  3 25  1  1  0  0  0
  3 10  1  0  0  0  0
  4  7  2  0  0  0  0
  4  8  1  0  0  0  0
  7  9  1  0  0  0  0
  8  1  2  0  0  0  0
  9  5  2  0  0  0  0
 11 10  1  1  0  0  0
 11  7  1  0  0  0  0
 12 15  1  0  0  0  0
 13 14  1  1  0  0  0
 13  2  1  0  0  0  0
 14  3  1  0  0  0  0
 15  4  1  0  0  0  0
 16 22  1  6  0  0  0
 16 13  1  0  0  0  0
 17 21  1  0  0  0  0
 18 17  1  0  0  0  0
 18 24  1  0  0  0  0
 19 18  1  0  0  0  0
 20 16  1  0  0  0  0
 21 22  1  0  0  0  0
 23 18  1  0  0  0  0
 24 20  1  0  0  0  0
 25 27  2  0  0  0  0
 25 26  1  0  0  0  0
 28 29  1  1  0  0  0
 28 26  1  0  0  0  0
 30 28  1  6  0  0  0
 30 31  1  0  0  0  0
 32 36  1  0  0  0  0
 33 30  1  0  0  0  0
 33 31  1  0  0  0  0
 34 31  1  0  0  0  0
 34 38  1  0  0  0  0
 35 34  1  0  0  0  0
 36 35  1  0  0  0  0
 36 33  1  0  0  0  0
 37 38  1  0  0  0  0
 38 43  1  0  0  0  0
 40 41  1  0  0  0  0
 41 43  1  0  0  0  0
 41 39  1  0  0  0  0
 42 37  1  0  0  0  0
 42 40  1  0  0  0  0
M  END
>  <MODEL>
2

>  <REMARK>
 VINA RESULT:      -7.9      2.011      2.692
  Name = 
  5 active torsions:
  status: ('A' for Active; 'I' for Inactive)
    1  A    between atoms: C_1  and  C_34
    2  A    between atoms: C_2  and  C_13
    3  A    between atoms: C_3  and  C_12
    4  A    between atoms: N_6  and  C_12
    5  A    between atoms: N_14  and  C_22
                            x       y       z     vdW  Elec       q    Type
                         _______ _______ _______ _____ _____    ______ ____

>  <TORSDO>
F 5

$$$$
=
 OpenBabel11052420503D

 43 49  0  0  1  0  0  0  0  0999 V2000
  182.9030  178.7600  142.6640 C   0  0  0  0  0  0  0  0  0  0  0  0
  187.6740  177.1410  143.7150 C   0  0  2  0  0  3  0  0  0  0  0  0
  188.2890  175.1340  141.9310 C   0  0  2  0  0  3  0  0  0  0  0  0
  185.0340  178.2780  143.7200 C   0  0  0  0  0  0  0  0  0  0  0  0
  183.3920  178.2780  141.4490 C   0  0  0  0  0  3  0  0  0  0  0  0
  181.6070  179.2490  142.7390 O   0  0  0  0  0  1  0  0  0  0  0  0
  185.5230  177.7500  142.4980 C   0  0  0  0  0  0  0  0  0  0  0  0
  183.7230  178.7610  143.7930 C   0  0  0  0  0  3  0  0  0  0  0  0
  184.6960  177.7820  141.3650 C   0  0  0  0  0  3  0  0  0  0  0  0
  187.0540  175.9820  141.5660 C   0  0  0  0  0  2  0  0  0  0  0  0
  186.9520  177.2830  142.3660 C   0  0  2  0  0  3  0  0  0  0  0  0
  187.3670  178.3240  144.6280 C   0  0  0  0  0  2  0  0  0  0  0  0
  189.1830  176.9620  143.4840 C   0  0  2  0  0  3  0  0  0  0  0  0
  189.4970  175.9950  142.3120 C   0  0  0  0  0  2  0  0  0  0  0  0
  185.8800  178.2990  144.9610 C   0  0  0  0  0  2  0  0  0  0  0  0
  189.9270  176.5810  144.7720 C   0  0  2  0  0  3  0  0  0  0  0  0
  190.7300  176.1900  147.5860 C   0  0  0  0  0  2  0  0  0  0  0  0
  192.1830  176.1050  147.1140 C   0  0  0  0  0  0  0  0  0  0  0  0
  192.9610  176.8160  148.0150 F   0  0  0  0  0  0  0  0  0  0  0  0
  191.5320  175.7980  144.4000 S   0  0  0  0  0  0  0  0  0  0  0  0
  189.8440  175.1520  146.9030 C   0  0  0  0  0  2  0  0  0  0  0  0
  189.0670  175.7360  145.7260 C   0  0  0  0  0  2  0  0  0  0  0  0
  192.6140  174.7900  147.1080 F   0  0  0  0  0  0  0  0  0  0  0  0
  192.3780  176.7270  145.7250 C   0  0  0  0  0  2  0  0  0  0  0  0
  188.6160  174.1620  140.8450 C   0  0  0  0  0  0  0  0  0  0  0  0
  188.5950  172.7640  141.1450 N   0  0  0  0  0  2  0  0  0  0  0  0
  188.5610  174.5390  139.6060 N   0  0  0  0  0  2  0  0  0  0  0  0
  189.6610  172.0810  141.8770 C   0  0  2  0  0  3  0  0  0  0  0  0
  189.3160  171.9470  143.3490 C   0  0  0  0  0  1  0  0  0  0  0  0
  191.0080  172.8210  141.6960 C   0  0  2  0  0  3  0  0  0  0  0  0
  191.7630  172.4820  140.4710 C   0  0  1  0  0  3  0  0  0  0  0  0
  193.1530  169.7800  142.2710 C   0  0  0  0  0  1  0  0  0  0  0  0
  192.2360  171.9790  141.7650 N   0  0  2  0  0  0  0  0  0  0  0  0
  191.2850  171.2590  139.7180 C   0  0  2  0  0  3  0  0  0  0  0  0
  191.6950  170.1130  140.4140 O   0  0  0  0  0  0  0  0  0  0  0  0
  191.9610  170.5400  141.7280 C   0  0  1  0  0  3  0  0  0  0  0  0
  191.6710  169.9920  137.6190 C   0  0  0  0  0  2  0  0  0  0  0  0
  191.7650  171.2810  138.3300 N   0  0  1  0  0  0  0  0  0  0  0  0
  189.2130  173.1360  136.4440 F   0  0  0  0  0  0  0  0  0  0  0  0
  189.6920  170.8170  136.3330 C   0  0  0  0  0  2  0  0  0  0  0  0
  189.7150  172.0820  137.1730 C   0  0  1  0  0  3  0  0  0  0  0  0
  190.2500  169.6650  137.1550 C   0  0  0  0  0  2  0  0  0  0  0  0
  191.1520  172.3920  137.5910 C   0  0  0  0  0  2  0  0  0  0  0  0
  1  6  1  0  0  0  0
  1  8  1  0  0  0  0
  2 12  1  1  0  0  0
  3 25  1  6  0  0  0
  3 14  1  0  0  0  0
  4  8  2  0  0  0  0
  4 15  1  0  0  0  0
  5  1  2  0  0  0  0
  7  4  1  0  0  0  0
  9  5  1  0  0  0  0
  9  7  2  0  0  0  0
 10  3  1  0  0  0  0
 11 10  1  1  0  0  0
 11  7  1  0  0  0  0
 11  2  1  0  0  0  0
 12 15  1  0  0  0  0
 13 14  1  6  0  0  0
 13  2  1  0  0  0  0
 13 16  1  0  0  0  0
 16 22  1  6  0  0  0
 18 17  1  0  0  0  0
 18 19  1  0  0  0  0
 20 16  1  0  0  0  0
 20 24  1  0  0  0  0
 21 17  1  0  0  0  0
 22 21  1  0  0  0  0
 23 18  1  0  0  0  0
 24 18  1  0  0  0  0
 25 26  1  0  0  0  0
 26 28  1  0  0  0  0
 27 25  2  0  0  0  0
 28 29  1  1  0  0  0
 30 33  1  0  0  0  0
 30 28  1  6  0  0  0
 31 30  1  0  0  0  0
 31 33  1  0  0  0  0
 34 35  1  0  0  0  0
 34 31  1  0  0  0  0
 35 36  1  0  0  0  0
 36 33  1  0  0  0  0
 36 32  1  0  0  0  0
 37 38  1  0  0  0  0
 38 34  1  0  0  0  0
 39 41  1  0  0  0  0
 40 42  1  0  0  0  0
 40 41  1  0  0  0  0
 41 43  1  0  0  0  0
 42 37  1  0  0  0  0
 43 38  1  0  0  0  0
M  END
>  <MODEL>
3

>  <REMARK>
 VINA RESULT:      -7.6      2.882      6.873
  Name = 
  5 active torsions:
  status: ('A' for Active; 'I' for Inactive)
    1  A    between atoms: C_1  and  C_34
    2  A    between atoms: C_2  and  C_13
    3  A    between atoms: C_3  and  C_12
    4  A    between atoms: N_6  and  C_12
    5  A    between atoms: N_14  and  C_22
                            x       y       z     vdW  Elec       q    Type
                         _______ _______ _______ _____ _____    ______ ____

>  <TORSDO>
F 5

$$$$
=
 OpenBabel11052420503D

 43 49  0  0  1  0  0  0  0  0999 V2000
  188.5350  177.3650  145.5780 C   0  0  0  0  0  0  0  0  0  0  0  0
  192.7850  174.5420  144.8970 C   0  0  2  0  0  3  0  0  0  0  0  0
  193.4870  174.7160  142.2400 C   0  0  2  0  0  3  0  0  0  0  0  0
  190.3480  175.7680  145.8060 C   0  0  0  0  0  0  0  0  0  0  0  0
  189.1880  177.9580  144.4970 C   0  0  0  0  0  3  0  0  0  0  0  0
  187.3160  177.8700  146.0090 O   0  0  0  0  0  1  0  0  0  0  0  0
  190.9980  176.3420  144.6830 C   0  0  0  0  0  0  0  0  0  0  0  0
  189.1160  176.2750  146.2300 C   0  0  0  0  0  3  0  0  0  0  0  0
  190.4150  177.4530  144.0560 C   0  0  0  0  0  3  0  0  0  0  0  0
  192.4570  175.7590  142.7150 C   0  0  0  0  0  2  0  0  0  0  0  0
  192.3590  175.8640  144.2400 C   0  0  2  0  0  3  0  0  0  0  0  0
  192.4510  174.5380  146.3870 C   0  0  0  0  0  2  0  0  0  0  0  0
  194.2770  174.2850  144.6350 C   0  0  2  0  0  3  0  0  0  0  0  0
  194.6930  174.6150  143.1780 C   0  0  0  0  0  2  0  0  0  0  0  0
  190.9360  174.5940  146.5370 C   0  0  0  0  0  2  0  0  0  0  0  0
  194.7070  172.8750  145.0620 C   0  0  2  0  0  3  0  0  0  0  0  0
  194.8140  170.1550  146.2070 C   0  0  0  0  0  2  0  0  0  0  0  0
  196.3410  170.2630  146.2080 C   0  0  0  0  0  0  0  0  0  0  0  0
  196.8000  169.7220  147.3990 F   0  0  0  0  0  0  0  0  0  0  0  0
  196.4190  172.5200  144.5420 S   0  0  0  0  0  0  0  0  0  0  0  0
  194.2260  170.3650  144.8150 C   0  0  0  0  0  2  0  0  0  0  0  0
  193.7180  171.7890  144.6080 C   0  0  0  0  0  2  0  0  0  0  0  0
  196.8790  169.5340  145.1620 F   0  0  0  0  0  0  0  0  0  0  0  0
  196.8190  171.7180  146.1320 C   0  0  0  0  0  2  0  0  0  0  0  0
  193.9000  174.9700  140.8260 C   0  0  0  0  0  0  0  0  0  0  0  0
  193.2300  174.2660  139.7780 N   0  0  0  0  0  2  0  0  0  0  0  0
  194.5710  176.0400  140.5360 N   0  0  0  0  0  2  0  0  0  0  0  0
  193.4960  172.8660  139.4490 C   0  0  2  0  0  3  0  0  0  0  0  0
  194.8990  172.6910  138.8970 C   0  0  0  0  0  1  0  0  0  0  0  0
  192.4420  172.3320  138.4490 C   0  0  2  0  0  3  0  0  0  0  0  0
  191.1700  171.8750  139.0460 C   0  0  1  0  0  3  0  0  0  0  0  0
  192.7170  168.7400  139.5480 C   0  0  0  0  0  1  0  0  0  0  0  0
  192.1220  170.8790  138.5450 N   0  0  2  0  0  0  0  0  0  0  0  0
  191.1700  171.7060  140.5500 C   0  0  2  0  0  3  0  0  0  0  0  0
  191.8620  170.5300  140.8710 O   0  0  0  0  0  0  0  0  0  0  0  0
  192.6600  170.2400  139.7490 C   0  0  1  0  0  3  0  0  0  0  0  0
  189.6890  171.5390  142.5360 C   0  0  0  0  0  2  0  0  0  0  0  0
  189.7970  171.7160  141.0750 N   0  0  1  0  0  0  0  0  0  0  0  0
  188.6960  175.2160  140.8630 F   0  0  0  0  0  0  0  0  0  0  0  0
  189.1940  173.9730  142.8190 C   0  0  0  0  0  2  0  0  0  0  0  0
  189.4480  174.1640  141.3340 C   0  0  1  0  0  3  0  0  0  0  0  0
  190.0320  172.8070  143.3210 C   0  0  0  0  0  2  0  0  0  0  0  0
  189.0660  172.8890  140.5820 C   0  0  0  0  0  2  0  0  0  0  0  0
  1  6  1  0  0  0  0
  1  8  1  0  0  0  0
  2 12  1  1  0  0  0
  3 25  1  6  0  0  0
  3 10  1  0  0  0  0
  3 14  1  0  0  0  0
  4  8  2  0  0  0  0
  4 15  1  0  0  0  0
  5  1  2  0  0  0  0
  7  4  1  0  0  0  0
  9  5  1  0  0  0  0
  9  7  2  0  0  0  0
 11 10  1  6  0  0  0
 11  7  1  0  0  0  0
 11  2  1  0  0  0  0
 12 15  1  0  0  0  0
 13 14  1  6  0  0  0
 13  2  1  0  0  0  0
 13 16  1  0  0  0  0
 16 22  1  6  0  0  0
 17 18  1  0  0  0  0
 18 19  1  0  0  0  0
 20 16  1  0  0  0  0
 20 24  1  0  0  0  0
 21 17  1  0  0  0  0
 22 21  1  0  0  0  0
 23 18  1  0  0  0  0
 24 18  1  0  0  0  0
 26 25  1  0  0  0  0
 27 25  2  0  0  0  0
 28 29  1  6  0  0  0
 28 26  1  0  0  0  0
 30 33  1  0  0  0  0
 30 31  1  0  0  0  0
 30 28  1  1  0  0  0
 31 34  1  0  0  0  0
 32 36  1  0  0  0  0
 33 31  1  0  0  0  0
 33 36  1  0  0  0  0
 34 35  1  0  0  0  0
 34 38  1  0  0  0  0
 36 35  1  0  0  0  0
 37 42  1  0  0  0  0
 38 37  1  0  0  0  0
 39 41  1  0  0  0  0
 40 42  1  0  0  0  0
 41 40  1  0  0  0  0
 43 38  1  0  0  0  0
 43 41  1  0  0  0  0
M  END
>  <MODEL>
4

>  <REMARK>
 VINA RESULT:      -7.5      3.696      7.008
  Name = 
  5 active torsions:
  status: ('A' for Active; 'I' for Inactive)
    1  A    between atoms: C_1  and  C_34
    2  A    between atoms: C_2  and  C_13
    3  A    between atoms: C_3  and  C_12
    4  A    between atoms: N_6  and  C_12
    5  A    between atoms: N_14  and  C_22
                            x       y       z     vdW  Elec       q    Type
                         _______ _______ _______ _____ _____    ______ ____

>  <TORSDO>
F 5

$$$$
=
 OpenBabel11052420503D

 43 49  0  0  1  0  0  0  0  0999 V2000
  190.4820  171.4970  139.4890 C   0  0  0  0  0  0  0  0  0  0  0  0
  189.4720  175.2120  142.9050 C   0  0  2  0  0  3  0  0  0  0  0  0
  191.8330  175.8430  144.1760 C   0  0  2  0  0  3  0  0  0  0  0  0
  189.4080  173.0370  141.0270 C   0  0  0  0  0  0  0  0  0  0  0  0
  191.6810  172.2010  139.6160 C   0  0  0  0  0  3  0  0  0  0  0  0
  190.4180  170.3910  138.6530 O   0  0  0  0  0  1  0  0  0  0  0  0
  190.6340  173.7320  141.1910 C   0  0  0  0  0  0  0  0  0  0  0  0
  189.3510  171.9170  140.1910 C   0  0  0  0  0  3  0  0  0  0  0  0
  191.7540  173.3150  140.4580 C   0  0  0  0  0  3  0  0  0  0  0  0
  191.9840  175.0110  142.8880 C   0  0  0  0  0  2  0  0  0  0  0  0
  190.7150  174.9820  142.0310 C   0  0  2  0  0  3  0  0  0  0  0  0
  188.1930  174.9330  142.1220 C   0  0  0  0  0  2  0  0  0  0  0  0
  189.4990  176.6340  143.4880 C   0  0  2  0  0  3  0  0  0  0  0  0
  190.9060  177.0480  143.9890 C   0  0  0  0  0  2  0  0  0  0  0  0
  188.1660  173.4520  141.7620 C   0  0  0  0  0  2  0  0  0  0  0  0
  188.4130  176.8460  144.5520 C   0  0  2  0  0  3  0  0  0  0  0  0
  186.7430  176.7050  146.9840 C   0  0  0  0  0  2  0  0  0  0  0  0
  185.5700  177.2320  146.1550 C   0  0  0  0  0  0  0  0  0  0  0  0
  184.4390  176.5190  146.5230 F   0  0  0  0  0  0  0  0  0  0  0  0
  187.1560  178.0410  143.9850 S   0  0  0  0  0  0  0  0  0  0  0  0
  187.9420  177.6480  146.9450 C   0  0  0  0  0  2  0  0  0  0  0  0
  188.9930  177.2100  145.9280 C   0  0  0  0  0  2  0  0  0  0  0  0
  185.3480  178.5710  146.4280 F   0  0  0  0  0  0  0  0  0  0  0  0
  185.7860  177.0340  144.6500 C   0  0  0  0  0  2  0  0  0  0  0  0
  193.1660  176.2430  144.7200 C   0  0  0  0  0  0  0  0  0  0  0  0
  194.2960  175.4090  144.4530 N   0  0  0  0  0  2  0  0  0  0  0  0
  193.3640  177.4670  145.0990 N   0  0  0  0  0  2  0  0  0  0  0  0
  194.5520  174.1510  145.1530 C   0  0  2  0  0  3  0  0  0  0  0  0
  193.4740  173.8680  146.1830 C   0  0  0  0  0  1  0  0  0  0  0  0
  195.9510  174.1710  145.8160 C   0  0  2  0  0  3  0  0  0  0  0  0
  197.0990  174.1550  144.8840 C   0  0  1  0  0  3  0  0  0  0  0  0
  196.8300  170.6340  144.8710 C   0  0  0  0  0  1  0  0  0  0  0  0
  196.7770  172.9430  145.6450 N   0  0  2  0  0  0  0  0  0  0  0  0
  196.7750  173.8200  143.4440 C   0  0  2  0  0  3  0  0  0  0  0  0
  196.5410  172.4420  143.3440 O   0  0  0  0  0  0  0  0  0  0  0  0
  196.2400  172.0110  144.6490 C   0  0  1  0  0  3  0  0  0  0  0  0
  197.9410  173.5520  141.2690 C   0  0  0  0  0  2  0  0  0  0  0  0
  197.8470  174.2780  142.5490 N   0  0  1  0  0  0  0  0  0  0  0  0
  196.7150  177.5270  141.2550 F   0  0  0  0  0  0  0  0  0  0  0  0
  196.9070  175.4840  140.0670 C   0  0  0  0  0  2  0  0  0  0  0  0
  196.6870  176.1590  141.4100 C   0  0  1  0  0  3  0  0  0  0  0  0
  196.8730  173.9750  140.2580 C   0  0  0  0  0  2  0  0  0  0  0  0
  197.7890  175.7350  142.3810 C   0  0  0  0  0  2  0  0  0  0  0  0
  1  5  2  0  0  0  0
  1  8  1  0  0  0  0
  2 12  1  6  0  0  0
  2 13  1  0  0  0  0
  3 25  1  6  0  0  0
  4  7  1  0  0  0  0
  4 15  1  0  0  0  0
  5  9  1  0  0  0  0
  6  1  1  0  0  0  0
  7 11  1  0  0  0  0
  8  4  2  0  0  0  0
  9  7  2  0  0  0  0
 10  3  1  0  0  0  0
 11 10  1  1  0  0  0
 11  2  1  0  0  0  0
 13 14  1  1  0  0  0
 13 16  1  0  0  0  0
 14  3  1  0  0  0  0
 15 12  1  0  0  0  0
 16 22  1  1  0  0  0
 18 23  1  0  0  0  0
 18 19  1  0  0  0  0
 18 17  1  0  0  0  0
 20 16  1  0  0  0  0
 20 24  1  0  0  0  0
 21 17  1  0  0  0  0
 22 21  1  0  0  0  0
 24 18  1  0  0  0  0
 25 27  2  0  0  0  0
 26 25  1  0  0  0  0
 26 28  1  0  0  0  0
 28 29  1  1  0  0  0
 30 28  1  6  0  0  0
 31 33  1  0  0  0  0
 31 30  1  0  0  0  0
 33 30  1  0  0  0  0
 34 31  1  0  0  0  0
 35 34  1  0  0  0  0
 35 36  1  0  0  0  0
 36 32  1  0  0  0  0
 36 33  1  0  0  0  0
 37 38  1  0  0  0  0
 38 34  1  0  0  0  0
 39 41  1  0  0  0  0
 40 42  1  0  0  0  0
 40 41  1  0  0  0  0
 41 43  1  0  0  0  0
 42 37  1  0  0  0  0
 43 38  1  0  0  0  0
M  END
>  <MODEL>
5

>  <REMARK>
 VINA RESULT:      -7.3      3.798      7.067
  Name = 
  5 active torsions:
  status: ('A' for Active; 'I' for Inactive)
    1  A    between atoms: C_1  and  C_34
    2  A    between atoms: C_2  and  C_13
    3  A    between atoms: C_3  and  C_12
    4  A    between atoms: N_6  and  C_12
    5  A    between atoms: N_14  and  C_22
                            x       y       z     vdW  Elec       q    Type
                         _______ _______ _______ _____ _____    ______ ____

>  <TORSDO>
F 5

$$$$
=
 OpenBabel11052420503D

 43 49  0  0  1  0  0  0  0  0999 V2000
  190.4640  172.6880  139.9200 C   0  0  0  0  0  0  0  0  0  0  0  0
  188.8920  176.2130  143.3260 C   0  0  2  0  0  3  0  0  0  0  0  0
  190.7190  176.2570  145.3870 C   0  0  2  0  0  3  0  0  0  0  0  0
  189.1640  174.2650  141.2280 C   0  0  0  0  0  0  0  0  0  0  0  0
  191.6330  173.1310  140.5410 C   0  0  0  0  0  3  0  0  0  0  0  0
  190.5310  171.6940  138.9550 O   0  0  0  0  0  1  0  0  0  0  0  0
  190.3440  174.6920  141.8920 C   0  0  0  0  0  0  0  0  0  0  0  0
  189.2360  173.2560  140.2620 C   0  0  0  0  0  3  0  0  0  0  0  0
  191.5730  174.1300  141.5170 C   0  0  0  0  0  3  0  0  0  0  0  0
  191.1860  175.5280  144.1120 C   0  0  0  0  0  2  0  0  0  0  0  0
  190.3130  175.8230  142.8890 C   0  0  2  0  0  3  0  0  0  0  0  0
  187.9440  176.2580  142.1310 C   0  0  0  0  0  2  0  0  0  0  0  0
  188.9270  177.5450  144.0910 C   0  0  2  0  0  3  0  0  0  0  0  0
  190.1130  177.6310  145.0870 C   0  0  0  0  0  2  0  0  0  0  0  0
  187.8210  174.8480  141.5650 C   0  0  0  0  0  2  0  0  0  0  0  0
  187.5810  177.8690  144.7550 C   0  0  2  0  0  3  0  0  0  0  0  0
  185.1450  179.2130  145.7440 C   0  0  0  0  0  2  0  0  0  0  0  0
  185.0470  178.1400  146.8300 C   0  0  0  0  0  0  0  0  0  0  0  0
  184.6910  178.7680  148.0130 F   0  0  0  0  0  0  0  0  0  0  0  0
  186.9080  176.4160  145.6270 S   0  0  0  0  0  0  0  0  0  0  0  0
  185.1580  178.6100  144.3420 C   0  0  0  0  0  2  0  0  0  0  0  0
  186.5700  178.4880  143.7750 C   0  0  0  0  0  2  0  0  0  0  0  0
  184.0640  177.2180  146.5130 F   0  0  0  0  0  0  0  0  0  0  0  0
  186.3830  177.4220  147.0580 C   0  0  0  0  0  2  0  0  0  0  0  0
  191.8180  176.3400  146.3950 C   0  0  0  0  0  0  0  0  0  0  0  0
  193.1730  176.3070  145.9400 N   0  0  0  0  0  2  0  0  0  0  0  0
  191.5660  176.7910  147.5840 N   0  0  0  0  0  2  0  0  0  0  0  0
  193.8520  175.0820  145.5190 C   0  0  2  0  0  3  0  0  0  0  0  0
  193.3890  173.8910  146.3360 C   0  0  0  0  0  1  0  0  0  0  0  0
  195.3880  175.2490  145.6150 C   0  0  2  0  0  3  0  0  0  0  0  0
  196.0660  175.6490  144.3640 C   0  0  1  0  0  3  0  0  0  0  0  0
  196.1950  172.2200  143.5290 C   0  0  0  0  0  1  0  0  0  0  0  0
  196.2050  174.2700  144.8440 N   0  0  2  0  0  0  0  0  0  0  0  0
  195.2360  175.5500  143.1020 C   0  0  2  0  0  3  0  0  0  0  0  0
  195.1310  174.2000  142.7370 O   0  0  0  0  0  0  0  0  0  0  0  0
  195.4210  173.4670  143.9020 C   0  0  1  0  0  3  0  0  0  0  0  0
  197.1910  176.0410  141.6550 C   0  0  0  0  0  2  0  0  0  0  0  0
  195.8080  176.3820  142.0350 N   0  0  1  0  0  0  0  0  0  0  0  0
  194.1120  175.3210  138.9520 F   0  0  0  0  0  0  0  0  0  0  0  0
  196.3720  174.9460  139.5610 C   0  0  0  0  0  2  0  0  0  0  0  0
  194.9490  175.1800  140.0360 C   0  0  1  0  0  3  0  0  0  0  0  0
  197.2810  174.7940  140.7720 C   0  0  0  0  0  2  0  0  0  0  0  0
  194.8950  176.4480  140.8880 C   0  0  0  0  0  2  0  0  0  0  0  0
  1  8  2  0  0  0  0
  1  5  1  0  0  0  0
  2 12  1  6  0  0  0
  2 13  1  0  0  0  0
  3 25  1  1  0  0  0
  4 15  1  0  0  0  0
  4  7  2  0  0  0  0
  5  9  2  0  0  0  0
  6  1  1  0  0  0  0
  7 11  1  0  0  0  0
  8  4  1  0  0  0  0
  9  7  1  0  0  0  0
 10  3  1  0  0  0  0
 11  2  1  0  0  0  0
 11 10  1  1  0  0  0
 13 16  1  0  0  0  0
 13 14  1  1  0  0  0
 14  3  1  0  0  0  0
 15 12  1  0  0  0  0
 16 22  1  6  0  0  0
 16 20  1  0  0  0  0
 17 18  1  0  0  0  0
 18 24  1  0  0  0  0
 18 19  1  0  0  0  0
 20 24  1  0  0  0  0
 21 17  1  0  0  0  0
 22 21  1  0  0  0  0
 23 18  1  0  0  0  0
 25 27  2  0  0  0  0
 26 25  1  0  0  0  0
 28 26  1  0  0  0  0
 28 29  1  1  0  0  0
 30 28  1  6  0  0  0
 31 33  1  0  0  0  0
 31 30  1  0  0  0  0
 32 36  1  0  0  0  0
 33 30  1  0  0  0  0
 34 31  1  0  0  0  0
 35 34  1  0  0  0  0
 35 36  1  0  0  0  0
 36 33  1  0  0  0  0
 37 38  1  0  0  0  0
 38 34  1  0  0  0  0
 39 41  1  0  0  0  0
 40 41  1  0  0  0  0
 40 42  1  0  0  0  0
 41 43  1  0  0  0  0
 42 37  1  0  0  0  0
 43 38  1  0  0  0  0
M  END
>  <MODEL>
6

>  <REMARK>
 VINA RESULT:      -7.2      3.264      6.931
  Name = 
  5 active torsions:
  status: ('A' for Active; 'I' for Inactive)
    1  A    between atoms: C_1  and  C_34
    2  A    between atoms: C_2  and  C_13
    3  A    between atoms: C_3  and  C_12
    4  A    between atoms: N_6  and  C_12
    5  A    between atoms: N_14  and  C_22
                            x       y       z     vdW  Elec       q    Type
                         _______ _______ _______ _____ _____    ______ ____

>  <TORSDO>
F 5

$$$$
=
 OpenBabel11052420503D

 43 49  0  0  1  0  0  0  0  0999 V2000
  185.0320  178.4060  145.6680 C   0  0  0  0  0  0  0  0  0  0  0  0
  189.3630  176.1410  144.0530 C   0  0  2  0  0  3  0  0  0  0  0  0
  188.6500  174.0640  142.3900 C   0  0  2  0  0  3  0  0  0  0  0  0
  187.3190  177.6340  145.4170 C   0  0  0  0  0  0  0  0  0  0  0  0
  184.7070  177.8570  144.4270 C   0  0  0  0  0  3  0  0  0  0  0  0
  184.0610  179.0710  146.4030 O   0  0  0  0  0  1  0  0  0  0  0  0
  186.9850  177.0410  144.1720 C   0  0  0  0  0  0  0  0  0  0  0  0
  186.3340  178.2950  146.1580 C   0  0  0  0  0  3  0  0  0  0  0  0
  185.6790  177.1840  143.6810 C   0  0  0  0  0  3  0  0  0  0  0  0
  187.5270  175.0740  142.6970 C   0  0  0  0  0  2  0  0  0  0  0  0
  188.0360  176.3790  143.3160 C   0  0  2  0  0  3  0  0  0  0  0  0
  189.7510  177.3580  144.8880 C   0  0  0  0  0  2  0  0  0  0  0  0
  190.4570  175.7530  143.0470 C   0  0  2  0  0  3  0  0  0  0  0  0
  189.9560  174.7490  141.9770 C   0  0  0  0  0  2  0  0  0  0  0  0
  188.7070  177.5400  145.9830 C   0  0  0  0  0  2  0  0  0  0  0  0
  191.7410  175.2750  143.7410 C   0  0  2  0  0  3  0  0  0  0  0  0
  193.7730  174.4660  145.7250 C   0  0  0  0  0  2  0  0  0  0  0  0
  194.8520  174.8170  144.6990 C   0  0  0  0  0  0  0  0  0  0  0  0
  195.8750  175.4690  145.3690 F   0  0  0  0  0  0  0  0  0  0  0  0
  193.0740  174.9770  142.5320 S   0  0  0  0  0  0  0  0  0  0  0  0
  192.7870  173.4320  145.1890 C   0  0  0  0  0  2  0  0  0  0  0  0
  191.5030  174.0700  144.6650 C   0  0  0  0  0  2  0  0  0  0  0  0
  195.3680  173.6680  144.1260 F   0  0  0  0  0  0  0  0  0  0  0  0
  194.3280  175.7570  143.6060 C   0  0  0  0  0  2  0  0  0  0  0  0
  188.2080  173.0520  141.3840 C   0  0  0  0  0  0  0  0  0  0  0  0
  189.1180  172.6650  140.3520 N   0  0  0  0  0  2  0  0  0  0  0  0
  187.1910  172.2910  141.6440 N   0  0  0  0  0  2  0  0  0  0  0  0
  189.4040  173.4890  139.1790 C   0  0  2  0  0  3  0  0  0  0  0  0
  188.2040  174.3370  138.7990 C   0  0  0  0  0  1  0  0  0  0  0  0
  189.8510  172.6060  137.9880 C   0  0  2  0  0  3  0  0  0  0  0  0
  191.0420  171.7650  138.2290 C   0  0  1  0  0  3  0  0  0  0  0  0
  192.9990  174.5480  137.2820 C   0  0  0  0  0  1  0  0  0  0  0  0
  191.1640  172.9490  137.3720 N   0  0  2  0  0  0  0  0  0  0  0  0
  191.8390  172.0900  139.4740 C   0  0  2  0  0  3  0  0  0  0  0  0
  192.5810  173.2570  139.2420 O   0  0  0  0  0  0  0  0  0  0  0  0
  191.9500  173.9010  138.1620 C   0  0  1  0  0  3  0  0  0  0  0  0
  193.6320  171.2280  140.9590 C   0  0  0  0  0  2  0  0  0  0  0  0
  192.6810  170.9520  139.8650 N   0  0  1  0  0  0  0  0  0  0  0  0
  190.4420  168.6490  141.6520 F   0  0  0  0  0  0  0  0  0  0  0  0
  192.1900  169.9640  142.5640 C   0  0  0  0  0  2  0  0  0  0  0  0
  191.1560  169.8110  141.4630 C   0  0  1  0  0  3  0  0  0  0  0  0
  192.9690  171.2520  142.3380 C   0  0  0  0  0  2  0  0  0  0  0  0
  191.8570  169.7610  140.1060 C   0  0  0  0  0  2  0  0  0  0  0  0
  1  8  1  0  0  0  0
  1  6  1  0  0  0  0
  2 12  1  6  0  0  0
  3 25  1  6  0  0  0
  3 10  1  0  0  0  0
  4 15  1  0  0  0  0
  4  8  2  0  0  0  0
  5  1  2  0  0  0  0
  7  4  1  0  0  0  0
  9  7  2  0  0  0  0
  9  5  1  0  0  0  0
 11 10  1  1  0  0  0
 11  2  1  0  0  0  0
 11  7  1  0  0  0  0
 12 15  1  0  0  0  0
 13 14  1  6  0  0  0
 13 16  1  0  0  0  0
 13  2  1  0  0  0  0
 14  3  1  0  0  0  0
 16 22  1  6  0  0  0
 18 19  1  0  0  0  0
 18 17  1  0  0  0  0
 20 24  1  0  0  0  0
 20 16  1  0  0  0  0
 21 17  1  0  0  0  0
 22 21  1  0  0  0  0
 23 18  1  0  0  0  0
 24 18  1  0  0  0  0
 25 27  2  0  0  0  0
 26 25  1  0  0  0  0
 28 29  1  6  0  0  0
 28 26  1  0  0  0  0
 30 31  1  0  0  0  0
 30 28  1  1  0  0  0
 31 34  1  0  0  0  0
 32 36  1  0  0  0  0
 33 30  1  0  0  0  0
 33 36  1  0  0  0  0
 33 31  1  0  0  0  0
 34 38  1  0  0  0  0
 35 34  1  0  0  0  0
 36 35  1  0  0  0  0
 37 42  1  0  0  0  0
 38 43  1  0  0  0  0
 38 37  1  0  0  0  0
 41 39  1  0  0  0  0
 41 40  1  0  0  0  0
 42 40  1  0  0  0  0
 43 41  1  0  0  0  0
M  END
>  <MODEL>
7

>  <REMARK>
 VINA RESULT:      -7.2      3.198      6.132
  Name = 
  5 active torsions:
  status: ('A' for Active; 'I' for Inactive)
    1  A    between atoms: C_1  and  C_34
    2  A    between atoms: C_2  and  C_13
    3  A    between atoms: C_3  and  C_12
    4  A    between atoms: N_6  and  C_12
    5  A    between atoms: N_14  and  C_22
                            x       y       z     vdW  Elec       q    Type
                         _______ _______ _______ _____ _____    ______ ____

>  <TORSDO>
F 5

$$$$
=
 OpenBabel11052420503D

 43 49  0  0  1  0  0  0  0  0999 V2000
  190.1310  170.8170  137.1590 C   0  0  0  0  0  0  0  0  0  0  0  0
  188.9170  174.2120  140.8330 C   0  0  2  0  0  3  0  0  0  0  0  0
  189.5990  173.0990  143.2580 C   0  0  2  0  0  3  0  0  0  0  0  0
  189.1870  172.6570  138.4300 C   0  0  0  0  0  0  0  0  0  0  0  0
  191.0180  170.5480  138.2020 C   0  0  0  0  0  3  0  0  0  0  0  0
  190.1670  170.0460  136.0070 O   0  0  0  0  0  1  0  0  0  0  0  0
  190.0590  172.3620  139.5090 C   0  0  0  0  0  0  0  0  0  0  0  0
  189.2210  171.8700  137.2740 C   0  0  0  0  0  3  0  0  0  0  0  0
  190.9860  171.3190  139.3680 C   0  0  0  0  0  3  0  0  0  0  0  0
  190.1960  172.3970  142.0230 C   0  0  0  0  0  2  0  0  0  0  0  0
  190.0950  173.2310  140.7430 C   0  0  2  0  0  3  0  0  0  0  0  0
  188.6420  174.8640  139.4800 C   0  0  0  0  0  2  0  0  0  0  0  0
  189.1840  175.2500  141.9340 C   0  0  2  0  0  3  0  0  0  0  0  0
  189.7880  174.6180  143.2160 C   0  0  0  0  0  2  0  0  0  0  0  0
  188.1910  173.7790  138.5090 C   0  0  0  0  0  2  0  0  0  0  0  0
  187.9480  176.1110  142.2330 C   0  0  2  0  0  3  0  0  0  0  0  0
  185.2910  177.0810  143.0810 C   0  0  0  0  0  2  0  0  0  0  0  0
  185.4350  178.2230  142.0730 C   0  0  0  0  0  0  0  0  0  0  0  0
  184.2100  178.3870  141.4450 F   0  0  0  0  0  0  0  0  0  0  0  0
  188.1820  177.8250  141.6540 S   0  0  0  0  0  0  0  0  0  0  0  0
  186.4410  177.0550  144.0850 C   0  0  0  0  0  2  0  0  0  0  0  0
  187.5190  176.0410  143.7070 C   0  0  0  0  0  2  0  0  0  0  0  0
  185.7560  179.4030  142.7200 F   0  0  0  0  0  0  0  0  0  0  0  0
  186.4820  177.9160  140.9950 C   0  0  0  0  0  2  0  0  0  0  0  0
  190.1260  172.5060  144.5240 C   0  0  0  0  0  0  0  0  0  0  0  0
  191.3940  172.9470  145.0150 N   0  0  0  0  0  2  0  0  0  0  0  0
  189.3160  171.8980  145.3340 N   0  0  0  0  0  2  0  0  0  0  0  0
  192.6720  172.5110  144.4520 C   0  0  2  0  0  3  0  0  0  0  0  0
  192.6720  171.0170  144.1880 C   0  0  0  0  0  1  0  0  0  0  0  0
  193.8410  172.9020  145.3880 C   0  0  2  0  0  3  0  0  0  0  0  0
  193.9550  174.3420  145.7000 C   0  0  1  0  0  3  0  0  0  0  0  0
  195.8330  174.6730  142.7270 C   0  0  0  0  0  1  0  0  0  0  0  0
  194.9200  173.7320  144.7800 N   0  0  2  0  0  0  0  0  0  0  0  0
  193.1210  175.2710  144.8440 C   0  0  2  0  0  3  0  0  0  0  0  0
  193.7270  175.3890  143.5850 O   0  0  0  0  0  0  0  0  0  0  0  0
  194.5710  174.2710  143.4630 C   0  0  1  0  0  3  0  0  0  0  0  0
  192.4710  177.6570  144.6300 C   0  0  0  0  0  2  0  0  0  0  0  0
  192.9380  176.5690  145.5090 N   0  0  1  0  0  0  0  0  0  0  0  0
  189.9170  176.1930  147.5690 F   0  0  0  0  0  0  0  0  0  0  0  0
  190.1740  177.4920  145.6020 C   0  0  0  0  0  2  0  0  0  0  0  0
  190.6330  176.2820  146.3960 C   0  0  1  0  0  3  0  0  0  0  0  0
  190.9770  177.5740  144.3130 C   0  0  0  0  0  2  0  0  0  0  0  0
  192.1210  176.4160  146.7190 C   0  0  0  0  0  2  0  0  0  0  0  0
  1  8  2  0  0  0  0
  1  5  1  0  0  0  0
  2 12  1  6  0  0  0
  2 13  1  0  0  0  0
  3 25  1  1  0  0  0
  4 15  1  0  0  0  0
  4  7  2  0  0  0  0
  5  9  2  0  0  0  0
  6  1  1  0  0  0  0
  7 11  1  0  0  0  0
  8  4  1  0  0  0  0
  9  7  1  0  0  0  0
 10  3  1  0  0  0  0
 11  2  1  0  0  0  0
 11 10  1  1  0  0  0
 13 16  1  0  0  0  0
 13 14  1  1  0  0  0
 14  3  1  0  0  0  0
 15 12  1  0  0  0  0
 16 22  1  1  0  0  0
 17 21  1  0  0  0  0
 18 23  1  0  0  0  0
 18 17  1  0  0  0  0
 19 18  1  0  0  0  0
 20 16  1  0  0  0  0
 22 21  1  0  0  0  0
 24 20  1  0  0  0  0
 24 18  1  0  0  0  0
 25 26  1  0  0  0  0
 25 27  2  0  0  0  0
 28 29  1  1  0  0  0
 28 26  1  0  0  0  0
 30 28  1  6  0  0  0
 30 31  1  0  0  0  0
 32 36  1  0  0  0  0
 33 30  1  0  0  0  0
 33 31  1  0  0  0  0
 34 38  1  0  0  0  0
 34 31  1  0  0  0  0
 35 34  1  0  0  0  0
 36 35  1  0  0  0  0
 36 33  1  0  0  0  0
 37 38  1  0  0  0  0
 38 43  1  0  0  0  0
 40 41  1  0  0  0  0
 41 43  1  0  0  0  0
 41 39  1  0  0  0  0
 42 37  1  0  0  0  0
 42 40  1  0  0  0  0
M  END
>  <MODEL>
8

>  <REMARK>
 VINA RESULT:      -7.1      2.981      5.540
  Name = 
  5 active torsions:
  status: ('A' for Active; 'I' for Inactive)
    1  A    between atoms: C_1  and  C_34
    2  A    between atoms: C_2  and  C_13
    3  A    between atoms: C_3  and  C_12
    4  A    between atoms: N_6  and  C_12
    5  A    between atoms: N_14  and  C_22
                            x       y       z     vdW  Elec       q    Type
                         _______ _______ _______ _____ _____    ______ ____

>  <TORSDO>
F 5

$$$$
=
 OpenBabel11052420503D

 43 49  0  0  1  0  0  0  0  0999 V2000
  185.7250  179.0720  144.5010 C   0  0  0  0  0  0  0  0  0  0  0  0
  189.0330  175.3290  143.2600 C   0  0  2  0  0  3  0  0  0  0  0  0
  191.0450  175.3340  145.1410 C   0  0  2  0  0  3  0  0  0  0  0  0
  187.0040  177.3650  143.3450 C   0  0  0  0  0  0  0  0  0  0  0  0
  186.3000  178.6870  145.7130 C   0  0  0  0  0  3  0  0  0  0  0  0
  184.7960  180.1030  144.4760 O   0  0  0  0  0  1  0  0  0  0  0  0
  187.6220  176.9950  144.5680 C   0  0  0  0  0  0  0  0  0  0  0  0
  186.0750  178.4100  143.3230 C   0  0  0  0  0  3  0  0  0  0  0  0
  187.2380  177.6520  145.7470 C   0  0  0  0  0  3  0  0  0  0  0  0
  189.7870  176.1380  145.5230 C   0  0  0  0  0  2  0  0  0  0  0  0
  188.5760  175.8290  144.6390 C   0  0  2  0  0  3  0  0  0  0  0  0
  187.8610  175.2640  142.2850 C   0  0  0  0  0  2  0  0  0  0  0  0
  189.7460  173.9760  143.4040 C   0  0  2  0  0  3  0  0  0  0  0  0
  190.7080  173.9340  144.6190 C   0  0  0  0  0  2  0  0  0  0  0  0
  187.3510  176.6810  142.0530 C   0  0  0  0  0  2  0  0  0  0  0  0
  190.4300  173.5380  142.1010 C   0  0  2  0  0  3  0  0  0  0  0  0
  191.5260  173.4180  139.3620 C   0  0  0  0  0  2  0  0  0  0  0  0
  191.4330  171.8920  139.4390 C   0  0  0  0  0  0  0  0  0  0  0  0
  190.9620  171.4370  138.2170 F   0  0  0  0  0  0  0  0  0  0  0  0
  191.0310  171.8200  142.2160 S   0  0  0  0  0  0  0  0  0  0  0  0
  192.3750  173.9980  140.4900 C   0  0  0  0  0  2  0  0  0  0  0  0
  191.5260  174.5160  141.6480 C   0  0  0  0  0  2  0  0  0  0  0  0
  192.6840  171.3410  139.6560 F   0  0  0  0  0  0  0  0  0  0  0  0
  190.4600  171.4250  140.5270 C   0  0  0  0  0  2  0  0  0  0  0  0
  192.0220  175.2890  146.2700 C   0  0  0  0  0  0  0  0  0  0  0  0
  192.9860  176.3380  146.3870 N   0  0  0  0  0  2  0  0  0  0  0  0
  191.7780  174.5430  147.3010 N   0  0  0  0  0  2  0  0  0  0  0  0
  194.1820  176.4300  145.5500 C   0  0  2  0  0  3  0  0  0  0  0  0
  194.8820  177.7640  145.7400 C   0  0  0  0  0  1  0  0  0  0  0  0
  193.8240  176.2060  144.0610 C   0  0  2  0  0  3  0  0  0  0  0  0
  194.4150  175.0030  143.4370 C   0  0  1  0  0  3  0  0  0  0  0  0
  197.2770  176.9600  142.7600 C   0  0  0  0  0  1  0  0  0  0  0  0
  194.9480  176.3250  143.0900 N   0  0  2  0  0  0  0  0  0  0  0  0
  195.5160  174.3240  144.2240 C   0  0  2  0  0  3  0  0  0  0  0  0
  196.6860  175.0860  144.1110 O   0  0  0  0  0  0  0  0  0  0  0  0
  196.2680  176.3720  143.7250 C   0  0  1  0  0  3  0  0  0  0  0  0
  196.7370  172.1800  144.4970 C   0  0  0  0  0  2  0  0  0  0  0  0
  195.6970  172.9370  143.7750 N   0  0  1  0  0  0  0  0  0  0  0  0
  192.7450  171.1210  144.9990 F   0  0  0  0  0  0  0  0  0  0  0  0
  194.9820  170.9270  145.7620 C   0  0  0  0  0  2  0  0  0  0  0  0
  193.9310  171.8110  145.1150 C   0  0  1  0  0  3  0  0  0  0  0  0
  196.2830  171.7060  145.8800 C   0  0  0  0  0  2  0  0  0  0  0  0
  194.4060  172.2390  143.7260 C   0  0  0  0  0  2  0  0  0  0  0  0
  1  5  1  0  0  0  0
  2 12  1  6  0  0  0
  2 13  1  0  0  0  0
  2 11  1  0  0  0  0
  3 10  1  0  0  0  0
  3 25  1  1  0  0  0
  4  7  2  0  0  0  0
  5  9  2  0  0  0  0
  6  1  1  0  0  0  0
  7 11  1  0  0  0  0
  7  9  1  0  0  0  0
  8  4  1  0  0  0  0
  8  1  2  0  0  0  0
 11 10  1  1  0  0  0
 13 14  1  1  0  0  0
 14  3  1  0  0  0  0
 15 12  1  0  0  0  0
 15  4  1  0  0  0  0
 16 22  1  1  0  0  0
 16 20  1  0  0  0  0
 16 13  1  0  0  0  0
 17 18  1  0  0  0  0
 17 21  1  0  0  0  0
 18 23  1  0  0  0  0
 18 24  1  0  0  0  0
 19 18  1  0  0  0  0
 21 22  1  0  0  0  0
 24 20  1  0  0  0  0
 25 26  1  0  0  0  0
 25 27  2  0  0  0  0
 28 29  1  6  0  0  0
 28 26  1  0  0  0  0
 30 28  1  1  0  0  0
 31 30  1  0  0  0  0
 31 34  1  0  0  0  0
 32 36  1  0  0  0  0
 33 31  1  0  0  0  0
 33 36  1  0  0  0  0
 33 30  1  0  0  0  0
 35 34  1  0  0  0  0
 36 35  1  0  0  0  0
 37 42  1  0  0  0  0
 38 34  1  0  0  0  0
 38 37  1  0  0  0  0
 39 41  1  0  0  0  0
 40 42  1  0  0  0  0
 41 40  1  0  0  0  0
 43 38  1  0  0  0  0
 43 41  1  0  0  0  0
M  END
>  <MODEL>
9

>  <REMARK>
 VINA RESULT:      -7.0      2.275      3.942
  Name = 
  5 active torsions:
  status: ('A' for Active; 'I' for Inactive)
    1  A    between atoms: C_1  and  C_34
    2  A    between atoms: C_2  and  C_13
    3  A    between atoms: C_3  and  C_12
    4  A    between atoms: N_6  and  C_12
    5  A    between atoms: N_14  and  C_22
                            x       y       z     vdW  Elec       q    Type
                         _______ _______ _______ _____ _____    ______ ____

>  <TORSDO>
F 5

$$$$
