=
 OpenBabel11052419123D

 32 37  0  0  1  0  0  0  0  0999 V2000
  189.2150  176.0180  144.7970 C   0  0  0  0  0  0  0  0  0  0  0  0
  187.0930  177.3800  144.5570 C   0  0  2  0  0  3  0  0  0  0  0  0
  190.1740  175.4030  145.6180 C   0  0  0  0  0  3  0  0  0  0  0  0
  188.0590  176.5680  145.3820 C   0  0  0  0  0  0  0  0  0  0  0  0
  185.6680  176.9920  144.9410 C   0  0  2  0  0  3  0  0  0  0  0  0
  185.3720  178.1900  139.9410 C   0  0  0  0  0  3  0  0  0  0  0  0
  187.4040  177.3630  143.0410 C   0  0  1  0  0  3  0  0  0  0  0  0
  183.8660  178.1530  141.8360 C   0  0  0  0  0  3  0  0  0  0  0  0
  184.9270  177.8060  142.6780 C   0  0  0  0  0  0  0  0  0  0  0  0
  187.7870  176.3470  146.7480 C   0  0  0  0  0  0  0  0  0  0  0  0
  184.6870  177.6330  144.0740 N   0  0  0  0  0  2  0  0  0  0  0  0
  186.4270  176.6300  147.3450 C   0  0  0  0  0  2  0  0  0  0  0  0
  188.7390  175.7020  147.5430 C   0  0  0  0  0  3  0  0  0  0  0  0
  188.0830  176.1350  142.6380 N   0  0  0  0  0  2  0  0  0  0  0  0
  189.3910  176.1150  143.2960 C   0  0  2  0  0  3  0  0  0  0  0  0
  186.2250  177.6580  142.1520 C   0  0  0  0  0  0  0  0  0  0  0  0
  185.4350  177.3570  146.4180 C   0  0  1  0  0  3  0  0  0  0  0  0
  189.9410  175.2560  146.9860 C   0  0  0  0  0  3  0  0  0  0  0  0
  184.0870  178.3400  140.4690 C   0  0  0  0  0  3  0  0  0  0  0  0
  186.4380  177.8560  140.7810 C   0  0  0  0  0  3  0  0  0  0  0  0
  192.3600  174.1870  141.8840 C   0  0  0  0  0  0  0  0  0  0  0  0
  193.6630  174.3910  141.5710 F   0  0  0  0  0  0  0  0  0  0  0  0
  190.2330  175.0060  142.7240 C   0  0  0  0  0  0  0  0  0  0  0  0
  191.7950  172.9250  141.6850 C   0  0  0  0  0  3  0  0  0  0  0  0
  189.6770  173.7330  142.5220 C   0  0  0  0  0  3  0  0  0  0  0  0
  191.5840  175.2310  142.4050 C   0  0  0  0  0  0  0  0  0  0  0  0
  192.1720  176.5140  142.6070 N   0  0  0  0  0  1  0  0  0  0  0  0
  190.4480  172.6910  142.0040 C   0  0  0  0  0  0  0  0  0  0  0  0
  190.6150  170.2530  141.6250 C   0  0  0  0  0  1  0  0  0  0  0  0
  189.8570  171.4390  141.8160 O   0  0  0  0  0  0  0  0  0  0  0  0
  185.5170  178.8590  146.6780 C   0  0  0  0  0  2  0  0  0  0  0  0
  186.1820  179.1050  147.8790 O   0  0  0  0  0  1  0  0  0  0  0  0
  1  4  2  0  0  0  0
  1  3  1  0  0  0  0
  2  5  1  0  0  0  0
  2  4  1  1  0  0  0
  3 18  2  0  0  0  0
  4 10  1  0  0  0  0
  5 11  1  6  0  0  0
  5 17  1  0  0  0  0
  6 19  2  0  0  0  0
  6 20  1  0  0  0  0
  7 16  1  6  0  0  0
  7  2  1  0  0  0  0
  8  9  2  0  0  0  0
  9 11  1  0  0  0  0
 10 12  1  0  0  0  0
 10 13  2  0  0  0  0
 14  7  1  0  0  0  0
 14 15  1  0  0  0  0
 15 23  1  6  0  0  0
 15  1  1  0  0  0  0
 16  9  1  0  0  0  0
 17 31  1  6  0  0  0
 17 12  1  0  0  0  0
 18 13  1  0  0  0  0
 19  8  1  0  0  0  0
 20 16  2  0  0  0  0
 21 26  1  0  0  0  0
 22 21  1  0  0  0  0
 24 21  2  0  0  0  0
 24 28  1  0  0  0  0
 25 23  1  0  0  0  0
 26 27  1  0  0  0  0
 26 23  2  0  0  0  0
 28 25  2  0  0  0  0
 29 30  1  0  0  0  0
 30 28  1  0  0  0  0
 31 32  1  0  0  0  0
M  END
>  <MODEL>
1

>  <REMARK>
 VINA RESULT:      -8.7      0.000      0.000
  Name = 
  3 active torsions:
  status: ('A' for Active; 'I' for Inactive)
    1  A    between atoms: C_13  and  C_29
    2  A    between atoms: O_15  and  C_26
    3  A    between atoms: C_16  and  C_27
                            x       y       z     vdW  Elec       q    Type
                         _______ _______ _______ _____ _____    ______ ____

>  <TORSDO>
F 3

$$$$
=
 OpenBabel11052419123D

 32 37  0  0  1  0  0  0  0  0999 V2000
  189.3820  175.8460  144.5080 C   0  0  0  0  0  0  0  0  0  0  0  0
  187.2670  177.2390  144.4780 C   0  0  2  0  0  3  0  0  0  0  0  0
  190.3920  175.1920  145.2300 C   0  0  0  0  0  3  0  0  0  0  0  0
  188.2820  176.3890  145.1980 C   0  0  0  0  0  0  0  0  0  0  0  0
  185.8700  176.8550  144.9580 C   0  0  2  0  0  3  0  0  0  0  0  0
  185.2070  178.2270  140.0390 C   0  0  0  0  0  3  0  0  0  0  0  0
  187.4600  177.2720  142.9420 C   0  0  1  0  0  3  0  0  0  0  0  0
  183.8520  178.1420  142.0420 C   0  0  0  0  0  3  0  0  0  0  0  0
  184.9700  177.7540  142.7880 C   0  0  0  0  0  0  0  0  0  0  0  0
  188.1130  176.1240  146.5730 C   0  0  0  0  0  0  0  0  0  0  0  0
  184.8350  177.5370  144.1920 N   0  0  0  0  0  2  0  0  0  0  0  0
  186.8070  176.4030  147.2820 C   0  0  0  0  0  2  0  0  0  0  0  0
  189.1140  175.4410  147.2700 C   0  0  0  0  0  3  0  0  0  0  0  0
  188.0890  176.0500  142.4470 N   0  0  0  0  0  2  0  0  0  0  0  0
  189.4430  175.9920  143.0010 C   0  0  2  0  0  3  0  0  0  0  0  0
  186.2200  177.6100  142.1580 C   0  0  0  0  0  0  0  0  0  0  0  0
  185.7580  177.1720  146.4600 C   0  0  1  0  0  3  0  0  0  0  0  0
  190.2640  175.0020  146.6070 C   0  0  0  0  0  3  0  0  0  0  0  0
  183.9690  178.3740  140.6690 C   0  0  0  0  0  3  0  0  0  0  0  0
  186.3300  177.8530  140.7820 C   0  0  0  0  0  3  0  0  0  0  0  0
  190.3300  172.6680  141.3620 C   0  0  0  0  0  0  0  0  0  0  0  0
  189.7400  171.4910  141.0390 F   0  0  0  0  0  0  0  0  0  0  0  0
  190.2220  174.8940  142.3290 C   0  0  0  0  0  0  0  0  0  0  0  0
  191.6780  172.8680  141.0530 C   0  0  0  0  0  3  0  0  0  0  0  0
  191.5760  175.0840  142.0110 C   0  0  0  0  0  3  0  0  0  0  0  0
  189.5970  173.6780  141.9990 C   0  0  0  0  0  0  0  0  0  0  0  0
  188.2210  173.4640  142.3060 N   0  0  0  0  0  1  0  0  0  0  0  0
  192.3090  174.0790  141.3760 C   0  0  0  0  0  0  0  0  0  0  0  0
  194.2640  175.5840  141.2090 C   0  0  0  0  0  1  0  0  0  0  0  0
  193.6540  174.3080  141.0770 O   0  0  0  0  0  0  0  0  0  0  0  0
  185.8800  178.6640  146.7620 C   0  0  0  0  0  2  0  0  0  0  0  0
  186.5360  178.8560  147.9790 O   0  0  0  0  0  1  0  0  0  0  0  0
  1  4  2  0  0  0  0
  1  3  1  0  0  0  0
  2  5  1  0  0  0  0
  2  4  1  1  0  0  0
  3 18  2  0  0  0  0
  4 10  1  0  0  0  0
  5 11  1  6  0  0  0
  5 17  1  0  0  0  0
  6 19  2  0  0  0  0
  6 20  1  0  0  0  0
  7 16  1  6  0  0  0
  7  2  1  0  0  0  0
  8  9  2  0  0  0  0
  9 11  1  0  0  0  0
 10 13  2  0  0  0  0
 10 12  1  0  0  0  0
 14  7  1  0  0  0  0
 14 15  1  0  0  0  0
 15 23  1  6  0  0  0
 15  1  1  0  0  0  0
 16  9  1  0  0  0  0
 17 31  1  6  0  0  0
 17 12  1  0  0  0  0
 18 13  1  0  0  0  0
 19  8  1  0  0  0  0
 20 16  2  0  0  0  0
 21 26  1  0  0  0  0
 22 21  1  0  0  0  0
 24 21  2  0  0  0  0
 24 28  1  0  0  0  0
 25 23  1  0  0  0  0
 26 27  1  0  0  0  0
 26 23  2  0  0  0  0
 28 25  2  0  0  0  0
 30 29  1  0  0  0  0
 30 28  1  0  0  0  0
 31 32  1  0  0  0  0
M  END
>  <MODEL>
2

>  <REMARK>
 VINA RESULT:      -8.0      1.525      2.106
  Name = 
  3 active torsions:
  status: ('A' for Active; 'I' for Inactive)
    1  A    between atoms: C_13  and  C_29
    2  A    between atoms: O_15  and  C_26
    3  A    between atoms: C_16  and  C_27
                            x       y       z     vdW  Elec       q    Type
                         _______ _______ _______ _____ _____    ______ ____

>  <TORSDO>
F 3

$$$$
=
 OpenBabel11052419123D

 32 37  0  0  1  0  0  0  0  0999 V2000
  188.2690  175.0650  142.2750 C   0  0  0  0  0  0  0  0  0  0  0  0
  186.5080  176.7260  143.0210 C   0  0  2  0  0  3  0  0  0  0  0  0
  188.8810  174.3270  141.2500 C   0  0  0  0  0  3  0  0  0  0  0  0
  187.3030  176.0340  141.9440 C   0  0  0  0  0  0  0  0  0  0  0  0
  186.3950  178.2090  142.6790 C   0  0  2  0  0  3  0  0  0  0  0  0
  186.4930  178.0820  147.8260 C   0  0  0  0  0  3  0  0  0  0  0  0
  186.9950  176.4070  144.4560 C   0  0  1  0  0  3  0  0  0  0  0  0
  185.6440  179.5700  146.1160 C   0  0  0  0  0  3  0  0  0  0  0  0
  186.0280  178.6590  145.1270 C   0  0  0  0  0  0  0  0  0  0  0  0
  187.0850  176.3790  140.5930 C   0  0  0  0  0  0  0  0  0  0  0  0
  185.7650  178.9600  143.7570 N   0  0  0  0  0  2  0  0  0  0  0  0
  186.3110  177.6180  140.2030 C   0  0  0  0  0  2  0  0  0  0  0  0
  187.7300  175.6540  139.5870 C   0  0  0  0  0  3  0  0  0  0  0  0
  188.4200  176.0860  144.4870 N   0  0  0  0  0  2  0  0  0  0  0  0
  188.6120  174.8450  143.7340 C   0  0  2  0  0  3  0  0  0  0  0  0
  186.6410  177.4450  145.4880 C   0  0  0  0  0  0  0  0  0  0  0  0
  185.6140  178.3550  141.3610 C   0  0  1  0  0  3  0  0  0  0  0  0
  188.6030  174.6130  139.9120 C   0  0  0  0  0  3  0  0  0  0  0  0
  185.8800  179.2840  147.4640 C   0  0  0  0  0  3  0  0  0  0  0  0
  186.8660  177.1630  146.8420 C   0  0  0  0  0  3  0  0  0  0  0  0
  191.5570  172.4900  144.2870 C   0  0  0  0  0  0  0  0  0  0  0  0
  191.7980  171.1660  144.4440 F   0  0  0  0  0  0  0  0  0  0  0  0
  190.0110  174.3330  143.9440 C   0  0  0  0  0  0  0  0  0  0  0  0
  192.6250  173.3900  144.3070 C   0  0  0  0  0  3  0  0  0  0  0  0
  191.0930  175.2270  143.9630 C   0  0  0  0  0  3  0  0  0  0  0  0
  190.2480  172.9560  144.1050 C   0  0  0  0  0  0  0  0  0  0  0  0
  189.1650  172.0280  144.0830 N   0  0  0  0  0  1  0  0  0  0  0  0
  192.3980  174.7660  144.1440 C   0  0  0  0  0  0  0  0  0  0  0  0
  193.5100  176.7660  145.0820 C   0  0  0  0  0  1  0  0  0  0  0  0
  193.4470  175.6890  144.1580 O   0  0  0  0  0  0  0  0  0  0  0  0
  184.1710  177.8670  141.4690 C   0  0  0  0  0  2  0  0  0  0  0  0
  183.3950  178.4300  140.4560 O   0  0  0  0  0  1  0  0  0  0  0  0
  1 15  1  0  0  0  0
  2  4  1  6  0  0  0
  2  7  1  0  0  0  0
  3  1  2  0  0  0  0
  4  1  1  0  0  0  0
  5  2  1  0  0  0  0
  5 11  1  1  0  0  0
  7 14  1  6  0  0  0
  7 16  1  0  0  0  0
  8 19  2  0  0  0  0
  9 16  2  0  0  0  0
  9  8  1  0  0  0  0
 10  4  2  0  0  0  0
 11  9  1  0  0  0  0
 12 10  1  0  0  0  0
 12 17  1  0  0  0  0
 13 18  2  0  0  0  0
 13 10  1  0  0  0  0
 15 23  1  6  0  0  0
 15 14  1  0  0  0  0
 16 20  1  0  0  0  0
 17 31  1  1  0  0  0
 17  5  1  0  0  0  0
 18  3  1  0  0  0  0
 19  6  1  0  0  0  0
 20  6  2  0  0  0  0
 21 24  1  0  0  0  0
 21 22  1  0  0  0  0
 23 25  2  0  0  0  0
 23 26  1  0  0  0  0
 25 28  1  0  0  0  0
 26 21  2  0  0  0  0
 27 26  1  0  0  0  0
 28 30  1  0  0  0  0
 28 24  2  0  0  0  0
 30 29  1  0  0  0  0
 32 31  1  0  0  0  0
M  END
>  <MODEL>
3

>  <REMARK>
 VINA RESULT:      -7.8      2.685      4.966
  Name = 
  3 active torsions:
  status: ('A' for Active; 'I' for Inactive)
    1  A    between atoms: C_13  and  C_29
    2  A    between atoms: O_15  and  C_26
    3  A    between atoms: C_16  and  C_27
                            x       y       z     vdW  Elec       q    Type
                         _______ _______ _______ _____ _____    ______ ____

>  <TORSDO>
F 3

$$$$
=
 OpenBabel11052419123D

 32 37  0  0  1  0  0  0  0  0999 V2000
  192.1360  175.1080  145.8950 C   0  0  0  0  0  0  0  0  0  0  0  0
  193.3630  173.2940  144.6230 C   0  0  2  0  0  3  0  0  0  0  0  0
  192.1650  176.2100  146.7630 C   0  0  0  0  0  3  0  0  0  0  0  0
  193.3480  174.5730  145.4200 C   0  0  0  0  0  0  0  0  0  0  0  0
  194.3440  173.4450  143.4630 C   0  0  2  0  0  3  0  0  0  0  0  0
  190.6700  170.3290  141.6420 C   0  0  0  0  0  3  0  0  0  0  0  0
  191.9530  172.7820  144.2420 C   0  0  1  0  0  3  0  0  0  0  0  0
  193.0100  170.7500  141.1850 C   0  0  0  0  0  3  0  0  0  0  0  0
  193.0620  171.6480  142.2560 C   0  0  0  0  0  0  0  0  0  0  0  0
  194.5620  175.2450  145.6730 C   0  0  0  0  0  0  0  0  0  0  0  0
  194.2950  172.2960  142.5680 N   0  0  0  0  0  2  0  0  0  0  0  0
  195.8320  174.9020  144.9290 C   0  0  0  0  0  2  0  0  0  0  0  0
  194.5660  176.3620  146.5140 C   0  0  0  0  0  3  0  0  0  0  0  0
  190.9900  173.8740  144.1270 N   0  0  0  0  0  2  0  0  0  0  0  0
  190.8340  174.4690  145.4560 C   0  0  2  0  0  3  0  0  0  0  0  0
  191.9130  171.8830  143.0340 C   0  0  0  0  0  0  0  0  0  0  0  0
  195.7580  173.6510  144.0340 C   0  0  1  0  0  3  0  0  0  0  0  0
  193.3760  176.8260  147.0810 C   0  0  0  0  0  3  0  0  0  0  0  0
  191.8150  170.0950  140.8760 C   0  0  0  0  0  3  0  0  0  0  0  0
  190.7210  171.2150  142.7210 C   0  0  0  0  0  3  0  0  0  0  0  0
  187.7030  176.3640  146.5220 C   0  0  0  0  0  0  0  0  0  0  0  0
  186.8270  176.4010  147.5550 F   0  0  0  0  0  0  0  0  0  0  0  0
  189.6740  175.4280  145.4520 C   0  0  0  0  0  0  0  0  0  0  0  0
  187.5340  177.2360  145.4450 C   0  0  0  0  0  3  0  0  0  0  0  0
  189.4950  176.3120  144.3770 C   0  0  0  0  0  3  0  0  0  0  0  0
  188.7720  175.4580  146.5310 C   0  0  0  0  0  0  0  0  0  0  0  0
  188.9380  174.5730  147.6380 N   0  0  0  0  0  1  0  0  0  0  0  0
  188.4300  177.2160  144.3650 C   0  0  0  0  0  0  0  0  0  0  0  0
  188.9410  177.8610  142.0330 C   0  0  0  0  0  1  0  0  0  0  0  0
  188.2870  178.0780  143.2750 O   0  0  0  0  0  0  0  0  0  0  0  0
  196.2630  172.4430  144.8210 C   0  0  0  0  0  2  0  0  0  0  0  0
  197.1150  172.8570  145.8450 O   0  0  0  0  0  1  0  0  0  0  0  0
  1  3  1  0  0  0  0
  2  4  1  6  0  0  0
  3 18  2  0  0  0  0
  4 10  1  0  0  0  0
  4  1  2  0  0  0  0
  5 11  1  6  0  0  0
  5 17  1  0  0  0  0
  5  2  1  0  0  0  0
  6 20  1  0  0  0  0
  7 16  1  6  0  0  0
  7  2  1  0  0  0  0
  8  9  2  0  0  0  0
  9 11  1  0  0  0  0
  9 16  1  0  0  0  0
 10 13  2  0  0  0  0
 12 10  1  0  0  0  0
 13 18  1  0  0  0  0
 14  7  1  0  0  0  0
 14 15  1  0  0  0  0
 15 23  1  6  0  0  0
 15  1  1  0  0  0  0
 17 31  1  1  0  0  0
 17 12  1  0  0  0  0
 19  8  1  0  0  0  0
 19  6  2  0  0  0  0
 20 16  2  0  0  0  0
 21 26  1  0  0  0  0
 21 22  1  0  0  0  0
 23 26  2  0  0  0  0
 24 21  2  0  0  0  0
 25 23  1  0  0  0  0
 26 27  1  0  0  0  0
 28 25  2  0  0  0  0
 28 24  1  0  0  0  0
 29 30  1  0  0  0  0
 30 28  1  0  0  0  0
 31 32  1  0  0  0  0
M  END
>  <MODEL>
4

>  <REMARK>
 VINA RESULT:      -7.6      3.685      7.973
  Name = 
  3 active torsions:
  status: ('A' for Active; 'I' for Inactive)
    1  A    between atoms: C_13  and  C_29
    2  A    between atoms: O_15  and  C_26
    3  A    between atoms: C_16  and  C_27
                            x       y       z     vdW  Elec       q    Type
                         _______ _______ _______ _____ _____    ______ ____

>  <TORSDO>
F 3

$$$$
=
 OpenBabel11052419123D

 32 37  0  0  1  0  0  0  0  0999 V2000
  192.3240  175.6190  145.3340 C   0  0  0  0  0  0  0  0  0  0  0  0
  190.3580  175.8040  143.7470 C   0  0  2  0  0  3  0  0  0  0  0  0
  192.9250  175.9420  146.5600 C   0  0  0  0  0  3  0  0  0  0  0  0
  190.9830  175.9830  145.1060 C   0  0  0  0  0  0  0  0  0  0  0  0
  188.9430  175.2600  143.9210 C   0  0  2  0  0  3  0  0  0  0  0  0
  190.5710  173.2100  139.4860 C   0  0  0  0  0  3  0  0  0  0  0  0
  191.2530  175.0290  142.7480 C   0  0  1  0  0  3  0  0  0  0  0  0
  188.4410  173.7650  140.4930 C   0  0  0  0  0  3  0  0  0  0  0  0
  189.1020  174.3350  141.5860 C   0  0  0  0  0  0  0  0  0  0  0  0
  190.2070  176.5070  146.1610 C   0  0  0  0  0  0  0  0  0  0  0  0
  188.3380  174.9230  142.6390 N   0  0  0  0  0  2  0  0  0  0  0  0
  188.7020  176.6100  146.0660 C   0  0  0  0  0  2  0  0  0  0  0  0
  190.8160  176.7900  147.3870 C   0  0  0  0  0  3  0  0  0  0  0  0
  192.1510  174.1010  143.4300 N   0  0  0  0  0  2  0  0  0  0  0  0
  193.0790  174.8940  144.2390 C   0  0  2  0  0  3  0  0  0  0  0  0
  190.5090  174.3530  141.6270 C   0  0  0  0  0  0  0  0  0  0  0  0
  188.1020  176.3000  144.6820 C   0  0  1  0  0  3  0  0  0  0  0  0
  192.1760  176.5360  147.5780 C   0  0  0  0  0  3  0  0  0  0  0  0
  189.1740  173.1990  139.4470 C   0  0  0  0  0  3  0  0  0  0  0  0
  191.2350  173.7910  140.5690 C   0  0  0  0  0  3  0  0  0  0  0  0
  196.5180  173.6620  145.3260 C   0  0  0  0  0  0  0  0  0  0  0  0
  197.7960  174.1080  145.3910 F   0  0  0  0  0  0  0  0  0  0  0  0
  194.1810  174.0120  144.7620 C   0  0  0  0  0  0  0  0  0  0  0  0
  196.2180  172.3690  145.7630 C   0  0  0  0  0  3  0  0  0  0  0  0
  193.8920  172.7130  145.2070 C   0  0  0  0  0  3  0  0  0  0  0  0
  195.5030  174.4880  144.8250 C   0  0  0  0  0  0  0  0  0  0  0  0
  195.8190  175.8070  144.3850 N   0  0  0  0  0  1  0  0  0  0  0  0
  194.9010  171.8870  145.7060 C   0  0  0  0  0  0  0  0  0  0  0  0
  194.2330  169.5520  145.2400 C   0  0  0  0  0  1  0  0  0  0  0  0
  194.5720  170.6000  146.1380 O   0  0  0  0  0  0  0  0  0  0  0  0
  187.9290  177.6040  143.9080 C   0  0  0  0  0  2  0  0  0  0  0  0
  186.8040  178.2910  144.3670 O   0  0  0  0  0  1  0  0  0  0  0  0
  1  3  1  0  0  0  0
  2  5  1  0  0  0  0
  2  4  1  1  0  0  0
  3 18  2  0  0  0  0
  4  1  2  0  0  0  0
  4 10  1  0  0  0  0
  5 11  1  6  0  0  0
  5 17  1  0  0  0  0
  6 20  1  0  0  0  0
  7 16  1  6  0  0  0
  7 14  1  0  0  0  0
  7  2  1  0  0  0  0
  8  9  2  0  0  0  0
  9 16  1  0  0  0  0
  9 11  1  0  0  0  0
 10 13  2  0  0  0  0
 12 10  1  0  0  0  0
 13 18  1  0  0  0  0
 14 15  1  0  0  0  0
 15 23  1  1  0  0  0
 15  1  1  0  0  0  0
 17 31  1  6  0  0  0
 17 12  1  0  0  0  0
 19  6  2  0  0  0  0
 19  8  1  0  0  0  0
 20 16  2  0  0  0  0
 21 22  1  0  0  0  0
 21 24  1  0  0  0  0
 23 26  1  0  0  0  0
 23 25  2  0  0  0  0
 25 28  1  0  0  0  0
 26 21  2  0  0  0  0
 27 26  1  0  0  0  0
 28 24  2  0  0  0  0
 28 30  1  0  0  0  0
 29 30  1  0  0  0  0
 31 32  1  0  0  0  0
M  END
>  <MODEL>
5

>  <REMARK>
 VINA RESULT:      -7.5      3.244      4.792
  Name = 
  3 active torsions:
  status: ('A' for Active; 'I' for Inactive)
    1  A    between atoms: C_13  and  C_29
    2  A    between atoms: O_15  and  C_26
    3  A    between atoms: C_16  and  C_27
                            x       y       z     vdW  Elec       q    Type
                         _______ _______ _______ _____ _____    ______ ____

>  <TORSDO>
F 3

$$$$
=
 OpenBabel11052419123D

 32 37  0  0  1  0  0  0  0  0999 V2000
  189.0770  174.8300  142.6790 C   0  0  0  0  0  0  0  0  0  0  0  0
  191.4520  174.0170  143.0190 C   0  0  2  0  0  3  0  0  0  0  0  0
  187.7930  174.6320  142.1470 C   0  0  0  0  0  3  0  0  0  0  0  0
  190.0190  173.7860  142.6110 C   0  0  0  0  0  0  0  0  0  0  0  0
  191.9380  172.8130  143.8220 C   0  0  2  0  0  3  0  0  0  0  0  0
  194.4740  176.8140  145.8430 C   0  0  0  0  0  3  0  0  0  0  0  0
  191.6970  175.3990  143.6740 C   0  0  1  0  0  3  0  0  0  0  0  0
  194.8170  174.4250  145.6500 C   0  0  0  0  0  3  0  0  0  0  0  0
  193.6580  174.3170  144.8750 C   0  0  0  0  0  0  0  0  0  0  0  0
  189.6220  172.5050  142.1740 C   0  0  0  0  0  0  0  0  0  0  0  0
  193.2680  173.0390  144.3730 N   0  0  0  0  0  2  0  0  0  0  0  0
  190.4930  171.2870  142.3830 C   0  0  0  0  0  2  0  0  0  0  0  0
  188.3280  172.3190  141.6780 C   0  0  0  0  0  3  0  0  0  0  0  0
  190.5020  175.9020  144.3460 N   0  0  0  0  0  2  0  0  0  0  0  0
  189.4840  176.1400  143.3210 C   0  0  2  0  0  3  0  0  0  0  0  0
  192.9050  175.4660  144.5710 C   0  0  0  0  0  0  0  0  0  0  0  0
  191.9100  171.5690  142.9150 C   0  0  1  0  0  3  0  0  0  0  0  0
  187.4250  173.3850  141.6380 C   0  0  0  0  0  3  0  0  0  0  0  0
  195.2220  175.6710  146.1380 C   0  0  0  0  0  3  0  0  0  0  0  0
  193.3230  176.7120  145.0570 C   0  0  0  0  0  3  0  0  0  0  0  0
  186.6050  178.6000  143.7550 C   0  0  0  0  0  0  0  0  0  0  0  0
  185.9850  179.5880  143.0650 F   0  0  0  0  0  0  0  0  0  0  0  0
  188.3260  176.8930  143.9190 C   0  0  0  0  0  0  0  0  0  0  0  0
  186.1540  178.2670  145.0340 C   0  0  0  0  0  3  0  0  0  0  0  0
  187.8610  176.5660  145.2030 C   0  0  0  0  0  3  0  0  0  0  0  0
  187.6900  177.9150  143.1920 C   0  0  0  0  0  0  0  0  0  0  0  0
  188.1410  178.2600  141.8840 N   0  0  0  0  0  1  0  0  0  0  0  0
  186.7800  177.2470  145.7660 C   0  0  0  0  0  0  0  0  0  0  0  0
  185.9410  177.8500  148.0130 C   0  0  0  0  0  1  0  0  0  0  0  0
  186.3490  176.8920  147.0470 O   0  0  0  0  0  0  0  0  0  0  0  0
  192.8750  171.6720  141.7370 C   0  0  0  0  0  2  0  0  0  0  0  0
  192.3940  170.9350  140.6550 O   0  0  0  0  0  1  0  0  0  0  0  0
  1 15  1  0  0  0  0
  2  4  1  1  0  0  0
  2  7  1  0  0  0  0
  2  5  1  0  0  0  0
  3  1  2  0  0  0  0
  4  1  1  0  0  0  0
  5 11  1  6  0  0  0
  6 19  1  0  0  0  0
  7 14  1  1  0  0  0
  7 16  1  0  0  0  0
  8 19  2  0  0  0  0
  9  8  1  0  0  0  0
 10 12  1  0  0  0  0
 10  4  2  0  0  0  0
 11  9  1  0  0  0  0
 12 17  1  0  0  0  0
 13 10  1  0  0  0  0
 15 23  1  1  0  0  0
 15 14  1  0  0  0  0
 16  9  2  0  0  0  0
 16 20  1  0  0  0  0
 17 31  1  6  0  0  0
 17  5  1  0  0  0  0
 18 13  2  0  0  0  0
 18  3  1  0  0  0  0
 20  6  2  0  0  0  0
 21 24  1  0  0  0  0
 22 21  1  0  0  0  0
 23 25  2  0  0  0  0
 24 28  2  0  0  0  0
 25 28  1  0  0  0  0
 26 21  2  0  0  0  0
 26 23  1  0  0  0  0
 27 26  1  0  0  0  0
 28 30  1  0  0  0  0
 30 29  1  0  0  0  0
 32 31  1  0  0  0  0
M  END
>  <MODEL>
6

>  <REMARK>
 VINA RESULT:      -7.4      2.898      7.905
  Name = 
  3 active torsions:
  status: ('A' for Active; 'I' for Inactive)
    1  A    between atoms: C_13  and  C_29
    2  A    between atoms: O_15  and  C_26
    3  A    between atoms: C_16  and  C_27
                            x       y       z     vdW  Elec       q    Type
                         _______ _______ _______ _____ _____    ______ ____

>  <TORSDO>
F 3

$$$$
=
 OpenBabel11052419123D

 32 37  0  0  1  0  0  0  0  0999 V2000
  189.2210  174.2530  142.7870 C   0  0  0  0  0  0  0  0  0  0  0  0
  190.5210  175.2470  144.7210 C   0  0  2  0  0  3  0  0  0  0  0  0
  188.0500  174.1990  142.0150 C   0  0  0  0  0  3  0  0  0  0  0  0
  189.3570  175.2580  143.7630 C   0  0  0  0  0  0  0  0  0  0  0  0
  191.0440  176.6720  144.8810 C   0  0  2  0  0  3  0  0  0  0  0  0
  195.2230  173.7050  145.3850 C   0  0  0  0  0  3  0  0  0  0  0  0
  191.5890  174.1770  144.3880 C   0  0  1  0  0  3  0  0  0  0  0  0
  194.5260  175.9060  146.1140 C   0  0  0  0  0  3  0  0  0  0  0  0
  193.2590  175.6920  145.5610 C   0  0  0  0  0  0  0  0  0  0  0  0
  188.4070  176.2990  143.8410 C   0  0  0  0  0  0  0  0  0  0  0  0
  192.2630  176.7080  145.6780 N   0  0  0  0  0  2  0  0  0  0  0  0
  188.6680  177.5570  144.6360 C   0  0  0  0  0  2  0  0  0  0  0  0
  187.2630  176.2450  143.0390 C   0  0  0  0  0  3  0  0  0  0  0  0
  191.6250  173.8700  142.9600 N   0  0  0  0  0  2  0  0  0  0  0  0
  190.3450  173.2550  142.6070 C   0  0  2  0  0  3  0  0  0  0  0  0
  192.9660  174.4720  144.9230 C   0  0  0  0  0  0  0  0  0  0  0  0
  189.9370  177.5390  145.5080 C   0  0  1  0  0  3  0  0  0  0  0  0
  187.0700  175.1850  142.1500 C   0  0  0  0  0  3  0  0  0  0  0  0
  195.5080  174.9160  146.0220 C   0  0  0  0  0  3  0  0  0  0  0  0
  193.9540  173.4820  144.8430 C   0  0  0  0  0  3  0  0  0  0  0  0
  190.5130  170.7840  139.7090 C   0  0  0  0  0  0  0  0  0  0  0  0
  190.5510  169.4460  139.5010 F   0  0  0  0  0  0  0  0  0  0  0  0
  190.4190  172.6900  141.2140 C   0  0  0  0  0  0  0  0  0  0  0  0
  190.5290  171.6510  138.6140 C   0  0  0  0  0  3  0  0  0  0  0  0
  190.4330  173.5500  140.1050 C   0  0  0  0  0  3  0  0  0  0  0  0
  190.4570  171.2980  141.0110 C   0  0  0  0  0  0  0  0  0  0  0  0
  190.4370  170.4040  142.1220 N   0  0  0  0  0  1  0  0  0  0  0  0
  190.4890  173.0400  138.8060 C   0  0  0  0  0  0  0  0  0  0  0  0
  189.3640  174.1620  136.9100 C   0  0  0  0  0  1  0  0  0  0  0  0
  190.5020  173.9310  137.7290 O   0  0  0  0  0  0  0  0  0  0  0  0
  189.5660  177.0950  146.9210 C   0  0  0  0  0  2  0  0  0  0  0  0
  188.2410  177.4320  147.1990 O   0  0  0  0  0  1  0  0  0  0  0  0
  1  4  1  0  0  0  0
  2  4  1  6  0  0  0
  2  5  1  0  0  0  0
  3 18  1  0  0  0  0
  3  1  2  0  0  0  0
  4 10  2  0  0  0  0
  5 17  1  0  0  0  0
  5 11  1  1  0  0  0
  6 19  1  0  0  0  0
  7 14  1  6  0  0  0
  7  2  1  0  0  0  0
  7 16  1  0  0  0  0
  9 11  1  0  0  0  0
  9  8  1  0  0  0  0
 10 12  1  0  0  0  0
 12 17  1  0  0  0  0
 13 10  1  0  0  0  0
 15 23  1  6  0  0  0
 15  1  1  0  0  0  0
 15 14  1  0  0  0  0
 16  9  2  0  0  0  0
 17 31  1  1  0  0  0
 18 13  2  0  0  0  0
 19  8  2  0  0  0  0
 20 16  1  0  0  0  0
 20  6  2  0  0  0  0
 21 26  1  0  0  0  0
 22 21  1  0  0  0  0
 24 28  1  0  0  0  0
 24 21  2  0  0  0  0
 25 23  1  0  0  0  0
 26 23  2  0  0  0  0
 26 27  1  0  0  0  0
 28 25  2  0  0  0  0
 29 30  1  0  0  0  0
 30 28  1  0  0  0  0
 31 32  1  0  0  0  0
M  END
>  <MODEL>
7

>  <REMARK>
 VINA RESULT:      -7.2      3.133      6.202
  Name = 
  3 active torsions:
  status: ('A' for Active; 'I' for Inactive)
    1  A    between atoms: C_13  and  C_29
    2  A    between atoms: O_15  and  C_26
    3  A    between atoms: C_16  and  C_27
                            x       y       z     vdW  Elec       q    Type
                         _______ _______ _______ _____ _____    ______ ____

>  <TORSDO>
F 3

$$$$
=
 OpenBabel11052419123D

 32 37  0  0  1  0  0  0  0  0999 V2000
  191.6230  175.6560  145.4890 C   0  0  0  0  0  0  0  0  0  0  0  0
  192.8890  174.6530  143.5380 C   0  0  2  0  0  3  0  0  0  0  0  0
  191.6310  176.2860  146.7430 C   0  0  0  0  0  3  0  0  0  0  0  0
  192.8380  175.4700  144.8030 C   0  0  0  0  0  0  0  0  0  0  0  0
  193.7930  175.3580  142.5300 C   0  0  2  0  0  3  0  0  0  0  0  0
  190.2260  173.0220  139.6410 C   0  0  0  0  0  3  0  0  0  0  0  0
  191.4940  174.2400  143.0070 C   0  0  1  0  0  3  0  0  0  0  0  0
  192.5070  173.7810  139.3530 C   0  0  0  0  0  3  0  0  0  0  0  0
  192.5610  174.1440  140.7030 C   0  0  0  0  0  0  0  0  0  0  0  0
  194.0200  176.0660  145.2900 C   0  0  0  0  0  0  0  0  0  0  0  0
  193.7660  174.6950  141.2320 N   0  0  0  0  0  2  0  0  0  0  0  0
  195.2660  176.1720  144.4410 C   0  0  0  0  0  2  0  0  0  0  0  0
  194.0010  176.7190  146.5260 C   0  0  0  0  0  3  0  0  0  0  0  0
  190.4610  175.1980  143.3910 N   0  0  0  0  0  2  0  0  0  0  0  0
  190.3410  175.1610  144.8500 C   0  0  2  0  0  3  0  0  0  0  0  0
  191.4440  173.9360  141.5340 C   0  0  0  0  0  0  0  0  0  0  0  0
  195.2220  175.4150  143.1010 C   0  0  1  0  0  3  0  0  0  0  0  0
  192.8170  176.8040  147.2640 C   0  0  0  0  0  3  0  0  0  0  0  0
  191.3390  173.2260  138.8220 C   0  0  0  0  0  3  0  0  0  0  0  0
  190.2810  173.3700  140.9940 C   0  0  0  0  0  3  0  0  0  0  0  0
  187.3470  176.3560  146.8820 C   0  0  0  0  0  0  0  0  0  0  0  0
  186.7060  176.0590  148.0390 F   0  0  0  0  0  0  0  0  0  0  0  0
  189.1250  175.9350  145.2820 C   0  0  0  0  0  0  0  0  0  0  0  0
  186.8790  177.4040  146.0860 C   0  0  0  0  0  3  0  0  0  0  0  0
  188.6470  176.9930  144.4920 C   0  0  0  0  0  3  0  0  0  0  0  0
  188.4700  175.6190  146.4860 C   0  0  0  0  0  0  0  0  0  0  0  0
  188.9410  174.5530  147.3070 N   0  0  0  0  0  1  0  0  0  0  0  0
  187.5280  177.7290  144.8850 C   0  0  0  0  0  0  0  0  0  0  0  0
  185.7080  179.0990  143.9220 C   0  0  0  0  0  1  0  0  0  0  0  0
  187.0830  178.7730  144.0710 O   0  0  0  0  0  0  0  0  0  0  0  0
  195.8420  174.0330  143.2870 C   0  0  0  0  0  2  0  0  0  0  0  0
  197.0720  173.9650  142.6320 O   0  0  0  0  0  1  0  0  0  0  0  0
  1  3  1  0  0  0  0
  2  4  1  1  0  0  0
  3 18  2  0  0  0  0
  4 10  1  0  0  0  0
  4  1  2  0  0  0  0
  5 11  1  6  0  0  0
  5 17  1  0  0  0  0
  5  2  1  0  0  0  0
  6 20  1  0  0  0  0
  7 16  1  6  0  0  0
  7 14  1  0  0  0  0
  7  2  1  0  0  0  0
  8  9  2  0  0  0  0
  9 11  1  0  0  0  0
  9 16  1  0  0  0  0
 10 13  2  0  0  0  0
 12 10  1  0  0  0  0
 13 18  1  0  0  0  0
 14 15  1  0  0  0  0
 15 23  1  6  0  0  0
 15  1  1  0  0  0  0
 17 31  1  1  0  0  0
 17 12  1  0  0  0  0
 19  8  1  0  0  0  0
 19  6  2  0  0  0  0
 20 16  2  0  0  0  0
 21 22  1  0  0  0  0
 23 26  2  0  0  0  0
 24 21  2  0  0  0  0
 25 28  2  0  0  0  0
 25 23  1  0  0  0  0
 26 21  1  0  0  0  0
 26 27  1  0  0  0  0
 28 24  1  0  0  0  0
 29 30  1  0  0  0  0
 30 28  1  0  0  0  0
 32 31  1  0  0  0  0
M  END
>  <MODEL>
8

>  <REMARK>
 VINA RESULT:      -7.1      3.303      7.458
  Name = 
  3 active torsions:
  status: ('A' for Active; 'I' for Inactive)
    1  A    between atoms: C_13  and  C_29
    2  A    between atoms: O_15  and  C_26
    3  A    between atoms: C_16  and  C_27
                            x       y       z     vdW  Elec       q    Type
                         _______ _______ _______ _____ _____    ______ ____

>  <TORSDO>
F 3

$$$$
=
 OpenBabel11052419123D

 32 37  0  0  1  0  0  0  0  0999 V2000
  191.2190  174.6610  143.3430 C   0  0  0  0  0  0  0  0  0  0  0  0
  190.2080  175.9540  145.2720 C   0  0  2  0  0  3  0  0  0  0  0  0
  192.3190  174.0050  142.7680 C   0  0  0  0  0  3  0  0  0  0  0  0
  191.3010  175.1030  144.6770 C   0  0  0  0  0  0  0  0  0  0  0  0
  189.9250  175.4730  146.6920 C   0  0  2  0  0  3  0  0  0  0  0  0
  185.3710  177.1530  144.9730 C   0  0  0  0  0  3  0  0  0  0  0  0
  188.9670  176.1020  144.3580 C   0  0  1  0  0  3  0  0  0  0  0  0
  186.4460  176.8670  147.1230 C   0  0  0  0  0  3  0  0  0  0  0  0
  187.6280  176.4790  146.4850 C   0  0  0  0  0  0  0  0  0  0  0  0
  192.4040  174.7360  145.4750 C   0  0  0  0  0  0  0  0  0  0  0  0
  188.7760  176.1580  147.2700 N   0  0  0  0  0  2  0  0  0  0  0  0
  192.3910  174.9030  146.9770 C   0  0  0  0  0  2  0  0  0  0  0  0
  193.4760  174.0530  144.8930 C   0  0  0  0  0  3  0  0  0  0  0  0
  188.7990  174.9480  143.4790 N   0  0  0  0  0  2  0  0  0  0  0  0
  189.9440  174.9150  142.5660 C   0  0  2  0  0  3  0  0  0  0  0  0
  187.6890  176.4370  145.0790 C   0  0  0  0  0  0  0  0  0  0  0  0
  191.1890  175.6790  147.5470 C   0  0  1  0  0  3  0  0  0  0  0  0
  193.4470  173.7140  143.5370 C   0  0  0  0  0  3  0  0  0  0  0  0
  185.3170  177.1990  146.3680 C   0  0  0  0  0  3  0  0  0  0  0  0
  186.5550  176.7800  144.3310 C   0  0  0  0  0  3  0  0  0  0  0  0
  188.6310  173.2590  139.3940 C   0  0  0  0  0  0  0  0  0  0  0  0
  187.8050  173.5370  138.3560 F   0  0  0  0  0  0  0  0  0  0  0  0
  189.6990  173.9030  141.4790 C   0  0  0  0  0  0  0  0  0  0  0  0
  189.2750  172.0210  139.4470 C   0  0  0  0  0  3  0  0  0  0  0  0
  190.3430  172.6570  141.5200 C   0  0  0  0  0  3  0  0  0  0  0  0
  188.8410  174.2050  140.4070 C   0  0  0  0  0  0  0  0  0  0  0  0
  188.1810  175.4670  140.3410 N   0  0  0  0  0  1  0  0  0  0  0  0
  190.1360  171.7120  140.5120 C   0  0  0  0  0  0  0  0  0  0  0  0
  190.9130  169.6040  139.4800 C   0  0  0  0  0  1  0  0  0  0  0  0
  190.7950  170.4830  140.5900 O   0  0  0  0  0  0  0  0  0  0  0  0
  191.5700  177.1500  147.6980 C   0  0  0  0  0  2  0  0  0  0  0  0
  191.5550  177.5150  149.0450 O   0  0  0  0  0  1  0  0  0  0  0  0
  1  4  1  0  0  0  0
  2  4  1  6  0  0  0
  2  5  1  0  0  0  0
  3  1  2  0  0  0  0
  3 18  1  0  0  0  0
  4 10  2  0  0  0  0
  5 11  1  1  0  0  0
  5 17  1  0  0  0  0
  6 19  1  0  0  0  0
  7 14  1  1  0  0  0
  7 16  1  0  0  0  0
  7  2  1  0  0  0  0
  9  8  1  0  0  0  0
  9 11  1  0  0  0  0
 10 12  1  0  0  0  0
 12 17  1  0  0  0  0
 13 10  1  0  0  0  0
 15 23  1  6  0  0  0
 15  1  1  0  0  0  0
 15 14  1  0  0  0  0
 16  9  2  0  0  0  0
 17 31  1  6  0  0  0
 18 13  2  0  0  0  0
 19  8  2  0  0  0  0
 20  6  2  0  0  0  0
 20 16  1  0  0  0  0
 21 24  2  0  0  0  0
 21 26  1  0  0  0  0
 22 21  1  0  0  0  0
 23 25  1  0  0  0  0
 24 28  1  0  0  0  0
 26 23  2  0  0  0  0
 27 26  1  0  0  0  0
 28 30  1  0  0  0  0
 28 25  2  0  0  0  0
 29 30  1  0  0  0  0
 31 32  1  0  0  0  0
M  END
>  <MODEL>
9

>  <REMARK>
 VINA RESULT:      -6.9      2.670      4.420
  Name = 
  3 active torsions:
  status: ('A' for Active; 'I' for Inactive)
    1  A    between atoms: C_13  and  C_29
    2  A    between atoms: O_15  and  C_26
    3  A    between atoms: C_16  and  C_27
                            x       y       z     vdW  Elec       q    Type
                         _______ _______ _______ _____ _____    ______ ____

>  <TORSDO>
F 3

$$$$
