=
 OpenBabel11052421433D

 32 36  0  0  1  0  0  0  0  0999 V2000
  194.9490  175.7410  144.7110 C   0  0  1  0  0  3  0  0  0  0  0  0
  189.8420  175.8300  144.5490 C   0  0  0  0  0  0  0  0  0  0  0  0
  190.7540  173.8250  140.7480 C   0  0  0  0  0  1  0  0  0  0  0  0
  188.0620  176.8310  146.0970 C   0  0  1  0  0  3  0  0  0  0  0  0
  186.6800  177.4460  146.1260 C   0  0  0  0  0  0  0  0  0  0  0  0
  192.1550  175.8850  145.3100 C   0  0  0  0  0  0  0  0  0  0  0  0
  191.6500  175.2690  143.0250 C   0  0  0  0  0  3  0  0  0  0  0  0
  184.1080  178.5690  146.2080 C   0  0  0  0  0  3  0  0  0  0  0  0
  193.9510  175.3500  143.7650 O   0  0  0  0  0  0  0  0  0  0  0  0
  189.5020  174.4680  141.1120 N   0  0  0  0  0  0  0  0  0  0  0  0
  190.2720  175.4030  143.2700 C   0  0  0  0  0  0  0  0  0  0  0  0
  189.2610  175.1670  142.1880 C   0  0  0  0  0  0  0  0  0  0  0  0
  187.6840  176.5850  143.5820 C   0  0  1  0  0  3  0  0  0  0  0  0
  184.9460  178.6590  147.3230 C   0  0  0  0  0  3  0  0  0  0  0  0
  194.4760  175.4450  146.1310 C   0  0  0  0  0  2  0  0  0  0  0  0
  192.5860  175.5110  144.0290 C   0  0  0  0  0  0  0  0  0  0  0  0
  186.2260  178.1030  147.2820 C   0  0  0  0  0  3  0  0  0  0  0  0
  193.1550  176.1700  146.3910 C   0  0  0  0  0  2  0  0  0  0  0  0
  187.8430  175.6500  142.3810 C   0  0  1  0  0  3  0  0  0  0  0  0
  186.2980  176.8120  143.8150 O   0  0  0  0  0  0  0  0  0  0  0  0
  190.7940  176.0530  145.5580 C   0  0  0  0  0  3  0  0  0  0  0  0
  188.2570  175.9470  147.3240 C   0  0  0  0  0  1  0  0  0  0  0  0
  184.5590  177.9400  145.0450 C   0  0  0  0  0  3  0  0  0  0  0  0
  188.3580  175.9950  144.8260 C   0  0  1  0  0  3  0  0  0  0  0  0
  185.8470  177.3970  144.9950 C   0  0  0  0  0  0  0  0  0  0  0  0
  187.9180  177.5900  141.3090 C   0  0  0  0  0  1  0  0  0  0  0  0
  187.3940  176.2980  141.2250 O   0  0  0  0  0  0  0  0  0  0  0  0
  196.2440  175.0010  144.4360 C   0  0  0  0  0  2  0  0  0  0  0  0
  196.5630  175.0380  142.9530 C   0  0  0  0  0  2  0  0  0  0  0  0
  197.6380  177.1480  143.1950 O   0  0  0  0  0  1  0  0  0  0  0  0
  196.1890  176.9710  141.4270 O   0  0  0  0  0  0  0  0  0  0  0  0
  196.8390  176.4380  142.5310 C   0  0  0  0  0  0  0  0  0  0  0  0
  1 28  1  6  0  0  0
  1 15  1  0  0  0  0
  2 21  1  0  0  0  0
  3 10  1  0  0  0  0
  4  5  1  0  0  0  0
  4 22  1  1  0  0  0
  5 17  1  0  0  0  0
  6 21  2  0  0  0  0
  6 18  1  0  0  0  0
  7 11  1  0  0  0  0
  7 16  2  0  0  0  0
  8 14  1  0  0  0  0
  9 16  1  0  0  0  0
  9  1  1  0  0  0  0
 10 12  2  0  0  0  0
 11  2  2  0  0  0  0
 12 19  1  0  0  0  0
 12 11  1  0  0  0  0
 13 20  1  1  0  0  0
 13 24  1  0  0  0  0
 15 18  1  0  0  0  0
 16  6  1  0  0  0  0
 17 14  2  0  0  0  0
 19 27  1  6  0  0  0
 19 13  1  0  0  0  0
 20 25  1  0  0  0  0
 23  8  2  0  0  0  0
 24  2  1  6  0  0  0
 24  4  1  0  0  0  0
 25 23  1  0  0  0  0
 25  5  2  0  0  0  0
 27 26  1  0  0  0  0
 29 28  1  0  0  0  0
 31 32  2  0  0  0  0
 32 29  1  0  0  0  0
 32 30  1  0  0  0  0
M  END
>  <MODEL>
1

>  <REMARK>
 VINA RESULT:      -8.7      0.000      0.000
  Name = 
  4 active torsions:
  status: ('A' for Active; 'I' for Inactive)
    1  A    between atoms: C_2  and  C_24
    2  A    between atoms: C_10  and  C_20
    3  A    between atoms: C_10  and  C_24
    4  A    between atoms: O_25  and  C_26
                            x       y       z     vdW  Elec       q    Type
                         _______ _______ _______ _____ _____    ______ ____

>  <TORSDO>
F 4

$$$$
=
 OpenBabel11052421433D

 32 36  0  0  1  0  0  0  0  0999 V2000
  194.9660  175.6640  144.8070 C   0  0  1  0  0  3  0  0  0  0  0  0
  189.8620  175.7990  144.5730 C   0  0  0  0  0  0  0  0  0  0  0  0
  190.8120  173.7920  140.7820 C   0  0  0  0  0  1  0  0  0  0  0  0
  188.0690  176.8130  146.0980 C   0  0  1  0  0  3  0  0  0  0  0  0
  186.6930  177.4400  146.1080 C   0  0  0  0  0  0  0  0  0  0  0  0
  192.1650  175.8320  145.3670 C   0  0  0  0  0  0  0  0  0  0  0  0
  191.6870  175.2240  143.0740 C   0  0  0  0  0  3  0  0  0  0  0  0
  184.1300  178.5850  146.1550 C   0  0  0  0  0  3  0  0  0  0  0  0
  193.9780  175.2840  143.8470 O   0  0  0  0  0  0  0  0  0  0  0  0
  189.5600  174.4460  141.1300 N   0  0  0  0  0  0  0  0  0  0  0  0
  190.3080  175.3700  143.2990 C   0  0  0  0  0  0  0  0  0  0  0  0
  189.3100  175.1450  142.2030 C   0  0  0  0  0  0  0  0  0  0  0  0
  187.7250  176.5740  143.5770 C   0  0  1  0  0  3  0  0  0  0  0  0
  184.9520  178.6670  147.2820 C   0  0  0  0  0  3  0  0  0  0  0  0
  194.4700  175.3700  146.2200 C   0  0  0  0  0  2  0  0  0  0  0  0
  192.6110  175.4570  144.0920 C   0  0  0  0  0  0  0  0  0  0  0  0
  186.2290  178.0990  147.2580 C   0  0  0  0  0  3  0  0  0  0  0  0
  193.1520  176.1060  146.4630 C   0  0  0  0  0  2  0  0  0  0  0  0
  187.8930  175.6400  142.3770 C   0  0  1  0  0  3  0  0  0  0  0  0
  186.3380  176.8130  143.7910 O   0  0  0  0  0  0  0  0  0  0  0  0
  190.8030  176.0120  145.5960 C   0  0  0  0  0  3  0  0  0  0  0  0
  188.2400  175.9250  147.3250 C   0  0  0  0  0  1  0  0  0  0  0  0
  184.5920  177.9540  144.9980 C   0  0  0  0  0  3  0  0  0  0  0  0
  188.3770  175.9770  144.8300 C   0  0  1  0  0  3  0  0  0  0  0  0
  185.8750  177.4010  144.9650 C   0  0  0  0  0  0  0  0  0  0  0  0
  187.9460  177.5990  141.3390 C   0  0  0  0  0  1  0  0  0  0  0  0
  187.4670  176.2940  141.2160 O   0  0  0  0  0  0  0  0  0  0  0  0
  196.2580  174.9140  144.5500 C   0  0  0  0  0  2  0  0  0  0  0  0
  196.6490  174.1100  145.7780 C   0  0  0  0  0  2  0  0  0  0  0  0
  196.9460  171.7770  146.1440 O   0  0  0  0  0  1  0  0  0  0  0  0
  197.7300  172.5730  144.1420 O   0  0  0  0  0  0  0  0  0  0  0  0
  197.1030  172.7540  145.3670 C   0  0  0  0  0  0  0  0  0  0  0  0
  1 28  1  6  0  0  0
  1 15  1  0  0  0  0
  2 21  1  0  0  0  0
  3 10  1  0  0  0  0
  4  5  1  0  0  0  0
  4 22  1  1  0  0  0
  5 17  1  0  0  0  0
  6 21  2  0  0  0  0
  6 18  1  0  0  0  0
  7 11  1  0  0  0  0
  7 16  2  0  0  0  0
  8 14  1  0  0  0  0
  9 16  1  0  0  0  0
  9  1  1  0  0  0  0
 10 12  2  0  0  0  0
 11  2  2  0  0  0  0
 12 19  1  0  0  0  0
 12 11  1  0  0  0  0
 13 20  1  1  0  0  0
 13 24  1  0  0  0  0
 15 18  1  0  0  0  0
 16  6  1  0  0  0  0
 17 14  2  0  0  0  0
 19 27  1  6  0  0  0
 19 13  1  0  0  0  0
 20 25  1  0  0  0  0
 23  8  2  0  0  0  0
 24  2  1  6  0  0  0
 24  4  1  0  0  0  0
 25 23  1  0  0  0  0
 25  5  2  0  0  0  0
 27 26  1  0  0  0  0
 28 29  1  0  0  0  0
 31 32  2  0  0  0  0
 32 29  1  0  0  0  0
 32 30  1  0  0  0  0
M  END
>  <MODEL>
2

>  <REMARK>
 VINA RESULT:      -8.7      1.355      1.748
  Name = 
  4 active torsions:
  status: ('A' for Active; 'I' for Inactive)
    1  A    between atoms: C_2  and  C_24
    2  A    between atoms: C_10  and  C_20
    3  A    between atoms: C_10  and  C_24
    4  A    between atoms: O_25  and  C_26
                            x       y       z     vdW  Elec       q    Type
                         _______ _______ _______ _____ _____    ______ ____

>  <TORSDO>
F 4

$$$$
=
 OpenBabel11052421433D

 32 36  0  0  1  0  0  0  0  0999 V2000
  186.4830  176.8650  146.4340 C   0  0  1  0  0  3  0  0  0  0  0  0
  190.9380  175.5430  144.3070 C   0  0  0  0  0  0  0  0  0  0  0  0
  188.2030  174.9850  140.9130 C   0  0  0  0  0  1  0  0  0  0  0  0
  193.3160  175.3110  145.2340 C   0  0  1  0  0  3  0  0  0  0  0  0
  194.6120  174.5460  145.0820 C   0  0  0  0  0  0  0  0  0  0  0  0
  189.2420  176.4850  145.7810 C   0  0  0  0  0  0  0  0  0  0  0  0
  188.5890  175.4600  143.6880 C   0  0  0  0  0  3  0  0  0  0  0  0
  197.0350  173.1550  144.8050 C   0  0  0  0  0  3  0  0  0  0  0  0
  186.8980  176.3670  145.1600 O   0  0  0  0  0  0  0  0  0  0  0  0
  189.5410  174.4300  141.0530 N   0  0  0  0  0  0  0  0  0  0  0  0
  189.9320  175.1940  143.3730 C   0  0  0  0  0  0  0  0  0  0  0  0
  190.3120  174.4920  142.1040 C   0  0  0  0  0  0  0  0  0  0  0  0
  192.4810  173.8930  143.2780 C   0  0  1  0  0  3  0  0  0  0  0  0
  196.8100  173.9490  145.9330 C   0  0  0  0  0  3  0  0  0  0  0  0
  187.5190  177.8420  146.9820 C   0  0  0  0  0  2  0  0  0  0  0  0
  188.2410  176.0930  144.8810 C   0  0  0  0  0  0  0  0  0  0  0  0
  195.6040  174.6390  146.0720 C   0  0  0  0  0  3  0  0  0  0  0  0
  188.8770  177.1470  147.0770 C   0  0  0  0  0  2  0  0  0  0  0  0
  191.7020  173.9180  141.9610 C   0  0  1  0  0  3  0  0  0  0  0  0
  193.8360  173.5470  143.0120 O   0  0  0  0  0  0  0  0  0  0  0  0
  190.5760  176.1980  145.4970 C   0  0  0  0  0  3  0  0  0  0  0  0
  193.6140  176.7710  145.5510 C   0  0  0  0  0  1  0  0  0  0  0  0
  196.0450  173.0350  143.8280 C   0  0  0  0  0  3  0  0  0  0  0  0
  192.3930  175.2490  143.9900 C   0  0  1  0  0  3  0  0  0  0  0  0
  194.8300  173.7110  143.9730 C   0  0  0  0  0  0  0  0  0  0  0  0
  191.1540  171.8340  142.4810 C   0  0  0  0  0  1  0  0  0  0  0  0
  191.6360  172.6230  141.4360 O   0  0  0  0  0  0  0  0  0  0  0  0
  185.1400  177.5570  146.3100 C   0  0  0  0  0  2  0  0  0  0  0  0
  185.3380  179.0370  146.0300 C   0  0  0  0  0  2  0  0  0  0  0  0
  185.5520  180.3180  144.0350 O   0  0  0  0  0  1  0  0  0  0  0  0
  184.1360  178.5180  143.9100 O   0  0  0  0  0  0  0  0  0  0  0  0
  185.0280  179.3250  144.6040 C   0  0  0  0  0  0  0  0  0  0  0  0
  1 28  1  6  0  0  0
  1 15  1  0  0  0  0
  2 21  1  0  0  0  0
  3 10  1  0  0  0  0
  4 22  1  6  0  0  0
  5  4  1  0  0  0  0
  5 17  1  0  0  0  0
  6 18  1  0  0  0  0
  7 16  2  0  0  0  0
  8 14  1  0  0  0  0
  9  1  1  0  0  0  0
 10 12  2  0  0  0  0
 11  7  1  0  0  0  0
 11  2  2  0  0  0  0
 12 11  1  0  0  0  0
 13 20  1  6  0  0  0
 13 24  1  0  0  0  0
 14 17  2  0  0  0  0
 15 18  1  0  0  0  0
 16  9  1  0  0  0  0
 16  6  1  0  0  0  0
 19 27  1  1  0  0  0
 19 12  1  0  0  0  0
 19 13  1  0  0  0  0
 20 25  1  0  0  0  0
 21  6  2  0  0  0  0
 23 25  1  0  0  0  0
 23  8  2  0  0  0  0
 24  2  1  1  0  0  0
 24  4  1  0  0  0  0
 25  5  2  0  0  0  0
 27 26  1  0  0  0  0
 29 28  1  0  0  0  0
 30 32  1  0  0  0  0
 31 32  2  0  0  0  0
 32 29  1  0  0  0  0
M  END
>  <MODEL>
3

>  <REMARK>
 VINA RESULT:      -8.0      2.015      8.032
  Name = 
  4 active torsions:
  status: ('A' for Active; 'I' for Inactive)
    1  A    between atoms: C_2  and  C_24
    2  A    between atoms: C_10  and  C_20
    3  A    between atoms: C_10  and  C_24
    4  A    between atoms: O_25  and  C_26
                            x       y       z     vdW  Elec       q    Type
                         _______ _______ _______ _____ _____    ______ ____

>  <TORSDO>
F 4

$$$$
=
 OpenBabel11052421433D

 32 36  0  0  1  0  0  0  0  0999 V2000
  195.0210  175.2090  145.2750 C   0  0  1  0  0  3  0  0  0  0  0  0
  189.9890  175.3380  144.3890 C   0  0  0  0  0  0  0  0  0  0  0  0
  191.0100  171.3740  142.7900 C   0  0  0  0  0  1  0  0  0  0  0  0
  188.2000  177.1400  144.7320 C   0  0  1  0  0  3  0  0  0  0  0  0
  186.8980  177.6820  144.1860 C   0  0  0  0  0  0  0  0  0  0  0  0
  192.2180  175.7820  145.2670 C   0  0  0  0  0  0  0  0  0  0  0  0
  191.8530  173.8940  143.7990 C   0  0  0  0  0  3  0  0  0  0  0  0
  184.4690  178.6910  143.2040 C   0  0  0  0  0  3  0  0  0  0  0  0
  194.0730  174.3460  144.6420 O   0  0  0  0  0  0  0  0  0  0  0  0
  189.8080  172.1440  142.5060 N   0  0  0  0  0  0  0  0  0  0  0  0
  190.4830  174.1930  143.7160 C   0  0  0  0  0  0  0  0  0  0  0  0
  189.5510  173.3670  142.8800 C   0  0  0  0  0  0  0  0  0  0  0  0
  188.0230  175.3930  142.8750 C   0  0  1  0  0  3  0  0  0  0  0  0
  185.2090  179.4300  144.1320 C   0  0  0  0  0  3  0  0  0  0  0  0
  194.3930  175.8770  146.4960 C   0  0  0  0  0  2  0  0  0  0  0  0
  192.7170  174.6790  144.5590 C   0  0  0  0  0  0  0  0  0  0  0  0
  186.4190  178.9290  144.6180 C   0  0  0  0  0  3  0  0  0  0  0  0
  193.1430  176.6470  146.0710 C   0  0  0  0  0  2  0  0  0  0  0  0
  188.1840  173.9100  142.5370 C   0  0  1  0  0  3  0  0  0  0  0  0
  186.6550  175.7590  142.7260 O   0  0  0  0  0  0  0  0  0  0  0  0
  190.8670  176.1110  145.1680 C   0  0  0  0  0  3  0  0  0  0  0  0
  188.1870  177.2060  146.2540 C   0  0  0  0  0  1  0  0  0  0  0  0
  184.9490  177.4610  142.7490 C   0  0  0  0  0  3  0  0  0  0  0  0
  188.5150  175.6860  144.2980 C   0  0  1  0  0  3  0  0  0  0  0  0
  186.1680  176.9660  143.2210 C   0  0  0  0  0  0  0  0  0  0  0  0
  188.6740  174.6750  140.5150 C   0  0  0  0  0  1  0  0  0  0  0  0
  187.9140  173.7100  141.1790 O   0  0  0  0  0  0  0  0  0  0  0  0
  196.2450  174.4200  145.6950 C   0  0  0  0  0  2  0  0  0  0  0  0
  196.7840  173.6250  144.5190 C   0  0  0  0  0  2  0  0  0  0  0  0
  197.6740  171.4480  144.1510 O   0  0  0  0  0  0  0  0  0  0  0  0
  196.8770  171.8490  146.2640 O   0  0  0  0  0  1  0  0  0  0  0  0
  197.1480  172.2530  144.9630 C   0  0  0  0  0  0  0  0  0  0  0  0
  1 28  1  1  0  0  0
  1 15  1  0  0  0  0
  2 21  1  0  0  0  0
  4 22  1  1  0  0  0
  5 17  1  0  0  0  0
  5  4  1  0  0  0  0
  6 18  1  0  0  0  0
  7 16  2  0  0  0  0
  8 14  1  0  0  0  0
  9  1  1  0  0  0  0
 10  3  1  0  0  0  0
 10 12  2  0  0  0  0
 11  7  1  0  0  0  0
 11  2  2  0  0  0  0
 12 11  1  0  0  0  0
 13 20  1  1  0  0  0
 13 24  1  0  0  0  0
 14 17  2  0  0  0  0
 16  9  1  0  0  0  0
 16  6  1  0  0  0  0
 18 15  1  0  0  0  0
 19 27  1  6  0  0  0
 19 13  1  0  0  0  0
 19 12  1  0  0  0  0
 20 25  1  0  0  0  0
 21  6  2  0  0  0  0
 23  8  2  0  0  0  0
 23 25  1  0  0  0  0
 24  2  1  6  0  0  0
 24  4  1  0  0  0  0
 25  5  2  0  0  0  0
 26 27  1  0  0  0  0
 29 32  1  0  0  0  0
 29 28  1  0  0  0  0
 30 32  2  0  0  0  0
 32 31  1  0  0  0  0
M  END
>  <MODEL>
4

>  <REMARK>
 VINA RESULT:      -7.9      2.073      2.585
  Name = 
  4 active torsions:
  status: ('A' for Active; 'I' for Inactive)
    1  A    between atoms: C_2  and  C_24
    2  A    between atoms: C_10  and  C_20
    3  A    between atoms: C_10  and  C_24
    4  A    between atoms: O_25  and  C_26
                            x       y       z     vdW  Elec       q    Type
                         _______ _______ _______ _____ _____    ______ ____

>  <TORSDO>
F 4

$$$$
=
 OpenBabel11052421433D

 32 36  0  0  1  0  0  0  0  0999 V2000
  189.9790  172.6070  139.4680 C   0  0  1  0  0  3  0  0  0  0  0  0
  188.9310  175.8010  143.3170 C   0  0  0  0  0  0  0  0  0  0  0  0
  192.9980  174.5250  144.3850 C   0  0  0  0  0  1  0  0  0  0  0  0
  186.8370  177.1300  143.9650 C   0  0  1  0  0  3  0  0  0  0  0  0
  186.0630  177.6850  145.1390 C   0  0  0  0  0  0  0  0  0  0  0  0
  188.9070  174.6330  141.1790 C   0  0  0  0  0  0  0  0  0  0  0  0
  190.6830  174.2090  142.7670 C   0  0  0  0  0  3  0  0  0  0  0  0
  184.6200  178.7440  147.3020 C   0  0  0  0  0  3  0  0  0  0  0  0
  190.6500  173.0250  140.6590 O   0  0  0  0  0  0  0  0  0  0  0  0
  192.0200  175.1430  145.2670 N   0  0  0  0  0  0  0  0  0  0  0  0
  190.1390  175.1470  143.6610 C   0  0  0  0  0  0  0  0  0  0  0  0
  190.7740  175.4160  144.9920 C   0  0  0  0  0  0  0  0  0  0  0  0
  188.5050  176.2950  145.7120 C   0  0  1  0  0  3  0  0  0  0  0  0
  184.0370  178.6890  146.0330 C   0  0  0  0  0  3  0  0  0  0  0  0
  189.2210  173.7790  138.8500 C   0  0  0  0  0  2  0  0  0  0  0  0
  190.0750  173.9470  141.5400 C   0  0  0  0  0  0  0  0  0  0  0  0
  184.7540  178.1600  144.9570 C   0  0  0  0  0  3  0  0  0  0  0  0
  188.2320  174.3420  139.8710 C   0  0  0  0  0  2  0  0  0  0  0  0
  189.9890  176.1520  146.0530 C   0  0  1  0  0  3  0  0  0  0  0  0
  187.8950  177.1780  146.6470 O   0  0  0  0  0  0  0  0  0  0  0  0
  188.3380  175.5420  142.0690 C   0  0  0  0  0  3  0  0  0  0  0  0
  186.7850  178.1140  142.8020 C   0  0  0  0  0  1  0  0  0  0  0  0
  185.9120  178.2510  147.4980 C   0  0  0  0  0  3  0  0  0  0  0  0
  188.3200  176.8050  144.2780 C   0  0  1  0  0  3  0  0  0  0  0  0
  186.6250  177.7050  146.4270 C   0  0  0  0  0  0  0  0  0  0  0  0
  189.1830  174.4720  147.2550 C   0  0  0  0  0  1  0  0  0  0  0  0
  190.1230  175.5040  147.2850 O   0  0  0  0  0  0  0  0  0  0  0  0
  190.9820  172.0610  138.4700 C   0  0  0  0  0  2  0  0  0  0  0  0
  191.7450  170.8980  139.0770 C   0  0  0  0  0  2  0  0  0  0  0  0
  190.1210  169.3060  138.3750 O   0  0  0  0  0  0  0  0  0  0  0  0
  190.7000  169.2200  140.5920 O   0  0  0  0  0  1  0  0  0  0  0  0
  190.8190  169.7600  139.3190 C   0  0  0  0  0  0  0  0  0  0  0  0
  1 28  1  6  0  0  0
  1  9  1  0  0  0  0
  2 11  1  0  0  0  0
  3 10  1  0  0  0  0
  4 22  1  6  0  0  0
  4 24  1  0  0  0  0
  4  5  1  0  0  0  0
  5 25  1  0  0  0  0
  6 16  2  0  0  0  0
  6 21  1  0  0  0  0
  7 11  2  0  0  0  0
  8 23  1  0  0  0  0
  9 16  1  0  0  0  0
 11 12  1  0  0  0  0
 12 10  2  0  0  0  0
 12 19  1  0  0  0  0
 13 19  1  0  0  0  0
 13 20  1  1  0  0  0
 14  8  2  0  0  0  0
 15  1  1  0  0  0  0
 15 18  1  0  0  0  0
 16  7  1  0  0  0  0
 17  5  2  0  0  0  0
 17 14  1  0  0  0  0
 18  6  1  0  0  0  0
 19 27  1  1  0  0  0
 21  2  2  0  0  0  0
 24  2  1  6  0  0  0
 24 13  1  0  0  0  0
 25 20  1  0  0  0  0
 25 23  2  0  0  0  0
 26 27  1  0  0  0  0
 28 29  1  0  0  0  0
 29 32  1  0  0  0  0
 30 32  2  0  0  0  0
 32 31  1  0  0  0  0
M  END
>  <MODEL>
5

>  <REMARK>
 VINA RESULT:      -7.9      2.997      5.580
  Name = 
  4 active torsions:
  status: ('A' for Active; 'I' for Inactive)
    1  A    between atoms: C_2  and  C_24
    2  A    between atoms: C_10  and  C_20
    3  A    between atoms: C_10  and  C_24
    4  A    between atoms: O_25  and  C_26
                            x       y       z     vdW  Elec       q    Type
                         _______ _______ _______ _____ _____    ______ ____

>  <TORSDO>
F 4

$$$$
=
 OpenBabel11052421433D

 32 36  0  0  1  0  0  0  0  0999 V2000
  186.9650  177.4910  143.8230 C   0  0  1  0  0  3  0  0  0  0  0  0
  191.7330  175.6590  143.6620 C   0  0  0  0  0  0  0  0  0  0  0  0
  190.8570  175.3090  147.9530 C   0  0  0  0  0  1  0  0  0  0  0  0
  193.4520  175.4240  141.7760 C   0  0  1  0  0  3  0  0  0  0  0  0
  194.9340  175.4280  141.4720 C   0  0  0  0  0  0  0  0  0  0  0  0
  189.4870  176.3800  143.0550 C   0  0  0  0  0  0  0  0  0  0  0  0
  190.1360  176.2850  145.3830 C   0  0  0  0  0  3  0  0  0  0  0  0
  197.6800  175.4090  140.8870 C   0  0  0  0  0  3  0  0  0  0  0  0
  187.9140  177.0300  144.7870 O   0  0  0  0  0  0  0  0  0  0  0  0
  192.1710  175.2930  147.3300 N   0  0  0  0  0  0  0  0  0  0  0  0
  191.4100  175.8070  145.0330 C   0  0  0  0  0  0  0  0  0  0  0  0
  192.4490  175.5150  146.0740 C   0  0  0  0  0  0  0  0  0  0  0  0
  194.1520  175.7680  144.2100 C   0  0  1  0  0  3  0  0  0  0  0  0
  196.7450  175.4960  139.8510 C   0  0  0  0  0  3  0  0  0  0  0  0
  187.0520  176.6510  142.5520 C   0  0  0  0  0  2  0  0  0  0  0  0
  189.1830  176.5760  144.4090 C   0  0  0  0  0  0  0  0  0  0  0  0
  195.3790  175.5090  140.1430 C   0  0  0  0  0  3  0  0  0  0  0  0
  188.4760  176.7110  141.9970 C   0  0  0  0  0  2  0  0  0  0  0  0
  193.8900  175.3430  145.6560 C   0  0  1  0  0  3  0  0  0  0  0  0
  195.4670  175.3720  143.8380 O   0  0  0  0  0  0  0  0  0  0  0  0
  190.7570  175.9370  142.6900 C   0  0  0  0  0  3  0  0  0  0  0  0
  192.7530  174.3780  140.9160 C   0  0  0  0  0  1  0  0  0  0  0  0
  197.2480  175.3540  142.2140 C   0  0  0  0  0  3  0  0  0  0  0  0
  193.1100  175.1590  143.2640 C   0  0  1  0  0  3  0  0  0  0  0  0
  195.8820  175.3830  142.5090 C   0  0  0  0  0  0  0  0  0  0  0  0
  194.5630  177.4000  146.1370 C   0  0  0  0  0  1  0  0  0  0  0  0
  194.7280  176.0650  146.5120 O   0  0  0  0  0  0  0  0  0  0  0  0
  185.5630  177.4130  144.3940 C   0  0  0  0  0  2  0  0  0  0  0  0
  185.5950  176.7910  145.7780 C   0  0  0  0  0  2  0  0  0  0  0  0
  184.0700  178.4530  146.5380 O   0  0  0  0  0  0  0  0  0  0  0  0
  185.7870  177.9530  147.9730 O   0  0  0  0  0  1  0  0  0  0  0  0
  185.0980  177.7690  146.7820 C   0  0  0  0  0  0  0  0  0  0  0  0
  1 28  1  1  0  0  0
  1  9  1  0  0  0  0
  2 11  1  0  0  0  0
  4 22  1  6  0  0  0
  4 24  1  0  0  0  0
  5  4  1  0  0  0  0
  5 25  1  0  0  0  0
  6 16  2  0  0  0  0
  8 23  1  0  0  0  0
 10  3  1  0  0  0  0
 11  7  2  0  0  0  0
 11 12  1  0  0  0  0
 12 10  2  0  0  0  0
 13 20  1  6  0  0  0
 13 19  1  0  0  0  0
 14 17  1  0  0  0  0
 14  8  2  0  0  0  0
 15  1  1  0  0  0  0
 16  9  1  0  0  0  0
 16  7  1  0  0  0  0
 17  5  2  0  0  0  0
 18 15  1  0  0  0  0
 18  6  1  0  0  0  0
 19 12  1  0  0  0  0
 19 27  1  1  0  0  0
 21  6  1  0  0  0  0
 21  2  2  0  0  0  0
 23 25  2  0  0  0  0
 24  2  1  1  0  0  0
 24 13  1  0  0  0  0
 25 20  1  0  0  0  0
 26 27  1  0  0  0  0
 28 29  1  0  0  0  0
 29 32  1  0  0  0  0
 30 32  2  0  0  0  0
 32 31  1  0  0  0  0
M  END
>  <MODEL>
6

>  <REMARK>
 VINA RESULT:      -7.7      2.219      8.959
  Name = 
  4 active torsions:
  status: ('A' for Active; 'I' for Inactive)
    1  A    between atoms: C_2  and  C_24
    2  A    between atoms: C_10  and  C_20
    3  A    between atoms: C_10  and  C_24
    4  A    between atoms: O_25  and  C_26
                            x       y       z     vdW  Elec       q    Type
                         _______ _______ _______ _____ _____    ______ ____

>  <TORSDO>
F 4

$$$$
=
 OpenBabel11052421433D

 32 36  0  0  1  0  0  0  0  0999 V2000
  190.2760  171.9360  140.2850 C   0  0  1  0  0  3  0  0  0  0  0  0
  189.1530  175.7070  143.5470 C   0  0  0  0  0  0  0  0  0  0  0  0
  193.5150  175.4800  144.0160 C   0  0  0  0  0  1  0  0  0  0  0  0
  186.9420  176.7490  144.3190 C   0  0  1  0  0  3  0  0  0  0  0  0
  186.2540  177.4170  145.4880 C   0  0  0  0  0  0  0  0  0  0  0  0
  189.0590  174.0810  141.7350 C   0  0  0  0  0  0  0  0  0  0  0  0
  191.1070  174.3750  142.9890 C   0  0  0  0  0  3  0  0  0  0  0  0
  184.9630  178.6780  147.6390 C   0  0  0  0  0  3  0  0  0  0  0  0
  191.0130  172.7390  141.2100 O   0  0  0  0  0  0  0  0  0  0  0  0
  192.5730  176.1010  144.9340 N   0  0  0  0  0  0  0  0  0  0  0  0
  190.5140  175.3830  143.7670 C   0  0  0  0  0  0  0  0  0  0  0  0
  191.2710  176.0710  144.8630 C   0  0  0  0  0  0  0  0  0  0  0  0
  189.0010  176.6680  145.8300 C   0  0  1  0  0  3  0  0  0  0  0  0
  184.2190  178.2190  146.5480 C   0  0  0  0  0  3  0  0  0  0  0  0
  189.1920  172.7710  139.6090 C   0  0  0  0  0  2  0  0  0  0  0  0
  190.3910  173.7240  141.9860 C   0  0  0  0  0  0  0  0  0  0  0  0
  184.8610  177.5890  145.4800 C   0  0  0  0  0  3  0  0  0  0  0  0
  188.2720  173.3710  140.6720 C   0  0  0  0  0  2  0  0  0  0  0  0
  190.5150  176.8820  145.8900 C   0  0  1  0  0  3  0  0  0  0  0  0
  188.3630  177.6220  146.6720 O   0  0  0  0  0  0  0  0  0  0  0  0
  188.4470  175.0560  142.5200 C   0  0  0  0  0  3  0  0  0  0  0  0
  186.4950  177.4030  143.0170 C   0  0  0  0  0  1  0  0  0  0  0  0
  186.3470  178.4890  147.6680 C   0  0  0  0  0  3  0  0  0  0  0  0
  188.4900  176.7820  144.3890 C   0  0  1  0  0  3  0  0  0  0  0  0
  186.9900  177.8430  146.6080 C   0  0  0  0  0  0  0  0  0  0  0  0
  190.4930  175.2970  147.4410 C   0  0  0  0  0  1  0  0  0  0  0  0
  190.9770  176.5800  147.1750 O   0  0  0  0  0  0  0  0  0  0  0  0
  191.2090  171.3610  139.2370 C   0  0  0  0  0  2  0  0  0  0  0  0
  191.1310  172.1800  137.9610 C   0  0  0  0  0  2  0  0  0  0  0  0
  193.2920  173.0350  138.4760 O   0  0  0  0  0  1  0  0  0  0  0  0
  192.8600  172.7110  136.2480 O   0  0  0  0  0  0  0  0  0  0  0  0
  192.4890  172.6550  137.5840 C   0  0  0  0  0  0  0  0  0  0  0  0
  1 28  1  6  0  0  0
  1  9  1  0  0  0  0
  2 11  1  0  0  0  0
  3 10  1  0  0  0  0
  4 22  1  6  0  0  0
  4 24  1  0  0  0  0
  4  5  1  0  0  0  0
  5 25  1  0  0  0  0
  6 16  2  0  0  0  0
  6 21  1  0  0  0  0
  7 11  2  0  0  0  0
  8 23  1  0  0  0  0
  9 16  1  0  0  0  0
 11 12  1  0  0  0  0
 12 10  2  0  0  0  0
 12 19  1  0  0  0  0
 13 19  1  0  0  0  0
 13 20  1  1  0  0  0
 14  8  2  0  0  0  0
 15  1  1  0  0  0  0
 15 18  1  0  0  0  0
 16  7  1  0  0  0  0
 17  5  2  0  0  0  0
 17 14  1  0  0  0  0
 18  6  1  0  0  0  0
 19 27  1  1  0  0  0
 21  2  2  0  0  0  0
 24  2  1  6  0  0  0
 24 13  1  0  0  0  0
 25 20  1  0  0  0  0
 25 23  2  0  0  0  0
 27 26  1  0  0  0  0
 29 28  1  0  0  0  0
 31 32  2  0  0  0  0
 32 29  1  0  0  0  0
 32 30  1  0  0  0  0
M  END
>  <MODEL>
7

>  <REMARK>
 VINA RESULT:      -7.7      2.774      5.088
  Name = 
  4 active torsions:
  status: ('A' for Active; 'I' for Inactive)
    1  A    between atoms: C_2  and  C_24
    2  A    between atoms: C_10  and  C_20
    3  A    between atoms: C_10  and  C_24
    4  A    between atoms: O_25  and  C_26
                            x       y       z     vdW  Elec       q    Type
                         _______ _______ _______ _____ _____    ______ ____

>  <TORSDO>
F 4

$$$$
=
 OpenBabel11052421433D

 32 36  0  0  1  0  0  0  0  0999 V2000
  185.9130  178.9630  143.7360 C   0  0  1  0  0  3  0  0  0  0  0  0
  189.1660  175.2120  142.5250 C   0  0  0  0  0  0  0  0  0  0  0  0
  190.6270  176.3160  146.5190 C   0  0  0  0  0  1  0  0  0  0  0  0
  189.4930  173.7960  140.4140 C   0  0  1  0  0  3  0  0  0  0  0  0
  190.5260  173.0650  139.5870 C   0  0  0  0  0  0  0  0  0  0  0  0
  187.2350  176.6950  142.5980 C   0  0  0  0  0  0  0  0  0  0  0  0
  188.9590  176.8730  144.2870 C   0  0  0  0  0  3  0  0  0  0  0  0
  192.4230  171.6820  138.0470 C   0  0  0  0  0  3  0  0  0  0  0  0
  187.0590  178.3680  144.3490 O   0  0  0  0  0  0  0  0  0  0  0  0
  191.3520  175.5680  145.5050 N   0  0  0  0  0  0  0  0  0  0  0  0
  189.6690  175.8080  143.7080 C   0  0  0  0  0  0  0  0  0  0  0  0
  190.9740  175.3380  144.2770 C   0  0  0  0  0  0  0  0  0  0  0  0
  191.4320  174.3550  141.9830 C   0  0  1  0  0  3  0  0  0  0  0  0
  191.1490  171.9310  137.5280 C   0  0  0  0  0  3  0  0  0  0  0  0
  185.0850  177.8990  143.0220 C   0  0  0  0  0  2  0  0  0  0  0  0
  187.7570  177.3200  143.7400 C   0  0  0  0  0  0  0  0  0  0  0  0
  190.2060  172.6210  138.2930 C   0  0  0  0  0  3  0  0  0  0  0  0
  185.9540  177.1830  141.9880 C   0  0  0  0  0  2  0  0  0  0  0  0
  191.8670  174.4460  143.4460 C   0  0  1  0  0  3  0  0  0  0  0  0
  192.1870  173.3370  141.3350 O   0  0  0  0  0  0  0  0  0  0  0  0
  187.9440  175.6590  141.9930 C   0  0  0  0  0  3  0  0  0  0  0  0
  188.1910  173.0020  140.4310 C   0  0  0  0  0  1  0  0  0  0  0  0
  192.7590  172.1410  139.3220 C   0  0  0  0  0  3  0  0  0  0  0  0
  189.9280  174.0710  141.8760 C   0  0  1  0  0  3  0  0  0  0  0  0
  191.8230  172.8470  140.0830 C   0  0  0  0  0  0  0  0  0  0  0  0
  193.2210  176.0410  142.7100 C   0  0  0  0  0  1  0  0  0  0  0  0
  193.1900  174.8970  143.5110 O   0  0  0  0  0  0  0  0  0  0  0  0
  185.0640  179.6580  144.7820 C   0  0  0  0  0  2  0  0  0  0  0  0
  184.0660  178.6810  145.3790 C   0  0  0  0  0  2  0  0  0  0  0  0
  184.8190  178.6660  147.6380 O   0  0  0  0  0  1  0  0  0  0  0  0
  185.0750  176.6950  146.4930 O   0  0  0  0  0  0  0  0  0  0  0  0
  184.6620  178.0180  146.5700 C   0  0  0  0  0  0  0  0  0  0  0  0
  1  9  1  0  0  0  0
  1 28  1  1  0  0  0
  2 11  1  0  0  0  0
  4 22  1  1  0  0  0
  4 24  1  0  0  0  0
  5 25  1  0  0  0  0
  5  4  1  0  0  0  0
  6 16  2  0  0  0  0
  8 23  1  0  0  0  0
 10  3  1  0  0  0  0
 11 12  1  0  0  0  0
 11  7  2  0  0  0  0
 12 10  2  0  0  0  0
 13 20  1  1  0  0  0
 13 19  1  0  0  0  0
 14  8  2  0  0  0  0
 14 17  1  0  0  0  0
 15  1  1  0  0  0  0
 16  7  1  0  0  0  0
 16  9  1  0  0  0  0
 17  5  2  0  0  0  0
 18  6  1  0  0  0  0
 18 15  1  0  0  0  0
 19 27  1  6  0  0  0
 19 12  1  0  0  0  0
 21  2  2  0  0  0  0
 21  6  1  0  0  0  0
 23 25  2  0  0  0  0
 24 13  1  0  0  0  0
 24  2  1  6  0  0  0
 25 20  1  0  0  0  0
 26 27  1  0  0  0  0
 28 29  1  0  0  0  0
 29 32  1  0  0  0  0
 31 32  2  0  0  0  0
 32 30  1  0  0  0  0
M  END
>  <MODEL>
8

>  <REMARK>
 VINA RESULT:      -7.6      2.440      8.624
  Name = 
  4 active torsions:
  status: ('A' for Active; 'I' for Inactive)
    1  A    between atoms: C_2  and  C_24
    2  A    between atoms: C_10  and  C_20
    3  A    between atoms: C_10  and  C_24
    4  A    between atoms: O_25  and  C_26
                            x       y       z     vdW  Elec       q    Type
                         _______ _______ _______ _____ _____    ______ ____

>  <TORSDO>
F 4

$$$$
=
 OpenBabel11052421433D

 32 36  0  0  1  0  0  0  0  0999 V2000
  185.3180  177.5480  143.6820 C   0  0  1  0  0  3  0  0  0  0  0  0
  190.0310  175.7130  142.9480 C   0  0  0  0  0  0  0  0  0  0  0  0
  188.0350  174.3610  139.2740 C   0  0  0  0  0  1  0  0  0  0  0  0
  192.1450  175.6960  144.3960 C   0  0  1  0  0  3  0  0  0  0  0  0
  193.3960  174.9080  144.7160 C   0  0  0  0  0  0  0  0  0  0  0  0
  188.1250  176.9990  143.7520 C   0  0  0  0  0  0  0  0  0  0  0  0
  187.8620  175.4980  141.8720 C   0  0  0  0  0  3  0  0  0  0  0  0
  195.7350  173.4740  145.3090 C   0  0  0  0  0  3  0  0  0  0  0  0
  185.9580  176.7500  142.6840 O   0  0  0  0  0  0  0  0  0  0  0  0
  189.2790  173.8470  139.8280 N   0  0  0  0  0  0  0  0  0  0  0  0
  189.2230  175.1530  141.9280 C   0  0  0  0  0  0  0  0  0  0  0  0
  189.8160  174.1580  140.9760 C   0  0  0  0  0  0  0  0  0  0  0  0
  191.6520  173.8500  142.7000 C   0  0  1  0  0  3  0  0  0  0  0  0
  195.3280  174.5220  146.1400 C   0  0  0  0  0  3  0  0  0  0  0  0
  186.2740  178.6220  144.1930 C   0  0  0  0  0  2  0  0  0  0  0  0
  187.3120  176.4060  142.7750 C   0  0  0  0  0  0  0  0  0  0  0  0
  194.1630  175.2340  145.8460 C   0  0  0  0  0  3  0  0  0  0  0  0
  187.5380  177.9610  144.7430 C   0  0  0  0  0  2  0  0  0  0  0  0
  191.1680  173.5570  141.2790 C   0  0  1  0  0  3  0  0  0  0  0  0
  193.0100  173.4390  142.8240 O   0  0  0  0  0  0  0  0  0  0  0  0
  189.4690  176.6420  143.8410 C   0  0  0  0  0  3  0  0  0  0  0  0
  192.4580  177.1880  144.4150 C   0  0  0  0  0  1  0  0  0  0  0  0
  194.9650  173.1260  144.1970 C   0  0  0  0  0  3  0  0  0  0  0  0
  191.4990  175.3390  143.0330 C   0  0  1  0  0  3  0  0  0  0  0  0
  193.7890  173.8250  143.9110 C   0  0  0  0  0  0  0  0  0  0  0  0
  190.3780  171.6700  142.1330 C   0  0  0  0  0  1  0  0  0  0  0  0
  191.1360  172.1740  141.0740 O   0  0  0  0  0  0  0  0  0  0  0  0
  184.0740  178.1990  143.1090 C   0  0  0  0  0  2  0  0  0  0  0  0
  184.1520  178.2320  141.5930 C   0  0  0  0  0  2  0  0  0  0  0  0
  181.8110  178.6570  141.6510 O   0  0  0  0  0  1  0  0  0  0  0  0
  182.5710  177.5440  139.7960 O   0  0  0  0  0  0  0  0  0  0  0  0
  182.7820  178.1700  141.0170 C   0  0  0  0  0  0  0  0  0  0  0  0
  1 28  1  6  0  0  0
  1 15  1  0  0  0  0
  2 21  1  0  0  0  0
  3 10  1  0  0  0  0
  4 22  1  6  0  0  0
  4  5  1  0  0  0  0
  5 17  1  0  0  0  0
  6 21  2  0  0  0  0
  6 18  1  0  0  0  0
  7 11  1  0  0  0  0
  7 16  2  0  0  0  0
  8 14  1  0  0  0  0
  9 16  1  0  0  0  0
  9  1  1  0  0  0  0
 10 12  2  0  0  0  0
 11  2  2  0  0  0  0
 12 19  1  0  0  0  0
 12 11  1  0  0  0  0
 13 20  1  6  0  0  0
 13 24  1  0  0  0  0
 15 18  1  0  0  0  0
 16  6  1  0  0  0  0
 17 14  2  0  0  0  0
 19 27  1  1  0  0  0
 19 13  1  0  0  0  0
 20 25  1  0  0  0  0
 23  8  2  0  0  0  0
 24  2  1  1  0  0  0
 24  4  1  0  0  0  0
 25 23  1  0  0  0  0
 25  5  2  0  0  0  0
 27 26  1  0  0  0  0
 29 28  1  0  0  0  0
 31 32  2  0  0  0  0
 32 29  1  0  0  0  0
 32 30  1  0  0  0  0
M  END
>  <MODEL>
9

>  <REMARK>
 VINA RESULT:      -7.5      2.337      8.298
  Name = 
  4 active torsions:
  status: ('A' for Active; 'I' for Inactive)
    1  A    between atoms: C_2  and  C_24
    2  A    between atoms: C_10  and  C_20
    3  A    between atoms: C_10  and  C_24
    4  A    between atoms: O_25  and  C_26
                            x       y       z     vdW  Elec       q    Type
                         _______ _______ _______ _____ _____    ______ ____

>  <TORSDO>
F 4

$$$$
