=
 OpenBabel11052418483D

 34 39  0  0  1  0  0  0  0  0999 V2000
  190.8310  173.2510  140.9240 C   0  0  0  0  0  0  0  0  0  0  0  0
  188.3040  173.7370  140.8910 C   0  0  2  0  0  3  0  0  0  0  0  0
  189.9700  175.2760  141.9790 C   0  0  0  0  0  0  0  0  0  0  0  0
  189.3090  177.4890  142.8870 C   0  0  0  0  0  0  0  0  0  0  0  0
  189.3400  171.9570  139.5450 N   0  0  0  0  0  0  0  0  0  0  0  0
  188.2810  172.6460  139.8550 C   0  0  0  0  0  3  0  0  0  0  0  0
  187.5910  176.3370  142.0940 C   0  0  0  0  0  3  0  0  0  0  0  0
  189.7070  174.1510  141.2710 C   0  0  0  0  0  0  0  0  0  0  0  0
  188.1730  178.2560  143.0160 C   0  0  0  0  0  3  0  0  0  0  0  0
  190.6320  172.2160  140.1100 C   0  0  0  0  0  3  0  0  0  0  0  0
  191.3240  175.5450  142.4320 N   0  0  0  0  0  0  0  0  0  0  0  0
  192.1820  173.5420  141.4100 C   0  0  0  0  0  3  0  0  0  0  0  0
  187.6400  173.2900  142.0180 F   0  0  0  0  0  0  0  0  0  0  0  0
  190.7230  177.8830  143.1590 C   0  0  0  0  0  2  0  0  0  0  0  0
  191.6120  176.6410  143.3760 C   0  0  1  0  0  3  0  0  0  0  0  0
  187.1400  177.5250  142.5470 N   0  0  0  0  0  0  0  0  0  0  0  0
  188.9560  176.3000  142.3030 C   0  0  0  0  0  0  0  0  0  0  0  0
  192.3980  174.6400  142.1290 C   0  0  0  0  0  3  0  0  0  0  0  0
  190.3390  175.2420  146.6850 C   0  0  0  0  0  0  0  0  0  0  0  0
  191.4990  175.2990  147.4630 C   0  0  0  0  0  3  0  0  0  0  0  0
  191.5560  176.1640  144.7980 C   0  0  0  0  0  0  0  0  0  0  0  0
  192.6870  175.7900  146.9120 C   0  0  0  0  0  3  0  0  0  0  0  0
  190.3660  175.6740  145.3570 C   0  0  0  0  0  3  0  0  0  0  0  0
  192.7150  176.2220  145.5820 C   0  0  0  0  0  3  0  0  0  0  0  0
  189.0760  174.7230  147.2700 C   0  0  0  0  0  1  0  0  0  0  0  0
  185.7630  177.9790  142.4740 C   0  0  0  0  0  2  0  0  0  0  0  0
  184.9950  177.5100  143.6980 C   0  0  0  0  0  2  0  0  0  0  0  0
  185.8790  180.2000  144.9570 F   0  0  0  0  0  0  0  0  0  0  0  0
  185.7740  177.8140  144.9660 C   0  0  1  0  0  3  0  0  0  0  0  0
  185.2960  179.1280  145.6070 C   0  0  1  0  0  3  0  0  0  0  0  0
  186.6630  178.2800  147.4170 O   0  0  0  0  0  0  0  0  0  0  0  0
  186.0720  177.0050  147.3620 C   0  0  0  0  0  2  0  0  0  0  0  0
  185.6610  176.6280  145.9290 C   0  0  0  0  0  2  0  0  0  0  0  0
  185.6400  179.1900  147.1000 C   0  0  0  0  0  2  0  0  0  0  0  0
  1  8  1  0  0  0  0
  1 12  1  0  0  0  0
  2  8  1  0  0  0  0
  2 13  1  1  0  0  0
  3 17  1  0  0  0  0
  3 11  1  0  0  0  0
  4  9  2  0  0  0  0
  4 14  1  0  0  0  0
  5  6  2  0  0  0  0
  5 10  1  0  0  0  0
  6  2  1  0  0  0  0
  7 17  2  0  0  0  0
  7 16  1  0  0  0  0
  8  3  2  0  0  0  0
 10  1  2  0  0  0  0
 11 15  1  0  0  0  0
 12 18  2  0  0  0  0
 14 15  1  0  0  0  0
 15 21  1  1  0  0  0
 16  9  1  0  0  0  0
 17  4  1  0  0  0  0
 18 11  1  0  0  0  0
 19 25  1  0  0  0  0
 19 20  1  0  0  0  0
 21 23  1  0  0  0  0
 21 24  2  0  0  0  0
 22 20  2  0  0  0  0
 23 19  2  0  0  0  0
 24 22  1  0  0  0  0
 26 16  1  0  0  0  0
 26 27  1  0  0  0  0
 29 27  1  6  0  0  0
 29 30  1  0  0  0  0
 29 33  1  0  0  0  0
 30 28  1  6  0  0  0
 30 34  1  0  0  0  0
 32 31  1  0  0  0  0
 33 32  1  0  0  0  0
 34 31  1  0  0  0  0
M  END
>  <MODEL>
1

>  <REMARK>
 VINA RESULT:      -9.1      0.000      0.000
  Name = 
  4 active torsions:
  status: ('A' for Active; 'I' for Inactive)
    1  A    between atoms: C_3  and  C_13
    2  A    between atoms: C_3  and  C_17
    3  A    between atoms: C_12  and  C_28
    4  A    between atoms: C_17  and  N_29
                            x       y       z     vdW  Elec       q    Type
                         _______ _______ _______ _____ _____    ______ ____

>  <TORSDO>
F 4

$$$$
=
 OpenBabel11052418483D

 34 39  0  0  1  0  0  0  0  0999 V2000
  190.9550  173.7070  140.6810 C   0  0  1  0  0  3  0  0  0  0  0  0
  188.9600  173.5250  142.2980 C   0  0  0  0  0  0  0  0  0  0  0  0
  191.0020  174.9030  142.8080 C   0  0  0  0  0  0  0  0  0  0  0  0
  191.1240  176.3710  144.8050 C   0  0  0  0  0  0  0  0  0  0  0  0
  188.8820  172.7010  139.9810 N   0  0  0  0  0  0  0  0  0  0  0  0
  188.2640  172.9350  141.1010 C   0  0  0  0  0  3  0  0  0  0  0  0
  189.2370  175.2140  144.7030 C   0  0  0  0  0  3  0  0  0  0  0  0
  190.3170  174.1000  141.9590 C   0  0  0  0  0  0  0  0  0  0  0  0
  190.3370  176.7240  145.8780 C   0  0  0  0  0  3  0  0  0  0  0  0
  190.2570  173.0410  139.7630 C   0  0  0  0  0  3  0  0  0  0  0  0
  192.3580  175.3090  142.4820 N   0  0  0  0  0  0  0  0  0  0  0  0
  192.3290  174.1200  140.3900 C   0  0  0  0  0  3  0  0  0  0  0  0
  189.1110  172.5360  143.2530 F   0  0  0  0  0  0  0  0  0  0  0  0
  192.4220  176.9720  144.3770 C   0  0  0  0  0  2  0  0  0  0  0  0
  193.2070  176.0030  143.4690 C   0  0  1  0  0  3  0  0  0  0  0  0
  189.2070  175.9910  145.8050 N   0  0  0  0  0  0  0  0  0  0  0  0
  190.4410  175.4420  144.0630 C   0  0  0  0  0  0  0  0  0  0  0  0
  192.9840  174.8830  141.2610 C   0  0  0  0  0  3  0  0  0  0  0  0
  194.4370  172.7840  145.0970 C   0  0  0  0  0  0  0  0  0  0  0  0
  195.5530  173.2500  145.7980 C   0  0  0  0  0  3  0  0  0  0  0  0
  194.0180  175.0290  144.2720 C   0  0  0  0  0  0  0  0  0  0  0  0
  195.9020  174.6030  145.7400 C   0  0  0  0  0  3  0  0  0  0  0  0
  193.6700  173.6710  144.3360 C   0  0  0  0  0  3  0  0  0  0  0  0
  195.1350  175.4900  144.9790 C   0  0  0  0  0  3  0  0  0  0  0  0
  194.0650  171.3480  145.1600 C   0  0  0  0  0  1  0  0  0  0  0  0
  188.0930  176.0810  146.7330 C   0  0  0  0  0  2  0  0  0  0  0  0
  187.4470  177.4530  146.6380 C   0  0  0  0  0  2  0  0  0  0  0  0
  184.3740  177.0640  146.6700 F   0  0  0  0  0  0  0  0  0  0  0  0
  186.4230  177.4860  145.5170 C   0  0  1  0  0  3  0  0  0  0  0  0
  185.0810  178.0520  146.0130 C   0  0  1  0  0  3  0  0  0  0  0  0
  184.6620  178.0680  143.6270 O   0  0  0  0  0  0  0  0  0  0  0  0
  185.8880  178.6970  143.3430 C   0  0  0  0  0  2  0  0  0  0  0  0
  186.9850  178.2810  144.3360 C   0  0  0  0  0  2  0  0  0  0  0  0
  184.2340  178.5990  144.8560 C   0  0  0  0  0  2  0  0  0  0  0  0
  1 10  1  6  0  0  0
  1  8  1  0  0  0  0
  2 13  1  0  0  0  0
  3 17  1  0  0  0  0
  4  9  2  0  0  0  0
  5  6  1  0  0  0  0
  6  2  2  0  0  0  0
  7 16  1  0  0  0  0
  8  2  1  0  0  0  0
  8  3  2  0  0  0  0
 10  5  2  0  0  0  0
 11  3  1  0  0  0  0
 11 15  1  0  0  0  0
 12  1  1  0  0  0  0
 12 18  2  0  0  0  0
 14  4  1  0  0  0  0
 15 21  1  1  0  0  0
 15 14  1  0  0  0  0
 16  9  1  0  0  0  0
 16 26  1  0  0  0  0
 17  7  2  0  0  0  0
 17  4  1  0  0  0  0
 18 11  1  0  0  0  0
 19 25  1  0  0  0  0
 19 20  1  0  0  0  0
 21 23  1  0  0  0  0
 21 24  2  0  0  0  0
 22 20  2  0  0  0  0
 23 19  2  0  0  0  0
 24 22  1  0  0  0  0
 27 26  1  0  0  0  0
 29 30  1  0  0  0  0
 29 27  1  1  0  0  0
 30 28  1  6  0  0  0
 31 34  1  0  0  0  0
 32 31  1  0  0  0  0
 32 33  1  0  0  0  0
 33 29  1  0  0  0  0
 34 30  1  0  0  0  0
M  END
>  <MODEL>
2

>  <REMARK>
 VINA RESULT:      -8.4      2.258      3.099
  Name = 
  4 active torsions:
  status: ('A' for Active; 'I' for Inactive)
    1  A    between atoms: C_3  and  C_13
    2  A    between atoms: C_3  and  C_17
    3  A    between atoms: C_12  and  C_28
    4  A    between atoms: C_17  and  N_29
                            x       y       z     vdW  Elec       q    Type
                         _______ _______ _______ _____ _____    ______ ____

>  <TORSDO>
F 4

$$$$
=
 OpenBabel11052418483D

 34 39  0  0  1  0  0  0  0  0999 V2000
  187.0130  177.8870  144.9710 C   0  0  0  0  0  0  0  0  0  0  0  0
  187.6850  177.5320  142.5120 C   0  0  2  0  0  3  0  0  0  0  0  0
  188.4670  176.0230  144.3660 C   0  0  0  0  0  0  0  0  0  0  0  0
  189.7500  173.9480  143.9100 C   0  0  0  0  0  0  0  0  0  0  0  0
  185.9330  179.1150  143.2030 N   0  0  0  0  0  0  0  0  0  0  0  0
  186.5770  178.5160  142.2450 C   0  0  0  0  0  3  0  0  0  0  0  0
  189.3060  175.1040  142.0740 C   0  0  0  0  0  3  0  0  0  0  0  0
  187.7340  177.0850  143.9550 C   0  0  0  0  0  0  0  0  0  0  0  0
  190.2500  173.2580  142.8290 C   0  0  0  0  0  3  0  0  0  0  0  0
  186.1700  178.8450  144.5910 C   0  0  0  0  0  3  0  0  0  0  0  0
  188.5830  175.7300  145.7840 N   0  0  0  0  0  0  0  0  0  0  0  0
  187.1630  177.5740  146.3940 C   0  0  0  0  0  3  0  0  0  0  0  0
  188.8900  178.1220  142.1770 F   0  0  0  0  0  0  0  0  0  0  0  0
  189.6900  173.5090  145.3360 C   0  0  0  0  0  2  0  0  0  0  0  0
  189.5340  174.7180  146.2810 C   0  0  1  0  0  3  0  0  0  0  0  0
  189.9870  173.9920  141.7280 N   0  0  0  0  0  0  0  0  0  0  0  0
  189.1510  175.0900  143.4470 C   0  0  0  0  0  0  0  0  0  0  0  0
  187.9170  176.5430  146.7630 C   0  0  0  0  0  3  0  0  0  0  0  0
  193.2750  175.4450  146.3680 C   0  0  0  0  0  0  0  0  0  0  0  0
  193.3180  176.5090  147.2730 C   0  0  0  0  0  3  0  0  0  0  0  0
  190.8620  175.3350  146.6120 C   0  0  0  0  0  0  0  0  0  0  0  0
  192.1370  176.9860  147.8490 C   0  0  0  0  0  3  0  0  0  0  0  0
  192.0500  174.8580  146.0390 C   0  0  0  0  0  3  0  0  0  0  0  0
  190.9120  176.3990  147.5200 C   0  0  0  0  0  3  0  0  0  0  0  0
  194.5290  174.9350  145.7560 C   0  0  0  0  0  1  0  0  0  0  0  0
  190.3210  173.6060  140.3680 C   0  0  0  0  0  2  0  0  0  0  0  0
  191.7440  173.0780  140.3130 C   0  0  0  0  0  2  0  0  0  0  0  0
  193.0520  174.6600  142.6350 F   0  0  0  0  0  0  0  0  0  0  0  0
  192.7400  174.2260  140.3070 C   0  0  1  0  0  3  0  0  0  0  0  0
  193.6830  174.1440  141.5180 C   0  0  1  0  0  3  0  0  0  0  0  0
  194.8360  175.8420  140.2320 O   0  0  0  0  0  0  0  0  0  0  0  0
  194.7780  175.0860  139.0480 C   0  0  0  0  0  2  0  0  0  0  0  0
  193.5030  174.2290  138.9790 C   0  0  0  0  0  2  0  0  0  0  0  0
  194.9890  174.9110  141.2740 C   0  0  0  0  0  2  0  0  0  0  0  0
  1 12  1  0  0  0  0
  2 13  1  1  0  0  0
  2  8  1  0  0  0  0
  3 11  1  0  0  0  0
  4 14  1  0  0  0  0
  5 10  1  0  0  0  0
  6  2  1  0  0  0  0
  6  5  2  0  0  0  0
  7 17  2  0  0  0  0
  8  3  2  0  0  0  0
  8  1  1  0  0  0  0
  9  4  2  0  0  0  0
 10  1  2  0  0  0  0
 11 15  1  0  0  0  0
 11 18  1  0  0  0  0
 12 18  2  0  0  0  0
 14 15  1  0  0  0  0
 15 21  1  6  0  0  0
 16  7  1  0  0  0  0
 16  9  1  0  0  0  0
 17  4  1  0  0  0  0
 17  3  1  0  0  0  0
 19 20  1  0  0  0  0
 20 22  2  0  0  0  0
 21 24  2  0  0  0  0
 23 19  2  0  0  0  0
 23 21  1  0  0  0  0
 24 22  1  0  0  0  0
 25 19  1  0  0  0  0
 26 16  1  0  0  0  0
 27 26  1  0  0  0  0
 29 27  1  6  0  0  0
 29 30  1  0  0  0  0
 30 28  1  1  0  0  0
 31 34  1  0  0  0  0
 32 31  1  0  0  0  0
 33 32  1  0  0  0  0
 33 29  1  0  0  0  0
 34 30  1  0  0  0  0
M  END
>  <MODEL>
3

>  <REMARK>
 VINA RESULT:      -8.2      2.913      6.784
  Name = 
  4 active torsions:
  status: ('A' for Active; 'I' for Inactive)
    1  A    between atoms: C_3  and  C_13
    2  A    between atoms: C_3  and  C_17
    3  A    between atoms: C_12  and  C_28
    4  A    between atoms: C_17  and  N_29
                            x       y       z     vdW  Elec       q    Type
                         _______ _______ _______ _____ _____    ______ ____

>  <TORSDO>
F 4

$$$$
=
 OpenBabel11052418483D

 34 39  0  0  1  0  0  0  0  0999 V2000
  190.8720  173.5510  140.5220 C   0  0  1  0  0  3  0  0  0  0  0  0
  188.8350  173.7470  142.0830 C   0  0  0  0  0  0  0  0  0  0  0  0
  191.0700  174.7600  142.6320 C   0  0  0  0  0  0  0  0  0  0  0  0
  191.3920  176.2220  144.6120 C   0  0  0  0  0  0  0  0  0  0  0  0
  188.6750  172.9050  139.7770 N   0  0  0  0  0  0  0  0  0  0  0  0
  188.0780  173.2640  140.8740 C   0  0  0  0  0  3  0  0  0  0  0  0
  189.3370  175.4080  144.4700 C   0  0  0  0  0  3  0  0  0  0  0  0
  190.2780  174.0720  141.7750 C   0  0  0  0  0  0  0  0  0  0  0  0
  190.6520  176.7270  145.6560 C   0  0  0  0  0  3  0  0  0  0  0  0
  190.0940  172.9980  139.5940 C   0  0  0  0  0  3  0  0  0  0  0  0
  192.4840  174.9190  142.3410 N   0  0  0  0  0  0  0  0  0  0  0  0
  192.3050  173.7140  140.2650 C   0  0  0  0  0  3  0  0  0  0  0  0
  188.7860  172.7660  143.0560 F   0  0  0  0  0  0  0  0  0  0  0  0
  192.7860  176.5820  144.2120 C   0  0  0  0  0  2  0  0  0  0  0  0
  193.4150  175.4750  143.3420 C   0  0  1  0  0  3  0  0  0  0  0  0
  189.4130  176.1990  145.5610 N   0  0  0  0  0  0  0  0  0  0  0  0
  190.5790  175.4120  143.8630 C   0  0  0  0  0  0  0  0  0  0  0  0
  193.0580  174.3680  141.1450 C   0  0  0  0  0  3  0  0  0  0  0  0
  195.8410  173.5100  145.5280 C   0  0  0  0  0  0  0  0  0  0  0  0
  195.1210  172.3290  145.7310 C   0  0  0  0  0  3  0  0  0  0  0  0
  194.0230  174.3900  144.1820 C   0  0  0  0  0  0  0  0  0  0  0  0
  193.8550  172.1760  145.1590 C   0  0  0  0  0  3  0  0  0  0  0  0
  195.2940  174.5380  144.7550 C   0  0  0  0  0  3  0  0  0  0  0  0
  193.3070  173.2030  144.3850 C   0  0  0  0  0  3  0  0  0  0  0  0
  197.1880  173.6740  146.1340 C   0  0  0  0  0  1  0  0  0  0  0  0
  188.3080  176.4980  146.4540 C   0  0  0  0  0  2  0  0  0  0  0  0
  186.9930  176.4190  145.6980 C   0  0  0  0  0  2  0  0  0  0  0  0
  188.0720  178.2660  143.4570 F   0  0  0  0  0  0  0  0  0  0  0  0
  186.5550  177.8000  145.2420 C   0  0  1  0  0  3  0  0  0  0  0  0
  186.7490  177.9670  143.7250 C   0  0  1  0  0  3  0  0  0  0  0  0
  185.4200  179.9420  144.1740 O   0  0  0  0  0  0  0  0  0  0  0  0
  184.4660  179.2190  144.9140 C   0  0  0  0  0  2  0  0  0  0  0  0
  185.1030  178.0400  145.6680 C   0  0  0  0  0  2  0  0  0  0  0  0
  185.8520  179.0750  143.1560 C   0  0  0  0  0  2  0  0  0  0  0  0
  1 10  1  6  0  0  0
  1  8  1  0  0  0  0
  2 13  1  0  0  0  0
  3 17  1  0  0  0  0
  4  9  2  0  0  0  0
  5  6  1  0  0  0  0
  6  2  2  0  0  0  0
  7 16  1  0  0  0  0
  8  2  1  0  0  0  0
  8  3  2  0  0  0  0
 10  5  2  0  0  0  0
 11  3  1  0  0  0  0
 11 15  1  0  0  0  0
 12  1  1  0  0  0  0
 12 18  2  0  0  0  0
 14  4  1  0  0  0  0
 15 21  1  1  0  0  0
 15 14  1  0  0  0  0
 16  9  1  0  0  0  0
 16 26  1  0  0  0  0
 17  7  2  0  0  0  0
 17  4  1  0  0  0  0
 18 11  1  0  0  0  0
 19 20  1  0  0  0  0
 19 25  1  0  0  0  0
 21 24  2  0  0  0  0
 21 23  1  0  0  0  0
 22 20  2  0  0  0  0
 23 19  2  0  0  0  0
 24 22  1  0  0  0  0
 27 26  1  0  0  0  0
 29 33  1  0  0  0  0
 29 27  1  6  0  0  0
 30 28  1  1  0  0  0
 30 29  1  0  0  0  0
 31 32  1  0  0  0  0
 32 33  1  0  0  0  0
 34 30  1  0  0  0  0
 34 31  1  0  0  0  0
M  END
>  <MODEL>
4

>  <REMARK>
 VINA RESULT:      -8.1      2.315      3.314
  Name = 
  4 active torsions:
  status: ('A' for Active; 'I' for Inactive)
    1  A    between atoms: C_3  and  C_13
    2  A    between atoms: C_3  and  C_17
    3  A    between atoms: C_12  and  C_28
    4  A    between atoms: C_17  and  N_29
                            x       y       z     vdW  Elec       q    Type
                         _______ _______ _______ _____ _____    ______ ____

>  <TORSDO>
F 4

$$$$
=
 OpenBabel11052418483D

 34 39  0  0  1  0  0  0  0  0999 V2000
  187.0030  177.8620  145.2450 C   0  0  0  0  0  0  0  0  0  0  0  0
  187.4490  177.6160  142.7220 C   0  0  2  0  0  3  0  0  0  0  0  0
  188.3920  176.0280  144.4300 C   0  0  0  0  0  0  0  0  0  0  0  0
  189.6220  173.9770  143.7690 C   0  0  0  0  0  0  0  0  0  0  0  0
  185.7710  179.1650  143.6380 N   0  0  0  0  0  0  0  0  0  0  0  0
  186.3250  178.6100  142.6010 C   0  0  0  0  0  3  0  0  0  0  0  0
  189.0170  175.2120  142.0340 C   0  0  0  0  0  3  0  0  0  0  0  0
  187.6270  177.1060  144.1340 C   0  0  0  0  0  0  0  0  0  0  0  0
  190.0200  173.3350  142.6190 C   0  0  0  0  0  3  0  0  0  0  0  0
  186.1320  178.8350  144.9860 C   0  0  0  0  0  3  0  0  0  0  0  0
  188.6340  175.6730  145.8180 N   0  0  0  0  0  0  0  0  0  0  0  0
  187.2800  177.4870  146.6340 C   0  0  0  0  0  3  0  0  0  0  0  0
  188.6210  178.2220  142.3060 F   0  0  0  0  0  0  0  0  0  0  0  0
  189.6910  173.4750  145.1750 C   0  0  0  0  0  2  0  0  0  0  0  0
  189.6240  174.6420  146.1820 C   0  0  1  0  0  3  0  0  0  0  0  0
  189.6610  174.1170  141.5790 N   0  0  0  0  0  0  0  0  0  0  0  0
  188.9870  175.1380  143.4130 C   0  0  0  0  0  0  0  0  0  0  0  0
  188.0620  176.4410  146.8880 C   0  0  0  0  0  3  0  0  0  0  0  0
  193.3730  175.3130  146.0260 C   0  0  0  0  0  0  0  0  0  0  0  0
  193.4860  176.3960  146.9030 C   0  0  0  0  0  3  0  0  0  0  0  0
  190.9780  175.2450  146.4180 C   0  0  0  0  0  0  0  0  0  0  0  0
  192.3490  176.9030  147.5390 C   0  0  0  0  0  3  0  0  0  0  0  0
  192.1220  174.7380  145.7850 C   0  0  0  0  0  3  0  0  0  0  0  0
  191.0980  176.3280  147.2970 C   0  0  0  0  0  3  0  0  0  0  0  0
  194.5800  174.7710  145.3510 C   0  0  0  0  0  1  0  0  0  0  0  0
  189.8700  173.7910  140.1790 C   0  0  0  0  0  2  0  0  0  0  0  0
  188.5610  173.9120  139.4170 C   0  0  0  0  0  2  0  0  0  0  0  0
  188.2200  174.9270  136.5100 F   0  0  0  0  0  0  0  0  0  0  0  0
  188.6480  173.1850  138.0860 C   0  0  1  0  0  3  0  0  0  0  0  0
  189.2190  174.1030  136.9930 C   0  0  1  0  0  3  0  0  0  0  0  0
  189.3240  171.9840  135.8250 O   0  0  0  0  0  0  0  0  0  0  0  0
  189.9420  171.3360  136.9090 C   0  0  0  0  0  2  0  0  0  0  0  0
  189.4750  171.9080  138.2580 C   0  0  0  0  0  2  0  0  0  0  0  0
  189.8190  173.2990  135.8320 C   0  0  0  0  0  2  0  0  0  0  0  0
  1 12  1  0  0  0  0
  2 13  1  1  0  0  0
  2  8  1  0  0  0  0
  3 11  1  0  0  0  0
  4 14  1  0  0  0  0
  5 10  1  0  0  0  0
  6  2  1  0  0  0  0
  6  5  2  0  0  0  0
  7 17  2  0  0  0  0
  8  3  2  0  0  0  0
  8  1  1  0  0  0  0
  9  4  2  0  0  0  0
 10  1  2  0  0  0  0
 11 15  1  0  0  0  0
 11 18  1  0  0  0  0
 12 18  2  0  0  0  0
 14 15  1  0  0  0  0
 15 21  1  6  0  0  0
 16  7  1  0  0  0  0
 16  9  1  0  0  0  0
 17  4  1  0  0  0  0
 17  3  1  0  0  0  0
 19 20  1  0  0  0  0
 20 22  2  0  0  0  0
 21 24  2  0  0  0  0
 23 19  2  0  0  0  0
 23 21  1  0  0  0  0
 24 22  1  0  0  0  0
 25 19  1  0  0  0  0
 26 16  1  0  0  0  0
 27 26  1  0  0  0  0
 29 33  1  0  0  0  0
 29 27  1  1  0  0  0
 30 28  1  6  0  0  0
 30 29  1  0  0  0  0
 31 34  1  0  0  0  0
 31 32  1  0  0  0  0
 32 33  1  0  0  0  0
 34 30  1  0  0  0  0
M  END
>  <MODEL>
5

>  <REMARK>
 VINA RESULT:      -8.1      3.271      6.943
  Name = 
  4 active torsions:
  status: ('A' for Active; 'I' for Inactive)
    1  A    between atoms: C_3  and  C_13
    2  A    between atoms: C_3  and  C_17
    3  A    between atoms: C_12  and  C_28
    4  A    between atoms: C_17  and  N_29
                            x       y       z     vdW  Elec       q    Type
                         _______ _______ _______ _____ _____    ______ ____

>  <TORSDO>
F 4

$$$$
=
 OpenBabel11052418483D

 34 39  0  0  1  0  0  0  0  0999 V2000
  192.2120  175.0510  145.5800 C   0  0  0  0  0  0  0  0  0  0  0  0
  191.4720  173.0660  144.1180 C   0  0  2  0  0  3  0  0  0  0  0  0
  190.4460  175.3540  143.9240 C   0  0  0  0  0  0  0  0  0  0  0  0
  188.8120  175.9080  142.1400 C   0  0  0  0  0  0  0  0  0  0  0  0
  193.4820  173.0050  145.5360 N   0  0  0  0  0  0  0  0  0  0  0  0
  192.7350  172.4330  144.6380 C   0  0  0  0  0  3  0  0  0  0  0  0
  189.4430  173.7850  142.0980 C   0  0  0  0  0  3  0  0  0  0  0  0
  191.3540  174.5260  144.4930 C   0  0  0  0  0  0  0  0  0  0  0  0
  188.1910  175.2900  141.0780 C   0  0  0  0  0  3  0  0  0  0  0  0
  193.2090  174.3110  146.0610 C   0  0  0  0  0  3  0  0  0  0  0  0
  190.2890  176.7080  144.4260 N   0  0  0  0  0  0  0  0  0  0  0  0
  192.0180  176.4160  146.0740 C   0  0  0  0  0  3  0  0  0  0  0  0
  190.3890  172.3750  144.6290 F   0  0  0  0  0  0  0  0  0  0  0  0
  188.8020  177.3580  142.4960 C   0  0  0  0  0  2  0  0  0  0  0  0
  189.1760  177.5670  143.9780 C   0  0  1  0  0  3  0  0  0  0  0  0
  188.5740  173.9960  141.0890 N   0  0  0  0  0  0  0  0  0  0  0  0
  189.6020  174.9820  142.7700 C   0  0  0  0  0  0  0  0  0  0  0  0
  191.0950  177.1910  145.5130 C   0  0  0  0  0  3  0  0  0  0  0  0
  185.7020  177.9910  145.4870 C   0  0  0  0  0  0  0  0  0  0  0  0
  185.7820  177.1290  146.5850 C   0  0  0  0  0  3  0  0  0  0  0  0
  187.9810  177.4220  144.8740 C   0  0  0  0  0  0  0  0  0  0  0  0
  186.9590  176.4160  146.8310 C   0  0  0  0  0  3  0  0  0  0  0  0
  186.7990  178.1380  144.6340 C   0  0  0  0  0  3  0  0  0  0  0  0
  188.0560  176.5630  145.9770 C   0  0  0  0  0  3  0  0  0  0  0  0
  184.4530  178.7510  145.2270 C   0  0  0  0  0  1  0  0  0  0  0  0
  188.1680  172.9980  140.1140 C   0  0  0  0  0  2  0  0  0  0  0  0
  189.3930  172.3920  139.4500 C   0  0  0  0  0  2  0  0  0  0  0  0
  191.8940  174.1660  139.8960 F   0  0  0  0  0  0  0  0  0  0  0  0
  190.0720  173.4100  138.5500 C   0  0  1  0  0  3  0  0  0  0  0  0
  191.5930  173.4170  138.7740 C   0  0  1  0  0  3  0  0  0  0  0  0
  191.4840  174.7580  136.7600 O   0  0  0  0  0  0  0  0  0  0  0  0
  190.6460  173.8370  136.1070 C   0  0  0  0  0  2  0  0  0  0  0  0
  189.7050  173.1230  137.0910 C   0  0  0  0  0  2  0  0  0  0  0  0
  192.3430  173.9900  137.5650 C   0  0  0  0  0  2  0  0  0  0  0  0
  1 10  2  0  0  0  0
  1 12  1  0  0  0  0
  2  8  1  0  0  0  0
  2 13  1  1  0  0  0
  2  6  1  0  0  0  0
  3 11  1  0  0  0  0
  3  8  2  0  0  0  0
  4 14  1  0  0  0  0
  4 17  1  0  0  0  0
  5 10  1  0  0  0  0
  6  5  2  0  0  0  0
  7 17  2  0  0  0  0
  8  1  1  0  0  0  0
  9 16  1  0  0  0  0
  9  4  2  0  0  0  0
 11 18  1  0  0  0  0
 14 15  1  0  0  0  0
 15 11  1  0  0  0  0
 15 21  1  1  0  0  0
 16  7  1  0  0  0  0
 17  3  1  0  0  0  0
 18 12  2  0  0  0  0
 19 20  1  0  0  0  0
 20 22  2  0  0  0  0
 21 24  2  0  0  0  0
 23 21  1  0  0  0  0
 23 19  2  0  0  0  0
 24 22  1  0  0  0  0
 25 19  1  0  0  0  0
 26 16  1  0  0  0  0
 27 26  1  0  0  0  0
 29 30  1  0  0  0  0
 29 27  1  1  0  0  0
 30 28  1  1  0  0  0
 31 34  1  0  0  0  0
 32 31  1  0  0  0  0
 32 33  1  0  0  0  0
 33 29  1  0  0  0  0
 34 30  1  0  0  0  0
M  END
>  <MODEL>
6

>  <REMARK>
 VINA RESULT:      -8.0      3.178      6.656
  Name = 
  4 active torsions:
  status: ('A' for Active; 'I' for Inactive)
    1  A    between atoms: C_3  and  C_13
    2  A    between atoms: C_3  and  C_17
    3  A    between atoms: C_12  and  C_28
    4  A    between atoms: C_17  and  N_29
                            x       y       z     vdW  Elec       q    Type
                         _______ _______ _______ _____ _____    ______ ____

>  <TORSDO>
F 4

$$$$
=
 OpenBabel11052418483D

 34 39  0  0  1  0  0  0  0  0999 V2000
  187.1360  177.8030  145.1780 C   0  0  0  0  0  0  0  0  0  0  0  0
  187.5060  177.6110  142.6380 C   0  0  2  0  0  3  0  0  0  0  0  0
  188.4510  175.9550  144.2780 C   0  0  0  0  0  0  0  0  0  0  0  0
  189.6070  173.8900  143.5320 C   0  0  0  0  0  0  0  0  0  0  0  0
  185.8960  179.1790  143.6380 N   0  0  0  0  0  0  0  0  0  0  0  0
  186.4060  178.6370  142.5730 C   0  0  0  0  0  3  0  0  0  0  0  0
  188.9890  175.1850  141.8450 C   0  0  0  0  0  3  0  0  0  0  0  0
  187.7080  177.0600  144.0310 C   0  0  0  0  0  0  0  0  0  0  0  0
  189.9560  173.2680  142.3550 C   0  0  0  0  0  3  0  0  0  0  0  0
  186.2850  178.8050  144.9670 C   0  0  0  0  0  3  0  0  0  0  0  0
  188.7220  175.5580  145.6490 N   0  0  0  0  0  0  0  0  0  0  0  0
  187.4400  177.3850  146.5480 C   0  0  0  0  0  3  0  0  0  0  0  0
  188.6810  178.1960  142.2040 F   0  0  0  0  0  0  0  0  0  0  0  0
  189.7000  173.3500  144.9220 C   0  0  0  0  0  2  0  0  0  0  0  0
  189.6930  174.4920  145.9600 C   0  0  1  0  0  3  0  0  0  0  0  0
  189.5900  174.0860  141.3460 N   0  0  0  0  0  0  0  0  0  0  0  0
  188.9940  175.0760  143.2230 C   0  0  0  0  0  0  0  0  0  0  0  0
  188.2000  176.3130  146.7540 C   0  0  0  0  0  3  0  0  0  0  0  0
  193.4780  174.9340  145.9020 C   0  0  0  0  0  0  0  0  0  0  0  0
  193.6170  176.1320  146.6090 C   0  0  0  0  0  3  0  0  0  0  0  0
  191.0690  175.0530  146.1730 C   0  0  0  0  0  0  0  0  0  0  0  0
  192.4860  176.7900  147.1000 C   0  0  0  0  0  3  0  0  0  0  0  0
  192.2080  174.3950  145.6850 C   0  0  0  0  0  3  0  0  0  0  0  0
  191.2140  176.2500  146.8830 C   0  0  0  0  0  3  0  0  0  0  0  0
  194.6800  174.2330  145.3810 C   0  0  0  0  0  1  0  0  0  0  0  0
  189.7510  173.7900  139.9330 C   0  0  0  0  0  2  0  0  0  0  0  0
  191.1820  173.3610  139.6510 C   0  0  0  0  0  2  0  0  0  0  0  0
  190.4340  170.4530  140.4160 F   0  0  0  0  0  0  0  0  0  0  0  0
  191.2050  172.0760  138.8420 C   0  0  1  0  0  3  0  0  0  0  0  0
  190.0670  171.1340  139.2700 C   0  0  1  0  0  3  0  0  0  0  0  0
  190.7780  170.0050  137.2490 O   0  0  0  0  0  0  0  0  0  0  0  0
  190.7660  171.1930  136.4960 C   0  0  0  0  0  2  0  0  0  0  0  0
  191.1450  172.4140  137.3500 C   0  0  0  0  0  2  0  0  0  0  0  0
  189.7220  170.1240  138.1680 C   0  0  0  0  0  2  0  0  0  0  0  0
  1 12  1  0  0  0  0
  2 13  1  1  0  0  0
  2  8  1  0  0  0  0
  3 11  1  0  0  0  0
  4 14  1  0  0  0  0
  5 10  1  0  0  0  0
  6  2  1  0  0  0  0
  6  5  2  0  0  0  0
  7 17  2  0  0  0  0
  8  3  2  0  0  0  0
  8  1  1  0  0  0  0
  9  4  2  0  0  0  0
 10  1  2  0  0  0  0
 11 15  1  0  0  0  0
 11 18  1  0  0  0  0
 12 18  2  0  0  0  0
 14 15  1  0  0  0  0
 15 21  1  6  0  0  0
 16  7  1  0  0  0  0
 16  9  1  0  0  0  0
 17  4  1  0  0  0  0
 17  3  1  0  0  0  0
 19 20  1  0  0  0  0
 20 22  2  0  0  0  0
 21 24  2  0  0  0  0
 23 19  2  0  0  0  0
 23 21  1  0  0  0  0
 24 22  1  0  0  0  0
 25 19  1  0  0  0  0
 26 16  1  0  0  0  0
 27 26  1  0  0  0  0
 29 30  1  0  0  0  0
 29 27  1  1  0  0  0
 30 28  1  1  0  0  0
 31 34  1  0  0  0  0
 32 31  1  0  0  0  0
 32 33  1  0  0  0  0
 33 29  1  0  0  0  0
 34 30  1  0  0  0  0
M  END
>  <MODEL>
7

>  <REMARK>
 VINA RESULT:      -8.0      3.195      7.215
  Name = 
  4 active torsions:
  status: ('A' for Active; 'I' for Inactive)
    1  A    between atoms: C_3  and  C_13
    2  A    between atoms: C_3  and  C_17
    3  A    between atoms: C_12  and  C_28
    4  A    between atoms: C_17  and  N_29
                            x       y       z     vdW  Elec       q    Type
                         _______ _______ _______ _____ _____    ______ ____

>  <TORSDO>
F 4

$$$$
=
 OpenBabel11052418483D

 34 39  0  0  1  0  0  0  0  0999 V2000
  187.0170  177.9060  145.1850 C   0  0  0  0  0  0  0  0  0  0  0  0
  187.0170  177.6210  142.6270 C   0  0  2  0  0  3  0  0  0  0  0  0
  188.2580  176.0680  144.1670 C   0  0  0  0  0  0  0  0  0  0  0  0
  189.3730  174.0140  143.3330 C   0  0  0  0  0  0  0  0  0  0  0  0
  185.5110  179.1740  143.7980 N   0  0  0  0  0  0  0  0  0  0  0  0
  185.8790  178.6050  142.6890 C   0  0  0  0  0  3  0  0  0  0  0  0
  188.4620  175.2160  141.7110 C   0  0  0  0  0  3  0  0  0  0  0  0
  187.4440  177.1360  143.9930 C   0  0  0  0  0  0  0  0  0  0  0  0
  189.5700  173.3550  142.1400 C   0  0  0  0  0  3  0  0  0  0  0  0
  186.1050  178.8690  145.0670 C   0  0  0  0  0  3  0  0  0  0  0  0
  188.7440  175.7380  145.4960 N   0  0  0  0  0  0  0  0  0  0  0  0
  187.5370  177.5560  146.5090 C   0  0  0  0  0  3  0  0  0  0  0  0
  188.0920  178.2270  142.0030 F   0  0  0  0  0  0  0  0  0  0  0  0
  189.6910  173.5360  144.7120 C   0  0  0  0  0  2  0  0  0  0  0  0
  189.7920  174.7190  145.6970 C   0  0  1  0  0  3  0  0  0  0  0  0
  189.0270  174.1180  141.1680 N   0  0  0  0  0  0  0  0  0  0  0  0
  188.6750  175.1640  143.0750 C   0  0  0  0  0  0  0  0  0  0  0  0
  188.3610  176.5200  146.6380 C   0  0  0  0  0  3  0  0  0  0  0  0
  193.1920  175.9730  144.5180 C   0  0  0  0  0  0  0  0  0  0  0  0
  193.7170  176.4810  145.7100 C   0  0  0  0  0  3  0  0  0  0  0  0
  191.1600  175.3350  145.6830 C   0  0  0  0  0  0  0  0  0  0  0  0
  192.9670  176.4150  146.8880 C   0  0  0  0  0  3  0  0  0  0  0  0
  191.9180  175.4000  144.5040 C   0  0  0  0  0  3  0  0  0  0  0  0
  191.6920  175.8420  146.8750 C   0  0  0  0  0  3  0  0  0  0  0  0
  193.9880  176.0400  143.2660 C   0  0  0  0  0  1  0  0  0  0  0  0
  188.9900  173.7690  139.7580 C   0  0  0  0  0  2  0  0  0  0  0  0
  190.1980  172.9200  139.4010 C   0  0  0  0  0  2  0  0  0  0  0  0
  192.2980  174.6450  140.8890 F   0  0  0  0  0  0  0  0  0  0  0  0
  191.3280  173.7910  138.8800 C   0  0  1  0  0  3  0  0  0  0  0  0
  192.5280  173.7710  139.8430 C   0  0  1  0  0  3  0  0  0  0  0  0
  193.5650  174.8510  137.9380 O   0  0  0  0  0  0  0  0  0  0  0  0
  193.0820  173.8850  137.0370 C   0  0  0  0  0  2  0  0  0  0  0  0
  191.7120  173.3360  137.4700 C   0  0  0  0  0  2  0  0  0  0  0  0
  193.8320  174.1600  139.1330 C   0  0  0  0  0  2  0  0  0  0  0  0
  1 12  1  0  0  0  0
  2 13  1  1  0  0  0
  2  6  1  0  0  0  0
  2  8  1  0  0  0  0
  3 11  1  0  0  0  0
  4 14  1  0  0  0  0
  5 10  1  0  0  0  0
  6  5  2  0  0  0  0
  7 17  2  0  0  0  0
  8  3  2  0  0  0  0
  8  1  1  0  0  0  0
  9  4  2  0  0  0  0
 10  1  2  0  0  0  0
 11 15  1  0  0  0  0
 11 18  1  0  0  0  0
 12 18  2  0  0  0  0
 14 15  1  0  0  0  0
 15 21  1  6  0  0  0
 16  7  1  0  0  0  0
 16  9  1  0  0  0  0
 17  4  1  0  0  0  0
 17  3  1  0  0  0  0
 19 20  1  0  0  0  0
 20 22  2  0  0  0  0
 21 24  2  0  0  0  0
 23 19  2  0  0  0  0
 23 21  1  0  0  0  0
 24 22  1  0  0  0  0
 25 19  1  0  0  0  0
 26 16  1  0  0  0  0
 27 26  1  0  0  0  0
 29 27  1  1  0  0  0
 29 30  1  0  0  0  0
 30 28  1  1  0  0  0
 31 34  1  0  0  0  0
 32 33  1  0  0  0  0
 32 31  1  0  0  0  0
 33 29  1  0  0  0  0
 34 30  1  0  0  0  0
M  END
>  <MODEL>
8

>  <REMARK>
 VINA RESULT:      -7.8      3.029      6.899
  Name = 
  4 active torsions:
  status: ('A' for Active; 'I' for Inactive)
    1  A    between atoms: C_3  and  C_13
    2  A    between atoms: C_3  and  C_17
    3  A    between atoms: C_12  and  C_28
    4  A    between atoms: C_17  and  N_29
                            x       y       z     vdW  Elec       q    Type
                         _______ _______ _______ _____ _____    ______ ____

>  <TORSDO>
F 4

$$$$
=
 OpenBabel11052418483D

 34 39  0  0  1  0  0  0  0  0999 V2000
  192.6890  173.8310  144.8780 C   0  0  0  0  0  0  0  0  0  0  0  0
  191.9400  176.2750  144.5720 C   0  0  2  0  0  3  0  0  0  0  0  0
  190.7750  174.3460  143.4550 C   0  0  0  0  0  0  0  0  0  0  0  0
  188.6750  174.6540  142.1690 C   0  0  0  0  0  0  0  0  0  0  0  0
  193.5860  175.5840  146.2650 N   0  0  0  0  0  0  0  0  0  0  0  0
  192.8480  176.5210  145.7480 C   0  0  0  0  0  3  0  0  0  0  0  0
  189.5010  176.5610  142.9350 C   0  0  0  0  0  3  0  0  0  0  0  0
  191.7410  174.8040  144.2870 C   0  0  0  0  0  0  0  0  0  0  0  0
  187.8220  175.6740  141.8100 C   0  0  0  0  0  3  0  0  0  0  0  0
  193.5560  174.2250  145.8090 C   0  0  0  0  0  3  0  0  0  0  0  0
  190.7240  172.9350  143.1130 N   0  0  0  0  0  0  0  0  0  0  0  0
  192.6200  172.4180  144.5020 C   0  0  0  0  0  3  0  0  0  0  0  0
  192.4860  176.8850  143.4580 F   0  0  0  0  0  0  0  0  0  0  0  0
  188.4790  173.1840  141.9930 C   0  0  0  0  0  2  0  0  0  0  0  0
  189.8260  172.4350  142.0550 C   0  0  1  0  0  3  0  0  0  0  0  0
  188.3590  176.8240  142.2670 N   0  0  0  0  0  0  0  0  0  0  0  0
  189.7140  175.1970  142.8790 C   0  0  0  0  0  0  0  0  0  0  0  0
  191.6780  172.0090  143.6570 C   0  0  0  0  0  3  0  0  0  0  0  0
  192.1970  173.2570  139.1870 C   0  0  0  0  0  0  0  0  0  0  0  0
  191.7490  172.3660  138.2080 C   0  0  0  0  0  3  0  0  0  0  0  0
  190.5110  172.4200  140.7200 C   0  0  0  0  0  0  0  0  0  0  0  0
  190.6830  171.5040  138.4810 C   0  0  0  0  0  3  0  0  0  0  0  0
  191.5790  173.2860  140.4400 C   0  0  0  0  0  3  0  0  0  0  0  0
  190.0650  171.5320  139.7340 C   0  0  0  0  0  3  0  0  0  0  0  0
  193.3280  174.1750  138.8980 C   0  0  0  0  0  1  0  0  0  0  0  0
  187.7560  178.1390  142.1270 C   0  0  0  0  0  2  0  0  0  0  0  0
  186.2950  178.0870  142.5380 C   0  0  0  0  0  2  0  0  0  0  0  0
  185.5180  180.5410  144.2630 F   0  0  0  0  0  0  0  0  0  0  0  0
  186.1560  178.2500  144.0420 C   0  0  1  0  0  3  0  0  0  0  0  0
  185.0400  179.2500  144.3880 C   0  0  1  0  0  3  0  0  0  0  0  0
  185.4350  178.3200  146.5900 O   0  0  0  0  0  0  0  0  0  0  0  0
  185.3820  176.9960  146.1180 C   0  0  0  0  0  2  0  0  0  0  0  0
  185.9230  176.8790  144.6830 C   0  0  0  0  0  2  0  0  0  0  0  0
  184.5110  179.0400  145.8130 C   0  0  0  0  0  2  0  0  0  0  0  0
  1 10  2  0  0  0  0
  2 13  1  6  0  0  0
  2  6  1  0  0  0  0
  3  8  2  0  0  0  0
  4 17  1  0  0  0  0
  6  5  2  0  0  0  0
  8  2  1  0  0  0  0
  8  1  1  0  0  0  0
  9  4  2  0  0  0  0
  9 16  1  0  0  0  0
 10  5  1  0  0  0  0
 11  3  1  0  0  0  0
 11 18  1  0  0  0  0
 12  1  1  0  0  0  0
 14 15  1  0  0  0  0
 14  4  1  0  0  0  0
 15 21  1  6  0  0  0
 15 11  1  0  0  0  0
 16  7  1  0  0  0  0
 17  7  2  0  0  0  0
 17  3  1  0  0  0  0
 18 12  2  0  0  0  0
 19 23  1  0  0  0  0
 20 22  1  0  0  0  0
 20 19  2  0  0  0  0
 22 24  2  0  0  0  0
 23 21  2  0  0  0  0
 24 21  1  0  0  0  0
 25 19  1  0  0  0  0
 26 16  1  0  0  0  0
 26 27  1  0  0  0  0
 29 27  1  6  0  0  0
 29 30  1  0  0  0  0
 29 33  1  0  0  0  0
 30 28  1  1  0  0  0
 30 34  1  0  0  0  0
 32 31  1  0  0  0  0
 33 32  1  0  0  0  0
 34 31  1  0  0  0  0
M  END
>  <MODEL>
9

>  <REMARK>
 VINA RESULT:      -7.8      2.053      5.121
  Name = 
  4 active torsions:
  status: ('A' for Active; 'I' for Inactive)
    1  A    between atoms: C_3  and  C_13
    2  A    between atoms: C_3  and  C_17
    3  A    between atoms: C_12  and  C_28
    4  A    between atoms: C_17  and  N_29
                            x       y       z     vdW  Elec       q    Type
                         _______ _______ _______ _____ _____    ______ ____

>  <TORSDO>
F 4

$$$$
