=
 OpenBabel11052418343D

 27 29  0  0  1  0  0  0  0  0999 V2000
  188.6310  177.6440  143.7770 C   0  0  2  0  0  3  0  0  0  0  0  0
  189.8400  177.2530  144.6400 C   0  0  0  0  0  2  0  0  0  0  0  0
  187.4050  177.9840  145.9420 C   0  0  2  0  0  3  0  0  0  0  0  0
  185.1660  178.6840  144.6750 N   0  0  0  0  0  0  0  0  0  0  0  0
  186.1550  176.4160  147.2710 O   0  0  0  0  0  1  0  0  0  0  0  0
  183.9100  178.9710  143.9990 C   0  0  0  0  0  1  0  0  0  0  0  0
  189.3940  176.7340  146.0230 C   0  0  2  0  0  3  0  0  0  0  0  0
  187.3110  177.4160  144.5120 C   0  0  1  0  0  3  0  0  0  0  0  0
  188.5860  177.6930  146.6820 O   0  0  0  0  0  0  0  0  0  0  0  0
  184.8760  177.8540  145.8500 C   0  0  0  0  0  2  0  0  0  0  0  0
  185.4500  176.9250  143.0980 O   0  0  0  0  0  1  0  0  0  0  0  0
  186.0920  177.9780  143.7620 C   0  0  1  0  0  3  0  0  0  0  0  0
  186.1240  177.7050  146.7360 C   0  0  2  0  0  3  0  0  0  0  0  0
  190.8590  177.3310  147.9710 C   0  0  0  0  0  1  0  0  0  0  0  0
  190.5610  176.2610  146.9220 C   0  0  2  0  0  0  0  0  0  0  0  0
  192.9620  176.5620  146.7300 O   0  0  0  0  0  1  0  0  0  0  0  0
  192.0300  174.7580  145.6970 O   0  0  0  0  0  1  0  0  0  0  0  0
  191.8280  176.0910  146.0600 C   0  0  0  0  0  3  0  0  0  0  0  0
  188.9180  174.5310  147.3880 O   0  0  0  0  0  1  0  0  0  0  0  0
  190.2370  174.9310  147.6210 C   0  0  0  0  0  2  0  0  0  0  0  0
  188.6590  176.9740  142.5120 O   0  0  0  0  0  0  0  0  0  0  0  0
  189.4810  172.9220  141.9510 N   0  0  0  0  0  0  0  0  0  0  0  0
  188.9630  175.6170  142.3240 C   0  0  0  0  0  0  0  0  0  0  0  0
  187.9120  174.7090  142.1780 C   0  0  0  0  0  3  0  0  0  0  0  0
  188.1910  173.3530  141.9910 C   0  0  0  0  0  3  0  0  0  0  0  0
  190.5230  173.7830  142.0920 C   0  0  0  0  0  3  0  0  0  0  0  0
  190.2830  175.1460  142.2800 C   0  0  0  0  0  3  0  0  0  0  0  0
  1 21  1  6  0  0  0
  1  8  1  0  0  0  0
  1  2  1  0  0  0  0
  2  7  1  0  0  0  0
  3  9  1  1  0  0  0
  3 13  1  0  0  0  0
  4 10  1  0  0  0  0
  6  4  1  0  0  0  0
  7  9  1  0  0  0  0
  7 15  1  1  0  0  0
  8  3  1  0  0  0  0
 10 13  1  0  0  0  0
 11 12  1  0  0  0  0
 12  8  1  0  0  0  0
 12  4  1  0  0  0  0
 13  5  1  0  0  0  0
 15 20  1  0  0  0  0
 15 14  1  0  0  0  0
 17 18  1  0  0  0  0
 18 16  1  0  0  0  0
 18 15  1  0  0  0  0
 19 20  1  0  0  0  0
 22 25  2  0  0  0  0
 22 26  1  0  0  0  0
 23 21  1  0  0  0  0
 24 23  2  0  0  0  0
 25 24  1  0  0  0  0
 26 27  2  0  0  0  0
 27 23  1  0  0  0  0
M  END
>  <MODEL>
1

>  <REMARK>
 VINA RESULT:      -6.5      0.000      0.000
  Name = 
  5 active torsions:
  status: ('A' for Active; 'I' for Inactive)
    1  A    between atoms: C_1  and  O_15
    2  A    between atoms: C_9  and  O_15
    3  A    between atoms: C_14  and  C_17
    4  A    between atoms: C_16  and  C_17
    5  A    between atoms: C_17  and  C_21
                            x       y       z     vdW  Elec       q    Type
                         _______ _______ _______ _____ _____    ______ ____

>  <TORSDO>
F 5

$$$$
=
 OpenBabel11052418343D

 27 29  0  0  1  0  0  0  0  0999 V2000
  188.8650  175.5800  143.9080 C   0  0  2  0  0  3  0  0  0  0  0  0
  187.4810  176.1830  144.1870 C   0  0  0  0  0  2  0  0  0  0  0  0
  189.2930  175.8420  146.3690 C   0  0  2  0  0  3  0  0  0  0  0  0
  191.7520  174.8380  146.1470 N   0  0  0  0  0  0  0  0  0  0  0  0
  190.1750  177.7170  147.5910 O   0  0  0  0  0  1  0  0  0  0  0  0
  193.1300  174.3860  146.0270 C   0  0  0  0  0  1  0  0  0  0  0  0
  187.4990  177.0570  145.4580 C   0  0  2  0  0  3  0  0  0  0  0  0
  189.8910  176.0050  144.9580 C   0  0  1  0  0  3  0  0  0  0  0  0
  187.9650  176.3160  146.5710 O   0  0  0  0  0  0  0  0  0  0  0  0
  191.7170  175.9550  147.0970 C   0  0  0  0  0  2  0  0  0  0  0  0
  192.1450  176.1060  144.1710 O   0  0  0  0  0  1  0  0  0  0  0  0
  191.2350  175.2670  144.8290 C   0  0  1  0  0  3  0  0  0  0  0  0
  190.2670  176.3320  147.4460 C   0  0  2  0  0  3  0  0  0  0  0  0
  185.1000  176.6910  146.1000 C   0  0  0  0  0  1  0  0  0  0  0  0
  186.1490  177.7500  145.7630 C   0  0  2  0  0  0  0  0  0  0  0  0
  184.3470  178.1490  144.1850 O   0  0  0  0  0  1  0  0  0  0  0  0
  185.7540  179.8790  144.6550 O   0  0  0  0  0  1  0  0  0  0  0  0
  185.6650  178.4940  144.5020 C   0  0  0  0  0  3  0  0  0  0  0  0
  185.1420  178.7170  147.7520 O   0  0  0  0  0  1  0  0  0  0  0  0
  186.2700  178.7440  146.9280 C   0  0  0  0  0  2  0  0  0  0  0  0
  189.3050  175.8830  142.5800 O   0  0  0  0  0  0  0  0  0  0  0  0
  189.6250  173.1280  139.4630 N   0  0  0  0  0  0  0  0  0  0  0  0
  189.4380  174.9500  141.5400 C   0  0  0  0  0  0  0  0  0  0  0  0
  188.3940  174.8160  140.6220 C   0  0  0  0  0  3  0  0  0  0  0  0
  188.5050  173.8910  139.5810 C   0  0  0  0  0  3  0  0  0  0  0  0
  190.6550  173.2370  140.3430 C   0  0  0  0  0  3  0  0  0  0  0  0
  190.5810  174.1500  141.3970 C   0  0  0  0  0  3  0  0  0  0  0  0
  1 21  1  6  0  0  0
  1  2  1  0  0  0  0
  1  8  1  0  0  0  0
  2  7  1  0  0  0  0
  3  9  1  6  0  0  0
  3 13  1  0  0  0  0
  4 10  1  0  0  0  0
  6  4  1  0  0  0  0
  7 15  1  1  0  0  0
  7  9  1  0  0  0  0
  8  3  1  0  0  0  0
 10 13  1  0  0  0  0
 11 12  1  0  0  0  0
 12  8  1  0  0  0  0
 12  4  1  0  0  0  0
 13  5  1  0  0  0  0
 15 14  1  0  0  0  0
 15 20  1  0  0  0  0
 16 18  1  0  0  0  0
 18 17  1  0  0  0  0
 18 15  1  0  0  0  0
 20 19  1  0  0  0  0
 22 25  2  0  0  0  0
 22 26  1  0  0  0  0
 23 21  1  0  0  0  0
 24 23  2  0  0  0  0
 25 24  1  0  0  0  0
 26 27  2  0  0  0  0
 27 23  1  0  0  0  0
M  END
>  <MODEL>
2

>  <REMARK>
 VINA RESULT:      -6.4      2.151      5.158
  Name = 
  5 active torsions:
  status: ('A' for Active; 'I' for Inactive)
    1  A    between atoms: C_1  and  O_15
    2  A    between atoms: C_9  and  O_15
    3  A    between atoms: C_14  and  C_17
    4  A    between atoms: C_16  and  C_17
    5  A    between atoms: C_17  and  C_21
                            x       y       z     vdW  Elec       q    Type
                         _______ _______ _______ _____ _____    ______ ____

>  <TORSDO>
F 5

$$$$
=
 OpenBabel11052418343D

 27 29  0  0  1  0  0  0  0  0999 V2000
  188.5130  176.2600  144.4760 C   0  0  2  0  0  3  0  0  0  0  0  0
  188.4000  175.6800  143.0590 C   0  0  0  0  0  2  0  0  0  0  0  0
  190.9200  175.5490  144.3970 C   0  0  2  0  0  3  0  0  0  0  0  0
  191.3730  176.4660  146.8590 N   0  0  0  0  0  0  0  0  0  0  0  0
  191.9290  173.4500  145.0000 O   0  0  0  0  0  1  0  0  0  0  0  0
  191.6100  176.8700  148.2360 C   0  0  0  0  0  1  0  0  0  0  0  0
  189.4680  174.5940  142.8140 C   0  0  2  0  0  3  0  0  0  0  0  0
  189.6490  175.6120  145.2660 C   0  0  1  0  0  3  0  0  0  0  0  0
  190.7680  175.1060  143.0520 O   0  0  0  0  0  0  0  0  0  0  0  0
  192.0780  175.2010  146.6240 C   0  0  0  0  0  2  0  0  0  0  0  0
  189.3160  175.5510  147.6310 O   0  0  0  0  0  1  0  0  0  0  0  0
  189.9230  176.3000  146.6150 C   0  0  1  0  0  3  0  0  0  0  0  0
  192.0600  174.8340  145.1310 C   0  0  2  0  0  3  0  0  0  0  0  0
  188.4480  174.7410  140.5250 C   0  0  0  0  0  1  0  0  0  0  0  0
  189.3700  173.9200  141.4240 C   0  0  2  0  0  0  0  0  0  0  0  0
  189.3720  171.7920  142.5930 O   0  0  0  0  0  1  0  0  0  0  0  0
  187.3720  172.6040  141.8660 O   0  0  0  0  0  1  0  0  0  0  0  0
  188.7370  172.5230  141.5840 C   0  0  0  0  0  3  0  0  0  0  0  0
  190.6430  173.5830  139.3810 O   0  0  0  0  0  1  0  0  0  0  0  0
  190.7500  173.7830  140.7600 C   0  0  0  0  0  2  0  0  0  0  0  0
  187.2650  176.1770  145.1720 O   0  0  0  0  0  0  0  0  0  0  0  0
  184.4790  179.2510  145.6180 N   0  0  0  0  0  0  0  0  0  0  0  0
  186.3430  177.2270  145.3060 C   0  0  0  0  0  0  0  0  0  0  0  0
  185.2380  177.0470  146.1410 C   0  0  0  0  0  3  0  0  0  0  0  0
  184.3070  178.0790  146.2860 C   0  0  0  0  0  3  0  0  0  0  0  0
  185.5440  179.4530  144.7980 C   0  0  0  0  0  3  0  0  0  0  0  0
  186.4960  178.4450  144.6270 C   0  0  0  0  0  3  0  0  0  0  0  0
  1 21  1  1  0  0  0
  1  8  1  0  0  0  0
  2  1  1  0  0  0  0
  3  9  1  6  0  0  0
  3 13  1  0  0  0  0
  3  8  1  0  0  0  0
  4  6  1  0  0  0  0
  5 13  1  0  0  0  0
  7 15  1  6  0  0  0
  7  9  1  0  0  0  0
  7  2  1  0  0  0  0
  8 12  1  0  0  0  0
 10  4  1  0  0  0  0
 12  4  1  0  0  0  0
 12 11  1  0  0  0  0
 13 10  1  0  0  0  0
 14 15  1  0  0  0  0
 15 18  1  0  0  0  0
 18 17  1  0  0  0  0
 18 16  1  0  0  0  0
 19 20  1  0  0  0  0
 20 15  1  0  0  0  0
 21 23  1  0  0  0  0
 22 25  1  0  0  0  0
 23 24  1  0  0  0  0
 24 25  2  0  0  0  0
 26 22  2  0  0  0  0
 27 26  1  0  0  0  0
 27 23  2  0  0  0  0
M  END
>  <MODEL>
3

>  <REMARK>
 VINA RESULT:      -6.3      2.450      6.290
  Name = 
  5 active torsions:
  status: ('A' for Active; 'I' for Inactive)
    1  A    between atoms: C_1  and  O_15
    2  A    between atoms: C_9  and  O_15
    3  A    between atoms: C_14  and  C_17
    4  A    between atoms: C_16  and  C_17
    5  A    between atoms: C_17  and  C_21
                            x       y       z     vdW  Elec       q    Type
                         _______ _______ _______ _____ _____    ______ ____

>  <TORSDO>
F 5

$$$$
=
 OpenBabel11052418343D

 27 29  0  0  1  0  0  0  0  0999 V2000
  189.0330  177.2430  143.2160 C   0  0  2  0  0  3  0  0  0  0  0  0
  190.4060  176.9040  143.8140 C   0  0  0  0  0  2  0  0  0  0  0  0
  188.3160  177.7460  145.5700 C   0  0  2  0  0  3  0  0  0  0  0  0
  185.8470  178.3740  144.7870 N   0  0  0  0  0  0  0  0  0  0  0  0
  187.4050  176.2860  147.2510 O   0  0  0  0  0  1  0  0  0  0  0  0
  184.4690  178.6220  144.3880 C   0  0  0  0  0  1  0  0  0  0  0  0
  190.2830  176.4880  145.2950 C   0  0  2  0  0  3  0  0  0  0  0  0
  187.9110  177.0780  144.2410 C   0  0  1  0  0  3  0  0  0  0  0  0
  189.6350  177.4980  146.0480 O   0  0  0  0  0  0  0  0  0  0  0  0
  185.8310  177.6310  146.0520 C   0  0  0  0  0  2  0  0  0  0  0  0
  185.7850  176.5040  143.3150 O   0  0  0  0  0  1  0  0  0  0  0  0
  186.5510  177.5960  143.7430 C   0  0  1  0  0  3  0  0  0  0  0  0
  187.2460  177.5340  146.6470 C   0  0  2  0  0  3  0  0  0  0  0  0
  192.7740  176.7880  145.2380 C   0  0  0  0  0  1  0  0  0  0  0  0
  191.6240  176.0700  145.9430 C   0  0  2  0  0  0  0  0  0  0  0  0
  190.6480  173.9310  145.3390 O   0  0  0  0  0  1  0  0  0  0  0  0
  192.8330  174.2910  144.8060 O   0  0  0  0  0  1  0  0  0  0  0  0
  191.8320  174.5550  145.7430 C   0  0  0  0  0  3  0  0  0  0  0  0
  191.1910  175.3290  148.2170 O   0  0  0  0  0  1  0  0  0  0  0  0
  191.6560  176.3960  147.4450 C   0  0  0  0  0  2  0  0  0  0  0  0
  188.7840  176.4850  142.0280 O   0  0  0  0  0  0  0  0  0  0  0  0
  189.2780  172.3590  141.6540 N   0  0  0  0  0  0  0  0  0  0  0  0
  188.9770  175.1010  141.8970 C   0  0  0  0  0  0  0  0  0  0  0  0
  187.8700  174.2560  142.0070 C   0  0  0  0  0  3  0  0  0  0  0  0
  188.0400  172.8750  141.8820 C   0  0  0  0  0  3  0  0  0  0  0  0
  190.3720  173.1570  141.5430 C   0  0  0  0  0  3  0  0  0  0  0  0
  190.2420  174.5430  141.6620 C   0  0  0  0  0  3  0  0  0  0  0  0
  1 21  1  6  0  0  0
  1  2  1  0  0  0  0
  1  8  1  0  0  0  0
  2  7  1  0  0  0  0
  3  9  1  1  0  0  0
  3 13  1  0  0  0  0
  4 10  1  0  0  0  0
  6  4  1  0  0  0  0
  7 15  1  1  0  0  0
  7  9  1  0  0  0  0
  8  3  1  0  0  0  0
 10 13  1  0  0  0  0
 11 12  1  0  0  0  0
 12  8  1  0  0  0  0
 12  4  1  0  0  0  0
 13  5  1  0  0  0  0
 14 15  1  0  0  0  0
 15 20  1  0  0  0  0
 16 18  1  0  0  0  0
 17 18  1  0  0  0  0
 18 15  1  0  0  0  0
 20 19  1  0  0  0  0
 22 25  1  0  0  0  0
 23 24  1  0  0  0  0
 23 21  1  0  0  0  0
 25 24  2  0  0  0  0
 26 22  2  0  0  0  0
 26 27  1  0  0  0  0
 27 23  2  0  0  0  0
M  END
>  <MODEL>
4

>  <REMARK>
 VINA RESULT:      -6.3      1.150      1.464
  Name = 
  5 active torsions:
  status: ('A' for Active; 'I' for Inactive)
    1  A    between atoms: C_1  and  O_15
    2  A    between atoms: C_9  and  O_15
    3  A    between atoms: C_14  and  C_17
    4  A    between atoms: C_16  and  C_17
    5  A    between atoms: C_17  and  C_21
                            x       y       z     vdW  Elec       q    Type
                         _______ _______ _______ _____ _____    ______ ____

>  <TORSDO>
F 5

$$$$
=
 OpenBabel11052418343D

 27 29  0  0  1  0  0  0  0  0999 V2000
  189.3610  177.0790  143.2480 C   0  0  2  0  0  3  0  0  0  0  0  0
  190.6750  176.5560  143.8460 C   0  0  0  0  0  2  0  0  0  0  0  0
  188.6750  177.5750  145.6130 C   0  0  2  0  0  3  0  0  0  0  0  0
  186.3100  178.5230  144.8300 N   0  0  0  0  0  0  0  0  0  0  0  0
  187.5730  176.1720  147.2260 O   0  0  0  0  0  1  0  0  0  0  0  0
  184.9780  178.9490  144.4280 C   0  0  0  0  0  1  0  0  0  0  0  0
  190.4820  176.1020  145.3080 C   0  0  2  0  0  3  0  0  0  0  0  0
  188.2130  177.0120  144.2540 C   0  0  1  0  0  3  0  0  0  0  0  0
  189.9480  177.1530  146.0930 O   0  0  0  0  0  0  0  0  0  0  0  0
  186.1880  177.7400  146.0650 C   0  0  0  0  0  2  0  0  0  0  0  0
  186.0480  176.7320  143.2850 O   0  0  0  0  0  1  0  0  0  0  0  0
  186.9320  177.7070  143.7640 C   0  0  1  0  0  3  0  0  0  0  0  0
  187.5720  177.4520  146.6700 C   0  0  2  0  0  3  0  0  0  0  0  0
  191.5450  175.3700  147.4600 C   0  0  0  0  0  1  0  0  0  0  0  0
  191.7540  175.5020  145.9520 C   0  0  2  0  0  0  0  0  0  0  0  0
  193.5390  176.8140  146.9450 O   0  0  0  0  0  1  0  0  0  0  0  0
  193.8990  175.9160  144.8830 O   0  0  0  0  0  1  0  0  0  0  0  0
  192.9360  176.4660  145.7320 C   0  0  0  0  0  3  0  0  0  0  0  0
  190.9500  173.4200  144.9900 O   0  0  0  0  0  1  0  0  0  0  0  0
  192.0980  174.1270  145.3580 C   0  0  0  0  0  2  0  0  0  0  0  0
  189.0410  176.4030  142.0280 O   0  0  0  0  0  0  0  0  0  0  0  0
  189.2460  172.2760  141.4460 N   0  0  0  0  0  0  0  0  0  0  0  0
  189.1360  175.0170  141.8240 C   0  0  0  0  0  0  0  0  0  0  0  0
  188.0040  174.2280  142.0400 C   0  0  0  0  0  3  0  0  0  0  0  0
  188.0780  172.8470  141.8450 C   0  0  0  0  0  3  0  0  0  0  0  0
  190.3630  173.0200  141.2290 C   0  0  0  0  0  3  0  0  0  0  0  0
  190.3290  174.4040  141.4140 C   0  0  0  0  0  3  0  0  0  0  0  0
  1 21  1  6  0  0  0
  1  2  1  0  0  0  0
  1  8  1  0  0  0  0
  2  7  1  0  0  0  0
  3  9  1  1  0  0  0
  3 13  1  0  0  0  0
  4 10  1  0  0  0  0
  6  4  1  0  0  0  0
  7 15  1  1  0  0  0
  7  9  1  0  0  0  0
  8  3  1  0  0  0  0
 10 13  1  0  0  0  0
 11 12  1  0  0  0  0
 12  8  1  0  0  0  0
 12  4  1  0  0  0  0
 13  5  1  0  0  0  0
 15 14  1  0  0  0  0
 17 18  1  0  0  0  0
 18 15  1  0  0  0  0
 18 16  1  0  0  0  0
 19 20  1  0  0  0  0
 20 15  1  0  0  0  0
 22 25  1  0  0  0  0
 23 21  1  0  0  0  0
 23 24  1  0  0  0  0
 25 24  2  0  0  0  0
 26 27  1  0  0  0  0
 26 22  2  0  0  0  0
 27 23  2  0  0  0  0
M  END
>  <MODEL>
5

>  <REMARK>
 VINA RESULT:      -6.2      1.196      1.502
  Name = 
  5 active torsions:
  status: ('A' for Active; 'I' for Inactive)
    1  A    between atoms: C_1  and  O_15
    2  A    between atoms: C_9  and  O_15
    3  A    between atoms: C_14  and  C_17
    4  A    between atoms: C_16  and  C_17
    5  A    between atoms: C_17  and  C_21
                            x       y       z     vdW  Elec       q    Type
                         _______ _______ _______ _____ _____    ______ ____

>  <TORSDO>
F 5

$$$$
=
 OpenBabel11052418343D

 27 29  0  0  1  0  0  0  0  0999 V2000
  189.9750  175.4200  142.8750 C   0  0  2  0  0  3  0  0  0  0  0  0
  191.1740  175.2140  143.8120 C   0  0  0  0  0  2  0  0  0  0  0  0
  189.2970  177.2780  144.4230 C   0  0  2  0  0  3  0  0  0  0  0  0
  187.1290  177.8260  142.9710 N   0  0  0  0  0  0  0  0  0  0  0  0
  187.9430  177.2140  146.4100 O   0  0  0  0  0  1  0  0  0  0  0  0
  185.8910  178.0720  142.2480 C   0  0  0  0  0  1  0  0  0  0  0  0
  190.8670  175.7280  145.2340 C   0  0  2  0  0  3  0  0  0  0  0  0
  188.7980  176.0760  143.5960 C   0  0  1  0  0  3  0  0  0  0  0  0
  190.4750  177.0890  145.2010 O   0  0  0  0  0  0  0  0  0  0  0  0
  186.8500  177.9360  144.4080 C   0  0  0  0  0  2  0  0  0  0  0  0
  186.6480  175.5080  142.7250 O   0  0  0  0  0  1  0  0  0  0  0  0
  187.6540  176.4800  142.6510 C   0  0  1  0  0  3  0  0  0  0  0  0
  188.1550  177.9160  145.2220 C   0  0  2  0  0  3  0  0  0  0  0  0
  192.7020  174.1650  145.9340 C   0  0  0  0  0  1  0  0  0  0  0  0
  192.0130  175.4920  146.2470 C   0  0  2  0  0  0  0  0  0  0  0  0
  191.4560  176.6120  148.3280 O   0  0  0  0  0  1  0  0  0  0  0  0
  190.1020  174.9160  147.6380 O   0  0  0  0  0  1  0  0  0  0  0  0
  191.4180  175.3810  147.6650 C   0  0  0  0  0  3  0  0  0  0  0  0
  194.3310  176.1710  146.5130 O   0  0  0  0  0  1  0  0  0  0  0  0
  193.0450  176.6300  146.2140 C   0  0  0  0  0  2  0  0  0  0  0  0
  189.5950  174.1940  142.2420 O   0  0  0  0  0  0  0  0  0  0  0  0
  189.8390  173.4120  138.1510 N   0  0  0  0  0  0  0  0  0  0  0  0
  189.7040  173.9260  140.8690 C   0  0  0  0  0  0  0  0  0  0  0  0
  188.5660  174.0540  140.0680 C   0  0  0  0  0  3  0  0  0  0  0  0
  188.6520  173.7900  138.6990 C   0  0  0  0  0  3  0  0  0  0  0  0
  190.9610  173.2790  138.9060 C   0  0  0  0  0  3  0  0  0  0  0  0
  190.9140  173.5340  140.2780 C   0  0  0  0  0  3  0  0  0  0  0  0
  1 21  1  1  0  0  0
  1  8  1  0  0  0  0
  1  2  1  0  0  0  0
  2  7  1  0  0  0  0
  3  9  1  1  0  0  0
  3 13  1  0  0  0  0
  4 10  1  0  0  0  0
  6  4  1  0  0  0  0
  7 15  1  1  0  0  0
  8  3  1  0  0  0  0
  9  7  1  0  0  0  0
 10 13  1  0  0  0  0
 12 11  1  0  0  0  0
 12  4  1  0  0  0  0
 12  8  1  0  0  0  0
 13  5  1  0  0  0  0
 14 15  1  0  0  0  0
 15 18  1  0  0  0  0
 17 18  1  0  0  0  0
 18 16  1  0  0  0  0
 20 15  1  0  0  0  0
 20 19  1  0  0  0  0
 22 25  2  0  0  0  0
 22 26  1  0  0  0  0
 23 21  1  0  0  0  0
 24 23  2  0  0  0  0
 25 24  1  0  0  0  0
 26 27  2  0  0  0  0
 27 23  1  0  0  0  0
M  END
>  <MODEL>
6

>  <REMARK>
 VINA RESULT:      -6.1      1.964      2.868
  Name = 
  5 active torsions:
  status: ('A' for Active; 'I' for Inactive)
    1  A    between atoms: C_1  and  O_15
    2  A    between atoms: C_9  and  O_15
    3  A    between atoms: C_14  and  C_17
    4  A    between atoms: C_16  and  C_17
    5  A    between atoms: C_17  and  C_21
                            x       y       z     vdW  Elec       q    Type
                         _______ _______ _______ _____ _____    ______ ____

>  <TORSDO>
F 5

$$$$
=
 OpenBabel11052418343D

 27 29  0  0  1  0  0  0  0  0999 V2000
  188.3270  175.3870  143.0090 C   0  0  2  0  0  3  0  0  0  0  0  0
  187.0170  176.1750  143.1570 C   0  0  0  0  0  2  0  0  0  0  0  0
  188.7090  175.8870  145.4410 C   0  0  2  0  0  3  0  0  0  0  0  0
  191.0360  174.5850  145.4420 N   0  0  0  0  0  0  0  0  0  0  0  0
  189.7730  177.7780  146.4780 O   0  0  0  0  0  1  0  0  0  0  0  0
  192.3520  173.9660  145.4330 C   0  0  0  0  0  1  0  0  0  0  0  0
  187.1020  177.1850  144.3200 C   0  0  2  0  0  3  0  0  0  0  0  0
  189.3650  175.8110  144.0470 C   0  0  1  0  0  3  0  0  0  0  0  0
  187.4430  176.5320  145.5300 O   0  0  0  0  0  0  0  0  0  0  0  0
  191.1070  175.8040  146.2550 C   0  0  0  0  0  2  0  0  0  0  0  0
  191.6360  175.5570  143.3530 O   0  0  0  0  0  1  0  0  0  0  0  0
  190.6140  174.9130  144.0610 C   0  0  1  0  0  3  0  0  0  0  0  0
  189.7030  176.3840  146.4960 C   0  0  2  0  0  3  0  0  0  0  0  0
  186.1540  179.4960  144.0690 C   0  0  0  0  0  1  0  0  0  0  0  0
  185.8360  178.0610  144.4850 C   0  0  2  0  0  0  0  0  0  0  0  0
  185.8220  179.2860  146.5810 O   0  0  0  0  0  1  0  0  0  0  0  0
  184.0540  177.9210  146.1340 O   0  0  0  0  0  1  0  0  0  0  0  0
  185.4310  178.0890  145.9720 C   0  0  0  0  0  3  0  0  0  0  0  0
  184.1160  178.5240  142.8330 O   0  0  0  0  0  1  0  0  0  0  0  0
  184.6640  177.5290  143.6450 C   0  0  0  0  0  2  0  0  0  0  0  0
  188.8390  175.4790  141.6760 O   0  0  0  0  0  0  0  0  0  0  0  0
  188.9910  172.3030  138.9730 N   0  0  0  0  0  0  0  0  0  0  0  0
  188.8740  174.4250  140.7500 C   0  0  0  0  0  0  0  0  0  0  0  0
  189.5750  173.2630  141.0810 C   0  0  0  0  0  3  0  0  0  0  0  0
  189.6240  172.2030  140.1730 C   0  0  0  0  0  3  0  0  0  0  0  0
  188.3020  173.4220  138.6240 C   0  0  0  0  0  3  0  0  0  0  0  0
  188.2310  174.5030  139.5050 C   0  0  0  0  0  3  0  0  0  0  0  0
  1 21  1  6  0  0  0
  1  2  1  0  0  0  0
  1  8  1  0  0  0  0
  2  7  1  0  0  0  0
  3  9  1  6  0  0  0
  3 13  1  0  0  0  0
  4 10  1  0  0  0  0
  5 13  1  0  0  0  0
  6  4  1  0  0  0  0
  7 15  1  1  0  0  0
  7  9  1  0  0  0  0
  8 12  1  0  0  0  0
  8  3  1  0  0  0  0
 10 13  1  0  0  0  0
 11 12  1  0  0  0  0
 12  4  1  0  0  0  0
 14 15  1  0  0  0  0
 15 18  1  0  0  0  0
 18 17  1  0  0  0  0
 18 16  1  0  0  0  0
 19 20  1  0  0  0  0
 20 15  1  0  0  0  0
 22 25  1  0  0  0  0
 23 24  1  0  0  0  0
 23 21  1  0  0  0  0
 25 24  2  0  0  0  0
 26 22  2  0  0  0  0
 26 27  1  0  0  0  0
 27 23  2  0  0  0  0
M  END
>  <MODEL>
7

>  <REMARK>
 VINA RESULT:      -6.0      2.251      5.302
  Name = 
  5 active torsions:
  status: ('A' for Active; 'I' for Inactive)
    1  A    between atoms: C_1  and  O_15
    2  A    between atoms: C_9  and  O_15
    3  A    between atoms: C_14  and  C_17
    4  A    between atoms: C_16  and  C_17
    5  A    between atoms: C_17  and  C_21
                            x       y       z     vdW  Elec       q    Type
                         _______ _______ _______ _____ _____    ______ ____

>  <TORSDO>
F 5

$$$$
=
 OpenBabel11052418343D

 27 29  0  0  1  0  0  0  0  0999 V2000
  189.3890  177.5550  145.4540 C   0  0  2  0  0  3  0  0  0  0  0  0
  188.4100  177.7810  144.2920 C   0  0  0  0  0  2  0  0  0  0  0  0
  191.0490  176.8600  143.7010 C   0  0  2  0  0  3  0  0  0  0  0  0
  192.9240  176.3750  145.5320 N   0  0  0  0  0  0  0  0  0  0  0  0
  191.4490  174.6980  142.7270 O   0  0  0  0  0  1  0  0  0  0  0  0
  193.9250  176.0110  146.5240 C   0  0  0  0  0  1  0  0  0  0  0  0
  188.7850  176.9180  143.0700 C   0  0  2  0  0  3  0  0  0  0  0  0
  190.4710  176.5380  145.0940 C   0  0  1  0  0  3  0  0  0  0  0  0
  190.1190  177.1710  142.6670 O   0  0  0  0  0  0  0  0  0  0  0  0
  192.9510  175.3710  144.4630 C   0  0  0  0  0  2  0  0  0  0  0  0
  191.3380  175.3010  146.9450 O   0  0  0  0  0  1  0  0  0  0  0  0
  191.5820  176.4300  146.1520 C   0  0  1  0  0  3  0  0  0  0  0  0
  192.0840  175.8140  143.2730 C   0  0  2  0  0  3  0  0  0  0  0  0
  188.1540  178.2890  141.0640 C   0  0  0  0  0  1  0  0  0  0  0  0
  187.8000  177.0490  141.8830 C   0  0  2  0  0  0  0  0  0  0  0  0
  185.4760  177.5610  141.4030 O   0  0  0  0  0  1  0  0  0  0  0  0
  185.9160  176.1130  143.1050 O   0  0  0  0  0  1  0  0  0  0  0  0
  186.3720  177.2470  142.4300 C   0  0  0  0  0  3  0  0  0  0  0  0
  188.4050  174.7090  141.6250 O   0  0  0  0  0  1  0  0  0  0  0  0
  187.8330  175.8070  140.9780 C   0  0  0  0  0  2  0  0  0  0  0  0
  188.6960  177.1940  146.6530 O   0  0  0  0  0  0  0  0  0  0  0  0
  184.7460  178.2130  147.5310 N   0  0  0  0  0  0  0  0  0  0  0  0
  187.3760  177.5570  146.9640 C   0  0  0  0  0  0  0  0  0  0  0  0
  186.3310  176.7750  146.4690 C   0  0  0  0  0  3  0  0  0  0  0  0
  185.0100  177.1200  146.7650 C   0  0  0  0  0  3  0  0  0  0  0  0
  185.7440  178.9920  148.0250 C   0  0  0  0  0  3  0  0  0  0  0  0
  187.0770  178.6790  147.7510 C   0  0  0  0  0  3  0  0  0  0  0  0
  1 21  1  1  0  0  0
  2  1  1  0  0  0  0
  3  9  1  6  0  0  0
  3  8  1  0  0  0  0
  4 12  1  0  0  0  0
  4  6  1  0  0  0  0
  5 13  1  0  0  0  0
  7 15  1  6  0  0  0
  7  2  1  0  0  0  0
  8  1  1  0  0  0  0
  8 12  1  0  0  0  0
  9  7  1  0  0  0  0
 10  4  1  0  0  0  0
 12 11  1  0  0  0  0
 13  3  1  0  0  0  0
 13 10  1  0  0  0  0
 14 15  1  0  0  0  0
 15 18  1  0  0  0  0
 16 18  1  0  0  0  0
 18 17  1  0  0  0  0
 20 19  1  0  0  0  0
 20 15  1  0  0  0  0
 21 23  1  0  0  0  0
 22 26  1  0  0  0  0
 23 27  1  0  0  0  0
 24 25  1  0  0  0  0
 24 23  2  0  0  0  0
 25 22  2  0  0  0  0
 27 26  2  0  0  0  0
M  END
>  <MODEL>
8

>  <REMARK>
 VINA RESULT:      -6.0      2.176      6.662
  Name = 
  5 active torsions:
  status: ('A' for Active; 'I' for Inactive)
    1  A    between atoms: C_1  and  O_15
    2  A    between atoms: C_9  and  O_15
    3  A    between atoms: C_14  and  C_17
    4  A    between atoms: C_16  and  C_17
    5  A    between atoms: C_17  and  C_21
                            x       y       z     vdW  Elec       q    Type
                         _______ _______ _______ _____ _____    ______ ____

>  <TORSDO>
F 5

$$$$
=
 OpenBabel11052418343D

 27 29  0  0  1  0  0  0  0  0999 V2000
  190.7110  175.8590  144.9740 C   0  0  2  0  0  3  0  0  0  0  0  0
  192.1130  176.2020  145.4980 C   0  0  0  0  0  2  0  0  0  0  0  0
  191.7950  173.9000  143.8370 C   0  0  2  0  0  3  0  0  0  0  0  0
  189.4780  173.1020  142.7890 N   0  0  0  0  0  0  0  0  0  0  0  0
  192.8210  173.7510  141.6670 O   0  0  0  0  0  1  0  0  0  0  0  0
  188.2410  172.7110  142.1290 C   0  0  0  0  0  1  0  0  0  0  0  0
  193.2090  175.6260  144.5780 C   0  0  2  0  0  3  0  0  0  0  0  0
  190.7710  175.0420  143.6840 C   0  0  1  0  0  3  0  0  0  0  0  0
  193.0510  174.2270  144.4250 O   0  0  0  0  0  0  0  0  0  0  0  0
  190.5800  172.9300  141.8370 C   0  0  0  0  0  2  0  0  0  0  0  0
  188.9060  175.3420  142.2220 O   0  0  0  0  0  1  0  0  0  0  0  0
  189.3990  174.5110  143.2360 C   0  0  1  0  0  3  0  0  0  0  0  0
  191.9400  173.1050  142.5350 C   0  0  2  0  0  3  0  0  0  0  0  0
  194.6410  177.3550  145.6990 C   0  0  0  0  0  1  0  0  0  0  0  0
  194.6490  175.9900  145.0130 C   0  0  2  0  0  0  0  0  0  0  0  0
  194.7710  176.2420  142.6020 O   0  0  0  0  0  1  0  0  0  0  0  0
  196.4230  177.1850  143.8550 O   0  0  0  0  0  1  0  0  0  0  0  0
  195.5410  176.1060  143.7610 C   0  0  0  0  0  3  0  0  0  0  0  0
  196.3930  174.3530  145.4400 O   0  0  0  0  0  1  0  0  0  0  0  0
  195.2380  174.9380  145.9660 C   0  0  0  0  0  2  0  0  0  0  0  0
  189.9120  177.0370  144.8220 O   0  0  0  0  0  0  0  0  0  0  0  0
  186.0340  177.4490  146.3080 N   0  0  0  0  0  0  0  0  0  0  0  0
  188.6010  177.1920  145.3000 C   0  0  0  0  0  0  0  0  0  0  0  0
  188.2600  176.6080  146.5220 C   0  0  0  0  0  3  0  0  0  0  0  0
  186.9600  176.7480  147.0150 C   0  0  0  0  0  3  0  0  0  0  0  0
  186.3390  178.0270  145.1150 C   0  0  0  0  0  3  0  0  0  0  0  0
  187.6270  177.9090  144.5900 C   0  0  0  0  0  3  0  0  0  0  0  0
  1 21  1  6  0  0  0
  1  2  1  0  0  0  0
  3  9  1  6  0  0  0
  4 12  1  0  0  0  0
  5 13  1  0  0  0  0
  6  4  1  0  0  0  0
  7 15  1  1  0  0  0
  7  2  1  0  0  0  0
  8  3  1  0  0  0  0
  8  1  1  0  0  0  0
  9  7  1  0  0  0  0
 10 13  1  0  0  0  0
 10  4  1  0  0  0  0
 11 12  1  0  0  0  0
 12  8  1  0  0  0  0
 13  3  1  0  0  0  0
 15 14  1  0  0  0  0
 15 20  1  0  0  0  0
 16 18  1  0  0  0  0
 18 17  1  0  0  0  0
 18 15  1  0  0  0  0
 19 20  1  0  0  0  0
 21 23  1  0  0  0  0
 22 25  1  0  0  0  0
 23 24  1  0  0  0  0
 24 25  2  0  0  0  0
 26 22  2  0  0  0  0
 27 26  1  0  0  0  0
 27 23  2  0  0  0  0
M  END
>  <MODEL>
9

>  <REMARK>
 VINA RESULT:      -6.0      2.515      5.780
  Name = 
  5 active torsions:
  status: ('A' for Active; 'I' for Inactive)
    1  A    between atoms: C_1  and  O_15
    2  A    between atoms: C_9  and  O_15
    3  A    between atoms: C_14  and  C_17
    4  A    between atoms: C_16  and  C_17
    5  A    between atoms: C_17  and  C_21
                            x       y       z     vdW  Elec       q    Type
                         _______ _______ _______ _____ _____    ______ ____

>  <TORSDO>
F 5

$$$$
