=
 OpenBabel11052418123D

 28 32  0  0  1  0  0  0  0  0999 V2000
  189.3920  176.7250  146.3580 C   0  0  1  0  0  3  0  0  0  0  0  0
  189.0680  175.0610  141.3480 C   0  0  0  0  0  3  0  0  0  0  0  0
  192.9550  173.4400  145.7760 O   0  0  0  0  0  0  0  0  0  0  0  0
  190.3010  172.9870  141.5770 C   0  0  0  0  0  0  0  0  0  0  0  0
  190.6680  174.8320  143.2870 C   0  0  1  0  0  3  0  0  0  0  0  0
  188.6980  173.2540  139.7810 C   0  0  0  0  0  0  0  0  0  0  0  0
  189.9990  174.2780  142.0490 C   0  0  0  0  0  0  0  0  0  0  0  0
  192.2280  172.8230  143.1540 C   0  0  0  0  0  2  0  0  0  0  0  0
  189.6400  172.4740  140.4560 C   0  0  0  0  0  3  0  0  0  0  0  0
  191.3930  175.2110  146.0340 C   0  0  0  0  0  0  0  0  0  0  0  0
  189.6040  175.3340  144.2720 C   0  0  0  0  0  2  0  0  0  0  0  0
  191.2940  172.2010  142.2310 N   0  0  0  0  0  2  0  0  0  0  0  0
  191.3570  176.8090  147.8730 C   0  0  0  0  0  3  0  0  0  0  0  0
  192.0190  174.1210  145.2730 C   0  0  0  0  0  0  0  0  0  0  0  0
  191.9510  175.6700  147.1580 C   0  0  0  0  0  3  0  0  0  0  0  0
  188.0450  172.7430  138.6680 O   0  0  0  0  0  1  0  0  0  0  0  0
  188.4190  174.5510  140.2200 C   0  0  0  0  0  3  0  0  0  0  0  0
  191.5460  173.8450  143.9450 N   0  0  0  0  0  0  0  0  0  0  0  0
  190.1890  177.3250  147.4890 C   0  0  0  0  0  3  0  0  0  0  0  0
  190.2020  175.8330  145.5120 N   0  0  0  0  0  0  0  0  0  0  0  0
  188.1330  176.0200  146.8840 C   0  0  0  0  0  2  0  0  0  0  0  0
  186.8730  176.7880  146.6310 C   0  0  0  0  0  0  0  0  0  0  0  0
  184.5450  178.2660  146.1510 C   0  0  0  0  0  0  0  0  0  0  0  0
  186.3050  176.8060  145.3520 C   0  0  0  0  0  3  0  0  0  0  0  0
  186.2720  177.5080  147.6700 C   0  0  0  0  0  3  0  0  0  0  0  0
  185.1090  178.2470  147.4290 C   0  0  0  0  0  3  0  0  0  0  0  0
  183.4190  178.9820  145.9170 F   0  0  0  0  0  0  0  0  0  0  0  0
  185.1430  177.5440  145.1120 C   0  0  0  0  0  3  0  0  0  0  0  0
  1 21  1  1  0  0  0
  1 19  1  0  0  0  0
  2  7  1  0  0  0  0
  4  7  2  0  0  0  0
  4 12  1  0  0  0  0
  5 18  1  0  0  0  0
  5 11  1  1  0  0  0
  6 17  1  0  0  0  0
  6  9  2  0  0  0  0
  7  5  1  0  0  0  0
  8 18  1  0  0  0  0
  9  4  1  0  0  0  0
 10 15  2  0  0  0  0
 11 20  1  0  0  0  0
 12  8  1  0  0  0  0
 14  3  2  0  0  0  0
 14 10  1  0  0  0  0
 15 13  1  0  0  0  0
 16  6  1  0  0  0  0
 17  2  2  0  0  0  0
 18 14  1  0  0  0  0
 19 13  2  0  0  0  0
 20 10  1  0  0  0  0
 20  1  1  0  0  0  0
 22 21  1  0  0  0  0
 22 25  1  0  0  0  0
 23 26  1  0  0  0  0
 24 22  2  0  0  0  0
 26 25  2  0  0  0  0
 27 23  1  0  0  0  0
 28 24  1  0  0  0  0
 28 23  2  0  0  0  0
M  END
>  <MODEL>
1

>  <REMARK>
 VINA RESULT:      -8.3      0.000      0.000
  Name = 
  2 active torsions:
  status: ('A' for Active; 'I' for Inactive)
    1  A    between atoms: C_1  and  C_2
    2  A    between atoms: C_2  and  C_3
                            x       y       z     vdW  Elec       q    Type
                         _______ _______ _______ _____ _____    ______ ____

>  <TORSDO>
F 2

$$$$
=
 OpenBabel11052418123D

 28 32  0  0  1  0  0  0  0  0999 V2000
  187.4800  177.1790  144.3220 C   0  0  1  0  0  3  0  0  0  0  0  0
  189.0760  172.4390  142.6030 C   0  0  0  0  0  3  0  0  0  0  0  0
  186.9680  177.2410  139.4680 O   0  0  0  0  0  0  0  0  0  0  0  0
  189.4880  173.0150  140.2860 C   0  0  0  0  0  0  0  0  0  0  0  0
  187.9160  174.4700  141.6550 C   0  0  1  0  0  3  0  0  0  0  0  0
  190.6180  171.1200  141.2840 C   0  0  0  0  0  0  0  0  0  0  0  0
  188.8480  173.2880  141.5090 C   0  0  0  0  0  0  0  0  0  0  0  0
  188.0570  174.6960  139.1220 C   0  0  0  0  0  2  0  0  0  0  0  0
  190.3810  171.9440  140.1810 C   0  0  0  0  0  3  0  0  0  0  0  0
  186.9760  177.1710  141.8430 C   0  0  0  0  0  0  0  0  0  0  0  0
  188.3390  175.3200  142.8600 C   0  0  0  0  0  2  0  0  0  0  0  0
  189.2180  173.8220  139.1420 N   0  0  0  0  0  2  0  0  0  0  0  0
  185.8620  178.7660  143.3090 C   0  0  0  0  0  3  0  0  0  0  0  0
  187.2560  176.6010  140.5170 C   0  0  0  0  0  0  0  0  0  0  0  0
  186.1950  178.2480  141.9750 C   0  0  0  0  0  3  0  0  0  0  0  0
  191.5040  170.0560  141.1770 O   0  0  0  0  0  1  0  0  0  0  0  0
  189.9580  171.3610  142.4910 C   0  0  0  0  0  3  0  0  0  0  0  0
  187.8630  175.3020  140.4380 N   0  0  0  0  0  0  0  0  0  0  0  0
  186.4270  178.2560  144.4040 C   0  0  0  0  0  3  0  0  0  0  0  0
  187.4970  176.5080  143.0120 N   0  0  0  0  0  0  0  0  0  0  0  0
  188.8650  177.7330  144.6930 C   0  0  0  0  0  2  0  0  0  0  0  0
  189.5710  176.9190  145.7320 C   0  0  0  0  0  0  0  0  0  0  0  0
  190.8810  175.4330  147.7090 C   0  0  0  0  0  0  0  0  0  0  0  0
  188.8750  175.9380  146.4490 C   0  0  0  0  0  3  0  0  0  0  0  0
  190.9230  177.1520  146.0050 C   0  0  0  0  0  3  0  0  0  0  0  0
  191.5780  176.4100  146.9920 C   0  0  0  0  0  3  0  0  0  0  0  0
  191.5150  174.7140  148.6660 F   0  0  0  0  0  0  0  0  0  0  0  0
  189.5300  175.1960  147.4370 C   0  0  0  0  0  3  0  0  0  0  0  0
  1 19  1  0  0  0  0
  1 21  1  6  0  0  0
  3 14  2  0  0  0  0
  4  7  1  0  0  0  0
  5 11  1  1  0  0  0
  6 17  2  0  0  0  0
  7  5  1  0  0  0  0
  7  2  2  0  0  0  0
  8 12  1  0  0  0  0
  8 18  1  0  0  0  0
  9  4  2  0  0  0  0
  9  6  1  0  0  0  0
 10 15  2  0  0  0  0
 10 20  1  0  0  0  0
 11 20  1  0  0  0  0
 12  4  1  0  0  0  0
 13 19  2  0  0  0  0
 14 10  1  0  0  0  0
 15 13  1  0  0  0  0
 16  6  1  0  0  0  0
 17  2  1  0  0  0  0
 18 14  1  0  0  0  0
 18  5  1  0  0  0  0
 20  1  1  0  0  0  0
 21 22  1  0  0  0  0
 22 25  2  0  0  0  0
 22 24  1  0  0  0  0
 23 27  1  0  0  0  0
 24 28  2  0  0  0  0
 25 26  1  0  0  0  0
 26 23  2  0  0  0  0
 28 23  1  0  0  0  0
M  END
>  <MODEL>
2

>  <REMARK>
 VINA RESULT:      -7.8      3.185      5.281
  Name = 
  2 active torsions:
  status: ('A' for Active; 'I' for Inactive)
    1  A    between atoms: C_1  and  C_2
    2  A    between atoms: C_2  and  C_3
                            x       y       z     vdW  Elec       q    Type
                         _______ _______ _______ _____ _____    ______ ____

>  <TORSDO>
F 2

$$$$
=
 OpenBabel11052418123D

 28 32  0  0  1  0  0  0  0  0999 V2000
  191.8220  175.0560  146.1280 C   0  0  1  0  0  3  0  0  0  0  0  0
  189.6600  172.6670  141.9340 C   0  0  0  0  0  3  0  0  0  0  0  0
  188.2220  177.9750  144.5980 O   0  0  0  0  0  0  0  0  0  0  0  0
  188.5620  174.5900  140.9500 C   0  0  0  0  0  0  0  0  0  0  0  0
  189.1480  174.6390  143.4230 C   0  0  1  0  0  3  0  0  0  0  0  0
  189.1460  172.6880  139.5690 C   0  0  0  0  0  0  0  0  0  0  0  0
  189.1250  173.9570  142.0740 C   0  0  0  0  0  0  0  0  0  0  0  0
  187.5960  176.3780  142.3970 C   0  0  0  0  0  2  0  0  0  0  0  0
  188.5890  173.9630  139.7010 C   0  0  0  0  0  3  0  0  0  0  0  0
  189.8210  176.4770  145.5180 C   0  0  0  0  0  0  0  0  0  0  0  0
  190.5770  174.6350  143.9830 C   0  0  0  0  0  2  0  0  0  0  0  0
  187.9500  175.8700  141.0830 N   0  0  0  0  0  2  0  0  0  0  0  0
  190.8080  176.6500  147.7380 C   0  0  0  0  0  3  0  0  0  0  0  0
  188.8500  176.8850  144.4920 C   0  0  0  0  0  0  0  0  0  0  0  0
  189.8830  177.1100  146.6930 C   0  0  0  0  0  3  0  0  0  0  0  0
  189.1700  172.0670  138.3280 O   0  0  0  0  0  1  0  0  0  0  0  0
  189.6730  172.0360  140.6870 C   0  0  0  0  0  3  0  0  0  0  0  0
  188.6270  176.0190  143.3680 N   0  0  0  0  0  0  0  0  0  0  0  0
  191.6870  175.6760  147.4960 C   0  0  0  0  0  3  0  0  0  0  0  0
  190.6610  175.3330  145.2670 N   0  0  0  0  0  0  0  0  0  0  0  0
  193.1390  175.4800  145.4590 C   0  0  0  0  0  2  0  0  0  0  0  0
  194.2230  174.4540  145.5770 C   0  0  0  0  0  0  0  0  0  0  0  0
  196.2430  172.5360  145.8480 C   0  0  0  0  0  0  0  0  0  0  0  0
  193.9190  173.0940  145.4560 C   0  0  0  0  0  3  0  0  0  0  0  0
  195.5400  174.8530  145.8320 C   0  0  0  0  0  3  0  0  0  0  0  0
  196.5490  173.8950  145.9670 C   0  0  0  0  0  3  0  0  0  0  0  0
  197.2200  171.6080  145.9800 F   0  0  0  0  0  0  0  0  0  0  0  0
  194.9280  172.1350  145.5910 C   0  0  0  0  0  3  0  0  0  0  0  0
  1 21  1  6  0  0  0
  1 19  1  0  0  0  0
  2  7  1  0  0  0  0
  4 12  1  0  0  0  0
  4  7  2  0  0  0  0
  5 11  1  6  0  0  0
  6  9  2  0  0  0  0
  6 17  1  0  0  0  0
  7  5  1  0  0  0  0
  8 18  1  0  0  0  0
  9  4  1  0  0  0  0
 10 15  2  0  0  0  0
 11 20  1  0  0  0  0
 12  8  1  0  0  0  0
 14  3  2  0  0  0  0
 14 10  1  0  0  0  0
 15 13  1  0  0  0  0
 16  6  1  0  0  0  0
 17  2  2  0  0  0  0
 18  5  1  0  0  0  0
 18 14  1  0  0  0  0
 19 13  2  0  0  0  0
 20 10  1  0  0  0  0
 20  1  1  0  0  0  0
 21 22  1  0  0  0  0
 22 25  1  0  0  0  0
 23 26  1  0  0  0  0
 23 27  1  0  0  0  0
 24 22  2  0  0  0  0
 24 28  1  0  0  0  0
 25 26  2  0  0  0  0
 28 23  2  0  0  0  0
M  END
>  <MODEL>
3

>  <REMARK>
 VINA RESULT:      -7.7      3.909      6.386
  Name = 
  2 active torsions:
  status: ('A' for Active; 'I' for Inactive)
    1  A    between atoms: C_1  and  C_2
    2  A    between atoms: C_2  and  C_3
                            x       y       z     vdW  Elec       q    Type
                         _______ _______ _______ _____ _____    ______ ____

>  <TORSDO>
F 2

$$$$
=
 OpenBabel11052418123D

 28 32  0  0  1  0  0  0  0  0999 V2000
  187.8750  177.3330  146.6740 C   0  0  1  0  0  3  0  0  0  0  0  0
  188.3630  174.1160  142.5050 C   0  0  0  0  0  3  0  0  0  0  0  0
  185.2310  179.3300  143.0890 O   0  0  0  0  0  0  0  0  0  0  0  0
  187.7050  175.6730  140.7680 C   0  0  0  0  0  0  0  0  0  0  0  0
  186.9690  176.1150  143.1610 C   0  0  1  0  0  3  0  0  0  0  0  0
  189.0990  173.7680  140.2250 C   0  0  0  0  0  0  0  0  0  0  0  0
  187.6950  175.2890  142.1220 C   0  0  0  0  0  0  0  0  0  0  0  0
  185.9610  177.4030  141.2090 C   0  0  0  0  0  2  0  0  0  0  0  0
  188.4190  174.9220  139.8290 C   0  0  0  0  0  3  0  0  0  0  0  0
  186.3070  178.2740  144.9260 C   0  0  0  0  0  0  0  0  0  0  0  0
  187.9200  176.4430  144.3210 C   0  0  0  0  0  2  0  0  0  0  0  0
  186.9750  176.8220  140.3460 N   0  0  0  0  0  2  0  0  0  0  0  0
  186.0290  178.8830  147.2690 C   0  0  0  0  0  3  0  0  0  0  0  0
  185.9400  178.3720  143.5060 C   0  0  0  0  0  0  0  0  0  0  0  0
  185.7070  179.0390  145.8430 C   0  0  0  0  0  3  0  0  0  0  0  0
  189.8050  173.0240  139.2900 O   0  0  0  0  0  1  0  0  0  0  0  0
  189.0640  173.3600  141.5610 C   0  0  0  0  0  3  0  0  0  0  0  0
  186.4020  177.3570  142.6020 N   0  0  0  0  0  0  0  0  0  0  0  0
  187.0100  178.0700  147.6650 C   0  0  0  0  0  3  0  0  0  0  0  0
  187.2770  177.2870  145.3300 N   0  0  0  0  0  0  0  0  0  0  0  0
  189.2960  177.9180  146.6420 C   0  0  0  0  0  2  0  0  0  0  0  0
  190.3660  176.8730  146.5700 C   0  0  0  0  0  0  0  0  0  0  0  0
  192.4000  174.9540  146.4510 C   0  0  0  0  0  0  0  0  0  0  0  0
  190.5760  176.0060  147.6480 C   0  0  0  0  0  3  0  0  0  0  0  0
  191.1740  176.7760  145.4320 C   0  0  0  0  0  3  0  0  0  0  0  0
  192.1900  175.8180  145.3730 C   0  0  0  0  0  3  0  0  0  0  0  0
  193.3850  174.0260  146.3950 F   0  0  0  0  0  0  0  0  0  0  0  0
  191.5920  175.0470  147.5890 C   0  0  0  0  0  3  0  0  0  0  0  0
  1 21  1  6  0  0  0
  1 19  1  0  0  0  0
  3 14  2  0  0  0  0
  4  7  2  0  0  0  0
  5 11  1  1  0  0  0
  6 17  1  0  0  0  0
  7  2  1  0  0  0  0
  7  5  1  0  0  0  0
  8 18  1  0  0  0  0
  9  6  2  0  0  0  0
  9  4  1  0  0  0  0
 10 20  1  0  0  0  0
 10 15  2  0  0  0  0
 11 20  1  0  0  0  0
 12  4  1  0  0  0  0
 12  8  1  0  0  0  0
 13 19  2  0  0  0  0
 14 10  1  0  0  0  0
 15 13  1  0  0  0  0
 16  6  1  0  0  0  0
 17  2  2  0  0  0  0
 18  5  1  0  0  0  0
 18 14  1  0  0  0  0
 20  1  1  0  0  0  0
 22 21  1  0  0  0  0
 22 24  1  0  0  0  0
 23 28  1  0  0  0  0
 25 22  2  0  0  0  0
 26 25  1  0  0  0  0
 26 23  2  0  0  0  0
 27 23  1  0  0  0  0
 28 24  2  0  0  0  0
M  END
>  <MODEL>
4

>  <REMARK>
 VINA RESULT:      -7.7      3.425      5.652
  Name = 
  2 active torsions:
  status: ('A' for Active; 'I' for Inactive)
    1  A    between atoms: C_1  and  C_2
    2  A    between atoms: C_2  and  C_3
                            x       y       z     vdW  Elec       q    Type
                         _______ _______ _______ _____ _____    ______ ____

>  <TORSDO>
F 2

$$$$
=
 OpenBabel11052418123D

 28 32  0  0  1  0  0  0  0  0999 V2000
  187.8660  176.4780  141.7580 C   0  0  1  0  0  3  0  0  0  0  0  0
  192.5860  176.6330  144.1400 C   0  0  0  0  0  3  0  0  0  0  0  0
  187.0190  177.7760  146.3860 O   0  0  0  0  0  0  0  0  0  0  0  0
  191.8350  176.4770  146.4390 C   0  0  0  0  0  0  0  0  0  0  0  0
  190.2110  177.3050  144.6670 C   0  0  1  0  0  3  0  0  0  0  0  0
  194.0790  175.7860  145.8450 C   0  0  0  0  0  0  0  0  0  0  0  0
  191.5680  176.7910  145.0930 C   0  0  0  0  0  0  0  0  0  0  0  0
  189.6930  177.5410  147.1490 C   0  0  0  0  0  2  0  0  0  0  0  0
  193.0810  175.9610  146.8070 C   0  0  0  0  0  3  0  0  0  0  0  0
  187.4070  177.3810  144.0760 C   0  0  0  0  0  0  0  0  0  0  0  0
  189.6740  176.4540  143.5070 C   0  0  0  0  0  2  0  0  0  0  0  0
  190.8390  176.6950  147.4350 N   0  0  0  0  0  2  0  0  0  0  0  0
  185.7840  177.7200  142.2910 C   0  0  0  0  0  3  0  0  0  0  0  0
  187.8480  177.5080  145.4720 C   0  0  0  0  0  0  0  0  0  0  0  0
  186.1890  177.7840  143.7020 C   0  0  0  0  0  3  0  0  0  0  0  0
  195.3160  175.2750  146.2150 O   0  0  0  0  0  1  0  0  0  0  0  0
  193.8350  176.1310  144.5140 C   0  0  0  0  0  3  0  0  0  0  0  0
  189.2390  177.3240  145.7770 N   0  0  0  0  0  0  0  0  0  0  0  0
  186.5690  177.1470  141.3770 C   0  0  0  0  0  3  0  0  0  0  0  0
  188.3360  176.8810  143.0940 N   0  0  0  0  0  0  0  0  0  0  0  0
  187.7570  174.9510  141.6310 C   0  0  0  0  0  2  0  0  0  0  0  0
  188.6330  174.3800  140.5600 C   0  0  0  0  0  0  0  0  0  0  0  0
  190.2540  173.2670  138.5680 C   0  0  0  0  0  0  0  0  0  0  0  0
  188.1910  174.3500  139.2320 C   0  0  0  0  0  3  0  0  0  0  0  0
  189.8880  173.8550  140.8880 C   0  0  0  0  0  3  0  0  0  0  0  0
  190.6970  173.2980  139.8930 C   0  0  0  0  0  3  0  0  0  0  0  0
  191.0370  172.7270  137.6040 F   0  0  0  0  0  0  0  0  0  0  0  0
  189.0010  173.7930  138.2370 C   0  0  0  0  0  3  0  0  0  0  0  0
  1 21  1  1  0  0  0
  1 20  1  0  0  0  0
  2 17  2  0  0  0  0
  2  7  1  0  0  0  0
  4  9  1  0  0  0  0
  4 12  1  0  0  0  0
  5 11  1  6  0  0  0
  5  7  1  0  0  0  0
  5 18  1  0  0  0  0
  6 16  1  0  0  0  0
  6  9  2  0  0  0  0
  7  4  2  0  0  0  0
  8 12  1  0  0  0  0
 10 14  1  0  0  0  0
 13 15  1  0  0  0  0
 14 18  1  0  0  0  0
 14  3  2  0  0  0  0
 15 10  2  0  0  0  0
 17  6  1  0  0  0  0
 18  8  1  0  0  0  0
 19  1  1  0  0  0  0
 19 13  2  0  0  0  0
 20 11  1  0  0  0  0
 20 10  1  0  0  0  0
 22 25  1  0  0  0  0
 22 21  1  0  0  0  0
 23 26  1  0  0  0  0
 24 22  2  0  0  0  0
 26 25  2  0  0  0  0
 27 23  1  0  0  0  0
 28 23  2  0  0  0  0
 28 24  1  0  0  0  0
M  END
>  <MODEL>
5

>  <REMARK>
 VINA RESULT:      -7.5      3.766      7.255
  Name = 
  2 active torsions:
  status: ('A' for Active; 'I' for Inactive)
    1  A    between atoms: C_1  and  C_2
    2  A    between atoms: C_2  and  C_3
                            x       y       z     vdW  Elec       q    Type
                         _______ _______ _______ _____ _____    ______ ____

>  <TORSDO>
F 2

$$$$
=
 OpenBabel11052418123D

 28 32  0  0  1  0  0  0  0  0999 V2000
  190.5340  175.6430  144.9400 C   0  0  1  0  0  3  0  0  0  0  0  0
  186.3880  176.7910  141.8620 C   0  0  0  0  0  3  0  0  0  0  0  0
  186.8040  176.5520  147.9540 O   0  0  0  0  0  0  0  0  0  0  0  0
  185.0270  177.9400  143.5050 C   0  0  0  0  0  0  0  0  0  0  0  0
  186.8230  176.3290  144.3050 C   0  0  1  0  0  3  0  0  0  0  0  0
  184.7130  178.3830  141.1440 C   0  0  0  0  0  0  0  0  0  0  0  0
  186.0650  177.0380  143.2050 C   0  0  0  0  0  0  0  0  0  0  0  0
  185.0460  177.2230  145.8950 C   0  0  0  0  0  2  0  0  0  0  0  0
  184.3670  178.6200  142.4770 C   0  0  0  0  0  3  0  0  0  0  0  0
  188.5770  175.8710  146.5260 C   0  0  0  0  0  0  0  0  0  0  0  0
  188.3320  176.5360  144.1140 C   0  0  0  0  0  2  0  0  0  0  0  0
  184.6350  178.1540  144.8580 N   0  0  0  0  0  2  0  0  0  0  0  0
  190.5870  174.6900  147.2310 C   0  0  0  0  0  3  0  0  0  0  0  0
  187.2320  176.4110  146.7750 C   0  0  0  0  0  0  0  0  0  0  0  0
  189.2740  175.2900  147.5070 C   0  0  0  0  0  3  0  0  0  0  0  0
  184.0550  179.0590  140.1260 O   0  0  0  0  0  1  0  0  0  0  0  0
  185.7170  177.4610  140.8360 C   0  0  0  0  0  3  0  0  0  0  0  0
  186.4150  176.7740  145.6520 N   0  0  0  0  0  0  0  0  0  0  0  0
  191.1640  174.8200  146.0350 C   0  0  0  0  0  3  0  0  0  0  0  0
  189.1080  175.9120  145.1870 N   0  0  0  0  0  0  0  0  0  0  0  0
  191.3230  176.9410  144.7030 C   0  0  0  0  0  2  0  0  0  0  0  0
  192.7790  176.7110  144.4430 C   0  0  0  0  0  0  0  0  0  0  0  0
  195.5040  176.3240  143.9320 C   0  0  0  0  0  0  0  0  0  0  0  0
  193.7320  177.0970  145.3920 C   0  0  0  0  0  3  0  0  0  0  0  0
  193.1920  176.1280  143.2400 C   0  0  0  0  0  3  0  0  0  0  0  0
  194.5530  175.9350  142.9850 C   0  0  0  0  0  3  0  0  0  0  0  0
  196.8220  176.1390  143.6850 F   0  0  0  0  0  0  0  0  0  0  0  0
  195.0930  176.9050  145.1370 C   0  0  0  0  0  3  0  0  0  0  0  0
  1 21  1  1  0  0  0
  1 20  1  0  0  0  0
  1 19  1  0  0  0  0
  2  7  1  0  0  0  0
  4 12  1  0  0  0  0
  5 11  1  6  0  0  0
  5 18  1  0  0  0  0
  6  9  2  0  0  0  0
  7  4  2  0  0  0  0
  7  5  1  0  0  0  0
  9  4  1  0  0  0  0
 10 14  1  0  0  0  0
 10 15  2  0  0  0  0
 11 20  1  0  0  0  0
 12  8  1  0  0  0  0
 13 15  1  0  0  0  0
 14  3  2  0  0  0  0
 16  6  1  0  0  0  0
 17  6  1  0  0  0  0
 17  2  2  0  0  0  0
 18  8  1  0  0  0  0
 18 14  1  0  0  0  0
 19 13  2  0  0  0  0
 20 10  1  0  0  0  0
 22 21  1  0  0  0  0
 22 24  1  0  0  0  0
 23 28  1  0  0  0  0
 25 22  2  0  0  0  0
 26 25  1  0  0  0  0
 26 23  2  0  0  0  0
 27 23  1  0  0  0  0
 28 24  2  0  0  0  0
M  END
>  <MODEL>
6

>  <REMARK>
 VINA RESULT:      -7.5      4.247      6.911
  Name = 
  2 active torsions:
  status: ('A' for Active; 'I' for Inactive)
    1  A    between atoms: C_1  and  C_2
    2  A    between atoms: C_2  and  C_3
                            x       y       z     vdW  Elec       q    Type
                         _______ _______ _______ _____ _____    ______ ____

>  <TORSDO>
F 2

$$$$
=
 OpenBabel11052418123D

 28 32  0  0  1  0  0  0  0  0999 V2000
  189.5250  176.8190  146.8040 C   0  0  1  0  0  3  0  0  0  0  0  0
  187.9960  177.4780  141.7840 C   0  0  0  0  0  3  0  0  0  0  0  0
  191.9580  173.4940  144.1870 O   0  0  0  0  0  0  0  0  0  0  0  0
  188.6580  175.3140  140.9190 C   0  0  0  0  0  0  0  0  0  0  0  0
  189.7610  176.1810  143.0390 C   0  0  1  0  0  3  0  0  0  0  0  0
  186.9240  176.5870  139.8070 C   0  0  0  0  0  0  0  0  0  0  0  0
  188.7850  176.3220  141.8920 C   0  0  0  0  0  0  0  0  0  0  0  0
  190.6950  174.1660  141.7920 C   0  0  0  0  0  2  0  0  0  0  0  0
  187.7190  175.4420  139.8910 C   0  0  0  0  0  3  0  0  0  0  0  0
  190.9790  175.2460  145.4590 C   0  0  0  0  0  0  0  0  0  0  0  0
  189.0340  176.4090  144.3710 C   0  0  0  0  0  2  0  0  0  0  0  0
  189.4980  174.1630  140.9680 N   0  0  0  0  0  2  0  0  0  0  0  0
  191.6530  175.9100  147.7040 C   0  0  0  0  0  3  0  0  0  0  0  0
  191.1680  174.4780  144.2200 C   0  0  0  0  0  0  0  0  0  0  0  0
  191.8070  175.0870  146.4960 C   0  0  0  0  0  3  0  0  0  0  0  0
  185.9930  176.7120  138.7840 O   0  0  0  0  0  1  0  0  0  0  0  0
  187.0690  177.6090  140.7480 C   0  0  0  0  0  3  0  0  0  0  0  0
  190.4390  174.8700  143.0470 N   0  0  0  0  0  0  0  0  0  0  0  0
  190.6170  176.7400  147.8410 C   0  0  0  0  0  3  0  0  0  0  0  0
  189.9280  176.2300  145.5170 N   0  0  0  0  0  0  0  0  0  0  0  0
  188.2220  176.1960  147.3300 C   0  0  0  0  0  2  0  0  0  0  0  0
  187.0050  177.0100  147.0130 C   0  0  0  0  0  0  0  0  0  0  0  0
  184.7580  178.5550  146.3830 C   0  0  0  0  0  0  0  0  0  0  0  0
  186.0290  176.5060  146.1460 C   0  0  0  0  0  3  0  0  0  0  0  0
  186.8540  178.2870  147.5650 C   0  0  0  0  0  3  0  0  0  0  0  0
  185.7320  179.0590  147.2500 C   0  0  0  0  0  3  0  0  0  0  0  0
  183.6710  179.3020  146.0770 F   0  0  0  0  0  0  0  0  0  0  0  0
  184.9060  177.2780  145.8310 C   0  0  0  0  0  3  0  0  0  0  0  0
  1 21  1  1  0  0  0
  1 19  1  0  0  0  0
  2  7  1  0  0  0  0
  3 14  2  0  0  0  0
  4 12  1  0  0  0  0
  4  7  2  0  0  0  0
  5 18  1  0  0  0  0
  5 11  1  1  0  0  0
  6  9  2  0  0  0  0
  6 17  1  0  0  0  0
  7  5  1  0  0  0  0
  8 18  1  0  0  0  0
  9  4  1  0  0  0  0
 10 20  1  0  0  0  0
 10 15  2  0  0  0  0
 11 20  1  0  0  0  0
 12  8  1  0  0  0  0
 13 19  2  0  0  0  0
 14 10  1  0  0  0  0
 15 13  1  0  0  0  0
 16  6  1  0  0  0  0
 17  2  2  0  0  0  0
 18 14  1  0  0  0  0
 20  1  1  0  0  0  0
 22 21  1  0  0  0  0
 22 25  1  0  0  0  0
 23 26  1  0  0  0  0
 24 22  2  0  0  0  0
 26 25  2  0  0  0  0
 27 23  1  0  0  0  0
 28 24  1  0  0  0  0
 28 23  2  0  0  0  0
M  END
>  <MODEL>
7

>  <REMARK>
 VINA RESULT:      -7.4      1.646      2.026
  Name = 
  2 active torsions:
  status: ('A' for Active; 'I' for Inactive)
    1  A    between atoms: C_1  and  C_2
    2  A    between atoms: C_2  and  C_3
                            x       y       z     vdW  Elec       q    Type
                         _______ _______ _______ _____ _____    ______ ____

>  <TORSDO>
F 2

$$$$
=
 OpenBabel11052418123D

 28 32  0  0  1  0  0  0  0  0999 V2000
  188.0800  176.6600  142.6730 C   0  0  1  0  0  3  0  0  0  0  0  0
  189.6330  173.2340  138.9560 C   0  0  0  0  0  3  0  0  0  0  0  0
  191.5810  173.9330  144.7050 O   0  0  0  0  0  0  0  0  0  0  0  0
  190.6790  171.5890  140.3950 C   0  0  0  0  0  0  0  0  0  0  0  0
  190.3950  173.9670  141.2470 C   0  0  1  0  0  3  0  0  0  0  0  0
  189.8620  170.9430  138.2090 C   0  0  0  0  0  0  0  0  0  0  0  0
  190.2310  172.9060  140.1820 C   0  0  0  0  0  0  0  0  0  0  0  0
  191.8790  172.2950  142.4660 C   0  0  0  0  0  2  0  0  0  0  0  0
  190.4790  170.6100  139.4170 C   0  0  0  0  0  3  0  0  0  0  0  0
  190.0470  175.4340  143.6860 C   0  0  0  0  0  0  0  0  0  0  0  0
  189.0430  174.6420  141.5210 C   0  0  0  0  0  2  0  0  0  0  0  0
  191.3510  171.2500  141.6060 N   0  0  0  0  0  2  0  0  0  0  0  0
  189.3390  177.5750  144.6060 C   0  0  0  0  0  3  0  0  0  0  0  0
  190.9040  174.2390  143.6850 C   0  0  0  0  0  0  0  0  0  0  0  0
  190.1490  176.3500  144.6530 C   0  0  0  0  0  3  0  0  0  0  0  0
  189.6670  169.9690  137.2390 O   0  0  0  0  0  1  0  0  0  0  0  0
  189.4480  172.2560  137.9740 C   0  0  0  0  0  3  0  0  0  0  0  0
  190.9580  173.4290  142.5010 N   0  0  0  0  0  0  0  0  0  0  0  0
  188.4010  177.7420  143.6730 C   0  0  0  0  0  3  0  0  0  0  0  0
  189.1400  175.6420  142.5850 N   0  0  0  0  0  0  0  0  0  0  0  0
  186.7100  176.0280  142.9670 C   0  0  0  0  0  2  0  0  0  0  0  0
  185.8550  176.8590  143.8720 C   0  0  0  0  0  0  0  0  0  0  0  0
  184.2960  178.4450  145.5720 C   0  0  0  0  0  0  0  0  0  0  0  0
  185.0400  177.8660  143.3410 C   0  0  0  0  0  3  0  0  0  0  0  0
  185.8860  176.6460  145.2550 C   0  0  0  0  0  3  0  0  0  0  0  0
  185.1080  177.4390  146.1040 C   0  0  0  0  0  3  0  0  0  0  0  0
  183.5420  179.2130  146.3940 F   0  0  0  0  0  0  0  0  0  0  0  0
  184.2610  178.6580  144.1900 C   0  0  0  0  0  3  0  0  0  0  0  0
  1 21  1  1  0  0  0
  1 19  1  0  0  0  0
  2  7  1  0  0  0  0
  4 12  1  0  0  0  0
  5 11  1  1  0  0  0
  5 18  1  0  0  0  0
  6  9  2  0  0  0  0
  7  4  2  0  0  0  0
  7  5  1  0  0  0  0
  8 18  1  0  0  0  0
  9  4  1  0  0  0  0
 10 15  2  0  0  0  0
 11 20  1  0  0  0  0
 12  8  1  0  0  0  0
 13 15  1  0  0  0  0
 14 10  1  0  0  0  0
 14  3  2  0  0  0  0
 16  6  1  0  0  0  0
 17  6  1  0  0  0  0
 17  2  2  0  0  0  0
 18 14  1  0  0  0  0
 19 13  2  0  0  0  0
 20  1  1  0  0  0  0
 20 10  1  0  0  0  0
 21 22  1  0  0  0  0
 22 25  1  0  0  0  0
 23 26  1  0  0  0  0
 23 27  1  0  0  0  0
 24 22  2  0  0  0  0
 24 28  1  0  0  0  0
 25 26  2  0  0  0  0
 28 23  2  0  0  0  0
M  END
>  <MODEL>
8

>  <REMARK>
 VINA RESULT:      -7.3      1.890      2.691
  Name = 
  2 active torsions:
  status: ('A' for Active; 'I' for Inactive)
    1  A    between atoms: C_1  and  C_2
    2  A    between atoms: C_2  and  C_3
                            x       y       z     vdW  Elec       q    Type
                         _______ _______ _______ _____ _____    ______ ____

>  <TORSDO>
F 2

$$$$
=
 OpenBabel11052418123D

 28 32  0  0  1  0  0  0  0  0999 V2000
  193.4210  176.3230  144.0510 C   0  0  1  0  0  3  0  0  0  0  0  0
  188.3630  177.8640  143.9150 C   0  0  0  0  0  3  0  0  0  0  0  0
  191.1870  173.4010  140.8410 O   0  0  0  0  0  0  0  0  0  0  0  0
  187.3990  175.8530  142.9660 C   0  0  0  0  0  0  0  0  0  0  0  0
  189.8740  176.3160  142.6150 C   0  0  1  0  0  3  0  0  0  0  0  0
  186.0270  177.3530  144.2830 C   0  0  0  0  0  0  0  0  0  0  0  0
  188.5180  176.6800  143.1780 C   0  0  0  0  0  0  0  0  0  0  0  0
  188.6660  174.5070  141.2900 C   0  0  0  0  0  2  0  0  0  0  0  0
  186.1630  176.1830  143.5320 C   0  0  0  0  0  3  0  0  0  0  0  0
  192.3610  174.9480  142.2100 C   0  0  0  0  0  0  0  0  0  0  0  0
  190.9250  176.3420  143.7330 C   0  0  0  0  0  2  0  0  0  0  0  0
  187.5170  174.6820  142.1620 N   0  0  0  0  0  2  0  0  0  0  0  0
  194.7810  175.2050  142.3010 C   0  0  0  0  0  3  0  0  0  0  0  0
  191.1340  174.3930  141.6210 C   0  0  0  0  0  0  0  0  0  0  0  0
  193.5640  174.5900  141.7530 C   0  0  0  0  0  3  0  0  0  0  0  0
  184.7980  177.6780  144.8420 O   0  0  0  0  0  1  0  0  0  0  0  0
  187.1230  178.1980  144.4670 C   0  0  0  0  0  3  0  0  0  0  0  0
  189.8740  174.9990  141.9470 N   0  0  0  0  0  0  0  0  0  0  0  0
  194.7210  176.0350  143.3440 C   0  0  0  0  0  3  0  0  0  0  0  0
  192.2470  175.9440  143.2460 N   0  0  0  0  0  0  0  0  0  0  0  0
  193.3920  175.6660  145.4400 C   0  0  0  0  0  2  0  0  0  0  0  0
  194.3630  174.5360  145.5820 C   0  0  0  0  0  0  0  0  0  0  0  0
  196.1900  172.4260  145.7980 C   0  0  0  0  0  0  0  0  0  0  0  0
  195.6800  174.7870  145.9830 C   0  0  0  0  0  3  0  0  0  0  0  0
  193.9610  173.2270  145.2920 C   0  0  0  0  0  3  0  0  0  0  0  0
  194.8740  172.1730  145.4000 C   0  0  0  0  0  3  0  0  0  0  0  0
  197.0750  171.4060  145.9020 F   0  0  0  0  0  0  0  0  0  0  0  0
  196.5930  173.7330  146.0910 C   0  0  0  0  0  3  0  0  0  0  0  0
  1 21  1  1  0  0  0
  2 17  1  0  0  0  0
  3 14  2  0  0  0  0
  4  7  1  0  0  0  0
  4  9  2  0  0  0  0
  5  7  1  0  0  0  0
  5 11  1  1  0  0  0
  6 17  2  0  0  0  0
  6 16  1  0  0  0  0
  7  2  2  0  0  0  0
  8 18  1  0  0  0  0
  8 12  1  0  0  0  0
  9  6  1  0  0  0  0
 10 20  1  0  0  0  0
 12  4  1  0  0  0  0
 13 19  2  0  0  0  0
 14 18  1  0  0  0  0
 14 10  1  0  0  0  0
 15 10  2  0  0  0  0
 15 13  1  0  0  0  0
 18  5  1  0  0  0  0
 19  1  1  0  0  0  0
 20 11  1  0  0  0  0
 20  1  1  0  0  0  0
 21 22  1  0  0  0  0
 22 24  1  0  0  0  0
 23 27  1  0  0  0  0
 23 28  1  0  0  0  0
 24 28  2  0  0  0  0
 25 26  1  0  0  0  0
 25 22  2  0  0  0  0
 26 23  2  0  0  0  0
M  END
>  <MODEL>
9

>  <REMARK>
 VINA RESULT:      -7.2      4.348      7.202
  Name = 
  2 active torsions:
  status: ('A' for Active; 'I' for Inactive)
    1  A    between atoms: C_1  and  C_2
    2  A    between atoms: C_2  and  C_3
                            x       y       z     vdW  Elec       q    Type
                         _______ _______ _______ _____ _____    ______ ____

>  <TORSDO>
F 2

$$$$
