=
 OpenBabel11052420143D

 34 39  0  0  1  0  0  0  0  0999 V2000
  189.5890  177.1270  145.2310 C   0  0  0  0  0  0  0  0  0  0  0  0
  187.4530  177.1920  144.0510 C   0  0  0  0  0  0  0  0  0  0  0  0
  187.4510  176.7450  146.4740 C   0  0  0  0  0  3  0  0  0  0  0  0
  192.8940  176.2910  144.7140 C   0  0  0  0  0  0  0  0  0  0  0  0
  191.7960  176.7190  144.1630 N   0  0  0  0  0  0  0  0  0  0  0  0
  191.5510  176.4630  146.4500 C   0  0  0  0  0  0  0  0  0  0  0  0
  190.8180  176.2510  147.6520 N   0  0  0  0  0  0  0  0  0  0  0  0
  192.7790  176.0640  146.1720 C   0  0  0  0  0  3  0  0  0  0  0  0
  188.8690  177.2220  146.5730 C   0  0  1  0  0  3  0  0  0  0  0  0
  190.8980  176.8600  145.2490 C   0  0  0  0  0  0  0  0  0  0  0  0
  189.5770  176.5630  147.6920 N   0  0  0  0  0  0  0  0  0  0  0  0
  186.5600  177.4470  142.8650 C   0  0  0  0  0  2  0  0  0  0  0  0
  187.3150  177.4350  141.5380 C   0  0  2  0  0  3  0  0  0  0  0  0
  188.5630  178.3010  141.6580 C   0  0  0  0  0  2  0  0  0  0  0  0
  186.7950  176.7780  145.3100 C   0  0  0  0  0  3  0  0  0  0  0  0
  189.4930  177.6850  142.6930 C   0  0  0  0  0  2  0  0  0  0  0  0
  188.7970  177.3690  143.9970 C   0  0  0  0  0  0  0  0  0  0  0  0
  186.3970  177.8930  140.4060 C   0  0  2  0  0  3  0  0  0  0  0  0
  185.0160  178.2310  140.9320 C   0  0  0  0  0  1  0  0  0  0  0  0
  186.3010  176.9190  139.4080 O   0  0  0  0  0  1  0  0  0  0  0  0
  194.1040  175.9440  143.9150 C   0  0  0  0  0  2  0  0  0  0  0  0
  196.7620  173.8150  145.5000 N   0  0  0  0  0  0  0  0  0  0  0  0
  194.1650  173.5280  144.5740 C   0  0  0  0  0  3  0  0  0  0  0  0
  196.2320  170.2500  146.1950 C   0  0  0  0  0  0  0  0  0  0  0  0
  196.8490  171.5060  146.1160 C   0  0  0  0  0  3  0  0  0  0  0  0
  196.1620  172.5970  145.5780 C   0  0  0  0  0  0  0  0  0  0  0  0
  194.2230  171.1820  145.1870 C   0  0  0  0  0  3  0  0  0  0  0  0
  194.8400  172.4320  145.1110 C   0  0  0  0  0  0  0  0  0  0  0  0
  194.9180  170.0960  145.7280 C   0  0  0  0  0  3  0  0  0  0  0  0
  194.8030  174.7700  144.5120 C   0  0  0  0  0  0  0  0  0  0  0  0
  196.1160  174.8930  144.9780 C   0  0  0  0  0  3  0  0  0  0  0  0
  196.9620  169.1050  146.7630 C   0  0  0  0  0  0  0  0  0  0  0  0
  196.7070  168.7000  147.9280 O   0  0  0  0  0  1  0  0  0  0  0  0
  197.9410  168.4590  146.0170 O   0  0  0  0  0  0  0  0  0  0  0  0
  1 10  2  0  0  0  0
  1  9  1  0  0  0  0
  2 15  1  0  0  0  0
  4  8  1  0  0  0  0
  5  4  2  0  0  0  0
  5 10  1  0  0  0  0
  6  7  1  0  0  0  0
  7 11  2  0  0  0  0
  8  6  2  0  0  0  0
  9  3  1  6  0  0  0
  9 11  1  0  0  0  0
 10  6  1  0  0  0  0
 12  2  1  0  0  0  0
 13 18  1  6  0  0  0
 13 14  1  0  0  0  0
 13 12  1  0  0  0  0
 14 16  1  0  0  0  0
 15  3  2  0  0  0  0
 16 17  1  0  0  0  0
 17  2  2  0  0  0  0
 17  1  1  0  0  0  0
 18 19  1  1  0  0  0
 20 18  1  0  0  0  0
 21 30  1  0  0  0  0
 21  4  1  0  0  0  0
 22 26  1  0  0  0  0
 23 28  1  0  0  0  0
 24 32  1  0  0  0  0
 25 24  1  0  0  0  0
 26 25  2  0  0  0  0
 27 29  1  0  0  0  0
 28 27  2  0  0  0  0
 28 26  1  0  0  0  0
 29 24  2  0  0  0  0
 30 23  2  0  0  0  0
 30 31  1  0  0  0  0
 31 22  2  0  0  0  0
 32 33  1  0  0  0  0
 34 32  2  0  0  0  0
M  END
>  <MODEL>
1

>  <REMARK>
 VINA RESULT:      -8.8      0.000      0.000
  Name = 
  4 active torsions:
  status: ('A' for Active; 'I' for Inactive)
    1  A    between atoms: C_3  and  C_25
    2  A    between atoms: C_7  and  C_11
    3  A    between atoms: C_8  and  C_18
    4  A    between atoms: C_18  and  C_30
                            x       y       z     vdW  Elec       q    Type
                         _______ _______ _______ _____ _____    ______ ____

>  <TORSDO>
F 4

$$$$
=
 OpenBabel11052420143D

 34 39  0  0  1  0  0  0  0  0999 V2000
  186.0330  177.8580  144.4820 C   0  0  0  0  0  0  0  0  0  0  0  0
  185.4900  177.7500  142.1040 C   0  0  0  0  0  0  0  0  0  0  0  0
  183.9010  178.8540  143.6300 C   0  0  0  0  0  3  0  0  0  0  0  0
  187.6910  176.0690  146.9190 C   0  0  0  0  0  0  0  0  0  0  0  0
  187.6240  176.3460  145.6500 N   0  0  0  0  0  0  0  0  0  0  0  0
  186.0870  177.5760  146.8670 C   0  0  0  0  0  0  0  0  0  0  0  0
  184.8860  178.3180  147.0530 N   0  0  0  0  0  0  0  0  0  0  0  0
  186.6950  176.7930  147.7400 C   0  0  0  0  0  2  0  0  0  0  0  0
  184.9530  178.9130  144.6970 C   0  0  0  0  0  0  0  0  0  0  0  0
  186.6090  177.3310  145.5660 C   0  0  0  0  0  0  0  0  0  0  0  0
  184.3470  178.8970  146.0460 N   0  0  0  0  0  0  0  0  0  0  0  0
  185.7790  177.4670  140.6530 C   0  0  0  0  0  2  0  0  0  0  0  0
  186.9220  176.4750  140.4560 C   0  0  2  0  0  3  0  0  0  0  0  0
  188.1040  176.8860  141.3240 C   0  0  0  0  0  2  0  0  0  0  0  0
  184.1760  178.3530  142.4220 C   0  0  0  0  0  3  0  0  0  0  0  0
  187.6970  176.7960  142.7880 C   0  0  0  0  0  2  0  0  0  0  0  0
  186.3980  177.5100  143.0830 C   0  0  0  0  0  0  0  0  0  0  0  0
  187.2920  176.3840  138.9770 C   0  0  2  0  0  3  0  0  0  0  0  0
  186.1070  176.7400  138.1000 C   0  0  0  0  0  1  0  0  0  0  0  0
  187.7580  175.1080  138.6500 O   0  0  0  0  0  1  0  0  0  0  0  0
  188.6020  175.0190  147.4580 C   0  0  0  0  0  2  0  0  0  0  0  0
  191.3030  174.2130  144.9760 N   0  0  0  0  0  0  0  0  0  0  0  0
  190.9480  175.8530  147.1830 C   0  0  0  0  0  3  0  0  0  0  0  0
  194.6150  175.7880  145.1330 C   0  0  0  0  0  0  0  0  0  0  0  0
  193.5520  174.9780  144.7080 C   0  0  0  0  0  3  0  0  0  0  0  0
  192.3330  175.0000  145.3890 C   0  0  0  0  0  0  0  0  0  0  0  0
  193.2270  176.6480  146.9380 C   0  0  0  0  0  3  0  0  0  0  0  0
  192.1710  175.8410  146.5100 C   0  0  0  0  0  0  0  0  0  0  0  0
  194.4440  176.6210  146.2500 C   0  0  0  0  0  3  0  0  0  0  0  0
  189.9050  175.0390  146.7340 C   0  0  0  0  0  0  0  0  0  0  0  0
  190.1060  174.2140  145.6230 C   0  0  0  0  0  3  0  0  0  0  0  0
  195.8970  175.7600  144.4120 C   0  0  0  0  0  0  0  0  0  0  0  0
  196.6610  174.7630  144.5060 O   0  0  0  0  0  1  0  0  0  0  0  0
  196.2790  176.8370  143.6200 O   0  0  0  0  0  0  0  0  0  0  0  0
  1  9  1  0  0  0  0
  1 10  1  0  0  0  0
  2 15  2  0  0  0  0
  2 17  1  0  0  0  0
  3  9  2  0  0  0  0
  4 21  1  0  0  0  0
  4  8  1  0  0  0  0
  5  4  2  0  0  0  0
  6  7  1  0  0  0  0
  6  8  1  0  0  0  0
  9 11  1  0  0  0  0
 10  5  1  0  0  0  0
 10  6  2  0  0  0  0
 11  7  2  0  0  0  0
 12  2  1  0  0  0  0
 13 18  1  6  0  0  0
 13 12  1  0  0  0  0
 13 14  1  0  0  0  0
 14 16  1  0  0  0  0
 15  3  1  0  0  0  0
 16 17  1  0  0  0  0
 17  1  2  0  0  0  0
 18 19  1  6  0  0  0
 20 18  1  0  0  0  0
 22 26  2  0  0  0  0
 22 31  1  0  0  0  0
 24 29  1  0  0  0  0
 25 24  2  0  0  0  0
 25 26  1  0  0  0  0
 26 28  1  0  0  0  0
 28 27  1  0  0  0  0
 28 23  2  0  0  0  0
 29 27  2  0  0  0  0
 30 23  1  0  0  0  0
 30 21  1  0  0  0  0
 31 30  2  0  0  0  0
 32 33  1  0  0  0  0
 32 24  1  0  0  0  0
 34 32  2  0  0  0  0
M  END
>  <MODEL>
2

>  <REMARK>
 VINA RESULT:      -8.8      3.254      5.043
  Name = 
  4 active torsions:
  status: ('A' for Active; 'I' for Inactive)
    1  A    between atoms: C_3  and  C_25
    2  A    between atoms: C_7  and  C_11
    3  A    between atoms: C_8  and  C_18
    4  A    between atoms: C_18  and  C_30
                            x       y       z     vdW  Elec       q    Type
                         _______ _______ _______ _____ _____    ______ ____

>  <TORSDO>
F 4

$$$$
=
 OpenBabel11052420143D

 34 39  0  0  1  0  0  0  0  0999 V2000
  195.1810  173.8340  144.6550 C   0  0  0  0  0  0  0  0  0  0  0  0
  196.7400  172.0340  145.1940 C   0  0  0  0  0  0  0  0  0  0  0  0
  197.6490  174.2100  144.4800 C   0  0  0  0  0  3  0  0  0  0  0  0
  192.0190  174.3250  143.3690 C   0  0  0  0  0  0  0  0  0  0  0  0
  192.7970  173.5150  144.0260 N   0  0  0  0  0  2  0  0  0  0  0  0
  193.8630  175.5140  143.5530 C   0  0  0  0  0  0  0  0  0  0  0  0
  194.9920  176.3500  143.3250 N   0  0  0  0  0  0  0  0  0  0  0  0
  192.6680  175.6020  142.9980 C   0  0  0  0  0  3  0  0  0  0  0  0
  196.3150  174.8540  144.7100 C   0  0  0  0  0  0  0  0  0  0  0  0
  194.0010  174.2460  144.1840 C   0  0  0  0  0  0  0  0  0  0  0  0
  196.1250  176.0230  143.8240 N   0  0  0  0  0  0  0  0  0  0  0  0
  197.1210  170.6760  145.7220 C   0  0  0  0  0  2  0  0  0  0  0  0
  195.9520  169.6950  145.7410 C   0  0  2  0  0  3  0  0  0  0  0  0
  194.7400  170.3640  146.3780 C   0  0  0  0  0  2  0  0  0  0  0  0
  197.8420  172.9150  144.7490 C   0  0  0  0  0  3  0  0  0  0  0  0
  194.3100  171.5360  145.5070 C   0  0  0  0  0  2  0  0  0  0  0  0
  195.4530  172.4620  145.1600 C   0  0  0  0  0  0  0  0  0  0  0  0
  196.3530  168.4110  146.4650 C   0  0  2  0  0  3  0  0  0  0  0  0
  195.5060  168.2050  147.7070 C   0  0  0  0  0  1  0  0  0  0  0  0
  197.7070  168.4270  146.8110 O   0  0  0  0  0  1  0  0  0  0  0  0
  190.6510  173.9320  142.9270 C   0  0  0  0  0  2  0  0  0  0  0  0
  188.0990  176.6870  142.9770 N   0  0  0  0  0  0  0  0  0  0  0  0
  189.3610  175.0070  144.7860 C   0  0  0  0  0  3  0  0  0  0  0  0
  186.5670  177.8550  146.1020 C   0  0  0  0  0  0  0  0  0  0  0  0
  186.8730  177.7420  144.7390 C   0  0  0  0  0  3  0  0  0  0  0  0
  187.8010  176.7950  144.3010 C   0  0  0  0  0  0  0  0  0  0  0  0
  188.1340  176.0580  146.5940 C   0  0  0  0  0  3  0  0  0  0  0  0
  188.4340  175.9480  145.2360 C   0  0  0  0  0  0  0  0  0  0  0  0
  187.2020  177.0090  147.0250 C   0  0  0  0  0  3  0  0  0  0  0  0
  189.6430  174.9130  143.4200 C   0  0  0  0  0  0  0  0  0  0  0  0
  189.0010  175.7740  142.5250 C   0  0  0  0  0  3  0  0  0  0  0  0
  185.5890  178.8550  146.5580 C   0  0  0  0  0  0  0  0  0  0  0  0
  185.8210  179.5570  147.5780 O   0  0  0  0  0  1  0  0  0  0  0  0
  184.3970  179.0360  145.8650 O   0  0  0  0  0  0  0  0  0  0  0  0
  1  9  1  0  0  0  0
  1 17  2  0  0  0  0
  2 12  1  0  0  0  0
  3  9  2  0  0  0  0
  3 15  1  0  0  0  0
  4  5  1  0  0  0  0
  5 10  1  0  0  0  0
  6 10  2  0  0  0  0
  7  6  1  0  0  0  0
  7 11  2  0  0  0  0
  8  4  2  0  0  0  0
  8  6  1  0  0  0  0
 10  1  1  0  0  0  0
 11  9  1  0  0  0  0
 12 13  1  0  0  0  0
 13 14  1  0  0  0  0
 13 18  1  1  0  0  0
 15  2  2  0  0  0  0
 16 14  1  0  0  0  0
 17  2  1  0  0  0  0
 17 16  1  0  0  0  0
 18 20  1  0  0  0  0
 18 19  1  1  0  0  0
 21  4  1  0  0  0  0
 21 30  1  0  0  0  0
 22 26  1  0  0  0  0
 23 28  1  0  0  0  0
 24 32  1  0  0  0  0
 24 29  1  0  0  0  0
 25 24  2  0  0  0  0
 26 25  1  0  0  0  0
 26 28  2  0  0  0  0
 27 29  2  0  0  0  0
 28 27  1  0  0  0  0
 30 23  2  0  0  0  0
 31 22  2  0  0  0  0
 31 30  1  0  0  0  0
 32 33  1  0  0  0  0
 34 32  2  0  0  0  0
M  END
>  <MODEL>
3

>  <REMARK>
 VINA RESULT:      -8.6      2.661     10.183
  Name = 
  4 active torsions:
  status: ('A' for Active; 'I' for Inactive)
    1  A    between atoms: C_3  and  C_25
    2  A    between atoms: C_7  and  C_11
    3  A    between atoms: C_8  and  C_18
    4  A    between atoms: C_18  and  C_30
                            x       y       z     vdW  Elec       q    Type
                         _______ _______ _______ _____ _____    ______ ____

>  <TORSDO>
F 4

$$$$
=
 OpenBabel11052420143D

 34 39  0  0  1  0  0  0  0  0999 V2000
  191.7360  174.0500  144.1410 C   0  0  0  0  0  0  0  0  0  0  0  0
  191.4590  173.4310  141.7960 C   0  0  0  0  0  0  0  0  0  0  0  0
  193.7200  173.3740  142.7740 C   0  0  0  0  0  3  0  0  0  0  0  0
  190.3630  176.1250  146.5290 C   0  0  0  0  0  0  0  0  0  0  0  0
  190.1400  175.4380  145.4480 N   0  0  0  0  0  0  0  0  0  0  0  0
  192.3070  175.1430  146.2040 C   0  0  0  0  0  0  0  0  0  0  0  0
  193.6910  174.8370  146.0650 N   0  0  0  0  0  0  0  0  0  0  0  0
  191.7510  176.0110  147.0300 C   0  0  0  0  0  2  0  0  0  0  0  0
  193.1360  173.4430  144.1530 C   0  0  0  0  0  0  0  0  0  0  0  0
  191.3660  174.7710  145.2040 C   0  0  0  0  0  0  0  0  0  0  0  0
  194.0720  174.0890  145.0980 N   0  0  0  0  0  0  0  0  0  0  0  0
  190.6640  173.0960  140.5610 C   0  0  0  0  0  2  0  0  0  0  0  0
  189.2380  173.6380  140.6060 C   0  0  2  0  0  3  0  0  0  0  0  0
  188.6050  173.2870  141.9470 C   0  0  0  0  0  2  0  0  0  0  0  0
  192.9320  173.3250  141.6960 C   0  0  0  0  0  3  0  0  0  0  0  0
  189.3740  173.9920  143.0560 C   0  0  0  0  0  2  0  0  0  0  0  0
  190.8670  173.7740  142.9680 C   0  0  0  0  0  0  0  0  0  0  0  0
  188.4320  173.1000  139.4260 C   0  0  2  0  0  3  0  0  0  0  0  0
  189.1010  171.8770  138.8270 C   0  0  0  0  0  1  0  0  0  0  0  0
  188.2620  174.0780  138.4420 O   0  0  0  0  0  1  0  0  0  0  0  0
  189.3430  177.0380  147.1180 C   0  0  0  0  0  2  0  0  0  0  0  0
  185.8500  177.0180  145.7370 N   0  0  0  0  0  0  0  0  0  0  0  0
  188.4090  177.6470  144.8750 C   0  0  0  0  0  3  0  0  0  0  0  0
  185.1260  178.0170  142.2800 C   0  0  0  0  0  0  0  0  0  0  0  0
  184.9400  177.5730  143.5970 C   0  0  0  0  0  3  0  0  0  0  0  0
  186.0310  177.4510  144.4600 C   0  0  0  0  0  0  0  0  0  0  0  0
  187.5160  178.2160  142.6930 C   0  0  0  0  0  3  0  0  0  0  0  0
  187.3270  177.7750  144.0030 C   0  0  0  0  0  0  0  0  0  0  0  0
  186.4180  178.3370  141.8350 C   0  0  0  0  0  3  0  0  0  0  0  0
  188.1940  177.2070  146.1840 C   0  0  0  0  0  0  0  0  0  0  0  0
  186.8970  176.8880  146.5980 C   0  0  0  0  0  3  0  0  0  0  0  0
  183.9720  178.1430  141.3760 C   0  0  0  0  0  0  0  0  0  0  0  0
  184.1400  178.1700  140.1270 O   0  0  0  0  0  0  0  0  0  0  0  0
  182.6840  178.2340  141.8900 O   0  0  0  0  0  1  0  0  0  0  0  0
  1  9  1  0  0  0  0
  1 10  1  0  0  0  0
  2 17  1  0  0  0  0
  3  9  2  0  0  0  0
  4  8  1  0  0  0  0
  4 21  1  0  0  0  0
  5  4  2  0  0  0  0
  6  8  1  0  0  0  0
  7  6  1  0  0  0  0
  9 11  1  0  0  0  0
 10  5  1  0  0  0  0
 10  6  2  0  0  0  0
 11  7  2  0  0  0  0
 12 13  1  0  0  0  0
 12  2  1  0  0  0  0
 13 18  1  6  0  0  0
 13 14  1  0  0  0  0
 14 16  1  0  0  0  0
 15  2  2  0  0  0  0
 15  3  1  0  0  0  0
 17 16  1  0  0  0  0
 17  1  2  0  0  0  0
 18 19  1  6  0  0  0
 20 18  1  0  0  0  0
 22 31  1  0  0  0  0
 23 30  1  0  0  0  0
 24 25  2  0  0  0  0
 25 26  1  0  0  0  0
 26 22  2  0  0  0  0
 27 28  1  0  0  0  0
 28 26  1  0  0  0  0
 28 23  2  0  0  0  0
 29 24  1  0  0  0  0
 29 27  2  0  0  0  0
 30 31  2  0  0  0  0
 30 21  1  0  0  0  0
 32 34  1  0  0  0  0
 32 24  1  0  0  0  0
 33 32  2  0  0  0  0
M  END
>  <MODEL>
4

>  <REMARK>
 VINA RESULT:      -8.4      4.144      8.829
  Name = 
  4 active torsions:
  status: ('A' for Active; 'I' for Inactive)
    1  A    between atoms: C_3  and  C_25
    2  A    between atoms: C_7  and  C_11
    3  A    between atoms: C_8  and  C_18
    4  A    between atoms: C_18  and  C_30
                            x       y       z     vdW  Elec       q    Type
                         _______ _______ _______ _____ _____    ______ ____

>  <TORSDO>
F 4

$$$$
=
 OpenBabel11052420143D

 34 39  0  0  1  0  0  0  0  0999 V2000
  186.6560  177.5560  144.7090 C   0  0  0  0  0  0  0  0  0  0  0  0
  184.4300  178.3490  144.0960 C   0  0  0  0  0  0  0  0  0  0  0  0
  185.1930  178.6480  146.4200 C   0  0  0  0  0  3  0  0  0  0  0  0
  188.9180  175.0800  143.9030 C   0  0  0  0  0  0  0  0  0  0  0  0
  187.9440  175.8270  143.4710 N   0  0  0  0  0  0  0  0  0  0  0  0
  188.5230  176.3680  145.6460 C   0  0  0  0  0  0  0  0  0  0  0  0
  188.2900  176.8880  146.9500 N   0  0  0  0  0  0  0  0  0  0  0  0
  189.2960  175.3510  145.3080 C   0  0  0  0  0  3  0  0  0  0  0  0
  186.6040  178.3610  146.0040 C   0  0  1  0  0  3  0  0  0  0  0  0
  187.6620  176.6900  144.5590 C   0  0  0  0  0  0  0  0  0  0  0  0
  187.3810  177.7740  147.1170 N   0  0  0  0  0  0  0  0  0  0  0  0
  183.3190  178.6780  143.1340 C   0  0  0  0  0  2  0  0  0  0  0  0
  183.4370  177.9280  141.8100 C   0  0  2  0  0  3  0  0  0  0  0  0
  184.8610  178.0510  141.2830 C   0  0  0  0  0  2  0  0  0  0  0  0
  184.2050  178.6820  145.5210 C   0  0  0  0  0  3  0  0  0  0  0  0
  185.8090  177.3650  142.2570 C   0  0  0  0  0  2  0  0  0  0  0  0
  185.6060  177.8100  143.6870 C   0  0  0  0  0  0  0  0  0  0  0  0
  182.4030  178.4500  140.8140 C   0  0  2  0  0  3  0  0  0  0  0  0
  181.0850  178.7400  141.5050 C   0  0  0  0  0  1  0  0  0  0  0  0
  182.2030  177.5420  139.7710 O   0  0  0  0  0  1  0  0  0  0  0  0
  189.4950  173.9730  143.0890 C   0  0  0  0  0  2  0  0  0  0  0  0
  192.3190  171.8820  144.4160 N   0  0  0  0  0  0  0  0  0  0  0  0
  191.8050  174.5510  143.8680 C   0  0  0  0  0  3  0  0  0  0  0  0
  195.5170  173.3670  145.4380 C   0  0  0  0  0  0  0  0  0  0  0  0
  194.5200  172.4140  145.1840 C   0  0  0  0  0  3  0  0  0  0  0  0
  193.2860  172.8070  144.6610 C   0  0  0  0  0  0  0  0  0  0  0  0
  194.0310  175.1220  144.6420 C   0  0  0  0  0  3  0  0  0  0  0  0
  193.0420  174.1710  144.3890 C   0  0  0  0  0  0  0  0  0  0  0  0
  195.2650  174.7200  145.1650 C   0  0  0  0  0  3  0  0  0  0  0  0
  190.8310  173.5790  143.6190 C   0  0  0  0  0  0  0  0  0  0  0  0
  191.1080  172.2390  143.9080 C   0  0  0  0  0  3  0  0  0  0  0  0
  196.8140  172.9470  145.9900 C   0  0  0  0  0  0  0  0  0  0  0  0
  197.5820  173.7880  146.5300 O   0  0  0  0  0  1  0  0  0  0  0  0
  197.2080  171.6150  145.9200 O   0  0  0  0  0  0  0  0  0  0  0  0
  1  9  1  0  0  0  0
  2 15  1  0  0  0  0
  4  8  1  0  0  0  0
  5  4  2  0  0  0  0
  5 10  1  0  0  0  0
  6  7  1  0  0  0  0
  7 11  2  0  0  0  0
  8  6  2  0  0  0  0
  9  3  1  1  0  0  0
  9 11  1  0  0  0  0
 10  1  2  0  0  0  0
 10  6  1  0  0  0  0
 12  2  1  0  0  0  0
 13 18  1  6  0  0  0
 13 12  1  0  0  0  0
 14 13  1  0  0  0  0
 14 16  1  0  0  0  0
 15  3  2  0  0  0  0
 16 17  1  0  0  0  0
 17  2  2  0  0  0  0
 17  1  1  0  0  0  0
 18 19  1  1  0  0  0
 20 18  1  0  0  0  0
 21 30  1  0  0  0  0
 21  4  1  0  0  0  0
 22 26  1  0  0  0  0
 23 28  1  0  0  0  0
 24 32  1  0  0  0  0
 25 24  1  0  0  0  0
 26 25  2  0  0  0  0
 27 29  1  0  0  0  0
 28 27  2  0  0  0  0
 28 26  1  0  0  0  0
 29 24  2  0  0  0  0
 30 23  2  0  0  0  0
 30 31  1  0  0  0  0
 31 22  2  0  0  0  0
 32 33  1  0  0  0  0
 34 32  2  0  0  0  0
M  END
>  <MODEL>
5

>  <REMARK>
 VINA RESULT:      -8.3      2.596      3.749
  Name = 
  4 active torsions:
  status: ('A' for Active; 'I' for Inactive)
    1  A    between atoms: C_3  and  C_25
    2  A    between atoms: C_7  and  C_11
    3  A    between atoms: C_8  and  C_18
    4  A    between atoms: C_18  and  C_30
                            x       y       z     vdW  Elec       q    Type
                         _______ _______ _______ _____ _____    ______ ____

>  <TORSDO>
F 4

$$$$
=
 OpenBabel11052420143D

 34 39  0  0  1  0  0  0  0  0999 V2000
  193.9920  174.9990  142.7600 C   0  0  0  0  0  0  0  0  0  0  0  0
  193.2270  174.4470  140.5080 C   0  0  0  0  0  0  0  0  0  0  0  0
  195.3880  175.6010  140.7730 C   0  0  0  0  0  3  0  0  0  0  0  0
  192.7490  175.8450  145.8630 C   0  0  0  0  0  0  0  0  0  0  0  0
  192.5210  175.2040  144.7540 N   0  0  0  0  0  0  0  0  0  0  0  0
  194.6470  176.1200  144.7820 C   0  0  0  0  0  0  0  0  0  0  0  0
  195.8350  176.6370  144.1930 N   0  0  0  0  0  0  0  0  0  0  0  0
  194.0780  176.4930  145.9140 C   0  0  0  0  0  2  0  0  0  0  0  0
  195.3990  175.2670  142.2340 C   0  0  0  0  0  0  0  0  0  0  0  0
  193.7290  175.3400  144.0250 C   0  0  0  0  0  0  0  0  0  0  0  0
  196.1560  176.2740  143.0080 N   0  0  0  0  0  0  0  0  0  0  0  0
  192.3200  173.7910  139.5010 C   0  0  0  0  0  2  0  0  0  0  0  0
  190.9450  173.4510  140.0710 C   0  0  2  0  0  3  0  0  0  0  0  0
  191.1140  172.7420  141.4090 C   0  0  0  0  0  2  0  0  0  0  0  0
  194.4000  175.1790  139.9780 C   0  0  0  0  0  3  0  0  0  0  0  0
  191.7690  173.6980  142.3950 C   0  0  0  0  0  2  0  0  0  0  0  0
  193.0180  174.3470  141.8450 C   0  0  0  0  0  0  0  0  0  0  0  0
  190.1500  172.6170  139.0690 C   0  0  2  0  0  3  0  0  0  0  0  0
  188.6830  172.5650  139.4520 C   0  0  0  0  0  1  0  0  0  0  0  0
  190.6620  171.3200  138.9710 O   0  0  0  0  0  1  0  0  0  0  0  0
  191.7060  176.0110  146.9150 C   0  0  0  0  0  2  0  0  0  0  0  0
  189.3380  177.8870  144.6830 N   0  0  0  0  0  0  0  0  0  0  0  0
  189.2090  176.2120  146.8880 C   0  0  0  0  0  3  0  0  0  0  0  0
  185.7050  177.7970  145.1980 C   0  0  0  0  0  0  0  0  0  0  0  0
  186.9570  178.1090  144.6520 C   0  0  0  0  0  3  0  0  0  0  0  0
  188.1220  177.5820  145.2130 C   0  0  0  0  0  0  0  0  0  0  0  0
  186.7920  176.4180  146.8840 C   0  0  0  0  0  3  0  0  0  0  0  0
  188.0370  176.7310  146.3360 C   0  0  0  0  0  0  0  0  0  0  0  0
  185.6300  176.9500  146.3150 C   0  0  0  0  0  3  0  0  0  0  0  0
  190.4440  176.5360  146.3200 C   0  0  0  0  0  0  0  0  0  0  0  0
  190.4880  177.3880  145.2120 C   0  0  0  0  0  3  0  0  0  0  0  0
  184.4810  178.3560  144.6030 C   0  0  0  0  0  0  0  0  0  0  0  0
  183.6850  179.0400  145.3020 O   0  0  0  0  0  1  0  0  0  0  0  0
  184.1890  178.1360  143.2620 O   0  0  0  0  0  0  0  0  0  0  0  0
  1 10  1  0  0  0  0
  2 17  1  0  0  0  0
  3  9  2  0  0  0  0
  4  8  1  0  0  0  0
  4 21  1  0  0  0  0
  5  4  2  0  0  0  0
  6  8  1  0  0  0  0
  7  6  1  0  0  0  0
  9  1  1  0  0  0  0
  9 11  1  0  0  0  0
 10  5  1  0  0  0  0
 10  6  2  0  0  0  0
 11  7  2  0  0  0  0
 12 13  1  0  0  0  0
 12  2  1  0  0  0  0
 13 18  1  6  0  0  0
 13 14  1  0  0  0  0
 14 16  1  0  0  0  0
 15  2  2  0  0  0  0
 15  3  1  0  0  0  0
 17 16  1  0  0  0  0
 17  1  2  0  0  0  0
 18 19  1  1  0  0  0
 20 18  1  0  0  0  0
 22 31  2  0  0  0  0
 22 26  1  0  0  0  0
 24 29  1  0  0  0  0
 25 24  2  0  0  0  0
 25 26  1  0  0  0  0
 26 28  2  0  0  0  0
 28 27  1  0  0  0  0
 28 23  1  0  0  0  0
 29 27  2  0  0  0  0
 30 23  2  0  0  0  0
 30 21  1  0  0  0  0
 31 30  1  0  0  0  0
 32 24  1  0  0  0  0
 32 33  1  0  0  0  0
 34 32  2  0  0  0  0
M  END
>  <MODEL>
6

>  <REMARK>
 VINA RESULT:      -8.3      4.117      8.547
  Name = 
  4 active torsions:
  status: ('A' for Active; 'I' for Inactive)
    1  A    between atoms: C_3  and  C_25
    2  A    between atoms: C_7  and  C_11
    3  A    between atoms: C_8  and  C_18
    4  A    between atoms: C_18  and  C_30
                            x       y       z     vdW  Elec       q    Type
                         _______ _______ _______ _____ _____    ______ ____

>  <TORSDO>
F 4

$$$$
=
 OpenBabel11052420143D

 34 39  0  0  1  0  0  0  0  0999 V2000
  186.1980  177.3890  144.6050 C   0  0  0  0  0  0  0  0  0  0  0  0
  187.9220  177.2550  146.3280 C   0  0  0  0  0  0  0  0  0  0  0  0
  185.8020  178.3900  146.8640 C   0  0  0  0  0  3  0  0  0  0  0  0
  185.8670  177.6040  141.1800 C   0  0  0  0  0  0  0  0  0  0  0  0
  186.6060  177.1780  142.1620 N   0  0  0  0  0  0  0  0  0  0  0  0
  184.6390  178.1240  142.9310 C   0  0  0  0  0  0  0  0  0  0  0  0
  183.8080  178.7720  143.8890 N   0  0  0  0  0  0  0  0  0  0  0  0
  184.6160  178.2630  141.6180 C   0  0  0  0  0  3  0  0  0  0  0  0
  185.1610  177.7860  145.6510 C   0  0  1  0  0  3  0  0  0  0  0  0
  185.8460  177.4790  143.3190 C   0  0  0  0  0  0  0  0  0  0  0  0
  184.0750  178.6480  145.1350 N   0  0  0  0  0  0  0  0  0  0  0  0
  189.2240  176.7790  146.9170 C   0  0  0  0  0  2  0  0  0  0  0  0
  190.2170  176.3030  145.8600 C   0  0  2  0  0  3  0  0  0  0  0  0
  189.5140  175.3580  144.8940 C   0  0  0  0  0  2  0  0  0  0  0  0
  187.0660  178.1010  147.1890 C   0  0  0  0  0  3  0  0  0  0  0  0
  188.4270  176.1270  144.1550 C   0  0  0  0  0  2  0  0  0  0  0  0
  187.5170  176.8980  145.0830 C   0  0  0  0  0  0  0  0  0  0  0  0
  191.4280  175.6540  146.5280 C   0  0  2  0  0  3  0  0  0  0  0  0
  191.1920  175.4710  148.0150 C   0  0  0  0  0  1  0  0  0  0  0  0
  192.5850  176.4090  146.3200 O   0  0  0  0  0  1  0  0  0  0  0  0
  186.3160  177.5430  139.7590 C   0  0  0  0  0  2  0  0  0  0  0  0
  187.8160  174.5620  138.0350 N   0  0  0  0  0  0  0  0  0  0  0  0
  187.8160  175.7040  140.5610 C   0  0  0  0  0  3  0  0  0  0  0  0
  189.9540  172.1660  139.8140 C   0  0  0  0  0  0  0  0  0  0  0  0
  189.2300  172.7860  138.7860 C   0  0  0  0  0  3  0  0  0  0  0  0
  188.5200  173.9620  139.0340 C   0  0  0  0  0  0  0  0  0  0  0  0
  189.2500  173.9150  141.3530 C   0  0  0  0  0  3  0  0  0  0  0  0
  188.5310  174.5290  140.3260 C   0  0  0  0  0  0  0  0  0  0  0  0
  189.9590  172.7370  141.0960 C   0  0  0  0  0  3  0  0  0  0  0  0
  187.1070  176.3030  139.5170 C   0  0  0  0  0  0  0  0  0  0  0  0
  187.1150  175.7080  138.2510 C   0  0  0  0  0  3  0  0  0  0  0  0
  190.7000  170.9260  139.5460 C   0  0  0  0  0  0  0  0  0  0  0  0
  191.2280  170.7290  138.4200 O   0  0  0  0  0  0  0  0  0  0  0  0
  190.8290  169.9580  140.5360 O   0  0  0  0  0  1  0  0  0  0  0  0
  1 17  1  0  0  0  0
  1  9  1  0  0  0  0
  2 12  1  0  0  0  0
  2 15  1  0  0  0  0
  3 15  2  0  0  0  0
  4  8  1  0  0  0  0
  4  5  2  0  0  0  0
  5 10  1  0  0  0  0
  6 10  1  0  0  0  0
  6  7  1  0  0  0  0
  7 11  2  0  0  0  0
  8  6  2  0  0  0  0
  9  3  1  1  0  0  0
 10  1  2  0  0  0  0
 11  9  1  0  0  0  0
 13 18  1  1  0  0  0
 13 12  1  0  0  0  0
 14 13  1  0  0  0  0
 16 14  1  0  0  0  0
 16 17  1  0  0  0  0
 17  2  2  0  0  0  0
 18 19  1  1  0  0  0
 20 18  1  0  0  0  0
 21  4  1  0  0  0  0
 22 31  2  0  0  0  0
 22 26  1  0  0  0  0
 24 29  1  0  0  0  0
 25 26  1  0  0  0  0
 25 24  2  0  0  0  0
 26 28  2  0  0  0  0
 28 23  1  0  0  0  0
 28 27  1  0  0  0  0
 29 27  2  0  0  0  0
 30 21  1  0  0  0  0
 30 23  2  0  0  0  0
 31 30  1  0  0  0  0
 32 24  1  0  0  0  0
 32 34  1  0  0  0  0
 33 32  2  0  0  0  0
M  END
>  <MODEL>
7

>  <REMARK>
 VINA RESULT:      -8.2      5.082      7.721
  Name = 
  4 active torsions:
  status: ('A' for Active; 'I' for Inactive)
    1  A    between atoms: C_3  and  C_25
    2  A    between atoms: C_7  and  C_11
    3  A    between atoms: C_8  and  C_18
    4  A    between atoms: C_18  and  C_30
                            x       y       z     vdW  Elec       q    Type
                         _______ _______ _______ _____ _____    ______ ____

>  <TORSDO>
F 4

$$$$
=
 OpenBabel11052420143D

 34 39  0  0  1  0  0  0  0  0999 V2000
  192.1360  172.3760  143.3330 C   0  0  0  0  0  0  0  0  0  0  0  0
  191.3690  171.9580  141.0530 C   0  0  0  0  0  0  0  0  0  0  0  0
  193.3000  170.6840  141.9020 C   0  0  0  0  0  3  0  0  0  0  0  0
  192.3340  174.9190  145.6530 C   0  0  0  0  0  0  0  0  0  0  0  0
  191.6800  174.4450  144.6340 N   0  0  0  0  0  0  0  0  0  0  0  0
  193.3840  173.0200  145.2830 C   0  0  0  0  0  0  0  0  0  0  0  0
  194.3540  171.9970  145.0860 N   0  0  0  0  0  0  0  0  0  0  0  0
  193.4670  174.0690  146.0800 C   0  0  0  0  0  2  0  0  0  0  0  0
  192.9670  171.0970  143.3050 C   0  0  0  0  0  0  0  0  0  0  0  0
  192.3120  173.2060  144.3650 C   0  0  0  0  0  0  0  0  0  0  0  0
  194.1800  171.1400  144.1510 N   0  0  0  0  0  0  0  0  0  0  0  0
  190.4210  172.0890  139.8900 C   0  0  0  0  0  2  0  0  0  0  0  0
  189.5360  173.3300  139.9810 C   0  0  2  0  0  3  0  0  0  0  0  0
  188.9290  173.4180  141.3750 C   0  0  0  0  0  2  0  0  0  0  0  0
  192.5270  171.0540  140.8760 C   0  0  0  0  0  3  0  0  0  0  0  0
  190.0480  173.6070  142.3900 C   0  0  0  0  0  2  0  0  0  0  0  0
  191.1630  172.5990  142.2310 C   0  0  0  0  0  0  0  0  0  0  0  0
  188.4720  173.2990  138.8860 C   0  0  2  0  0  3  0  0  0  0  0  0
  189.0180  172.6710  137.6180 C   0  0  0  0  0  1  0  0  0  0  0  0
  187.9920  174.5830  138.6110 O   0  0  0  0  0  1  0  0  0  0  0  0
  192.0360  176.2580  146.2380 C   0  0  0  0  0  2  0  0  0  0  0  0
  189.3230  177.9690  144.2840 N   0  0  0  0  0  0  0  0  0  0  0  0
  189.5570  176.4090  146.5630 C   0  0  0  0  0  3  0  0  0  0  0  0
  185.8050  177.8360  145.3240 C   0  0  0  0  0  0  0  0  0  0  0  0
  186.9580  178.1440  144.5880 C   0  0  0  0  0  3  0  0  0  0  0  0
  188.2050  177.6690  144.9990 C   0  0  0  0  0  0  0  0  0  0  0  0
  187.1600  176.5680  146.8990 C   0  0  0  0  0  3  0  0  0  0  0  0
  188.3050  176.8760  146.1620 C   0  0  0  0  0  0  0  0  0  0  0  0
  185.9150  177.0470  146.4800 C   0  0  0  0  0  3  0  0  0  0  0  0
  190.6880  176.7270  145.8070 C   0  0  0  0  0  0  0  0  0  0  0  0
  190.5500  177.5200  144.6640 C   0  0  0  0  0  3  0  0  0  0  0  0
  184.4940  178.3400  144.8860 C   0  0  0  0  0  0  0  0  0  0  0  0
  183.6820  178.8190  145.7220 O   0  0  0  0  0  1  0  0  0  0  0  0
  184.1380  178.2930  143.5430 O   0  0  0  0  0  0  0  0  0  0  0  0
  1 10  1  0  0  0  0
  2 17  1  0  0  0  0
  3  9  2  0  0  0  0
  4  8  1  0  0  0  0
  4 21  1  0  0  0  0
  5  4  2  0  0  0  0
  6  8  1  0  0  0  0
  7  6  1  0  0  0  0
  9  1  1  0  0  0  0
  9 11  1  0  0  0  0
 10  5  1  0  0  0  0
 10  6  2  0  0  0  0
 11  7  2  0  0  0  0
 12 13  1  0  0  0  0
 12  2  1  0  0  0  0
 13 18  1  6  0  0  0
 13 14  1  0  0  0  0
 14 16  1  0  0  0  0
 15  2  2  0  0  0  0
 15  3  1  0  0  0  0
 17 16  1  0  0  0  0
 17  1  2  0  0  0  0
 18 19  1  6  0  0  0
 20 18  1  0  0  0  0
 22 31  2  0  0  0  0
 22 26  1  0  0  0  0
 24 29  1  0  0  0  0
 25 26  1  0  0  0  0
 25 24  2  0  0  0  0
 26 28  2  0  0  0  0
 28 23  1  0  0  0  0
 28 27  1  0  0  0  0
 29 27  2  0  0  0  0
 30 21  1  0  0  0  0
 30 23  2  0  0  0  0
 31 30  1  0  0  0  0
 32 24  1  0  0  0  0
 32 33  1  0  0  0  0
 34 32  2  0  0  0  0
M  END
>  <MODEL>
8

>  <REMARK>
 VINA RESULT:      -8.1      4.283      8.375
  Name = 
  4 active torsions:
  status: ('A' for Active; 'I' for Inactive)
    1  A    between atoms: C_3  and  C_25
    2  A    between atoms: C_7  and  C_11
    3  A    between atoms: C_8  and  C_18
    4  A    between atoms: C_18  and  C_30
                            x       y       z     vdW  Elec       q    Type
                         _______ _______ _______ _____ _____    ______ ____

>  <TORSDO>
F 4

$$$$
=
 OpenBabel11052420143D

 34 39  0  0  1  0  0  0  0  0999 V2000
  194.8650  174.3230  145.2320 C   0  0  0  0  0  0  0  0  0  0  0  0
  196.0120  172.4790  144.1170 C   0  0  0  0  0  0  0  0  0  0  0  0
  196.7300  174.7860  143.6290 C   0  0  0  0  0  3  0  0  0  0  0  0
  191.7610  175.1660  146.4760 C   0  0  0  0  0  0  0  0  0  0  0  0
  192.5870  174.1940  146.2210 N   0  0  0  0  0  2  0  0  0  0  0  0
  193.5350  176.2540  145.7560 C   0  0  0  0  0  0  0  0  0  0  0  0
  194.4370  177.1400  145.1020 N   0  0  0  0  0  0  0  0  0  0  0  0
  192.2990  176.5050  146.1500 C   0  0  0  0  0  3  0  0  0  0  0  0
  195.9800  175.2830  144.8280 C   0  0  0  0  0  0  0  0  0  0  0  0
  193.7590  174.8490  145.7660 C   0  0  0  0  0  0  0  0  0  0  0  0
  195.5400  176.6820  144.6420 N   0  0  0  0  0  0  0  0  0  0  0  0
  196.3430  171.0300  143.8720 C   0  0  0  0  0  2  0  0  0  0  0  0
  195.2530  170.0800  144.3620 C   0  0  2  0  0  3  0  0  0  0  0  0
  194.8490  170.4630  145.7810 C   0  0  0  0  0  2  0  0  0  0  0  0
  196.7720  173.4820  143.3370 C   0  0  0  0  0  3  0  0  0  0  0  0
  194.2350  171.8550  145.7610 C   0  0  0  0  0  2  0  0  0  0  0  0
  195.0940  172.8670  145.0370 C   0  0  0  0  0  0  0  0  0  0  0  0
  195.7330  168.6330  144.2660 C   0  0  2  0  0  3  0  0  0  0  0  0
  196.9340  168.4010  145.1640 C   0  0  0  0  0  1  0  0  0  0  0  0
  196.0510  168.2920  142.9490 O   0  0  0  0  0  1  0  0  0  0  0  0
  190.3610  174.9240  146.9280 C   0  0  0  0  0  2  0  0  0  0  0  0
  188.6170  175.3540  143.6290 N   0  0  0  0  0  0  0  0  0  0  0  0
  188.4080  176.3230  146.2180 C   0  0  0  0  0  3  0  0  0  0  0  0
  185.7690  177.6340  143.2240 C   0  0  0  0  0  0  0  0  0  0  0  0
  186.7690  176.6970  142.9250 C   0  0  0  0  0  3  0  0  0  0  0  0
  187.6460  176.2610  143.9200 C   0  0  0  0  0  0  0  0  0  0  0  0
  186.5320  177.6990  145.5340 C   0  0  0  0  0  3  0  0  0  0  0  0
  187.5250  176.7660  145.2330 C   0  0  0  0  0  0  0  0  0  0  0  0
  185.6570  178.1300  144.5320 C   0  0  0  0  0  3  0  0  0  0  0  0
  189.3930  175.3850  145.8930 C   0  0  0  0  0  0  0  0  0  0  0  0
  189.4860  174.9130  144.5800 C   0  0  0  0  0  3  0  0  0  0  0  0
  184.8490  178.0900  142.1710 C   0  0  0  0  0  0  0  0  0  0  0  0
  185.2690  178.3030  141.0030 O   0  0  0  0  0  0  0  0  0  0  0  0
  183.5030  178.2920  142.4550 O   0  0  0  0  0  1  0  0  0  0  0  0
  1 10  1  0  0  0  0
  2 17  1  0  0  0  0
  3  9  2  0  0  0  0
  4 21  1  0  0  0  0
  5  4  1  0  0  0  0
  6 10  2  0  0  0  0
  6  8  1  0  0  0  0
  7  6  1  0  0  0  0
  8  4  2  0  0  0  0
  9  1  1  0  0  0  0
 10  5  1  0  0  0  0
 11  9  1  0  0  0  0
 11  7  2  0  0  0  0
 12  2  1  0  0  0  0
 12 13  1  0  0  0  0
 13 18  1  1  0  0  0
 13 14  1  0  0  0  0
 15  3  1  0  0  0  0
 15  2  2  0  0  0  0
 16 14  1  0  0  0  0
 17  1  2  0  0  0  0
 17 16  1  0  0  0  0
 18 19  1  1  0  0  0
 20 18  1  0  0  0  0
 22 26  2  0  0  0  0
 22 31  1  0  0  0  0
 24 29  1  0  0  0  0
 25 24  2  0  0  0  0
 25 26  1  0  0  0  0
 26 28  1  0  0  0  0
 28 27  1  0  0  0  0
 28 23  2  0  0  0  0
 29 27  2  0  0  0  0
 30 23  1  0  0  0  0
 30 21  1  0  0  0  0
 31 30  2  0  0  0  0
 32 34  1  0  0  0  0
 32 24  1  0  0  0  0
 33 32  2  0  0  0  0
M  END
>  <MODEL>
9

>  <REMARK>
 VINA RESULT:      -8.0      2.084     10.020
  Name = 
  4 active torsions:
  status: ('A' for Active; 'I' for Inactive)
    1  A    between atoms: C_3  and  C_25
    2  A    between atoms: C_7  and  C_11
    3  A    between atoms: C_8  and  C_18
    4  A    between atoms: C_18  and  C_30
                            x       y       z     vdW  Elec       q    Type
                         _______ _______ _______ _____ _____    ______ ____

>  <TORSDO>
F 4

$$$$
