=
 OpenBabel11052418103D

 28 31  0  0  1  0  0  0  0  0999 V2000
  190.4660  174.9580  146.4600 C   0  0  2  0  0  0  0  0  0  0  0  0
  189.0970  176.8920  146.3310 C   0  0  1  0  0  3  0  0  0  0  0  0
  189.2750  174.0720  146.1930 C   0  0  0  0  0  2  0  0  0  0  0  0
  191.2380  176.9240  147.7750 C   0  0  0  0  0  2  0  0  0  0  0  0
  189.8930  177.6230  147.4390 C   0  0  0  0  0  2  0  0  0  0  0  0
  191.1400  175.3780  147.7640 C   0  0  0  0  0  2  0  0  0  0  0  0
  189.0190  175.4380  146.7770 C   0  0  1  0  0  3  0  0  0  0  0  0
  191.1650  175.4390  145.1490 C   0  0  2  0  0  3  0  0  0  0  0  0
  190.4890  175.0420  143.9870 O   0  0  0  0  0  1  0  0  0  0  0  0
  192.6300  175.0140  145.0760 C   0  0  0  0  0  2  0  0  0  0  0  0
  194.3210  176.0280  143.5520 C   0  0  0  0  0  1  0  0  0  0  0  0
  193.5640  176.2000  144.8550 C   0  0  2  0  0  3  0  0  0  0  0  0
  194.5270  176.3760  145.9860 C   0  0  0  0  0  0  0  0  0  0  0  0
  195.3260  175.3080  146.3700 O   0  0  0  0  0  0  0  0  0  0  0  0
  194.5990  177.4640  146.6190 O   0  0  0  0  0  1  0  0  0  0  0  0
  186.9280  177.7110  147.3430 C   0  0  0  0  0  1  0  0  0  0  0  0
  187.7600  177.4690  146.1660 N   0  0  0  0  0  0  0  0  0  0  0  0
  188.1670  175.4670  140.9580 C   0  0  0  0  0  1  0  0  0  0  0  0
  186.2230  178.2610  142.3040 C   0  0  0  0  0  0  0  0  0  0  0  0
  187.6540  176.9480  143.7460 C   0  0  0  0  0  3  0  0  0  0  0  0
  186.5150  177.3690  140.3960 C   0  0  0  0  0  0  0  0  0  0  0  0
  187.1220  177.2430  142.4930 C   0  0  0  0  0  0  0  0  0  0  0  0
  186.3100  178.7850  144.6390 C   0  0  0  0  0  3  0  0  0  0  0  0
  185.8340  178.3610  141.0170 N   0  0  0  0  0  0  0  0  0  0  0  0
  185.7920  179.0570  143.3620 C   0  0  0  0  0  3  0  0  0  0  0  0
  186.3890  177.0970  139.0050 N   0  0  0  0  0  1  0  0  0  0  0  0
  187.3170  176.6520  141.2710 C   0  0  0  0  0  0  0  0  0  0  0  0
  187.2430  177.7350  144.8460 C   0  0  1  0  0  3  0  0  0  0  0  0
  1  8  1  6  0  0  0
  1  7  1  0  0  0  0
  1  6  1  0  0  0  0
  2 17  1  1  0  0  0
  2  7  1  0  0  0  0
  2  5  1  0  0  0  0
  3  1  1  0  0  0  0
  5  4  1  0  0  0  0
  6  4  1  0  0  0  0
  7  3  1  6  0  0  0
  8  9  1  6  0  0  0
 10  8  1  0  0  0  0
 12 11  1  6  0  0  0
 12 10  1  0  0  0  0
 12 13  1  0  0  0  0
 13 14  2  0  0  0  0
 13 15  1  0  0  0  0
 17 16  1  0  0  0  0
 18 27  1  0  0  0  0
 19 22  1  0  0  0  0
 19 25  1  0  0  0  0
 20 28  1  0  0  0  0
 21 24  1  0  0  0  0
 21 27  2  0  0  0  0
 22 20  2  0  0  0  0
 23 28  1  0  0  0  0
 24 19  2  0  0  0  0
 25 23  2  0  0  0  0
 26 21  1  0  0  0  0
 27 22  1  0  0  0  0
 28 17  1  1  0  0  0
M  END
>  <MODEL>
1

>  <REMARK>
 VINA RESULT:      -7.5      0.000      0.000
  Name = 
  6 active torsions:
  status: ('A' for Active; 'I' for Inactive)
    1  A    between atoms: C_1  and  C_2
    2  A    between atoms: C_2  and  C_3
    3  A    between atoms: C_3  and  C_11
    4  A    between atoms: C_6  and  C_11
    5  A    between atoms: C_16  and  N_20
    6  A    between atoms: N_20  and  C_25
                            x       y       z     vdW  Elec       q    Type
                         _______ _______ _______ _____ _____    ______ ____

>  <TORSDO>
F 6

$$$$
=
 OpenBabel11052418103D

 28 31  0  0  1  0  0  0  0  0999 V2000
  188.2910  177.3320  144.7750 C   0  0  2  0  0  0  0  0  0  0  0  0
  189.2590  175.2100  145.2160 C   0  0  1  0  0  3  0  0  0  0  0  0
  189.4640  177.7090  143.9040 C   0  0  0  0  0  2  0  0  0  0  0  0
  187.6690  176.2860  146.9450 C   0  0  0  0  0  2  0  0  0  0  0  0
  188.7330  175.1880  146.6720 C   0  0  0  0  0  2  0  0  0  0  0  0
  187.9860  177.6290  146.2410 C   0  0  0  0  0  2  0  0  0  0  0  0
  189.6790  176.6500  144.9560 C   0  0  1  0  0  3  0  0  0  0  0  0
  187.1690  176.5890  143.9840 C   0  0  2  0  0  3  0  0  0  0  0  0
  187.4760  176.4070  142.6290 O   0  0  0  0  0  1  0  0  0  0  0  0
  185.8050  177.2630  144.1290 C   0  0  0  0  0  2  0  0  0  0  0  0
  185.4110  179.7240  144.1420 C   0  0  0  0  0  1  0  0  0  0  0  0
  185.6870  178.5160  143.2660 C   0  0  2  0  0  3  0  0  0  0  0  0
  184.6200  178.3830  142.2260 C   0  0  0  0  0  0  0  0  0  0  0  0
  184.9760  178.3840  140.8840 O   0  0  0  0  0  0  0  0  0  0  0  0
  183.4030  178.3080  142.5440 O   0  0  0  0  0  1  0  0  0  0  0  0
  190.1290  172.8560  144.9010 C   0  0  0  0  0  1  0  0  0  0  0  0
  190.3840  174.2880  145.0410 N   0  0  0  0  0  0  0  0  0  0  0  0
  194.3740  176.0010  141.5130 C   0  0  0  0  0  1  0  0  0  0  0  0
  194.3540  175.7460  145.1650 C   0  0  0  0  0  0  0  0  0  0  0  0
  192.4170  175.0900  143.8740 C   0  0  0  0  0  3  0  0  0  0  0  0
  195.7450  176.3480  143.6730 C   0  0  0  0  0  0  0  0  0  0  0  0
  193.7220  175.5680  143.9610 C   0  0  0  0  0  0  0  0  0  0  0  0
  192.4020  174.9730  146.3160 C   0  0  0  0  0  3  0  0  0  0  0  0
  195.6050  176.2260  145.0140 N   0  0  0  0  0  0  0  0  0  0  0  0
  193.7190  175.4580  146.3700 C   0  0  0  0  0  3  0  0  0  0  0  0
  196.9280  176.8450  143.0600 N   0  0  0  0  0  1  0  0  0  0  0  0
  194.6050  175.9580  142.9860 C   0  0  0  0  0  0  0  0  0  0  0  0
  191.7380  174.7830  145.0750 C   0  0  1  0  0  3  0  0  0  0  0  0
  1  8  1  6  0  0  0
  1  7  1  0  0  0  0
  1  6  1  0  0  0  0
  2 17  1  1  0  0  0
  2  5  1  0  0  0  0
  3  1  1  0  0  0  0
  5  4  1  0  0  0  0
  6  4  1  0  0  0  0
  7  3  1  6  0  0  0
  7  2  1  0  0  0  0
  8  9  1  6  0  0  0
  8 10  1  0  0  0  0
 12 10  1  0  0  0  0
 12 11  1  1  0  0  0
 13 15  1  0  0  0  0
 13 12  1  0  0  0  0
 14 13  2  0  0  0  0
 16 17  1  0  0  0  0
 18 27  1  0  0  0  0
 19 25  1  0  0  0  0
 20 22  2  0  0  0  0
 20 28  1  0  0  0  0
 21 24  1  0  0  0  0
 22 19  1  0  0  0  0
 23 25  2  0  0  0  0
 24 19  2  0  0  0  0
 26 21  1  0  0  0  0
 27 21  2  0  0  0  0
 27 22  1  0  0  0  0
 28 17  1  1  0  0  0
 28 23  1  0  0  0  0
M  END
>  <MODEL>
2

>  <REMARK>
 VINA RESULT:      -7.3      3.553      7.442
  Name = 
  6 active torsions:
  status: ('A' for Active; 'I' for Inactive)
    1  A    between atoms: C_1  and  C_2
    2  A    between atoms: C_2  and  C_3
    3  A    between atoms: C_3  and  C_11
    4  A    between atoms: C_6  and  C_11
    5  A    between atoms: C_16  and  N_20
    6  A    between atoms: N_20  and  C_25
                            x       y       z     vdW  Elec       q    Type
                         _______ _______ _______ _____ _____    ______ ____

>  <TORSDO>
F 6

$$$$
=
 OpenBabel11052418103D

 28 31  0  0  1  0  0  0  0  0999 V2000
  190.9850  175.0590  146.4050 C   0  0  2  0  0  0  0  0  0  0  0  0
  189.5270  176.9320  146.3870 C   0  0  1  0  0  3  0  0  0  0  0  0
  189.9090  174.1890  145.8040 C   0  0  0  0  0  2  0  0  0  0  0  0
  191.4170  176.7890  148.1410 C   0  0  0  0  0  2  0  0  0  0  0  0
  190.0960  177.4840  147.7150 C   0  0  0  0  0  2  0  0  0  0  0  0
  191.4240  175.2660  147.8530 C   0  0  0  0  0  2  0  0  0  0  0  0
  189.4780  175.4200  146.5620 C   0  0  1  0  0  3  0  0  0  0  0  0
  191.8420  175.7910  145.3240 C   0  0  2  0  0  3  0  0  0  0  0  0
  191.6020  175.3270  144.0240 O   0  0  0  0  0  1  0  0  0  0  0  0
  193.3370  175.7450  145.6320 C   0  0  0  0  0  2  0  0  0  0  0  0
  194.3050  173.4530  145.4940 C   0  0  0  0  0  1  0  0  0  0  0  0
  194.0790  174.7520  144.7420 C   0  0  2  0  0  3  0  0  0  0  0  0
  195.3850  175.2970  144.2580 C   0  0  0  0  0  0  0  0  0  0  0  0
  196.5660  174.8300  144.8200 O   0  0  0  0  0  1  0  0  0  0  0  0
  195.4300  176.1960  143.3760 O   0  0  0  0  0  0  0  0  0  0  0  0
  187.3110  177.8240  147.2190 C   0  0  0  0  0  1  0  0  0  0  0  0
  188.1960  177.4770  146.1090 N   0  0  0  0  0  0  0  0  0  0  0  0
  183.4890  178.6000  143.3010 C   0  0  0  0  0  1  0  0  0  0  0  0
  186.8710  177.8690  142.1090 C   0  0  0  0  0  0  0  0  0  0  0  0
  186.3790  177.8960  144.4770 C   0  0  0  0  0  3  0  0  0  0  0  0
  184.9880  178.3010  141.2210 C   0  0  0  0  0  0  0  0  0  0  0  0
  185.9860  178.0180  143.1460 C   0  0  0  0  0  0  0  0  0  0  0  0
  188.6430  177.4600  143.6660 C   0  0  0  0  0  3  0  0  0  0  0  0
  186.2790  178.0370  140.9100 N   0  0  0  0  0  0  0  0  0  0  0  0
  188.2160  177.5890  142.3340 C   0  0  0  0  0  3  0  0  0  0  0  0
  183.9930  178.5640  140.2400 N   0  0  0  0  0  1  0  0  0  0  0  0
  184.7650  178.3020  142.5900 C   0  0  0  0  0  0  0  0  0  0  0  0
  187.7360  177.6090  144.7480 C   0  0  1  0  0  3  0  0  0  0  0  0
  1  8  1  6  0  0  0
  1  7  1  0  0  0  0
  1  6  1  0  0  0  0
  2 17  1  1  0  0  0
  2  7  1  0  0  0  0
  2  5  1  0  0  0  0
  3  1  1  0  0  0  0
  5  4  1  0  0  0  0
  6  4  1  0  0  0  0
  7  3  1  6  0  0  0
  8  9  1  6  0  0  0
  8 10  1  0  0  0  0
 12 11  1  1  0  0  0
 12 10  1  0  0  0  0
 13 12  1  0  0  0  0
 13 14  1  0  0  0  0
 15 13  2  0  0  0  0
 17 16  1  0  0  0  0
 19 25  1  0  0  0  0
 19 22  1  0  0  0  0
 20 28  1  0  0  0  0
 21 27  2  0  0  0  0
 22 20  2  0  0  0  0
 23 28  1  0  0  0  0
 24 21  1  0  0  0  0
 24 19  2  0  0  0  0
 25 23  2  0  0  0  0
 26 21  1  0  0  0  0
 27 22  1  0  0  0  0
 27 18  1  0  0  0  0
 28 17  1  1  0  0  0
M  END
>  <MODEL>
3

>  <REMARK>
 VINA RESULT:      -7.2      1.322      2.115
  Name = 
  6 active torsions:
  status: ('A' for Active; 'I' for Inactive)
    1  A    between atoms: C_1  and  C_2
    2  A    between atoms: C_2  and  C_3
    3  A    between atoms: C_3  and  C_11
    4  A    between atoms: C_6  and  C_11
    5  A    between atoms: C_16  and  N_20
    6  A    between atoms: N_20  and  C_25
                            x       y       z     vdW  Elec       q    Type
                         _______ _______ _______ _____ _____    ______ ____

>  <TORSDO>
F 6

$$$$
=
 OpenBabel11052418103D

 28 31  0  0  1  0  0  0  0  0999 V2000
  192.3160  174.3410  144.6020 C   0  0  2  0  0  0  0  0  0  0  0  0
  191.3860  176.2990  145.5670 C   0  0  1  0  0  3  0  0  0  0  0  0
  190.9380  173.7960  144.3260 C   0  0  0  0  0  2  0  0  0  0  0  0
  193.7100  175.4680  146.3270 C   0  0  0  0  0  2  0  0  0  0  0  0
  192.5050  176.3980  146.6320 C   0  0  0  0  0  2  0  0  0  0  0  0
  193.2880  174.0920  145.7540 C   0  0  0  0  0  2  0  0  0  0  0  0
  191.0850  174.8120  145.4300 C   0  0  1  0  0  3  0  0  0  0  0  0
  192.8520  175.2390  143.4430 C   0  0  2  0  0  3  0  0  0  0  0  0
  192.0160  175.2460  142.3190 O   0  0  0  0  0  1  0  0  0  0  0  0
  194.2800  174.8790  143.0340 C   0  0  0  0  0  2  0  0  0  0  0  0
  195.3630  176.4310  141.4140 C   0  0  0  0  0  1  0  0  0  0  0  0
  195.1650  176.1120  142.8840 C   0  0  2  0  0  3  0  0  0  0  0  0
  196.4910  175.9380  143.5530 C   0  0  0  0  0  0  0  0  0  0  0  0
  197.5650  176.7180  143.1460 O   0  0  0  0  0  0  0  0  0  0  0  0
  196.6590  175.0710  144.4530 O   0  0  0  0  0  1  0  0  0  0  0  0
  190.0260  177.4300  147.3760 C   0  0  0  0  0  1  0  0  0  0  0  0
  190.1940  177.0460  145.9760 N   0  0  0  0  0  0  0  0  0  0  0  0
  184.6610  177.8510  145.7950 C   0  0  0  0  0  1  0  0  0  0  0  0
  187.1790  177.9290  143.1400 C   0  0  0  0  0  0  0  0  0  0  0  0
  187.8110  177.4420  145.4240 C   0  0  0  0  0  3  0  0  0  0  0  0
  185.0730  178.1910  143.2700 C   0  0  0  0  0  0  0  0  0  0  0  0
  186.8510  177.7360  144.4580 C   0  0  0  0  0  0  0  0  0  0  0  0
  189.4880  177.5480  143.6480 C   0  0  0  0  0  3  0  0  0  0  0  0
  186.0980  178.2100  142.3860 N   0  0  0  0  0  0  0  0  0  0  0  0
  188.4960  177.8430  142.6980 C   0  0  0  0  0  3  0  0  0  0  0  0
  183.7260  178.4580  142.8990 N   0  0  0  0  0  1  0  0  0  0  0  0
  185.4950  177.9070  144.5600 C   0  0  0  0  0  0  0  0  0  0  0  0
  189.1600  177.3440  145.0150 C   0  0  1  0  0  3  0  0  0  0  0  0
  1  8  1  6  0  0  0
  1  7  1  0  0  0  0
  1  6  1  0  0  0  0
  2 17  1  1  0  0  0
  2  5  1  0  0  0  0
  3  1  1  0  0  0  0
  4  5  1  0  0  0  0
  6  4  1  0  0  0  0
  7  3  1  6  0  0  0
  7  2  1  0  0  0  0
  8  9  1  6  0  0  0
 10  8  1  0  0  0  0
 12 11  1  6  0  0  0
 12 10  1  0  0  0  0
 12 13  1  0  0  0  0
 13 15  1  0  0  0  0
 14 13  2  0  0  0  0
 17 16  1  0  0  0  0
 19 22  1  0  0  0  0
 21 27  2  0  0  0  0
 22 27  1  0  0  0  0
 22 20  2  0  0  0  0
 23 28  1  0  0  0  0
 24 19  2  0  0  0  0
 24 21  1  0  0  0  0
 25 19  1  0  0  0  0
 25 23  2  0  0  0  0
 26 21  1  0  0  0  0
 27 18  1  0  0  0  0
 28 20  1  0  0  0  0
 28 17  1  1  0  0  0
M  END
>  <MODEL>
4

>  <REMARK>
 VINA RESULT:      -7.0      1.944      3.121
  Name = 
  6 active torsions:
  status: ('A' for Active; 'I' for Inactive)
    1  A    between atoms: C_1  and  C_2
    2  A    between atoms: C_2  and  C_3
    3  A    between atoms: C_3  and  C_11
    4  A    between atoms: C_6  and  C_11
    5  A    between atoms: C_16  and  N_20
    6  A    between atoms: N_20  and  C_25
                            x       y       z     vdW  Elec       q    Type
                         _______ _______ _______ _____ _____    ______ ____

>  <TORSDO>
F 6

$$$$
=
 OpenBabel11052418103D

 28 31  0  0  1  0  0  0  0  0999 V2000
  189.3150  177.6000  145.0480 C   0  0  2  0  0  0  0  0  0  0  0  0
  189.8380  175.3130  144.6920 C   0  0  1  0  0  3  0  0  0  0  0  0
  190.5930  178.0210  144.3680 C   0  0  0  0  0  2  0  0  0  0  0  0
  188.3630  175.9990  146.6980 C   0  0  0  0  0  2  0  0  0  0  0  0
  189.2210  174.8820  146.0430 C   0  0  0  0  0  2  0  0  0  0  0  0
  188.9710  177.4130  146.5250 C   0  0  0  0  0  2  0  0  0  0  0  0
  190.5360  176.6380  144.9670 C   0  0  1  0  0  3  0  0  0  0  0  0
  188.1290  177.4230  144.0480 C   0  0  2  0  0  3  0  0  0  0  0  0
  188.4910  177.6690  142.7160 O   0  0  0  0  0  1  0  0  0  0  0  0
  186.9120  178.2650  144.4250 C   0  0  0  0  0  2  0  0  0  0  0  0
  184.7600  177.8420  143.2420 C   0  0  0  0  0  1  0  0  0  0  0  0
  185.6230  177.4480  144.4260 C   0  0  2  0  0  3  0  0  0  0  0  0
  184.8540  177.6130  145.6980 C   0  0  0  0  0  0  0  0  0  0  0  0
  184.1350  178.7810  145.9100 O   0  0  0  0  0  0  0  0  0  0  0  0
  184.8760  176.7260  146.5940 O   0  0  0  0  0  1  0  0  0  0  0  0
  190.2750  173.0710  143.6060 C   0  0  0  0  0  1  0  0  0  0  0  0
  190.7820  174.3100  144.1920 N   0  0  0  0  0  0  0  0  0  0  0  0
  195.0880  176.4520  141.3340 C   0  0  0  0  0  1  0  0  0  0  0  0
  194.9460  174.9050  144.6490 C   0  0  0  0  0  0  0  0  0  0  0  0
  192.9500  175.1090  143.2980 C   0  0  0  0  0  3  0  0  0  0  0  0
  196.4530  175.7510  143.4100 C   0  0  0  0  0  0  0  0  0  0  0  0
  194.3180  175.2870  143.4910 C   0  0  0  0  0  0  0  0  0  0  0  0
  192.8630  174.1250  145.5340 C   0  0  0  0  0  3  0  0  0  0  0  0
  196.2650  175.1800  144.6230 N   0  0  0  0  0  0  0  0  0  0  0  0
  194.2450  174.3180  145.6980 C   0  0  0  0  0  3  0  0  0  0  0  0
  197.7190  176.2200  142.9620 N   0  0  0  0  0  1  0  0  0  0  0  0
  195.2760  175.8400  142.6810 C   0  0  0  0  0  0  0  0  0  0  0  0
  192.2020  174.5130  144.3390 C   0  0  1  0  0  3  0  0  0  0  0  0
  1  8  1  6  0  0  0
  1  6  1  0  0  0  0
  2 17  1  1  0  0  0
  2  7  1  0  0  0  0
  2  5  1  0  0  0  0
  3  1  1  0  0  0  0
  5  4  1  0  0  0  0
  6  4  1  0  0  0  0
  7  3  1  6  0  0  0
  7  1  1  0  0  0  0
  8  9  1  6  0  0  0
  8 10  1  0  0  0  0
 10 12  1  0  0  0  0
 12 11  1  6  0  0  0
 12 13  1  0  0  0  0
 13 14  2  0  0  0  0
 13 15  1  0  0  0  0
 16 17  1  0  0  0  0
 18 27  1  0  0  0  0
 19 25  1  0  0  0  0
 20 22  2  0  0  0  0
 20 28  1  0  0  0  0
 21 24  1  0  0  0  0
 22 19  1  0  0  0  0
 23 25  2  0  0  0  0
 24 19  2  0  0  0  0
 26 21  1  0  0  0  0
 27 21  2  0  0  0  0
 27 22  1  0  0  0  0
 28 17  1  1  0  0  0
 28 23  1  0  0  0  0
M  END
>  <MODEL>
5

>  <REMARK>
 VINA RESULT:      -7.0      3.703      7.524
  Name = 
  6 active torsions:
  status: ('A' for Active; 'I' for Inactive)
    1  A    between atoms: C_1  and  C_2
    2  A    between atoms: C_2  and  C_3
    3  A    between atoms: C_3  and  C_11
    4  A    between atoms: C_6  and  C_11
    5  A    between atoms: C_16  and  N_20
    6  A    between atoms: N_20  and  C_25
                            x       y       z     vdW  Elec       q    Type
                         _______ _______ _______ _____ _____    ______ ____

>  <TORSDO>
F 6

$$$$
=
 OpenBabel11052418103D

 28 31  0  0  1  0  0  0  0  0999 V2000
  192.0400  174.3320  143.8320 C   0  0  2  0  0  0  0  0  0  0  0  0
  189.8500  174.3110  142.9210 C   0  0  1  0  0  3  0  0  0  0  0  0
  192.5790  174.9730  142.5780 C   0  0  0  0  0  2  0  0  0  0  0  0
  190.5330  172.5380  144.6700 C   0  0  0  0  0  2  0  0  0  0  0  0
  189.5020  172.9590  143.5870 C   0  0  0  0  0  2  0  0  0  0  0  0
  191.9950  172.8720  144.2800 C   0  0  0  0  0  2  0  0  0  0  0  0
  191.2990  174.1840  142.4710 C   0  0  1  0  0  3  0  0  0  0  0  0
  191.5330  175.3780  144.8740 C   0  0  2  0  0  3  0  0  0  0  0  0
  191.9210  176.6910  144.5710 O   0  0  0  0  0  1  0  0  0  0  0  0
  191.9390  175.0270  146.3040 C   0  0  0  0  0  2  0  0  0  0  0  0
  189.4860  174.8810  146.7210 C   0  0  0  0  0  1  0  0  0  0  0  0
  190.8210  175.3040  147.3050 C   0  0  2  0  0  3  0  0  0  0  0  0
  190.7710  176.7430  147.7080 C   0  0  0  0  0  0  0  0  0  0  0  0
  191.6290  177.2010  148.7000 O   0  0  0  0  0  1  0  0  0  0  0  0
  189.9410  177.5380  147.1900 O   0  0  0  0  0  0  0  0  0  0  0  0
  189.1590  173.8750  140.5260 C   0  0  0  0  0  1  0  0  0  0  0  0
  188.9640  174.5900  141.7860 N   0  0  0  0  0  0  0  0  0  0  0  0
  185.8310  177.0830  145.6930 C   0  0  0  0  0  1  0  0  0  0  0  0
  185.9970  177.5920  142.0720 C   0  0  0  0  0  0  0  0  0  0  0  0
  187.3820  175.9250  143.1460 C   0  0  0  0  0  3  0  0  0  0  0  0
  184.8880  178.4130  143.6920 C   0  0  0  0  0  0  0  0  0  0  0  0
  186.4090  176.9210  143.1950 C   0  0  1  0  0  3  0  0  0  0  0  0
  187.5180  176.3130  140.7370 C   0  0  0  0  0  3  0  0  0  0  0  0
  185.0570  178.5170  142.3520 N   0  0  0  0  0  0  0  0  0  0  0  0
  186.5340  177.3130  140.8190 C   0  0  0  0  0  3  0  0  0  0  0  0
  183.9850  179.2300  144.4250 N   0  0  0  0  0  1  0  0  0  0  0  0
  185.7060  177.4420  144.2510 C   0  0  0  0  0  0  0  0  0  0  0  0
  187.9500  175.6100  141.8920 C   0  0  0  0  0  0  0  0  0  0  0  0
  1  6  1  0  0  0  0
  1  8  1  1  0  0  0
  2 17  1  6  0  0  0
  2  5  1  0  0  0  0
  3  1  1  0  0  0  0
  5  4  1  0  0  0  0
  6  4  1  0  0  0  0
  7  3  1  6  0  0  0
  7  2  1  0  0  0  0
  7  1  1  0  0  0  0
  8  9  1  6  0  0  0
  8 10  1  0  0  0  0
 10 12  1  0  0  0  0
 12 11  1  6  0  0  0
 12 13  1  0  0  0  0
 13 14  1  0  0  0  0
 15 13  2  0  0  0  0
 16 17  1  0  0  0  0
 17 28  1  0  0  0  0
 19 24  2  0  0  0  0
 19 22  1  0  0  0  0
 21 27  2  0  0  0  0
 21 26  1  0  0  0  0
 22 20  1  1  0  0  0
 22 27  1  0  0  0  0
 23 25  2  0  0  0  0
 23 28  1  0  0  0  0
 24 21  1  0  0  0  0
 25 19  1  0  0  0  0
 27 18  1  0  0  0  0
 28 20  2  0  0  0  0
M  END
>  <MODEL>
6

>  <REMARK>
 VINA RESULT:      -6.8      2.209      4.336
  Name = 
  6 active torsions:
  status: ('A' for Active; 'I' for Inactive)
    1  A    between atoms: C_1  and  C_2
    2  A    between atoms: C_2  and  C_3
    3  A    between atoms: C_3  and  C_11
    4  A    between atoms: C_6  and  C_11
    5  A    between atoms: C_16  and  N_20
    6  A    between atoms: N_20  and  C_25
                            x       y       z     vdW  Elec       q    Type
                         _______ _______ _______ _____ _____    ______ ____

>  <TORSDO>
F 6

$$$$
=
 OpenBabel11052418103D

 28 31  0  0  1  0  0  0  0  0999 V2000
  188.8490  177.0470  145.4790 C   0  0  2  0  0  0  0  0  0  0  0  0
  189.6010  175.0570  144.4270 C   0  0  1  0  0  3  0  0  0  0  0  0
  189.6540  177.8850  144.5180 C   0  0  0  0  0  2  0  0  0  0  0  0
  188.9380  175.0220  146.9220 C   0  0  0  0  0  2  0  0  0  0  0  0
  189.6570  174.2800  145.7640 C   0  0  0  0  0  2  0  0  0  0  0  0
  189.1560  176.5560  146.8920 C   0  0  0  0  0  2  0  0  0  0  0  0
  190.0940  176.4610  144.7500 C   0  0  1  0  0  3  0  0  0  0  0  0
  187.4200  176.7200  144.9420 C   0  0  2  0  0  3  0  0  0  0  0  0
  187.1450  177.3200  143.7050 O   0  0  0  0  0  1  0  0  0  0  0  0
  186.3230  177.0620  145.9480 C   0  0  0  0  0  2  0  0  0  0  0  0
  186.1200  178.9470  147.5650 C   0  0  0  0  0  1  0  0  0  0  0  0
  186.1240  178.5680  146.0960 C   0  0  2  0  0  3  0  0  0  0  0  0
  184.8630  179.0360  145.4430 C   0  0  0  0  0  0  0  0  0  0  0  0
  184.9410  179.8180  144.2990 O   0  0  0  0  0  0  0  0  0  0  0  0
  183.7340  178.7630  145.9320 O   0  0  0  0  0  1  0  0  0  0  0  0
  191.8110  174.0420  143.7320 C   0  0  0  0  0  1  0  0  0  0  0  0
  190.4380  174.4230  143.4050 N   0  0  0  0  0  0  0  0  0  0  0  0
  191.5750  171.4400  138.8110 C   0  0  0  0  0  1  0  0  0  0  0  0
  188.9340  173.8820  139.4870 C   0  0  0  0  0  0  0  0  0  0  0  0
  190.5790  173.3460  141.1780 C   0  0  0  0  0  3  0  0  0  0  0  0
  189.5280  172.6770  137.8390 C   0  0  0  0  0  0  0  0  0  0  0  0
  190.0490  173.1980  139.8980 C   0  0  0  0  0  0  0  0  0  0  0  0
  188.7780  174.9360  141.6320 C   0  0  0  0  0  3  0  0  0  0  0  0
  188.5930  173.5790  138.2190 N   0  0  0  0  0  0  0  0  0  0  0  0
  188.2690  174.7650  140.3340 C   0  0  0  0  0  3  0  0  0  0  0  0
  189.5400  172.0680  136.5540 N   0  0  0  0  0  1  0  0  0  0  0  0
  190.4430  172.4100  138.8470 C   0  0  0  0  0  0  0  0  0  0  0  0
  189.9330  174.2350  142.0680 C   0  0  1  0  0  3  0  0  0  0  0  0
  1  8  1  6  0  0  0
  1  6  1  0  0  0  0
  2 17  1  6  0  0  0
  2  7  1  0  0  0  0
  2  5  1  0  0  0  0
  3  1  1  0  0  0  0
  5  4  1  0  0  0  0
  6  4  1  0  0  0  0
  7  3  1  6  0  0  0
  7  1  1  0  0  0  0
  8  9  1  6  0  0  0
  8 10  1  0  0  0  0
 10 12  1  0  0  0  0
 12 11  1  1  0  0  0
 13 15  1  0  0  0  0
 13 12  1  0  0  0  0
 14 13  2  0  0  0  0
 17 16  1  0  0  0  0
 18 27  1  0  0  0  0
 19 22  1  0  0  0  0
 19 25  1  0  0  0  0
 20 28  1  0  0  0  0
 21 24  1  0  0  0  0
 21 27  2  0  0  0  0
 22 20  2  0  0  0  0
 23 28  1  0  0  0  0
 24 19  2  0  0  0  0
 25 23  2  0  0  0  0
 26 21  1  0  0  0  0
 27 22  1  0  0  0  0
 28 17  1  1  0  0  0
M  END
>  <MODEL>
7

>  <REMARK>
 VINA RESULT:      -6.8      3.519      6.257
  Name = 
  6 active torsions:
  status: ('A' for Active; 'I' for Inactive)
    1  A    between atoms: C_1  and  C_2
    2  A    between atoms: C_2  and  C_3
    3  A    between atoms: C_3  and  C_11
    4  A    between atoms: C_6  and  C_11
    5  A    between atoms: C_16  and  N_20
    6  A    between atoms: N_20  and  C_25
                            x       y       z     vdW  Elec       q    Type
                         _______ _______ _______ _____ _____    ______ ____

>  <TORSDO>
F 6

$$$$
=
 OpenBabel11052418103D

 28 31  0  0  1  0  0  0  0  0999 V2000
  191.3350  175.6300  145.2870 C   0  0  2  0  0  0  0  0  0  0  0  0
  189.3890  176.9850  145.2060 C   0  0  1  0  0  3  0  0  0  0  0  0
  191.0290  175.2380  146.7110 C   0  0  0  0  0  2  0  0  0  0  0  0
  191.4230  177.5620  143.7230 C   0  0  0  0  0  2  0  0  0  0  0  0
  190.0750  178.0520  144.3200 C   0  0  0  0  0  2  0  0  0  0  0  0
  192.2520  176.7070  144.7120 C   0  0  0  0  0  2  0  0  0  0  0  0
  190.4530  176.5330  146.1980 C   0  0  1  0  0  3  0  0  0  0  0  0
  190.6520  174.6910  144.2430 C   0  0  2  0  0  3  0  0  0  0  0  0
  190.2160  173.4790  144.7940 O   0  0  0  0  0  1  0  0  0  0  0  0
  191.5360  174.4270  143.0260 C   0  0  0  0  0  2  0  0  0  0  0  0
  189.3770  175.0740  141.9630 C   0  0  0  0  0  1  0  0  0  0  0  0
  190.7470  174.4700  141.7200 C   0  0  2  0  0  3  0  0  0  0  0  0
  190.6080  173.1150  141.1030 C   0  0  0  0  0  0  0  0  0  0  0  0
  190.0760  173.0020  139.8250 O   0  0  0  0  0  0  0  0  0  0  0  0
  190.9300  172.0730  141.7350 O   0  0  0  0  0  1  0  0  0  0  0  0
  188.2670  177.7460  147.3420 C   0  0  0  0  0  1  0  0  0  0  0  0
  188.2200  177.5370  145.8960 N   0  0  0  0  0  0  0  0  0  0  0  0
  186.3480  177.5410  140.6250 C   0  0  0  0  0  1  0  0  0  0  0  0
  184.6510  178.3370  143.7690 C   0  0  0  0  0  0  0  0  0  0  0  0
  186.9850  177.7010  143.7550 C   0  0  0  0  0  3  0  0  0  0  0  0
  184.1280  178.2910  141.7080 C   0  0  0  0  0  0  0  0  0  0  0  0
  185.7880  177.9730  143.0950 C   0  0  0  0  0  0  0  0  0  0  0  0
  185.8240  178.1870  145.8510 C   0  0  0  0  0  3  0  0  0  0  0  0
  183.6120  178.5410  142.9350 N   0  0  0  0  0  0  0  0  0  0  0  0
  184.6320  178.4530  145.1560 C   0  0  0  0  0  3  0  0  0  0  0  0
  183.3600  178.3720  140.5140 N   0  0  0  0  0  1  0  0  0  0  0  0
  185.4670  177.9330  141.7630 C   0  0  0  0  0  0  0  0  0  0  0  0
  187.0080  177.8110  145.1640 C   0  0  1  0  0  3  0  0  0  0  0  0
  1  8  1  6  0  0  0
  1  7  1  0  0  0  0
  1  3  1  0  0  0  0
  2 17  1  1  0  0  0
  2  7  1  0  0  0  0
  4  5  1  0  0  0  0
  4  6  1  0  0  0  0
  5  2  1  0  0  0  0
  6  1  1  0  0  0  0
  7  3  1  1  0  0  0
  8  9  1  1  0  0  0
 10  8  1  0  0  0  0
 12 11  1  1  0  0  0
 12 10  1  0  0  0  0
 13 12  1  0  0  0  0
 13 15  1  0  0  0  0
 14 13  2  0  0  0  0
 17 16  1  0  0  0  0
 18 27  1  0  0  0  0
 19 25  1  0  0  0  0
 20 28  1  0  0  0  0
 21 27  2  0  0  0  0
 21 24  1  0  0  0  0
 22 20  2  0  0  0  0
 22 19  1  0  0  0  0
 24 19  2  0  0  0  0
 25 23  2  0  0  0  0
 26 21  1  0  0  0  0
 27 22  1  0  0  0  0
 28 23  1  0  0  0  0
 28 17  1  1  0  0  0
M  END
>  <MODEL>
8

>  <REMARK>
 VINA RESULT:      -6.6      2.245      3.601
  Name = 
  6 active torsions:
  status: ('A' for Active; 'I' for Inactive)
    1  A    between atoms: C_1  and  C_2
    2  A    between atoms: C_2  and  C_3
    3  A    between atoms: C_3  and  C_11
    4  A    between atoms: C_6  and  C_11
    5  A    between atoms: C_16  and  N_20
    6  A    between atoms: N_20  and  C_25
                            x       y       z     vdW  Elec       q    Type
                         _______ _______ _______ _____ _____    ______ ____

>  <TORSDO>
F 6

$$$$
=
 OpenBabel11052418103D

 28 31  0  0  1  0  0  0  0  0999 V2000
  188.5700  177.4970  144.7180 C   0  0  2  0  0  0  0  0  0  0  0  0
  189.7350  175.7600  145.8380 C   0  0  1  0  0  3  0  0  0  0  0  0
  189.8720  178.1620  144.3500 C   0  0  0  0  0  2  0  0  0  0  0  0
  187.3460  176.3980  146.5850 C   0  0  0  0  0  2  0  0  0  0  0  0
  188.6550  175.6420  146.9410 C   0  0  0  0  0  2  0  0  0  0  0  0
  187.5990  177.7490  145.8700 C   0  0  0  0  0  2  0  0  0  0  0  0
  189.8620  177.2490  145.5500 C   0  0  1  0  0  3  0  0  0  0  0  0
  188.1170  176.4350  143.6670 C   0  0  2  0  0  3  0  0  0  0  0  0
  189.0390  176.2610  142.6270 O   0  0  0  0  0  1  0  0  0  0  0  0
  186.7300  176.7280  143.0970 C   0  0  0  0  0  2  0  0  0  0  0  0
  185.7490  179.0160  142.9720 C   0  0  0  0  0  1  0  0  0  0  0  0
  186.6950  178.0330  142.3070 C   0  0  2  0  0  3  0  0  0  0  0  0
  186.2910  177.8170  140.8830 C   0  0  0  0  0  0  0  0  0  0  0  0
  185.0250  178.2090  140.4700 O   0  0  0  0  0  1  0  0  0  0  0  0
  187.0660  177.2550  140.0630 O   0  0  0  0  0  0  0  0  0  0  0  0
  191.3780  175.2530  147.6940 C   0  0  0  0  0  1  0  0  0  0  0  0
  191.0120  175.1930  146.2800 N   0  0  0  0  0  0  0  0  0  0  0  0
  196.4760  174.1170  145.7490 C   0  0  0  0  0  1  0  0  0  0  0  0
  193.6900  173.5570  143.4420 C   0  0  0  0  0  0  0  0  0  0  0  0
  193.3140  174.5750  145.6040 C   0  0  0  0  0  3  0  0  0  0  0  0
  195.7920  173.2350  143.4220 C   0  0  0  0  0  0  0  0  0  0  0  0
  194.1590  174.0270  144.6420 C   0  0  0  0  0  0  0  0  0  0  0  0
  191.4570  174.1470  144.0730 C   0  0  0  0  0  3  0  0  0  0  0  0
  194.6790  173.0640  142.6700 N   0  0  0  0  0  0  0  0  0  0  0  0
  192.3360  173.6000  143.1230 C   0  0  0  0  0  3  0  0  0  0  0  0
  197.0860  172.8310  142.9920 N   0  0  0  0  0  1  0  0  0  0  0  0
  195.5150  173.8220  144.6470 C   0  0  0  0  0  0  0  0  0  0  0  0
  191.9310  174.6390  145.3170 C   0  0  1  0  0  3  0  0  0  0  0  0
  1  8  1  6  0  0  0
  1  7  1  0  0  0  0
  1  6  1  0  0  0  0
  2 17  1  1  0  0  0
  2  5  1  0  0  0  0
  3  1  1  0  0  0  0
  4  5  1  0  0  0  0
  6  4  1  0  0  0  0
  7  3  1  6  0  0  0
  7  2  1  0  0  0  0
  8  9  1  6  0  0  0
 10  8  1  0  0  0  0
 12 11  1  1  0  0  0
 12 10  1  0  0  0  0
 13 12  1  0  0  0  0
 14 13  1  0  0  0  0
 15 13  2  0  0  0  0
 17 16  1  0  0  0  0
 19 22  1  0  0  0  0
 21 27  2  0  0  0  0
 22 27  1  0  0  0  0
 22 20  2  0  0  0  0
 23 28  1  0  0  0  0
 24 21  1  0  0  0  0
 24 19  2  0  0  0  0
 25 19  1  0  0  0  0
 25 23  2  0  0  0  0
 26 21  1  0  0  0  0
 27 18  1  0  0  0  0
 28 20  1  0  0  0  0
 28 17  1  1  0  0  0
M  END
>  <MODEL>
9

>  <REMARK>
 VINA RESULT:      -6.6      3.619      7.463
  Name = 
  6 active torsions:
  status: ('A' for Active; 'I' for Inactive)
    1  A    between atoms: C_1  and  C_2
    2  A    between atoms: C_2  and  C_3
    3  A    between atoms: C_3  and  C_11
    4  A    between atoms: C_6  and  C_11
    5  A    between atoms: C_16  and  N_20
    6  A    between atoms: N_20  and  C_25
                            x       y       z     vdW  Elec       q    Type
                         _______ _______ _______ _____ _____    ______ ____

>  <TORSDO>
F 6

$$$$
