=
 OpenBabel11052417453D

 31 35  0  0  1  0  0  0  0  0999 V2000
  184.8670  177.8740  141.2060 C   0  0  0  0  0  0  0  0  0  0  0  0
  187.0270  176.3450  143.9980 C   0  0  1  0  0  3  0  0  0  0  0  0
  186.4280  176.9260  145.2860 C   0  0  0  0  0  0  0  0  0  0  0  0
  184.9550  178.8400  145.8240 C   0  0  0  0  0  3  0  0  0  0  0  0
  186.5790  176.9350  142.6640 C   0  0  0  0  0  0  0  0  0  0  0  0
  185.7590  177.8620  140.1330 C   0  0  0  0  0  3  0  0  0  0  0  0
  185.0220  177.4470  145.2970 C   0  0  0  0  0  2  0  0  0  0  0  0
  189.1720  175.6690  142.8660 C   0  0  2  0  0  3  0  0  0  0  0  0
  183.4840  178.3840  141.0180 C   0  0  0  0  0  1  0  0  0  0  0  0
  188.3120  175.9030  146.4860 C   0  0  0  0  0  3  0  0  0  0  0  0
  185.2640  179.1390  147.0830 C   0  0  0  0  0  3  0  0  0  0  0  0
  188.7450  176.3510  141.6890 O   0  0  0  0  0  0  0  0  0  0  0  0
  188.5660  176.3390  144.0940 C   0  0  2  0  0  3  0  0  0  0  0  0
  185.2720  177.4000  142.4550 C   0  0  0  0  0  3  0  0  0  0  0  0
  185.7800  178.1680  148.0640 C   0  0  0  0  0  3  0  0  0  0  0  0
  187.4570  176.8800  141.5560 C   0  0  0  0  0  0  0  0  0  0  0  0
  187.0500  177.3610  140.3080 C   0  0  0  0  0  3  0  0  0  0  0  0
  189.0080  175.6920  145.3700 C   0  0  0  0  0  3  0  0  0  0  0  0
  187.0570  176.6840  146.4670 C   0  0  0  0  0  0  0  0  0  0  0  0
  186.5440  177.1030  147.7910 C   0  0  0  0  0  3  0  0  0  0  0  0
  190.8780  173.3910  142.6880 O   0  0  0  0  0  0  0  0  0  0  0  0
  191.4240  174.5190  142.8330 C   0  0  0  0  0  0  0  0  0  0  0  0
  190.6260  175.6990  142.9380 N   0  0  0  0  0  2  0  0  0  0  0  0
  193.3410  175.6800  142.0300 O   0  0  0  0  0  1  0  0  0  0  0  0
  192.9130  174.6400  142.8600 C   0  0  1  0  0  3  0  0  0  0  0  0
  193.0970  176.4190  145.9600 C   0  0  2  0  0  3  0  0  0  0  0  0
  192.5210  174.1980  145.3240 C   0  0  0  0  0  2  0  0  0  0  0  0
  194.0910  176.9960  146.7490 O   0  0  0  0  0  1  0  0  0  0  0  0
  192.7120  175.0720  146.5290 C   0  0  0  0  0  2  0  0  0  0  0  0
  193.4360  174.8130  144.2860 C   0  0  2  0  0  3  0  0  0  0  0  0
  193.5920  176.2290  144.6010 N   0  0  0  0  0  2  0  0  0  0  0  0
  1 14  1  0  0  0  0
  2  5  1  6  0  0  0
  2 13  1  0  0  0  0
  2  3  1  0  0  0  0
  3  7  1  0  0  0  0
  3 19  2  0  0  0  0
  4 11  2  0  0  0  0
  6 17  1  0  0  0  0
  6  1  2  0  0  0  0
  7  4  1  0  0  0  0
  8 23  1  1  0  0  0
  8 13  1  0  0  0  0
  9  1  1  0  0  0  0
 11 15  1  0  0  0  0
 12  8  1  0  0  0  0
 13 18  1  1  0  0  0
 14  5  2  0  0  0  0
 16 12  1  0  0  0  0
 16  5  1  0  0  0  0
 17 16  2  0  0  0  0
 18 10  2  0  0  0  0
 19 10  1  0  0  0  0
 19 20  1  0  0  0  0
 20 15  2  0  0  0  0
 21 22  2  0  0  0  0
 22 25  1  0  0  0  0
 22 23  1  0  0  0  0
 25 24  1  6  0  0  0
 26 29  1  0  0  0  0
 26 28  1  1  0  0  0
 27 29  1  0  0  0  0
 30 25  1  6  0  0  0
 30 31  1  0  0  0  0
 30 27  1  0  0  0  0
 31 26  1  0  0  0  0
M  END
>  <MODEL>
1

>  <REMARK>
 VINA RESULT:      -9.3      0.000      0.000
  Name = 
  3 active torsions:
  status: ('A' for Active; 'I' for Inactive)
    1  A    between atoms: C_9  and  C_22
    2  A    between atoms: C_15  and  N_23
    3  A    between atoms: C_19  and  C_22
                            x       y       z     vdW  Elec       q    Type
                         _______ _______ _______ _____ _____    ______ ____

>  <TORSDO>
F 3

$$$$
=
 OpenBabel11052417453D

 31 35  0  0  1  0  0  0  0  0999 V2000
  185.0240  177.8490  141.0880 C   0  0  0  0  0  0  0  0  0  0  0  0
  187.0380  176.2710  143.9610 C   0  0  1  0  0  3  0  0  0  0  0  0
  186.4600  176.9300  145.2210 C   0  0  0  0  0  0  0  0  0  0  0  0
  185.1100  178.9530  145.6760 C   0  0  0  0  0  3  0  0  0  0  0  0
  186.6500  176.8470  142.6020 C   0  0  0  0  0  0  0  0  0  0  0  0
  185.9280  177.7450  140.0310 C   0  0  0  0  0  3  0  0  0  0  0  0
  185.0920  177.5430  145.1930 C   0  0  0  0  0  2  0  0  0  0  0  0
  189.1500  175.4210  142.8850 C   0  0  2  0  0  3  0  0  0  0  0  0
  183.6800  178.4430  140.8620 C   0  0  0  0  0  1  0  0  0  0  0  0
  188.2560  175.8250  146.4820 C   0  0  0  0  0  3  0  0  0  0  0  0
  185.4200  179.2700  146.9300 C   0  0  0  0  0  3  0  0  0  0  0  0
  188.7860  176.0930  141.6810 O   0  0  0  0  0  0  0  0  0  0  0  0
  188.5720  176.1680  144.0820 C   0  0  2  0  0  3  0  0  0  0  0  0
  185.3790  177.3900  142.3580 C   0  0  0  0  0  3  0  0  0  0  0  0
  185.8560  178.2990  147.9480 C   0  0  0  0  0  3  0  0  0  0  0  0
  187.5380  176.7000  141.5110 C   0  0  0  0  0  0  0  0  0  0  0  0
  187.1810  177.1670  140.2420 C   0  0  0  0  0  3  0  0  0  0  0  0
  188.9520  175.5330  145.3840 C   0  0  0  0  0  3  0  0  0  0  0  0
  187.0560  176.6850  146.4180 C   0  0  0  0  0  0  0  0  0  0  0  0
  186.5520  177.1780  147.7210 C   0  0  0  0  0  3  0  0  0  0  0  0
  190.7090  173.0370  142.7450 O   0  0  0  0  0  0  0  0  0  0  0  0
  191.3240  174.1290  142.8930 C   0  0  0  0  0  0  0  0  0  0  0  0
  190.6020  175.3580  142.9800 N   0  0  0  0  0  2  0  0  0  0  0  0
  193.3440  172.8910  142.6550 O   0  0  0  0  0  1  0  0  0  0  0  0
  192.8170  174.1540  142.9430 C   0  0  1  0  0  3  0  0  0  0  0  0
  195.5630  175.7910  141.3350 C   0  0  2  0  0  3  0  0  0  0  0  0
  193.5650  174.7310  140.5930 C   0  0  0  0  0  2  0  0  0  0  0  0
  196.0820  177.0840  141.2640 O   0  0  0  0  0  1  0  0  0  0  0  0
  194.7530  175.4990  140.0920 C   0  0  0  0  0  2  0  0  0  0  0  0
  193.3920  175.2240  142.0140 C   0  0  2  0  0  3  0  0  0  0  0  0
  194.6920  175.6720  142.4990 N   0  0  0  0  0  2  0  0  0  0  0  0
  1 14  1  0  0  0  0
  2  5  1  6  0  0  0
  2 13  1  0  0  0  0
  2  3  1  0  0  0  0
  3 19  2  0  0  0  0
  4 11  2  0  0  0  0
  6 17  1  0  0  0  0
  6  1  2  0  0  0  0
  7  3  1  0  0  0  0
  7  4  1  0  0  0  0
  8 23  1  1  0  0  0
  8 13  1  0  0  0  0
  9  1  1  0  0  0  0
 11 15  1  0  0  0  0
 12  8  1  0  0  0  0
 13 18  1  1  0  0  0
 14  5  2  0  0  0  0
 16 12  1  0  0  0  0
 16  5  1  0  0  0  0
 17 16  2  0  0  0  0
 18 10  2  0  0  0  0
 19 10  1  0  0  0  0
 19 20  1  0  0  0  0
 20 15  2  0  0  0  0
 21 22  2  0  0  0  0
 22 25  1  0  0  0  0
 22 23  1  0  0  0  0
 25 24  1  6  0  0  0
 26 28  1  6  0  0  0
 26 31  1  0  0  0  0
 27 30  1  0  0  0  0
 29 27  1  0  0  0  0
 29 26  1  0  0  0  0
 30 31  1  0  0  0  0
 30 25  1  1  0  0  0
M  END
>  <MODEL>
2

>  <REMARK>
 VINA RESULT:      -8.5      1.665      2.217
  Name = 
  3 active torsions:
  status: ('A' for Active; 'I' for Inactive)
    1  A    between atoms: C_9  and  C_22
    2  A    between atoms: C_15  and  N_23
    3  A    between atoms: C_19  and  C_22
                            x       y       z     vdW  Elec       q    Type
                         _______ _______ _______ _____ _____    ______ ____

>  <TORSDO>
F 3

$$$$
=
 OpenBabel11052417453D

 31 35  0  0  1  0  0  0  0  0999 V2000
  184.9730  178.0030  145.0030 C   0  0  0  0  0  0  0  0  0  0  0  0
  187.8770  175.5720  144.3280 C   0  0  1  0  0  3  0  0  0  0  0  0
  188.8160  175.7800  145.5240 C   0  0  0  0  0  0  0  0  0  0  0  0
  189.1020  177.5400  147.2400 C   0  0  0  0  0  3  0  0  0  0  0  0
  186.7320  176.5620  144.1280 C   0  0  0  0  0  0  0  0  0  0  0  0
  184.5190  178.2530  143.7080 C   0  0  0  0  0  3  0  0  0  0  0  0
  188.2940  176.3670  146.8010 C   0  0  0  0  0  2  0  0  0  0  0  0
  187.7890  175.1240  141.8520 C   0  0  2  0  0  3  0  0  0  0  0  0
  184.2940  178.6360  146.1640 C   0  0  0  0  0  1  0  0  0  0  0  0
  190.4220  174.3240  144.3680 C   0  0  0  0  0  3  0  0  0  0  0  0
  190.3770  177.4280  147.6040 C   0  0  0  0  0  3  0  0  0  0  0  0
  186.8110  176.1530  141.7180 O   0  0  0  0  0  0  0  0  0  0  0  0
  188.7020  175.4370  143.0330 C   0  0  2  0  0  3  0  0  0  0  0  0
  186.0600  177.1530  145.2100 C   0  0  0  0  0  3  0  0  0  0  0  0
  191.1520  176.1780  147.5400 C   0  0  0  0  0  3  0  0  0  0  0  0
  186.2300  176.7810  142.8240 C   0  0  0  0  0  0  0  0  0  0  0  0
  185.1440  177.6390  142.6210 C   0  0  0  0  0  3  0  0  0  0  0  0
  189.7800  174.4100  143.2040 C   0  0  0  0  0  3  0  0  0  0  0  0
  190.0240  175.1570  145.5230 C   0  0  0  0  0  0  0  0  0  0  0  0
  190.9880  175.1940  146.6460 C   0  0  0  0  0  3  0  0  0  0  0  0
  187.9350  172.8350  140.1580 O   0  0  0  0  0  0  0  0  0  0  0  0
  188.5870  173.8580  139.8140 C   0  0  0  0  0  0  0  0  0  0  0  0
  188.5640  175.0360  140.6220 N   0  0  0  0  0  2  0  0  0  0  0  0
  190.0870  172.6790  138.3900 O   0  0  0  0  0  1  0  0  0  0  0  0
  189.3630  173.8660  138.5360 C   0  0  1  0  0  3  0  0  0  0  0  0
  187.3070  175.9950  136.5250 C   0  0  2  0  0  3  0  0  0  0  0  0
  189.2170  174.6320  136.1260 C   0  0  0  0  0  2  0  0  0  0  0  0
  185.9890  176.0080  136.0690 O   0  0  0  0  0  1  0  0  0  0  0  0
  188.2210  175.5080  135.4240 C   0  0  0  0  0  2  0  0  0  0  0  0
  188.4570  174.1180  137.3300 C   0  0  2  0  0  3  0  0  0  0  0  0
  187.4260  175.0930  137.6650 N   0  0  0  0  0  2  0  0  0  0  0  0
  1 14  1  0  0  0  0
  1  9  1  0  0  0  0
  2  5  1  6  0  0  0
  2  3  1  0  0  0  0
  3  7  1  0  0  0  0
  4 11  2  0  0  0  0
  5 14  2  0  0  0  0
  6  1  2  0  0  0  0
  7  4  1  0  0  0  0
  8 23  1  6  0  0  0
  8 13  1  0  0  0  0
 10 19  1  0  0  0  0
 12  8  1  0  0  0  0
 12 16  1  0  0  0  0
 13 18  1  1  0  0  0
 13  2  1  0  0  0  0
 15 11  1  0  0  0  0
 16  5  1  0  0  0  0
 17 16  2  0  0  0  0
 17  6  1  0  0  0  0
 18 10  2  0  0  0  0
 19  3  2  0  0  0  0
 19 20  1  0  0  0  0
 20 15  2  0  0  0  0
 22 21  2  0  0  0  0
 22 23  1  0  0  0  0
 25 24  1  6  0  0  0
 25 22  1  0  0  0  0
 26 28  1  6  0  0  0
 26 31  1  0  0  0  0
 27 30  1  0  0  0  0
 29 27  1  0  0  0  0
 29 26  1  0  0  0  0
 30 31  1  0  0  0  0
 30 25  1  1  0  0  0
M  END
>  <MODEL>
3

>  <REMARK>
 VINA RESULT:      -8.1      3.068      5.849
  Name = 
  3 active torsions:
  status: ('A' for Active; 'I' for Inactive)
    1  A    between atoms: C_9  and  C_22
    2  A    between atoms: C_15  and  N_23
    3  A    between atoms: C_19  and  C_22
                            x       y       z     vdW  Elec       q    Type
                         _______ _______ _______ _____ _____    ______ ____

>  <TORSDO>
F 3

$$$$
=
 OpenBabel11052417453D

 31 35  0  0  1  0  0  0  0  0999 V2000
  186.3710  178.1020  146.8930 C   0  0  0  0  0  0  0  0  0  0  0  0
  187.2650  177.2990  143.2390 C   0  0  1  0  0  3  0  0  0  0  0  0
  186.0660  177.8300  142.4410 C   0  0  0  0  0  0  0  0  0  0  0  0
  183.7380  178.4620  142.9930 C   0  0  0  0  0  3  0  0  0  0  0  0
  187.1430  177.2170  144.7580 C   0  0  0  0  0  0  0  0  0  0  0  0
  187.0860  177.1160  147.5730 C   0  0  0  0  0  3  0  0  0  0  0  0
  185.1700  178.8760  143.0330 C   0  0  0  0  0  2  0  0  0  0  0  0
  188.9710  175.4510  143.3770 C   0  0  2  0  0  3  0  0  0  0  0  0
  185.5700  179.0970  147.6530 C   0  0  0  0  0  1  0  0  0  0  0  0
  187.0660  176.7790  140.4590 C   0  0  0  0  0  3  0  0  0  0  0  0
  183.0800  178.2910  141.8500 C   0  0  0  0  0  3  0  0  0  0  0  0
  188.7130  175.3420  144.7750 O   0  0  0  0  0  0  0  0  0  0  0  0
  187.7160  175.9420  142.6620 C   0  0  2  0  0  3  0  0  0  0  0  0
  186.4120  178.1590  145.4990 C   0  0  0  0  0  3  0  0  0  0  0  0
  183.6920  178.4030  140.5140 C   0  0  0  0  0  3  0  0  0  0  0  0
  187.9040  176.2540  145.4600 C   0  0  0  0  0  0  0  0  0  0  0  0
  187.8540  176.1960  146.8570 C   0  0  0  0  0  3  0  0  0  0  0  0
  187.9090  176.0410  141.1800 C   0  0  0  0  0  3  0  0  0  0  0  0
  186.0060  177.5790  141.1070 C   0  0  0  0  0  0  0  0  0  0  0  0
  184.9590  178.1060  140.2010 C   0  0  0  0  0  3  0  0  0  0  0  0
  191.4050  174.9100  141.9940 O   0  0  0  0  0  0  0  0  0  0  0  0
  190.6140  173.9460  142.1810 C   0  0  0  0  0  0  0  0  0  0  0  0
  189.3730  174.1510  142.8590 N   0  0  0  0  0  2  0  0  0  0  0  0
  190.1930  171.6110  142.3750 O   0  0  0  0  0  1  0  0  0  0  0  0
  190.9790  172.5700  141.7290 C   0  0  1  0  0  3  0  0  0  0  0  0
  190.0690  170.7730  138.7710 C   0  0  2  0  0  3  0  0  0  0  0  0
  189.5630  172.9240  139.6590 C   0  0  0  0  0  2  0  0  0  0  0  0
  190.7090  170.3020  137.6250 O   0  0  0  0  0  1  0  0  0  0  0  0
  189.3380  172.0580  138.4540 C   0  0  0  0  0  2  0  0  0  0  0  0
  190.8860  172.4340  140.2090 C   0  0  2  0  0  3  0  0  0  0  0  0
  191.0550  171.0410  139.8120 N   0  0  0  0  0  2  0  0  0  0  0  0
  1  6  1  0  0  0  0
  1  9  1  0  0  0  0
  2  3  1  6  0  0  0
  2  5  1  0  0  0  0
  3  7  1  0  0  0  0
  4  7  1  0  0  0  0
  5 16  2  0  0  0  0
  5 14  1  0  0  0  0
  8 23  1  6  0  0  0
  8 12  1  0  0  0  0
 10 19  1  0  0  0  0
 10 18  2  0  0  0  0
 11  4  2  0  0  0  0
 12 16  1  0  0  0  0
 13 18  1  6  0  0  0
 13  2  1  0  0  0  0
 13  8  1  0  0  0  0
 14  1  2  0  0  0  0
 15 11  1  0  0  0  0
 16 17  1  0  0  0  0
 17  6  2  0  0  0  0
 19  3  2  0  0  0  0
 20 15  2  0  0  0  0
 20 19  1  0  0  0  0
 21 22  2  0  0  0  0
 22 23  1  0  0  0  0
 25 22  1  0  0  0  0
 25 24  1  1  0  0  0
 26 28  1  6  0  0  0
 26 31  1  0  0  0  0
 27 30  1  0  0  0  0
 29 26  1  0  0  0  0
 29 27  1  0  0  0  0
 30 25  1  1  0  0  0
 31 30  1  0  0  0  0
M  END
>  <MODEL>
4

>  <REMARK>
 VINA RESULT:      -8.1      2.578      5.658
  Name = 
  3 active torsions:
  status: ('A' for Active; 'I' for Inactive)
    1  A    between atoms: C_9  and  C_22
    2  A    between atoms: C_15  and  N_23
    3  A    between atoms: C_19  and  C_22
                            x       y       z     vdW  Elec       q    Type
                         _______ _______ _______ _____ _____    ______ ____

>  <TORSDO>
F 3

$$$$
=
 OpenBabel11052417453D

 31 35  0  0  1  0  0  0  0  0999 V2000
  190.8590  176.4600  147.1900 C   0  0  0  0  0  0  0  0  0  0  0  0
  188.3430  176.7770  144.2980 C   0  0  1  0  0  3  0  0  0  0  0  0
  187.1240  177.4500  144.9430 C   0  0  0  0  0  0  0  0  0  0  0  0
  186.3280  177.7760  147.2630 C   0  0  0  0  0  3  0  0  0  0  0  0
  189.4510  176.2600  145.2120 C   0  0  0  0  0  0  0  0  0  0  0  0
  191.6120  175.3600  146.7780 C   0  0  0  0  0  3  0  0  0  0  0  0
  187.2770  178.2360  146.2100 C   0  0  0  0  0  2  0  0  0  0  0  0
  189.0740  175.0590  142.6080 C   0  0  2  0  0  3  0  0  0  0  0  0
  191.1910  177.1550  148.4620 C   0  0  0  0  0  1  0  0  0  0  0  0
  185.9350  177.0590  142.8280 C   0  0  0  0  0  3  0  0  0  0  0  0
  185.0100  177.9030  147.1350 C   0  0  0  0  0  3  0  0  0  0  0  0
  190.0010  174.5430  143.5600 O   0  0  0  0  0  0  0  0  0  0  0  0
  187.8780  175.6650  143.3360 C   0  0  2  0  0  3  0  0  0  0  0  0
  189.7980  176.9140  146.4040 C   0  0  0  0  0  3  0  0  0  0  0  0
  184.3390  178.4220  145.9310 C   0  0  0  0  0  3  0  0  0  0  0  0
  190.2530  175.1790  144.7800 C   0  0  0  0  0  0  0  0  0  0  0  0
  191.3110  174.7240  145.5730 C   0  0  0  0  0  3  0  0  0  0  0  0
  186.8450  176.1920  142.3870 C   0  0  0  0  0  3  0  0  0  0  0  0
  185.9880  177.5850  144.2080 C   0  0  0  0  0  0  0  0  0  0  0  0
  184.7710  178.2930  144.6700 C   0  0  0  0  0  3  0  0  0  0  0  0
  190.5540  174.0380  140.3950 O   0  0  0  0  0  0  0  0  0  0  0  0
  189.4350  173.5120  140.6400 C   0  0  0  0  0  0  0  0  0  0  0  0
  188.6390  173.9820  141.7290 N   0  0  0  0  0  2  0  0  0  0  0  0
  188.1920  172.8210  138.7310 O   0  0  0  0  0  1  0  0  0  0  0  0
  188.9430  172.3650  139.8190 C   0  0  1  0  0  3  0  0  0  0  0  0
  190.8160  169.3190  139.9670 C   0  0  2  0  0  3  0  0  0  0  0  0
  189.6920  170.5230  138.2490 C   0  0  0  0  0  2  0  0  0  0  0  0
  192.1370  168.9430  140.2100 O   0  0  0  0  0  1  0  0  0  0  0  0
  190.5510  169.3140  138.4790 C   0  0  0  0  0  2  0  0  0  0  0  0
  190.0930  171.4660  139.3640 C   0  0  2  0  0  3  0  0  0  0  0  0
  190.5830  170.6650  140.4790 N   0  0  0  0  0  2  0  0  0  0  0  0
  1  9  1  0  0  0  0
  2  3  1  1  0  0  0
  2  5  1  0  0  0  0
  3  7  1  0  0  0  0
  5 14  1  0  0  0  0
  6  1  1  0  0  0  0
  7  4  1  0  0  0  0
  8 23  1  6  0  0  0
  8 13  1  0  0  0  0
  8 12  1  0  0  0  0
 10 19  1  0  0  0  0
 11  4  2  0  0  0  0
 12 16  1  0  0  0  0
 13 18  1  6  0  0  0
 13  2  1  0  0  0  0
 14  1  2  0  0  0  0
 15 11  1  0  0  0  0
 16  5  2  0  0  0  0
 16 17  1  0  0  0  0
 17  6  2  0  0  0  0
 18 10  2  0  0  0  0
 19 20  1  0  0  0  0
 19  3  2  0  0  0  0
 20 15  2  0  0  0  0
 21 22  2  0  0  0  0
 22 23  1  0  0  0  0
 25 24  1  6  0  0  0
 25 22  1  0  0  0  0
 26 28  1  6  0  0  0
 26 31  1  0  0  0  0
 27 29  1  0  0  0  0
 27 30  1  0  0  0  0
 29 26  1  0  0  0  0
 30 25  1  1  0  0  0
 30 31  1  0  0  0  0
M  END
>  <MODEL>
5

>  <REMARK>
 VINA RESULT:      -8.1      3.164      5.873
  Name = 
  3 active torsions:
  status: ('A' for Active; 'I' for Inactive)
    1  A    between atoms: C_9  and  C_22
    2  A    between atoms: C_15  and  N_23
    3  A    between atoms: C_19  and  C_22
                            x       y       z     vdW  Elec       q    Type
                         _______ _______ _______ _____ _____    ______ ____

>  <TORSDO>
F 3

$$$$
=
 OpenBabel11052417453D

 31 35  0  0  1  0  0  0  0  0999 V2000
  190.8880  172.4940  140.4570 C   0  0  0  0  0  0  0  0  0  0  0  0
  190.4680  175.5890  142.7020 C   0  0  1  0  0  3  0  0  0  0  0  0
  191.5820  175.4400  143.7470 C   0  0  0  0  0  0  0  0  0  0  0  0
  193.0080  173.5760  144.5320 C   0  0  0  0  0  3  0  0  0  0  0  0
  190.1680  174.4020  141.7910 C   0  0  0  0  0  0  0  0  0  0  0  0
  189.5880  172.3250  139.9780 C   0  0  0  0  0  3  0  0  0  0  0  0
  192.7780  174.5840  143.4570 C   0  0  0  0  0  2  0  0  0  0  0  0
  188.0900  176.3360  142.3430 C   0  0  2  0  0  3  0  0  0  0  0  0
  191.9680  171.5720  140.0180 C   0  0  0  0  0  1  0  0  0  0  0  0
  190.5920  177.3660  144.9080 C   0  0  0  0  0  3  0  0  0  0  0  0
  193.3350  173.9240  145.7740 C   0  0  0  0  0  3  0  0  0  0  0  0
  187.8440  175.1390  141.6080 O   0  0  0  0  0  0  0  0  0  0  0  0
  189.1760  176.0820  143.3840 C   0  0  2  0  0  3  0  0  0  0  0  0
  191.1760  173.5330  141.3440 C   0  0  0  0  0  3  0  0  0  0  0  0
  193.4260  175.3150  146.2490 C   0  0  0  0  0  3  0  0  0  0  0  0
  188.8670  174.2520  141.2580 C   0  0  0  0  0  0  0  0  0  0  0  0
  188.5810  173.2060  140.3750 C   0  0  0  0  0  3  0  0  0  0  0  0
  189.4550  177.2940  144.2190 C   0  0  0  0  0  3  0  0  0  0  0  0
  191.6260  176.3160  144.7850 C   0  0  0  0  0  0  0  0  0  0  0  0
  192.6940  176.3470  145.8110 C   0  0  0  0  0  3  0  0  0  0  0  0
  186.9800  178.9590  142.2050 O   0  0  0  0  0  0  0  0  0  0  0  0
  186.3520  178.0940  142.8740 C   0  0  0  0  0  0  0  0  0  0  0  0
  186.8570  176.7640  142.9910 N   0  0  0  0  0  2  0  0  0  0  0  0
  183.9780  177.9210  142.7900 O   0  0  0  0  0  1  0  0  0  0  0  0
  185.0510  178.4400  143.5220 C   0  0  1  0  0  3  0  0  0  0  0  0
  185.9490  178.7760  146.9700 C   0  0  2  0  0  3  0  0  0  0  0  0
  183.8980  178.6340  145.7700 C   0  0  0  0  0  2  0  0  0  0  0  0
  186.5820  178.0000  147.9410 O   0  0  0  0  0  1  0  0  0  0  0  0
  184.4500  178.7080  147.1630 C   0  0  0  0  0  2  0  0  0  0  0  0
  185.0080  177.9750  144.9780 C   0  0  2  0  0  3  0  0  0  0  0  0
  186.2730  178.2670  145.6420 N   0  0  0  0  0  2  0  0  0  0  0  0
  1 14  1  0  0  0  0
  2  5  1  1  0  0  0
  2 13  1  0  0  0  0
  2  3  1  0  0  0  0
  3 19  2  0  0  0  0
  4 11  2  0  0  0  0
  6 17  1  0  0  0  0
  6  1  2  0  0  0  0
  7  3  1  0  0  0  0
  7  4  1  0  0  0  0
  8 23  1  1  0  0  0
  8 13  1  0  0  0  0
  9  1  1  0  0  0  0
 11 15  1  0  0  0  0
 12  8  1  0  0  0  0
 13 18  1  6  0  0  0
 14  5  2  0  0  0  0
 16 12  1  0  0  0  0
 16  5  1  0  0  0  0
 17 16  2  0  0  0  0
 18 10  2  0  0  0  0
 19 10  1  0  0  0  0
 19 20  1  0  0  0  0
 20 15  2  0  0  0  0
 21 22  2  0  0  0  0
 22 23  1  0  0  0  0
 22 25  1  0  0  0  0
 25 24  1  6  0  0  0
 26 29  1  0  0  0  0
 26 28  1  1  0  0  0
 27 29  1  0  0  0  0
 30 25  1  6  0  0  0
 30 31  1  0  0  0  0
 30 27  1  0  0  0  0
 31 26  1  0  0  0  0
M  END
>  <MODEL>
6

>  <REMARK>
 VINA RESULT:      -8.0      2.787      6.941
  Name = 
  3 active torsions:
  status: ('A' for Active; 'I' for Inactive)
    1  A    between atoms: C_9  and  C_22
    2  A    between atoms: C_15  and  N_23
    3  A    between atoms: C_19  and  C_22
                            x       y       z     vdW  Elec       q    Type
                         _______ _______ _______ _____ _____    ______ ____

>  <TORSDO>
F 3

$$$$
=
 OpenBabel11052417453D

 31 35  0  0  1  0  0  0  0  0999 V2000
  186.0970  178.7070  143.7280 C   0  0  0  0  0  0  0  0  0  0  0  0
  188.2110  175.5040  143.9910 C   0  0  1  0  0  3  0  0  0  0  0  0
  188.9420  175.6550  145.3320 C   0  0  0  0  0  0  0  0  0  0  0  0
  189.4340  177.5420  146.8560 C   0  0  0  0  0  3  0  0  0  0  0  0
  187.4690  176.7150  143.4330 C   0  0  0  0  0  0  0  0  0  0  0  0
  185.9750  178.8410  142.3450 C   0  0  0  0  0  3  0  0  0  0  0  0
  188.4020  176.5720  146.3880 C   0  0  0  0  0  2  0  0  0  0  0  0
  188.4330  174.6740  141.6240 C   0  0  2  0  0  3  0  0  0  0  0  0
  185.4450  179.6910  144.6320 C   0  0  0  0  0  1  0  0  0  0  0  0
  190.2170  173.6420  144.7310 C   0  0  0  0  0  3  0  0  0  0  0  0
  190.5300  177.1550  147.5010 C   0  0  0  0  0  3  0  0  0  0  0  0
  187.8480  175.8900  141.1620 O   0  0  0  0  0  0  0  0  0  0  0  0
  189.1730  174.9280  142.9330 C   0  0  2  0  0  3  0  0  0  0  0  0
  186.8250  177.6440  144.2650 C   0  0  0  0  0  3  0  0  0  0  0  0
  190.8940  175.7500  147.7520 C   0  0  0  0  0  3  0  0  0  0  0  0
  187.2950  176.8330  142.0340 C   0  0  0  0  0  0  0  0  0  0  0  0
  186.5700  177.9030  141.5000 C   0  0  0  0  0  3  0  0  0  0  0  0
  189.8460  173.6950  143.4530 C   0  0  0  0  0  3  0  0  0  0  0  0
  189.8880  174.7380  145.6670 C   0  0  0  0  0  0  0  0  0  0  0  0
  190.6040  174.7080  146.9630 C   0  0  0  0  0  3  0  0  0  0  0  0
  187.8160  172.6650  139.6960 O   0  0  0  0  0  0  0  0  0  0  0  0
  188.9750  173.1640  139.6690 C   0  0  0  0  0  0  0  0  0  0  0  0
  189.3510  174.1680  140.6130 N   0  0  0  0  0  2  0  0  0  0  0  0
  190.4580  171.4630  138.9100 O   0  0  0  0  0  1  0  0  0  0  0  0
  189.9570  172.7380  138.6270 C   0  0  1  0  0  3  0  0  0  0  0  0
  189.6320  174.2310  135.3910 C   0  0  2  0  0  3  0  0  0  0  0  0
  190.1780  172.0580  136.1960 C   0  0  0  0  0  2  0  0  0  0  0  0
  188.6080  174.7680  134.6120 O   0  0  0  0  0  1  0  0  0  0  0  0
  189.9380  172.8240  134.9280 C   0  0  0  0  0  2  0  0  0  0  0  0
  189.3490  172.7990  137.2250 C   0  0  2  0  0  3  0  0  0  0  0  0
  189.2180  174.1840  136.7880 N   0  0  0  0  0  2  0  0  0  0  0  0
  1 14  1  0  0  0  0
  1  9  1  0  0  0  0
  2  5  1  6  0  0  0
  2  3  1  0  0  0  0
  3 19  2  0  0  0  0
  3  7  1  0  0  0  0
  4 11  2  0  0  0  0
  5 14  2  0  0  0  0
  6  1  2  0  0  0  0
  7  4  1  0  0  0  0
  8 23  1  6  0  0  0
  8 13  1  0  0  0  0
 10 19  1  0  0  0  0
 11 15  1  0  0  0  0
 12  8  1  0  0  0  0
 12 16  1  0  0  0  0
 13 18  1  1  0  0  0
 13  2  1  0  0  0  0
 16  5  1  0  0  0  0
 17 16  2  0  0  0  0
 17  6  1  0  0  0  0
 18 10  2  0  0  0  0
 19 20  1  0  0  0  0
 20 15  2  0  0  0  0
 22 21  2  0  0  0  0
 22 23  1  0  0  0  0
 25 24  1  1  0  0  0
 25 22  1  0  0  0  0
 26 28  1  6  0  0  0
 26 31  1  0  0  0  0
 27 30  1  0  0  0  0
 29 26  1  0  0  0  0
 29 27  1  0  0  0  0
 30 25  1  1  0  0  0
 31 30  1  0  0  0  0
M  END
>  <MODEL>
7

>  <REMARK>
 VINA RESULT:      -7.9      3.674      5.778
  Name = 
  3 active torsions:
  status: ('A' for Active; 'I' for Inactive)
    1  A    between atoms: C_9  and  C_22
    2  A    between atoms: C_15  and  N_23
    3  A    between atoms: C_19  and  C_22
                            x       y       z     vdW  Elec       q    Type
                         _______ _______ _______ _____ _____    ______ ____

>  <TORSDO>
F 3

$$$$
=
 OpenBabel11052417453D

 31 35  0  0  1  0  0  0  0  0999 V2000
  191.4460  176.3730  147.3740 C   0  0  0  0  0  0  0  0  0  0  0  0
  189.1800  176.3960  144.2650 C   0  0  1  0  0  3  0  0  0  0  0  0
  187.8300  176.8950  144.7980 C   0  0  0  0  0  0  0  0  0  0  0  0
  186.7930  177.0840  147.0370 C   0  0  0  0  0  3  0  0  0  0  0  0
  190.2590  176.0170  145.2760 C   0  0  0  0  0  0  0  0  0  0  0  0
  192.3710  175.3870  147.0310 C   0  0  0  0  0  3  0  0  0  0  0  0
  187.7640  177.6780  146.0750 C   0  0  0  0  0  2  0  0  0  0  0  0
  190.2790  174.8110  142.6470 C   0  0  2  0  0  3  0  0  0  0  0  0
  191.5680  177.0880  148.6710 C   0  0  0  0  0  1  0  0  0  0  0  0
  186.8970  176.3800  142.5840 C   0  0  0  0  0  3  0  0  0  0  0  0
  185.4860  177.0380  146.7900 C   0  0  0  0  0  3  0  0  0  0  0  0
  191.1770  174.4080  143.6780 O   0  0  0  0  0  0  0  0  0  0  0  0
  188.9540  175.2460  143.2640 C   0  0  2  0  0  3  0  0  0  0  0  0
  190.4090  176.6940  146.4960 C   0  0  0  0  0  3  0  0  0  0  0  0
  184.8640  177.4810  145.5300 C   0  0  0  0  0  3  0  0  0  0  0  0
  191.2330  175.0560  144.9170 C   0  0  0  0  0  0  0  0  0  0  0  0
  192.2660  174.7320  145.8020 C   0  0  0  0  0  3  0  0  0  0  0  0
  187.9490  175.6460  142.2260 C   0  0  0  0  0  3  0  0  0  0  0  0
  186.7560  176.8910  143.9640 C   0  0  0  0  0  0  0  0  0  0  0  0
  185.4210  177.4260  144.3140 C   0  0  0  0  0  3  0  0  0  0  0  0
  192.1450  173.9220  140.6810 O   0  0  0  0  0  0  0  0  0  0  0  0
  191.0520  173.2990  140.7730 C   0  0  0  0  0  0  0  0  0  0  0  0
  190.0700  173.6980  141.7300 N   0  0  0  0  0  2  0  0  0  0  0  0
  190.3470  171.0270  140.6730 O   0  0  0  0  0  1  0  0  0  0  0  0
  190.7850  172.1110  139.9060 C   0  0  1  0  0  3  0  0  0  0  0  0
  189.9810  173.5050  136.7100 C   0  0  2  0  0  3  0  0  0  0  0  0
  189.7320  171.3670  137.7260 C   0  0  0  0  0  2  0  0  0  0  0  0
  189.1070  174.4690  136.2060 O   0  0  0  0  0  1  0  0  0  0  0  0
  189.4080  172.1260  136.4720 C   0  0  0  0  0  2  0  0  0  0  0  0
  189.7930  172.4420  138.7900 C   0  0  2  0  0  3  0  0  0  0  0  0
  190.1550  173.6980  138.1450 N   0  0  0  0  0  2  0  0  0  0  0  0
  1  9  1  0  0  0  0
  2  3  1  1  0  0  0
  2  5  1  0  0  0  0
  3  7  1  0  0  0  0
  5 14  1  0  0  0  0
  6  1  1  0  0  0  0
  7  4  1  0  0  0  0
  8 23  1  6  0  0  0
  8 13  1  0  0  0  0
  8 12  1  0  0  0  0
 10 19  1  0  0  0  0
 11  4  2  0  0  0  0
 12 16  1  0  0  0  0
 13 18  1  6  0  0  0
 13  2  1  0  0  0  0
 14  1  2  0  0  0  0
 15 11  1  0  0  0  0
 16  5  2  0  0  0  0
 16 17  1  0  0  0  0
 17  6  2  0  0  0  0
 18 10  2  0  0  0  0
 19 20  1  0  0  0  0
 19  3  2  0  0  0  0
 20 15  2  0  0  0  0
 21 22  2  0  0  0  0
 22 23  1  0  0  0  0
 25 24  1  1  0  0  0
 25 22  1  0  0  0  0
 26 28  1  1  0  0  0
 26 31  1  0  0  0  0
 27 30  1  0  0  0  0
 29 26  1  0  0  0  0
 29 27  1  0  0  0  0
 30 25  1  1  0  0  0
 31 30  1  0  0  0  0
M  END
>  <MODEL>
8

>  <REMARK>
 VINA RESULT:      -7.8      3.042      6.182
  Name = 
  3 active torsions:
  status: ('A' for Active; 'I' for Inactive)
    1  A    between atoms: C_9  and  C_22
    2  A    between atoms: C_15  and  N_23
    3  A    between atoms: C_19  and  C_22
                            x       y       z     vdW  Elec       q    Type
                         _______ _______ _______ _____ _____    ______ ____

>  <TORSDO>
F 3

$$$$
=
 OpenBabel11052417453D

 31 35  0  0  1  0  0  0  0  0999 V2000
  186.3770  178.2540  146.8860 C   0  0  0  0  0  0  0  0  0  0  0  0
  187.2690  177.4100  143.2400 C   0  0  1  0  0  3  0  0  0  0  0  0
  186.0550  177.9030  142.4410 C   0  0  0  0  0  0  0  0  0  0  0  0
  183.7170  178.4950  142.9950 C   0  0  0  0  0  3  0  0  0  0  0  0
  187.1570  177.3510  144.7610 C   0  0  0  0  0  0  0  0  0  0  0  0
  187.1160  177.2950  147.5780 C   0  0  0  0  0  3  0  0  0  0  0  0
  185.1400  178.9400  143.0200 C   0  0  0  0  0  2  0  0  0  0  0  0
  189.0150  175.6020  143.3990 C   0  0  2  0  0  3  0  0  0  0  0  0
  185.5590  179.2450  147.6340 C   0  0  0  0  0  1  0  0  0  0  0  0
  187.0680  176.8410  140.4700 C   0  0  0  0  0  3  0  0  0  0  0  0
  183.0570  178.2910  141.8580 C   0  0  0  0  0  3  0  0  0  0  0  0
  188.7660  175.5100  144.8000 O   0  0  0  0  0  0  0  0  0  0  0  0
  187.7460  176.0540  142.6840 C   0  0  2  0  0  3  0  0  0  0  0  0
  186.4110  178.2900  145.4910 C   0  0  0  0  0  3  0  0  0  0  0  0
  183.6600  178.3940  140.5180 C   0  0  0  0  0  3  0  0  0  0  0  0
  187.9420  176.4160  145.4750 C   0  0  0  0  0  0  0  0  0  0  0  0
  187.9010  176.3800  146.8720 C   0  0  0  0  0  3  0  0  0  0  0  0
  187.9300  176.1330  141.1990 C   0  0  0  0  0  3  0  0  0  0  0  0
  185.9940  177.6290  141.1110 C   0  0  0  0  0  0  0  0  0  0  0  0
  184.9320  178.1180  140.2030 C   0  0  0  0  0  3  0  0  0  0  0  0
  191.5360  175.0500  142.1860 O   0  0  0  0  0  0  0  0  0  0  0  0
  190.7250  174.0920  142.3100 C   0  0  0  0  0  0  0  0  0  0  0  0
  189.4420  174.3020  142.9000 N   0  0  0  0  0  2  0  0  0  0  0  0
  191.5390  172.7200  140.5420 O   0  0  0  0  0  1  0  0  0  0  0  0
  191.1110  172.7160  141.8740 C   0  0  1  0  0  3  0  0  0  0  0  0
  194.1150  172.9370  143.8060 C   0  0  2  0  0  3  0  0  0  0  0  0
  191.8590  172.3290  144.2630 C   0  0  0  0  0  2  0  0  0  0  0  0
  195.3460  172.2840  143.8590 O   0  0  0  0  0  1  0  0  0  0  0  0
  193.2140  172.4160  144.9020 C   0  0  0  0  0  2  0  0  0  0  0  0
  192.1680  172.1090  142.7970 C   0  0  2  0  0  3  0  0  0  0  0  0
  193.4780  172.6870  142.5180 N   0  0  0  0  0  2  0  0  0  0  0  0
  1  6  1  0  0  0  0
  1  9  1  0  0  0  0
  2  3  1  6  0  0  0
  2  5  1  0  0  0  0
  3  7  1  0  0  0  0
  4  7  1  0  0  0  0
  5 16  2  0  0  0  0
  5 14  1  0  0  0  0
  8 23  1  6  0  0  0
  8 12  1  0  0  0  0
 10 19  1  0  0  0  0
 10 18  2  0  0  0  0
 11  4  2  0  0  0  0
 12 16  1  0  0  0  0
 13 18  1  6  0  0  0
 13  2  1  0  0  0  0
 13  8  1  0  0  0  0
 14  1  2  0  0  0  0
 15 11  1  0  0  0  0
 16 17  1  0  0  0  0
 17  6  2  0  0  0  0
 19  3  2  0  0  0  0
 20 15  2  0  0  0  0
 20 19  1  0  0  0  0
 21 22  2  0  0  0  0
 22 23  1  0  0  0  0
 25 24  1  6  0  0  0
 25 22  1  0  0  0  0
 26 28  1  6  0  0  0
 26 29  1  0  0  0  0
 27 29  1  0  0  0  0
 30 25  1  6  0  0  0
 30 27  1  0  0  0  0
 31 30  1  0  0  0  0
 31 26  1  0  0  0  0
M  END
>  <MODEL>
9

>  <REMARK>
 VINA RESULT:      -7.8      2.044      4.494
  Name = 
  3 active torsions:
  status: ('A' for Active; 'I' for Inactive)
    1  A    between atoms: C_9  and  C_22
    2  A    between atoms: C_15  and  N_23
    3  A    between atoms: C_19  and  C_22
                            x       y       z     vdW  Elec       q    Type
                         _______ _______ _______ _____ _____    ______ ____

>  <TORSDO>
F 3

$$$$
