=
 OpenBabel11052418033D

 28 30  0  0  1  0  0  0  0  0999 V2000
  190.6470  176.3530  145.2550 C   0  0  0  0  0  2  0  0  0  0  0  0
  189.2940  174.9690  146.8370 C   0  0  0  0  0  1  0  0  0  0  0  0
  189.1740  177.4570  146.9460 C   0  0  0  0  0  1  0  0  0  0  0  0
  190.0830  176.2630  146.6740 C   0  0  0  0  0  0  0  0  0  0  0  0
  191.2730  176.2780  147.6390 C   0  0  0  0  0  2  0  0  0  0  0  0
  193.6280  175.9570  146.4040 C   0  0  0  0  0  0  0  0  0  0  0  0
  192.5700  176.1070  146.9620 C   0  0  0  0  0  0  0  0  0  0  0  0
  194.9090  175.7640  145.7190 C   0  0  0  0  0  2  0  0  0  0  0  0
  196.9190  172.5660  146.0110 C   0  0  0  0  0  3  0  0  0  0  0  0
  195.2710  174.3180  145.7120 C   0  0  0  0  0  0  0  0  0  0  0  0
  194.6680  172.0050  145.3140 C   0  0  0  0  0  0  0  0  0  0  0  0
  196.5720  173.9200  146.0400 C   0  0  0  0  0  3  0  0  0  0  0  0
  194.3200  173.3580  145.3430 C   0  0  0  0  0  3  0  0  0  0  0  0
  193.7010  171.0310  144.9390 N   0  0  0  0  0  1  0  0  0  0  0  0
  195.9660  171.6080  145.6490 C   0  0  0  0  0  3  0  0  0  0  0  0
  191.2530  177.7980  143.3210 C   0  0  0  0  0  2  0  0  0  0  0  0
  189.7410  177.7300  143.2610 C   0  0  2  0  0  3  0  0  0  0  0  0
  190.4640  177.7320  144.6140 C   0  0  1  0  0  3  0  0  0  0  0  0
  189.2260  176.0850  142.6470 S   0  0  0  0  0  0  0  0  0  0  0  0
  187.4530  176.4750  142.7830 C   0  0  0  0  0  2  0  0  0  0  0  0
  187.0260  176.4110  144.1760 N   0  0  0  0  0  0  0  0  0  0  0  0
  186.0200  177.0520  144.7000 C   0  0  0  0  0  0  0  0  0  0  0  0
  183.9480  178.5870  146.0410 C   0  0  0  0  0  2  0  0  0  0  0  0
  185.7670  176.8770  146.1670 C   0  0  0  0  0  2  0  0  0  0  0  0
  184.9260  177.7380  142.6410 N   0  0  0  0  0  2  0  0  0  0  0  0
  185.0700  177.8890  143.9170 C   0  0  0  0  0  0  0  0  0  0  0  0
  184.3040  178.9770  144.6080 C   0  0  0  0  0  2  0  0  0  0  0  0
  185.2000  178.1500  146.7930 C   0  0  0  0  0  2  0  0  0  0  0  0
  1  4  1  0  0  0  0
  4  2  1  0  0  0  0
  4  3  1  0  0  0  0
  4  5  1  0  0  0  0
  6  7  3  0  0  0  0
  7  5  1  0  0  0  0
  8  6  1  0  0  0  0
  9 12  1  0  0  0  0
 10  8  1  0  0  0  0
 10 12  2  0  0  0  0
 11 13  2  0  0  0  0
 11 15  1  0  0  0  0
 13 10  1  0  0  0  0
 14 11  1  0  0  0  0
 15  9  2  0  0  0  0
 16 18  1  0  0  0  0
 17 19  1  6  0  0  0
 17 16  1  0  0  0  0
 17 18  1  0  0  0  0
 18  1  1  6  0  0  0
 19 20  1  0  0  0  0
 20 21  1  0  0  0  0
 21 22  2  0  0  0  0
 22 24  1  0  0  0  0
 23 28  1  0  0  0  0
 24 28  1  0  0  0  0
 25 26  2  0  0  0  0
 26 27  1  0  0  0  0
 26 22  1  0  0  0  0
 27 23  1  0  0  0  0
M  END
>  <MODEL>
1

>  <REMARK>
 VINA RESULT:      -7.5      0.000      0.000
  Name = 
  9 active torsions:
  status: ('A' for Active; 'I' for Inactive)
    1  A    between atoms: C_1  and  N_2
    2  A    between atoms: C_1  and  S_26
    3  A    between atoms: C_5  and  C_21
    4  A    between atoms: C_5  and  C_27
    5  A    between atoms: C_9  and  C_18
    6  A    between atoms: C_14  and  C_18
    7  A    between atoms: C_19  and  S_26
    8  A    between atoms: C_20  and  C_25
    9  A    between atoms: C_20  and  C_27
                            x       y       z     vdW  Elec       q    Type
                         _______ _______ _______ _____ _____    ______ ____

>  <TORSDO>
F 9

$$$$
=
 OpenBabel11052418033D

 28 30  0  0  1  0  0  0  0  0999 V2000
  190.3590  176.4650  145.3360 C   0  0  0  0  0  2  0  0  0  0  0  0
  189.0630  175.1180  146.9950 C   0  0  0  0  0  1  0  0  0  0  0  0
  188.9810  177.6080  147.0810 C   0  0  0  0  0  1  0  0  0  0  0  0
  189.8610  176.4000  146.7800 C   0  0  0  0  0  0  0  0  0  0  0  0
  191.0950  176.4090  147.6880 C   0  0  0  0  0  2  0  0  0  0  0  0
  193.3530  175.7240  146.4220 C   0  0  0  0  0  0  0  0  0  0  0  0
  192.3330  176.0290  146.9870 C   0  0  0  0  0  0  0  0  0  0  0  0
  194.6000  175.3580  145.7440 C   0  0  0  0  0  2  0  0  0  0  0  0
  193.1580  175.0800  142.2520 C   0  0  0  0  0  3  0  0  0  0  0  0
  194.4370  175.4930  144.2690 C   0  0  0  0  0  0  0  0  0  0  0  0
  195.2940  176.2140  142.1190 C   0  0  0  0  0  0  0  0  0  0  0  0
  193.3000  174.9730  143.6390 C   0  0  0  0  0  3  0  0  0  0  0  0
  195.4380  176.1090  143.5060 C   0  0  0  0  0  3  0  0  0  0  0  0
  196.3110  176.8410  141.3460 N   0  0  0  0  0  1  0  0  0  0  0  0
  194.1550  175.7010  141.4920 C   0  0  0  0  0  3  0  0  0  0  0  0
  191.0140  177.9510  143.4500 C   0  0  0  0  0  2  0  0  0  0  0  0
  189.5190  177.7780  143.2700 C   0  0  2  0  0  3  0  0  0  0  0  0
  190.1310  177.8300  144.6760 C   0  0  1  0  0  3  0  0  0  0  0  0
  189.1710  176.1020  142.6240 S   0  0  0  0  0  0  0  0  0  0  0  0
  187.3680  176.3360  142.6990 C   0  0  0  0  0  2  0  0  0  0  0  0
  186.9070  176.2920  144.0820 N   0  0  0  0  0  0  0  0  0  0  0  0
  185.9400  177.0010  144.5920 C   0  0  0  0  0  0  0  0  0  0  0  0
  183.9610  178.6730  145.9060 C   0  0  0  0  0  2  0  0  0  0  0  0
  185.6440  176.8320  146.0520 C   0  0  0  0  0  2  0  0  0  0  0  0
  184.9440  177.7850  142.5180 N   0  0  0  0  0  2  0  0  0  0  0  0
  185.0720  177.9130  143.7980 C   0  0  0  0  0  0  0  0  0  0  0  0
  184.3750  179.0490  144.4840 C   0  0  0  0  0  2  0  0  0  0  0  0
  185.1600  178.1370  146.6790 C   0  0  0  0  0  2  0  0  0  0  0  0
  1  4  1  0  0  0  0
  4  2  1  0  0  0  0
  4  3  1  0  0  0  0
  4  5  1  0  0  0  0
  6  7  3  0  0  0  0
  7  5  1  0  0  0  0
  8  6  1  0  0  0  0
  9 12  1  0  0  0  0
 10  8  1  0  0  0  0
 11 13  2  0  0  0  0
 12 10  2  0  0  0  0
 13 10  1  0  0  0  0
 14 11  1  0  0  0  0
 15 11  1  0  0  0  0
 15  9  2  0  0  0  0
 16 18  1  0  0  0  0
 17 19  1  6  0  0  0
 17 16  1  0  0  0  0
 17 18  1  0  0  0  0
 18  1  1  6  0  0  0
 19 20  1  0  0  0  0
 20 21  1  0  0  0  0
 21 22  2  0  0  0  0
 22 24  1  0  0  0  0
 23 28  1  0  0  0  0
 24 28  1  0  0  0  0
 25 26  2  0  0  0  0
 26 27  1  0  0  0  0
 26 22  1  0  0  0  0
 27 23  1  0  0  0  0
M  END
>  <MODEL>
2

>  <REMARK>
 VINA RESULT:      -7.5      1.989      2.598
  Name = 
  9 active torsions:
  status: ('A' for Active; 'I' for Inactive)
    1  A    between atoms: C_1  and  N_2
    2  A    between atoms: C_1  and  S_26
    3  A    between atoms: C_5  and  C_21
    4  A    between atoms: C_5  and  C_27
    5  A    between atoms: C_9  and  C_18
    6  A    between atoms: C_14  and  C_18
    7  A    between atoms: C_19  and  S_26
    8  A    between atoms: C_20  and  C_25
    9  A    between atoms: C_20  and  C_27
                            x       y       z     vdW  Elec       q    Type
                         _______ _______ _______ _____ _____    ______ ____

>  <TORSDO>
F 9

$$$$
=
 OpenBabel11052418033D

 28 30  0  0  1  0  0  0  0  0999 V2000
  192.4300  174.8830  145.9440 C   0  0  0  0  0  2  0  0  0  0  0  0
  194.6880  173.8610  145.6200 C   0  0  0  0  0  1  0  0  0  0  0  0
  194.4910  176.1960  146.4720 C   0  0  0  0  0  1  0  0  0  0  0  0
  193.8810  175.1520  145.5430 C   0  0  0  0  0  0  0  0  0  0  0  0
  193.8660  175.6760  144.1030 C   0  0  0  0  0  2  0  0  0  0  0  0
  191.7820  177.2790  143.5910 C   0  0  0  0  0  0  0  0  0  0  0  0
  192.7240  176.5620  143.8210 C   0  0  0  0  0  0  0  0  0  0  0  0
  190.6300  178.1410  143.3130 C   0  0  0  0  0  2  0  0  0  0  0  0
  188.4760  175.2160  142.2370 C   0  0  0  0  0  3  0  0  0  0  0  0
  189.5440  177.3480  142.6700 C   0  0  0  0  0  0  0  0  0  0  0  0
  187.6000  177.2350  141.2270 C   0  0  0  0  0  0  0  0  0  0  0  0
  189.4820  175.9630  142.8590 C   0  0  0  0  0  3  0  0  0  0  0  0
  188.6040  177.9840  141.8480 C   0  0  0  0  0  3  0  0  0  0  0  0
  186.6460  177.8810  140.3920 N   0  0  0  0  0  1  0  0  0  0  0  0
  187.5350  175.8520  141.4220 C   0  0  0  0  0  3  0  0  0  0  0  0
  191.2460  176.6390  147.2520 C   0  0  0  0  0  2  0  0  0  0  0  0
  190.5950  175.3490  147.7070 C   0  0  2  0  0  3  0  0  0  0  0  0
  192.0870  175.3810  147.3520 C   0  0  1  0  0  3  0  0  0  0  0  0
  189.4860  174.7260  146.3920 S   0  0  0  0  0  0  0  0  0  0  0  0
  188.1090  175.8010  146.9020 C   0  0  0  0  0  2  0  0  0  0  0  0
  187.7700  176.7330  145.8320 N   0  0  0  0  0  0  0  0  0  0  0  0
  186.7030  177.4780  145.7720 C   0  0  0  0  0  0  0  0  0  0  0  0
  184.2690  179.0230  145.4070 C   0  0  0  0  0  2  0  0  0  0  0  0
  186.5230  178.3470  144.5640 C   0  0  0  0  0  2  0  0  0  0  0  0
  185.9740  177.2370  148.0790 N   0  0  0  0  0  2  0  0  0  0  0  0
  185.6910  177.5670  146.8620 C   0  0  0  0  0  0  0  0  0  0  0  0
  184.2910  177.9910  146.5330 C   0  0  0  0  0  2  0  0  0  0  0  0
  185.0470  178.5040  144.2030 C   0  0  0  0  0  2  0  0  0  0  0  0
  4  2  1  0  0  0  0
  4  1  1  0  0  0  0
  4  3  1  0  0  0  0
  5  4  1  0  0  0  0
  6  7  3  0  0  0  0
  7  5  1  0  0  0  0
  8  6  1  0  0  0  0
  9 12  1  0  0  0  0
 10 12  2  0  0  0  0
 10  8  1  0  0  0  0
 11 15  1  0  0  0  0
 11 13  2  0  0  0  0
 13 10  1  0  0  0  0
 14 11  1  0  0  0  0
 15  9  2  0  0  0  0
 16 18  1  0  0  0  0
 16 17  1  0  0  0  0
 17 19  1  6  0  0  0
 18  1  1  6  0  0  0
 18 17  1  0  0  0  0
 19 20  1  0  0  0  0
 21 20  1  0  0  0  0
 22 21  2  0  0  0  0
 22 26  1  0  0  0  0
 23 27  1  0  0  0  0
 24 22  1  0  0  0  0
 26 25  2  0  0  0  0
 27 26  1  0  0  0  0
 28 24  1  0  0  0  0
 28 23  1  0  0  0  0
M  END
>  <MODEL>
3

>  <REMARK>
 VINA RESULT:      -7.4      2.261      5.686
  Name = 
  9 active torsions:
  status: ('A' for Active; 'I' for Inactive)
    1  A    between atoms: C_1  and  N_2
    2  A    between atoms: C_1  and  S_26
    3  A    between atoms: C_5  and  C_21
    4  A    between atoms: C_5  and  C_27
    5  A    between atoms: C_9  and  C_18
    6  A    between atoms: C_14  and  C_18
    7  A    between atoms: C_19  and  S_26
    8  A    between atoms: C_20  and  C_25
    9  A    between atoms: C_20  and  C_27
                            x       y       z     vdW  Elec       q    Type
                         _______ _______ _______ _____ _____    ______ ____

>  <TORSDO>
F 9

$$$$
=
 OpenBabel11052418033D

 28 30  0  0  1  0  0  0  0  0999 V2000
  192.0110  175.4290  145.9290 C   0  0  0  0  0  2  0  0  0  0  0  0
  191.1740  175.2700  148.2790 C   0  0  0  0  0  1  0  0  0  0  0  0
  189.7860  174.3920  146.4030 C   0  0  0  0  0  1  0  0  0  0  0  0
  190.7710  175.4770  146.8230 C   0  0  0  0  0  0  0  0  0  0  0  0
  190.1360  176.8600  146.6460 C   0  0  0  0  0  2  0  0  0  0  0  0
  187.4760  176.8480  146.9600 C   0  0  0  0  0  0  0  0  0  0  0  0
  188.6740  176.8540  146.8250 C   0  0  0  0  0  0  0  0  0  0  0  0
  186.0180  176.8410  147.1100 C   0  0  0  0  0  2  0  0  0  0  0  0
  183.8090  179.1440  145.0690 C   0  0  0  0  0  3  0  0  0  0  0  0
  185.3820  177.5220  145.9480 C   0  0  0  0  0  0  0  0  0  0  0  0
  185.0990  177.7640  143.5530 C   0  0  0  0  0  0  0  0  0  0  0  0
  184.4240  178.5200  146.1600 C   0  0  0  0  0  3  0  0  0  0  0  0
  185.7150  177.1400  144.6420 C   0  0  0  0  0  3  0  0  0  0  0  0
  185.4380  177.3760  142.2270 N   0  0  0  0  0  1  0  0  0  0  0  0
  184.1470  178.7660  143.7660 C   0  0  0  0  0  3  0  0  0  0  0  0
  194.2050  176.4850  146.4430 C   0  0  0  0  0  2  0  0  0  0  0  0
  194.0070  176.7640  144.9670 C   0  0  2  0  0  3  0  0  0  0  0  0
  192.8060  176.7390  145.9200 C   0  0  1  0  0  3  0  0  0  0  0  0
  194.2860  175.2290  144.0120 S   0  0  0  0  0  0  0  0  0  0  0  0
  193.4430  175.8740  142.5330 C   0  0  0  0  0  2  0  0  0  0  0  0
  192.4120  174.9420  142.0900 N   0  0  0  0  0  0  0  0  0  0  0  0
  191.1260  175.1050  142.2140 C   0  0  0  0  0  0  0  0  0  0  0  0
  188.2520  175.2390  142.6240 C   0  0  0  0  0  2  0  0  0  0  0  0
  190.2310  174.0070  141.7230 C   0  0  0  0  0  2  0  0  0  0  0  0
  191.1200  177.4730  142.7640 N   0  0  0  0  0  2  0  0  0  0  0  0
  190.4930  176.3420  142.7500 C   0  0  0  0  0  0  0  0  0  0  0  0
  189.1200  176.2690  143.3450 C   0  0  0  0  0  2  0  0  0  0  0  0
  188.9670  173.8940  142.5720 C   0  0  0  0  0  2  0  0  0  0  0  0
  1  4  1  0  0  0  0
  3  4  1  0  0  0  0
  4  2  1  0  0  0  0
  5  4  1  0  0  0  0
  5  7  1  0  0  0  0
  6  8  1  0  0  0  0
  7  6  3  0  0  0  0
  9 12  1  0  0  0  0
 10 12  2  0  0  0  0
 10  8  1  0  0  0  0
 11 15  1  0  0  0  0
 11 13  2  0  0  0  0
 13 10  1  0  0  0  0
 14 11  1  0  0  0  0
 15  9  2  0  0  0  0
 17 19  1  6  0  0  0
 17 18  1  0  0  0  0
 17 16  1  0  0  0  0
 18  1  1  6  0  0  0
 18 16  1  0  0  0  0
 20 19  1  0  0  0  0
 21 22  2  0  0  0  0
 21 20  1  0  0  0  0
 22 26  1  0  0  0  0
 23 27  1  0  0  0  0
 24 22  1  0  0  0  0
 24 28  1  0  0  0  0
 26 25  2  0  0  0  0
 26 27  1  0  0  0  0
 28 23  1  0  0  0  0
M  END
>  <MODEL>
4

>  <REMARK>
 VINA RESULT:      -7.3      2.565      7.581
  Name = 
  9 active torsions:
  status: ('A' for Active; 'I' for Inactive)
    1  A    between atoms: C_1  and  N_2
    2  A    between atoms: C_1  and  S_26
    3  A    between atoms: C_5  and  C_21
    4  A    between atoms: C_5  and  C_27
    5  A    between atoms: C_9  and  C_18
    6  A    between atoms: C_14  and  C_18
    7  A    between atoms: C_19  and  S_26
    8  A    between atoms: C_20  and  C_25
    9  A    between atoms: C_20  and  C_27
                            x       y       z     vdW  Elec       q    Type
                         _______ _______ _______ _____ _____    ______ ____

>  <TORSDO>
F 9

$$$$
=
 OpenBabel11052418033D

 28 30  0  0  1  0  0  0  0  0999 V2000
  190.4900  176.5060  145.2690 C   0  0  0  0  0  2  0  0  0  0  0  0
  189.2750  177.6090  147.1540 C   0  0  0  0  0  1  0  0  0  0  0  0
  191.2880  176.2140  147.6200 C   0  0  0  0  0  1  0  0  0  0  0  0
  190.0600  176.3720  146.7300 C   0  0  0  0  0  0  0  0  0  0  0  0
  189.1730  175.1270  146.8320 C   0  0  0  0  0  2  0  0  0  0  0  0
  189.9000  173.1840  145.1380 C   0  0  0  0  0  0  0  0  0  0  0  0
  189.5710  174.0550  145.9050 C   0  0  0  0  0  0  0  0  0  0  0  0
  190.3030  172.1350  144.1970 C   0  0  0  0  0  2  0  0  0  0  0  0
  188.1050  172.8630  141.1990 C   0  0  0  0  0  3  0  0  0  0  0  0
  189.8720  172.4950  142.8170 C   0  0  0  0  0  0  0  0  0  0  0  0
  190.4230  173.0590  140.5250 C   0  0  0  0  0  0  0  0  0  0  0  0
  188.5090  172.5480  142.5000 C   0  0  0  0  0  3  0  0  0  0  0  0
  190.8290  172.7460  141.8260 C   0  0  0  0  0  3  0  0  0  0  0  0
  191.3960  173.3150  139.5190 N   0  0  0  0  0  1  0  0  0  0  0  0
  189.0620  173.1190  140.2120 C   0  0  0  0  0  3  0  0  0  0  0  0
  191.0700  178.0950  143.4440 C   0  0  0  0  0  2  0  0  0  0  0  0
  189.5780  177.8890  143.2820 C   0  0  2  0  0  3  0  0  0  0  0  0
  190.2140  177.8920  144.6780 C   0  0  1  0  0  3  0  0  0  0  0  0
  189.2630  176.2360  142.5640 S   0  0  0  0  0  0  0  0  0  0  0  0
  187.4560  176.4020  142.7130 C   0  0  0  0  0  2  0  0  0  0  0  0
  187.0540  176.3270  144.1130 N   0  0  0  0  0  0  0  0  0  0  0  0
  186.0730  176.9830  144.6660 C   0  0  0  0  0  0  0  0  0  0  0  0
  184.0640  178.5440  146.0690 C   0  0  0  0  0  2  0  0  0  0  0  0
  185.8440  176.7920  146.1350 C   0  0  0  0  0  2  0  0  0  0  0  0
  184.9560  177.7250  142.6390 N   0  0  0  0  0  2  0  0  0  0  0  0
  185.1280  177.8530  143.9140 C   0  0  0  0  0  0  0  0  0  0  0  0
  184.4010  178.9480  144.6350 C   0  0  0  0  0  2  0  0  0  0  0  0
  185.3190  178.0670  146.7900 C   0  0  0  0  0  2  0  0  0  0  0  0
  1  4  1  0  0  0  0
  4  5  1  0  0  0  0
  4  2  1  0  0  0  0
  4  3  1  0  0  0  0
  6  7  3  0  0  0  0
  7  5  1  0  0  0  0
  8  6  1  0  0  0  0
  9 12  1  0  0  0  0
 10  8  1  0  0  0  0
 11 13  2  0  0  0  0
 12 10  2  0  0  0  0
 13 10  1  0  0  0  0
 14 11  1  0  0  0  0
 15 11  1  0  0  0  0
 15  9  2  0  0  0  0
 16 18  1  0  0  0  0
 17 19  1  6  0  0  0
 17 16  1  0  0  0  0
 17 18  1  0  0  0  0
 18  1  1  6  0  0  0
 19 20  1  0  0  0  0
 20 21  1  0  0  0  0
 21 22  2  0  0  0  0
 22 24  1  0  0  0  0
 23 28  1  0  0  0  0
 24 28  1  0  0  0  0
 25 26  2  0  0  0  0
 26 27  1  0  0  0  0
 26 22  1  0  0  0  0
 27 23  1  0  0  0  0
M  END
>  <MODEL>
5

>  <REMARK>
 VINA RESULT:      -7.3      2.966      4.235
  Name = 
  9 active torsions:
  status: ('A' for Active; 'I' for Inactive)
    1  A    between atoms: C_1  and  N_2
    2  A    between atoms: C_1  and  S_26
    3  A    between atoms: C_5  and  C_21
    4  A    between atoms: C_5  and  C_27
    5  A    between atoms: C_9  and  C_18
    6  A    between atoms: C_14  and  C_18
    7  A    between atoms: C_19  and  S_26
    8  A    between atoms: C_20  and  C_25
    9  A    between atoms: C_20  and  C_27
                            x       y       z     vdW  Elec       q    Type
                         _______ _______ _______ _____ _____    ______ ____

>  <TORSDO>
F 9

$$$$
=
 OpenBabel11052418033D

 28 30  0  0  1  0  0  0  0  0999 V2000
  187.3420  177.7640  146.3760 C   0  0  0  0  0  2  0  0  0  0  0  0
  185.6340  178.8970  147.8060 C   0  0  0  0  0  1  0  0  0  0  0  0
  184.9980  176.8990  146.4580 C   0  0  0  0  0  1  0  0  0  0  0  0
  185.8670  178.1500  146.4970 C   0  0  0  0  0  0  0  0  0  0  0  0
  185.5350  179.0590  145.3090 C   0  0  0  0  0  2  0  0  0  0  0  0
  186.6370  178.2310  143.0120 C   0  0  0  0  0  0  0  0  0  0  0  0
  186.1450  178.6080  144.0470 C   0  0  0  0  0  0  0  0  0  0  0  0
  187.2260  177.7640  141.7540 C   0  0  0  0  0  2  0  0  0  0  0  0
  189.6670  174.8820  142.0380 C   0  0  0  0  0  3  0  0  0  0  0  0
  188.4670  176.9880  142.0290 C   0  0  0  0  0  0  0  0  0  0  0  0
  190.7390  176.8890  142.8680 C   0  0  0  0  0  0  0  0  0  0  0  0
  188.5100  175.6150  141.7600 C   0  0  0  0  0  3  0  0  0  0  0  0
  189.5830  177.6240  142.5890 C   0  0  0  0  0  3  0  0  0  0  0  0
  191.8720  177.5360  143.4370 N   0  0  0  0  0  1  0  0  0  0  0  0
  190.7820  175.5190  142.5920 C   0  0  0  0  0  3  0  0  0  0  0  0
  188.4300  175.6880  145.5400 C   0  0  0  0  0  2  0  0  0  0  0  0
  189.0810  175.9180  146.8890 C   0  0  2  0  0  3  0  0  0  0  0  0
  187.6080  176.2830  146.6650 C   0  0  1  0  0  3  0  0  0  0  0  0
  190.2630  177.3100  146.7680 S   0  0  0  0  0  0  0  0  0  0  0  0
  191.5740  176.4070  147.6520 C   0  0  0  0  0  2  0  0  0  0  0  0
  191.9930  175.2400  146.8840 N   0  0  0  0  0  0  0  0  0  0  0  0
  193.0450  175.1620  146.1200 C   0  0  0  0  0  0  0  0  0  0  0  0
  195.2280  174.9230  144.2180 C   0  0  0  0  0  2  0  0  0  0  0  0
  193.2810  173.8770  145.3850 C   0  0  0  0  0  2  0  0  0  0  0  0
  194.1920  177.1610  146.8920 N   0  0  0  0  0  2  0  0  0  0  0  0
  194.0590  176.2450  145.9900 C   0  0  0  0  0  0  0  0  0  0  0  0
  194.9060  176.3160  144.7550 C   0  0  0  0  0  2  0  0  0  0  0  0
  193.9450  174.1210  144.0310 C   0  0  0  0  0  2  0  0  0  0  0  0
  1  4  1  0  0  0  0
  3  4  1  0  0  0  0
  4  2  1  0  0  0  0
  5  4  1  0  0  0  0
  6  7  3  0  0  0  0
  7  5  1  0  0  0  0
  8 10  1  0  0  0  0
  8  6  1  0  0  0  0
  9 15  1  0  0  0  0
 10 13  2  0  0  0  0
 11 14  1  0  0  0  0
 12 10  1  0  0  0  0
 12  9  2  0  0  0  0
 13 11  1  0  0  0  0
 15 11  2  0  0  0  0
 16 18  1  0  0  0  0
 16 17  1  0  0  0  0
 17 19  1  6  0  0  0
 18  1  1  6  0  0  0
 18 17  1  0  0  0  0
 19 20  1  0  0  0  0
 21 20  1  0  0  0  0
 22 21  2  0  0  0  0
 23 27  1  0  0  0  0
 24 22  1  0  0  0  0
 26 22  1  0  0  0  0
 26 25  2  0  0  0  0
 27 26  1  0  0  0  0
 28 23  1  0  0  0  0
 28 24  1  0  0  0  0
M  END
>  <MODEL>
6

>  <REMARK>
 VINA RESULT:      -7.2      2.600      7.485
  Name = 
  9 active torsions:
  status: ('A' for Active; 'I' for Inactive)
    1  A    between atoms: C_1  and  N_2
    2  A    between atoms: C_1  and  S_26
    3  A    between atoms: C_5  and  C_21
    4  A    between atoms: C_5  and  C_27
    5  A    between atoms: C_9  and  C_18
    6  A    between atoms: C_14  and  C_18
    7  A    between atoms: C_19  and  S_26
    8  A    between atoms: C_20  and  C_25
    9  A    between atoms: C_20  and  C_27
                            x       y       z     vdW  Elec       q    Type
                         _______ _______ _______ _____ _____    ______ ____

>  <TORSDO>
F 9

$$$$
=
 OpenBabel11052418033D

 28 30  0  0  1  0  0  0  0  0999 V2000
  192.7560  174.8560  145.9450 C   0  0  0  0  0  2  0  0  0  0  0  0
  192.6620  177.0910  144.8310 C   0  0  0  0  0  1  0  0  0  0  0  0
  194.2740  176.6970  146.6900 C   0  0  0  0  0  1  0  0  0  0  0  0
  192.8870  176.3660  146.1520 C   0  0  0  0  0  0  0  0  0  0  0  0
  191.8170  176.7810  147.1680 C   0  0  0  0  0  2  0  0  0  0  0  0
  189.3330  176.1640  146.3770 C   0  0  0  0  0  0  0  0  0  0  0  0
  190.4490  176.4430  146.7390 C   0  0  0  0  0  0  0  0  0  0  0  0
  187.9810  175.8230  145.9260 C   0  0  0  0  0  2  0  0  0  0  0  0
  185.5730  178.1910  147.6400 C   0  0  0  0  0  3  0  0  0  0  0  0
  187.0580  176.9670  146.1670 C   0  0  0  0  0  0  0  0  0  0  0  0
  185.8780  178.9200  145.3500 C   0  0  0  0  0  0  0  0  0  0  0  0
  186.4570  177.1310  147.4200 C   0  0  0  0  0  3  0  0  0  0  0  0
  186.7630  177.8610  145.1290 C   0  0  0  0  0  3  0  0  0  0  0  0
  185.5800  179.8280  144.2960 N   0  0  0  0  0  1  0  0  0  0  0  0
  185.2840  179.0870  146.6050 C   0  0  0  0  0  3  0  0  0  0  0  0
  193.8090  172.8340  144.9490 C   0  0  0  0  0  2  0  0  0  0  0  0
  192.8890  173.3370  143.8550 C   0  0  2  0  0  3  0  0  0  0  0  0
  193.6040  174.3260  144.7840 C   0  0  1  0  0  3  0  0  0  0  0  0
  191.1530  172.9580  144.2950 S   0  0  0  0  0  0  0  0  0  0  0  0
  190.4910  173.7730  142.8070 C   0  0  0  0  0  2  0  0  0  0  0  0
  190.4070  175.2140  143.0140 N   0  0  0  0  0  0  0  0  0  0  0  0
  189.4370  175.9900  142.6200 C   0  0  0  0  0  0  0  0  0  0  0  0
  187.4560  177.8600  141.6100 C   0  0  0  0  0  2  0  0  0  0  0  0
  189.5580  177.4570  142.9010 C   0  0  0  0  0  2  0  0  0  0  0  0
  187.7970  174.2720  142.1010 N   0  0  0  0  0  2  0  0  0  0  0  0
  188.1900  175.4970  141.9720 C   0  0  0  0  0  0  0  0  0  0  0  0
  187.3990  176.4220  141.0980 C   0  0  0  0  0  2  0  0  0  0  0  0
  188.9050  178.2930  141.8020 C   0  0  0  0  0  2  0  0  0  0  0  0
  1  4  1  0  0  0  0
  2  4  1  0  0  0  0
  4  3  1  0  0  0  0
  4  5  1  0  0  0  0
  6  7  3  0  0  0  0
  7  5  1  0  0  0  0
  8 10  1  0  0  0  0
  8  6  1  0  0  0  0
 10 12  2  0  0  0  0
 11 15  1  0  0  0  0
 12  9  1  0  0  0  0
 13 11  2  0  0  0  0
 13 10  1  0  0  0  0
 14 11  1  0  0  0  0
 15  9  2  0  0  0  0
 17 19  1  1  0  0  0
 17 18  1  0  0  0  0
 17 16  1  0  0  0  0
 18 16  1  0  0  0  0
 18  1  1  1  0  0  0
 20 21  1  0  0  0  0
 20 19  1  0  0  0  0
 22 24  1  0  0  0  0
 22 21  2  0  0  0  0
 23 28  1  0  0  0  0
 26 25  2  0  0  0  0
 26 22  1  0  0  0  0
 27 23  1  0  0  0  0
 27 26  1  0  0  0  0
 28 24  1  0  0  0  0
M  END
>  <MODEL>
7

>  <REMARK>
 VINA RESULT:      -7.2      2.170      6.858
  Name = 
  9 active torsions:
  status: ('A' for Active; 'I' for Inactive)
    1  A    between atoms: C_1  and  N_2
    2  A    between atoms: C_1  and  S_26
    3  A    between atoms: C_5  and  C_21
    4  A    between atoms: C_5  and  C_27
    5  A    between atoms: C_9  and  C_18
    6  A    between atoms: C_14  and  C_18
    7  A    between atoms: C_19  and  S_26
    8  A    between atoms: C_20  and  C_25
    9  A    between atoms: C_20  and  C_27
                            x       y       z     vdW  Elec       q    Type
                         _______ _______ _______ _____ _____    ______ ____

>  <TORSDO>
F 9

$$$$
=
 OpenBabel11052418033D

 28 30  0  0  1  0  0  0  0  0999 V2000
  186.2960  177.3240  143.4300 C   0  0  0  0  0  2  0  0  0  0  0  0
  187.6230  177.5970  141.3290 C   0  0  0  0  0  1  0  0  0  0  0  0
  187.5180  175.3740  142.4520 C   0  0  0  0  0  1  0  0  0  0  0  0
  187.5500  176.8820  142.6730 C   0  0  0  0  0  0  0  0  0  0  0  0
  188.7590  177.2610  143.5350 C   0  0  0  0  0  2  0  0  0  0  0  0
  190.9920  175.9530  142.8460 C   0  0  0  0  0  0  0  0  0  0  0  0
  189.9890  176.5470  143.1540 C   0  0  0  0  0  0  0  0  0  0  0  0
  192.2060  175.2200  142.4770 C   0  0  0  0  0  2  0  0  0  0  0  0
  194.5420  174.0780  145.2310 C   0  0  0  0  0  3  0  0  0  0  0  0
  193.1820  175.2490  143.6020 C   0  0  0  0  0  0  0  0  0  0  0  0
  194.5090  176.4990  145.2000 C   0  0  0  0  0  0  0  0  0  0  0  0
  193.6440  174.0510  144.1600 C   0  0  0  0  0  3  0  0  0  0  0  0
  193.6110  176.4750  144.1280 C   0  0  0  0  0  3  0  0  0  0  0  0
  194.9440  177.7450  145.7320 N   0  0  0  0  0  1  0  0  0  0  0  0
  194.9750  175.3020  145.7510 C   0  0  0  0  0  3  0  0  0  0  0  0
  184.8140  179.2740  143.8670 C   0  0  0  0  0  2  0  0  0  0  0  0
  185.7080  179.2200  145.0890 C   0  0  2  0  0  3  0  0  0  0  0  0
  186.2540  178.8300  143.7100 C   0  0  1  0  0  3  0  0  0  0  0  0
  185.1990  177.8240  146.1570 S   0  0  0  0  0  0  0  0  0  0  0  0
  186.8100  177.7470  147.0010 C   0  0  0  0  0  2  0  0  0  0  0  0
  187.3530  176.3950  146.9360 N   0  0  0  0  0  0  0  0  0  0  0  0
  188.6140  176.0710  146.9760 C   0  0  0  0  0  0  0  0  0  0  0  0
  191.3920  175.2290  146.8330 C   0  0  0  0  0  2  0  0  0  0  0  0
  188.9680  174.6190  146.8580 C   0  0  0  0  0  2  0  0  0  0  0  0
  189.5000  178.1970  147.7540 N   0  0  0  0  0  2  0  0  0  0  0  0
  189.7150  177.0480  147.2010 C   0  0  0  0  0  0  0  0  0  0  0  0
  191.0980  176.7240  146.7210 C   0  0  0  0  0  2  0  0  0  0  0  0
  190.3000  174.4250  146.1370 C   0  0  0  0  0  2  0  0  0  0  0  0
  2  4  1  0  0  0  0
  3  4  1  0  0  0  0
  4  1  1  0  0  0  0
  4  5  1  0  0  0  0
  6  7  3  0  0  0  0
  7  5  1  0  0  0  0
  8  6  1  0  0  0  0
  8 10  1  0  0  0  0
  9 15  1  0  0  0  0
 10 13  2  0  0  0  0
 10 12  1  0  0  0  0
 11 14  1  0  0  0  0
 11 15  2  0  0  0  0
 12  9  2  0  0  0  0
 13 11  1  0  0  0  0
 16 17  1  0  0  0  0
 17 19  1  1  0  0  0
 18  1  1  1  0  0  0
 18 16  1  0  0  0  0
 18 17  1  0  0  0  0
 19 20  1  0  0  0  0
 21 22  2  0  0  0  0
 21 20  1  0  0  0  0
 22 26  1  0  0  0  0
 24 22  1  0  0  0  0
 26 25  2  0  0  0  0
 27 23  1  0  0  0  0
 27 26  1  0  0  0  0
 28 23  1  0  0  0  0
 28 24  1  0  0  0  0
M  END
>  <MODEL>
8

>  <REMARK>
 VINA RESULT:      -7.2      2.485      5.133
  Name = 
  9 active torsions:
  status: ('A' for Active; 'I' for Inactive)
    1  A    between atoms: C_1  and  N_2
    2  A    between atoms: C_1  and  S_26
    3  A    between atoms: C_5  and  C_21
    4  A    between atoms: C_5  and  C_27
    5  A    between atoms: C_9  and  C_18
    6  A    between atoms: C_14  and  C_18
    7  A    between atoms: C_19  and  S_26
    8  A    between atoms: C_20  and  C_25
    9  A    between atoms: C_20  and  C_27
                            x       y       z     vdW  Elec       q    Type
                         _______ _______ _______ _____ _____    ______ ____

>  <TORSDO>
F 9

$$$$
=
 OpenBabel11052418033D

 28 30  0  0  1  0  0  0  0  0999 V2000
  191.2700  172.9730  143.0080 C   0  0  0  0  0  2  0  0  0  0  0  0
  189.4850  173.9840  144.4360 C   0  0  0  0  0  1  0  0  0  0  0  0
  188.8620  172.6750  142.4080 C   0  0  0  0  0  1  0  0  0  0  0  0
  189.8890  173.6290  143.0100 C   0  0  0  0  0  0  0  0  0  0  0  0
  189.9860  174.9000  142.1600 C   0  0  0  0  0  2  0  0  0  0  0  0
  187.6520  176.1930  141.9290 C   0  0  0  0  0  0  0  0  0  0  0  0
  188.7020  175.6080  142.0270 C   0  0  0  0  0  0  0  0  0  0  0  0
  186.3770  176.9070  141.8230 C   0  0  0  0  0  2  0  0  0  0  0  0
  185.6180  179.6460  144.3270 C   0  0  0  0  0  3  0  0  0  0  0  0
  186.0730  177.6030  143.1050 C   0  0  0  0  0  0  0  0  0  0  0  0
  185.7510  177.5340  145.5060 C   0  0  0  0  0  0  0  0  0  0  0  0
  185.8810  178.9890  143.1210 C   0  0  0  0  0  3  0  0  0  0  0  0
  186.0130  176.8760  144.3010 C   0  0  0  0  0  3  0  0  0  0  0  0
  185.6900  176.7950  146.7200 N   0  0  0  0  0  1  0  0  0  0  0  0
  185.5530  178.9180  145.5200 C   0  0  0  0  0  3  0  0  0  0  0  0
  193.0740  171.8620  144.3140 C   0  0  0  0  0  2  0  0  0  0  0  0
  193.1880  173.3210  144.7090 C   0  0  2  0  0  3  0  0  0  0  0  0
  191.8160  172.7020  144.4140 C   0  0  1  0  0  3  0  0  0  0  0  0
  193.9360  174.2700  143.3350 S   0  0  0  0  0  0  0  0  0  0  0  0
  194.0110  175.8100  144.3030 C   0  0  0  0  0  2  0  0  0  0  0  0
  192.8630  176.6560  143.9980 N   0  0  0  0  0  0  0  0  0  0  0  0
  191.8950  176.9620  144.8150 C   0  0  0  0  0  0  0  0  0  0  0  0
  189.5710  177.5400  146.4600 C   0  0  0  0  0  2  0  0  0  0  0  0
  190.7840  177.8220  144.2930 C   0  0  0  0  0  2  0  0  0  0  0  0
  192.9420  176.2400  146.8870 N   0  0  0  0  0  2  0  0  0  0  0  0
  191.8650  176.5660  146.2500 C   0  0  0  0  0  0  0  0  0  0  0  0
  190.5490  176.4800  146.9620 C   0  0  0  0  0  2  0  0  0  0  0  0
  189.4490  177.4660  144.9420 C   0  0  0  0  0  2  0  0  0  0  0  0
  1  4  1  0  0  0  0
  3  4  1  0  0  0  0
  4  2  1  0  0  0  0
  5  4  1  0  0  0  0
  6  7  3  0  0  0  0
  7  5  1  0  0  0  0
  8  6  1  0  0  0  0
  8 10  1  0  0  0  0
  9 15  1  0  0  0  0
 10 12  1  0  0  0  0
 10 13  2  0  0  0  0
 11 15  2  0  0  0  0
 11 14  1  0  0  0  0
 12  9  2  0  0  0  0
 13 11  1  0  0  0  0
 16 18  1  0  0  0  0
 16 17  1  0  0  0  0
 17 19  1  6  0  0  0
 18  1  1  6  0  0  0
 18 17  1  0  0  0  0
 19 20  1  0  0  0  0
 21 20  1  0  0  0  0
 21 22  2  0  0  0  0
 22 26  1  0  0  0  0
 23 27  1  0  0  0  0
 24 22  1  0  0  0  0
 24 28  1  0  0  0  0
 26 25  2  0  0  0  0
 26 27  1  0  0  0  0
 28 23  1  0  0  0  0
M  END
>  <MODEL>
9

>  <REMARK>
 VINA RESULT:      -7.1      2.650      7.805
  Name = 
  9 active torsions:
  status: ('A' for Active; 'I' for Inactive)
    1  A    between atoms: C_1  and  N_2
    2  A    between atoms: C_1  and  S_26
    3  A    between atoms: C_5  and  C_21
    4  A    between atoms: C_5  and  C_27
    5  A    between atoms: C_9  and  C_18
    6  A    between atoms: C_14  and  C_18
    7  A    between atoms: C_19  and  S_26
    8  A    between atoms: C_20  and  C_25
    9  A    between atoms: C_20  and  C_27
                            x       y       z     vdW  Elec       q    Type
                         _______ _______ _______ _____ _____    ______ ____

>  <TORSDO>
F 9

$$$$
