=
 OpenBabel11052417283D

 25 27  0  0  1  0  0  0  0  0999 V2000
  187.6360  177.6590  142.3440 C   0  0  2  0  0  3  0  0  0  0  0  0
  186.3810  177.5770  143.0660 N   0  0  1  0  0  0  0  0  0  0  0  0
  185.0240  178.6600  139.9400 O   0  0  0  0  0  1  0  0  0  0  0  0
  185.4920  177.7340  140.8710 C   0  0  1  0  0  3  0  0  0  0  0  0
  184.1310  178.3500  142.9680 C   0  0  0  0  0  0  0  0  0  0  0  0
  183.0360  178.3280  142.3460 O   0  0  0  0  0  0  0  0  0  0  0  0
  186.4770  178.1990  144.2980 O   0  0  0  0  0  0  0  0  0  0  0  0
  187.2610  177.4010  140.5690 S   0  0  0  0  0  0  0  0  0  0  0  0
  184.1580  178.4910  144.3970 N   0  0  0  0  0  0  0  0  0  0  0  0
  185.3010  178.4560  145.0220 C   0  0  0  0  0  0  0  0  0  0  0  0
  185.4490  178.3320  142.2550 C   0  0  1  0  0  3  0  0  0  0  0  0
  188.6230  176.6490  142.8530 C   0  0  0  0  0  0  0  0  0  0  0  0
  190.3800  174.6640  143.7730 C   0  0  0  0  0  3  0  0  0  0  0  0
  189.9660  176.9710  143.1490 C   0  0  0  0  0  0  0  0  0  0  0  0
  190.8350  175.9740  143.6060 C   0  0  0  0  0  3  0  0  0  0  0  0
  189.0520  174.3440  143.4850 C   0  0  0  0  0  3  0  0  0  0  0  0
  190.4600  178.2960  142.9850 N   0  0  0  0  0  1  0  0  0  0  0  0
  188.1780  175.3340  143.0260 C   0  0  0  0  0  3  0  0  0  0  0  0
  185.3630  178.6590  146.5010 C   0  0  0  0  0  2  0  0  0  0  0  0
  186.7210  178.2710  147.0990 C   0  0  1  0  0  3  0  0  0  0  0  0
  186.9450  178.9550  148.4350 C   0  0  0  0  0  1  0  0  0  0  0  0
  186.8970  176.7620  147.2480 C   0  0  0  0  0  2  0  0  0  0  0  0
  188.6340  175.0020  146.9220 O   0  0  0  0  0  1  0  0  0  0  0  0
  189.0730  177.1820  146.3650 O   0  0  0  0  0  0  0  0  0  0  0  0
  188.2630  176.3370  146.8270 C   0  0  0  0  0  0  0  0  0  0  0  0
  1 12  1  1  0  0  0
  1  2  1  0  0  0  0
  2  7  1  1  0  0  0
  4  3  1  6  0  0  0
  4 11  1  0  0  0  0
  5  9  1  0  0  0  0
  6  5  2  0  0  0  0
  7 10  1  0  0  0  0
  8  4  1  0  0  0  0
  8  1  1  0  0  0  0
  9 10  2  0  0  0  0
 10 19  1  0  0  0  0
 11  5  1  1  0  0  0
 11  2  1  0  0  0  0
 12 18  2  0  0  0  0
 12 14  1  0  0  0  0
 14 15  2  0  0  0  0
 15 13  1  0  0  0  0
 16 13  2  0  0  0  0
 17 14  1  0  0  0  0
 18 16  1  0  0  0  0
 19 20  1  0  0  0  0
 20 22  1  0  0  0  0
 20 21  1  1  0  0  0
 24 25  2  0  0  0  0
 25 23  1  0  0  0  0
 25 22  1  0  0  0  0
M  END
>  <MODEL>
1

>  <REMARK>
 VINA RESULT:      -6.5      0.000      0.000
  Name = 
  5 active torsions:
  status: ('A' for Active; 'I' for Inactive)
    1  A    between atoms: C_1  and  C_5
    2  A    between atoms: C_2  and  C_15
    3  A    between atoms: C_2  and  C_21
    4  A    between atoms: C_6  and  C_15
    5  A    between atoms: C_6  and  C_23
                            x       y       z     vdW  Elec       q    Type
                         _______ _______ _______ _____ _____    ______ ____

>  <TORSDO>
F 5

$$$$
=
 OpenBabel11052417283D

 25 27  0  0  1  0  0  0  0  0999 V2000
  185.1010  177.2750  143.7400 C   0  0  2  0  0  3  0  0  0  0  0  0
  186.2830  177.2400  142.9020 N   0  0  1  0  0  0  0  0  0  0  0  0
  183.9460  178.0990  140.3360 O   0  0  0  0  0  1  0  0  0  0  0  0
  184.8330  178.3450  141.3830 C   0  0  1  0  0  3  0  0  0  0  0  0
  186.9330  177.0680  140.6180 C   0  0  0  0  0  0  0  0  0  0  0  0
  186.9240  177.6020  139.4770 O   0  0  0  0  0  0  0  0  0  0  0  0
  187.0220  176.0930  143.1360 O   0  0  0  0  0  0  0  0  0  0  0  0
  183.9120  178.4290  142.9570 S   0  0  0  0  0  0  0  0  0  0  0  0
  188.0370  176.2490  141.0330 N   0  0  0  0  0  0  0  0  0  0  0  0
  188.0480  175.7530  142.2380 C   0  0  0  0  0  0  0  0  0  0  0  0
  185.7660  177.1720  141.5510 C   0  0  1  0  0  3  0  0  0  0  0  0
  185.4400  177.6960  145.1410 C   0  0  0  0  0  0  0  0  0  0  0  0
  186.0930  178.3550  147.7890 C   0  0  0  0  0  3  0  0  0  0  0  0
  185.6750  179.0420  145.5010 C   0  0  0  0  0  0  0  0  0  0  0  0
  186.0010  179.3610  146.8240 C   0  0  0  0  0  3  0  0  0  0  0  0
  185.8580  177.0250  147.4360 C   0  0  0  0  0  3  0  0  0  0  0  0
  185.5910  180.0890  144.5390 N   0  0  0  0  0  1  0  0  0  0  0  0
  185.5330  176.6990  146.1170 C   0  0  0  0  0  3  0  0  0  0  0  0
  189.1550  174.8490  142.6770 C   0  0  0  0  0  2  0  0  0  0  0  0
  189.3300  174.8190  144.2000 C   0  0  1  0  0  3  0  0  0  0  0  0
  189.8480  173.4700  144.6640 C   0  0  0  0  0  1  0  0  0  0  0  0
  190.2370  175.9330  144.7170 C   0  0  0  0  0  2  0  0  0  0  0  0
  189.3180  176.7010  146.9050 O   0  0  0  0  0  1  0  0  0  0  0  0
  188.9770  177.9380  145.0050 O   0  0  0  0  0  0  0  0  0  0  0  0
  189.4690  176.9110  145.5400 C   0  0  0  0  0  0  0  0  0  0  0  0
  1 12  1  1  0  0  0
  2  7  1  1  0  0  0
  2  1  1  0  0  0  0
  4  3  1  6  0  0  0
  4 11  1  0  0  0  0
  4  8  1  0  0  0  0
  5  9  1  0  0  0  0
  6  5  2  0  0  0  0
  8  1  1  0  0  0  0
  9 10  2  0  0  0  0
 10 19  1  0  0  0  0
 10  7  1  0  0  0  0
 11  5  1  6  0  0  0
 11  2  1  0  0  0  0
 12 14  2  0  0  0  0
 12 18  1  0  0  0  0
 14 15  1  0  0  0  0
 15 13  2  0  0  0  0
 16 13  1  0  0  0  0
 17 14  1  0  0  0  0
 18 16  2  0  0  0  0
 19 20  1  0  0  0  0
 20 21  1  6  0  0  0
 20 22  1  0  0  0  0
 22 25  1  0  0  0  0
 24 25  2  0  0  0  0
 25 23  1  0  0  0  0
M  END
>  <MODEL>
2

>  <REMARK>
 VINA RESULT:      -6.3      1.788      4.471
  Name = 
  5 active torsions:
  status: ('A' for Active; 'I' for Inactive)
    1  A    between atoms: C_1  and  C_5
    2  A    between atoms: C_2  and  C_15
    3  A    between atoms: C_2  and  C_21
    4  A    between atoms: C_6  and  C_15
    5  A    between atoms: C_6  and  C_23
                            x       y       z     vdW  Elec       q    Type
                         _______ _______ _______ _____ _____    ______ ____

>  <TORSDO>
F 5

$$$$
=
 OpenBabel11052417283D

 25 27  0  0  1  0  0  0  0  0999 V2000
  191.0680  175.2910  143.6060 C   0  0  2  0  0  3  0  0  0  0  0  0
  189.7280  175.3050  143.0550 N   0  0  1  0  0  0  0  0  0  0  0  0
  191.1960  173.1640  140.5970 O   0  0  0  0  0  1  0  0  0  0  0  0
  190.5810  173.4750  141.8080 C   0  0  1  0  0  3  0  0  0  0  0  0
  188.5470  174.8530  141.0370 C   0  0  0  0  0  0  0  0  0  0  0  0
  188.1940  173.9850  140.1950 O   0  0  0  0  0  0  0  0  0  0  0  0
  189.2350  176.5970  142.9820 O   0  0  0  0  0  0  0  0  0  0  0  0
  191.8510  173.7150  143.0960 S   0  0  0  0  0  0  0  0  0  0  0  0
  187.7070  175.9820  141.3200 N   0  0  0  0  0  0  0  0  0  0  0  0
  188.0710  176.8370  142.2340 C   0  0  0  0  0  0  0  0  0  0  0  0
  189.8890  174.8110  141.7030 C   0  0  1  0  0  3  0  0  0  0  0  0
  191.0430  175.4390  145.1000 C   0  0  0  0  0  0  0  0  0  0  0  0
  190.9010  175.6190  147.8960 C   0  0  0  0  0  3  0  0  0  0  0  0
  192.0250  176.1590  145.8160 C   0  0  0  0  0  0  0  0  0  0  0  0
  191.9470  176.2430  147.2100 C   0  0  0  0  0  3  0  0  0  0  0  0
  189.9280  174.9100  147.1900 C   0  0  0  0  0  3  0  0  0  0  0  0
  193.1040  176.8030  145.1450 N   0  0  0  0  0  1  0  0  0  0  0  0
  190.0010  174.8200  145.7980 C   0  0  0  0  0  3  0  0  0  0  0  0
  187.2440  178.0520  142.5090 C   0  0  0  0  0  2  0  0  0  0  0  0
  186.7740  178.1350  143.9650 C   0  0  1  0  0  3  0  0  0  0  0  0
  185.8390  179.3130  144.1710 C   0  0  0  0  0  1  0  0  0  0  0  0
  186.1110  176.8500  144.4520 C   0  0  0  0  0  2  0  0  0  0  0  0
  187.1260  176.9910  146.7260 O   0  0  0  0  0  1  0  0  0  0  0  0
  184.8650  176.7040  146.4800 O   0  0  0  0  0  0  0  0  0  0  0  0
  185.9930  176.8350  145.9380 C   0  0  0  0  0  0  0  0  0  0  0  0
  1 12  1  1  0  0  0
  2  7  1  6  0  0  0
  2  1  1  0  0  0  0
  4  3  1  6  0  0  0
  4  8  1  0  0  0  0
  5  9  1  0  0  0  0
  6  5  2  0  0  0  0
  8  1  1  0  0  0  0
  9 10  2  0  0  0  0
 10 19  1  0  0  0  0
 10  7  1  0  0  0  0
 11  5  1  1  0  0  0
 11  4  1  0  0  0  0
 11  2  1  0  0  0  0
 12 18  2  0  0  0  0
 12 14  1  0  0  0  0
 14 15  2  0  0  0  0
 15 13  1  0  0  0  0
 16 13  2  0  0  0  0
 17 14  1  0  0  0  0
 18 16  1  0  0  0  0
 19 20  1  0  0  0  0
 20 21  1  6  0  0  0
 20 22  1  0  0  0  0
 22 25  1  0  0  0  0
 25 24  2  0  0  0  0
 25 23  1  0  0  0  0
M  END
>  <MODEL>
3

>  <REMARK>
 VINA RESULT:      -6.3      3.137      4.696
  Name = 
  5 active torsions:
  status: ('A' for Active; 'I' for Inactive)
    1  A    between atoms: C_1  and  C_5
    2  A    between atoms: C_2  and  C_15
    3  A    between atoms: C_2  and  C_21
    4  A    between atoms: C_6  and  C_15
    5  A    between atoms: C_6  and  C_23
                            x       y       z     vdW  Elec       q    Type
                         _______ _______ _______ _____ _____    ______ ____

>  <TORSDO>
F 5

$$$$
=
 OpenBabel11052417283D

 25 27  0  0  1  0  0  0  0  0999 V2000
  187.7910  176.4070  145.6920 C   0  0  2  0  0  3  0  0  0  0  0  0
  187.6000  176.9250  144.3520 N   0  0  1  0  0  0  0  0  0  0  0  0
  184.6680  178.3640  145.8070 O   0  0  0  0  0  1  0  0  0  0  0  0
  186.0180  178.2990  145.4680 C   0  0  1  0  0  3  0  0  0  0  0  0
  185.9130  177.8330  142.9380 C   0  0  0  0  0  0  0  0  0  0  0  0
  185.1140  178.7840  142.7290 O   0  0  0  0  0  0  0  0  0  0  0  0
  187.7710  175.9290  143.4070 O   0  0  0  0  0  0  0  0  0  0  0  0
  186.9600  177.5620  146.8470 S   0  0  0  0  0  0  0  0  0  0  0  0
  186.5000  177.1170  141.8410 N   0  0  0  0  0  0  0  0  0  0  0  0
  187.3660  176.1730  142.0840 C   0  0  0  0  0  0  0  0  0  0  0  0
  186.2130  177.3400  144.3210 C   0  0  1  0  0  3  0  0  0  0  0  0
  189.2500  176.2570  146.0140 C   0  0  0  0  0  0  0  0  0  0  0  0
  192.0000  176.0920  146.5490 C   0  0  0  0  0  3  0  0  0  0  0  0
  189.7360  175.3230  146.9560 C   0  0  0  0  0  0  0  0  0  0  0  0
  191.1080  175.2490  147.2170 C   0  0  0  0  0  3  0  0  0  0  0  0
  191.5220  177.0130  145.6150 C   0  0  0  0  0  3  0  0  0  0  0  0
  188.8510  174.4530  147.6550 N   0  0  0  0  0  1  0  0  0  0  0  0
  190.1520  177.0950  145.3500 C   0  0  0  0  0  3  0  0  0  0  0  0
  187.9490  175.3720  140.9640 C   0  0  0  0  0  2  0  0  0  0  0  0
  188.6910  174.1220  141.4510 C   0  0  1  0  0  3  0  0  0  0  0  0
  188.4160  172.9350  140.5460 C   0  0  0  0  0  1  0  0  0  0  0  0
  190.1960  174.3380  141.5860 C   0  0  0  0  0  2  0  0  0  0  0  0
  191.9560  174.3630  143.3530 O   0  0  0  0  0  0  0  0  0  0  0  0
  189.8690  173.5310  143.8060 O   0  0  0  0  0  1  0  0  0  0  0  0
  190.6590  174.0450  142.9730 C   0  0  0  0  0  0  0  0  0  0  0  0
  1 12  1  1  0  0  0
  1  8  1  0  0  0  0
  2  7  1  6  0  0  0
  2  1  1  0  0  0  0
  4  3  1  1  0  0  0
  4  8  1  0  0  0  0
  6  5  2  0  0  0  0
  9 10  2  0  0  0  0
  9  5  1  0  0  0  0
 10  7  1  0  0  0  0
 11  5  1  6  0  0  0
 11  2  1  0  0  0  0
 11  4  1  0  0  0  0
 12 14  1  0  0  0  0
 13 15  1  0  0  0  0
 14 15  2  0  0  0  0
 14 17  1  0  0  0  0
 16 13  2  0  0  0  0
 18 16  1  0  0  0  0
 18 12  2  0  0  0  0
 19 20  1  0  0  0  0
 19 10  1  0  0  0  0
 20 21  1  6  0  0  0
 20 22  1  0  0  0  0
 22 25  1  0  0  0  0
 25 23  2  0  0  0  0
 25 24  1  0  0  0  0
M  END
>  <MODEL>
4

>  <REMARK>
 VINA RESULT:      -6.0      2.867      4.940
  Name = 
  5 active torsions:
  status: ('A' for Active; 'I' for Inactive)
    1  A    between atoms: C_1  and  C_5
    2  A    between atoms: C_2  and  C_15
    3  A    between atoms: C_2  and  C_21
    4  A    between atoms: C_6  and  C_15
    5  A    between atoms: C_6  and  C_23
                            x       y       z     vdW  Elec       q    Type
                         _______ _______ _______ _____ _____    ______ ____

>  <TORSDO>
F 5

$$$$
=
 OpenBabel11052417283D

 25 27  0  0  1  0  0  0  0  0999 V2000
  189.6860  174.7390  144.8030 C   0  0  2  0  0  3  0  0  0  0  0  0
  189.1040  175.9490  145.3490 N   0  0  1  0  0  0  0  0  0  0  0  0
  192.1370  176.0230  147.2410 O   0  0  0  0  0  1  0  0  0  0  0  0
  191.3210  176.2620  146.1370 C   0  0  1  0  0  3  0  0  0  0  0  0
  189.2880  177.4180  147.2140 C   0  0  0  0  0  0  0  0  0  0  0  0
  190.0050  178.2480  147.8340 O   0  0  0  0  0  0  0  0  0  0  0  0
  187.7870  175.7420  145.7190 O   0  0  0  0  0  0  0  0  0  0  0  0
  191.5070  174.9030  144.9330 S   0  0  0  0  0  0  0  0  0  0  0  0
  187.8590  177.5510  147.2020 N   0  0  0  0  0  0  0  0  0  0  0  0
  187.1440  176.7110  146.5080 C   0  0  0  0  0  0  0  0  0  0  0  0
  189.8720  176.2090  146.5500 C   0  0  1  0  0  3  0  0  0  0  0  0
  189.2500  174.5190  143.3840 C   0  0  0  0  0  0  0  0  0  0  0  0
  188.4460  174.2390  140.7100 C   0  0  0  0  0  3  0  0  0  0  0  0
  189.1790  173.2370  142.7930 C   0  0  0  0  0  0  0  0  0  0  0  0
  188.7780  173.1070  141.4600 C   0  0  0  0  0  3  0  0  0  0  0  0
  188.5130  175.5060  141.2920 C   0  0  0  0  0  3  0  0  0  0  0  0
  189.5140  172.0660  143.5310 N   0  0  0  0  0  1  0  0  0  0  0  0
  188.9140  175.6440  142.6240 C   0  0  0  0  0  3  0  0  0  0  0  0
  185.6510  176.7900  146.5250 C   0  0  0  0  0  2  0  0  0  0  0  0
  185.0940  177.7450  145.4620 C   0  0  1  0  0  3  0  0  0  0  0  0
  184.1570  178.7650  146.0820 C   0  0  0  0  0  1  0  0  0  0  0  0
  186.1870  178.4540  144.6670 C   0  0  0  0  0  2  0  0  0  0  0  0
  184.9170  177.5290  142.7300 O   0  0  0  0  0  1  0  0  0  0  0  0
  186.8880  178.6500  142.3960 O   0  0  0  0  0  0  0  0  0  0  0  0
  186.0280  178.2140  143.2040 C   0  0  0  0  0  0  0  0  0  0  0  0
  1 12  1  6  0  0  0
  1  8  1  0  0  0  0
  1  2  1  0  0  0  0
  2  7  1  1  0  0  0
  2 11  1  0  0  0  0
  4 11  1  0  0  0  0
  4  3  1  1  0  0  0
  5  6  2  0  0  0  0
  7 10  1  0  0  0  0
  8  4  1  0  0  0  0
  9  5  1  0  0  0  0
 10 19  1  0  0  0  0
 10  9  2  0  0  0  0
 11  5  1  6  0  0  0
 13 16  2  0  0  0  0
 13 15  1  0  0  0  0
 14 12  1  0  0  0  0
 14 17  1  0  0  0  0
 15 14  2  0  0  0  0
 16 18  1  0  0  0  0
 18 12  2  0  0  0  0
 20 21  1  1  0  0  0
 20 19  1  0  0  0  0
 22 20  1  0  0  0  0
 23 25  1  0  0  0  0
 24 25  2  0  0  0  0
 25 22  1  0  0  0  0
M  END
>  <MODEL>
5

>  <REMARK>
 VINA RESULT:      -6.0      2.690      5.184
  Name = 
  5 active torsions:
  status: ('A' for Active; 'I' for Inactive)
    1  A    between atoms: C_1  and  C_5
    2  A    between atoms: C_2  and  C_15
    3  A    between atoms: C_2  and  C_21
    4  A    between atoms: C_6  and  C_15
    5  A    between atoms: C_6  and  C_23
                            x       y       z     vdW  Elec       q    Type
                         _______ _______ _______ _____ _____    ______ ____

>  <TORSDO>
F 5

$$$$
=
 OpenBabel11052417283D

 25 27  0  0  1  0  0  0  0  0999 V2000
  187.4510  177.2860  143.2320 C   0  0  2  0  0  3  0  0  0  0  0  0
  187.2140  177.1550  144.6570 N   0  0  1  0  0  0  0  0  0  0  0  0
  184.2920  179.0690  143.8940 O   0  0  0  0  0  1  0  0  0  0  0  0
  185.0530  177.9090  144.0280 C   0  0  1  0  0  3  0  0  0  0  0  0
  185.9610  178.1390  146.4260 C   0  0  0  0  0  0  0  0  0  0  0  0
  184.8200  178.3680  146.9070 O   0  0  0  0  0  0  0  0  0  0  0  0
  188.3550  177.4560  145.3790 O   0  0  0  0  0  0  0  0  0  0  0  0
  185.8200  177.4920  142.4240 S   0  0  0  0  0  0  0  0  0  0  0  0
  187.0910  177.9350  147.2880 N   0  0  0  0  0  0  0  0  0  0  0  0
  188.2490  177.6450  146.7670 C   0  0  0  0  0  0  0  0  0  0  0  0
  186.2180  178.1650  144.9500 C   0  0  1  0  0  3  0  0  0  0  0  0
  188.1900  176.0960  142.6930 C   0  0  0  0  0  0  0  0  0  0  0  0
  189.4510  173.8150  141.6530 C   0  0  0  0  0  3  0  0  0  0  0  0
  189.5850  176.0940  142.4720 C   0  0  0  0  0  0  0  0  0  0  0  0
  190.2050  174.9530  141.9520 C   0  0  0  0  0  3  0  0  0  0  0  0
  188.0730  173.8130  141.8740 C   0  0  0  0  0  3  0  0  0  0  0  0
  190.3790  177.2390  142.7640 N   0  0  0  0  0  1  0  0  0  0  0  0
  187.4460  174.9500  142.3910 C   0  0  0  0  0  3  0  0  0  0  0  0
  189.4540  177.4860  147.6370 C   0  0  0  0  0  2  0  0  0  0  0  0
  190.5080  176.5540  147.0290 C   0  0  1  0  0  3  0  0  0  0  0  0
  191.8730  176.7930  147.6490 C   0  0  0  0  0  1  0  0  0  0  0  0
  190.1340  175.0780  147.1410 C   0  0  0  0  0  2  0  0  0  0  0  0
  191.5890  174.2080  145.3110 O   0  0  0  0  0  1  0  0  0  0  0  0
  189.3170  173.9200  145.2230 O   0  0  0  0  0  0  0  0  0  0  0  0
  190.3150  174.3770  145.8370 C   0  0  0  0  0  0  0  0  0  0  0  0
  1 12  1  6  0  0  0
  1  2  1  0  0  0  0
  2 11  1  0  0  0  0
  2  7  1  1  0  0  0
  4  3  1  6  0  0  0
  4 11  1  0  0  0  0
  5  6  2  0  0  0  0
  5  9  1  0  0  0  0
  7 10  1  0  0  0  0
  8  1  1  0  0  0  0
  8  4  1  0  0  0  0
 10  9  2  0  0  0  0
 10 19  1  0  0  0  0
 11  5  1  1  0  0  0
 13 16  2  0  0  0  0
 13 15  1  0  0  0  0
 14 12  1  0  0  0  0
 14 17  1  0  0  0  0
 15 14  2  0  0  0  0
 16 18  1  0  0  0  0
 18 12  2  0  0  0  0
 20 22  1  0  0  0  0
 20 19  1  0  0  0  0
 20 21  1  1  0  0  0
 23 25  1  0  0  0  0
 24 25  2  0  0  0  0
 25 22  1  0  0  0  0
M  END
>  <MODEL>
6

>  <REMARK>
 VINA RESULT:      -5.9      2.107      3.158
  Name = 
  5 active torsions:
  status: ('A' for Active; 'I' for Inactive)
    1  A    between atoms: C_1  and  C_5
    2  A    between atoms: C_2  and  C_15
    3  A    between atoms: C_2  and  C_21
    4  A    between atoms: C_6  and  C_15
    5  A    between atoms: C_6  and  C_23
                            x       y       z     vdW  Elec       q    Type
                         _______ _______ _______ _____ _____    ______ ____

>  <TORSDO>
F 5

$$$$
=
 OpenBabel11052417283D

 25 27  0  0  1  0  0  0  0  0999 V2000
  189.6310  175.6390  143.3680 C   0  0  2  0  0  3  0  0  0  0  0  0
  189.5240  176.3400  144.6320 N   0  0  1  0  0  0  0  0  0  0  0  0
  192.9280  175.3040  144.9860 O   0  0  0  0  0  1  0  0  0  0  0  0
  191.8870  176.1320  144.5670 C   0  0  1  0  0  3  0  0  0  0  0  0
  190.5860  176.5050  146.7570 C   0  0  0  0  0  0  0  0  0  0  0  0
  191.6210  176.8360  147.3940 O   0  0  0  0  0  0  0  0  0  0  0  0
  188.3710  175.9750  145.3050 O   0  0  0  0  0  0  0  0  0  0  0  0
  191.3930  175.6820  142.8680 S   0  0  0  0  0  0  0  0  0  0  0  0
  189.2870  176.6380  147.3540 N   0  0  0  0  0  0  0  0  0  0  0  0
  188.2280  176.3410  146.6540 C   0  0  0  0  0  0  0  0  0  0  0  0
  190.6580  175.8720  145.4010 C   0  0  1  0  0  3  0  0  0  0  0  0
  188.7450  176.2590  142.3260 C   0  0  0  0  0  0  0  0  0  0  0  0
  187.1270  177.5380  140.4240 C   0  0  0  0  0  3  0  0  0  0  0  0
  188.1810  175.5210  141.2620 C   0  0  0  0  0  0  0  0  0  0  0  0
  187.3760  176.1680  140.3180 C   0  0  0  0  0  3  0  0  0  0  0  0
  187.6810  178.2690  141.4770 C   0  0  0  0  0  3  0  0  0  0  0  0
  188.4190  174.1240  141.1250 N   0  0  0  0  0  1  0  0  0  0  0  0
  188.4880  177.6300  142.4230 C   0  0  0  0  0  3  0  0  0  0  0  0
  186.8670  176.4130  147.2680 C   0  0  0  0  0  2  0  0  0  0  0  0
  186.1480  177.7330  146.9670 C   0  0  1  0  0  3  0  0  0  0  0  0
  186.5890  178.8270  147.9210 C   0  0  0  0  0  1  0  0  0  0  0  0
  186.3290  178.1940  145.5230 C   0  0  0  0  0  2  0  0  0  0  0  0
  183.9680  178.9950  145.5870 O   0  0  0  0  0  1  0  0  0  0  0  0
  185.5550  180.1550  144.4080 O   0  0  0  0  0  0  0  0  0  0  0  0
  185.2690  179.1670  145.1320 C   0  0  0  0  0  0  0  0  0  0  0  0
  1 12  1  6  0  0  0
  1  2  1  0  0  0  0
  2  7  1  1  0  0  0
  2 11  1  0  0  0  0
  4  3  1  1  0  0  0
  4 11  1  0  0  0  0
  5  9  1  0  0  0  0
  5  6  2  0  0  0  0
  7 10  1  0  0  0  0
  8  1  1  0  0  0  0
  8  4  1  0  0  0  0
 10 19  1  0  0  0  0
 10  9  2  0  0  0  0
 11  5  1  1  0  0  0
 12 18  1  0  0  0  0
 13 16  1  0  0  0  0
 14 12  2  0  0  0  0
 15 13  2  0  0  0  0
 15 14  1  0  0  0  0
 16 18  2  0  0  0  0
 17 14  1  0  0  0  0
 20 19  1  0  0  0  0
 20 21  1  1  0  0  0
 22 20  1  0  0  0  0
 24 25  2  0  0  0  0
 25 22  1  0  0  0  0
 25 23  1  0  0  0  0
M  END
>  <MODEL>
7

>  <REMARK>
 VINA RESULT:      -5.8      2.485      5.235
  Name = 
  5 active torsions:
  status: ('A' for Active; 'I' for Inactive)
    1  A    between atoms: C_1  and  C_5
    2  A    between atoms: C_2  and  C_15
    3  A    between atoms: C_2  and  C_21
    4  A    between atoms: C_6  and  C_15
    5  A    between atoms: C_6  and  C_23
                            x       y       z     vdW  Elec       q    Type
                         _______ _______ _______ _____ _____    ______ ____

>  <TORSDO>
F 5

$$$$
=
 OpenBabel11052417283D

 25 27  0  0  1  0  0  0  0  0999 V2000
  188.7270  176.3420  142.5740 C   0  0  2  0  0  3  0  0  0  0  0  0
  188.1860  176.2970  143.9180 N   0  0  1  0  0  0  0  0  0  0  0  0
  186.3100  179.1190  142.7790 O   0  0  0  0  0  1  0  0  0  0  0  0
  186.5840  177.7650  142.9650 C   0  0  1  0  0  3  0  0  0  0  0  0
  187.0290  177.6520  145.4980 C   0  0  0  0  0  0  0  0  0  0  0  0
  185.9660  178.2660  145.7790 O   0  0  0  0  0  0  0  0  0  0  0  0
  189.1980  176.1750  144.8550 O   0  0  0  0  0  0  0  0  0  0  0  0
  187.4570  177.1110  141.5010 S   0  0  0  0  0  0  0  0  0  0  0  0
  187.8290  177.0610  146.5340 N   0  0  0  0  0  0  0  0  0  0  0  0
  188.8950  176.3840  146.2110 C   0  0  0  0  0  0  0  0  0  0  0  0
  187.5620  177.5910  144.0990 C   0  0  1  0  0  3  0  0  0  0  0  0
  189.1000  174.9690  142.0930 C   0  0  0  0  0  0  0  0  0  0  0  0
  189.6700  172.3860  141.1580 C   0  0  0  0  0  3  0  0  0  0  0  0
  190.4410  174.5480  141.9410 C   0  0  0  0  0  0  0  0  0  0  0  0
  190.7150  173.2590  141.4730 C   0  0  0  0  0  3  0  0  0  0  0  0
  188.3460  172.7990  141.3110 C   0  0  0  0  0  3  0  0  0  0  0  0
  191.5260  175.4160  142.2510 N   0  0  0  0  0  1  0  0  0  0  0  0
  188.0630  174.0860  141.7760 C   0  0  0  0  0  3  0  0  0  0  0  0
  189.7770  175.8080  147.2710 C   0  0  0  0  0  2  0  0  0  0  0  0
  191.1910  176.4010  147.2550 C   0  0  1  0  0  3  0  0  0  0  0  0
  191.5100  177.0900  148.5700 C   0  0  0  0  0  1  0  0  0  0  0  0
  192.2670  175.3670  146.9330 C   0  0  0  0  0  2  0  0  0  0  0  0
  193.1610  176.7700  145.0750 O   0  0  0  0  0  0  0  0  0  0  0  0
  194.5840  175.8220  146.6010 O   0  0  0  0  0  1  0  0  0  0  0  0
  193.4050  175.9880  146.1960 C   0  0  0  0  0  0  0  0  0  0  0  0
  1 12  1  6  0  0  0
  1  2  1  0  0  0  0
  2 11  1  0  0  0  0
  2  7  1  1  0  0  0
  4  3  1  6  0  0  0
  4 11  1  0  0  0  0
  5  6  2  0  0  0  0
  5  9  1  0  0  0  0
  7 10  1  0  0  0  0
  8  1  1  0  0  0  0
  8  4  1  0  0  0  0
 10  9  2  0  0  0  0
 10 19  1  0  0  0  0
 11  5  1  1  0  0  0
 13 16  2  0  0  0  0
 13 15  1  0  0  0  0
 14 12  1  0  0  0  0
 14 17  1  0  0  0  0
 15 14  2  0  0  0  0
 16 18  1  0  0  0  0
 18 12  2  0  0  0  0
 20 19  1  0  0  0  0
 20 21  1  1  0  0  0
 22 20  1  0  0  0  0
 23 25  2  0  0  0  0
 25 24  1  0  0  0  0
 25 22  1  0  0  0  0
M  END
>  <MODEL>
8

>  <REMARK>
 VINA RESULT:      -5.8      2.719      3.843
  Name = 
  5 active torsions:
  status: ('A' for Active; 'I' for Inactive)
    1  A    between atoms: C_1  and  C_5
    2  A    between atoms: C_2  and  C_15
    3  A    between atoms: C_2  and  C_21
    4  A    between atoms: C_6  and  C_15
    5  A    between atoms: C_6  and  C_23
                            x       y       z     vdW  Elec       q    Type
                         _______ _______ _______ _____ _____    ______ ____

>  <TORSDO>
F 5

$$$$
=
 OpenBabel11052417283D

 25 27  0  0  1  0  0  0  0  0999 V2000
  191.9010  175.1330  142.9130 C   0  0  2  0  0  3  0  0  0  0  0  0
  190.4950  175.0580  143.2570 N   0  0  1  0  0  0  0  0  0  0  0  0
  190.4140  172.7300  140.5440 O   0  0  0  0  0  1  0  0  0  0  0  0
  190.6000  173.1400  141.8630 C   0  0  1  0  0  3  0  0  0  0  0  0
  188.3980  174.3820  142.3520 C   0  0  0  0  0  0  0  0  0  0  0  0
  187.6900  173.4270  141.9360 O   0  0  0  0  0  0  0  0  0  0  0  0
  189.9530  176.3220  143.4080 O   0  0  0  0  0  0  0  0  0  0  0  0
  192.3600  173.5370  142.1390 S   0  0  0  0  0  0  0  0  0  0  0  0
  187.7960  175.5100  143.0050 N   0  0  0  0  0  0  0  0  0  0  0  0
  188.5570  176.4580  143.4750 C   0  0  0  0  0  0  0  0  0  0  0  0
  189.8750  174.4400  142.1030 C   0  0  1  0  0  3  0  0  0  0  0  0
  192.7420  175.4230  144.1230 C   0  0  0  0  0  0  0  0  0  0  0  0
  194.2250  175.8930  146.4570 C   0  0  0  0  0  3  0  0  0  0  0  0
  194.0370  175.9800  144.0410 C   0  0  0  0  0  0  0  0  0  0  0  0
  194.7700  176.2100  145.2100 C   0  0  0  0  0  3  0  0  0  0  0  0
  192.9440  175.3460  146.5410 C   0  0  0  0  0  3  0  0  0  0  0  0
  194.6200  176.3110  142.7850 N   0  0  0  0  0  1  0  0  0  0  0  0
  192.2060  175.1110  145.3770 C   0  0  0  0  0  3  0  0  0  0  0  0
  187.9540  177.6710  144.1070 C   0  0  0  0  0  2  0  0  0  0  0  0
  187.0040  177.3310  145.2610 C   0  0  1  0  0  3  0  0  0  0  0  0
  187.7660  176.7850  146.4550 C   0  0  0  0  0  1  0  0  0  0  0  0
  186.1390  178.5130  145.6900 C   0  0  0  0  0  2  0  0  0  0  0  0
  185.4680  180.2700  144.0520 O   0  0  0  0  0  0  0  0  0  0  0  0
  184.4180  178.2330  144.0630 O   0  0  0  0  0  1  0  0  0  0  0  0
  185.2870  178.9920  144.5640 C   0  0  0  0  0  0  0  0  0  0  0  0
  1  2  1  0  0  0  0
  1 12  1  1  0  0  0
  2  7  1  6  0  0  0
  4  3  1  6  0  0  0
  4 11  1  0  0  0  0
  4  8  1  0  0  0  0
  5  9  1  0  0  0  0
  6  5  2  0  0  0  0
  7 10  1  0  0  0  0
  8  1  1  0  0  0  0
  9 10  2  0  0  0  0
 10 19  1  0  0  0  0
 11  5  1  1  0  0  0
 11  2  1  0  0  0  0
 12 18  1  0  0  0  0
 13 16  1  0  0  0  0
 14 12  2  0  0  0  0
 14 15  1  0  0  0  0
 15 13  2  0  0  0  0
 17 14  1  0  0  0  0
 18 16  2  0  0  0  0
 19 20  1  0  0  0  0
 20 22  1  0  0  0  0
 20 21  1  1  0  0  0
 23 25  2  0  0  0  0
 24 25  1  0  0  0  0
 25 22  1  0  0  0  0
M  END
>  <MODEL>
9

>  <REMARK>
 VINA RESULT:      -5.7      3.302      5.113
  Name = 
  5 active torsions:
  status: ('A' for Active; 'I' for Inactive)
    1  A    between atoms: C_1  and  C_5
    2  A    between atoms: C_2  and  C_15
    3  A    between atoms: C_2  and  C_21
    4  A    between atoms: C_6  and  C_15
    5  A    between atoms: C_6  and  C_23
                            x       y       z     vdW  Elec       q    Type
                         _______ _______ _______ _____ _____    ______ ____

>  <TORSDO>
F 5

$$$$
