=
 OpenBabel11052421433D

 32 37  0  0  1  0  0  0  0  0999 V2000
  189.9730  172.2720  139.7070 C   0  0  0  0  0  0  0  0  0  0  0  0
  188.9690  175.7140  143.3610 N   0  0  0  0  0  0  0  0  0  0  0  0
  192.0340  174.5940  145.3420 C   0  0  0  0  0  2  0  0  0  0  0  0
  191.6480  175.2570  147.7030 C   0  0  0  0  0  2  0  0  0  0  0  0
  186.9280  176.7960  144.1670 N   0  0  0  0  0  0  0  0  0  0  0  0
  186.1880  177.4060  145.1280 C   0  0  0  0  0  0  0  0  0  0  0  0
  188.9950  174.4480  141.1910 C   0  0  0  0  0  0  0  0  0  0  0  0
  191.0460  174.3840  142.6640 C   0  0  0  0  0  2  0  0  0  0  0  0
  184.5930  178.7020  147.0960 C   0  0  0  0  0  3  0  0  0  0  0  0
  190.6910  172.7560  140.8110 C   0  0  0  0  0  3  0  0  0  0  0  0
  192.6690  175.2160  146.5780 C   0  0  0  0  0  2  0  0  0  0  0  0
  190.2390  175.1140  143.7120 C   0  0  0  0  0  0  0  0  0  0  0  0
  190.7380  175.2680  144.9550 C   0  0  0  0  0  0  0  0  0  0  0  0
  188.7250  176.4800  145.7010 C   0  0  0  0  0  0  0  0  0  0  0  0
  184.1310  178.5070  145.8590 C   0  0  0  0  0  3  0  0  0  0  0  0
  188.7700  172.8850  139.3450 C   0  0  0  0  0  3  0  0  0  0  0  0
  190.2010  173.8290  141.5600 C   0  0  0  0  0  0  0  0  0  0  0  0
  184.9590  177.8390  144.8410 C   0  0  0  0  0  3  0  0  0  0  0  0
  188.2830  173.9670  140.0820 C   0  0  0  0  0  3  0  0  0  0  0  0
  190.5480  176.2510  147.3520 C   0  0  0  0  0  2  0  0  0  0  0  0
  189.9440  175.9900  145.9920 C   0  0  0  0  0  0  0  0  0  0  0  0
  187.9860  177.1050  146.6610 N   0  0  0  0  0  0  0  0  0  0  0  0
  188.4790  175.5610  142.0080 C   0  0  0  0  0  0  0  0  0  0  0  0
  187.5700  176.7320  141.2910 S   0  0  0  0  0  0  0  0  0  0  0  0
  185.9690  178.2550  147.5180 C   0  0  0  0  0  3  0  0  0  0  0  0
  188.1890  176.3430  144.4060 C   0  0  1  0  0  3  0  0  0  0  0  0
  186.7370  177.5750  146.4120 C   0  0  0  0  0  0  0  0  0  0  0  0
  190.4540  171.1700  138.9360 N   0  0  0  0  0  2  0  0  0  0  0  0
  189.6290  170.4610  137.9670 C   0  0  0  0  0  2  0  0  0  0  0  0
  190.2420  170.5650  136.5810 C   0  0  0  0  0  2  0  0  0  0  0  0
  189.4280  171.4890  135.6900 C   0  0  0  0  0  2  0  0  0  0  0  0
  189.7920  172.8180  135.9130 O   0  0  0  0  0  1  0  0  0  0  0  0
  1 10  1  0  0  0  0
  2 12  1  0  0  0  0
  2 26  1  0  0  0  0
  3 11  1  0  0  0  0
  5  6  2  0  0  0  0
  6 27  1  0  0  0  0
  7 17  1  0  0  0  0
  7 23  1  0  0  0  0
  8 12  1  0  0  0  0
  9 25  2  0  0  0  0
 10 17  2  0  0  0  0
 11  4  1  0  0  0  0
 12 13  2  0  0  0  0
 13  3  1  0  0  0  0
 13 21  1  0  0  0  0
 14 21  2  0  0  0  0
 14 22  1  0  0  0  0
 15  9  1  0  0  0  0
 16  1  2  0  0  0  0
 16 19  1  0  0  0  0
 17  8  1  0  0  0  0
 18  6  1  0  0  0  0
 18 15  2  0  0  0  0
 19  7  2  0  0  0  0
 20  4  1  0  0  0  0
 21 20  1  0  0  0  0
 23  2  1  0  0  0  0
 24 23  2  0  0  0  0
 26  5  1  1  0  0  0
 26 14  1  0  0  0  0
 27 22  2  0  0  0  0
 27 25  1  0  0  0  0
 28  1  1  0  0  0  0
 29 28  1  0  0  0  0
 30 29  1  0  0  0  0
 31 32  1  0  0  0  0
 31 30  1  0  0  0  0
M  END
>  <MODEL>
1

>  <REMARK>
 VINA RESULT:      -8.1      0.000      0.000
  Name = 
  4 active torsions:
  status: ('A' for Active; 'I' for Inactive)
    1  A    between atoms: C_1  and  C_20
    2  A    between atoms: C_2  and  N_24
    3  A    between atoms: C_10  and  C_20
    4  A    between atoms: C_10  and  N_24
                            x       y       z     vdW  Elec       q    Type
                         _______ _______ _______ _____ _____    ______ ____

>  <TORSDO>
F 4

$$$$
=
 OpenBabel11052421433D

 32 37  0  0  0  0  0  0  0  0999 V2000
  195.1430  175.3320  145.1060 C   0  0  0  0  0  0  0  0  0  0  0  0
  190.0310  175.5340  144.9100 N   0  0  0  0  0  0  0  0  0  0  0  0
  190.0650  174.3820  141.2710 C   0  0  0  0  0  2  0  0  0  0  0  0
  187.9220  175.1250  140.2600 C   0  0  0  0  0  2  0  0  0  0  0  0
  188.3320  176.8360  146.0960 N   0  0  0  0  0  0  0  0  0  0  0  0
  187.1090  177.4170  146.1890 C   0  0  0  0  0  0  0  0  0  0  0  0
  192.4060  175.4530  145.7280 C   0  0  0  0  0  0  0  0  0  0  0  0
  191.8400  174.3710  143.5160 C   0  0  0  0  0  2  0  0  0  0  0  0
  184.5540  178.6440  146.4470 C   0  0  0  0  0  3  0  0  0  0  0  0
  194.1870  174.8840  144.1820 C   0  0  0  0  0  3  0  0  0  0  0  0
  188.9040  173.9710  140.3750 C   0  0  0  0  0  2  0  0  0  0  0  0
  190.4590  174.9710  143.6480 C   0  0  0  0  0  0  0  0  0  0  0  0
  189.6030  174.9150  142.6080 C   0  0  0  0  0  0  0  0  0  0  0  0
  187.8560  176.1050  143.8770 C   0  0  0  0  0  0  0  0  0  0  0  0
  185.4430  178.6950  147.4430 C   0  0  0  0  0  3  0  0  0  0  0  0
  194.7250  175.8320  146.3420 C   0  0  0  0  0  3  0  0  0  0  0  0
  192.8230  174.9550  144.4820 C   0  0  0  0  0  0  0  0  0  0  0  0
  186.7630  178.0570  147.3070 C   0  0  0  0  0  3  0  0  0  0  0  0
  193.3640  175.8930  146.6530 C   0  0  0  0  0  3  0  0  0  0  0  0
  187.2450  175.3490  141.6070 C   0  0  0  0  0  2  0  0  0  0  0  0
  188.2380  175.5050  142.7350 C   0  0  0  0  0  0  0  0  0  0  0  0
  186.6240  176.6780  143.9770 N   0  0  0  0  0  0  0  0  0  0  0  0
  190.9630  175.5470  146.0170 C   0  0  0  0  0  0  0  0  0  0  0  0
  190.4440  175.4060  147.5740 S   0  0  0  0  0  0  0  0  0  0  0  0
  184.8460  177.9410  145.1470 C   0  0  0  0  0  2  0  0  0  0  0  0
  188.7300  176.1650  144.9800 C   0  0  0  0  0  0  0  0  0  0  0  0
  186.2230  177.3270  145.1000 C   0  0  0  0  0  0  0  0  0  0  0  0
  196.5390  175.2750  144.8120 N   0  0  0  0  0  2  0  0  0  0  0  0
  197.2950  174.0310  144.7900 C   0  0  0  0  0  2  0  0  0  0  0  0
  197.1630  173.3120  146.1220 C   0  0  0  0  0  2  0  0  0  0  0  0
  196.7390  171.8660  145.9240 C   0  0  0  0  0  2  0  0  0  0  0  0
  195.3960  171.8030  145.5510 O   0  0  0  0  0  1  0  0  0  0  0  0
  1 16  1  0  0  0  0
  2 26  1  0  0  0  0
  2 23  1  0  0  0  0
  3 13  1  0  0  0  0
  4 11  1  0  0  0  0
  4 20  1  0  0  0  0
  5  6  1  0  0  0  0
  6 18  2  0  0  0  0
  7 23  1  0  0  0  0
  7 19  1  0  0  0  0
  8 12  1  0  0  0  0
  8 17  1  0  0  0  0
  9 15  2  0  0  0  0
 10 17  1  0  0  0  0
 10  1  2  0  0  0  0
 11  3  1  0  0  0  0
 12  2  1  0  0  0  0
 13 21  1  0  0  0  0
 13 12  2  0  0  0  0
 14 22  1  0  0  0  0
 14 26  1  0  0  0  0
 16 19  2  0  0  0  0
 17  7  2  0  0  0  0
 18 15  1  0  0  0  0
 20 21  1  0  0  0  0
 21 14  2  0  0  0  0
 22 27  2  0  0  0  0
 23 24  2  0  0  0  0
 25  9  1  0  0  0  0
 26  5  2  0  0  0  0
 27 25  1  0  0  0  0
 27  6  1  0  0  0  0
 28  1  1  0  0  0  0
 29 28  1  0  0  0  0
 29 30  1  0  0  0  0
 31 30  1  0  0  0  0
 32 31  1  0  0  0  0
M  END
>  <MODEL>
2

>  <REMARK>
 VINA RESULT:      -8.0      3.313      6.316
  Name = 
  4 active torsions:
  status: ('A' for Active; 'I' for Inactive)
    1  A    between atoms: C_1  and  C_20
    2  A    between atoms: C_2  and  N_24
    3  A    between atoms: C_10  and  C_20
    4  A    between atoms: C_10  and  N_24
                            x       y       z     vdW  Elec       q    Type
                         _______ _______ _______ _____ _____    ______ ____

>  <TORSDO>
F 4

$$$$
=
 OpenBabel11052421433D

 32 37  0  0  1  0  0  0  0  0999 V2000
  190.1120  173.7720  142.3500 C   0  0  0  0  0  0  0  0  0  0  0  0
  186.4020  177.2580  142.8870 N   0  0  0  0  0  0  0  0  0  0  0  0
  187.1630  177.5830  146.6130 C   0  0  0  0  0  2  0  0  0  0  0  0
  185.1140  178.4760  147.6920 C   0  0  0  0  0  2  0  0  0  0  0  0
  184.3140  177.7200  141.6970 N   0  0  0  0  0  0  0  0  0  0  0  0
  183.0480  178.2040  141.6330 C   0  0  0  0  0  0  0  0  0  0  0  0
  188.1340  175.7190  141.9150 C   0  0  0  0  0  0  0  0  0  0  0  0
  188.4610  176.5980  144.2610 C   0  0  0  0  0  2  0  0  0  0  0  0
  180.3950  179.2140  141.4320 C   0  0  0  0  0  3  0  0  0  0  0  0
  189.7450  174.6500  143.3800 C   0  0  0  0  0  3  0  0  0  0  0  0
  186.6280  178.5840  147.6270 C   0  0  0  0  0  2  0  0  0  0  0  0
  187.0730  177.1860  144.1670 C   0  0  0  0  0  0  0  0  0  0  0  0
  186.4920  177.7080  145.2650 C   0  0  0  0  0  0  0  0  0  0  0  0
  184.4520  178.2910  144.0080 C   0  0  0  0  0  0  0  0  0  0  0  0
  181.0010  178.6660  140.3760 C   0  0  0  0  0  3  0  0  0  0  0  0
  189.4930  173.8770  141.1020 C   0  0  0  0  0  3  0  0  0  0  0  0
  188.7510  175.6110  143.1720 C   0  0  0  0  0  0  0  0  0  0  0  0
  182.3750  178.1470  140.4820 C   0  0  0  0  0  3  0  0  0  0  0  0
  188.5090  174.8450  140.8840 C   0  0  0  0  0  3  0  0  0  0  0  0
  184.5140  178.9700  146.3810 C   0  0  0  0  0  2  0  0  0  0  0  0
  185.1210  178.2920  145.1760 C   0  0  0  0  0  0  0  0  0  0  0  0
  183.1860  178.7890  143.9370 N   0  0  0  0  0  0  0  0  0  0  0  0
  187.0690  176.7200  141.7210 C   0  0  0  0  0  0  0  0  0  0  0  0
  186.8460  177.3790  140.2280 S   0  0  0  0  0  0  0  0  0  0  0  0
  181.0700  179.3310  142.7740 C   0  0  0  0  0  3  0  0  0  0  0  0
  185.0450  177.7610  142.8450 C   0  0  1  0  0  3  0  0  0  0  0  0
  182.4680  178.7660  142.7850 C   0  0  0  0  0  0  0  0  0  0  0  0
  191.1180  172.7780  142.5480 N   0  0  0  0  0  2  0  0  0  0  0  0
  191.4860  172.2740  143.8640 C   0  0  0  0  0  2  0  0  0  0  0  0
  192.9180  172.6590  144.1920 C   0  0  0  0  0  2  0  0  0  0  0  0
  192.9630  173.7740  145.2250 C   0  0  0  0  0  2  0  0  0  0  0  0
  193.0340  175.0150  144.5920 O   0  0  0  0  0  1  0  0  0  0  0  0
  1 28  1  0  0  0  0
  1 10  1  0  0  0  0
  2 12  1  0  0  0  0
  3 11  1  0  0  0  0
  6  5  2  0  0  0  0
  6 27  1  0  0  0  0
  7 17  1  0  0  0  0
  9 25  2  0  0  0  0
 11  4  1  0  0  0  0
 12  8  1  0  0  0  0
 12 13  2  0  0  0  0
 13  3  1  0  0  0  0
 14 21  2  0  0  0  0
 15 18  2  0  0  0  0
 15  9  1  0  0  0  0
 16  1  2  0  0  0  0
 17 10  2  0  0  0  0
 17  8  1  0  0  0  0
 18  6  1  0  0  0  0
 19 16  1  0  0  0  0
 19  7  2  0  0  0  0
 20  4  1  0  0  0  0
 21 13  1  0  0  0  0
 21 20  1  0  0  0  0
 22 14  1  0  0  0  0
 23  7  1  0  0  0  0
 23  2  1  0  0  0  0
 24 23  2  0  0  0  0
 25 27  1  0  0  0  0
 26  5  1  1  0  0  0
 26  2  1  0  0  0  0
 26 14  1  0  0  0  0
 27 22  2  0  0  0  0
 28 29  1  0  0  0  0
 29 30  1  0  0  0  0
 30 31  1  0  0  0  0
 32 31  1  0  0  0  0
M  END
>  <MODEL>
3

>  <REMARK>
 VINA RESULT:      -7.9      3.123      5.437
  Name = 
  4 active torsions:
  status: ('A' for Active; 'I' for Inactive)
    1  A    between atoms: C_1  and  C_20
    2  A    between atoms: C_2  and  N_24
    3  A    between atoms: C_10  and  C_20
    4  A    between atoms: C_10  and  N_24
                            x       y       z     vdW  Elec       q    Type
                         _______ _______ _______ _____ _____    ______ ____

>  <TORSDO>
F 4

$$$$
=
 OpenBabel11052421433D

 32 37  0  0  1  0  0  0  0  0999 V2000
  190.1320  173.8340  142.0000 C   0  0  0  0  0  0  0  0  0  0  0  0
  186.4150  177.2800  142.7230 N   0  0  0  0  0  0  0  0  0  0  0  0
  187.3070  177.5540  146.4250 C   0  0  0  0  0  2  0  0  0  0  0  0
  185.2900  178.4130  147.5900 C   0  0  0  0  0  2  0  0  0  0  0  0
  184.2830  177.7420  141.6160 N   0  0  0  0  0  0  0  0  0  0  0  0
  183.0110  178.2170  141.6050 C   0  0  0  0  0  0  0  0  0  0  0  0
  188.1240  175.7710  141.6660 C   0  0  0  0  0  0  0  0  0  0  0  0
  188.5280  176.6160  144.0120 C   0  0  0  0  0  2  0  0  0  0  0  0
  180.3450  179.2060  141.5140 C   0  0  0  0  0  3  0  0  0  0  0  0
  189.7940  174.6930  143.0570 C   0  0  0  0  0  3  0  0  0  0  0  0
  186.8000  178.5350  147.4730 C   0  0  0  0  0  2  0  0  0  0  0  0
  187.1330  177.1940  143.9770 C   0  0  0  0  0  0  0  0  0  0  0  0
  186.5870  177.6950  145.1030 C   0  0  0  0  0  0  0  0  0  0  0  0
  184.4990  178.2790  143.9290 C   0  0  0  0  0  0  0  0  0  0  0  0
  180.9180  178.6800  140.4290 C   0  0  0  0  0  3  0  0  0  0  0  0
  189.4670  173.9530  140.7770 C   0  0  0  0  0  3  0  0  0  0  0  0
  188.7870  175.6490  142.8990 C   0  0  0  0  0  0  0  0  0  0  0  0
  182.2980  178.1710  140.4770 C   0  0  0  0  0  3  0  0  0  0  0  0
  188.4680  174.9160  140.6090 C   0  0  0  0  0  3  0  0  0  0  0  0
  184.6400  178.9220  146.3090 C   0  0  0  0  0  2  0  0  0  0  0  0
  185.2090  178.2680  145.0720 C   0  0  0  0  0  0  0  0  0  0  0  0
  183.2270  178.7670  143.9120 N   0  0  0  0  0  0  0  0  0  0  0  0
  187.0440  176.7660  141.5260 C   0  0  0  0  0  0  0  0  0  0  0  0
  186.7630  177.4450  140.0530 S   0  0  0  0  0  0  0  0  0  0  0  0
  181.0670  179.3080  142.8320 C   0  0  0  0  0  3  0  0  0  0  0  0
  185.0540  177.7720  142.7380 C   0  0  1  0  0  3  0  0  0  0  0  0
  182.4690  178.7550  142.7850 C   0  0  0  0  0  0  0  0  0  0  0  0
  191.1520  172.8460  142.1460 N   0  0  0  0  0  2  0  0  0  0  0  0
  190.9540  171.6070  142.8850 C   0  0  0  0  0  2  0  0  0  0  0  0
  190.4380  170.5190  141.9590 C   0  0  0  0  0  2  0  0  0  0  0  0
  191.4430  169.3870  141.8290 C   0  0  0  0  0  2  0  0  0  0  0  0
  192.5550  169.6330  142.6360 O   0  0  0  0  0  1  0  0  0  0  0  0
  1 28  1  0  0  0  0
  1 10  1  0  0  0  0
  2 26  1  0  0  0  0
  2 12  1  0  0  0  0
  3 11  1  0  0  0  0
  6  5  2  0  0  0  0
  6 27  1  0  0  0  0
  7 17  1  0  0  0  0
  9 25  2  0  0  0  0
 11  4  1  0  0  0  0
 12  8  1  0  0  0  0
 12 13  2  0  0  0  0
 13  3  1  0  0  0  0
 14 21  2  0  0  0  0
 15 18  2  0  0  0  0
 15  9  1  0  0  0  0
 16  1  2  0  0  0  0
 17 10  2  0  0  0  0
 17  8  1  0  0  0  0
 18  6  1  0  0  0  0
 19 16  1  0  0  0  0
 19  7  2  0  0  0  0
 20  4  1  0  0  0  0
 21 13  1  0  0  0  0
 21 20  1  0  0  0  0
 22 14  1  0  0  0  0
 23  7  1  0  0  0  0
 23  2  1  0  0  0  0
 24 23  2  0  0  0  0
 26  5  1  1  0  0  0
 26 14  1  0  0  0  0
 27 25  1  0  0  0  0
 27 22  2  0  0  0  0
 28 29  1  0  0  0  0
 30 29  1  0  0  0  0
 31 30  1  0  0  0  0
 31 32  1  0  0  0  0
M  END
>  <MODEL>
4

>  <REMARK>
 VINA RESULT:      -7.6      3.054      4.945
  Name = 
  4 active torsions:
  status: ('A' for Active; 'I' for Inactive)
    1  A    between atoms: C_1  and  C_20
    2  A    between atoms: C_2  and  N_24
    3  A    between atoms: C_10  and  C_20
    4  A    between atoms: C_10  and  N_24
                            x       y       z     vdW  Elec       q    Type
                         _______ _______ _______ _____ _____    ______ ____

>  <TORSDO>
F 4

$$$$
=
 OpenBabel11052421433D

 32 37  0  0  0  0  0  0  0  0999 V2000
  186.1880  176.8180  145.8860 C   0  0  0  0  0  0  0  0  0  0  0  0
  190.3720  174.7170  143.8130 N   0  0  0  0  0  0  0  0  0  0  0  0
  188.5660  174.2650  140.4800 C   0  0  0  0  0  2  0  0  0  0  0  0
  189.7550  172.4620  139.2550 C   0  0  0  0  0  2  0  0  0  0  0  0
  192.2750  173.4710  144.7130 N   0  0  0  0  0  0  0  0  0  0  0  0
  193.2880  172.5730  144.6000 C   0  0  0  0  0  0  0  0  0  0  0  0
  188.8080  175.9690  145.3310 C   0  0  0  0  0  0  0  0  0  0  0  0
  188.2500  175.8040  142.8730 C   0  0  0  0  0  2  0  0  0  0  0  0
  195.4340  170.7140  144.4230 C   0  0  0  0  0  3  0  0  0  0  0  0
  186.5610  176.4840  144.5760 C   0  0  0  0  0  3  0  0  0  0  0  0
  189.1220  173.8370  139.1290 C   0  0  0  0  0  2  0  0  0  0  0  0
  189.4130  174.8490  142.7370 C   0  0  0  0  0  0  0  0  0  0  0  0
  189.5960  174.1760  141.5840 C   0  0  0  0  0  0  0  0  0  0  0  0
  191.5960  173.0390  142.4690 C   0  0  0  0  0  0  0  0  0  0  0  0
  195.2020  171.3860  145.5520 C   0  0  0  0  0  3  0  0  0  0  0  0
  187.1310  176.7320  146.9140 C   0  0  0  0  0  3  0  0  0  0  0  0
  187.8600  176.0490  144.2970 C   0  0  0  0  0  0  0  0  0  0  0  0
  194.0920  172.3490  145.6410 C   0  0  0  0  0  3  0  0  0  0  0  0
  188.4350  176.3110  146.6390 C   0  0  0  0  0  3  0  0  0  0  0  0
  191.0070  172.5590  140.1190 C   0  0  0  0  0  2  0  0  0  0  0  0
  190.7450  173.2330  141.4450 C   0  0  0  0  0  0  0  0  0  0  0  0
  192.6210  172.1480  142.3540 N   0  0  0  0  0  0  0  0  0  0  0  0
  190.1660  175.4810  145.0250 C   0  0  0  0  0  0  0  0  0  0  0  0
  191.4370  176.0260  145.9180 S   0  0  0  0  0  0  0  0  0  0  0  0
  194.5870  170.8990  143.1900 C   0  0  0  0  0  2  0  0  0  0  0  0
  191.4320  173.7400  143.6790 C   0  0  0  0  0  0  0  0  0  0  0  0
  193.4740  171.8980  143.3810 C   0  0  0  0  0  0  0  0  0  0  0  0
  184.8630  177.2560  146.1900 N   0  0  0  0  0  2  0  0  0  0  0  0
  184.4720  178.6580  146.1850 C   0  0  0  0  0  2  0  0  0  0  0  0
  184.1850  179.1190  144.7660 C   0  0  0  0  0  2  0  0  0  0  0  0
  185.3140  179.9860  144.2340 C   0  0  0  0  0  2  0  0  0  0  0  0
  185.8580  179.4180  143.0820 O   0  0  0  0  0  1  0  0  0  0  0  0
  1 28  1  0  0  0  0
  1 16  1  0  0  0  0
  2 23  1  0  0  0  0
  3 13  1  0  0  0  0
  4 20  1  0  0  0  0
  6  5  1  0  0  0  0
  6 18  2  0  0  0  0
  7 19  1  0  0  0  0
  8 17  1  0  0  0  0
  9 15  2  0  0  0  0
 10  1  2  0  0  0  0
 11  4  1  0  0  0  0
 11  3  1  0  0  0  0
 12  8  1  0  0  0  0
 12  2  1  0  0  0  0
 13 12  2  0  0  0  0
 14 26  1  0  0  0  0
 15 18  1  0  0  0  0
 17 10  1  0  0  0  0
 17  7  2  0  0  0  0
 19 16  2  0  0  0  0
 20 21  1  0  0  0  0
 21 13  1  0  0  0  0
 21 14  2  0  0  0  0
 22 14  1  0  0  0  0
 22 27  2  0  0  0  0
 23  7  1  0  0  0  0
 23 24  2  0  0  0  0
 25 27  1  0  0  0  0
 25  9  1  0  0  0  0
 26  2  1  0  0  0  0
 26  5  2  0  0  0  0
 27  6  1  0  0  0  0
 29 28  1  0  0  0  0
 30 29  1  0  0  0  0
 31 30  1  0  0  0  0
 32 31  1  0  0  0  0
M  END
>  <MODEL>
5

>  <REMARK>
 VINA RESULT:      -7.5      3.144      8.493
  Name = 
  4 active torsions:
  status: ('A' for Active; 'I' for Inactive)
    1  A    between atoms: C_1  and  C_20
    2  A    between atoms: C_2  and  N_24
    3  A    between atoms: C_10  and  C_20
    4  A    between atoms: C_10  and  N_24
                            x       y       z     vdW  Elec       q    Type
                         _______ _______ _______ _____ _____    ______ ____

>  <TORSDO>
F 4

$$$$
=
 OpenBabel11052421433D

 32 37  0  0  0  0  0  0  0  0999 V2000
  186.4180  178.1570  144.2210 C   0  0  0  0  0  0  0  0  0  0  0  0
  190.2810  174.9970  143.0790 N   0  0  0  0  0  0  0  0  0  0  0  0
  192.3840  176.4460  145.9170 C   0  0  0  0  0  2  0  0  0  0  0  0
  194.7580  175.9700  145.3690 C   0  0  0  0  0  2  0  0  0  0  0  0
  191.0200  173.8830  141.0300 N   0  0  0  0  0  0  0  0  0  0  0  0
  191.9730  173.3200  140.2430 C   0  0  0  0  0  0  0  0  0  0  0  0
  188.0130  176.0690  143.2250 C   0  0  0  0  0  0  0  0  0  0  0  0
  189.6290  176.3690  145.1430 C   0  0  0  0  0  2  0  0  0  0  0  0
  193.9210  172.1170  138.5530 C   0  0  0  0  0  3  0  0  0  0  0  0
  187.6140  177.8090  144.8670 C   0  0  0  0  0  3  0  0  0  0  0  0
  193.7170  175.9670  146.4750 C   0  0  0  0  0  2  0  0  0  0  0  0
  190.6730  175.6910  144.2870 C   0  0  0  0  0  0  0  0  0  0  0  0
  191.9600  175.6730  144.6880 C   0  0  0  0  0  0  0  0  0  0  0  0
  192.6550  174.4250  142.6800 C   0  0  0  0  0  0  0  0  0  0  0  0
  192.6380  172.1790  138.1850 C   0  0  0  0  0  3  0  0  0  0  0  0
  186.0210  177.4520  143.0810 C   0  0  0  0  0  3  0  0  0  0  0  0
  188.4170  176.7800  144.3670 C   0  0  0  0  0  0  0  0  0  0  0  0
  191.6320  172.7990  139.0620 C   0  0  0  0  0  3  0  0  0  0  0  0
  186.8130  176.4130  142.5850 C   0  0  0  0  0  3  0  0  0  0  0  0
  194.4140  174.8930  144.3470 C   0  0  0  0  0  2  0  0  0  0  0  0
  192.9940  175.0030  143.8460 C   0  0  0  0  0  0  0  0  0  0  0  0
  193.6070  173.8480  141.8930 N   0  0  0  0  0  0  0  0  0  0  0  0
  188.8860  175.0050  142.6950 C   0  0  0  0  0  0  0  0  0  0  0  0
  188.2100  173.7300  141.9030 S   0  0  0  0  0  0  0  0  0  0  0  0
  194.4050  172.6710  139.8680 C   0  0  0  0  0  2  0  0  0  0  0  0
  191.3150  174.4210  142.2460 C   0  0  0  0  0  0  0  0  0  0  0  0
  193.3050  173.2920  140.6920 C   0  0  0  0  0  0  0  0  0  0  0  0
  185.5900  179.2120  144.7120 N   0  0  0  0  0  2  0  0  0  0  0  0
  184.2520  178.9880  145.2410 C   0  0  0  0  0  2  0  0  0  0  0  0
  184.3030  178.0040  146.3980 C   0  0  0  0  0  2  0  0  0  0  0  0
  185.0900  178.5730  147.5670 C   0  0  0  0  0  2  0  0  0  0  0  0
  186.0080  177.6310  148.0350 O   0  0  0  0  0  1  0  0  0  0  0  0
  1 28  1  0  0  0  0
  1 10  1  0  0  0  0
  2 12  1  0  0  0  0
  3 11  1  0  0  0  0
  4 11  1  0  0  0  0
  5 26  2  0  0  0  0
  6 27  1  0  0  0  0
  6  5  1  0  0  0  0
  7 17  1  0  0  0  0
  9 25  1  0  0  0  0
 12 13  2  0  0  0  0
 12  8  1  0  0  0  0
 13  3  1  0  0  0  0
 14 21  2  0  0  0  0
 15  9  2  0  0  0  0
 15 18  1  0  0  0  0
 16  1  2  0  0  0  0
 17 10  2  0  0  0  0
 17  8  1  0  0  0  0
 18  6  2  0  0  0  0
 19 16  1  0  0  0  0
 19  7  2  0  0  0  0
 20  4  1  0  0  0  0
 21 20  1  0  0  0  0
 21 13  1  0  0  0  0
 22 14  1  0  0  0  0
 23  2  1  0  0  0  0
 23  7  1  0  0  0  0
 24 23  2  0  0  0  0
 25 27  1  0  0  0  0
 26 14  1  0  0  0  0
 26  2  1  0  0  0  0
 27 22  2  0  0  0  0
 28 29  1  0  0  0  0
 29 30  1  0  0  0  0
 30 31  1  0  0  0  0
 31 32  1  0  0  0  0
M  END
>  <MODEL>
6

>  <REMARK>
 VINA RESULT:      -7.5      3.248      8.110
  Name = 
  4 active torsions:
  status: ('A' for Active; 'I' for Inactive)
    1  A    between atoms: C_1  and  C_20
    2  A    between atoms: C_2  and  N_24
    3  A    between atoms: C_10  and  C_20
    4  A    between atoms: C_10  and  N_24
                            x       y       z     vdW  Elec       q    Type
                         _______ _______ _______ _____ _____    ______ ____

>  <TORSDO>
F 4

$$$$
=
 OpenBabel11052421433D

 32 37  0  0  0  0  0  0  0  0999 V2000
  186.7610  177.1610  144.0960 C   0  0  0  0  0  0  0  0  0  0  0  0
  191.2600  174.8840  143.2080 N   0  0  0  0  0  0  0  0  0  0  0  0
  189.5940  172.3730  140.8660 C   0  0  0  0  0  2  0  0  0  0  0  0
  191.0810  170.3870  140.7640 C   0  0  0  0  0  2  0  0  0  0  0  0
  193.3340  174.6560  144.4860 N   0  0  0  0  0  0  0  0  0  0  0  0
  194.4830  174.0090  144.8090 C   0  0  0  0  0  0  0  0  0  0  0  0
  189.4920  176.5350  143.8910 C   0  0  0  0  0  0  0  0  0  0  0  0
  188.9980  174.9300  142.0040 C   0  0  0  0  0  2  0  0  0  0  0  0
  196.9110  172.7070  145.5220 C   0  0  0  0  0  3  0  0  0  0  0  0
  187.2000  176.2030  143.1700 C   0  0  0  0  0  3  0  0  0  0  0  0
  190.2290  171.3400  139.9440 C   0  0  0  0  0  2  0  0  0  0  0  0
  190.3050  174.2450  142.3280 C   0  0  0  0  0  0  0  0  0  0  0  0
  190.6110  173.0720  141.7380 C   0  0  0  0  0  0  0  0  0  0  0  0
  192.7620  172.9370  142.9350 C   0  0  0  0  0  0  0  0  0  0  0  0
  196.5560  173.8590  146.0970 C   0  0  0  0  0  3  0  0  0  0  0  0
  187.6930  177.8090  144.9110 C   0  0  0  0  0  3  0  0  0  0  0  0
  188.5560  175.8780  143.0750 C   0  0  0  0  0  0  0  0  0  0  0  0
  195.3010  174.5320  145.7250 C   0  0  0  0  0  3  0  0  0  0  0  0
  189.0520  177.4990  144.8100 C   0  0  0  0  0  3  0  0  0  0  0  0
  192.2890  171.1340  141.3160 C   0  0  0  0  0  2  0  0  0  0  0  0
  191.9020  172.3930  142.0540 C   0  0  0  0  0  0  0  0  0  0  0  0
  193.9230  172.2970  143.2510 N   0  0  0  0  0  0  0  0  0  0  0  0
  190.9160  176.1610  143.7970 C   0  0  0  0  0  0  0  0  0  0  0  0
  192.0680  177.2920  144.1200 S   0  0  0  0  0  0  0  0  0  0  0  0
  196.0590  172.0390  144.4730 C   0  0  0  0  0  2  0  0  0  0  0  0
  192.4690  174.1680  143.5540 C   0  0  0  0  0  0  0  0  0  0  0  0
  194.7930  172.7980  144.1660 C   0  0  0  0  0  0  0  0  0  0  0  0
  185.3780  177.4980  144.2140 N   0  0  0  0  0  2  0  0  0  0  0  0
  184.9160  178.7860  144.7110 C   0  0  0  0  0  2  0  0  0  0  0  0
  184.0290  178.5910  145.9290 C   0  0  0  0  0  2  0  0  0  0  0  0
  184.8590  178.3480  147.1790 C   0  0  0  0  0  2  0  0  0  0  0  0
  185.7360  179.4120  147.3910 O   0  0  0  0  0  1  0  0  0  0  0  0
  1 28  1  0  0  0  0
  1 16  1  0  0  0  0
  2 26  1  0  0  0  0
  2 23  1  0  0  0  0
  3 13  1  0  0  0  0
  4 20  1  0  0  0  0
  5  6  1  0  0  0  0
  6 18  2  0  0  0  0
  7 19  1  0  0  0  0
  8 12  1  0  0  0  0
  8 17  1  0  0  0  0
  9 15  2  0  0  0  0
 10  1  2  0  0  0  0
 11  4  1  0  0  0  0
 11  3  1  0  0  0  0
 12  2  1  0  0  0  0
 13 21  1  0  0  0  0
 13 12  2  0  0  0  0
 14 22  1  0  0  0  0
 14 26  1  0  0  0  0
 17 10  1  0  0  0  0
 17  7  2  0  0  0  0
 18 15  1  0  0  0  0
 19 16  2  0  0  0  0
 20 21  1  0  0  0  0
 21 14  2  0  0  0  0
 22 27  2  0  0  0  0
 23  7  1  0  0  0  0
 23 24  2  0  0  0  0
 25  9  1  0  0  0  0
 26  5  2  0  0  0  0
 27 25  1  0  0  0  0
 27  6  1  0  0  0  0
 28 29  1  0  0  0  0
 29 30  1  0  0  0  0
 30 31  1  0  0  0  0
 31 32  1  0  0  0  0
M  END
>  <MODEL>
7

>  <REMARK>
 VINA RESULT:      -7.4      3.608      8.524
  Name = 
  4 active torsions:
  status: ('A' for Active; 'I' for Inactive)
    1  A    between atoms: C_1  and  C_20
    2  A    between atoms: C_2  and  N_24
    3  A    between atoms: C_10  and  C_20
    4  A    between atoms: C_10  and  N_24
                            x       y       z     vdW  Elec       q    Type
                         _______ _______ _______ _____ _____    ______ ____

>  <TORSDO>
F 4

$$$$
=
 OpenBabel11052421433D

 32 37  0  0  1  0  0  0  0  0999 V2000
  186.3680  178.1030  143.0100 C   0  0  0  0  0  0  0  0  0  0  0  0
  190.5940  175.2210  142.7970 N   0  0  0  0  0  0  0  0  0  0  0  0
  191.6750  176.4470  146.2470 C   0  0  0  0  0  2  0  0  0  0  0  0
  194.1320  176.1170  146.3910 C   0  0  0  0  0  2  0  0  0  0  0  0
  191.9710  174.3510  140.9720 N   0  0  0  0  0  0  0  0  0  0  0  0
  193.1460  173.9080  140.4570 C   0  0  0  0  0  0  0  0  0  0  0  0
  188.3170  176.1890  142.3550 C   0  0  0  0  0  0  0  0  0  0  0  0
  189.2790  176.3490  144.6860 C   0  0  0  0  0  2  0  0  0  0  0  0
  195.5770  172.9570  139.3240 C   0  0  0  0  0  3  0  0  0  0  0  0
  187.3420  177.7360  143.9500 C   0  0  0  0  0  3  0  0  0  0  0  0
  192.8150  175.9630  147.1330 C   0  0  0  0  0  2  0  0  0  0  0  0
  190.5690  175.8020  144.1230 C   0  0  0  0  0  0  0  0  0  0  0  0
  191.6810  175.7890  144.8860 C   0  0  0  0  0  0  0  0  0  0  0  0
  193.0130  174.7810  143.0730 C   0  0  0  0  0  0  0  0  0  0  0  0
  194.4580  173.0090  138.5990 C   0  0  0  0  0  3  0  0  0  0  0  0
  186.3690  177.5050  141.7470 C   0  0  0  0  0  3  0  0  0  0  0  0
  188.3220  176.7930  143.6240 C   0  0  0  0  0  0  0  0  0  0  0  0
  193.2010  173.4990  139.1880 C   0  0  0  0  0  3  0  0  0  0  0  0
  187.3370  176.5530  141.4200 C   0  0  0  0  0  3  0  0  0  0  0  0
  194.1730  175.1390  145.2230 C   0  0  0  0  0  2  0  0  0  0  0  0
  192.9580  175.2470  144.3340 C   0  0  0  0  0  0  0  0  0  0  0  0
  194.1880  174.3220  142.5580 N   0  0  0  0  0  0  0  0  0  0  0  0
  189.3740  175.2180  142.0180 C   0  0  0  0  0  0  0  0  0  0  0  0
  189.0440  174.0070  140.9520 S   0  0  0  0  0  0  0  0  0  0  0  0
  195.6190  173.3900  140.7670 C   0  0  0  0  0  3  0  0  0  0  0  0
  191.8620  174.7720  142.2620 C   0  0  1  0  0  3  0  0  0  0  0  0
  194.2880  173.8830  141.2780 C   0  0  0  0  0  0  0  0  0  0  0  0
  185.3650  179.0710  143.3230 N   0  0  0  0  0  2  0  0  0  0  0  0
  185.1840  179.6210  144.6590 C   0  0  0  0  0  2  0  0  0  0  0  0
  184.0810  178.8740  145.3890 C   0  0  0  0  0  2  0  0  0  0  0  0
  184.6110  178.2040  146.6460 C   0  0  0  0  0  2  0  0  0  0  0  0
  184.8770  176.8570  146.4000 O   0  0  0  0  0  1  0  0  0  0  0  0
  1 28  1  0  0  0  0
  1 10  1  0  0  0  0
  2 12  1  0  0  0  0
  3 11  1  0  0  0  0
  4 11  1  0  0  0  0
  6  5  2  0  0  0  0
  6 27  1  0  0  0  0
  7 17  1  0  0  0  0
  9 25  2  0  0  0  0
 12  8  1  0  0  0  0
 12 13  2  0  0  0  0
 13  3  1  0  0  0  0
 14 21  2  0  0  0  0
 15 18  2  0  0  0  0
 15  9  1  0  0  0  0
 16  1  2  0  0  0  0
 17 10  2  0  0  0  0
 17  8  1  0  0  0  0
 18  6  1  0  0  0  0
 19 16  1  0  0  0  0
 19  7  2  0  0  0  0
 20  4  1  0  0  0  0
 21 13  1  0  0  0  0
 21 20  1  0  0  0  0
 22 14  1  0  0  0  0
 23  7  1  0  0  0  0
 23  2  1  0  0  0  0
 24 23  2  0  0  0  0
 25 27  1  0  0  0  0
 26  5  1  6  0  0  0
 26  2  1  0  0  0  0
 26 14  1  0  0  0  0
 27 22  2  0  0  0  0
 28 29  1  0  0  0  0
 29 30  1  0  0  0  0
 30 31  1  0  0  0  0
 32 31  1  0  0  0  0
M  END
>  <MODEL>
8

>  <REMARK>
 VINA RESULT:      -7.3      3.373      7.977
  Name = 
  4 active torsions:
  status: ('A' for Active; 'I' for Inactive)
    1  A    between atoms: C_1  and  C_20
    2  A    between atoms: C_2  and  N_24
    3  A    between atoms: C_10  and  C_20
    4  A    between atoms: C_10  and  N_24
                            x       y       z     vdW  Elec       q    Type
                         _______ _______ _______ _____ _____    ______ ____

>  <TORSDO>
F 4

$$$$
=
 OpenBabel11052421433D

 32 37  0  0  0  0  0  0  0  0999 V2000
  186.2730  177.2960  143.6350 C   0  0  0  0  0  0  0  0  0  0  0  0
  190.8680  175.1410  142.9670 N   0  0  0  0  0  0  0  0  0  0  0  0
  189.3760  172.5540  140.5900 C   0  0  0  0  0  2  0  0  0  0  0  0
  190.9220  170.6110  140.5770 C   0  0  0  0  0  2  0  0  0  0  0  0
  192.8920  174.9880  144.3340 N   0  0  0  0  0  0  0  0  0  0  0  0
  194.0440  174.3790  144.7140 C   0  0  0  0  0  0  0  0  0  0  0  0
  189.0270  176.7470  143.5540 C   0  0  0  0  0  0  0  0  0  0  0  0
  188.6590  175.1060  141.6690 C   0  0  0  0  0  2  0  0  0  0  0  0
  196.4760  173.1570  145.5450 C   0  0  0  0  0  3  0  0  0  0  0  0
  186.7780  176.3390  142.7420 C   0  0  0  0  0  3  0  0  0  0  0  0
  190.0790  171.5290  139.7090 C   0  0  0  0  0  2  0  0  0  0  0  0
  189.9710  174.4630  142.0570 C   0  0  0  0  0  0  0  0  0  0  0  0
  190.3350  173.2930  141.4960 C   0  0  0  0  0  0  0  0  0  0  0  0
  192.4360  173.2350  142.7830 C   0  0  0  0  0  0  0  0  0  0  0  0
  196.0650  174.3040  146.0890 C   0  0  0  0  0  3  0  0  0  0  0  0
  187.1500  177.9800  144.4800 C   0  0  0  0  0  3  0  0  0  0  0  0
  188.1460  176.0530  142.7070 C   0  0  0  0  0  0  0  0  0  0  0  0
  194.8080  174.9360  145.6560 C   0  0  0  0  0  3  0  0  0  0  0  0
  188.5210  177.7080  144.4410 C   0  0  0  0  0  3  0  0  0  0  0  0
  192.0840  171.4000  141.1690 C   0  0  0  0  0  2  0  0  0  0  0  0
  191.6310  172.6560  141.8740 C   0  0  0  0  0  0  0  0  0  0  0  0
  193.6000  172.6330  143.1560 N   0  0  0  0  0  0  0  0  0  0  0  0
  190.4630  176.4130  143.5240 C   0  0  0  0  0  0  0  0  0  0  0  0
  191.5680  177.5810  143.8810 S   0  0  0  0  0  0  0  0  0  0  0  0
  195.6890  172.4520  144.4700 C   0  0  0  0  0  2  0  0  0  0  0  0
  192.0820  174.4640  143.3730 C   0  0  0  0  0  0  0  0  0  0  0  0
  194.4160  173.1690  144.1000 C   0  0  0  0  0  0  0  0  0  0  0  0
  184.8770  177.5930  143.6900 N   0  0  0  0  0  2  0  0  0  0  0  0
  184.2680  178.6780  142.9340 C   0  0  0  0  0  2  0  0  0  0  0  0
  183.2880  178.1230  141.9150 C   0  0  0  0  0  2  0  0  0  0  0  0
  183.8200  178.2830  140.5000 C   0  0  0  0  0  2  0  0  0  0  0  0
  185.1790  178.5960  140.5280 O   0  0  0  0  0  1  0  0  0  0  0  0
  1 28  1  0  0  0  0
  1 16  1  0  0  0  0
  2 26  1  0  0  0  0
  2 23  1  0  0  0  0
  3 13  1  0  0  0  0
  4 20  1  0  0  0  0
  5  6  1  0  0  0  0
  6 18  2  0  0  0  0
  7 19  1  0  0  0  0
  8 12  1  0  0  0  0
  8 17  1  0  0  0  0
  9 15  2  0  0  0  0
 10  1  2  0  0  0  0
 11  4  1  0  0  0  0
 11  3  1  0  0  0  0
 12  2  1  0  0  0  0
 13 21  1  0  0  0  0
 13 12  2  0  0  0  0
 14 22  1  0  0  0  0
 14 26  1  0  0  0  0
 17 10  1  0  0  0  0
 17  7  2  0  0  0  0
 18 15  1  0  0  0  0
 19 16  2  0  0  0  0
 20 21  1  0  0  0  0
 21 14  2  0  0  0  0
 22 27  2  0  0  0  0
 23  7  1  0  0  0  0
 23 24  2  0  0  0  0
 25  9  1  0  0  0  0
 26  5  2  0  0  0  0
 27 25  1  0  0  0  0
 27  6  1  0  0  0  0
 29 28  1  0  0  0  0
 30 29  1  0  0  0  0
 31 32  1  0  0  0  0
 31 30  1  0  0  0  0
M  END
>  <MODEL>
9

>  <REMARK>
 VINA RESULT:      -7.2      3.041      7.787
  Name = 
  4 active torsions:
  status: ('A' for Active; 'I' for Inactive)
    1  A    between atoms: C_1  and  C_20
    2  A    between atoms: C_2  and  N_24
    3  A    between atoms: C_10  and  C_20
    4  A    between atoms: C_10  and  N_24
                            x       y       z     vdW  Elec       q    Type
                         _______ _______ _______ _____ _____    ______ ____

>  <TORSDO>
F 4

$$$$
