=
 OpenBabel11052418403D

 34 37  0  0  1  0  0  0  0  0999 V2000
  189.4500  173.7640  143.7530 C   0  0  2  0  0  3  0  0  0  0  0  0
  189.7000  174.0320  141.2010 C   0  0  2  0  0  3  0  0  0  0  0  0
  189.0890  174.5500  140.0560 O   0  0  0  0  0  1  0  0  0  0  0  0
  190.4440  172.6080  143.5710 C   0  0  0  0  0  2  0  0  0  0  0  0
  190.1230  170.6010  142.3880 O   0  0  0  0  0  0  0  0  0  0  0  0
  189.9080  172.5240  141.0180 C   0  0  2  0  0  3  0  0  0  0  0  0
  188.8360  174.3170  142.4390 C   0  0  2  0  0  3  0  0  0  0  0  0
  190.1590  171.8200  142.3300 C   0  0  0  0  0  0  0  0  0  0  0  0
  189.2310  175.2820  145.7590 C   0  0  0  0  0  2  0  0  0  0  0  0
  191.3370  175.3020  144.6110 C   0  0  0  0  0  0  0  0  0  0  0  0
  189.9300  176.5200  146.3170 C   0  0  1  0  0  3  0  0  0  0  0  0
  191.7130  176.4340  145.9250 S   0  0  0  0  0  0  0  0  0  0  0  0
  190.0030  174.7990  144.6320 N   0  0  0  0  0  0  0  0  0  0  0  0
  189.3310  177.7650  145.6930 C   0  0  0  0  0  1  0  0  0  0  0  0
  192.3130  175.1960  143.2990 S   0  0  0  0  0  0  0  0  0  0  0  0
  189.1660  176.6760  142.2840 O   0  0  0  0  0  0  0  0  0  0  0  0
  187.0050  176.0230  142.8720 N   0  0  0  0  0  2  0  0  0  0  0  0
  188.3630  175.7390  142.5370 C   0  0  0  0  0  0  0  0  0  0  0  0
  186.4790  177.3750  142.9260 C   0  0  0  0  0  2  0  0  0  0  0  0
  185.8710  179.9160  144.5680 F   0  0  0  0  0  0  0  0  0  0  0  0
  185.7650  177.5770  144.2190 C   0  0  0  0  0  0  0  0  0  0  0  0
  184.9890  178.8570  144.4370 C   0  0  1  0  0  3  0  0  0  0  0  0
  184.8160  178.1850  146.8440 C   0  0  0  0  0  2  0  0  0  0  0  0
  185.1780  176.7430  146.5020 C   0  0  0  0  0  2  0  0  0  0  0  0
  185.8980  176.6500  145.1830 C   0  0  0  0  0  3  0  0  0  0  0  0
  184.0750  178.7990  145.6640 C   0  0  0  0  0  2  0  0  0  0  0  0
  191.0600  172.2890  140.0450 C   0  0  0  0  0  2  0  0  0  0  0  0
  190.0800  172.0210  136.4510 C   0  0  0  0  0  0  0  0  0  0  0  0
  189.6880  170.6850  136.3380 C   0  0  0  0  0  3  0  0  0  0  0  0
  190.5700  171.7200  138.7570 C   0  0  0  0  0  0  0  0  0  0  0  0
  189.7450  169.8600  137.4630 C   0  0  0  0  0  3  0  0  0  0  0  0
  190.5100  172.5070  137.6470 N   0  0  0  0  0  0  0  0  0  0  0  0
  190.1880  170.3770  138.6820 C   0  0  0  0  0  3  0  0  0  0  0  0
  190.0310  172.8740  135.3150 N   0  0  0  0  0  1  0  0  0  0  0  0
  1  4  1  6  0  0  0
  1 13  1  0  0  0  0
  2  3  1  6  0  0  0
  2  7  1  0  0  0  0
  6 27  1  6  0  0  0
  6  2  1  0  0  0  0
  6  8  1  0  0  0  0
  7 18  1  1  0  0  0
  7  1  1  0  0  0  0
  8  5  2  0  0  0  0
  8  4  1  0  0  0  0
  9 11  1  0  0  0  0
 10 13  1  0  0  0  0
 10 12  1  0  0  0  0
 11 14  1  6  0  0  0
 12 11  1  0  0  0  0
 13  9  1  0  0  0  0
 15 10  2  0  0  0  0
 16 18  2  0  0  0  0
 17 19  1  0  0  0  0
 18 17  1  0  0  0  0
 19 21  1  0  0  0  0
 21 22  1  0  0  0  0
 21 25  2  0  0  0  0
 22 20  1  1  0  0  0
 22 26  1  0  0  0  0
 24 23  1  0  0  0  0
 25 24  1  0  0  0  0
 26 23  1  0  0  0  0
 28 32  1  0  0  0  0
 29 28  2  0  0  0  0
 29 31  1  0  0  0  0
 30 27  1  0  0  0  0
 31 33  2  0  0  0  0
 32 30  2  0  0  0  0
 33 30  1  0  0  0  0
 34 28  1  0  0  0  0
M  END
>  <MODEL>
1

>  <REMARK>
 VINA RESULT:      -7.6      0.000      0.000
  Name = 
  6 active torsions:
  status: ('A' for Active; 'I' for Inactive)
    1  A    between atoms: C_3  and  C_13
    2  A    between atoms: C_3  and  N_17
    3  A    between atoms: C_4  and  N_15
    4  A    between atoms: C_12  and  C_28
    5  A    between atoms: C_26  and  C_28
    6  A    between atoms: C_29  and  C_31
                            x       y       z     vdW  Elec       q    Type
                         _______ _______ _______ _____ _____    ______ ____

>  <TORSDO>
F 6

$$$$
=
 OpenBabel11052418403D

 34 37  0  0  1  0  0  0  0  0999 V2000
  191.2800  176.4860  144.0030 C   0  0  2  0  0  3  0  0  0  0  0  0
  191.9800  175.4380  146.2520 C   0  0  2  0  0  3  0  0  0  0  0  0
  191.6730  175.3810  147.6140 O   0  0  0  0  0  1  0  0  0  0  0  0
  192.7190  176.1570  143.5810 C   0  0  0  0  0  2  0  0  0  0  0  0
  194.7160  177.0490  144.4430 O   0  0  0  0  0  0  0  0  0  0  0  0
  193.4220  175.9310  146.0840 C   0  0  2  0  0  3  0  0  0  0  0  0
  190.9970  176.3680  145.5250 C   0  0  2  0  0  3  0  0  0  0  0  0
  193.6960  176.4230  144.6830 C   0  0  0  0  0  0  0  0  0  0  0  0
  190.3740  174.3340  143.0400 C   0  0  0  0  0  2  0  0  0  0  0  0
  189.1570  176.3410  142.5430 C   0  0  0  0  0  0  0  0  0  0  0  0
  189.4350  173.9130  141.9110 C   0  0  1  0  0  3  0  0  0  0  0  0
  188.1110  175.1590  141.7300 S   0  0  0  0  0  0  0  0  0  0  0  0
  190.3110  175.7770  143.1610 N   0  0  0  0  0  0  0  0  0  0  0  0
  190.2150  173.8060  140.6160 C   0  0  0  0  0  1  0  0  0  0  0  0
  188.9970  177.9430  142.2360 S   0  0  0  0  0  0  0  0  0  0  0  0
  189.1720  174.9330  146.0830 O   0  0  0  0  0  0  0  0  0  0  0  0
  188.6390  177.2010  145.9650 N   0  0  0  0  0  2  0  0  0  0  0  0
  189.5560  176.1120  145.8600 C   0  0  0  0  0  0  0  0  0  0  0  0
  187.2480  177.0190  146.3410 C   0  0  0  0  0  2  0  0  0  0  0  0
  185.0300  179.1530  146.5630 F   0  0  0  0  0  0  0  0  0  0  0  0
  186.3720  177.6530  145.3150 C   0  0  0  0  0  0  0  0  0  0  0  0
  185.9300  179.0870  145.5140 C   0  0  1  0  0  3  0  0  0  0  0  0
  184.3180  178.7080  143.6340 C   0  0  0  0  0  2  0  0  0  0  0  0
  185.0870  177.4730  143.1780 C   0  0  0  0  0  2  0  0  0  0  0  0
  185.9350  176.9070  144.2870 C   0  0  0  0  0  3  0  0  0  0  0  0
  185.2960  179.6930  144.2590 C   0  0  0  0  0  2  0  0  0  0  0  0
  194.3850  174.8110  146.4670 C   0  0  0  0  0  2  0  0  0  0  0  0
  193.2890  171.9610  144.3160 C   0  0  0  0  0  0  0  0  0  0  0  0
  194.4000  171.7510  143.4960 C   0  0  0  0  0  3  0  0  0  0  0  0
  194.4050  173.7380  145.4320 C   0  0  0  0  0  0  0  0  0  0  0  0
  195.5290  172.5570  143.6560 C   0  0  0  0  0  3  0  0  0  0  0  0
  193.3140  172.9430  145.2580 N   0  0  0  0  0  0  0  0  0  0  0  0
  195.5360  173.5580  144.6280 C   0  0  0  0  0  3  0  0  0  0  0  0
  192.1310  171.1510  144.1650 N   0  0  0  0  0  1  0  0  0  0  0  0
  1 13  1  6  0  0  0
  1  7  1  0  0  0  0
  2  3  1  1  0  0  0
  4  1  1  0  0  0  0
  4  8  1  0  0  0  0
  5  8  2  0  0  0  0
  6  2  1  0  0  0  0
  6 27  1  6  0  0  0
  7 18  1  6  0  0  0
  7  2  1  0  0  0  0
  8  6  1  0  0  0  0
  9 13  1  0  0  0  0
 10 13  1  0  0  0  0
 11 14  1  6  0  0  0
 11  9  1  0  0  0  0
 12 11  1  0  0  0  0
 12 10  1  0  0  0  0
 15 10  2  0  0  0  0
 17 19  1  0  0  0  0
 18 17  1  0  0  0  0
 18 16  2  0  0  0  0
 21 22  1  0  0  0  0
 21 19  1  0  0  0  0
 22 20  1  1  0  0  0
 23 26  1  0  0  0  0
 24 23  1  0  0  0  0
 24 25  1  0  0  0  0
 25 21  2  0  0  0  0
 26 22  1  0  0  0  0
 28 32  1  0  0  0  0
 29 31  1  0  0  0  0
 29 28  2  0  0  0  0
 30 27  1  0  0  0  0
 31 33  2  0  0  0  0
 32 30  2  0  0  0  0
 33 30  1  0  0  0  0
 34 28  1  0  0  0  0
M  END
>  <MODEL>
2

>  <REMARK>
 VINA RESULT:      -7.5      3.420      5.712
  Name = 
  6 active torsions:
  status: ('A' for Active; 'I' for Inactive)
    1  A    between atoms: C_3  and  C_13
    2  A    between atoms: C_3  and  N_17
    3  A    between atoms: C_4  and  N_15
    4  A    between atoms: C_12  and  C_28
    5  A    between atoms: C_26  and  C_28
    6  A    between atoms: C_29  and  C_31
                            x       y       z     vdW  Elec       q    Type
                         _______ _______ _______ _____ _____    ______ ____

>  <TORSDO>
F 6

$$$$
=
 OpenBabel11052418403D

 34 37  0  0  1  0  0  0  0  0999 V2000
  191.3580  175.2600  143.4670 C   0  0  2  0  0  3  0  0  0  0  0  0
  192.4530  175.0460  145.7920 C   0  0  2  0  0  3  0  0  0  0  0  0
  192.3090  175.3780  147.1410 O   0  0  0  0  0  1  0  0  0  0  0  0
  192.7750  174.9840  142.9470 C   0  0  0  0  0  2  0  0  0  0  0  0
  194.6920  176.3230  143.2010 O   0  0  0  0  0  0  0  0  0  0  0  0
  193.7740  175.6260  145.2720 C   0  0  2  0  0  3  0  0  0  0  0  0
  191.2640  175.5870  144.9820 C   0  0  2  0  0  3  0  0  0  0  0  0
  193.8140  175.6890  143.7640 C   0  0  0  0  0  0  0  0  0  0  0  0
  190.7580  172.8210  143.2060 C   0  0  0  0  0  2  0  0  0  0  0  0
  189.0910  174.4210  142.5620 C   0  0  0  0  0  0  0  0  0  0  0  0
  189.7470  171.9870  142.4220 C   0  0  1  0  0  3  0  0  0  0  0  0
  188.1850  172.9240  142.2640 S   0  0  0  0  0  0  0  0  0  0  0  0
  190.4240  174.2200  143.0250 N   0  0  0  0  0  0  0  0  0  0  0  0
  190.2990  171.6830  141.0440 C   0  0  0  0  0  1  0  0  0  0  0  0
  188.5590  175.8490  141.9590 S   0  0  0  0  0  0  0  0  0  0  0  0
  189.6940  174.1250  146.0310 O   0  0  0  0  0  0  0  0  0  0  0  0
  188.9400  176.3090  145.7080 N   0  0  0  0  0  2  0  0  0  0  0  0
  189.9260  175.2830  145.5920 C   0  0  0  0  0  0  0  0  0  0  0  0
  187.6510  176.0880  146.3380 C   0  0  0  0  0  2  0  0  0  0  0  0
  184.5910  176.3800  146.6090 F   0  0  0  0  0  0  0  0  0  0  0  0
  186.7190  177.1870  145.9560 C   0  0  0  0  0  0  0  0  0  0  0  0
  185.4810  177.4230  146.7930 C   0  0  1  0  0  3  0  0  0  0  0  0
  184.6960  178.9420  144.9630 C   0  0  0  0  0  2  0  0  0  0  0  0
  186.1070  179.0390  144.3930 C   0  0  0  0  0  2  0  0  0  0  0  0
  186.9640  177.8820  144.8330 C   0  0  0  0  0  3  0  0  0  0  0  0
  184.7870  178.7480  146.4700 C   0  0  0  0  0  2  0  0  0  0  0  0
  194.9360  174.7980  145.8130 C   0  0  0  0  0  2  0  0  0  0  0  0
  195.9330  171.9240  143.6460 C   0  0  0  0  0  0  0  0  0  0  0  0
  195.0580  170.9140  144.0540 C   0  0  0  0  0  3  0  0  0  0  0  0
  194.9630  173.4390  145.1990 C   0  0  0  0  0  0  0  0  0  0  0  0
  194.1240  171.1840  145.0560 C   0  0  0  0  0  3  0  0  0  0  0  0
  195.8680  173.1550  144.2220 N   0  0  0  0  0  0  0  0  0  0  0  0
  194.0730  172.4520  145.6350 C   0  0  0  0  0  3  0  0  0  0  0  0
  196.8910  171.6660  142.6280 N   0  0  0  0  0  1  0  0  0  0  0  0
  1  4  1  1  0  0  0
  1  7  1  0  0  0  0
  2  3  1  1  0  0  0
  4  8  1  0  0  0  0
  5  8  2  0  0  0  0
  6  2  1  0  0  0  0
  6 27  1  6  0  0  0
  7 18  1  1  0  0  0
  7  2  1  0  0  0  0
  8  6  1  0  0  0  0
 10 13  1  0  0  0  0
 11 14  1  6  0  0  0
 11  9  1  0  0  0  0
 12 11  1  0  0  0  0
 12 10  1  0  0  0  0
 13  9  1  0  0  0  0
 13  1  1  0  0  0  0
 15 10  2  0  0  0  0
 17 19  1  0  0  0  0
 18 17  1  0  0  0  0
 18 16  2  0  0  0  0
 21 19  1  0  0  0  0
 21 22  1  0  0  0  0
 22 20  1  6  0  0  0
 23 26  1  0  0  0  0
 24 25  1  0  0  0  0
 24 23  1  0  0  0  0
 25 21  2  0  0  0  0
 26 22  1  0  0  0  0
 28 29  2  0  0  0  0
 28 32  1  0  0  0  0
 29 31  1  0  0  0  0
 30 33  1  0  0  0  0
 30 27  1  0  0  0  0
 31 33  2  0  0  0  0
 32 30  2  0  0  0  0
 34 28  1  0  0  0  0
M  END
>  <MODEL>
3

>  <REMARK>
 VINA RESULT:      -7.3      3.460      5.814
  Name = 
  6 active torsions:
  status: ('A' for Active; 'I' for Inactive)
    1  A    between atoms: C_3  and  C_13
    2  A    between atoms: C_3  and  N_17
    3  A    between atoms: C_4  and  N_15
    4  A    between atoms: C_12  and  C_28
    5  A    between atoms: C_26  and  C_28
    6  A    between atoms: C_29  and  C_31
                            x       y       z     vdW  Elec       q    Type
                         _______ _______ _______ _____ _____    ______ ____

>  <TORSDO>
F 6

$$$$
=
 OpenBabel11052418403D

 34 37  0  0  1  0  0  0  0  0999 V2000
  189.9340  173.9290  144.2620 C   0  0  2  0  0  3  0  0  0  0  0  0
  190.0490  174.1920  141.6990 C   0  0  2  0  0  3  0  0  0  0  0  0
  189.3950  174.7360  140.5910 O   0  0  0  0  0  1  0  0  0  0  0  0
  190.8700  172.7360  144.0240 C   0  0  0  0  0  2  0  0  0  0  0  0
  190.4050  170.7460  142.8610 O   0  0  0  0  0  0  0  0  0  0  0  0
  190.1870  172.6780  141.5060 C   0  0  2  0  0  3  0  0  0  0  0  0
  189.2680  174.5080  142.9840 C   0  0  2  0  0  3  0  0  0  0  0  0
  190.4850  171.9620  142.8010 C   0  0  0  0  0  0  0  0  0  0  0  0
  191.7570  175.6360  144.6370 C   0  0  0  0  0  2  0  0  0  0  0  0
  190.0670  175.4660  146.3310 C   0  0  0  0  0  0  0  0  0  0  0  0
  192.3490  176.4120  145.8120 C   0  0  1  0  0  3  0  0  0  0  0  0
  191.0240  176.7980  147.0100 S   0  0  0  0  0  0  0  0  0  0  0  0
  190.5760  174.9400  145.1080 N   0  0  0  0  0  0  0  0  0  0  0  0
  193.4170  175.5740  146.4870 C   0  0  0  0  0  1  0  0  0  0  0  0
  188.9630  174.6800  147.2530 S   0  0  0  0  0  0  0  0  0  0  0  0
  189.6760  176.8530  142.7960 O   0  0  0  0  0  0  0  0  0  0  0  0
  187.5380  176.2840  143.5370 N   0  0  0  0  0  2  0  0  0  0  0  0
  188.8580  175.9480  143.1080 C   0  0  0  0  0  0  0  0  0  0  0  0
  187.0690  177.6550  143.6220 C   0  0  0  0  0  2  0  0  0  0  0  0
  185.6130  180.1010  144.8130 F   0  0  0  0  0  0  0  0  0  0  0  0
  186.2200  177.8130  144.8370 C   0  0  0  0  0  0  0  0  0  0  0  0
  185.0910  178.8200  144.8170 C   0  0  1  0  0  3  0  0  0  0  0  0
  184.9160  178.4720  147.2920 C   0  0  0  0  0  2  0  0  0  0  0  0
  185.7080  177.1720  147.1980 C   0  0  0  0  0  2  0  0  0  0  0  0
  186.5340  177.1140  145.9400 C   0  0  0  0  0  3  0  0  0  0  0  0
  184.1320  178.6640  146.0000 C   0  0  0  0  0  2  0  0  0  0  0  0
  191.2720  172.4000  140.4680 C   0  0  0  0  0  2  0  0  0  0  0  0
  189.9570  171.7870  137.0260 C   0  0  0  0  0  0  0  0  0  0  0  0
  189.6970  170.4140  137.0380 C   0  0  0  0  0  3  0  0  0  0  0  0
  190.7130  171.6970  139.2780 C   0  0  0  0  0  0  0  0  0  0  0  0
  189.9550  169.6800  138.1960 C   0  0  0  0  0  3  0  0  0  0  0  0
  190.4560  172.3950  138.1370 N   0  0  0  0  0  0  0  0  0  0  0  0
  190.4670  170.3210  139.3260 C   0  0  0  0  0  3  0  0  0  0  0  0
  189.7020  172.5480  135.8540 N   0  0  0  0  0  1  0  0  0  0  0  0
  1  4  1  6  0  0  0
  1 13  1  0  0  0  0
  2  3  1  6  0  0  0
  2  7  1  0  0  0  0
  6 27  1  6  0  0  0
  6  2  1  0  0  0  0
  6  8  1  0  0  0  0
  7 18  1  1  0  0  0
  7  1  1  0  0  0  0
  8  5  2  0  0  0  0
  8  4  1  0  0  0  0
  9 13  1  0  0  0  0
  9 11  1  0  0  0  0
 10 12  1  0  0  0  0
 10 15  2  0  0  0  0
 11 14  1  1  0  0  0
 11 12  1  0  0  0  0
 13 10  1  0  0  0  0
 16 18  2  0  0  0  0
 17 19  1  0  0  0  0
 18 17  1  0  0  0  0
 19 21  1  0  0  0  0
 21 25  2  0  0  0  0
 22 20  1  1  0  0  0
 22 21  1  0  0  0  0
 22 26  1  0  0  0  0
 24 23  1  0  0  0  0
 25 24  1  0  0  0  0
 26 23  1  0  0  0  0
 28 29  2  0  0  0  0
 28 32  1  0  0  0  0
 29 31  1  0  0  0  0
 30 33  1  0  0  0  0
 30 27  1  0  0  0  0
 31 33  2  0  0  0  0
 32 30  2  0  0  0  0
 34 28  1  0  0  0  0
M  END
>  <MODEL>
4

>  <REMARK>
 VINA RESULT:      -7.3      1.111      1.563
  Name = 
  6 active torsions:
  status: ('A' for Active; 'I' for Inactive)
    1  A    between atoms: C_3  and  C_13
    2  A    between atoms: C_3  and  N_17
    3  A    between atoms: C_4  and  N_15
    4  A    between atoms: C_12  and  C_28
    5  A    between atoms: C_26  and  C_28
    6  A    between atoms: C_29  and  C_31
                            x       y       z     vdW  Elec       q    Type
                         _______ _______ _______ _____ _____    ______ ____

>  <TORSDO>
F 6

$$$$
=
 OpenBabel11052418403D

 34 37  0  0  1  0  0  0  0  0999 V2000
  191.0280  173.7660  142.8260 C   0  0  2  0  0  3  0  0  0  0  0  0
  190.5040  175.5400  144.6230 C   0  0  2  0  0  3  0  0  0  0  0  0
  190.5710  175.8130  145.9910 O   0  0  0  0  0  1  0  0  0  0  0  0
  189.9820  174.5240  141.9970 C   0  0  0  0  0  2  0  0  0  0  0  0
  187.6840  174.7550  142.4350 O   0  0  0  0  0  0  0  0  0  0  0  0
  189.0450  175.6390  144.1620 C   0  0  2  0  0  3  0  0  0  0  0  0
  191.0740  174.1420  144.3310 C   0  0  2  0  0  3  0  0  0  0  0  0
  188.8190  174.9600  142.8330 C   0  0  0  0  0  0  0  0  0  0  0  0
  192.8980  175.0450  141.7100 C   0  0  0  0  0  2  0  0  0  0  0  0
  193.2490  172.6980  142.0580 C   0  0  0  0  0  0  0  0  0  0  0  0
  194.1140  174.7320  140.8400 C   0  0  1  0  0  3  0  0  0  0  0  0
  194.8160  173.1210  141.3420 S   0  0  0  0  0  0  0  0  0  0  0  0
  192.3380  173.7890  142.1680 N   0  0  0  0  0  0  0  0  0  0  0  0
  193.6970  174.6750  139.3850 C   0  0  0  0  0  1  0  0  0  0  0  0
  192.7870  171.1300  142.1820 S   0  0  0  0  0  0  0  0  0  0  0  0
  192.6690  172.7130  145.3860 O   0  0  0  0  0  0  0  0  0  0  0  0
  193.3560  174.9270  145.1220 N   0  0  0  0  0  2  0  0  0  0  0  0
  192.3980  173.8770  144.9880 C   0  0  0  0  0  0  0  0  0  0  0  0
  194.6730  174.7150  145.6970 C   0  0  0  0  0  2  0  0  0  0  0  0
  197.7120  174.1890  145.6130 F   0  0  0  0  0  0  0  0  0  0  0  0
  195.7140  175.0570  144.6860 C   0  0  0  0  0  0  0  0  0  0  0  0
  196.8910  174.1240  144.5020 C   0  0  1  0  0  3  0  0  0  0  0  0
  197.9400  175.9360  143.1270 C   0  0  0  0  0  2  0  0  0  0  0  0
  196.5940  176.6310  142.9550 C   0  0  0  0  0  2  0  0  0  0  0  0
  195.6180  176.2230  144.0270 C   0  0  0  0  0  3  0  0  0  0  0  0
  197.7070  174.4360  143.2450 C   0  0  0  0  0  2  0  0  0  0  0  0
  188.6350  177.1080  144.1010 C   0  0  0  0  0  2  0  0  0  0  0  0
  185.1310  178.2630  144.6810 C   0  0  0  0  0  0  0  0  0  0  0  0
  184.8380  177.7330  145.9400 C   0  0  0  0  0  3  0  0  0  0  0  0
  187.3150  177.3270  144.7570 C   0  0  0  0  0  0  0  0  0  0  0  0
  185.8100  176.9860  146.6090 C   0  0  0  0  0  3  0  0  0  0  0  0
  186.3530  178.0500  144.1200 N   0  0  0  0  0  0  0  0  0  0  0  0
  187.0570  176.7790  146.0180 C   0  0  0  0  0  3  0  0  0  0  0  0
  184.1520  179.0230  143.9860 N   0  0  0  0  0  1  0  0  0  0  0  0
  1  4  1  6  0  0  0
  1  7  1  0  0  0  0
  2  3  1  1  0  0  0
  4  8  1  0  0  0  0
  5  8  2  0  0  0  0
  6 27  1  6  0  0  0
  6  2  1  0  0  0  0
  7  2  1  0  0  0  0
  7 18  1  6  0  0  0
  8  6  1  0  0  0  0
  9 13  1  0  0  0  0
 10 13  1  0  0  0  0
 10 15  2  0  0  0  0
 11 14  1  6  0  0  0
 11 12  1  0  0  0  0
 11  9  1  0  0  0  0
 12 10  1  0  0  0  0
 13  1  1  0  0  0  0
 17 19  1  0  0  0  0
 18 17  1  0  0  0  0
 18 16  2  0  0  0  0
 21 19  1  0  0  0  0
 22 21  1  0  0  0  0
 22 20  1  1  0  0  0
 23 26  1  0  0  0  0
 24 23  1  0  0  0  0
 24 25  1  0  0  0  0
 25 21  2  0  0  0  0
 26 22  1  0  0  0  0
 27 30  1  0  0  0  0
 28 29  1  0  0  0  0
 29 31  2  0  0  0  0
 30 33  2  0  0  0  0
 32 28  2  0  0  0  0
 32 30  1  0  0  0  0
 33 31  1  0  0  0  0
 34 28  1  0  0  0  0
M  END
>  <MODEL>
5

>  <REMARK>
 VINA RESULT:      -7.1      4.107      8.667
  Name = 
  6 active torsions:
  status: ('A' for Active; 'I' for Inactive)
    1  A    between atoms: C_3  and  C_13
    2  A    between atoms: C_3  and  N_17
    3  A    between atoms: C_4  and  N_15
    4  A    between atoms: C_12  and  C_28
    5  A    between atoms: C_26  and  C_28
    6  A    between atoms: C_29  and  C_31
                            x       y       z     vdW  Elec       q    Type
                         _______ _______ _______ _____ _____    ______ ____

>  <TORSDO>
F 6

$$$$
=
 OpenBabel11052418403D

 34 37  0  0  1  0  0  0  0  0999 V2000
  191.1520  174.5420  145.1270 C   0  0  2  0  0  3  0  0  0  0  0  0
  189.4860  175.7440  143.5680 C   0  0  2  0  0  3  0  0  0  0  0  0
  189.3740  176.7160  142.5710 O   0  0  0  0  0  1  0  0  0  0  0  0
  189.9030  174.2310  145.9630 C   0  0  0  0  0  2  0  0  0  0  0  0
  188.5040  175.7500  147.0880 O   0  0  0  0  0  0  0  0  0  0  0  0
  188.5930  176.1350  144.7510 C   0  0  2  0  0  3  0  0  0  0  0  0
  190.9500  175.6050  144.0120 C   0  0  2  0  0  3  0  0  0  0  0  0
  188.9630  175.3960  146.0140 C   0  0  0  0  0  0  0  0  0  0  0  0
  193.2140  173.1070  144.8710 C   0  0  0  0  0  2  0  0  0  0  0  0
  191.1350  172.1550  144.1470 C   0  0  0  0  0  0  0  0  0  0  0  0
  193.6430  171.8870  144.0590 C   0  0  1  0  0  3  0  0  0  0  0  0
  192.2090  170.7770  143.8330 S   0  0  0  0  0  0  0  0  0  0  0  0
  191.7940  173.3090  144.6620 N   0  0  0  0  0  0  0  0  0  0  0  0
  194.1600  172.3330  142.7060 C   0  0  0  0  0  1  0  0  0  0  0  0
  189.6260  172.1960  143.5090 S   0  0  0  0  0  0  0  0  0  0  0  0
  191.6310  174.7690  141.8820 O   0  0  0  0  0  0  0  0  0  0  0  0
  193.1480  176.2210  142.9000 N   0  0  0  0  0  2  0  0  0  0  0  0
  191.9230  175.4890  142.8740 C   0  0  0  0  0  0  0  0  0  0  0  0
  194.1000  176.1910  141.8030 C   0  0  0  0  0  2  0  0  0  0  0  0
  196.1750  174.2150  140.6590 F   0  0  0  0  0  0  0  0  0  0  0  0
  195.4250  175.7360  142.3110 C   0  0  0  0  0  0  0  0  0  0  0  0
  196.5110  175.3850  141.3170 C   0  0  1  0  0  3  0  0  0  0  0  0
  197.7740  174.4060  143.2460 C   0  0  0  0  0  2  0  0  0  0  0  0
  196.9040  175.1640  144.2430 C   0  0  0  0  0  2  0  0  0  0  0  0
  195.5900  175.5730  143.6350 C   0  0  0  0  0  3  0  0  0  0  0  0
  197.8870  175.2270  141.9680 C   0  0  0  0  0  2  0  0  0  0  0  0
  187.1330  175.8880  144.3830 C   0  0  0  0  0  2  0  0  0  0  0  0
  185.4560  179.2020  144.7790 C   0  0  0  0  0  0  0  0  0  0  0  0
  184.6060  178.9880  145.8670 C   0  0  0  0  0  3  0  0  0  0  0  0
  186.2520  176.9670  144.9160 C   0  0  0  0  0  0  0  0  0  0  0  0
  184.5860  177.7340  146.4810 C   0  0  0  0  0  3  0  0  0  0  0  0
  186.2540  178.1960  144.3300 N   0  0  0  0  0  0  0  0  0  0  0  0
  185.4120  176.7150  146.0060 C   0  0  0  0  0  3  0  0  0  0  0  0
  185.4860  180.4720  144.1410 N   0  0  0  0  0  1  0  0  0  0  0  0
  1 13  1  6  0  0  0
  1  4  1  0  0  0  0
  2  3  1  6  0  0  0
  2  7  1  0  0  0  0
  2  6  1  0  0  0  0
  4  8  1  0  0  0  0
  6 27  1  6  0  0  0
  6  8  1  0  0  0  0
  7 18  1  6  0  0  0
  7  1  1  0  0  0  0
  8  5  2  0  0  0  0
 10 13  1  0  0  0  0
 11 14  1  6  0  0  0
 11  9  1  0  0  0  0
 12 11  1  0  0  0  0
 12 10  1  0  0  0  0
 13  9  1  0  0  0  0
 15 10  2  0  0  0  0
 16 18  2  0  0  0  0
 18 17  1  0  0  0  0
 19 21  1  0  0  0  0
 19 17  1  0  0  0  0
 21 25  2  0  0  0  0
 22 20  1  1  0  0  0
 22 26  1  0  0  0  0
 22 21  1  0  0  0  0
 23 24  1  0  0  0  0
 25 24  1  0  0  0  0
 26 23  1  0  0  0  0
 27 30  1  0  0  0  0
 28 29  1  0  0  0  0
 29 31  2  0  0  0  0
 30 33  2  0  0  0  0
 32 28  2  0  0  0  0
 32 30  1  0  0  0  0
 33 31  1  0  0  0  0
 34 28  1  0  0  0  0
M  END
>  <MODEL>
6

>  <REMARK>
 VINA RESULT:      -7.1      4.432      8.616
  Name = 
  6 active torsions:
  status: ('A' for Active; 'I' for Inactive)
    1  A    between atoms: C_3  and  C_13
    2  A    between atoms: C_3  and  N_17
    3  A    between atoms: C_4  and  N_15
    4  A    between atoms: C_12  and  C_28
    5  A    between atoms: C_26  and  C_28
    6  A    between atoms: C_29  and  C_31
                            x       y       z     vdW  Elec       q    Type
                         _______ _______ _______ _____ _____    ______ ____

>  <TORSDO>
F 6

$$$$
=
 OpenBabel11052418403D

 34 37  0  0  1  0  0  0  0  0999 V2000
  190.3930  176.3240  143.4810 C   0  0  2  0  0  3  0  0  0  0  0  0
  188.2410  175.1740  142.6470 C   0  0  2  0  0  3  0  0  0  0  0  0
  187.7500  174.0530  141.9740 O   0  0  0  0  0  1  0  0  0  0  0  0
  189.5280  177.5920  143.4820 C   0  0  0  0  0  2  0  0  0  0  0  0
  188.5500  178.6730  141.6370 O   0  0  0  0  0  0  0  0  0  0  0  0
  187.8020  176.4390  141.9000 C   0  0  2  0  0  3  0  0  0  0  0  0
  189.7730  175.1040  142.7480 C   0  0  2  0  0  3  0  0  0  0  0  0
  188.6190  177.6460  142.2930 C   0  0  0  0  0  0  0  0  0  0  0  0
  189.9450  175.8890  145.9280 C   0  0  0  0  0  2  0  0  0  0  0  0
  192.2150  175.6620  145.1850 C   0  0  0  0  0  0  0  0  0  0  0  0
  190.7450  175.8450  147.2290 C   0  0  1  0  0  3  0  0  0  0  0  0
  192.4200  175.2000  146.8870 S   0  0  0  0  0  0  0  0  0  0  0  0
  190.8820  176.0210  144.8300 N   0  0  0  0  0  0  0  0  0  0  0  0
  190.8460  177.2410  147.8110 C   0  0  0  0  0  1  0  0  0  0  0  0
  193.5170  176.0260  144.2600 S   0  0  0  0  0  0  0  0  0  0  0  0
  189.6430  173.1360  144.0920 O   0  0  0  0  0  0  0  0  0  0  0  0
  191.4850  173.2310  142.6630 N   0  0  0  0  0  2  0  0  0  0  0  0
  190.2910  173.7770  143.2230 C   0  0  0  0  0  0  0  0  0  0  0  0
  192.0020  171.9280  143.0420 C   0  0  0  0  0  2  0  0  0  0  0  0
  194.8440  171.1920  142.0940 F   0  0  0  0  0  0  0  0  0  0  0  0
  193.3380  172.0930  143.6820 C   0  0  0  0  0  0  0  0  0  0  0  0
  194.5450  172.3400  142.8050 C   0  0  1  0  0  3  0  0  0  0  0  0
  195.9430  171.9210  144.8410 C   0  0  0  0  0  2  0  0  0  0  0  0
  194.7380  172.1330  145.7530 C   0  0  0  0  0  2  0  0  0  0  0  0
  193.4420  171.9380  145.0130 C   0  0  0  0  0  3  0  0  0  0  0  0
  195.7770  172.7840  143.5980 C   0  0  0  0  0  2  0  0  0  0  0  0
  186.3170  176.6820  142.1500 C   0  0  0  0  0  2  0  0  0  0  0  0
  186.1160  177.4710  145.7950 C   0  0  0  0  0  0  0  0  0  0  0  0
  185.7270  178.8120  145.7980 C   0  0  0  0  0  3  0  0  0  0  0  0
  186.0990  177.4340  143.4190 C   0  0  0  0  0  0  0  0  0  0  0  0
  185.5240  179.4660  144.5820 C   0  0  0  0  0  3  0  0  0  0  0  0
  186.2930  176.8150  144.6160 N   0  0  0  0  0  0  0  0  0  0  0  0
  185.7110  178.7770  143.3820 C   0  0  0  0  0  3  0  0  0  0  0  0
  186.3280  176.7900  147.0250 N   0  0  0  0  0  1  0  0  0  0  0  0
  1  4  1  1  0  0  0
  1 13  1  0  0  0  0
  2  3  1  6  0  0  0
  2  7  1  0  0  0  0
  5  8  2  0  0  0  0
  6 27  1  1  0  0  0
  6  8  1  0  0  0  0
  6  2  1  0  0  0  0
  7 18  1  1  0  0  0
  7  1  1  0  0  0  0
  8  4  1  0  0  0  0
  9 11  1  0  0  0  0
 10 12  1  0  0  0  0
 11 14  1  6  0  0  0
 12 11  1  0  0  0  0
 13 10  1  0  0  0  0
 13  9  1  0  0  0  0
 15 10  2  0  0  0  0
 17 19  1  0  0  0  0
 17 18  1  0  0  0  0
 18 16  2  0  0  0  0
 19 21  1  0  0  0  0
 21 25  2  0  0  0  0
 22 20  1  1  0  0  0
 22 26  1  0  0  0  0
 22 21  1  0  0  0  0
 23 24  1  0  0  0  0
 25 24  1  0  0  0  0
 26 23  1  0  0  0  0
 27 30  1  0  0  0  0
 28 29  1  0  0  0  0
 28 34  1  0  0  0  0
 30 32  1  0  0  0  0
 31 29  2  0  0  0  0
 32 28  2  0  0  0  0
 33 30  2  0  0  0  0
 33 31  1  0  0  0  0
M  END
>  <MODEL>
7

>  <REMARK>
 VINA RESULT:      -7.0      3.863      7.999
  Name = 
  6 active torsions:
  status: ('A' for Active; 'I' for Inactive)
    1  A    between atoms: C_3  and  C_13
    2  A    between atoms: C_3  and  N_17
    3  A    between atoms: C_4  and  N_15
    4  A    between atoms: C_12  and  C_28
    5  A    between atoms: C_26  and  C_28
    6  A    between atoms: C_29  and  C_31
                            x       y       z     vdW  Elec       q    Type
                         _______ _______ _______ _____ _____    ______ ____

>  <TORSDO>
F 6

$$$$
=
 OpenBabel11052418403D

 34 37  0  0  1  0  0  0  0  0999 V2000
  192.4710  175.1310  143.0020 C   0  0  2  0  0  3  0  0  0  0  0  0
  194.2400  175.9370  144.6950 C   0  0  2  0  0  3  0  0  0  0  0  0
  194.4500  176.7700  145.7970 O   0  0  0  0  0  1  0  0  0  0  0  0
  193.6880  174.7640  142.1420 C   0  0  0  0  0  2  0  0  0  0  0  0
  195.2830  176.2160  141.2030 O   0  0  0  0  0  0  0  0  0  0  0  0
  195.1960  176.3460  143.5690 C   0  0  2  0  0  3  0  0  0  0  0  0
  192.7790  176.0290  144.2300 C   0  0  2  0  0  3  0  0  0  0  0  0
  194.7630  175.8030  142.2280 C   0  0  0  0  0  0  0  0  0  0  0  0
  192.3050  172.7910  143.9370 C   0  0  0  0  0  2  0  0  0  0  0  0
  190.2560  173.8280  143.2430 C   0  0  0  0  0  0  0  0  0  0  0  0
  191.3120  171.6310  143.9000 C   0  0  1  0  0  3  0  0  0  0  0  0
  189.6100  172.2950  143.8610 S   0  0  0  0  0  0  0  0  0  0  0  0
  191.6750  173.9410  143.3200 N   0  0  0  0  0  0  0  0  0  0  0  0
  191.5590  170.7900  142.6630 C   0  0  0  0  0  1  0  0  0  0  0  0
  189.3290  174.8060  142.3110 S   0  0  0  0  0  0  0  0  0  0  0  0
  191.9760  175.0710  146.2640 O   0  0  0  0  0  0  0  0  0  0  0  0
  190.6330  176.7590  145.3760 N   0  0  0  0  0  2  0  0  0  0  0  0
  191.7780  175.9070  145.3430 C   0  0  0  0  0  0  0  0  0  0  0  0
  189.6630  176.7250  146.4560 C   0  0  0  0  0  2  0  0  0  0  0  0
  186.7510  176.3310  147.3980 F   0  0  0  0  0  0  0  0  0  0  0  0
  188.3760  177.3110  145.9830 C   0  0  0  0  0  0  0  0  0  0  0  0
  187.2660  177.5460  146.9830 C   0  0  1  0  0  3  0  0  0  0  0  0
  185.7670  177.9630  145.0200 C   0  0  0  0  0  2  0  0  0  0  0  0
  186.9690  178.1710  144.1040 C   0  0  0  0  0  2  0  0  0  0  0  0
  188.2130  177.5380  144.6690 C   0  0  0  0  0  3  0  0  0  0  0  0
  186.1360  178.4160  146.4260 C   0  0  0  0  0  2  0  0  0  0  0  0
  196.6090  175.8820  143.9140 C   0  0  0  0  0  2  0  0  0  0  0  0
  196.4640  172.1500  143.8530 C   0  0  0  0  0  0  0  0  0  0  0  0
  196.6460  171.8150  145.1970 C   0  0  0  0  0  3  0  0  0  0  0  0
  196.6140  174.4640  144.3750 C   0  0  0  0  0  0  0  0  0  0  0  0
  196.8150  172.8320  146.1380 C   0  0  0  0  0  3  0  0  0  0  0  0
  196.4530  173.4570  143.4730 N   0  0  0  0  0  0  0  0  0  0  0  0
  196.8010  174.1660  145.7290 C   0  0  0  0  0  3  0  0  0  0  0  0
  196.2920  171.1270  142.8820 N   0  0  0  0  0  1  0  0  0  0  0  0
  1  4  1  1  0  0  0
  1 13  1  0  0  0  0
  1  7  1  0  0  0  0
  2  3  1  1  0  0  0
  4  8  1  0  0  0  0
  5  8  2  0  0  0  0
  6 27  1  1  0  0  0
  6  2  1  0  0  0  0
  7  2  1  0  0  0  0
  7 18  1  1  0  0  0
  8  6  1  0  0  0  0
 10 13  1  0  0  0  0
 10 12  1  0  0  0  0
 11 14  1  6  0  0  0
 11  9  1  0  0  0  0
 12 11  1  0  0  0  0
 13  9  1  0  0  0  0
 15 10  2  0  0  0  0
 17 19  1  0  0  0  0
 18 17  1  0  0  0  0
 18 16  2  0  0  0  0
 21 19  1  0  0  0  0
 21 22  1  0  0  0  0
 22 20  1  6  0  0  0
 23 26  1  0  0  0  0
 24 25  1  0  0  0  0
 24 23  1  0  0  0  0
 25 21  2  0  0  0  0
 26 22  1  0  0  0  0
 27 30  1  0  0  0  0
 28 29  1  0  0  0  0
 29 31  2  0  0  0  0
 30 33  2  0  0  0  0
 32 28  2  0  0  0  0
 32 30  1  0  0  0  0
 33 31  1  0  0  0  0
 34 28  1  0  0  0  0
M  END
>  <MODEL>
8

>  <REMARK>
 VINA RESULT:      -6.9      4.042      6.392
  Name = 
  6 active torsions:
  status: ('A' for Active; 'I' for Inactive)
    1  A    between atoms: C_3  and  C_13
    2  A    between atoms: C_3  and  N_17
    3  A    between atoms: C_4  and  N_15
    4  A    between atoms: C_12  and  C_28
    5  A    between atoms: C_26  and  C_28
    6  A    between atoms: C_29  and  C_31
                            x       y       z     vdW  Elec       q    Type
                         _______ _______ _______ _____ _____    ______ ____

>  <TORSDO>
F 6

$$$$
=
 OpenBabel11052418403D

 34 37  0  0  1  0  0  0  0  0999 V2000
  192.0350  176.4650  145.4730 C   0  0  2  0  0  3  0  0  0  0  0  0
  189.6580  176.3110  144.4850 C   0  0  2  0  0  3  0  0  0  0  0  0
  188.8930  176.5650  143.3440 O   0  0  0  0  0  1  0  0  0  0  0  0
  191.3080  176.4090  146.8240 C   0  0  0  0  0  2  0  0  0  0  0  0
  189.8190  177.9890  147.7280 O   0  0  0  0  0  0  0  0  0  0  0  0
  189.0690  177.0880  145.6670 C   0  0  2  0  0  3  0  0  0  0  0  0
  191.1210  176.7140  144.2430 C   0  0  2  0  0  3  0  0  0  0  0  0
  190.0470  177.2170  146.8100 C   0  0  0  0  0  0  0  0  0  0  0  0
  194.3630  175.5460  145.1350 C   0  0  0  0  0  2  0  0  0  0  0  0
  192.6090  173.9490  145.4920 C   0  0  0  0  0  0  0  0  0  0  0  0
  195.0030  174.2170  144.7350 C   0  0  1  0  0  3  0  0  0  0  0  0
  193.9930  172.8410  145.3880 S   0  0  0  0  0  0  0  0  0  0  0  0
  192.9430  175.3240  145.3180 N   0  0  0  0  0  0  0  0  0  0  0  0
  195.0760  174.1230  143.2240 C   0  0  0  0  0  1  0  0  0  0  0  0
  191.0770  173.3780  145.3860 S   0  0  0  0  0  0  0  0  0  0  0  0
  192.6190  176.8370  142.3880 O   0  0  0  0  0  0  0  0  0  0  0  0
  191.1970  174.9880  142.3810 N   0  0  0  0  0  2  0  0  0  0  0  0
  191.6870  176.2030  142.9480 C   0  0  0  0  0  0  0  0  0  0  0  0
  191.7430  174.4180  141.1630 C   0  0  0  0  0  2  0  0  0  0  0  0
  191.3290  173.8040  138.1670 F   0  0  0  0  0  0  0  0  0  0  0  0
  190.6700  173.6800  140.4380 C   0  0  0  0  0  0  0  0  0  0  0  0
  191.0260  172.9140  139.1820 C   0  0  1  0  0  3  0  0  0  0  0  0
  188.5630  172.6840  138.7860 C   0  0  0  0  0  2  0  0  0  0  0  0
  188.2620  173.0380  140.2390 C   0  0  0  0  0  2  0  0  0  0  0  0
  189.4040  173.7830  140.8760 C   0  0  0  0  0  3  0  0  0  0  0  0
  189.9090  171.9750  138.7200 C   0  0  0  0  0  2  0  0  0  0  0  0
  187.7820  176.4080  146.1260 C   0  0  0  0  0  2  0  0  0  0  0  0
  185.5470  179.1410  144.9080 C   0  0  0  0  0  0  0  0  0  0  0  0
  184.4460  179.0410  145.7630 C   0  0  0  0  0  3  0  0  0  0  0  0
  186.6150  177.3290  146.0140 C   0  0  0  0  0  0  0  0  0  0  0  0
  184.4420  178.0610  146.7580 C   0  0  0  0  0  3  0  0  0  0  0  0
  186.5990  178.2890  145.0500 N   0  0  0  0  0  0  0  0  0  0  0  0
  185.5300  177.1970  146.8870 C   0  0  0  0  0  3  0  0  0  0  0  0
  185.5660  180.1310  143.8890 N   0  0  0  0  0  1  0  0  0  0  0  0
  1 13  1  6  0  0  0
  1  4  1  0  0  0  0
  2  3  1  6  0  0  0
  2  6  1  0  0  0  0
  6 27  1  1  0  0  0
  6  8  1  0  0  0  0
  7 18  1  6  0  0  0
  7  2  1  0  0  0  0
  7  1  1  0  0  0  0
  8  4  1  0  0  0  0
  8  5  2  0  0  0  0
  9 13  1  0  0  0  0
 11 14  1  6  0  0  0
 11  9  1  0  0  0  0
 11 12  1  0  0  0  0
 12 10  1  0  0  0  0
 13 10  1  0  0  0  0
 15 10  2  0  0  0  0
 16 18  2  0  0  0  0
 17 18  1  0  0  0  0
 19 17  1  0  0  0  0
 21 25  2  0  0  0  0
 21 19  1  0  0  0  0
 22 20  1  6  0  0  0
 22 21  1  0  0  0  0
 23 24  1  0  0  0  0
 24 25  1  0  0  0  0
 26 23  1  0  0  0  0
 26 22  1  0  0  0  0
 28 32  2  0  0  0  0
 28 29  1  0  0  0  0
 29 31  2  0  0  0  0
 30 27  1  0  0  0  0
 30 33  2  0  0  0  0
 31 33  1  0  0  0  0
 32 30  1  0  0  0  0
 34 28  1  0  0  0  0
M  END
>  <MODEL>
9

>  <REMARK>
 VINA RESULT:      -6.9      3.256      7.971
  Name = 
  6 active torsions:
  status: ('A' for Active; 'I' for Inactive)
    1  A    between atoms: C_3  and  C_13
    2  A    between atoms: C_3  and  N_17
    3  A    between atoms: C_4  and  N_15
    4  A    between atoms: C_12  and  C_28
    5  A    between atoms: C_26  and  C_28
    6  A    between atoms: C_29  and  C_31
                            x       y       z     vdW  Elec       q    Type
                         _______ _______ _______ _____ _____    ______ ____

>  <TORSDO>
F 6

$$$$
