=
 OpenBabel11052420163D

 34 40  0  0  0  0  0  0  0  0999 V2000
  186.4600  177.1080  144.2680 C   0  0  0  0  0  0  0  0  0  0  0  0
  184.7280  178.3040  141.1270 C   0  0  0  0  0  3  0  0  0  0  0  0
  184.1960  178.5680  143.4020 C   0  0  0  0  0  3  0  0  0  0  0  0
  187.6110  176.2900  146.4300 C   0  0  0  0  0  0  0  0  0  0  0  0
  187.6280  176.3550  144.8950 C   0  0  0  0  0  3  0  0  0  0  0  0
  185.5670  177.6030  146.4640 C   0  0  0  0  0  0  0  0  0  0  0  0
  184.4480  178.2980  146.9070 C   0  0  0  0  0  2  0  0  0  0  0  0
  186.6400  176.8930  147.1610 C   0  0  0  0  0  3  0  0  0  0  0  0
  184.4600  178.3600  144.7490 C   0  0  0  0  0  0  0  0  0  0  0  0
  185.5430  177.6630  145.1250 C   0  0  0  0  0  0  0  0  0  0  0  0
  183.7570  178.7700  145.8250 N   0  0  0  0  0  0  0  0  0  0  0  0
  185.3210  177.9520  139.9250 C   0  0  0  0  0  3  0  0  0  0  0  0
  186.4650  177.2040  139.6800 C   0  0  0  0  0  0  0  0  0  0  0  0
  187.3080  176.6800  140.6510 C   0  0  0  0  0  3  0  0  0  0  0  0
  185.0890  178.0300  142.4410 C   0  0  0  0  0  0  0  0  0  0  0  0
  187.2040  176.7150  142.0340 C   0  0  0  0  0  3  0  0  0  0  0  0
  186.2470  177.2850  142.8730 C   0  0  0  0  0  0  0  0  0  0  0  0
  186.8810  177.0340  138.2460 C   0  0  0  0  0  3  0  0  0  0  0  0
  185.9030  176.1350  137.5030 C   0  0  0  0  0  2  0  0  0  0  0  0
  187.2360  175.5840  137.9530 C   0  0  0  0  0  2  0  0  0  0  0  0
  188.6740  175.6050  147.0430 O   0  0  0  0  0  0  0  0  0  0  0  0
  191.1500  173.6210  145.1440 C   0  0  0  0  0  3  0  0  0  0  0  0
  191.0700  175.9980  146.6150 C   0  0  0  0  0  3  0  0  0  0  0  0
  194.7400  174.3090  145.5140 N   0  0  0  0  0  0  0  0  0  0  0  0
  195.9230  173.4950  145.4680 C   0  0  0  0  0  0  0  0  0  0  0  0
  193.5930  173.9630  144.6630 C   0  0  0  0  0  2  0  0  0  0  0  0
  196.9370  173.8090  146.1490 O   0  0  0  0  0  0  0  0  0  0  0  0
  192.3090  174.3820  145.3040 C   0  0  0  0  0  0  0  0  0  0  0  0
  195.9830  172.2690  144.6200 C   0  0  0  0  0  1  0  0  0  0  0  0
  193.5080  176.3970  146.1590 C   0  0  0  0  0  2  0  0  0  0  0  0
  192.2700  175.5710  146.0400 C   0  0  0  0  0  0  0  0  0  0  0  0
  194.7360  175.5050  146.3750 C   0  0  0  0  0  2  0  0  0  0  0  0
  189.8990  175.2360  146.4630 C   0  0  0  0  0  0  0  0  0  0  0  0
  189.9520  174.0460  145.7270 C   0  0  0  0  0  3  0  0  0  0  0  0
  1  5  2  0  0  0  0
  1 10  1  0  0  0  0
  2 15  1  0  0  0  0
  3  9  1  0  0  0  0
  4 21  1  0  0  0  0
  4  8  2  0  0  0  0
  5  4  1  0  0  0  0
  6  7  1  0  0  0  0
  6  8  1  0  0  0  0
  9 10  1  0  0  0  0
  9 11  2  0  0  0  0
 10  6  2  0  0  0  0
 11  7  1  0  0  0  0
 12  2  2  0  0  0  0
 13 12  1  0  0  0  0
 13 14  2  0  0  0  0
 14 16  1  0  0  0  0
 15 17  1  0  0  0  0
 15  3  2  0  0  0  0
 16 17  2  0  0  0  0
 17  1  1  0  0  0  0
 18 13  1  0  0  0  0
 19 20  1  0  0  0  0
 19 18  1  0  0  0  0
 20 18  1  0  0  0  0
 22 28  2  0  0  0  0
 22 34  1  0  0  0  0
 24 32  1  0  0  0  0
 25 24  1  0  0  0  0
 25 27  2  0  0  0  0
 26 28  1  0  0  0  0
 26 24  1  0  0  0  0
 28 31  1  0  0  0  0
 29 25  1  0  0  0  0
 30 32  1  0  0  0  0
 31 30  1  0  0  0  0
 31 23  2  0  0  0  0
 33 23  1  0  0  0  0
 33 21  1  0  0  0  0
 34 33  2  0  0  0  0
M  END
>  <MODEL>
1

>  <REMARK>
 VINA RESULT:      -9.8      0.000      0.000
  Name = 
  3 active torsions:
  status: ('A' for Active; 'I' for Inactive)
    1  A    between atoms: C_3  and  C_25
    2  A    between atoms: C_8  and  O_18
    3  A    between atoms: O_18  and  C_30
                            x       y       z     vdW  Elec       q    Type
                         _______ _______ _______ _____ _____    ______ ____

>  <TORSDO>
F 3

$$$$
=
 OpenBabel11052420163D

 34 40  0  0  0  0  0  0  0  0999 V2000
  186.4670  177.0700  144.3530 C   0  0  0  0  0  0  0  0  0  0  0  0
  184.7980  178.2990  141.1900 C   0  0  0  0  0  3  0  0  0  0  0  0
  184.2410  178.5710  143.4580 C   0  0  0  0  0  3  0  0  0  0  0  0
  187.5740  176.2310  146.5300 C   0  0  0  0  0  0  0  0  0  0  0  0
  187.6130  176.2960  144.9940 C   0  0  0  0  0  3  0  0  0  0  0  0
  185.5540  177.5790  146.5370 C   0  0  0  0  0  0  0  0  0  0  0  0
  184.4400  178.2930  146.9650 C   0  0  0  0  0  2  0  0  0  0  0  0
  186.6040  176.8500  147.2470 C   0  0  0  0  0  3  0  0  0  0  0  0
  184.4830  178.3560  144.8080 C   0  0  0  0  0  0  0  0  0  0  0  0
  185.5490  177.6400  145.1980 C   0  0  0  0  0  0  0  0  0  0  0  0
  183.7730  178.7790  145.8750 N   0  0  0  0  0  0  0  0  0  0  0  0
  185.4020  177.9370  139.9960 C   0  0  0  0  0  3  0  0  0  0  0  0
  186.5350  177.1700  139.7650 C   0  0  0  0  0  0  0  0  0  0  0  0
  187.3550  176.6300  140.7480 C   0  0  0  0  0  3  0  0  0  0  0  0
  185.1370  178.0180  142.5090 C   0  0  0  0  0  0  0  0  0  0  0  0
  187.2340  176.6660  142.1280 C   0  0  0  0  0  3  0  0  0  0  0  0
  186.2760  177.2520  142.9550 C   0  0  0  0  0  0  0  0  0  0  0  0
  186.9670  176.9930  138.3370 C   0  0  0  0  0  3  0  0  0  0  0  0
  185.9690  176.1360  137.5730 C   0  0  0  0  0  2  0  0  0  0  0  0
  187.2730  175.5330  138.0400 C   0  0  0  0  0  2  0  0  0  0  0  0
  188.6160  175.5260  147.1560 O   0  0  0  0  0  0  0  0  0  0  0  0
  192.1990  176.3550  146.7580 C   0  0  0  0  0  3  0  0  0  0  0  0
  190.4010  174.4020  145.8780 C   0  0  0  0  0  3  0  0  0  0  0  0
  194.1780  174.7590  144.1050 N   0  0  0  0  0  0  0  0  0  0  0  0
  195.2810  175.1840  143.2900 C   0  0  0  0  0  0  0  0  0  0  0  0
  194.0650  175.2560  145.4840 C   0  0  0  0  0  2  0  0  0  0  0  0
  195.4250  174.7230  142.1250 O   0  0  0  0  0  0  0  0  0  0  0  0
  192.6330  175.3390  145.9050 C   0  0  0  0  0  0  0  0  0  0  0  0
  196.2800  176.1700  143.7970 C   0  0  0  0  0  1  0  0  0  0  0  0
  192.2300  173.2550  144.5930 C   0  0  0  0  0  2  0  0  0  0  0  0
  191.7350  174.3620  145.4650 C   0  0  0  0  0  0  0  0  0  0  0  0
  193.2190  173.7880  143.5500 C   0  0  0  0  0  2  0  0  0  0  0  0
  189.9520  175.4240  146.7330 C   0  0  0  0  0  0  0  0  0  0  0  0
  190.8610  176.3980  147.1640 C   0  0  0  0  0  3  0  0  0  0  0  0
  1  5  2  0  0  0  0
  1 10  1  0  0  0  0
  2 15  1  0  0  0  0
  3  9  1  0  0  0  0
  4 21  1  0  0  0  0
  4  8  2  0  0  0  0
  5  4  1  0  0  0  0
  6  7  1  0  0  0  0
  6  8  1  0  0  0  0
  9 10  1  0  0  0  0
  9 11  2  0  0  0  0
 10  6  2  0  0  0  0
 11  7  1  0  0  0  0
 12  2  2  0  0  0  0
 13 12  1  0  0  0  0
 13 14  2  0  0  0  0
 14 16  1  0  0  0  0
 15 17  1  0  0  0  0
 15  3  2  0  0  0  0
 16 17  2  0  0  0  0
 17  1  1  0  0  0  0
 18 13  1  0  0  0  0
 19 20  1  0  0  0  0
 19 18  1  0  0  0  0
 20 18  1  0  0  0  0
 22 34  1  0  0  0  0
 23 33  1  0  0  0  0
 24 26  1  0  0  0  0
 25 29  1  0  0  0  0
 25 24  1  0  0  0  0
 26 28  1  0  0  0  0
 27 25  2  0  0  0  0
 28 22  2  0  0  0  0
 30 31  1  0  0  0  0
 31 23  2  0  0  0  0
 31 28  1  0  0  0  0
 32 24  1  0  0  0  0
 32 30  1  0  0  0  0
 33 21  1  0  0  0  0
 33 34  2  0  0  0  0
M  END
>  <MODEL>
2

>  <REMARK>
 VINA RESULT:      -9.7      1.170      1.736
  Name = 
  3 active torsions:
  status: ('A' for Active; 'I' for Inactive)
    1  A    between atoms: C_3  and  C_25
    2  A    between atoms: C_8  and  O_18
    3  A    between atoms: O_18  and  C_30
                            x       y       z     vdW  Elec       q    Type
                         _______ _______ _______ _____ _____    ______ ____

>  <TORSDO>
F 3

$$$$
=
 OpenBabel11052420163D

 34 40  0  0  0  0  0  0  0  0999 V2000
  190.9160  174.3300  145.3360 C   0  0  0  0  0  0  0  0  0  0  0  0
  193.1740  171.9810  143.4160 C   0  0  0  0  0  3  0  0  0  0  0  0
  193.6500  173.7430  144.8980 C   0  0  0  0  0  3  0  0  0  0  0  0
  189.4010  175.9590  146.6460 C   0  0  0  0  0  0  0  0  0  0  0  0
  189.4970  174.7670  145.6800 C   0  0  0  0  0  3  0  0  0  0  0  0
  191.8250  176.0440  146.7850 C   0  0  0  0  0  0  0  0  0  0  0  0
  193.1190  176.4210  147.1260 C   0  0  0  0  0  2  0  0  0  0  0  0
  190.5060  176.5460  147.1700 C   0  0  0  0  0  3  0  0  0  0  0  0
  193.2490  174.7650  145.7460 C   0  0  0  0  0  0  0  0  0  0  0  0
  191.9440  175.0160  145.9320 C   0  0  0  0  0  0  0  0  0  0  0  0
  194.0080  175.6150  146.4700 N   0  0  0  0  0  0  0  0  0  0  0  0
  192.5440  171.0460  142.6080 C   0  0  0  0  0  3  0  0  0  0  0  0
  191.1930  170.8370  142.3710 C   0  0  0  0  0  0  0  0  0  0  0  0
  190.1530  171.5320  142.9760 C   0  0  0  0  0  3  0  0  0  0  0  0
  192.6570  172.9770  144.2360 C   0  0  0  0  0  0  0  0  0  0  0  0
  190.1900  172.5880  143.8740 C   0  0  0  0  0  3  0  0  0  0  0  0
  191.2600  173.2680  144.4540 C   0  0  0  0  0  0  0  0  0  0  0  0
  190.8220  169.6980  141.4650 C   0  0  0  0  0  3  0  0  0  0  0  0
  191.2160  168.3650  142.0830 C   0  0  0  0  0  2  0  0  0  0  0  0
  192.0640  168.9610  140.9850 C   0  0  0  0  0  2  0  0  0  0  0  0
  188.1080  176.3900  146.9880 O   0  0  0  0  0  0  0  0  0  0  0  0
  184.8180  177.5610  145.7690 C   0  0  0  0  0  3  0  0  0  0  0  0
  187.4600  177.4510  144.8580 C   0  0  0  0  0  3  0  0  0  0  0  0
  184.3400  178.3410  142.2110 N   0  0  0  0  0  0  0  0  0  0  0  0
  183.2290  178.2340  141.3060 C   0  0  0  0  0  0  0  0  0  0  0  0
  184.0900  178.6520  143.6260 C   0  0  0  0  0  2  0  0  0  0  0  0
  183.4280  178.0250  140.0790 O   0  0  0  0  0  0  0  0  0  0  0  0
  185.1390  178.0400  144.4980 C   0  0  0  0  0  0  0  0  0  0  0  0
  181.8240  178.3710  141.7900 C   0  0  0  0  0  1  0  0  0  0  0  0
  186.7920  178.5480  142.6990 C   0  0  0  0  0  2  0  0  0  0  0  0
  186.4600  177.9850  144.0420 C   0  0  0  0  0  0  0  0  0  0  0  0
  185.7050  178.1900  141.6780 C   0  0  0  0  0  2  0  0  0  0  0  0
  187.1460  176.9620  146.1380 C   0  0  0  0  0  0  0  0  0  0  0  0
  185.8200  177.0190  146.5830 C   0  0  0  0  0  3  0  0  0  0  0  0
  1  5  2  0  0  0  0
  1 10  1  0  0  0  0
  2 15  1  0  0  0  0
  3  9  1  0  0  0  0
  4 21  1  0  0  0  0
  4  8  2  0  0  0  0
  5  4  1  0  0  0  0
  6  7  1  0  0  0  0
  6  8  1  0  0  0  0
  9 10  1  0  0  0  0
  9 11  2  0  0  0  0
 10  6  2  0  0  0  0
 11  7  1  0  0  0  0
 12  2  2  0  0  0  0
 13 12  1  0  0  0  0
 13 14  2  0  0  0  0
 14 16  1  0  0  0  0
 15 17  1  0  0  0  0
 15  3  2  0  0  0  0
 16 17  2  0  0  0  0
 17  1  1  0  0  0  0
 18 19  1  0  0  0  0
 18 13  1  0  0  0  0
 20 18  1  0  0  0  0
 20 19  1  0  0  0  0
 22 34  1  0  0  0  0
 23 33  1  0  0  0  0
 24 26  1  0  0  0  0
 25 29  1  0  0  0  0
 25 24  1  0  0  0  0
 26 28  1  0  0  0  0
 27 25  2  0  0  0  0
 28 22  2  0  0  0  0
 30 31  1  0  0  0  0
 31 28  1  0  0  0  0
 31 23  2  0  0  0  0
 32 24  1  0  0  0  0
 32 30  1  0  0  0  0
 33 34  2  0  0  0  0
 33 21  1  0  0  0  0
M  END
>  <MODEL>
3

>  <REMARK>
 VINA RESULT:      -9.2      2.876      8.794
  Name = 
  3 active torsions:
  status: ('A' for Active; 'I' for Inactive)
    1  A    between atoms: C_3  and  C_25
    2  A    between atoms: C_8  and  O_18
    3  A    between atoms: O_18  and  C_30
                            x       y       z     vdW  Elec       q    Type
                         _______ _______ _______ _____ _____    ______ ____

>  <TORSDO>
F 3

$$$$
=
 OpenBabel11052420163D

 34 40  0  0  0  0  0  0  0  0999 V2000
  194.2960  173.5410  144.1770 C   0  0  0  0  0  0  0  0  0  0  0  0
  197.1450  171.5940  145.7230 C   0  0  0  0  0  3  0  0  0  0  0  0
  197.0400  173.7660  144.8320 C   0  0  0  0  0  3  0  0  0  0  0  0
  192.3750  174.8890  143.1010 C   0  0  0  0  0  0  0  0  0  0  0  0
  192.8280  173.5810  143.7690 C   0  0  0  0  0  2  0  0  0  0  0  0
  194.6110  175.8000  143.3650 C   0  0  0  0  0  0  0  0  0  0  0  0
  195.7050  176.6570  143.3220 C   0  0  0  0  0  3  0  0  0  0  0  0
  193.2220  175.9340  142.9270 C   0  0  0  0  0  3  0  0  0  0  0  0
  196.3440  174.8060  144.2310 C   0  0  0  0  0  0  0  0  0  0  0  0
  195.0430  174.6660  143.9350 C   0  0  0  0  0  0  0  0  0  0  0  0
  196.7890  176.0270  143.8670 N   0  0  0  0  0  0  0  0  0  0  0  0
  196.8540  170.3050  146.1420 C   0  0  0  0  0  3  0  0  0  0  0  0
  195.6650  169.5910  146.0730 C   0  0  0  0  0  0  0  0  0  0  0  0
  194.4590  170.0820  145.5890 C   0  0  0  0  0  3  0  0  0  0  0  0
  196.3510  172.5620  145.1200 C   0  0  0  0  0  0  0  0  0  0  0  0
  194.1580  171.3150  145.0300 C   0  0  0  0  0  3  0  0  0  0  0  0
  194.9510  172.4370  144.7910 C   0  0  0  0  0  0  0  0  0  0  0  0
  195.6560  168.2100  146.6640 C   0  0  0  0  0  3  0  0  0  0  0  0
  194.9480  168.2030  148.0110 C   0  0  0  0  0  2  0  0  0  0  0  0
  196.4570  168.1690  147.9570 C   0  0  0  0  0  2  0  0  0  0  0  0
  191.0260  174.9630  142.7130 O   0  0  0  0  0  0  0  0  0  0  0  0
  188.7810  176.5440  145.1900 C   0  0  0  0  0  3  0  0  0  0  0  0
  189.2710  176.6740  142.4390 C   0  0  0  0  0  3  0  0  0  0  0  0
  185.8470  178.4490  144.0680 N   0  0  0  0  0  0  0  0  0  0  0  0
  184.5330  178.6690  144.6060 C   0  0  0  0  0  0  0  0  0  0  0  0
  186.9850  178.2890  144.9840 C   0  0  0  0  0  2  0  0  0  0  0  0
  183.5550  178.8650  143.8350 O   0  0  0  0  0  0  0  0  0  0  0  0
  188.0290  177.4030  144.3860 C   0  0  0  0  0  0  0  0  0  0  0  0
  184.2940  178.6740  146.0790 C   0  0  0  0  0  1  0  0  0  0  0  0
  187.4930  178.4280  142.1750 C   0  0  0  0  0  2  0  0  0  0  0  0
  188.2740  177.4680  143.0100 C   0  0  0  0  0  0  0  0  0  0  0  0
  186.0220  178.4480  142.6050 C   0  0  0  0  0  2  0  0  0  0  0  0
  190.0310  175.8030  143.2400 C   0  0  0  0  0  0  0  0  0  0  0  0
  189.7740  175.7440  144.6150 C   0  0  0  0  0  3  0  0  0  0  0  0
  1 17  2  0  0  0  0
  2 12  1  0  0  0  0
  3 15  1  0  0  0  0
  4  5  1  0  0  0  0
  5  1  1  0  0  0  0
  6 10  2  0  0  0  0
  7  6  1  0  0  0  0
  7 11  2  0  0  0  0
  8  4  2  0  0  0  0
  8  6  1  0  0  0  0
  9  3  2  0  0  0  0
 10  1  1  0  0  0  0
 10  9  1  0  0  0  0
 11  9  1  0  0  0  0
 13 12  2  0  0  0  0
 13 18  1  0  0  0  0
 14 13  1  0  0  0  0
 15  2  2  0  0  0  0
 16 14  2  0  0  0  0
 17 16  1  0  0  0  0
 17 15  1  0  0  0  0
 18 20  1  0  0  0  0
 18 19  1  0  0  0  0
 20 19  1  0  0  0  0
 21  4  1  0  0  0  0
 21 33  1  0  0  0  0
 23 31  2  0  0  0  0
 23 33  1  0  0  0  0
 24 25  1  0  0  0  0
 24 26  1  0  0  0  0
 25 29  1  0  0  0  0
 27 25  2  0  0  0  0
 28 26  1  0  0  0  0
 28 22  2  0  0  0  0
 30 32  1  0  0  0  0
 30 31  1  0  0  0  0
 31 28  1  0  0  0  0
 32 24  1  0  0  0  0
 33 34  2  0  0  0  0
 34 22  1  0  0  0  0
M  END
>  <MODEL>
4

>  <REMARK>
 VINA RESULT:      -9.1      2.822     10.701
  Name = 
  3 active torsions:
  status: ('A' for Active; 'I' for Inactive)
    1  A    between atoms: C_3  and  C_25
    2  A    between atoms: C_8  and  O_18
    3  A    between atoms: O_18  and  C_30
                            x       y       z     vdW  Elec       q    Type
                         _______ _______ _______ _____ _____    ______ ____

>  <TORSDO>
F 3

$$$$
=
 OpenBabel11052420163D

 34 40  0  0  0  0  0  0  0  0999 V2000
  191.0120  174.6520  144.7960 C   0  0  0  0  0  0  0  0  0  0  0  0
  193.1540  172.5690  142.4790 C   0  0  0  0  0  3  0  0  0  0  0  0
  193.7160  174.0310  144.2320 C   0  0  0  0  0  3  0  0  0  0  0  0
  189.5780  176.0980  146.3830 C   0  0  0  0  0  0  0  0  0  0  0  0
  189.6160  175.0850  145.2280 C   0  0  0  0  0  3  0  0  0  0  0  0
  192.0030  176.0540  146.5050 C   0  0  0  0  0  0  0  0  0  0  0  0
  193.3140  176.3110  146.8880 C   0  0  0  0  0  2  0  0  0  0  0  0
  190.7100  176.5390  146.9850 C   0  0  0  0  0  3  0  0  0  0  0  0
  193.3640  174.9110  145.2460 C   0  0  0  0  0  0  0  0  0  0  0  0
  192.0720  175.1820  145.4880 C   0  0  0  0  0  0  0  0  0  0  0  0
  194.1630  175.5910  146.0950 N   0  0  0  0  0  0  0  0  0  0  0  0
  192.4800  171.8140  141.5310 C   0  0  0  0  0  3  0  0  0  0  0  0
  191.1200  171.7060  141.2790 C   0  0  0  0  0  0  0  0  0  0  0  0
  190.1140  172.3310  142.0050 C   0  0  0  0  0  3  0  0  0  0  0  0
  192.6860  173.4330  143.4620 C   0  0  0  0  0  0  0  0  0  0  0  0
  190.2030  173.2170  143.0690 C   0  0  0  0  0  3  0  0  0  0  0  0
  191.3050  173.7420  143.7430 C   0  0  0  0  0  0  0  0  0  0  0  0
  190.6940  170.7540  140.1960 C   0  0  0  0  0  3  0  0  0  0  0  0
  191.1510  171.2500  138.8320 C   0  0  0  0  0  2  0  0  0  0  0  0
  189.7090  171.4200  139.2470 C   0  0  0  0  0  2  0  0  0  0  0  0
  188.3060  176.5190  146.8080 O   0  0  0  0  0  0  0  0  0  0  0  0
  184.9080  177.5400  145.7650 C   0  0  0  0  0  3  0  0  0  0  0  0
  187.5120  177.6190  144.7490 C   0  0  0  0  0  3  0  0  0  0  0  0
  184.2410  178.4230  142.2620 N   0  0  0  0  0  0  0  0  0  0  0  0
  183.1020  178.2860  141.3970 C   0  0  0  0  0  0  0  0  0  0  0  0
  184.0320  178.6660  143.6970 C   0  0  0  0  0  2  0  0  0  0  0  0
  183.2620  178.1340  140.1560 O   0  0  0  0  0  0  0  0  0  0  0  0
  185.1490  178.0850  144.5030 C   0  0  0  0  0  0  0  0  0  0  0  0
  181.7130  178.3220  141.9400 C   0  0  0  0  0  1  0  0  0  0  0  0
  186.6950  178.7550  142.6620 C   0  0  0  0  0  2  0  0  0  0  0  0
  186.4510  178.1250  143.9940 C   0  0  0  0  0  0  0  0  0  0  0  0
  185.5900  178.3730  141.6710 C   0  0  0  0  0  2  0  0  0  0  0  0
  187.2800  177.0650  146.0200 C   0  0  0  0  0  0  0  0  0  0  0  0
  185.9710  177.0280  146.5170 C   0  0  0  0  0  3  0  0  0  0  0  0
  1  5  2  0  0  0  0
  1 10  1  0  0  0  0
  2 15  1  0  0  0  0
  3  9  1  0  0  0  0
  4 21  1  0  0  0  0
  4  8  2  0  0  0  0
  5  4  1  0  0  0  0
  6  7  1  0  0  0  0
  6  8  1  0  0  0  0
  9 10  1  0  0  0  0
  9 11  2  0  0  0  0
 10  6  2  0  0  0  0
 11  7  1  0  0  0  0
 12  2  2  0  0  0  0
 13 12  1  0  0  0  0
 13 14  2  0  0  0  0
 14 16  1  0  0  0  0
 15 17  1  0  0  0  0
 15  3  2  0  0  0  0
 16 17  2  0  0  0  0
 17  1  1  0  0  0  0
 18 13  1  0  0  0  0
 19 20  1  0  0  0  0
 19 18  1  0  0  0  0
 20 18  1  0  0  0  0
 22 34  1  0  0  0  0
 23 33  1  0  0  0  0
 24 26  1  0  0  0  0
 25 29  1  0  0  0  0
 25 24  1  0  0  0  0
 26 28  1  0  0  0  0
 27 25  2  0  0  0  0
 28 22  2  0  0  0  0
 30 31  1  0  0  0  0
 31 28  1  0  0  0  0
 31 23  2  0  0  0  0
 32 24  1  0  0  0  0
 32 30  1  0  0  0  0
 33 34  2  0  0  0  0
 33 21  1  0  0  0  0
M  END
>  <MODEL>
5

>  <REMARK>
 VINA RESULT:      -8.7      2.887      8.492
  Name = 
  3 active torsions:
  status: ('A' for Active; 'I' for Inactive)
    1  A    between atoms: C_3  and  C_25
    2  A    between atoms: C_8  and  O_18
    3  A    between atoms: O_18  and  C_30
                            x       y       z     vdW  Elec       q    Type
                         _______ _______ _______ _____ _____    ______ ____

>  <TORSDO>
F 3

$$$$
=
 OpenBabel11052420163D

 34 40  0  0  1  0  0  0  0  0999 V2000
  195.6570  174.1200  145.0180 C   0  0  0  0  0  0  0  0  0  0  0  0
  197.9320  171.2050  144.2230 C   0  0  0  0  0  3  0  0  0  0  0  0
  197.9410  173.4390  143.4910 C   0  0  0  0  0  3  0  0  0  0  0  0
  194.1120  176.1240  145.5270 C   0  0  0  0  0  0  0  0  0  0  0  0
  194.4460  174.6450  145.7800 C   0  0  0  0  0  3  0  0  0  0  0  0
  196.0190  176.3020  144.0330 C   0  0  0  0  0  0  0  0  0  0  0  0
  196.9630  176.8070  143.1470 C   0  0  0  0  0  3  0  0  0  0  0  0
  194.8680  176.8990  144.7100 C   0  0  0  0  0  3  0  0  0  0  0  0
  197.4110  174.7220  143.4820 C   0  0  0  0  0  0  0  0  0  0  0  0
  196.3270  175.0110  144.2180 C   0  0  2  0  0  3  0  0  0  0  0  0
  197.8340  175.8100  142.8050 N   0  0  0  0  0  0  0  0  0  0  0  0
  197.6230  169.9990  144.8340 C   0  0  0  0  0  3  0  0  0  0  0  0
  196.5850  169.6760  145.6970 C   0  0  0  0  0  0  0  0  0  0  0  0
  195.6340  170.5660  146.1800 C   0  0  0  0  0  3  0  0  0  0  0  0
  197.3140  172.4490  144.2880 C   0  0  0  0  0  0  0  0  0  0  0  0
  195.4490  171.9110  145.9010 C   0  0  0  0  0  3  0  0  0  0  0  0
  196.1500  172.7860  145.0710 C   0  0  0  0  0  0  0  0  0  0  0  0
  196.5480  168.2730  146.2330 C   0  0  0  0  0  3  0  0  0  0  0  0
  195.8040  168.2210  147.5590 C   0  0  0  0  0  2  0  0  0  0  0  0
  197.3130  168.1740  147.5440 C   0  0  0  0  0  2  0  0  0  0  0  0
  193.0020  176.6440  146.2150 O   0  0  0  0  0  0  0  0  0  0  0  0
  190.0230  177.2170  144.0990 C   0  0  0  0  0  3  0  0  0  0  0  0
  190.6240  176.1150  146.5980 C   0  0  0  0  0  3  0  0  0  0  0  0
  186.6550  176.9240  145.5380 N   0  0  0  0  0  0  0  0  0  0  0  0
  185.4030  177.5830  145.2900 C   0  0  0  0  0  0  0  0  0  0  0  0
  187.5850  176.7000  144.4220 C   0  0  0  0  0  2  0  0  0  0  0  0
  184.5680  177.7330  146.2240 O   0  0  0  0  0  0  0  0  0  0  0  0
  189.0010  176.7040  144.9010 C   0  0  0  0  0  0  0  0  0  0  0  0
  185.0580  178.1000  143.9340 C   0  0  0  0  0  1  0  0  0  0  0  0
  188.2010  175.5650  146.9720 C   0  0  0  0  0  2  0  0  0  0  0  0
  189.3010  176.1530  146.1510 C   0  0  0  0  0  0  0  0  0  0  0  0
  186.9440  176.4400  146.8990 C   0  0  0  0  0  2  0  0  0  0  0  0
  191.6590  176.6330  145.8010 C   0  0  0  0  0  0  0  0  0  0  0  0
  191.3460  177.1850  144.5520 C   0  0  0  0  0  3  0  0  0  0  0  0
  1 17  2  0  0  0  0
  1  5  1  0  0  0  0
  2 15  2  0  0  0  0
  2 12  1  0  0  0  0
  3 15  1  0  0  0  0
  4  5  2  0  0  0  0
  4 21  1  0  0  0  0
  6 10  1  0  0  0  0
  6  8  2  0  0  0  0
  7  6  1  0  0  0  0
  8  4  1  0  0  0  0
  9  3  2  0  0  0  0
 10  9  1  6  0  0  0
 10  1  1  0  0  0  0
 11  7  2  0  0  0  0
 11  9  1  0  0  0  0
 12 13  2  0  0  0  0
 13 14  1  0  0  0  0
 13 18  1  0  0  0  0
 15 17  1  0  0  0  0
 16 14  2  0  0  0  0
 17 16  1  0  0  0  0
 18 20  1  0  0  0  0
 18 19  1  0  0  0  0
 20 19  1  0  0  0  0
 22 34  2  0  0  0  0
 22 28  1  0  0  0  0
 24 32  1  0  0  0  0
 25 24  1  0  0  0  0
 25 27  2  0  0  0  0
 26 28  1  0  0  0  0
 26 24  1  0  0  0  0
 28 31  2  0  0  0  0
 29 25  1  0  0  0  0
 31 23  1  0  0  0  0
 31 30  1  0  0  0  0
 32 30  1  0  0  0  0
 33 21  1  0  0  0  0
 33 23  2  0  0  0  0
 34 33  1  0  0  0  0
M  END
>  <MODEL>
6

>  <REMARK>
 VINA RESULT:      -8.6      3.017     10.832
  Name = 
  3 active torsions:
  status: ('A' for Active; 'I' for Inactive)
    1  A    between atoms: C_3  and  C_25
    2  A    between atoms: C_8  and  O_18
    3  A    between atoms: O_18  and  C_30
                            x       y       z     vdW  Elec       q    Type
                         _______ _______ _______ _____ _____    ______ ____

>  <TORSDO>
F 3

$$$$
=
 OpenBabel11052420163D

 34 40  0  0  0  0  0  0  0  0999 V2000
  195.8350  174.9210  143.0130 C   0  0  0  0  0  0  0  0  0  0  0  0
  197.9380  172.9800  140.5420 C   0  0  0  0  0  3  0  0  0  0  0  0
  197.8120  172.8990  142.8880 C   0  0  0  0  0  3  0  0  0  0  0  0
  194.4250  176.2430  144.7250 C   0  0  0  0  0  0  0  0  0  0  0  0
  194.7710  175.9870  143.2500 C   0  0  0  0  0  3  0  0  0  0  0  0
  196.0100  174.5280  145.3960 C   0  0  0  0  0  0  0  0  0  0  0  0
  196.7800  173.6660  146.1690 C   0  0  0  0  0  2  0  0  0  0  0  0
  195.0070  175.5400  145.7290 C   0  0  0  0  0  3  0  0  0  0  0  0
  197.2840  173.3320  144.0960 C   0  0  0  0  0  0  0  0  0  0  0  0
  196.3470  174.2930  144.1190 C   0  0  0  0  0  0  0  0  0  0  0  0
  197.5770  172.9190  145.3470 N   0  0  0  0  0  0  0  0  0  0  0  0
  197.7640  173.2960  139.2030 C   0  0  0  0  0  3  0  0  0  0  0  0
  196.9360  174.2390  138.6090 C   0  0  0  0  0  0  0  0  0  0  0  0
  196.0360  175.0570  139.2810 C   0  0  0  0  0  3  0  0  0  0  0  0
  197.3430  173.4930  141.6880 C   0  0  0  0  0  0  0  0  0  0  0  0
  195.7840  175.1780  140.6390 C   0  0  0  0  0  3  0  0  0  0  0  0
  196.3340  174.5240  141.7420 C   0  0  0  0  0  0  0  0  0  0  0  0
  196.9410  174.3110  137.1090 C   0  0  0  0  0  3  0  0  0  0  0  0
  197.9350  175.3550  136.6210 C   0  0  0  0  0  2  0  0  0  0  0  0
  196.4580  175.6720  136.6300 C   0  0  0  0  0  2  0  0  0  0  0  0
  193.4470  177.2180  144.9820 O   0  0  0  0  0  0  0  0  0  0  0  0
  190.0310  177.6700  143.6370 C   0  0  0  0  0  3  0  0  0  0  0  0
  191.2780  176.3310  145.7520 C   0  0  0  0  0  3  0  0  0  0  0  0
  187.1120  176.7420  145.6650 N   0  0  0  0  0  0  0  0  0  0  0  0
  185.7760  177.2560  145.7860 C   0  0  0  0  0  0  0  0  0  0  0  0
  187.7900  176.7950  144.3620 C   0  0  0  0  0  2  0  0  0  0  0  0
  185.1580  177.1670  146.8810 O   0  0  0  0  0  0  0  0  0  0  0  0
  189.2690  176.9230  144.5370 C   0  0  0  0  0  0  0  0  0  0  0  0
  185.0900  177.9010  144.6290 C   0  0  0  0  0  1  0  0  0  0  0  0
  189.0650  175.4200  146.5180 C   0  0  0  0  0  2  0  0  0  0  0  0
  189.8920  176.2530  145.5950 C   0  0  0  0  0  0  0  0  0  0  0  0
  187.7420  176.1210  146.8430 C   0  0  0  0  0  2  0  0  0  0  0  0
  192.0540  177.0840  144.8540 C   0  0  0  0  0  0  0  0  0  0  0  0
  191.4180  177.7530  143.8000 C   0  0  0  0  0  3  0  0  0  0  0  0
  1  5  2  0  0  0  0
  1 10  1  0  0  0  0
  2 15  1  0  0  0  0
  3  9  1  0  0  0  0
  4 21  1  0  0  0  0
  4  8  2  0  0  0  0
  5  4  1  0  0  0  0
  6  8  1  0  0  0  0
  6  7  1  0  0  0  0
  9 10  1  0  0  0  0
  9 11  2  0  0  0  0
 10  6  2  0  0  0  0
 11  7  1  0  0  0  0
 12  2  2  0  0  0  0
 13 12  1  0  0  0  0
 13 14  2  0  0  0  0
 14 16  1  0  0  0  0
 15 17  1  0  0  0  0
 15  3  2  0  0  0  0
 16 17  2  0  0  0  0
 17  1  1  0  0  0  0
 18 13  1  0  0  0  0
 19 20  1  0  0  0  0
 19 18  1  0  0  0  0
 20 18  1  0  0  0  0
 22 34  2  0  0  0  0
 22 28  1  0  0  0  0
 24 25  1  0  0  0  0
 24 32  1  0  0  0  0
 25 27  2  0  0  0  0
 26 28  1  0  0  0  0
 26 24  1  0  0  0  0
 28 31  2  0  0  0  0
 29 25  1  0  0  0  0
 30 32  1  0  0  0  0
 31 23  1  0  0  0  0
 31 30  1  0  0  0  0
 33 21  1  0  0  0  0
 33 23  2  0  0  0  0
 34 33  1  0  0  0  0
M  END
>  <MODEL>
7

>  <REMARK>
 VINA RESULT:      -8.4      3.929      9.865
  Name = 
  3 active torsions:
  status: ('A' for Active; 'I' for Inactive)
    1  A    between atoms: C_3  and  C_25
    2  A    between atoms: C_8  and  O_18
    3  A    between atoms: O_18  and  C_30
                            x       y       z     vdW  Elec       q    Type
                         _______ _______ _______ _____ _____    ______ ____

>  <TORSDO>
F 3

$$$$
=
 OpenBabel11052420163D

 34 40  0  0  0  0  0  0  0  0999 V2000
  191.9540  175.6650  144.5340 C   0  0  0  0  0  0  0  0  0  0  0  0
  195.7090  175.7040  144.9730 C   0  0  0  0  0  3  0  0  0  0  0  0
  193.9600  176.2940  146.4290 C   0  0  0  0  0  3  0  0  0  0  0  0
  189.3860  175.6660  144.2590 C   0  0  0  0  0  0  0  0  0  0  0  0
  190.7590  175.3690  143.6350 C   0  0  0  0  0  3  0  0  0  0  0  0
  190.4710  176.3660  146.3170 C   0  0  0  0  0  0  0  0  0  0  0  0
  190.6840  176.8320  147.6090 C   0  0  0  0  0  2  0  0  0  0  0  0
  189.2630  176.1250  145.5300 C   0  0  0  0  0  3  0  0  0  0  0  0
  192.6110  176.4420  146.7170 C   0  0  0  0  0  0  0  0  0  0  0  0
  191.6850  176.1340  145.7960 C   0  0  0  0  0  0  0  0  0  0  0  0
  192.0280  176.8770  147.8540 N   0  0  0  0  0  0  0  0  0  0  0  0
  196.4600  175.2930  143.8830 C   0  0  0  0  0  3  0  0  0  0  0  0
  196.0510  174.8740  142.6240 C   0  0  0  0  0  0  0  0  0  0  0  0
  194.7320  174.7300  142.2130 C   0  0  0  0  0  3  0  0  0  0  0  0
  194.3350  175.8150  145.1480 C   0  0  0  0  0  0  0  0  0  0  0  0
  193.5530  175.0040  142.8900 C   0  0  0  0  0  3  0  0  0  0  0  0
  193.3190  175.4910  144.1760 C   0  0  0  0  0  0  0  0  0  0  0  0
  197.1210  174.4440  141.6610 C   0  0  0  0  0  3  0  0  0  0  0  0
  197.4140  175.5440  140.6520 C   0  0  0  0  0  2  0  0  0  0  0  0
  196.5720  174.3580  140.2450 C   0  0  0  0  0  2  0  0  0  0  0  0
  188.2610  175.4040  143.4590 O   0  0  0  0  0  0  0  0  0  0  0  0
  185.2220  177.3690  144.2200 C   0  0  0  0  0  3  0  0  0  0  0  0
  186.7790  176.7180  141.9900 C   0  0  0  0  0  3  0  0  0  0  0  0
  183.0040  178.4620  141.5020 N   0  0  0  0  0  0  0  0  0  0  0  0
  181.5870  178.6700  141.3930 C   0  0  0  0  0  0  0  0  0  0  0  0
  183.6760  178.7310  142.7820 C   0  0  0  0  0  2  0  0  0  0  0  0
  181.0040  178.4990  140.2880 O   0  0  0  0  0  0  0  0  0  0  0  0
  184.8650  177.8430  142.9560 C   0  0  0  0  0  0  0  0  0  0  0  0
  180.7760  179.0920  142.5710 C   0  0  0  0  0  1  0  0  0  0  0  0
  185.2730  178.0730  140.5050 C   0  0  0  0  0  2  0  0  0  0  0  0
  185.6440  177.5170  141.8410 C   0  0  0  0  0  0  0  0  0  0  0  0
  183.7540  178.0390  140.3060 C   0  0  0  0  0  2  0  0  0  0  0  0
  187.1450  176.2330  143.2580 C   0  0  0  0  0  0  0  0  0  0  0  0
  186.3560  176.5630  144.3670 C   0  0  0  0  0  3  0  0  0  0  0  0
  1 10  1  0  0  0  0
  2 15  1  0  0  0  0
  3  9  1  0  0  0  0
  4  8  2  0  0  0  0
  5  4  1  0  0  0  0
  5  1  2  0  0  0  0
  6  7  1  0  0  0  0
  7 11  1  0  0  0  0
  8  6  1  0  0  0  0
  9 11  2  0  0  0  0
 10  6  2  0  0  0  0
 10  9  1  0  0  0  0
 12  2  2  0  0  0  0
 13 12  1  0  0  0  0
 14 13  2  0  0  0  0
 14 16  1  0  0  0  0
 15  3  2  0  0  0  0
 16 17  2  0  0  0  0
 17  1  1  0  0  0  0
 17 15  1  0  0  0  0
 18 13  1  0  0  0  0
 19 18  1  0  0  0  0
 20 19  1  0  0  0  0
 20 18  1  0  0  0  0
 21  4  1  0  0  0  0
 22 34  1  0  0  0  0
 23 33  1  0  0  0  0
 24 26  1  0  0  0  0
 25 24  1  0  0  0  0
 25 29  1  0  0  0  0
 26 28  1  0  0  0  0
 27 25  2  0  0  0  0
 28 22  2  0  0  0  0
 30 31  1  0  0  0  0
 31 23  2  0  0  0  0
 31 28  1  0  0  0  0
 32 30  1  0  0  0  0
 32 24  1  0  0  0  0
 33 21  1  0  0  0  0
 33 34  2  0  0  0  0
M  END
>  <MODEL>
8

>  <REMARK>
 VINA RESULT:      -8.2      3.047      9.592
  Name = 
  3 active torsions:
  status: ('A' for Active; 'I' for Inactive)
    1  A    between atoms: C_3  and  C_25
    2  A    between atoms: C_8  and  O_18
    3  A    between atoms: O_18  and  C_30
                            x       y       z     vdW  Elec       q    Type
                         _______ _______ _______ _____ _____    ______ ____

>  <TORSDO>
F 3

$$$$
=
 OpenBabel11052420163D

 34 40  0  0  0  0  0  0  0  0999 V2000
  194.4810  174.3220  142.9540 C   0  0  0  0  0  0  0  0  0  0  0  0
  197.2990  175.0360  140.5360 C   0  0  0  0  0  3  0  0  0  0  0  0
  197.2830  174.7070  142.8640 C   0  0  0  0  0  3  0  0  0  0  0  0
  192.5760  173.8500  144.6310 C   0  0  0  0  0  0  0  0  0  0  0  0
  192.9900  174.0880  143.1700 C   0  0  0  0  0  3  0  0  0  0  0  0
  194.8960  174.0440  145.3230 C   0  0  0  0  0  0  0  0  0  0  0  0
  196.0460  174.0860  146.1040 C   0  0  0  0  0  2  0  0  0  0  0  0
  193.4850  173.8190  145.6370 C   0  0  0  0  0  3  0  0  0  0  0  0
  196.6180  174.4490  144.0540 C   0  0  0  0  0  0  0  0  0  0  0  0
  195.2890  174.2710  144.0610 C   0  0  0  0  0  0  0  0  0  0  0  0
  197.1230  174.3410  145.3020 N   0  0  0  0  0  0  0  0  0  0  0  0
  196.9440  175.1890  139.2050 C   0  0  0  0  0  3  0  0  0  0  0  0
  195.6940  175.1350  138.6030 C   0  0  0  0  0  0  0  0  0  0  0  0
  194.4990  174.8510  139.2520 C   0  0  0  0  0  3  0  0  0  0  0  0
  196.5300  174.7780  141.6650 C   0  0  0  0  0  0  0  0  0  0  0  0
  194.2500  174.6170  140.5960 C   0  0  0  0  0  3  0  0  0  0  0  0
  195.1010  174.5820  141.7000 C   0  0  0  0  0  0  0  0  0  0  0  0
  195.6420  175.2980  137.1100 C   0  0  0  0  0  3  0  0  0  0  0  0
  196.3110  174.1210  136.4150 C   0  0  0  0  0  2  0  0  0  0  0  0
  197.0430  175.4370  136.5320 C   0  0  0  0  0  2  0  0  0  0  0  0
  191.2080  173.6300  144.8690 O   0  0  0  0  0  0  0  0  0  0  0  0
  188.6490  175.4160  146.8530 C   0  0  0  0  0  3  0  0  0  0  0  0
  189.8270  175.5980  144.3230 C   0  0  0  0  0  3  0  0  0  0  0  0
  186.3760  177.7950  145.2180 N   0  0  0  0  0  0  0  0  0  0  0  0
  185.0120  178.1860  145.4390 C   0  0  0  0  0  0  0  0  0  0  0  0
  187.2150  177.4210  146.3650 C   0  0  0  0  0  2  0  0  0  0  0  0
  184.2950  178.5650  144.4740 O   0  0  0  0  0  0  0  0  0  0  0  0
  188.2460  176.4150  145.9650 C   0  0  0  0  0  0  0  0  0  0  0  0
  184.4140  178.1590  146.8060 C   0  0  0  0  0  1  0  0  0  0  0  0
  188.4260  177.6130  143.7840 C   0  0  0  0  0  2  0  0  0  0  0  0
  188.8350  176.5070  144.7000 C   0  0  0  0  0  0  0  0  0  0  0  0
  186.9110  177.8360  143.8450 C   0  0  0  0  0  2  0  0  0  0  0  0
  190.2360  174.5850  145.2080 C   0  0  0  0  0  0  0  0  0  0  0  0
  189.6360  174.5020  146.4710 C   0  0  0  0  0  3  0  0  0  0  0  0
  1  5  2  0  0  0  0
  1 10  1  0  0  0  0
  2 15  1  0  0  0  0
  3  9  1  0  0  0  0
  4 21  1  0  0  0  0
  4  8  2  0  0  0  0
  5  4  1  0  0  0  0
  6  8  1  0  0  0  0
  6  7  1  0  0  0  0
  9 10  1  0  0  0  0
  9 11  2  0  0  0  0
 10  6  2  0  0  0  0
 11  7  1  0  0  0  0
 12  2  2  0  0  0  0
 13 12  1  0  0  0  0
 13 14  2  0  0  0  0
 14 16  1  0  0  0  0
 15 17  1  0  0  0  0
 15  3  2  0  0  0  0
 16 17  2  0  0  0  0
 17  1  1  0  0  0  0
 18 13  1  0  0  0  0
 19 20  1  0  0  0  0
 19 18  1  0  0  0  0
 20 18  1  0  0  0  0
 21 33  1  0  0  0  0
 23 31  2  0  0  0  0
 23 33  1  0  0  0  0
 24 25  1  0  0  0  0
 24 26  1  0  0  0  0
 25 29  1  0  0  0  0
 27 25  2  0  0  0  0
 28 26  1  0  0  0  0
 28 22  2  0  0  0  0
 30 32  1  0  0  0  0
 30 31  1  0  0  0  0
 31 28  1  0  0  0  0
 32 24  1  0  0  0  0
 33 34  2  0  0  0  0
 34 22  1  0  0  0  0
M  END
>  <MODEL>
9

>  <REMARK>
 VINA RESULT:      -8.2      3.831      9.342
  Name = 
  3 active torsions:
  status: ('A' for Active; 'I' for Inactive)
    1  A    between atoms: C_3  and  C_25
    2  A    between atoms: C_8  and  O_18
    3  A    between atoms: O_18  and  C_30
                            x       y       z     vdW  Elec       q    Type
                         _______ _______ _______ _____ _____    ______ ____

>  <TORSDO>
F 3

$$$$
