=
 OpenBabel11052421263D

 32 37  0  0  1  0  0  0  0  0999 V2000
  189.8200  171.9120  140.0310 C   0  0  0  0  0  3  0  0  0  0  0  0
  189.0880  175.8110  143.1990 C   0  0  0  0  0  0  0  0  0  0  0  0
  192.7150  174.7980  146.4410 C   0  0  0  0  0  3  0  0  0  0  0  0
  192.0520  175.5230  147.3410 C   0  0  0  0  0  3  0  0  0  0  0  0
  187.1070  176.7150  144.5070 C   0  0  1  0  0  3  0  0  0  0  0  0
  186.3160  177.7600  143.7010 C   0  0  2  0  0  3  0  0  0  0  0  0
  188.9370  174.6560  141.0990 C   0  0  2  0  0  3  0  0  0  0  0  0
  190.9500  174.3700  142.5620 C   0  0  0  0  0  3  0  0  0  0  0  0
  185.8440  177.5610  146.6330 C   0  0  1  0  0  3  0  0  0  0  0  0
  190.2260  172.5400  141.1330 C   0  0  0  0  0  3  0  0  0  0  0  0
  192.4020  174.8980  144.9750 C   0  0  0  0  0  2  0  0  0  0  0  0
  190.4070  175.1990  143.4640 C   0  0  0  0  0  0  0  0  0  0  0  0
  191.0550  175.4400  144.7260 N   0  0  0  0  0  0  0  0  0  0  0  0
  189.3230  177.2500  145.2750 C   0  0  2  0  0  3  0  0  0  0  0  0
  184.7510  177.9080  145.6490 C   0  0  0  0  0  3  0  0  0  0  0  0
  188.5850  173.6880  138.8120 C   0  0  0  0  0  3  0  0  0  0  0  0
  190.2980  174.0250  141.2530 C   0  0  0  0  0  0  0  0  0  0  0  0
  184.9570  177.9870  144.3200 C   0  0  0  0  0  3  0  0  0  0  0  0
  188.2340  174.5300  139.9730 C   0  0  0  0  0  3  0  0  0  0  0  0
  189.3150  172.5590  138.8040 C   0  0  0  0  0  0  0  0  0  0  0  0
  190.9330  176.3820  146.9350 C   0  0  0  0  0  3  0  0  0  0  0  0
  190.4370  176.3170  145.6950 C   0  0  0  0  0  0  0  0  0  0  0  0
  188.3170  177.4980  146.3570 C   0  0  0  0  0  3  0  0  0  0  0  0
  188.4320  175.5300  142.1140 N   0  0  0  0  0  0  0  0  0  0  0  0
  186.1250  177.3340  142.2600 C   0  0  0  0  0  1  0  0  0  0  0  0
  185.4310  176.5300  147.4550 F   0  0  0  0  0  0  0  0  0  0  0  0
  188.5280  176.7030  144.1720 N   0  0  0  0  0  0  0  0  0  0  0  0
  187.1070  177.1750  145.9230 C   0  0  0  0  0  0  0  0  0  0  0  0
  190.6520  171.8790  136.7140 C   0  0  0  0  0  0  0  0  0  0  0  0
  189.5080  171.8350  137.5790 N   0  0  0  0  0  2  0  0  0  0  0  0
  191.6680  172.5630  137.0040 O   0  0  0  0  0  0  0  0  0  0  0  0
  190.6410  171.0890  135.4550 C   0  0  0  0  0  1  0  0  0  0  0  0
  1 10  1  0  0  0  0
  2 12  1  0  0  0  0
  2 27  1  0  0  0  0
  3  4  2  0  0  0  0
  5 28  1  1  0  0  0
  6 25  1  6  0  0  0
  6 18  1  0  0  0  0
  6  5  1  0  0  0  0
  7 19  1  6  0  0  0
  7 17  1  0  0  0  0
  7 24  1  0  0  0  0
  8 12  2  0  0  0  0
  9 26  1  6  0  0  0
 10 17  2  0  0  0  0
 11  3  1  0  0  0  0
 12 13  1  0  0  0  0
 13 11  1  0  0  0  0
 13 22  1  0  0  0  0
 14 22  1  0  0  0  0
 14 23  1  1  0  0  0
 15  9  1  0  0  0  0
 16 19  2  0  0  0  0
 17  8  1  0  0  0  0
 18 15  2  0  0  0  0
 20 16  1  0  0  0  0
 20  1  2  0  0  0  0
 21  4  1  0  0  0  0
 22 21  2  0  0  0  0
 24  2  2  0  0  0  0
 27  5  1  0  0  0  0
 27 14  1  0  0  0  0
 28 23  2  0  0  0  0
 28  9  1  0  0  0  0
 29 31  2  0  0  0  0
 29 30  1  0  0  0  0
 30 20  1  0  0  0  0
 32 29  1  0  0  0  0
M  END
>  <MODEL>
1

>  <REMARK>
 VINA RESULT:      -9.0      0.000      0.000
  Name = 
  1 active torsions:
  status: ('A' for Active; 'I' for Inactive)
    1  A    between atoms: N_10  and  C_24
                            x       y       z     vdW  Elec       q    Type
                         _______ _______ _______ _____ _____    ______ ____

>  <TORSDO>
F 1

$$$$
=
 OpenBabel11052421263D

 32 37  0  0  1  0  0  0  0  0999 V2000
  190.2960  172.7410  144.8270 C   0  0  0  0  0  3  0  0  0  0  0  0
  187.6210  176.8990  143.6750 C   0  0  0  0  0  0  0  0  0  0  0  0
  186.3040  178.2110  148.2830 C   0  0  0  0  0  3  0  0  0  0  0  0
  185.2910  178.8940  147.7510 C   0  0  0  0  0  3  0  0  0  0  0  0
  185.6670  177.4070  142.1330 C   0  0  1  0  0  3  0  0  0  0  0  0
  186.1380  177.8260  140.7290 C   0  0  2  0  0  3  0  0  0  0  0  0
  189.2690  175.1960  143.2880 C   0  0  2  0  0  3  0  0  0  0  0  0
  188.8670  176.0700  145.6010 C   0  0  0  0  0  3  0  0  0  0  0  0
  183.3130  178.3550  141.5070 C   0  0  1  0  0  3  0  0  0  0  0  0
  189.5830  173.7670  145.2890 C   0  0  0  0  0  3  0  0  0  0  0  0
  187.4650  177.7570  147.4440 C   0  0  0  0  0  2  0  0  0  0  0  0
  187.9200  176.8880  145.1220 C   0  0  0  0  0  0  0  0  0  0  0  0
  187.1310  177.7010  146.0110 N   0  0  0  0  0  0  0  0  0  0  0  0
  186.0650  178.8760  143.9950 C   0  0  2  0  0  3  0  0  0  0  0  0
  183.7210  177.9940  140.0960 C   0  0  0  0  0  3  0  0  0  0  0  0
  191.0120  173.5350  142.5870 C   0  0  0  0  0  3  0  0  0  0  0  0
  189.6830  175.1500  144.7370 C   0  0  0  0  0  0  0  0  0  0  0  0
  184.9960  177.7420  139.7430 C   0  0  0  0  0  3  0  0  0  0  0  0
  189.9270  174.5070  142.3540 C   0  0  0  0  0  3  0  0  0  0  0  0
  191.2230  172.7790  143.6780 C   0  0  0  0  0  0  0  0  0  0  0  0
  185.2370  179.1520  146.3070 C   0  0  0  0  0  3  0  0  0  0  0  0
  186.0960  178.5550  145.4730 C   0  0  0  0  0  0  0  0  0  0  0  0
  184.6800  179.0710  143.4600 C   0  0  0  0  0  3  0  0  0  0  0  0
  188.2460  176.1010  142.8620 N   0  0  0  0  0  0  0  0  0  0  0  0
  187.2720  176.9540  140.2320 C   0  0  0  0  0  1  0  0  0  0  0  0
  182.2800  177.5380  141.9230 F   0  0  0  0  0  0  0  0  0  0  0  0
  186.6110  177.7880  143.1800 N   0  0  0  0  0  0  0  0  0  0  0  0
  184.4720  178.2370  142.4500 C   0  0  0  0  0  0  0  0  0  0  0  0
  193.4930  171.9010  144.5100 C   0  0  0  0  0  0  0  0  0  0  0  0
  192.3070  171.8380  143.7050 N   0  0  0  0  0  2  0  0  0  0  0  0
  193.6680  172.8220  145.3510 O   0  0  0  0  0  0  0  0  0  0  0  0
  194.5320  170.8490  144.3570 C   0  0  0  0  0  1  0  0  0  0  0  0
  1 10  1  0  0  0  0
  2 12  1  0  0  0  0
  4  3  2  0  0  0  0
  5 28  1  1  0  0  0
  5 27  1  0  0  0  0
  6 25  1  6  0  0  0
  6  5  1  0  0  0  0
  7 19  1  6  0  0  0
  7 17  1  0  0  0  0
  9 26  1  1  0  0  0
  9 28  1  0  0  0  0
 11  3  1  0  0  0  0
 12  8  2  0  0  0  0
 12 13  1  0  0  0  0
 13 11  1  0  0  0  0
 14 23  1  6  0  0  0
 14 22  1  0  0  0  0
 15  9  1  0  0  0  0
 16 20  1  0  0  0  0
 17 10  2  0  0  0  0
 17  8  1  0  0  0  0
 18 15  2  0  0  0  0
 18  6  1  0  0  0  0
 19 16  2  0  0  0  0
 20 30  1  0  0  0  0
 20  1  2  0  0  0  0
 21  4  1  0  0  0  0
 22 13  1  0  0  0  0
 22 21  2  0  0  0  0
 24  7  1  0  0  0  0
 24  2  2  0  0  0  0
 27  2  1  0  0  0  0
 27 14  1  0  0  0  0
 28 23  2  0  0  0  0
 29 31  2  0  0  0  0
 30 29  1  0  0  0  0
 32 29  1  0  0  0  0
M  END
>  <MODEL>
2

>  <REMARK>
 VINA RESULT:      -8.6      3.464      5.266
  Name = 
  1 active torsions:
  status: ('A' for Active; 'I' for Inactive)
    1  A    between atoms: N_10  and  C_24
                            x       y       z     vdW  Elec       q    Type
                         _______ _______ _______ _____ _____    ______ ____

>  <TORSDO>
F 1

$$$$
=
 OpenBabel11052421263D

 32 37  0  0  1  0  0  0  0  0999 V2000
  193.2630  175.0380  143.1530 C   0  0  0  0  0  3  0  0  0  0  0  0
  188.3200  175.9130  143.9010 C   0  0  0  0  0  0  0  0  0  0  0  0
  187.0370  176.8830  139.1990 C   0  0  0  0  0  3  0  0  0  0  0  0
  185.9790  177.5410  139.6710 C   0  0  0  0  0  3  0  0  0  0  0  0
  186.9770  177.4570  145.4070 C   0  0  1  0  0  3  0  0  0  0  0  0
  186.6380  176.7930  146.7530 C   0  0  2  0  0  3  0  0  0  0  0  0
  190.4730  174.9990  144.4410 C   0  0  0  0  0  0  0  0  0  0  0  0
  189.7280  175.1660  142.0560 C   0  0  0  0  0  3  0  0  0  0  0  0
  185.1630  179.2540  145.9630 C   0  0  1  0  0  3  0  0  0  0  0  0
  192.0920  175.3410  142.5960 C   0  0  0  0  0  3  0  0  0  0  0  0
  187.8140  175.9320  140.0660 C   0  0  0  0  0  2  0  0  0  0  0  0
  188.5740  175.7150  142.4590 C   0  0  0  0  0  0  0  0  0  0  0  0
  187.6100  176.1890  141.5010 N   0  0  0  0  0  0  0  0  0  0  0  0
  185.9410  176.6370  143.3970 C   0  0  2  0  0  3  0  0  0  0  0  0
  185.5200  178.9380  147.3970 C   0  0  0  0  0  3  0  0  0  0  0  0
  192.5950  173.9640  145.2890 C   0  0  0  0  0  3  0  0  0  0  0  0
  190.8040  174.7070  142.9990 C   0  0  1  0  0  3  0  0  0  0  0  0
  186.1970  177.8310  147.7590 C   0  0  0  0  0  3  0  0  0  0  0  0
  191.2690  174.5970  145.4330 C   0  0  0  0  0  3  0  0  0  0  0  0
  193.4710  174.1060  144.2790 C   0  0  0  0  0  0  0  0  0  0  0  0
  185.5880  177.4210  141.0810 C   0  0  0  0  0  3  0  0  0  0  0  0
  186.3850  176.8040  141.9600 C   0  0  0  0  0  0  0  0  0  0  0  0
  185.1930  177.8210  143.9280 C   0  0  0  0  0  3  0  0  0  0  0  0
  189.2150  175.5890  144.7840 N   0  0  0  0  0  0  0  0  0  0  0  0
  187.8230  176.0400  147.3240 C   0  0  0  0  0  1  0  0  0  0  0  0
  185.5670  180.5370  145.6470 F   0  0  0  0  0  0  0  0  0  0  0  0
  187.0750  176.4940  144.3140 N   0  0  0  0  0  0  0  0  0  0  0  0
  185.7920  178.2720  145.0210 C   0  0  0  0  0  0  0  0  0  0  0  0
  195.9160  173.8850  145.0490 C   0  0  0  0  0  0  0  0  0  0  0  0
  194.7480  173.4520  144.3350 N   0  0  0  0  0  2  0  0  0  0  0  0
  195.8990  174.9160  145.7710 O   0  0  0  0  0  0  0  0  0  0  0  0
  197.1680  173.0900  144.9410 C   0  0  0  0  0  1  0  0  0  0  0  0
  1 20  1  0  0  0  0
  2 27  1  0  0  0  0
  2 24  2  0  0  0  0
  3  4  2  0  0  0  0
  3 11  1  0  0  0  0
  4 21  1  0  0  0  0
  5 28  1  6  0  0  0
  5  6  1  0  0  0  0
  6 25  1  1  0  0  0
  6 18  1  0  0  0  0
  7 24  1  0  0  0  0
  7 19  2  0  0  0  0
  8 12  2  0  0  0  0
  9 26  1  6  0  0  0
  9 15  1  0  0  0  0
 10 17  1  0  0  0  0
 10  1  2  0  0  0  0
 11 13  1  0  0  0  0
 12  2  1  0  0  0  0
 13 22  1  0  0  0  0
 13 12  1  0  0  0  0
 14 23  1  1  0  0  0
 14 27  1  0  0  0  0
 15 18  2  0  0  0  0
 16 19  1  0  0  0  0
 17  8  1  6  0  0  0
 17  7  1  0  0  0  0
 20 30  1  0  0  0  0
 20 16  2  0  0  0  0
 21 22  2  0  0  0  0
 22 14  1  0  0  0  0
 23 28  2  0  0  0  0
 27  5  1  0  0  0  0
 28  9  1  0  0  0  0
 29 31  2  0  0  0  0
 30 29  1  0  0  0  0
 32 29  1  0  0  0  0
M  END
>  <MODEL>
3

>  <REMARK>
 VINA RESULT:      -8.2      3.246      5.893
  Name = 
  1 active torsions:
  status: ('A' for Active; 'I' for Inactive)
    1  A    between atoms: N_10  and  C_24
                            x       y       z     vdW  Elec       q    Type
                         _______ _______ _______ _____ _____    ______ ____

>  <TORSDO>
F 1

$$$$
=
 OpenBabel11052421263D

 32 37  0  0  1  0  0  0  0  0999 V2000
  186.6910  177.3890  139.2660 C   0  0  0  0  0  3  0  0  0  0  0  0
  188.2140  175.8530  143.8580 C   0  0  0  0  0  0  0  0  0  0  0  0
  185.5660  179.0400  146.6010 C   0  0  0  0  0  3  0  0  0  0  0  0
  186.4400  178.8470  147.5880 C   0  0  0  0  0  3  0  0  0  0  0  0
  190.4650  175.5370  144.9910 C   0  0  1  0  0  3  0  0  0  0  0  0
  191.0140  174.1130  144.7910 C   0  0  2  0  0  3  0  0  0  0  0  0
  187.8140  175.6060  141.5040 C   0  0  2  0  0  3  0  0  0  0  0  0
  186.2560  176.9620  142.9190 C   0  0  0  0  0  3  0  0  0  0  0  0
  192.2380  175.8340  146.8890 C   0  0  1  0  0  3  0  0  0  0  0  0
  186.5850  177.5520  140.5840 C   0  0  0  0  0  3  0  0  0  0  0  0
  185.4840  178.0960  145.4360 C   0  0  0  0  0  2  0  0  0  0  0  0
  187.0130  176.7030  143.9940 C   0  0  0  0  0  0  0  0  0  0  0  0
  186.7170  177.3080  145.2670 N   0  0  0  0  0  0  0  0  0  0  0  0
  188.5270  175.8680  146.3750 C   0  0  2  0  0  3  0  0  0  0  0  0
  193.0350  174.8350  146.0800 C   0  0  0  0  0  3  0  0  0  0  0  0
  187.5570  175.0710  139.0670 C   0  0  0  0  0  3  0  0  0  0  0  0
  186.5430  176.4160  141.5500 C   0  0  0  0  0  0  0  0  0  0  0  0
  192.4870  174.0630  145.1220 C   0  0  0  0  0  3  0  0  0  0  0  0
  188.1970  174.9740  140.3940 C   0  0  0  0  0  3  0  0  0  0  0  0
  186.8550  176.1010  138.5630 C   0  0  0  0  0  0  0  0  0  0  0  0
  187.4110  177.7470  147.5270 C   0  0  0  0  0  3  0  0  0  0  0  0
  187.5650  177.0350  146.4050 C   0  0  0  0  0  0  0  0  0  0  0  0
  189.7800  176.1120  147.1590 C   0  0  0  0  0  3  0  0  0  0  0  0
  188.5640  175.3780  142.7010 N   0  0  0  0  0  0  0  0  0  0  0  0
  190.8220  173.6310  143.3680 C   0  0  0  0  0  1  0  0  0  0  0  0
  192.8560  177.0690  146.8550 F   0  0  0  0  0  0  0  0  0  0  0  0
  189.0070  175.5790  145.0220 N   0  0  0  0  0  0  0  0  0  0  0  0
  190.8350  175.9480  146.3740 C   0  0  0  0  0  0  0  0  0  0  0  0
  187.0120  176.4710  136.0230 C   0  0  0  0  0  0  0  0  0  0  0  0
  186.3500  176.0410  137.2210 N   0  0  0  0  0  2  0  0  0  0  0  0
  188.1880  176.9200  136.0480 O   0  0  0  0  0  0  0  0  0  0  0  0
  186.2980  176.3710  134.7230 C   0  0  0  0  0  1  0  0  0  0  0  0
  1 10  1  0  0  0  0
  2 12  1  0  0  0  0
  2 27  1  0  0  0  0
  3  4  2  0  0  0  0
  5 27  1  0  0  0  0
  5 28  1  1  0  0  0
  6 25  1  6  0  0  0
  6  5  1  0  0  0  0
  6 18  1  0  0  0  0
  7 19  1  1  0  0  0
  7 17  1  0  0  0  0
  7 24  1  0  0  0  0
  8 12  2  0  0  0  0
  9 26  1  6  0  0  0
 10 17  2  0  0  0  0
 11  3  1  0  0  0  0
 12 13  1  0  0  0  0
 13 11  1  0  0  0  0
 13 22  1  0  0  0  0
 14 22  1  0  0  0  0
 14 23  1  1  0  0  0
 15  9  1  0  0  0  0
 16 19  2  0  0  0  0
 17  8  1  0  0  0  0
 18 15  2  0  0  0  0
 20 16  1  0  0  0  0
 20  1  2  0  0  0  0
 21  4  1  0  0  0  0
 22 21  2  0  0  0  0
 24  2  2  0  0  0  0
 27 14  1  0  0  0  0
 28  9  1  0  0  0  0
 28 23  2  0  0  0  0
 29 31  2  0  0  0  0
 29 30  1  0  0  0  0
 30 20  1  0  0  0  0
 32 29  1  0  0  0  0
M  END
>  <MODEL>
4

>  <REMARK>
 VINA RESULT:      -8.2      2.752      5.273
  Name = 
  1 active torsions:
  status: ('A' for Active; 'I' for Inactive)
    1  A    between atoms: N_10  and  C_24
                            x       y       z     vdW  Elec       q    Type
                         _______ _______ _______ _____ _____    ______ ____

>  <TORSDO>
F 1

$$$$
=
 OpenBabel11052421263D

 32 37  0  0  1  0  0  0  0  0999 V2000
  188.9890  173.9970  138.6580 C   0  0  0  0  0  3  0  0  0  0  0  0
  190.2900  174.4120  143.5460 C   0  0  0  0  0  0  0  0  0  0  0  0
  186.7300  177.5700  144.9760 C   0  0  0  0  0  3  0  0  0  0  0  0
  187.5110  177.9160  145.9990 C   0  0  0  0  0  3  0  0  0  0  0  0
  192.4180  175.0230  144.7930 C   0  0  1  0  0  3  0  0  0  0  0  0
  193.2790  173.7860  145.0990 C   0  0  2  0  0  3  0  0  0  0  0  0
  190.2160  173.3420  141.3990 C   0  0  2  0  0  3  0  0  0  0  0  0
  188.2550  174.6610  142.2270 C   0  0  0  0  0  3  0  0  0  0  0  0
  193.8640  176.3240  146.5390 C   0  0  1  0  0  3  0  0  0  0  0  0
  188.7060  174.5390  139.8410 C   0  0  0  0  0  3  0  0  0  0  0  0
  186.9840  176.3140  144.1920 C   0  0  0  0  0  2  0  0  0  0  0  0
  188.9270  174.9460  143.3510 C   0  0  0  0  0  0  0  0  0  0  0  0
  188.3680  175.8340  144.3370 N   0  0  0  0  0  0  0  0  0  0  0  0
  190.3120  175.3000  145.9220 C   0  0  2  0  0  3  0  0  0  0  0  0
  194.9410  175.3430  146.1380 C   0  0  0  0  0  3  0  0  0  0  0  0
  190.3520  172.0150  139.2740 C   0  0  0  0  0  3  0  0  0  0  0  0
  188.8030  173.7930  141.1290 C   0  0  0  0  0  0  0  0  0  0  0  0
  194.6830  174.1990  145.4760 C   0  0  0  0  0  3  0  0  0  0  0  0
  190.8470  172.5020  140.5770 C   0  0  0  0  0  3  0  0  0  0  0  0
  189.5030  172.6310  138.4320 C   0  0  0  0  0  0  0  0  0  0  0  0
  188.6960  177.1220  146.3410 C   0  0  0  0  0  3  0  0  0  0  0  0
  189.1240  176.1490  145.5280 C   0  0  0  0  0  0  0  0  0  0  0  0
  191.3880  176.0740  146.6200 C   0  0  0  0  0  3  0  0  0  0  0  0
  190.8600  173.6930  142.6270 N   0  0  0  0  0  0  0  0  0  0  0  0
  193.3550  172.8450  143.9140 C   0  0  0  0  0  1  0  0  0  0  0  0
  194.2000  177.5950  146.1140 F   0  0  0  0  0  0  0  0  0  0  0  0
  190.9900  174.7210  144.7600 N   0  0  0  0  0  0  0  0  0  0  0  0
  192.5350  175.9280  145.9700 C   0  0  0  0  0  0  0  0  0  0  0  0
  189.8420  172.2210  135.9160 C   0  0  0  0  0  0  0  0  0  0  0  0
  189.1750  172.0280  137.1720 N   0  0  0  0  0  2  0  0  0  0  0  0
  190.8680  172.9440  135.8220 O   0  0  0  0  0  0  0  0  0  0  0  0
  189.3160  171.5410  134.7030 C   0  0  0  0  0  1  0  0  0  0  0  0
  1 10  1  0  0  0  0
  2 27  1  0  0  0  0
  3  4  2  0  0  0  0
  4 21  1  0  0  0  0
  5  6  1  0  0  0  0
  5 28  1  1  0  0  0
  6 25  1  6  0  0  0
  6 18  1  0  0  0  0
  7 19  1  1  0  0  0
  7 24  1  0  0  0  0
  8 12  2  0  0  0  0
  9 26  1  6  0  0  0
 10 17  2  0  0  0  0
 11 13  1  0  0  0  0
 11  3  1  0  0  0  0
 12  2  1  0  0  0  0
 12 13  1  0  0  0  0
 13 22  1  0  0  0  0
 14 23  1  6  0  0  0
 15  9  1  0  0  0  0
 16 19  2  0  0  0  0
 17  7  1  0  0  0  0
 17  8  1  0  0  0  0
 18 15  2  0  0  0  0
 20  1  2  0  0  0  0
 20 16  1  0  0  0  0
 22 14  1  0  0  0  0
 22 21  2  0  0  0  0
 24  2  2  0  0  0  0
 27  5  1  0  0  0  0
 27 14  1  0  0  0  0
 28  9  1  0  0  0  0
 28 23  2  0  0  0  0
 29 30  1  0  0  0  0
 30 20  1  0  0  0  0
 31 29  2  0  0  0  0
 32 29  1  0  0  0  0
M  END
>  <MODEL>
5

>  <REMARK>
 VINA RESULT:      -7.7      2.023      4.955
  Name = 
  1 active torsions:
  status: ('A' for Active; 'I' for Inactive)
    1  A    between atoms: N_10  and  C_24
                            x       y       z     vdW  Elec       q    Type
                         _______ _______ _______ _____ _____    ______ ____

>  <TORSDO>
F 1

$$$$
=
 OpenBabel11052421263D

 32 37  0  0  1  0  0  0  0  0999 V2000
  186.3830  178.8560  142.4410 C   0  0  0  0  0  3  0  0  0  0  0  0
  190.2880  176.2690  144.3950 C   0  0  0  0  0  0  0  0  0  0  0  0
  190.2920  178.2870  148.9360 C   0  0  0  0  0  3  0  0  0  0  0  0
  191.5660  177.9160  149.0510 C   0  0  0  0  0  3  0  0  0  0  0  0
  192.7050  175.8800  143.7160 C   0  0  1  0  0  3  0  0  0  0  0  0
  192.8580  174.6300  142.8310 C   0  0  2  0  0  3  0  0  0  0  0  0
  188.4750  176.6450  142.8670 C   0  0  2  0  0  3  0  0  0  0  0  0
  188.3000  177.3910  145.2510 C   0  0  0  0  0  3  0  0  0  0  0  0
  195.2950  175.8160  144.0630 C   0  0  1  0  0  3  0  0  0  0  0  0
  187.1460  178.6350  143.5100 C   0  0  0  0  0  3  0  0  0  0  0  0
  189.4010  177.6990  147.8790 C   0  0  0  0  0  2  0  0  0  0  0  0
  189.5330  176.9220  145.4840 C   0  0  0  0  0  0  0  0  0  0  0  0
  190.1660  177.1170  146.7630 N   0  0  0  0  0  0  0  0  0  0  0  0
  192.1130  175.6160  146.0320 C   0  0  2  0  0  3  0  0  0  0  0  0
  195.3000  175.1660  142.6980 C   0  0  0  0  0  3  0  0  0  0  0  0
  186.6920  176.7830  141.1090 C   0  0  0  0  0  3  0  0  0  0  0  0
  187.6050  177.2780  143.9240 C   0  0  0  0  0  0  0  0  0  0  0  0
  194.1980  174.6390  142.1320 C   0  0  0  0  0  3  0  0  0  0  0  0
  188.0090  176.3870  141.6440 C   0  0  0  0  0  3  0  0  0  0  0  0
  185.9370  177.8360  141.4700 C   0  0  0  0  0  0  0  0  0  0  0  0
  192.1650  176.9810  148.0910 C   0  0  0  0  0  3  0  0  0  0  0  0
  191.5080  176.6260  146.9820 C   0  0  0  0  0  0  0  0  0  0  0  0
  193.5970  175.7590  145.8820 C   0  0  0  0  0  3  0  0  0  0  0  0
  189.7830  176.1710  143.2030 N   0  0  0  0  0  0  0  0  0  0  0  0
  191.7670  174.5440  141.7840 C   0  0  0  0  0  1  0  0  0  0  0  0
  195.8750  177.0680  143.9930 F   0  0  0  0  0  0  0  0  0  0  0  0
  191.6030  175.7640  144.6670 N   0  0  0  0  0  0  0  0  0  0  0  0
  193.9010  175.9260  144.6020 C   0  0  0  0  0  0  0  0  0  0  0  0
  183.4060  178.2900  141.3910 C   0  0  0  0  0  0  0  0  0  0  0  0
  184.6980  178.1000  140.7950 N   0  0  0  0  0  2  0  0  0  0  0  0
  183.2540  178.2910  142.6400 O   0  0  0  0  0  0  0  0  0  0  0  0
  182.2260  178.5040  140.5130 C   0  0  0  0  0  1  0  0  0  0  0  0
  1 10  1  0  0  0  0
  2 27  1  0  0  0  0
  2 12  1  0  0  0  0
  3  4  2  0  0  0  0
  5 28  1  1  0  0  0
  5 27  1  0  0  0  0
  6 25  1  6  0  0  0
  6  5  1  0  0  0  0
  7 19  1  1  0  0  0
  7 24  1  0  0  0  0
  7 17  1  0  0  0  0
  8 12  2  0  0  0  0
  9 26  1  6  0  0  0
  9 28  1  0  0  0  0
 10 17  2  0  0  0  0
 11  3  1  0  0  0  0
 12 13  1  0  0  0  0
 13 22  1  0  0  0  0
 13 11  1  0  0  0  0
 14 23  1  6  0  0  0
 14 22  1  0  0  0  0
 15  9  1  0  0  0  0
 16 20  1  0  0  0  0
 16 19  2  0  0  0  0
 17  8  1  0  0  0  0
 18 15  2  0  0  0  0
 18  6  1  0  0  0  0
 20  1  2  0  0  0  0
 21  4  1  0  0  0  0
 22 21  2  0  0  0  0
 24  2  2  0  0  0  0
 27 14  1  0  0  0  0
 28 23  2  0  0  0  0
 29 31  2  0  0  0  0
 30 29  1  0  0  0  0
 30 20  1  0  0  0  0
 32 29  1  0  0  0  0
M  END
>  <MODEL>
6

>  <REMARK>
 VINA RESULT:      -7.7      3.998      6.809
  Name = 
  1 active torsions:
  status: ('A' for Active; 'I' for Inactive)
    1  A    between atoms: N_10  and  C_24
                            x       y       z     vdW  Elec       q    Type
                         _______ _______ _______ _____ _____    ______ ____

>  <TORSDO>
F 1

$$$$
=
 OpenBabel11052421263D

 32 37  0  0  1  0  0  0  0  0999 V2000
  187.9090  176.0390  144.1450 C   0  0  0  0  0  3  0  0  0  0  0  0
  192.6310  174.4900  143.1120 C   0  0  0  0  0  0  0  0  0  0  0  0
  191.5450  171.1620  139.5850 C   0  0  0  0  0  3  0  0  0  0  0  0
  192.7130  170.5750  139.8420 C   0  0  0  0  0  3  0  0  0  0  0  0
  194.5590  173.5660  144.4840 C   0  0  1  0  0  3  0  0  0  0  0  0
  195.4830  174.6830  145.0000 C   0  0  2  0  0  3  0  0  0  0  0  0
  190.9750  176.0240  143.9280 C   0  0  0  0  0  0  0  0  0  0  0  0
  190.5010  174.5910  141.9300 C   0  0  0  0  0  3  0  0  0  0  0  0
  196.4550  171.8710  145.0870 C   0  0  1  0  0  3  0  0  0  0  0  0
  188.6810  175.2460  143.4030 C   0  0  0  0  0  3  0  0  0  0  0  0
  191.2540  172.5590  140.0550 C   0  0  0  0  0  2  0  0  0  0  0  0
  191.7180  174.0430  142.0390 C   0  0  0  0  0  0  0  0  0  0  0  0
  192.1210  172.9640  141.1740 N   0  0  0  0  0  0  0  0  0  0  0  0
  194.4980  173.0810  142.1290 C   0  0  2  0  0  3  0  0  0  0  0  0
  196.8160  172.8960  146.1380 C   0  0  0  0  0  3  0  0  0  0  0  0
  189.4900  177.7980  144.8980 C   0  0  0  0  0  3  0  0  0  0  0  0
  189.9930  175.6750  142.8380 C   0  0  1  0  0  3  0  0  0  0  0  0
  196.3700  174.1660  146.1090 C   0  0  0  0  0  3  0  0  0  0  0  0
  190.7380  177.0170  144.7870 C   0  0  0  0  0  3  0  0  0  0  0  0
  188.2430  177.4090  144.5830 C   0  0  0  0  0  0  0  0  0  0  0  0
  193.7250  171.2460  140.6670 C   0  0  0  0  0  3  0  0  0  0  0  0
  193.4290  172.3700  141.3300 C   0  0  0  0  0  0  0  0  0  0  0  0
  195.4330  172.1460  142.8340 C   0  0  0  0  0  3  0  0  0  0  0  0
  192.2560  175.3880  143.9710 N   0  0  0  0  0  0  0  0  0  0  0  0
  194.6970  175.8680  145.5230 C   0  0  0  0  0  1  0  0  0  0  0  0
  195.9750  170.7240  145.6900 F   0  0  0  0  0  0  0  0  0  0  0  0
  193.9340  173.8970  143.2070 N   0  0  0  0  0  0  0  0  0  0  0  0
  195.4340  172.4130  144.1330 C   0  0  0  0  0  0  0  0  0  0  0  0
  186.2930  178.9060  143.8250 C   0  0  0  0  0  0  0  0  0  0  0  0
  187.1330  178.2910  144.8120 N   0  0  0  0  0  2  0  0  0  0  0  0
  186.4390  178.6660  142.5970 O   0  0  0  0  0  0  0  0  0  0  0  0
  185.2190  179.8350  144.2630 C   0  0  0  0  0  1  0  0  0  0  0  0
  1 20  1  0  0  0  0
  2 27  1  0  0  0  0
  2 24  2  0  0  0  0
  3  4  2  0  0  0  0
  3 11  1  0  0  0  0
  4 21  1  0  0  0  0
  5 28  1  6  0  0  0
  5  6  1  0  0  0  0
  6 25  1  1  0  0  0
  6 18  1  0  0  0  0
  7 24  1  0  0  0  0
  7 19  2  0  0  0  0
  8 12  2  0  0  0  0
  9 26  1  1  0  0  0
  9 15  1  0  0  0  0
 10  1  2  0  0  0  0
 11 13  1  0  0  0  0
 12  2  1  0  0  0  0
 13 22  1  0  0  0  0
 13 12  1  0  0  0  0
 14 23  1  1  0  0  0
 14 27  1  0  0  0  0
 17  8  1  1  0  0  0
 17 10  1  0  0  0  0
 17  7  1  0  0  0  0
 18 15  2  0  0  0  0
 19 16  1  0  0  0  0
 20 30  1  0  0  0  0
 20 16  2  0  0  0  0
 21 22  2  0  0  0  0
 22 14  1  0  0  0  0
 23 28  2  0  0  0  0
 27  5  1  0  0  0  0
 28  9  1  0  0  0  0
 29 32  1  0  0  0  0
 29 30  1  0  0  0  0
 31 29  2  0  0  0  0
M  END
>  <MODEL>
7

>  <REMARK>
 VINA RESULT:      -7.5      3.848      8.305
  Name = 
  1 active torsions:
  status: ('A' for Active; 'I' for Inactive)
    1  A    between atoms: N_10  and  C_24
                            x       y       z     vdW  Elec       q    Type
                         _______ _______ _______ _____ _____    ______ ____

>  <TORSDO>
F 1

$$$$
=
 OpenBabel11052421263D

 32 37  0  0  1  0  0  0  0  0999 V2000
  190.2040  173.0790  138.1450 C   0  0  0  0  0  3  0  0  0  0  0  0
  190.7400  174.1650  143.0740 C   0  0  0  0  0  0  0  0  0  0  0  0
  187.0140  177.4230  143.5070 C   0  0  0  0  0  3  0  0  0  0  0  0
  187.6290  177.9160  144.5810 C   0  0  0  0  0  3  0  0  0  0  0  0
  192.6530  174.9730  144.5380 C   0  0  1  0  0  3  0  0  0  0  0  0
  193.4530  173.8020  145.1340 C   0  0  2  0  0  3  0  0  0  0  0  0
  190.9930  172.8170  141.1040 C   0  0  2  0  0  3  0  0  0  0  0  0
  188.9320  174.2000  141.4380 C   0  0  0  0  0  3  0  0  0  0  0  0
  193.8180  176.5200  146.2930 C   0  0  1  0  0  3  0  0  0  0  0  0
  189.7440  173.7690  139.1870 C   0  0  0  0  0  3  0  0  0  0  0  0
  187.3800  176.0780  142.9460 C   0  0  0  0  0  2  0  0  0  0  0  0
  189.4250  174.6440  142.6030 C   0  0  0  0  0  0  0  0  0  0  0  0
  188.7250  175.6460  143.3640 N   0  0  0  0  0  0  0  0  0  0  0  0
  190.4000  175.3610  145.2850 C   0  0  2  0  0  3  0  0  0  0  0  0
  194.9410  175.5120  146.1960 C   0  0  0  0  0  3  0  0  0  0  0  0
  191.4490  171.2220  139.2220 C   0  0  0  0  0  3  0  0  0  0  0  0
  189.6400  173.2040  140.5640 C   0  0  0  0  0  0  0  0  0  0  0  0
  194.7840  174.2860  145.6620 C   0  0  0  0  0  3  0  0  0  0  0  0
  191.7400  171.8860  140.5080 C   0  0  0  0  0  3  0  0  0  0  0  0
  190.7420  171.7050  138.1860 C   0  0  0  0  0  0  0  0  0  0  0  0
  188.7450  177.1940  145.2040 C   0  0  0  0  0  3  0  0  0  0  0  0
  189.2890  176.1290  144.6040 C   0  0  0  0  0  0  0  0  0  0  0  0
  191.3590  176.2400  146.0280 C   0  0  0  0  0  3  0  0  0  0  0  0
  191.4420  173.3390  142.3580 N   0  0  0  0  0  0  0  0  0  0  0  0
  193.7060  172.7130  144.1120 C   0  0  0  0  0  1  0  0  0  0  0  0
  194.2200  177.7290  145.7570 F   0  0  0  0  0  0  0  0  0  0  0  0
  191.2460  174.6440  144.3280 N   0  0  0  0  0  0  0  0  0  0  0  0
  192.5910  176.0290  145.5860 C   0  0  0  0  0  0  0  0  0  0  0  0
  191.5350  170.8630  135.8880 C   0  0  0  0  0  0  0  0  0  0  0  0
  190.6090  170.9340  136.9820 N   0  0  0  0  0  2  0  0  0  0  0  0
  192.6350  171.4740  135.9190 O   0  0  0  0  0  0  0  0  0  0  0  0
  191.1910  170.0410  134.6980 C   0  0  0  0  0  1  0  0  0  0  0  0
  1 20  2  0  0  0  0
  1 10  1  0  0  0  0
  2 27  1  0  0  0  0
  3  4  2  0  0  0  0
  4 21  1  0  0  0  0
  5  6  1  0  0  0  0
  5 28  1  1  0  0  0
  6 25  1  6  0  0  0
  6 18  1  0  0  0  0
  7 19  1  1  0  0  0
  7 24  1  0  0  0  0
  8 12  2  0  0  0  0
  9 26  1  6  0  0  0
 10 17  2  0  0  0  0
 11 13  1  0  0  0  0
 11  3  1  0  0  0  0
 12  2  1  0  0  0  0
 12 13  1  0  0  0  0
 13 22  1  0  0  0  0
 14 23  1  6  0  0  0
 15  9  1  0  0  0  0
 16 19  2  0  0  0  0
 17  7  1  0  0  0  0
 17  8  1  0  0  0  0
 18 15  2  0  0  0  0
 20 16  1  0  0  0  0
 22 21  2  0  0  0  0
 22 14  1  0  0  0  0
 24  2  2  0  0  0  0
 27  5  1  0  0  0  0
 27 14  1  0  0  0  0
 28 23  2  0  0  0  0
 28  9  1  0  0  0  0
 29 31  2  0  0  0  0
 29 30  1  0  0  0  0
 30 20  1  0  0  0  0
 32 29  1  0  0  0  0
M  END
>  <MODEL>
8

>  <REMARK>
 VINA RESULT:      -7.5      2.201      5.110
  Name = 
  1 active torsions:
  status: ('A' for Active; 'I' for Inactive)
    1  A    between atoms: N_10  and  C_24
                            x       y       z     vdW  Elec       q    Type
                         _______ _______ _______ _____ _____    ______ ____

>  <TORSDO>
F 1

$$$$
=
 OpenBabel11052421263D

 32 37  0  0  1  0  0  0  0  0999 V2000
  188.1780  177.5350  144.2690 C   0  0  0  0  0  3  0  0  0  0  0  0
  190.1240  173.3670  142.1240 C   0  0  0  0  0  0  0  0  0  0  0  0
  194.2770  173.0320  144.8330 C   0  0  0  0  0  3  0  0  0  0  0  0
  194.8080  172.3080  143.8480 C   0  0  0  0  0  3  0  0  0  0  0  0
  190.6880  172.6650  139.7490 C   0  0  1  0  0  3  0  0  0  0  0  0
  189.5030  171.9610  139.0620 C   0  0  2  0  0  3  0  0  0  0  0  0
  188.3630  174.8830  142.7280 C   0  0  2  0  0  3  0  0  0  0  0  0
  190.2870  174.4910  144.2820 C   0  0  0  0  0  3  0  0  0  0  0  0
  192.2080  171.7280  137.8400 C   0  0  1  0  0  3  0  0  0  0  0  0
  189.1760  176.6530  144.2600 C   0  0  0  0  0  3  0  0  0  0  0  0
  192.7940  173.2590  144.9220 C   0  0  0  0  0  2  0  0  0  0  0  0
  190.8250  173.6420  143.3960 C   0  0  0  0  0  0  0  0  0  0  0  0
  192.1180  173.0540  143.6300 N   0  0  0  0  0  0  0  0  0  0  0  0
  191.8190  171.5650  141.5630 C   0  0  2  0  0  3  0  0  0  0  0  0
  190.9400  171.7910  137.0190 C   0  0  0  0  0  3  0  0  0  0  0  0
  186.3350  176.2920  143.1650 C   0  0  0  0  0  3  0  0  0  0  0  0
  188.9720  175.1870  144.0730 C   0  0  0  0  0  0  0  0  0  0  0  0
  189.7150  171.9080  137.5670 C   0  0  0  0  0  3  0  0  0  0  0  0
  187.1590  175.3460  142.3880 C   0  0  0  0  0  3  0  0  0  0  0  0
  186.7530  177.2330  144.0300 C   0  0  0  0  0  0  0  0  0  0  0  0
  193.9660  171.7790  142.7680 C   0  0  0  0  0  3  0  0  0  0  0  0
  192.6900  172.1630  142.6460 C   0  0  0  0  0  0  0  0  0  0  0  0
  192.5480  171.3370  140.2740 C   0  0  0  0  0  3  0  0  0  0  0  0
  189.0060  173.9620  141.8400 N   0  0  0  0  0  0  0  0  0  0  0  0
  188.1920  172.6660  139.3400 C   0  0  0  0  0  1  0  0  0  0  0  0
  193.1180  172.6590  137.3760 F   0  0  0  0  0  0  0  0  0  0  0  0
  190.7110  172.4480  141.1920 N   0  0  0  0  0  0  0  0  0  0  0  0
  191.9230  171.9700  139.2910 C   0  0  0  0  0  0  0  0  0  0  0  0
  185.0370  177.8540  145.8430 C   0  0  0  0  0  0  0  0  0  0  0  0
  185.8030  178.1080  144.6570 N   0  0  0  0  0  2  0  0  0  0  0  0
  185.1820  176.7910  146.5020 O   0  0  0  0  0  0  0  0  0  0  0  0
  184.0610  178.8730  146.3100 C   0  0  0  0  0  1  0  0  0  0  0  0
  2 12  1  0  0  0  0
  3 11  1  0  0  0  0
  4  3  2  0  0  0  0
  5 28  1  6  0  0  0
  5 27  1  0  0  0  0
  6 25  1  6  0  0  0
  6  5  1  0  0  0  0
  7 19  1  1  0  0  0
  7 17  1  0  0  0  0
  9 26  1  6  0  0  0
  9 28  1  0  0  0  0
 10  1  1  0  0  0  0
 12 13  1  0  0  0  0
 12  8  2  0  0  0  0
 13 11  1  0  0  0  0
 14 23  1  6  0  0  0
 14 22  1  0  0  0  0
 15 18  2  0  0  0  0
 15  9  1  0  0  0  0
 16 20  1  0  0  0  0
 17 10  2  0  0  0  0
 17  8  1  0  0  0  0
 18  6  1  0  0  0  0
 19 16  2  0  0  0  0
 20  1  2  0  0  0  0
 20 30  1  0  0  0  0
 21  4  1  0  0  0  0
 22 21  2  0  0  0  0
 22 13  1  0  0  0  0
 24  2  2  0  0  0  0
 24  7  1  0  0  0  0
 27 14  1  0  0  0  0
 27  2  1  0  0  0  0
 28 23  2  0  0  0  0
 29 32  1  0  0  0  0
 29 31  2  0  0  0  0
 30 29  1  0  0  0  0
M  END
>  <MODEL>
9

>  <REMARK>
 VINA RESULT:      -7.3      3.760      7.837
  Name = 
  1 active torsions:
  status: ('A' for Active; 'I' for Inactive)
    1  A    between atoms: N_10  and  C_24
                            x       y       z     vdW  Elec       q    Type
                         _______ _______ _______ _____ _____    ______ ____

>  <TORSDO>
F 1

$$$$
