=
 OpenBabel11052417283D

 25 28  0  0  1  0  0  0  0  0999 V2000
  187.4840  177.8780  141.7290 C   0  0  2  0  0  3  0  0  0  0  0  0
  186.4190  178.2270  142.7260 C   0  0  0  0  0  0  0  0  0  0  0  0
  184.0320  177.8380  140.1960 O   0  0  0  0  0  0  0  0  0  0  0  0
  185.1100  177.8820  140.8460 C   0  0  0  0  0  0  0  0  0  0  0  0
  184.0570  178.5930  143.1210 C   0  0  0  0  0  0  0  0  0  0  0  0
  182.8800  178.6340  142.6770 O   0  0  0  0  0  0  0  0  0  0  0  0
  186.7400  178.6500  144.1360 C   0  0  0  0  0  2  0  0  0  0  0  0
  186.6890  177.5060  140.1140 S   0  0  0  0  0  0  0  0  0  0  0  0
  184.3120  178.8770  144.4990 N   0  0  0  0  0  0  0  0  0  0  0  0
  185.5160  178.8680  145.0020 C   0  0  0  0  0  0  0  0  0  0  0  0
  185.1850  178.2410  142.2490 C   0  0  0  0  0  0  0  0  0  0  0  0
  188.3650  176.7500  142.1920 C   0  0  0  0  0  0  0  0  0  0  0  0
  189.9050  174.5540  143.0160 C   0  0  0  0  0  3  0  0  0  0  0  0
  189.6470  176.9510  142.7510 C   0  0  0  0  0  0  0  0  0  0  0  0
  190.4060  175.8500  143.1610 C   0  0  0  0  0  3  0  0  0  0  0  0
  188.6410  174.3520  142.4600 C   0  0  0  0  0  3  0  0  0  0  0  0
  190.1930  178.2580  142.9020 N   0  0  0  0  0  1  0  0  0  0  0  0
  187.8740  175.4470  142.0510 C   0  0  0  0  0  3  0  0  0  0  0  0
  185.7230  179.2120  146.4550 C   0  0  2  0  0  3  0  0  0  0  0  0
  186.4540  178.1800  147.2480 N   0  0  0  0  0  0  0  0  0  0  0  0
  184.9950  178.3170  147.3550 C   0  0  0  0  0  2  0  0  0  0  0  0
  186.6750  177.0040  146.5100 N   0  0  0  0  0  2  0  0  0  0  0  0
  188.1360  175.3800  145.7210 O   0  0  0  0  0  0  0  0  0  0  0  0
  189.1840  177.1860  146.8510 C   0  0  0  0  0  1  0  0  0  0  0  0
  187.9870  176.4700  146.3300 C   0  0  0  0  0  0  0  0  0  0  0  0
  1 12  1  1  0  0  0
  1  2  1  0  0  0  0
  2  7  1  0  0  0  0
  3  4  2  0  0  0  0
  4 11  1  0  0  0  0
  5  9  1  0  0  0  0
  6  5  2  0  0  0  0
  7 10  1  0  0  0  0
  8  4  1  0  0  0  0
  8  1  1  0  0  0  0
  9 10  2  0  0  0  0
 11  2  2  0  0  0  0
 11  5  1  0  0  0  0
 12 14  1  0  0  0  0
 13 15  1  0  0  0  0
 14 17  1  0  0  0  0
 14 15  2  0  0  0  0
 16 13  2  0  0  0  0
 18 12  2  0  0  0  0
 18 16  1  0  0  0  0
 19 10  1  6  0  0  0
 19 20  1  0  0  0  0
 19 21  1  0  0  0  0
 20 21  1  0  0  0  0
 22 20  1  0  0  0  0
 23 25  2  0  0  0  0
 25 22  1  0  0  0  0
 25 24  1  0  0  0  0
M  END
>  <MODEL>
1

>  <REMARK>
 VINA RESULT:      -7.4      0.000      0.000
  Name = 
  3 active torsions:
  status: ('A' for Active; 'I' for Inactive)
    1  A    between atoms: C_1  and  C_5
    2  A    between atoms: N_2  and  N_15
    3  A    between atoms: C_6  and  C_23
                            x       y       z     vdW  Elec       q    Type
                         _______ _______ _______ _____ _____    ______ ____

>  <TORSDO>
F 3

$$$$
=
 OpenBabel11052417283D

 25 28  0  0  1  0  0  0  0  0999 V2000
  188.8350  175.7770  143.2980 C   0  0  2  0  0  3  0  0  0  0  0  0
  188.4260  176.3440  144.6250 C   0  0  0  0  0  0  0  0  0  0  0  0
  191.7900  177.0620  145.2690 O   0  0  0  0  0  0  0  0  0  0  0  0
  190.7140  176.6900  144.7310 C   0  0  0  0  0  0  0  0  0  0  0  0
  189.1480  177.3590  146.7030 C   0  0  0  0  0  0  0  0  0  0  0  0
  190.0820  177.7770  147.4340 O   0  0  0  0  0  0  0  0  0  0  0  0
  187.0060  176.2840  145.1240 C   0  0  0  0  0  2  0  0  0  0  0  0
  190.6530  175.9700  143.1030 S   0  0  0  0  0  0  0  0  0  0  0  0
  187.7940  177.4340  147.1580 N   0  0  0  0  0  0  0  0  0  0  0  0
  186.7930  176.9940  146.4450 C   0  0  0  0  0  0  0  0  0  0  0  0
  189.4180  176.8020  145.3710 C   0  0  0  0  0  0  0  0  0  0  0  0
  188.0820  176.3890  142.1490 C   0  0  0  0  0  0  0  0  0  0  0  0
  186.6560  177.6470  140.0850 C   0  0  0  0  0  3  0  0  0  0  0  0
  187.8840  175.7280  140.9160 C   0  0  0  0  0  0  0  0  0  0  0  0
  187.1700  176.3620  139.8940 C   0  0  0  0  0  3  0  0  0  0  0  0
  186.8530  178.3050  141.3010 C   0  0  0  0  0  3  0  0  0  0  0  0
  188.4060  174.4230  140.6820 N   0  0  0  0  0  1  0  0  0  0  0  0
  187.5630  177.6760  142.3280 C   0  0  0  0  0  3  0  0  0  0  0  0
  185.3920  177.0690  146.9980 C   0  0  2  0  0  3  0  0  0  0  0  0
  184.6040  178.2570  146.5560 N   0  0  0  0  0  0  0  0  0  0  0  0
  185.2010  178.2070  147.8970 C   0  0  0  0  0  2  0  0  0  0  0  0
  185.3860  179.1680  145.8230 N   0  0  0  0  0  2  0  0  0  0  0  0
  185.7620  180.3650  143.8690 O   0  0  0  0  0  0  0  0  0  0  0  0
  183.9620  178.8210  143.7510 C   0  0  0  0  0  1  0  0  0  0  0  0
  185.0780  179.4960  144.4680 C   0  0  0  0  0  0  0  0  0  0  0  0
  1 12  1  6  0  0  0
  1  2  1  0  0  0  0
  2  7  1  0  0  0  0
  2 11  2  0  0  0  0
  4  3  2  0  0  0  0
  4 11  1  0  0  0  0
  5  9  1  0  0  0  0
  5  6  2  0  0  0  0
  7 10  1  0  0  0  0
  8  1  1  0  0  0  0
  8  4  1  0  0  0  0
 10  9  2  0  0  0  0
 11  5  1  0  0  0  0
 12 18  1  0  0  0  0
 13 16  1  0  0  0  0
 14 12  2  0  0  0  0
 15 13  2  0  0  0  0
 15 14  1  0  0  0  0
 16 18  2  0  0  0  0
 17 14  1  0  0  0  0
 19 10  1  6  0  0  0
 19 21  1  0  0  0  0
 20 19  1  0  0  0  0
 20 21  1  0  0  0  0
 22 20  1  0  0  0  0
 23 25  2  0  0  0  0
 24 25  1  0  0  0  0
 25 22  1  0  0  0  0
M  END
>  <MODEL>
2

>  <REMARK>
 VINA RESULT:      -7.2      2.331      4.812
  Name = 
  3 active torsions:
  status: ('A' for Active; 'I' for Inactive)
    1  A    between atoms: C_1  and  C_5
    2  A    between atoms: N_2  and  N_15
    3  A    between atoms: C_6  and  C_23
                            x       y       z     vdW  Elec       q    Type
                         _______ _______ _______ _____ _____    ______ ____

>  <TORSDO>
F 3

$$$$
=
 OpenBabel11052417283D

 25 28  0  0  1  0  0  0  0  0999 V2000
  191.3950  174.3560  143.9440 C   0  0  2  0  0  3  0  0  0  0  0  0
  190.2320  174.7310  143.0740 C   0  0  0  0  0  0  0  0  0  0  0  0
  189.6950  171.3280  142.4580 O   0  0  0  0  0  0  0  0  0  0  0  0
  190.1460  172.4240  142.8840 C   0  0  0  0  0  0  0  0  0  0  0  0
  188.4590  173.9530  141.6190 C   0  0  0  0  0  0  0  0  0  0  0  0
  187.8600  172.9980  141.0580 O   0  0  0  0  0  0  0  0  0  0  0  0
  189.8860  176.1640  142.7620 C   0  0  0  0  0  2  0  0  0  0  0  0
  191.5280  172.5230  144.0030 S   0  0  0  0  0  0  0  0  0  0  0  0
  188.0230  175.2980  141.4000 N   0  0  0  0  0  0  0  0  0  0  0  0
  188.6230  176.3220  141.9410 C   0  0  0  0  0  0  0  0  0  0  0  0
  189.5990  173.7140  142.5130 C   0  0  0  0  0  0  0  0  0  0  0  0
  191.3050  174.9540  145.3220 C   0  0  0  0  0  0  0  0  0  0  0  0
  191.0150  175.9960  147.9110 C   0  0  0  0  0  3  0  0  0  0  0  0
  192.2670  175.8490  145.8400 C   0  0  0  0  0  0  0  0  0  0  0  0
  192.1130  176.3650  147.1300 C   0  0  0  0  0  3  0  0  0  0  0  0
  190.0640  175.1100  147.4040 C   0  0  0  0  0  3  0  0  0  0  0  0
  193.4060  176.2360  145.0750 N   0  0  0  0  0  1  0  0  0  0  0  0
  190.2090  174.5910  146.1140 C   0  0  0  0  0  3  0  0  0  0  0  0
  188.1370  177.7180  141.6420 C   0  0  2  0  0  3  0  0  0  0  0  0
  187.1470  178.2620  142.6190 N   0  0  0  0  0  0  0  0  0  0  0  0
  186.7130  177.7590  141.3080 C   0  0  0  0  0  2  0  0  0  0  0  0
  186.7400  177.2930  143.5540 N   0  0  0  0  0  2  0  0  0  0  0  0
  185.6080  176.7490  145.5070 O   0  0  0  0  0  0  0  0  0  0  0  0
  185.7300  179.0760  145.0530 C   0  0  0  0  0  1  0  0  0  0  0  0
  186.0130  177.6510  144.7300 C   0  0  0  0  0  0  0  0  0  0  0  0
  1  8  1  0  0  0  0
  1 12  1  1  0  0  0
  2  1  1  0  0  0  0
  3  4  2  0  0  0  0
  4  8  1  0  0  0  0
  5 11  1  0  0  0  0
  6  5  2  0  0  0  0
  7  2  1  0  0  0  0
  9  5  1  0  0  0  0
  9 10  2  0  0  0  0
 10  7  1  0  0  0  0
 11  4  1  0  0  0  0
 11  2  2  0  0  0  0
 12 14  2  0  0  0  0
 12 18  1  0  0  0  0
 14 15  1  0  0  0  0
 15 13  2  0  0  0  0
 16 13  1  0  0  0  0
 17 14  1  0  0  0  0
 18 16  2  0  0  0  0
 19 10  1  1  0  0  0
 19 20  1  0  0  0  0
 20 22  1  0  0  0  0
 21 19  1  0  0  0  0
 21 20  1  0  0  0  0
 22 25  1  0  0  0  0
 25 24  1  0  0  0  0
 25 23  2  0  0  0  0
M  END
>  <MODEL>
3

>  <REMARK>
 VINA RESULT:      -7.1      3.107      5.567
  Name = 
  3 active torsions:
  status: ('A' for Active; 'I' for Inactive)
    1  A    between atoms: C_1  and  C_5
    2  A    between atoms: N_2  and  N_15
    3  A    between atoms: C_6  and  C_23
                            x       y       z     vdW  Elec       q    Type
                         _______ _______ _______ _____ _____    ______ ____

>  <TORSDO>
F 3

$$$$
=
 OpenBabel11052417283D

 25 28  0  0  1  0  0  0  0  0999 V2000
  184.8160  177.2140  143.7350 C   0  0  2  0  0  3  0  0  0  0  0  0
  185.9550  176.7820  142.8600 C   0  0  0  0  0  0  0  0  0  0  0  0
  184.7530  178.9270  140.3690 O   0  0  0  0  0  0  0  0  0  0  0  0
  184.9120  178.2900  141.4430 C   0  0  0  0  0  0  0  0  0  0  0  0
  187.0370  176.9780  140.7010 C   0  0  0  0  0  0  0  0  0  0  0  0
  187.0660  177.4800  139.5480 O   0  0  0  0  0  0  0  0  0  0  0  0
  186.9230  175.7030  143.2700 C   0  0  0  0  0  2  0  0  0  0  0  0
  183.8250  178.4790  142.8410 S   0  0  0  0  0  0  0  0  0  0  0  0
  188.0480  176.0500  141.1030 N   0  0  0  0  0  0  0  0  0  0  0  0
  188.0500  175.4860  142.2800 C   0  0  0  0  0  0  0  0  0  0  0  0
  185.9850  177.3390  141.6600 C   0  0  0  0  0  0  0  0  0  0  0  0
  185.2730  177.7100  145.0790 C   0  0  0  0  0  0  0  0  0  0  0  0
  186.1120  178.5030  147.6380 C   0  0  0  0  0  3  0  0  0  0  0  0
  185.6210  179.0570  145.3290 C   0  0  0  0  0  0  0  0  0  0  0  0
  186.0350  179.4430  146.6080 C   0  0  0  0  0  3  0  0  0  0  0  0
  185.7720  177.1710  147.3950 C   0  0  0  0  0  3  0  0  0  0  0  0
  185.5670  180.0390  144.2980 N   0  0  0  0  0  1  0  0  0  0  0  0
  185.3550  176.7780  146.1200 C   0  0  0  0  0  3  0  0  0  0  0  0
  189.1240  174.4880  142.6300 C   0  0  2  0  0  3  0  0  0  0  0  0
  189.9840  174.8690  143.7890 N   0  0  0  0  0  0  0  0  0  0  0  0
  190.4730  175.0110  142.4110 C   0  0  0  0  0  2  0  0  0  0  0  0
  189.7190  176.1760  144.2380 N   0  0  0  0  0  2  0  0  0  0  0  0
  189.1210  177.6200  145.9550 O   0  0  0  0  0  0  0  0  0  0  0  0
  189.0110  175.3160  146.5190 C   0  0  0  0  0  1  0  0  0  0  0  0
  189.2820  176.4320  145.5730 C   0  0  0  0  0  0  0  0  0  0  0  0
  1 12  1  1  0  0  0
  2  7  1  0  0  0  0
  2  1  1  0  0  0  0
  3  4  2  0  0  0  0
  4 11  1  0  0  0  0
  4  8  1  0  0  0  0
  5  9  1  0  0  0  0
  5 11  1  0  0  0  0
  6  5  2  0  0  0  0
  8  1  1  0  0  0  0
  9 10  2  0  0  0  0
 10  7  1  0  0  0  0
 11  2  2  0  0  0  0
 12 14  2  0  0  0  0
 12 18  1  0  0  0  0
 14 15  1  0  0  0  0
 15 13  2  0  0  0  0
 16 13  1  0  0  0  0
 17 14  1  0  0  0  0
 18 16  2  0  0  0  0
 19 10  1  6  0  0  0
 19 20  1  0  0  0  0
 20 22  1  0  0  0  0
 21 19  1  0  0  0  0
 21 20  1  0  0  0  0
 22 25  1  0  0  0  0
 25 23  2  0  0  0  0
 25 24  1  0  0  0  0
M  END
>  <MODEL>
4

>  <REMARK>
 VINA RESULT:      -6.8      1.966      4.725
  Name = 
  3 active torsions:
  status: ('A' for Active; 'I' for Inactive)
    1  A    between atoms: C_1  and  C_5
    2  A    between atoms: N_2  and  N_15
    3  A    between atoms: C_6  and  C_23
                            x       y       z     vdW  Elec       q    Type
                         _______ _______ _______ _____ _____    ______ ____

>  <TORSDO>
F 3

$$$$
=
 OpenBabel11052417283D

 25 28  0  0  1  0  0  0  0  0999 V2000
  190.8260  175.9480  143.5590 C   0  0  2  0  0  3  0  0  0  0  0  0
  189.5350  176.4110  142.9510 C   0  0  0  0  0  0  0  0  0  0  0  0
  189.7130  173.7230  140.7170 O   0  0  0  0  0  0  0  0  0  0  0  0
  189.9470  174.5440  141.6430 C   0  0  0  0  0  0  0  0  0  0  0  0
  187.8540  176.0440  141.2460 C   0  0  0  0  0  0  0  0  0  0  0  0
  187.4340  175.3720  140.2690 O   0  0  0  0  0  0  0  0  0  0  0  0
  188.8530  177.6840  143.3780 C   0  0  0  0  0  2  0  0  0  0  0  0
  191.3680  174.4110  142.7080 S   0  0  0  0  0  0  0  0  0  0  0  0
  187.1120  177.1770  141.7080 N   0  0  0  0  0  0  0  0  0  0  0  0
  187.5170  177.9170  142.7030 C   0  0  0  0  0  0  0  0  0  0  0  0
  189.0950  175.6790  141.9410 C   0  0  0  0  0  0  0  0  0  0  0  0
  190.7310  175.7580  145.0480 C   0  0  0  0  0  0  0  0  0  0  0  0
  190.4260  175.3430  147.8070 C   0  0  0  0  0  3  0  0  0  0  0  0
  191.7400  176.1730  145.9460 C   0  0  0  0  0  0  0  0  0  0  0  0
  191.5780  175.9640  147.3190 C   0  0  0  0  0  3  0  0  0  0  0  0
  189.4290  174.9280  146.9230 C   0  0  0  0  0  3  0  0  0  0  0  0
  192.9340  176.7980  145.4810 N   0  0  0  0  0  1  0  0  0  0  0  0
  189.5820  175.1360  145.5490 C   0  0  0  0  0  3  0  0  0  0  0  0
  186.7070  179.1200  143.1180 C   0  0  2  0  0  3  0  0  0  0  0  0
  186.1130  179.0370  144.4850 N   0  0  0  0  0  0  0  0  0  0  0  0
  185.2880  178.8110  143.2910 C   0  0  0  0  0  2  0  0  0  0  0  0
  186.2990  177.7700  145.0670 N   0  0  0  0  0  2  0  0  0  0  0  0
  186.2950  176.4130  146.9510 O   0  0  0  0  0  0  0  0  0  0  0  0
  185.9540  178.7200  147.3960 C   0  0  0  0  0  1  0  0  0  0  0  0
  186.1890  177.5730  146.4770 C   0  0  0  0  0  0  0  0  0  0  0  0
  1 12  1  1  0  0  0
  2  7  1  0  0  0  0
  2  1  1  0  0  0  0
  3  4  2  0  0  0  0
  4 11  1  0  0  0  0
  4  8  1  0  0  0  0
  5  9  1  0  0  0  0
  5 11  1  0  0  0  0
  6  5  2  0  0  0  0
  8  1  1  0  0  0  0
  9 10  2  0  0  0  0
 10  7  1  0  0  0  0
 11  2  2  0  0  0  0
 12 18  2  0  0  0  0
 12 14  1  0  0  0  0
 14 15  2  0  0  0  0
 15 13  1  0  0  0  0
 16 13  2  0  0  0  0
 17 14  1  0  0  0  0
 18 16  1  0  0  0  0
 19 10  1  1  0  0  0
 19 21  1  0  0  0  0
 19 20  1  0  0  0  0
 20 22  1  0  0  0  0
 21 20  1  0  0  0  0
 22 25  1  0  0  0  0
 25 23  2  0  0  0  0
 25 24  1  0  0  0  0
M  END
>  <MODEL>
5

>  <REMARK>
 VINA RESULT:      -6.7      2.650      4.294
  Name = 
  3 active torsions:
  status: ('A' for Active; 'I' for Inactive)
    1  A    between atoms: C_1  and  C_5
    2  A    between atoms: N_2  and  N_15
    3  A    between atoms: C_6  and  C_23
                            x       y       z     vdW  Elec       q    Type
                         _______ _______ _______ _____ _____    ______ ____

>  <TORSDO>
F 3

$$$$
=
 OpenBabel11052417283D

 25 28  0  0  1  0  0  0  0  0999 V2000
  185.9410  176.7090  143.7000 C   0  0  2  0  0  3  0  0  0  0  0  0
  186.7040  176.1440  142.5390 C   0  0  0  0  0  0  0  0  0  0  0  0
  185.3520  178.6660  140.5240 O   0  0  0  0  0  0  0  0  0  0  0  0
  185.6520  177.9270  141.4970 C   0  0  0  0  0  0  0  0  0  0  0  0
  187.2060  176.3070  140.1740 C   0  0  0  0  0  0  0  0  0  0  0  0
  187.0340  176.8850  139.0700 O   0  0  0  0  0  0  0  0  0  0  0  0
  187.5100  174.8750  142.6420 C   0  0  0  0  0  2  0  0  0  0  0  0
  185.0260  178.2020  143.1420 S   0  0  0  0  0  0  0  0  0  0  0  0
  188.0800  175.1780  140.2630 N   0  0  0  0  0  0  0  0  0  0  0  0
  188.2740  174.5330  141.3800 C   0  0  0  0  0  0  0  0  0  0  0  0
  186.5320  176.7790  141.3910 C   0  0  0  0  0  0  0  0  0  0  0  0
  186.8210  177.0030  144.8840 C   0  0  0  0  0  0  0  0  0  0  0  0
  188.5730  177.5660  147.0030 C   0  0  0  0  0  3  0  0  0  0  0  0
  186.3430  177.0320  146.2130 C   0  0  0  0  0  0  0  0  0  0  0  0
  187.2240  177.3110  147.2630 C   0  0  0  0  0  3  0  0  0  0  0  0
  189.0480  177.5410  145.6900 C   0  0  0  0  0  3  0  0  0  0  0  0
  184.9710  176.7910  146.5130 N   0  0  0  0  0  1  0  0  0  0  0  0
  188.1740  177.2600  144.6360 C   0  0  0  0  0  3  0  0  0  0  0  0
  189.1800  173.3270  141.4000 C   0  0  2  0  0  3  0  0  0  0  0  0
  190.5790  173.6000  141.8440 N   0  0  0  0  0  0  0  0  0  0  0  0
  190.2630  173.4210  140.4210 C   0  0  0  0  0  2  0  0  0  0  0  0
  190.8230  174.9750  142.0130 N   0  0  0  0  0  2  0  0  0  0  0  0
  191.5160  176.7340  143.3600 O   0  0  0  0  0  0  0  0  0  0  0  0
  191.3610  174.6420  144.4710 C   0  0  0  0  0  1  0  0  0  0  0  0
  191.2430  175.5100  143.2680 C   0  0  0  0  0  0  0  0  0  0  0  0
  1 12  1  1  0  0  0
  2  7  1  0  0  0  0
  2  1  1  0  0  0  0
  3  4  2  0  0  0  0
  4  8  1  0  0  0  0
  5  9  1  0  0  0  0
  5 11  1  0  0  0  0
  6  5  2  0  0  0  0
  8  1  1  0  0  0  0
  9 10  2  0  0  0  0
 10  7  1  0  0  0  0
 11  4  1  0  0  0  0
 11  2  2  0  0  0  0
 12 14  1  0  0  0  0
 13 15  1  0  0  0  0
 14 17  1  0  0  0  0
 14 15  2  0  0  0  0
 16 13  2  0  0  0  0
 18 12  2  0  0  0  0
 18 16  1  0  0  0  0
 19 10  1  6  0  0  0
 19 20  1  0  0  0  0
 20 22  1  0  0  0  0
 21 19  1  0  0  0  0
 21 20  1  0  0  0  0
 22 25  1  0  0  0  0
 25 23  2  0  0  0  0
 25 24  1  0  0  0  0
M  END
>  <MODEL>
6

>  <REMARK>
 VINA RESULT:      -6.6      2.435      5.257
  Name = 
  3 active torsions:
  status: ('A' for Active; 'I' for Inactive)
    1  A    between atoms: C_1  and  C_5
    2  A    between atoms: N_2  and  N_15
    3  A    between atoms: C_6  and  C_23
                            x       y       z     vdW  Elec       q    Type
                         _______ _______ _______ _____ _____    ______ ____

>  <TORSDO>
F 3

$$$$
=
 OpenBabel11052417283D

 25 28  0  0  1  0  0  0  0  0999 V2000
  188.3470  176.0320  145.1110 C   0  0  2  0  0  3  0  0  0  0  0  0
  188.3990  175.6660  143.6580 C   0  0  0  0  0  0  0  0  0  0  0  0
  186.7360  178.6560  142.9230 O   0  0  0  0  0  0  0  0  0  0  0  0
  187.3120  177.7060  143.5160 C   0  0  0  0  0  0  0  0  0  0  0  0
  187.8070  176.2820  141.3910 C   0  0  0  0  0  0  0  0  0  0  0  0
  187.2590  177.0920  140.5990 O   0  0  0  0  0  0  0  0  0  0  0  0
  188.9380  174.3430  143.1780 C   0  0  0  0  0  2  0  0  0  0  0  0
  187.5450  177.6780  145.2810 S   0  0  0  0  0  0  0  0  0  0  0  0
  188.4230  175.0940  140.8870 N   0  0  0  0  0  0  0  0  0  0  0  0
  188.9850  174.2140  141.6700 C   0  0  0  0  0  0  0  0  0  0  0  0
  187.8420  176.5400  142.8370 C   0  0  0  0  0  0  0  0  0  0  0  0
  189.6990  175.9980  145.7680 C   0  0  0  0  0  0  0  0  0  0  0  0
  192.2720  176.0210  146.8880 C   0  0  0  0  0  3  0  0  0  0  0  0
  189.9640  175.2800  146.9550 C   0  0  0  0  0  0  0  0  0  0  0  0
  191.2500  175.2950  147.5050 C   0  0  0  0  0  3  0  0  0  0  0  0
  192.0140  176.7340  145.7170 C   0  0  0  0  0  3  0  0  0  0  0  0
  188.9410  174.5410  147.6170 N   0  0  0  0  0  1  0  0  0  0  0  0
  190.7320  176.7220  145.1600 C   0  0  0  0  0  3  0  0  0  0  0  0
  189.5860  172.9630  141.0790 C   0  0  2  0  0  3  0  0  0  0  0  0
  191.0670  173.0010  140.8970 N   0  0  0  0  0  0  0  0  0  0  0  0
  190.1630  173.1870  139.7540 C   0  0  0  0  0  2  0  0  0  0  0  0
  191.6010  174.2730  141.1730 N   0  0  0  0  0  2  0  0  0  0  0  0
  192.9620  175.6330  142.4730 O   0  0  0  0  0  0  0  0  0  0  0  0
  192.7370  173.4090  143.2730 C   0  0  0  0  0  1  0  0  0  0  0  0
  192.4500  174.4970  142.2990 C   0  0  0  0  0  0  0  0  0  0  0  0
  1  8  1  0  0  0  0
  1 12  1  6  0  0  0
  2  1  1  0  0  0  0
  3  4  2  0  0  0  0
  4  8  1  0  0  0  0
  5 11  1  0  0  0  0
  6  5  2  0  0  0  0
  7  2  1  0  0  0  0
  9  5  1  0  0  0  0
  9 10  2  0  0  0  0
 10  7  1  0  0  0  0
 11  4  1  0  0  0  0
 11  2  2  0  0  0  0
 12 14  1  0  0  0  0
 13 15  1  0  0  0  0
 14 15  2  0  0  0  0
 14 17  1  0  0  0  0
 16 13  2  0  0  0  0
 18 16  1  0  0  0  0
 18 12  2  0  0  0  0
 19 10  1  1  0  0  0
 20 19  1  0  0  0  0
 20 22  1  0  0  0  0
 21 20  1  0  0  0  0
 21 19  1  0  0  0  0
 22 25  1  0  0  0  0
 25 23  2  0  0  0  0
 25 24  1  0  0  0  0
M  END
>  <MODEL>
7

>  <REMARK>
 VINA RESULT:      -6.6      3.214      5.909
  Name = 
  3 active torsions:
  status: ('A' for Active; 'I' for Inactive)
    1  A    between atoms: C_1  and  C_5
    2  A    between atoms: N_2  and  N_15
    3  A    between atoms: C_6  and  C_23
                            x       y       z     vdW  Elec       q    Type
                         _______ _______ _______ _____ _____    ______ ____

>  <TORSDO>
F 3

$$$$
=
 OpenBabel11052417283D

 25 28  0  0  1  0  0  0  0  0999 V2000
  187.0370  176.2420  146.7820 C   0  0  2  0  0  3  0  0  0  0  0  0
  186.5530  176.7370  145.4520 C   0  0  0  0  0  0  0  0  0  0  0  0
  184.2800  178.7990  147.1320 O   0  0  0  0  0  0  0  0  0  0  0  0
  185.1900  177.9740  146.8580 C   0  0  0  0  0  0  0  0  0  0  0  0
  185.0020  178.1710  144.2670 C   0  0  0  0  0  0  0  0  0  0  0  0
  184.0580  179.0030  144.2990 O   0  0  0  0  0  0  0  0  0  0  0  0
  187.0550  176.1700  144.1490 C   0  0  0  0  0  2  0  0  0  0  0  0
  186.1210  177.1200  148.1130 S   0  0  0  0  0  0  0  0  0  0  0  0
  185.5420  177.7500  143.0110 N   0  0  0  0  0  0  0  0  0  0  0  0
  186.5060  176.8740  142.9250 C   0  0  0  0  0  0  0  0  0  0  0  0
  185.5780  177.6290  145.5040 C   0  0  0  0  0  0  0  0  0  0  0  0
  188.5260  176.3770  146.9460 C   0  0  0  0  0  0  0  0  0  0  0  0
  191.2870  176.7700  147.2530 C   0  0  0  0  0  3  0  0  0  0  0  0
  189.4010  175.2680  146.9990 C   0  0  0  0  0  0  0  0  0  0  0  0
  190.7760  175.4750  147.1500 C   0  0  0  0  0  3  0  0  0  0  0  0
  190.4260  177.8680  147.2050 C   0  0  0  0  0  3  0  0  0  0  0  0
  188.9110  173.9330  146.9100 N   0  0  0  0  0  1  0  0  0  0  0  0
  189.0510  177.6700  147.0510 C   0  0  0  0  0  3  0  0  0  0  0  0
  187.0070  176.4430  141.5700 C   0  0  2  0  0  3  0  0  0  0  0  0
  188.3670  176.9440  141.2130 N   0  0  0  0  0  0  0  0  0  0  0  0
  187.1630  177.5660  140.6450 C   0  0  0  0  0  2  0  0  0  0  0  0
  188.8590  177.8600  142.1610 N   0  0  0  0  0  2  0  0  0  0  0  0
  190.4790  178.4580  143.7130 O   0  0  0  0  0  0  0  0  0  0  0  0
  190.7380  176.2790  142.8060 C   0  0  0  0  0  1  0  0  0  0  0  0
  190.0330  177.5850  142.9250 C   0  0  0  0  0  0  0  0  0  0  0  0
  1 12  1  1  0  0  0
  1  8  1  0  0  0  0
  2 11  2  0  0  0  0
  2  1  1  0  0  0  0
  4  3  2  0  0  0  0
  4  8  1  0  0  0  0
  5  6  2  0  0  0  0
  5 11  1  0  0  0  0
  7  2  1  0  0  0  0
  9  5  1  0  0  0  0
 10  9  2  0  0  0  0
 10  7  1  0  0  0  0
 11  4  1  0  0  0  0
 12 14  2  0  0  0  0
 12 18  1  0  0  0  0
 14 15  1  0  0  0  0
 15 13  2  0  0  0  0
 16 13  1  0  0  0  0
 17 14  1  0  0  0  0
 18 16  2  0  0  0  0
 19 10  1  1  0  0  0
 20 19  1  0  0  0  0
 20 22  1  0  0  0  0
 21 20  1  0  0  0  0
 21 19  1  0  0  0  0
 22 25  1  0  0  0  0
 24 25  1  0  0  0  0
 25 23  2  0  0  0  0
M  END
>  <MODEL>
8

>  <REMARK>
 VINA RESULT:      -6.5      2.721      4.986
  Name = 
  3 active torsions:
  status: ('A' for Active; 'I' for Inactive)
    1  A    between atoms: C_1  and  C_5
    2  A    between atoms: N_2  and  N_15
    3  A    between atoms: C_6  and  C_23
                            x       y       z     vdW  Elec       q    Type
                         _______ _______ _______ _____ _____    ______ ____

>  <TORSDO>
F 3

$$$$
=
 OpenBabel11052417283D

 25 28  0  0  1  0  0  0  0  0999 V2000
  192.0560  174.8800  142.6030 C   0  0  2  0  0  3  0  0  0  0  0  0
  190.5720  175.0860  142.6660 C   0  0  0  0  0  0  0  0  0  0  0  0
  190.1470  171.8460  141.4140 O   0  0  0  0  0  0  0  0  0  0  0  0
  190.6400  172.9210  141.8440 C   0  0  0  0  0  0  0  0  0  0  0  0
  188.3780  174.1500  142.2410 C   0  0  0  0  0  0  0  0  0  0  0  0
  187.6710  173.1940  141.8290 O   0  0  0  0  0  0  0  0  0  0  0  0
  189.9550  176.4050  143.0550 C   0  0  0  0  0  2  0  0  0  0  0  0
  192.3960  173.1750  142.0050 S   0  0  0  0  0  0  0  0  0  0  0  0
  187.7550  175.3430  142.7250 N   0  0  0  0  0  0  0  0  0  0  0  0
  188.4430  176.3700  143.1430 C   0  0  0  0  0  0  0  0  0  0  0  0
  189.8440  174.0620  142.2520 C   0  0  0  0  0  0  0  0  0  0  0  0
  192.7360  175.1590  143.9150 C   0  0  0  0  0  0  0  0  0  0  0  0
  193.8950  175.6180  146.4290 C   0  0  0  0  0  3  0  0  0  0  0  0
  193.9910  175.8000  144.0130 C   0  0  0  0  0  0  0  0  0  0  0  0
  194.5600  176.0270  145.2710 C   0  0  0  0  0  3  0  0  0  0  0  0
  192.6560  174.9800  146.3360 C   0  0  0  0  0  3  0  0  0  0  0  0
  194.7030  176.2190  142.8510 N   0  0  0  0  0  1  0  0  0  0  0  0
  192.0810  174.7530  145.0830 C   0  0  0  0  0  3  0  0  0  0  0  0
  187.7270  177.6130  143.6060 C   0  0  2  0  0  3  0  0  0  0  0  0
  187.3900  177.6400  145.0600 N   0  0  0  0  0  0  0  0  0  0  0  0
  186.3610  177.3420  144.0550 C   0  0  0  0  0  2  0  0  0  0  0  0
  187.6740  176.4160  145.6920 N   0  0  0  0  0  2  0  0  0  0  0  0
  188.9330  175.1930  147.2120 O   0  0  0  0  0  0  0  0  0  0  0  0
  189.6740  177.4250  146.8860 C   0  0  0  0  0  1  0  0  0  0  0  0
  188.7540  176.2870  146.6170 C   0  0  0  0  0  0  0  0  0  0  0  0
  1  2  1  0  0  0  0
  1 12  1  1  0  0  0
  2  7  1  0  0  0  0
  3  4  2  0  0  0  0
  4  8  1  0  0  0  0
  4 11  1  0  0  0  0
  5 11  1  0  0  0  0
  5  9  1  0  0  0  0
  6  5  2  0  0  0  0
  7 10  1  0  0  0  0
  8  1  1  0  0  0  0
  9 10  2  0  0  0  0
 11  2  2  0  0  0  0
 12 14  2  0  0  0  0
 12 18  1  0  0  0  0
 14 15  1  0  0  0  0
 15 13  2  0  0  0  0
 16 13  1  0  0  0  0
 17 14  1  0  0  0  0
 18 16  2  0  0  0  0
 19 10  1  1  0  0  0
 19 21  1  0  0  0  0
 19 20  1  0  0  0  0
 20 22  1  0  0  0  0
 21 20  1  0  0  0  0
 22 25  1  0  0  0  0
 25 24  1  0  0  0  0
 25 23  2  0  0  0  0
M  END
>  <MODEL>
9

>  <REMARK>
 VINA RESULT:      -6.4      3.240      5.130
  Name = 
  3 active torsions:
  status: ('A' for Active; 'I' for Inactive)
    1  A    between atoms: C_1  and  C_5
    2  A    between atoms: N_2  and  N_15
    3  A    between atoms: C_6  and  C_23
                            x       y       z     vdW  Elec       q    Type
                         _______ _______ _______ _____ _____    ______ ____

>  <TORSDO>
F 3

$$$$
