=
 OpenBabel11052417163D

 30 34  0  0  1  0  0  0  0  0999 V2000
  191.9870  175.9520  145.4280 N   0  0  0  0  0  0  0  0  0  0  0  0
  194.2850  175.6010  146.3360 C   0  0  1  0  0  3  0  0  0  0  0  0
  191.7580  172.0210  143.9830 N   0  0  0  0  0  0  0  0  0  0  0  0
  190.8410  175.5520  144.8150 C   0  0  0  0  0  0  0  0  0  0  0  0
  190.5580  171.5140  143.3980 C   0  0  0  0  0  3  0  0  0  0  0  0
  195.5540  174.8930  145.8470 C   0  0  0  0  0  2  0  0  0  0  0  0
  194.4870  177.1030  146.2270 C   0  0  0  0  0  1  0  0  0  0  0  0
  191.8460  173.3690  144.4570 C   0  0  0  0  0  0  0  0  0  0  0  0
  195.3450  173.4140  145.6890 C   0  0  0  0  0  3  0  0  0  0  0  0
  193.0710  175.1420  145.5600 C   0  0  0  0  0  0  0  0  0  0  0  0
  190.7470  174.2360  144.3040 C   0  0  0  0  0  0  0  0  0  0  0  0
  189.5000  172.3030  143.2220 C   0  0  0  0  0  3  0  0  0  0  0  0
  189.5020  173.7620  143.5890 C   0  0  0  0  0  3  0  0  0  0  0  0
  194.1690  172.9260  145.2870 C   0  0  0  0  0  3  0  0  0  0  0  0
  193.0130  173.8210  145.0850 C   0  0  0  0  0  0  0  0  0  0  0  0
  189.7260  176.5660  144.7080 C   0  0  1  0  0  3  0  0  0  0  0  0
  188.2810  175.6260  146.4640 O   0  0  0  0  0  0  0  0  0  0  0  0
  189.3090  177.6240  146.9780 O   0  0  0  0  0  1  0  0  0  0  0  0
  188.8810  176.7400  145.9790 C   0  0  1  0  0  0  0  0  0  0  0  0
  187.4490  176.5550  145.8420 N   0  0  2  0  0  0  0  0  0  0  0  0
  186.7050  177.2180  146.9070 C   0  0  0  0  0  3  0  0  0  0  0  0
  185.2250  176.9660  146.7120 C   0  0  0  0  0  2  0  0  0  0  0  0
  185.8250  178.2930  146.3030 C   0  0  0  0  0  2  0  0  0  0  0  0
  190.1620  177.9080  144.1230 C   0  0  0  0  0  2  0  0  0  0  0  0
  189.7870  178.0270  142.6500 C   0  0  0  0  0  2  0  0  0  0  0  0
  188.6350  177.1050  142.2800 C   0  0  0  0  0  2  0  0  0  0  0  0
  187.3180  177.8610  142.2930 C   0  0  0  0  0  2  0  0  0  0  0  0
  184.9660  177.4580  142.8270 O   0  0  0  0  0  0  0  0  0  0  0  0
  186.2420  176.9690  142.6830 N   0  0  0  0  0  0  0  0  0  0  0  0
  186.4410  175.7370  142.7250 O   0  0  0  0  0  0  0  0  0  0  0  0
  1 10  1  0  0  0  0
  2  7  1  6  0  0  0
  3  8  1  0  0  0  0
  4  1  2  0  0  0  0
  5  3  2  0  0  0  0
  6  2  1  0  0  0  0
  8 15  1  0  0  0  0
  9  6  1  0  0  0  0
 10  2  1  0  0  0  0
 11  8  2  0  0  0  0
 11  4  1  0  0  0  0
 12  5  1  0  0  0  0
 12 13  2  0  0  0  0
 13 11  1  0  0  0  0
 14  9  2  0  0  0  0
 15 14  1  0  0  0  0
 15 10  2  0  0  0  0
 16 24  1  1  0  0  0
 16  4  1  0  0  0  0
 16 19  1  0  0  0  0
 19 17  1  0  0  0  0
 19 18  1  1  0  0  0
 20 19  1  0  0  0  0
 20 17  1  0  0  0  0
 20 21  1  1  0  0  0
 22 21  1  0  0  0  0
 23 22  1  0  0  0  0
 23 21  1  0  0  0  0
 25 24  1  0  0  0  0
 26 27  1  0  0  0  0
 26 25  1  0  0  0  0
 27 29  1  0  0  0  0
 29 30  2  0  0  0  0
 29 28  2  0  0  0  0
M  END
>  <MODEL>
1

>  <REMARK>
 VINA RESULT:      -6.9      0.000      0.000
  Name = 
  8 active torsions:
  status: ('A' for Active; 'I' for Inactive)
    1  A    between atoms: C_4  and  C_13
    2  A    between atoms: C_7  and  N_15
    3  A    between atoms: C_7  and  C_16
    4  A    between atoms: C_8  and  C_13
    5  A    between atoms: C_9  and  N_12
    6  A    between atoms: C_13  and  C_27
    7  A    between atoms: C_16  and  C_30
    8  A    between atoms: C_27  and  C_30
                            x       y       z     vdW  Elec       q    Type
                         _______ _______ _______ _____ _____    ______ ____

>  <TORSDO>
F 8

$$$$
=
 OpenBabel11052417163D

 30 34  0  0  1  0  0  0  0  0999 V2000
  187.1930  177.5510  143.9710 N   0  0  0  0  0  0  0  0  0  0  0  0
  185.2160  178.6890  144.9810 C   0  0  1  0  0  3  0  0  0  0  0  0
  188.0280  175.4600  147.5100 N   0  0  0  0  0  0  0  0  0  0  0  0
  188.2420  176.6850  143.9810 C   0  0  0  0  0  0  0  0  0  0  0  0
  189.0660  174.4800  147.5660 C   0  0  0  0  0  3  0  0  0  0  0  0
  184.9020  179.3310  146.3370 C   0  0  0  0  0  2  0  0  0  0  0  0
  185.4040  179.7890  143.9490 C   0  0  0  0  0  1  0  0  0  0  0  0
  187.7560  176.1910  146.3100 C   0  0  0  0  0  0  0  0  0  0  0  0
  184.9490  178.3280  147.4550 C   0  0  0  0  0  3  0  0  0  0  0  0
  186.4300  177.7920  145.0690 C   0  0  0  0  0  0  0  0  0  0  0  0
  188.5530  175.9810  145.1680 C   0  0  0  0  0  0  0  0  0  0  0  0
  189.8520  174.2590  146.5140 C   0  0  0  0  0  3  0  0  0  0  0  0
  189.7290  175.0320  145.2290 C   0  0  0  0  0  3  0  0  0  0  0  0
  185.8200  177.3170  147.4350 C   0  0  0  0  0  3  0  0  0  0  0  0
  186.6920  177.0990  146.2640 C   0  0  0  0  0  0  0  0  0  0  0  0
  189.0270  176.5370  142.6980 C   0  0  1  0  0  3  0  0  0  0  0  0
  187.6480  174.6890  141.8400 O   0  0  0  0  0  0  0  0  0  0  0  0
  187.5800  176.6400  140.6140 O   0  0  0  0  0  1  0  0  0  0  0  0
  188.2720  175.8560  141.5470 C   0  0  1  0  0  0  0  0  0  0  0  0
  188.8070  174.5950  141.0700 N   0  0  2  0  0  0  0  0  0  0  0  0
  188.3740  174.2940  139.7110 C   0  0  0  0  0  3  0  0  0  0  0  0
  188.3710  172.7930  139.5100 C   0  0  0  0  0  2  0  0  0  0  0  0
  189.5100  173.6260  138.9640 C   0  0  0  0  0  2  0  0  0  0  0  0
  189.7220  177.8210  142.2450 C   0  0  0  0  0  2  0  0  0  0  0  0
  190.8730  178.1930  143.1730 C   0  0  0  0  0  2  0  0  0  0  0  0
  191.9750  177.1440  143.1620 C   0  0  0  0  0  2  0  0  0  0  0  0
  192.5980  177.0070  144.5390 C   0  0  0  0  0  2  0  0  0  0  0  0
  194.8320  176.7240  145.4920 O   0  0  0  0  0  0  0  0  0  0  0  0
  193.9890  176.6120  144.4130 N   0  0  0  0  0  0  0  0  0  0  0  0
  194.3750  176.0200  143.3840 O   0  0  0  0  0  0  0  0  0  0  0  0
  1  4  2  0  0  0  0
  1 10  1  0  0  0  0
  2  7  1  6  0  0  0
  2 10  1  0  0  0  0
  2  6  1  0  0  0  0
  3  5  1  0  0  0  0
  4 11  1  0  0  0  0
  6  9  1  0  0  0  0
  8  3  2  0  0  0  0
 10 15  2  0  0  0  0
 11 13  2  0  0  0  0
 11  8  1  0  0  0  0
 12  5  2  0  0  0  0
 13 12  1  0  0  0  0
 14  9  2  0  0  0  0
 15  8  1  0  0  0  0
 15 14  1  0  0  0  0
 16 24  1  6  0  0  0
 16  4  1  0  0  0  0
 19 18  1  6  0  0  0
 19 17  1  0  0  0  0
 19 16  1  0  0  0  0
 20 21  1  6  0  0  0
 20 19  1  0  0  0  0
 20 17  1  0  0  0  0
 22 21  1  0  0  0  0
 23 22  1  0  0  0  0
 23 21  1  0  0  0  0
 24 25  1  0  0  0  0
 26 25  1  0  0  0  0
 26 27  1  0  0  0  0
 29 27  1  0  0  0  0
 29 28  2  0  0  0  0
 30 29  2  0  0  0  0
M  END
>  <MODEL>
2

>  <REMARK>
 VINA RESULT:      -6.9      2.903      6.947
  Name = 
  8 active torsions:
  status: ('A' for Active; 'I' for Inactive)
    1  A    between atoms: C_4  and  C_13
    2  A    between atoms: C_7  and  N_15
    3  A    between atoms: C_7  and  C_16
    4  A    between atoms: C_8  and  C_13
    5  A    between atoms: C_9  and  N_12
    6  A    between atoms: C_13  and  C_27
    7  A    between atoms: C_16  and  C_30
    8  A    between atoms: C_27  and  C_30
                            x       y       z     vdW  Elec       q    Type
                         _______ _______ _______ _____ _____    ______ ____

>  <TORSDO>
F 8

$$$$
=
 OpenBabel11052417163D

 30 34  0  0  1  0  0  0  0  0999 V2000
  187.6160  176.9740  145.7420 N   0  0  0  0  0  0  0  0  0  0  0  0
  185.8210  178.3360  146.8130 C   0  0  1  0  0  3  0  0  0  0  0  0
  186.0200  177.5530  141.9060 N   0  0  0  0  0  0  0  0  0  0  0  0
  188.2670  176.4280  144.6790 C   0  0  0  0  0  0  0  0  0  0  0  0
  186.6940  177.0720  140.7420 C   0  0  0  0  0  3  0  0  0  0  0  0
  184.3060  178.4790  146.6320 C   0  0  0  0  0  2  0  0  0  0  0  0
  186.0920  177.5660  148.0950 C   0  0  0  0  0  1  0  0  0  0  0  0
  186.5510  177.3370  143.2180 C   0  0  0  0  0  0  0  0  0  0  0  0
  183.9520  179.0070  145.2700 C   0  0  0  0  0  3  0  0  0  0  0  0
  186.4530  177.6660  145.6140 C   0  0  0  0  0  0  0  0  0  0  0  0
  187.7380  176.5960  143.3770 C   0  0  0  0  0  0  0  0  0  0  0  0
  187.8110  176.3560  140.8480 C   0  0  0  0  0  3  0  0  0  0  0  0
  188.4150  175.9800  142.1740 C   0  0  0  0  0  3  0  0  0  0  0  0
  184.6770  178.6810  144.1980 C   0  0  0  0  0  3  0  0  0  0  0  0
  185.9040  177.8740  144.3370 C   0  0  0  0  0  0  0  0  0  0  0  0
  189.5320  175.6550  144.9680 C   0  0  1  0  0  3  0  0  0  0  0  0
  191.1720  177.4180  144.4640 O   0  0  0  0  0  0  0  0  0  0  0  0
  190.8660  176.9480  146.6990 O   0  0  0  0  0  1  0  0  0  0  0  0
  190.7410  176.5120  145.3730 C   0  0  1  0  0  0  0  0  0  0  0  0
  191.9730  176.2910  144.6410 N   0  0  2  0  0  0  0  0  0  0  0  0
  193.1440  176.7330  145.3900 C   0  0  0  0  0  3  0  0  0  0  0  0
  194.3920  176.4180  144.5930 C   0  0  0  0  0  2  0  0  0  0  0  0
  193.9890  175.5280  145.7470 C   0  0  0  0  0  2  0  0  0  0  0  0
  189.3320  174.4680  145.9090 C   0  0  0  0  0  2  0  0  0  0  0  0
  189.9420  173.1910  145.3400 C   0  0  0  0  0  2  0  0  0  0  0  0
  190.0140  173.2250  143.8200 C   0  0  0  0  0  2  0  0  0  0  0  0
  189.2380  172.0650  143.2220 C   0  0  0  0  0  2  0  0  0  0  0  0
  189.3000  172.5490  140.8260 O   0  0  0  0  0  0  0  0  0  0  0  0
  188.5850  172.4900  141.9970 N   0  0  0  0  0  0  0  0  0  0  0  0
  187.3470  172.6400  141.9740 O   0  0  0  0  0  0  0  0  0  0  0  0
  2  7  1  1  0  0  0
  3  8  1  0  0  0  0
  4 16  1  0  0  0  0
  4  1  2  0  0  0  0
  5 12  1  0  0  0  0
  5  3  2  0  0  0  0
  6  2  1  0  0  0  0
  8 11  2  0  0  0  0
  8 15  1  0  0  0  0
  9  6  1  0  0  0  0
 10  1  1  0  0  0  0
 10  2  1  0  0  0  0
 11  4  1  0  0  0  0
 12 13  2  0  0  0  0
 13 11  1  0  0  0  0
 14 15  1  0  0  0  0
 14  9  2  0  0  0  0
 15 10  2  0  0  0  0
 16 19  1  0  0  0  0
 16 24  1  1  0  0  0
 17 20  1  0  0  0  0
 17 19  1  0  0  0  0
 19 18  1  1  0  0  0
 20 19  1  0  0  0  0
 20 21  1  1  0  0  0
 21 23  1  0  0  0  0
 22 21  1  0  0  0  0
 22 23  1  0  0  0  0
 25 24  1  0  0  0  0
 26 25  1  0  0  0  0
 27 26  1  0  0  0  0
 28 29  2  0  0  0  0
 29 27  1  0  0  0  0
 30 29  2  0  0  0  0
M  END
>  <MODEL>
3

>  <REMARK>
 VINA RESULT:      -6.9      2.026      6.781
  Name = 
  8 active torsions:
  status: ('A' for Active; 'I' for Inactive)
    1  A    between atoms: C_4  and  C_13
    2  A    between atoms: C_7  and  N_15
    3  A    between atoms: C_7  and  C_16
    4  A    between atoms: C_8  and  C_13
    5  A    between atoms: C_9  and  N_12
    6  A    between atoms: C_13  and  C_27
    7  A    between atoms: C_16  and  C_30
    8  A    between atoms: C_27  and  C_30
                            x       y       z     vdW  Elec       q    Type
                         _______ _______ _______ _____ _____    ______ ____

>  <TORSDO>
F 8

$$$$
=
 OpenBabel11052417163D

 30 34  0  0  1  0  0  0  0  0999 V2000
  187.5540  176.8560  144.6560 N   0  0  0  0  0  0  0  0  0  0  0  0
  186.1380  177.8190  146.4710 C   0  0  1  0  0  3  0  0  0  0  0  0
  185.0020  178.2920  141.6520 N   0  0  0  0  0  0  0  0  0  0  0  0
  187.8860  176.6260  143.3570 C   0  0  0  0  0  0  0  0  0  0  0  0
  185.3310  178.1510  140.2690 C   0  0  0  0  0  3  0  0  0  0  0  0
  184.6320  177.9280  146.7370 C   0  0  0  0  0  2  0  0  0  0  0  0
  186.7260  176.7690  147.3980 C   0  0  0  0  0  1  0  0  0  0  0  0
  185.8600  177.7830  142.6790 C   0  0  0  0  0  0  0  0  0  0  0  0
  183.9380  178.7600  145.6970 C   0  0  0  0  0  3  0  0  0  0  0  0
  186.4140  177.5010  145.0190 C   0  0  0  0  0  0  0  0  0  0  0  0
  187.0320  177.0860  142.3270 C   0  0  0  0  0  0  0  0  0  0  0  0
  186.4210  177.4860  139.8920 C   0  0  0  0  0  3  0  0  0  0  0  0
  187.3500  176.8230  140.8720 C   0  0  0  0  0  3  0  0  0  0  0  0
  184.3430  178.7470  144.4240 C   0  0  0  0  0  3  0  0  0  0  0  0
  185.5470  177.9920  144.0270 C   0  0  0  0  0  0  0  0  0  0  0  0
  189.1680  175.8680  143.0970 C   0  0  1  0  0  3  0  0  0  0  0  0
  191.3850  175.4020  144.0540 O   0  0  0  0  0  0  0  0  0  0  0  0
  190.7650  177.6210  144.0040 O   0  0  0  0  0  1  0  0  0  0  0  0
  190.3570  176.2810  143.9760 C   0  0  1  0  0  0  0  0  0  0  0  0
  190.5760  175.5080  145.1840 N   0  0  2  0  0  0  0  0  0  0  0  0
  191.3490  176.2470  146.1760 C   0  0  0  0  0  3  0  0  0  0  0  0
  192.1160  175.2670  147.0390 C   0  0  0  0  0  2  0  0  0  0  0  0
  190.8440  175.8970  147.5600 C   0  0  0  0  0  2  0  0  0  0  0  0
  188.9920  174.3510  143.0480 C   0  0  0  0  0  2  0  0  0  0  0  0
  189.3760  173.7850  141.6850 C   0  0  0  0  0  2  0  0  0  0  0  0
  188.1720  173.2220  140.9440 C   0  0  0  0  0  2  0  0  0  0  0  0
  188.5880  172.6610  139.5960 C   0  0  0  0  0  2  0  0  0  0  0  0
  190.0650  173.8760  138.0710 O   0  0  0  0  0  0  0  0  0  0  0  0
  188.8330  173.7480  138.6650 N   0  0  0  0  0  0  0  0  0  0  0  0
  187.8830  174.4610  138.2810 O   0  0  0  0  0  0  0  0  0  0  0  0
  1 10  1  0  0  0  0
  2  6  1  0  0  0  0
  2  7  1  1  0  0  0
  3  8  1  0  0  0  0
  4  1  2  0  0  0  0
  5  3  2  0  0  0  0
  8 15  1  0  0  0  0
  9  6  1  0  0  0  0
 10  2  1  0  0  0  0
 11  8  2  0  0  0  0
 11  4  1  0  0  0  0
 12  5  1  0  0  0  0
 12 13  2  0  0  0  0
 13 11  1  0  0  0  0
 14  9  2  0  0  0  0
 15 14  1  0  0  0  0
 15 10  2  0  0  0  0
 16 24  1  1  0  0  0
 16  4  1  0  0  0  0
 16 19  1  0  0  0  0
 17 20  1  0  0  0  0
 19 18  1  1  0  0  0
 19 17  1  0  0  0  0
 19 20  1  0  0  0  0
 20 21  1  1  0  0  0
 21 22  1  0  0  0  0
 21 23  1  0  0  0  0
 22 23  1  0  0  0  0
 25 24  1  0  0  0  0
 26 25  1  0  0  0  0
 27 26  1  0  0  0  0
 28 29  2  0  0  0  0
 29 27  1  0  0  0  0
 30 29  2  0  0  0  0
M  END
>  <MODEL>
4

>  <REMARK>
 VINA RESULT:      -6.8      2.743      6.815
  Name = 
  8 active torsions:
  status: ('A' for Active; 'I' for Inactive)
    1  A    between atoms: C_4  and  C_13
    2  A    between atoms: C_7  and  N_15
    3  A    between atoms: C_7  and  C_16
    4  A    between atoms: C_8  and  C_13
    5  A    between atoms: C_9  and  N_12
    6  A    between atoms: C_13  and  C_27
    7  A    between atoms: C_16  and  C_30
    8  A    between atoms: C_27  and  C_30
                            x       y       z     vdW  Elec       q    Type
                         _______ _______ _______ _____ _____    ______ ____

>  <TORSDO>
F 8

$$$$
=
 OpenBabel11052417163D

 30 34  0  0  1  0  0  0  0  0999 V2000
  187.2040  177.6130  142.7210 N   0  0  0  0  0  0  0  0  0  0  0  0
  185.6910  177.4570  140.7430 C   0  0  1  0  0  3  0  0  0  0  0  0
  184.0590  178.7060  145.2720 N   0  0  0  0  0  0  0  0  0  0  0  0
  187.4770  177.8140  144.0380 C   0  0  0  0  0  0  0  0  0  0  0  0
  184.2630  178.8580  146.6780 C   0  0  0  0  0  3  0  0  0  0  0  0
  184.5190  178.2820  140.1990 C   0  0  0  0  0  2  0  0  0  0  0  0
  186.9110  177.7010  139.8720 C   0  0  0  0  0  1  0  0  0  0  0  0
  185.1360  178.3560  144.3960 C   0  0  0  0  0  0  0  0  0  0  0  0
  183.3520  178.2900  141.1450 C   0  0  0  0  0  3  0  0  0  0  0  0
  185.9630  177.7870  142.1930 C   0  0  0  0  0  0  0  0  0  0  0  0
  186.4350  178.2000  144.9150 C   0  0  0  0  0  0  0  0  0  0  0  0
  185.4770  178.7330  147.2080 C   0  0  0  0  0  3  0  0  0  0  0  0
  186.7040  178.4620  146.3790 C   0  0  0  0  0  3  0  0  0  0  0  0
  183.5390  178.2750  142.4670 C   0  0  0  0  0  3  0  0  0  0  0  0
  184.8960  178.1500  143.0320 C   0  0  0  0  0  0  0  0  0  0  0  0
  188.9070  177.6170  144.4840 C   0  0  1  0  0  3  0  0  0  0  0  0
  188.5300  176.0660  146.3560 O   0  0  0  0  0  0  0  0  0  0  0  0
  189.3810  175.1230  144.4340 O   0  0  0  0  0  1  0  0  0  0  0  0
  189.1900  176.2840  145.1940 C   0  0  1  0  0  0  0  0  0  0  0  0
  189.8890  176.3550  146.4630 N   0  0  2  0  0  0  0  0  0  0  0  0
  190.5510  175.0990  146.7960 C   0  0  0  0  0  3  0  0  0  0  0  0
  191.1760  175.2150  148.1700 C   0  0  0  0  0  2  0  0  0  0  0  0
  192.0390  175.3440  146.9360 C   0  0  0  0  0  2  0  0  0  0  0  0
  189.9420  177.9180  143.4010 C   0  0  0  0  0  2  0  0  0  0  0  0
  191.3650  177.7380  143.9190 C   0  0  0  0  0  2  0  0  0  0  0  0
  192.2210  176.9250  142.9590 C   0  0  0  0  0  2  0  0  0  0  0  0
  192.9810  175.8430  143.7060 C   0  0  0  0  0  2  0  0  0  0  0  0
  195.3510  176.1270  143.1730 O   0  0  0  0  0  0  0  0  0  0  0  0
  194.3090  176.3220  144.0460 N   0  0  0  0  0  0  0  0  0  0  0  0
  194.4680  177.0510  145.0470 O   0  0  0  0  0  0  0  0  0  0  0  0
  1  4  1  0  0  0  0
  2  7  1  6  0  0  0
  2 10  1  0  0  0  0
  3  5  2  0  0  0  0
  4 16  1  0  0  0  0
  4 11  2  0  0  0  0
  5 12  1  0  0  0  0
  6  2  1  0  0  0  0
  6  9  1  0  0  0  0
  8 11  1  0  0  0  0
  8  3  1  0  0  0  0
  9 14  2  0  0  0  0
 10  1  2  0  0  0  0
 10 15  1  0  0  0  0
 11 13  1  0  0  0  0
 13 12  2  0  0  0  0
 14 15  1  0  0  0  0
 15  8  2  0  0  0  0
 16 24  1  6  0  0  0
 16 19  1  0  0  0  0
 17 20  1  0  0  0  0
 19 18  1  6  0  0  0
 19 17  1  0  0  0  0
 19 20  1  0  0  0  0
 20 21  1  6  0  0  0
 21 23  1  0  0  0  0
 21 22  1  0  0  0  0
 23 22  1  0  0  0  0
 24 25  1  0  0  0  0
 26 27  1  0  0  0  0
 26 25  1  0  0  0  0
 27 29  1  0  0  0  0
 28 29  2  0  0  0  0
 29 30  2  0  0  0  0
M  END
>  <MODEL>
5

>  <REMARK>
 VINA RESULT:      -6.5      2.775      7.698
  Name = 
  8 active torsions:
  status: ('A' for Active; 'I' for Inactive)
    1  A    between atoms: C_4  and  C_13
    2  A    between atoms: C_7  and  N_15
    3  A    between atoms: C_7  and  C_16
    4  A    between atoms: C_8  and  C_13
    5  A    between atoms: C_9  and  N_12
    6  A    between atoms: C_13  and  C_27
    7  A    between atoms: C_16  and  C_30
    8  A    between atoms: C_27  and  C_30
                            x       y       z     vdW  Elec       q    Type
                         _______ _______ _______ _____ _____    ______ ____

>  <TORSDO>
F 8

$$$$
=
 OpenBabel11052417163D

 30 34  0  0  1  0  0  0  0  0999 V2000
  188.1140  177.5210  143.4070 N   0  0  0  0  0  0  0  0  0  0  0  0
  186.3330  178.9350  142.3790 C   0  0  1  0  0  3  0  0  0  0  0  0
  188.1890  174.9080  140.1260 N   0  0  0  0  0  0  0  0  0  0  0  0
  189.0000  176.4890  143.4190 C   0  0  0  0  0  0  0  0  0  0  0  0
  189.1460  173.8510  140.0410 C   0  0  0  0  0  3  0  0  0  0  0  0
  185.0470  178.6650  141.5890 C   0  0  0  0  0  2  0  0  0  0  0  0
  185.9630  179.3760  143.7840 C   0  0  0  0  0  1  0  0  0  0  0  0
  188.1460  175.7870  141.2550 C   0  0  0  0  0  0  0  0  0  0  0  0
  185.3260  177.9900  140.2770 C   0  0  0  0  0  3  0  0  0  0  0  0
  187.2300  177.7180  142.3920 C   0  0  0  0  0  0  0  0  0  0  0  0
  189.0310  175.5850  142.3310 C   0  0  0  0  0  0  0  0  0  0  0  0
  189.9910  173.6150  141.0420 C   0  0  0  0  0  3  0  0  0  0  0  0
  189.9800  174.4080  142.3210 C   0  0  0  0  0  3  0  0  0  0  0  0
  186.3240  177.1100  140.1560 C   0  0  0  0  0  3  0  0  0  0  0  0
  187.2410  176.8550  141.2830 C   0  0  0  0  0  0  0  0  0  0  0  0
  189.9020  176.3690  144.6250 C   0  0  1  0  0  3  0  0  0  0  0  0
  192.1940  176.1550  143.7550 O   0  0  0  0  0  0  0  0  0  0  0  0
  191.4920  178.3040  144.2030 O   0  0  0  0  0  1  0  0  0  0  0  0
  191.3190  176.9330  144.4360 C   0  0  1  0  0  0  0  0  0  0  0  0
  192.3930  176.2500  145.1310 N   0  0  2  0  0  0  0  0  0  0  0  0
  193.5570  177.1070  145.3210 C   0  0  0  0  0  3  0  0  0  0  0  0
  194.8020  176.2470  145.3850 C   0  0  0  0  0  2  0  0  0  0  0  0
  194.1940  176.7910  146.6580 C   0  0  0  0  0  2  0  0  0  0  0  0
  189.2650  176.8510  145.9270 C   0  0  0  0  0  2  0  0  0  0  0  0
  188.3430  175.7930  146.5250 C   0  0  0  0  0  2  0  0  0  0  0  0
  187.1680  176.4160  147.2640 C   0  0  0  0  0  2  0  0  0  0  0  0
  186.0630  176.7920  146.2930 C   0  0  0  0  0  2  0  0  0  0  0  0
  185.8990  178.9010  147.5190 O   0  0  0  0  0  0  0  0  0  0  0  0
  185.2760  177.8820  146.8400 N   0  0  0  0  0  0  0  0  0  0  0  0
  184.0650  177.9790  146.5530 O   0  0  0  0  0  0  0  0  0  0  0  0
  1  4  1  0  0  0  0
  2 10  1  0  0  0  0
  2  7  1  1  0  0  0
  3  8  1  0  0  0  0
  4 16  1  0  0  0  0
  5  3  2  0  0  0  0
  5 12  1  0  0  0  0
  6  2  1  0  0  0  0
  8 15  2  0  0  0  0
  8 11  1  0  0  0  0
  9  6  1  0  0  0  0
 10  1  2  0  0  0  0
 11  4  2  0  0  0  0
 12 13  2  0  0  0  0
 13 11  1  0  0  0  0
 14  9  2  0  0  0  0
 14 15  1  0  0  0  0
 15 10  1  0  0  0  0
 16 24  1  1  0  0  0
 17 19  1  0  0  0  0
 17 20  1  0  0  0  0
 19 18  1  6  0  0  0
 19 16  1  0  0  0  0
 19 20  1  0  0  0  0
 20 21  1  6  0  0  0
 21 22  1  0  0  0  0
 21 23  1  0  0  0  0
 22 23  1  0  0  0  0
 24 25  1  0  0  0  0
 25 26  1  0  0  0  0
 27 29  1  0  0  0  0
 27 26  1  0  0  0  0
 29 28  2  0  0  0  0
 30 29  2  0  0  0  0
M  END
>  <MODEL>
6

>  <REMARK>
 VINA RESULT:      -6.5      2.484      6.424
  Name = 
  8 active torsions:
  status: ('A' for Active; 'I' for Inactive)
    1  A    between atoms: C_4  and  C_13
    2  A    between atoms: C_7  and  N_15
    3  A    between atoms: C_7  and  C_16
    4  A    between atoms: C_8  and  C_13
    5  A    between atoms: C_9  and  N_12
    6  A    between atoms: C_13  and  C_27
    7  A    between atoms: C_16  and  C_30
    8  A    between atoms: C_27  and  C_30
                            x       y       z     vdW  Elec       q    Type
                         _______ _______ _______ _____ _____    ______ ____

>  <TORSDO>
F 8

$$$$
=
 OpenBabel11052417163D

 30 34  0  0  1  0  0  0  0  0999 V2000
  187.4370  176.8350  143.0880 N   0  0  0  0  0  0  0  0  0  0  0  0
  185.9530  177.1900  141.1140 C   0  0  1  0  0  3  0  0  0  0  0  0
  184.5500  178.3050  145.7530 N   0  0  0  0  0  0  0  0  0  0  0  0
  187.7260  176.8450  144.4170 C   0  0  0  0  0  0  0  0  0  0  0  0
  184.7600  178.2730  147.1660 C   0  0  0  0  0  3  0  0  0  0  0  0
  184.9870  178.2900  140.6600 C   0  0  0  0  0  2  0  0  0  0  0  0
  187.2100  177.2590  140.2630 C   0  0  0  0  0  1  0  0  0  0  0  0
  185.5430  177.8250  144.8400 C   0  0  0  0  0  0  0  0  0  0  0  0
  183.8330  178.4480  141.6090 C   0  0  0  0  0  3  0  0  0  0  0  0
  186.2670  177.3130  142.5880 C   0  0  0  0  0  0  0  0  0  0  0  0
  186.7740  177.3520  145.3340 C   0  0  0  0  0  0  0  0  0  0  0  0
  185.9140  177.8470  147.6740 C   0  0  0  0  0  3  0  0  0  0  0  0
  187.0690  177.4090  146.8150 C   0  0  0  0  0  3  0  0  0  0  0  0
  183.9930  178.2670  142.9220 C   0  0  0  0  0  3  0  0  0  0  0  0
  185.2860  177.8080  143.4650 C   0  0  0  0  0  0  0  0  0  0  0  0
  189.0780  176.3120  144.8340 C   0  0  1  0  0  3  0  0  0  0  0  0
  188.9250  174.2140  143.5590 O   0  0  0  0  0  0  0  0  0  0  0  0
  190.5050  175.7190  142.8190 O   0  0  0  0  0  1  0  0  0  0  0  0
  189.6940  175.2820  143.8750 C   0  0  1  0  0  0  0  0  0  0  0  0
  189.9900  173.9730  144.4250 N   0  0  2  0  0  0  0  0  0  0  0  0
  191.0000  173.2660  143.6480 C   0  0  0  0  0  3  0  0  0  0  0  0
  191.2310  171.8990  144.2570 C   0  0  0  0  0  2  0  0  0  0  0  0
  192.2140  173.0180  144.5190 C   0  0  0  0  0  2  0  0  0  0  0  0
  190.0780  177.3980  145.2260 C   0  0  0  0  0  2  0  0  0  0  0  0
  190.6690  177.1440  146.6090 C   0  0  0  0  0  2  0  0  0  0  0  0
  191.9140  176.2720  146.5430 C   0  0  0  0  0  2  0  0  0  0  0  0
  192.8170  176.7140  145.4060 C   0  0  0  0  0  2  0  0  0  0  0  0
  194.9110  177.9240  145.7680 O   0  0  0  0  0  0  0  0  0  0  0  0
  194.1950  176.7550  145.8600 N   0  0  0  0  0  0  0  0  0  0  0  0
  194.6730  175.7840  146.4820 O   0  0  0  0  0  0  0  0  0  0  0  0
  1  4  1  0  0  0  0
  2  7  1  6  0  0  0
  2 10  1  0  0  0  0
  3  5  2  0  0  0  0
  4 16  1  0  0  0  0
  4 11  2  0  0  0  0
  5 12  1  0  0  0  0
  6  2  1  0  0  0  0
  6  9  1  0  0  0  0
  8 11  1  0  0  0  0
  8  3  1  0  0  0  0
  9 14  2  0  0  0  0
 10  1  2  0  0  0  0
 10 15  1  0  0  0  0
 11 13  1  0  0  0  0
 13 12  2  0  0  0  0
 14 15  1  0  0  0  0
 15  8  2  0  0  0  0
 16 24  1  6  0  0  0
 17 19  1  0  0  0  0
 17 20  1  0  0  0  0
 19 18  1  6  0  0  0
 19 20  1  0  0  0  0
 19 16  1  0  0  0  0
 20 21  1  6  0  0  0
 21 22  1  0  0  0  0
 21 23  1  0  0  0  0
 22 23  1  0  0  0  0
 24 25  1  0  0  0  0
 26 25  1  0  0  0  0
 27 29  1  0  0  0  0
 27 26  1  0  0  0  0
 28 29  2  0  0  0  0
 29 30  2  0  0  0  0
M  END
>  <MODEL>
7

>  <REMARK>
 VINA RESULT:      -6.4      2.544      7.718
  Name = 
  8 active torsions:
  status: ('A' for Active; 'I' for Inactive)
    1  A    between atoms: C_4  and  C_13
    2  A    between atoms: C_7  and  N_15
    3  A    between atoms: C_7  and  C_16
    4  A    between atoms: C_8  and  C_13
    5  A    between atoms: C_9  and  N_12
    6  A    between atoms: C_13  and  C_27
    7  A    between atoms: C_16  and  C_30
    8  A    between atoms: C_27  and  C_30
                            x       y       z     vdW  Elec       q    Type
                         _______ _______ _______ _____ _____    ______ ____

>  <TORSDO>
F 8

$$$$
=
 OpenBabel11052417163D

 30 34  0  0  1  0  0  0  0  0999 V2000
  189.2410  175.0960  143.5880 N   0  0  0  0  0  0  0  0  0  0  0  0
  189.9140  172.8050  142.8620 C   0  0  1  0  0  3  0  0  0  0  0  0
  187.3720  175.9070  139.9200 N   0  0  0  0  0  0  0  0  0  0  0  0
  188.6260  176.2980  143.4240 C   0  0  0  0  0  0  0  0  0  0  0  0
  186.6440  177.1170  139.7110 C   0  0  0  0  0  3  0  0  0  0  0  0
  190.4660  172.1880  141.5720 C   0  0  0  0  0  2  0  0  0  0  0  0
  191.0310  172.8790  143.8890 C   0  0  0  0  0  1  0  0  0  0  0  0
  188.0300  175.6380  141.1630 C   0  0  0  0  0  0  0  0  0  0  0  0
  189.4950  172.3090  140.4330 C   0  0  0  0  0  3  0  0  0  0  0  0
  189.3050  174.1640  142.6000 C   0  0  0  0  0  0  0  0  0  0  0  0
  188.0030  176.6010  142.1900 C   0  0  0  0  0  0  0  0  0  0  0  0
  186.6040  178.0610  140.6490 C   0  0  0  0  0  3  0  0  0  0  0  0
  187.3350  177.9370  141.9590 C   0  0  0  0  0  3  0  0  0  0  0  0
  188.6990  173.3750  140.3190 C   0  0  0  0  0  3  0  0  0  0  0  0
  188.6820  174.4160  141.3650 C   0  0  0  0  0  0  0  0  0  0  0  0
  188.6580  177.2540  144.5940 C   0  0  1  0  0  3  0  0  0  0  0  0
  186.3830  176.6490  145.3060 O   0  0  0  0  0  0  0  0  0  0  0  0
  188.0480  176.2640  146.8510 O   0  0  0  0  0  1  0  0  0  0  0  0
  187.6400  176.9580  145.7050 C   0  0  1  0  0  0  0  0  0  0  0  0
  186.5590  177.9110  145.8710 N   0  0  2  0  0  0  0  0  0  0  0  0
  185.9730  177.8500  147.2050 C   0  0  0  0  0  3  0  0  0  0  0  0
  184.5870  178.4590  147.1680 C   0  0  0  0  0  2  0  0  0  0  0  0
  185.7490  179.2590  147.7140 C   0  0  0  0  0  2  0  0  0  0  0  0
  190.0580  177.5010  145.1540 C   0  0  0  0  0  2  0  0  0  0  0  0
  191.0050  178.0330  144.0830 C   0  0  0  0  0  2  0  0  0  0  0  0
  192.2100  177.1250  143.8880 C   0  0  0  0  0  2  0  0  0  0  0  0
  192.6470  176.5240  145.2130 C   0  0  0  0  0  2  0  0  0  0  0  0
  194.4260  177.2830  146.7090 O   0  0  0  0  0  0  0  0  0  0  0  0
  194.0390  176.8480  145.4650 N   0  0  0  0  0  0  0  0  0  0  0  0
  194.9050  176.5760  144.6080 O   0  0  0  0  0  0  0  0  0  0  0  0
  2  7  1  1  0  0  0
  3  8  1  0  0  0  0
  4  1  1  0  0  0  0
  4 16  1  0  0  0  0
  5  3  2  0  0  0  0
  5 12  1  0  0  0  0
  6  2  1  0  0  0  0
  8 15  2  0  0  0  0
  8 11  1  0  0  0  0
  9  6  1  0  0  0  0
 10  2  1  0  0  0  0
 10  1  2  0  0  0  0
 11  4  2  0  0  0  0
 12 13  2  0  0  0  0
 13 11  1  0  0  0  0
 14  9  2  0  0  0  0
 14 15  1  0  0  0  0
 15 10  1  0  0  0  0
 16 24  1  1  0  0  0
 16 19  1  0  0  0  0
 17 19  1  0  0  0  0
 17 20  1  0  0  0  0
 19 20  1  0  0  0  0
 19 18  1  1  0  0  0
 20 21  1  1  0  0  0
 21 23  1  0  0  0  0
 22 21  1  0  0  0  0
 22 23  1  0  0  0  0
 25 24  1  0  0  0  0
 26 25  1  0  0  0  0
 26 27  1  0  0  0  0
 27 29  1  0  0  0  0
 29 28  2  0  0  0  0
 30 29  2  0  0  0  0
M  END
>  <MODEL>
8

>  <REMARK>
 VINA RESULT:      -6.4      2.351      5.421
  Name = 
  8 active torsions:
  status: ('A' for Active; 'I' for Inactive)
    1  A    between atoms: C_4  and  C_13
    2  A    between atoms: C_7  and  N_15
    3  A    between atoms: C_7  and  C_16
    4  A    between atoms: C_8  and  C_13
    5  A    between atoms: C_9  and  N_12
    6  A    between atoms: C_13  and  C_27
    7  A    between atoms: C_16  and  C_30
    8  A    between atoms: C_27  and  C_30
                            x       y       z     vdW  Elec       q    Type
                         _______ _______ _______ _____ _____    ______ ____

>  <TORSDO>
F 8

$$$$
=
 OpenBabel11052417163D

 30 34  0  0  1  0  0  0  0  0999 V2000
  187.5380  176.8730  144.7380 N   0  0  0  0  0  0  0  0  0  0  0  0
  186.1670  177.8400  146.5850 C   0  0  1  0  0  3  0  0  0  0  0  0
  184.9450  178.3530  141.7910 N   0  0  0  0  0  0  0  0  0  0  0  0
  187.8430  176.6460  143.4320 C   0  0  0  0  0  0  0  0  0  0  0  0
  185.2460  178.2160  140.4020 C   0  0  0  0  0  3  0  0  0  0  0  0
  184.6680  177.9630  146.8810 C   0  0  0  0  0  2  0  0  0  0  0  0
  186.7620  176.7780  147.4950 C   0  0  0  0  0  1  0  0  0  0  0  0
  185.8170  177.8290  142.7990 C   0  0  0  0  0  0  0  0  0  0  0  0
  183.9630  178.8080  145.8580 C   0  0  0  0  0  3  0  0  0  0  0  0
  186.4120  177.5270  145.1260 C   0  0  0  0  0  0  0  0  0  0  0  0
  186.9740  177.1210  142.4210 C   0  0  0  0  0  0  0  0  0  0  0  0
  186.3220  177.5420  140.0000 C   0  0  0  0  0  3  0  0  0  0  0  0
  187.2620  176.8630  140.9590 C   0  0  0  0  0  3  0  0  0  0  0  0
  184.3440  178.7980  144.5790 C   0  0  0  0  0  3  0  0  0  0  0  0
  185.5320  178.0330  144.1540 C   0  0  0  0  0  0  0  0  0  0  0  0
  189.1110  175.8760  143.1430 C   0  0  1  0  0  3  0  0  0  0  0  0
  191.4150  175.4980  143.9180 O   0  0  0  0  0  0  0  0  0  0  0  0
  190.6790  177.6800  143.9990 O   0  0  0  0  0  1  0  0  0  0  0  0
  190.3400  176.3220  143.9490 C   0  0  1  0  0  0  0  0  0  0  0  0
  190.6880  175.5210  145.1070 N   0  0  2  0  0  0  0  0  0  0  0  0
  191.4940  176.2650  146.0680 C   0  0  0  0  0  3  0  0  0  0  0  0
  192.3100  175.2910  146.8920 C   0  0  0  0  0  2  0  0  0  0  0  0
  191.0540  175.9020  147.4710 C   0  0  0  0  0  2  0  0  0  0  0  0
  188.9330  174.3590  143.1640 C   0  0  0  0  0  2  0  0  0  0  0  0
  189.1700  173.7470  141.7870 C   0  0  0  0  0  2  0  0  0  0  0  0
  189.8410  172.3850  141.8780 C   0  0  0  0  0  2  0  0  0  0  0  0
  190.0880  172.0060  143.3270 C   0  0  0  0  0  2  0  0  0  0  0  0
  192.3420  171.4590  142.5530 O   0  0  0  0  0  0  0  0  0  0  0  0
  191.5140  171.8790  143.5660 N   0  0  0  0  0  0  0  0  0  0  0  0
  192.0060  172.3070  144.6300 O   0  0  0  0  0  0  0  0  0  0  0  0
  1 10  1  0  0  0  0
  2  6  1  0  0  0  0
  2  7  1  1  0  0  0
  3  8  1  0  0  0  0
  4  1  2  0  0  0  0
  5  3  2  0  0  0  0
  8 15  1  0  0  0  0
  9  6  1  0  0  0  0
 10  2  1  0  0  0  0
 11  8  2  0  0  0  0
 11  4  1  0  0  0  0
 12  5  1  0  0  0  0
 12 13  2  0  0  0  0
 13 11  1  0  0  0  0
 14  9  2  0  0  0  0
 15 14  1  0  0  0  0
 15 10  2  0  0  0  0
 16 24  1  1  0  0  0
 16  4  1  0  0  0  0
 16 19  1  0  0  0  0
 17 19  1  0  0  0  0
 17 20  1  0  0  0  0
 19 18  1  1  0  0  0
 19 20  1  0  0  0  0
 20 21  1  1  0  0  0
 21 22  1  0  0  0  0
 21 23  1  0  0  0  0
 22 23  1  0  0  0  0
 25 26  1  0  0  0  0
 25 24  1  0  0  0  0
 26 27  1  0  0  0  0
 27 29  1  0  0  0  0
 28 29  2  0  0  0  0
 29 30  2  0  0  0  0
M  END
>  <MODEL>
9

>  <REMARK>
 VINA RESULT:      -6.4      2.484      7.050
  Name = 
  8 active torsions:
  status: ('A' for Active; 'I' for Inactive)
    1  A    between atoms: C_4  and  C_13
    2  A    between atoms: C_7  and  N_15
    3  A    between atoms: C_7  and  C_16
    4  A    between atoms: C_8  and  C_13
    5  A    between atoms: C_9  and  N_12
    6  A    between atoms: C_13  and  C_27
    7  A    between atoms: C_16  and  C_30
    8  A    between atoms: C_27  and  C_30
                            x       y       z     vdW  Elec       q    Type
                         _______ _______ _______ _____ _____    ______ ____

>  <TORSDO>
F 8

$$$$
