=
 OpenBabel11052417243D

 30 32  0  0  1  0  0  0  0  0999 V2000
  187.6420  176.3160  142.1780 C   0  0  0  0  0  0  0  0  0  0  0  0
  186.2170  178.3330  143.4420 S   0  0  0  0  0  0  0  0  0  0  0  0
  188.8400  177.3470  146.8980 N   0  0  0  0  0  0  0  0  0  0  0  0
  190.5700  178.0000  144.1240 C   0  0  0  0  0  1  0  0  0  0  0  0
  187.8870  174.9310  142.4540 N   0  0  0  0  0  2  0  0  0  0  0  0
  190.4840  173.7060  141.2210 C   0  0  2  0  0  3  0  0  0  0  0  0
  189.1660  174.0520  140.5310 C   0  0  0  0  0  2  0  0  0  0  0  0
  187.8340  172.5280  142.0420 C   0  0  0  0  0  1  0  0  0  0  0  0
  191.9140  175.3800  145.5190 C   0  0  1  0  0  3  0  0  0  0  0  0
  190.1170  176.6950  146.8450 C   0  0  0  0  0  0  0  0  0  0  0  0
  187.9230  173.9100  141.4180 C   0  0  1  0  0  3  0  0  0  0  0  0
  190.9700  174.8820  142.0670 C   0  0  0  0  0  2  0  0  0  0  0  0
  185.6520  177.6260  145.0160 C   0  0  0  0  0  2  0  0  0  0  0  0
  190.6930  173.0340  144.3940 O   0  0  0  0  0  0  0  0  0  0  0  0
  191.5040  173.3740  140.1490 C   0  0  0  0  0  1  0  0  0  0  0  0
  187.3600  176.6890  141.0080 O   0  0  0  0  0  0  0  0  0  0  0  0
  188.0370  177.4130  145.8700 C   0  0  0  0  0  0  0  0  0  0  0  0
  186.6690  177.9020  146.0610 C   0  0  0  0  0  0  0  0  0  0  0  0
  192.2750  174.6060  142.6560 N   0  0  0  0  0  2  0  0  0  0  0  0
  187.7590  177.3410  143.2700 C   0  0  1  0  0  3  0  0  0  0  0  0
  189.9280  176.6340  144.3640 C   0  0  1  0  0  3  0  0  0  0  0  0
  190.8730  176.7060  147.8510 O   0  0  0  0  0  0  0  0  0  0  0  0
  190.4870  175.9380  145.6000 C   0  0  1  0  0  3  0  0  0  0  0  0
  193.2750  173.1890  144.6660 O   0  0  0  0  0  1  0  0  0  0  0  0
  186.3410  178.5150  147.1120 O   0  0  0  0  0  0  0  0  0  0  0  0
  188.4100  176.7620  144.5450 C   0  0  1  0  0  3  0  0  0  0  0  0
  192.0670  174.0180  144.3010 P   0  0  1  0  0  0  0  0  0  0  0  0
  193.2260  176.6320  145.4070 S   0  0  1  0  0  0  0  0  0  0  0  0
  194.5310  176.0120  146.4800 C   0  0  0  0  0  1  0  0  0  0  0  0
  193.8140  176.4880  144.0100 O   0  0  0  0  0  0  0  0  0  0  0  0
  1  5  1  0  0  0  0
  2 13  1  0  0  0  0
  6 15  1  6  0  0  0
  6 12  1  0  0  0  0
  7  6  1  0  0  0  0
  7 11  1  0  0  0  0
  9 28  1  6  0  0  0
  9 23  1  0  0  0  0
 10  3  1  0  0  0  0
 10 22  2  0  0  0  0
 11  8  1  1  0  0  0
 11  5  1  0  0  0  0
 12 19  1  0  0  0  0
 13 18  1  0  0  0  0
 16  1  2  0  0  0  0
 17 18  1  0  0  0  0
 17  3  2  0  0  0  0
 18 25  2  0  0  0  0
 19 27  1  0  0  0  0
 20  1  1  6  0  0  0
 20  2  1  0  0  0  0
 20 26  1  0  0  0  0
 21  4  1  1  0  0  0
 21 26  1  0  0  0  0
 21 23  1  0  0  0  0
 23 10  1  1  0  0  0
 26 17  1  1  0  0  0
 27 14  2  1  0  0  0
 27 24  1  0  0  0  0
 27  9  1  0  0  0  0
 28 29  1  1  0  0  0
 30 28  2  0  0  0  0
M  END
>  <MODEL>
1

>  <REMARK>
 VINA RESULT:      -8.0      0.000      0.000
  Name = 
  1 active torsions:
  status: ('A' for Active; 'I' for Inactive)
    1  A    between atoms: S_7  and  C_10
                            x       y       z     vdW  Elec       q    Type
                         _______ _______ _______ _____ _____    ______ ____

>  <TORSDO>
F 1

$$$$
=
 OpenBabel11052417243D

 30 32  0  0  1  0  0  0  0  0999 V2000
  190.7780  175.6070  146.5650 C   0  0  0  0  0  0  0  0  0  0  0  0
  188.0800  176.1640  146.8880 S   0  0  0  0  0  0  0  0  0  0  0  0
  187.9360  175.5840  142.4790 N   0  0  0  0  0  0  0  0  0  0  0  0
  189.3160  172.9980  144.0660 C   0  0  0  0  0  1  0  0  0  0  0  0
  191.8370  176.1750  145.7850 N   0  0  0  0  0  2  0  0  0  0  0  0
  194.2300  174.2840  145.1020 C   0  0  2  0  0  3  0  0  0  0  0  0
  193.8990  174.9730  146.4250 C   0  0  0  0  0  2  0  0  0  0  0  0
  193.9780  177.2740  145.3880 C   0  0  0  0  0  1  0  0  0  0  0  0
  191.1470  173.6260  141.4440 C   0  0  1  0  0  3  0  0  0  0  0  0
  188.8760  174.8500  141.6820 C   0  0  0  0  0  0  0  0  0  0  0  0
  193.1960  176.3290  146.2830 C   0  0  1  0  0  3  0  0  0  0  0  0
  192.9980  173.5720  144.5470 C   0  0  0  0  0  2  0  0  0  0  0  0
  187.6950  177.4590  145.6760 C   0  0  0  0  0  2  0  0  0  0  0  0
  193.2480  175.4260  142.2220 O   0  0  0  0  0  1  0  0  0  0  0  0
  195.3430  173.2860  145.3570 C   0  0  0  0  0  1  0  0  0  0  0  0
  190.9780  175.2910  147.7690 O   0  0  0  0  0  0  0  0  0  0  0  0
  188.1570  175.8880  143.7310 C   0  0  0  0  0  0  0  0  0  0  0  0
  187.2530  176.8190  144.4110 C   0  0  0  0  0  0  0  0  0  0  0  0
  193.3190  172.8280  143.3350 N   0  0  0  0  0  2  0  0  0  0  0  0
  189.4350  175.3450  145.9480 C   0  0  1  0  0  3  0  0  0  0  0  0
  190.1120  174.2670  143.7620 C   0  0  1  0  0  3  0  0  0  0  0  0
  188.5900  174.5410  140.4950 O   0  0  0  0  0  0  0  0  0  0  0  0
  190.2250  174.5370  142.2650 C   0  0  1  0  0  3  0  0  0  0  0  0
  193.7620  173.3330  140.7660 O   0  0  0  0  0  0  0  0  0  0  0  0
  186.1300  177.1090  143.9180 O   0  0  0  0  0  0  0  0  0  0  0  0
  189.4610  175.4950  144.4110 C   0  0  1  0  0  3  0  0  0  0  0  0
  192.9090  173.7950  141.9240 P   0  0  1  0  0  0  0  0  0  0  0  0
  190.5820  171.9070  141.2760 S   0  0  1  0  0  0  0  0  0  0  0  0
  190.4080  171.6630  139.5010 C   0  0  0  0  0  1  0  0  0  0  0  0
  191.7810  171.0420  141.6380 O   0  0  0  0  0  0  0  0  0  0  0  0
  1 16  2  0  0  0  0
  3 17  2  0  0  0  0
  5 11  1  0  0  0  0
  5  1  1  0  0  0  0
  6 15  1  1  0  0  0
  6  7  1  0  0  0  0
  9 28  1  1  0  0  0
  9 27  1  0  0  0  0
  9 23  1  0  0  0  0
 10  3  1  0  0  0  0
 11  8  1  6  0  0  0
 11  7  1  0  0  0  0
 12  6  1  0  0  0  0
 13  2  1  0  0  0  0
 17 18  1  0  0  0  0
 18 13  1  0  0  0  0
 19 12  1  0  0  0  0
 20  1  1  1  0  0  0
 20  2  1  0  0  0  0
 21  4  1  6  0  0  0
 21 26  1  0  0  0  0
 22 10  2  0  0  0  0
 23 10  1  6  0  0  0
 23 21  1  0  0  0  0
 25 18  2  0  0  0  0
 26 17  1  6  0  0  0
 26 20  1  0  0  0  0
 27 24  2  6  0  0  0
 27 14  1  0  0  0  0
 27 19  1  0  0  0  0
 28 29  1  6  0  0  0
 28 30  2  0  0  0  0
M  END
>  <MODEL>
2

>  <REMARK>
 VINA RESULT:      -6.9      2.534      5.331
  Name = 
  1 active torsions:
  status: ('A' for Active; 'I' for Inactive)
    1  A    between atoms: S_7  and  C_10
                            x       y       z     vdW  Elec       q    Type
                         _______ _______ _______ _____ _____    ______ ____

>  <TORSDO>
F 1

$$$$
=
 OpenBabel11052417243D

 30 32  0  0  1  0  0  0  0  0999 V2000
  189.9540  173.2450  143.3570 C   0  0  0  0  0  0  0  0  0  0  0  0
  189.9670  171.9130  140.9240 S   0  0  0  0  0  0  0  0  0  0  0  0
  193.4330  174.5620  140.0500 N   0  0  0  0  0  0  0  0  0  0  0  0
  193.8050  172.8650  142.8950 C   0  0  0  0  0  1  0  0  0  0  0  0
  189.8560  174.6200  143.7510 N   0  0  0  0  0  2  0  0  0  0  0  0
  191.0780  175.3580  146.5310 C   0  0  2  0  0  3  0  0  0  0  0  0
  189.7700  174.6330  146.2210 C   0  0  0  0  0  2  0  0  0  0  0  0
  188.8810  176.5630  144.8560 C   0  0  0  0  0  1  0  0  0  0  0  0
  194.7560  175.9310  143.4540 C   0  0  1  0  0  3  0  0  0  0  0  0
  194.2710  175.2200  141.0110 C   0  0  0  0  0  0  0  0  0  0  0  0
  189.0960  175.0610  144.9120 C   0  0  1  0  0  3  0  0  0  0  0  0
  192.2330  174.7360  145.7490 C   0  0  0  0  0  2  0  0  0  0  0  0
  189.9980  173.2070  139.6520 C   0  0  0  0  0  2  0  0  0  0  0  0
  192.4990  177.4080  144.4470 O   0  0  0  0  0  0  0  0  0  0  0  0
  191.3350  175.2490  148.0220 C   0  0  0  0  0  1  0  0  0  0  0  0
  189.2970  172.3620  143.9710 O   0  0  0  0  0  0  0  0  0  0  0  0
  192.3120  173.9740  140.3750 C   0  0  0  0  0  0  0  0  0  0  0  0
  191.4100  173.5170  139.3140 C   0  0  0  0  0  0  0  0  0  0  0  0
  193.5060  175.3510  146.1060 N   0  0  0  0  0  2  0  0  0  0  0  0
  190.8670  172.8390  142.2360 C   0  0  1  0  0  3  0  0  0  0  0  0
  192.9580  174.1360  142.8260 C   0  0  1  0  0  3  0  0  0  0  0  0
  195.3660  175.7260  140.6500 O   0  0  0  0  0  0  0  0  0  0  0  0
  193.7760  175.3580  142.4230 C   0  0  1  0  0  3  0  0  0  0  0  0
  194.8240  177.6010  145.5970 O   0  0  0  0  0  1  0  0  0  0  0  0
  191.8070  173.4220  138.1230 O   0  0  0  0  0  0  0  0  0  0  0  0
  191.8150  173.9820  141.8140 C   0  0  1  0  0  3  0  0  0  0  0  0
  193.9050  176.6020  144.9340 P   0  0  1  0  0  0  0  0  0  0  0  0
  196.1850  174.8740  143.8310 S   0  0  1  0  0  0  0  0  0  0  0  0
  197.6070  175.8270  143.2760 C   0  0  0  0  0  1  0  0  0  0  0  0
  196.3170  174.8850  145.3480 O   0  0  0  0  0  0  0  0  0  0  0  0
  1  5  1  0  0  0  0
  1 16  2  0  0  0  0
  3 17  2  0  0  0  0
  3 10  1  0  0  0  0
  5 11  1  0  0  0  0
  6 15  1  1  0  0  0
  7  6  1  0  0  0  0
  9 28  1  1  0  0  0
  9 27  1  0  0  0  0
 11  8  1  1  0  0  0
 11  7  1  0  0  0  0
 12 19  1  0  0  0  0
 12  6  1  0  0  0  0
 13  2  1  0  0  0  0
 18 13  1  0  0  0  0
 18 17  1  0  0  0  0
 20  2  1  6  0  0  0
 20  1  1  0  0  0  0
 21  4  1  6  0  0  0
 22 10  2  0  0  0  0
 23 10  1  6  0  0  0
 23 21  1  0  0  0  0
 23  9  1  0  0  0  0
 25 18  2  0  0  0  0
 26 17  1  6  0  0  0
 26 20  1  0  0  0  0
 26 21  1  0  0  0  0
 27 14  2  6  0  0  0
 27 24  1  0  0  0  0
 27 19  1  0  0  0  0
 28 29  1  6  0  0  0
 28 30  2  0  0  0  0
M  END
>  <MODEL>
3

>  <REMARK>
 VINA RESULT:      -6.9      3.181      6.098
  Name = 
  1 active torsions:
  status: ('A' for Active; 'I' for Inactive)
    1  A    between atoms: S_7  and  C_10
                            x       y       z     vdW  Elec       q    Type
                         _______ _______ _______ _____ _____    ______ ____

>  <TORSDO>
F 1

$$$$
=
 OpenBabel11052417243D

 30 32  0  0  1  0  0  0  0  0999 V2000
  189.3420  174.6380  143.5140 C   0  0  0  0  0  0  0  0  0  0  0  0
  188.7510  175.9360  145.8930 S   0  0  0  0  0  0  0  0  0  0  0  0
  193.1090  175.4720  146.6590 N   0  0  0  0  0  0  0  0  0  0  0  0
  192.4720  176.9490  143.7390 C   0  0  0  0  0  1  0  0  0  0  0  0
  189.9470  173.3830  143.1750 N   0  0  0  0  0  2  0  0  0  0  0  0
  191.2860  173.2040  140.3570 C   0  0  2  0  0  3  0  0  0  0  0  0
  189.8020  173.1800  140.7170 C   0  0  0  0  0  2  0  0  0  0  0  0
  190.0660  171.1520  142.1980 C   0  0  0  0  0  1  0  0  0  0  0  0
  194.8370  174.7640  143.2340 C   0  0  1  0  0  3  0  0  0  0  0  0
  194.1340  175.2760  145.6750 C   0  0  0  0  0  0  0  0  0  0  0  0
  189.4830  172.5490  142.0770 C   0  0  1  0  0  3  0  0  0  0  0  0
  191.9860  174.3720  141.0480 C   0  0  0  0  0  2  0  0  0  0  0  0
  189.4780  174.9160  147.2070 C   0  0  0  0  0  2  0  0  0  0  0  0
  193.6190  172.2890  142.4260 O   0  0  0  0  0  1  0  0  0  0  0  0
  191.4040  173.3380  138.8510 C   0  0  0  0  0  1  0  0  0  0  0  0
  188.3080  175.0260  142.9080 O   0  0  0  0  0  0  0  0  0  0  0  0
  191.8360  175.3880  146.3790 C   0  0  0  0  0  0  0  0  0  0  0  0
  190.8610  175.3870  147.4730 C   0  0  0  0  0  0  0  0  0  0  0  0
  193.3820  174.4680  140.6400 N   0  0  0  0  0  2  0  0  0  0  0  0
  189.9550  175.5180  144.5650 C   0  0  1  0  0  3  0  0  0  0  0  0
  192.3950  175.4310  143.9020 C   0  0  1  0  0  3  0  0  0  0  0  0
  195.3450  175.4190  145.9890 O   0  0  0  0  0  0  0  0  0  0  0  0
  193.7350  174.8210  144.3000 C   0  0  1  0  0  3  0  0  0  0  0  0
  195.6790  173.2360  141.1510 O   0  0  0  0  0  0  0  0  0  0  0  0
  191.1910  175.7410  148.6360 O   0  0  0  0  0  0  0  0  0  0  0  0
  191.3670  175.0430  144.9720 C   0  0  1  0  0  3  0  0  0  0  0  0
  194.4010  173.6670  141.8310 P   0  0  1  0  0  0  0  0  0  0  0  0
  195.5130  176.3760  142.7380 S   0  0  1  0  0  0  0  0  0  0  0  0
  197.2650  176.2700  143.1380 C   0  0  0  0  0  1  0  0  0  0  0  0
  195.4940  176.3800  141.2160 O   0  0  0  0  0  0  0  0  0  0  0  0
  2 13  1  0  0  0  0
  5  1  1  0  0  0  0
  6 15  1  6  0  0  0
  6  7  1  0  0  0  0
  6 12  1  0  0  0  0
  7 11  1  0  0  0  0
  9 28  1  6  0  0  0
  9 23  1  0  0  0  0
 10 22  2  0  0  0  0
 10  3  1  0  0  0  0
 11  8  1  6  0  0  0
 11  5  1  0  0  0  0
 13 18  1  0  0  0  0
 16  1  2  0  0  0  0
 17  3  2  0  0  0  0
 17 18  1  0  0  0  0
 18 25  2  0  0  0  0
 19 12  1  0  0  0  0
 19 27  1  0  0  0  0
 20  1  1  1  0  0  0
 20 26  1  0  0  0  0
 20  2  1  0  0  0  0
 21  4  1  1  0  0  0
 21 23  1  0  0  0  0
 21 26  1  0  0  0  0
 23 10  1  1  0  0  0
 26 17  1  1  0  0  0
 27 24  2  6  0  0  0
 27 14  1  0  0  0  0
 27  9  1  0  0  0  0
 28 29  1  6  0  0  0
 30 28  2  0  0  0  0
M  END
>  <MODEL>
4

>  <REMARK>
 VINA RESULT:      -6.6      2.829      3.568
  Name = 
  1 active torsions:
  status: ('A' for Active; 'I' for Inactive)
    1  A    between atoms: S_7  and  C_10
                            x       y       z     vdW  Elec       q    Type
                         _______ _______ _______ _____ _____    ______ ____

>  <TORSDO>
F 1

$$$$
=
 OpenBabel11052417243D

 30 32  0  0  1  0  0  0  0  0999 V2000
  191.9910  176.0910  146.0470 C   0  0  0  0  0  0  0  0  0  0  0  0
  189.4040  177.0870  146.1530 S   0  0  0  0  0  0  0  0  0  0  0  0
  188.9750  175.0280  142.2320 N   0  0  0  0  0  0  0  0  0  0  0  0
  190.0910  172.9970  144.6300 C   0  0  0  0  0  1  0  0  0  0  0  0
  193.0750  176.2010  145.1160 N   0  0  0  0  0  2  0  0  0  0  0  0
  195.1720  173.8850  145.1440 C   0  0  2  0  0  3  0  0  0  0  0  0
  194.9960  175.0310  146.1390 C   0  0  0  0  0  2  0  0  0  0  0  0
  195.3160  176.7910  144.3560 C   0  0  0  0  0  1  0  0  0  0  0  0
  191.8590  172.4140  141.9540 C   0  0  1  0  0  3  0  0  0  0  0  0
  189.7750  173.9410  141.7450 C   0  0  0  0  0  0  0  0  0  0  0  0
  194.4650  176.3330  145.5270 C   0  0  1  0  0  3  0  0  0  0  0  0
  193.8350  173.1980  144.8760 C   0  0  0  0  0  2  0  0  0  0  0  0
  189.1280  177.9160  144.5620 C   0  0  0  0  0  2  0  0  0  0  0  0
  194.2060  174.0700  142.0460 O   0  0  0  0  0  1  0  0  0  0  0  0
  196.1610  172.8970  145.7340 C   0  0  0  0  0  1  0  0  0  0  0  0
  192.2070  176.1920  147.2850 O   0  0  0  0  0  0  0  0  0  0  0  0
  189.2930  175.7170  143.2960 C   0  0  0  0  0  0  0  0  0  0  0  0
  188.5490  176.9410  143.6040 C   0  0  0  0  0  0  0  0  0  0  0  0
  194.0000  172.0410  144.0050 N   0  0  0  0  0  2  0  0  0  0  0  0
  190.5970  175.8150  145.5620 C   0  0  1  0  0  3  0  0  0  0  0  0
  191.0260  173.9590  143.8960 C   0  0  1  0  0  3  0  0  0  0  0  0
  189.3950  173.2780  140.7440 O   0  0  0  0  0  0  0  0  0  0  0  0
  191.1000  173.6710  142.4010 C   0  0  1  0  0  3  0  0  0  0  0  0
  194.3790  171.5510  141.4220 O   0  0  0  0  0  0  0  0  0  0  0  0
  187.4500  177.1900  143.0410 O   0  0  0  0  0  0  0  0  0  0  0  0
  190.5680  175.4130  144.0710 C   0  0  1  0  0  3  0  0  0  0  0  0
  193.6480  172.5000  142.3430 P   0  0  1  0  0  0  0  0  0  0  0  0
  191.0720  170.8390  142.4030 S   0  0  1  0  0  0  0  0  0  0  0  0
  190.8170  170.0010  140.8310 C   0  0  0  0  0  1  0  0  0  0  0  0
  192.1600  170.0130  143.0760 O   0  0  0  0  0  0  0  0  0  0  0  0
  1 16  2  0  0  0  0
  3 17  2  0  0  0  0
  5 11  1  0  0  0  0
  5  1  1  0  0  0  0
  6 15  1  1  0  0  0
  6  7  1  0  0  0  0
  9 27  1  0  0  0  0
  9 23  1  0  0  0  0
  9 28  1  1  0  0  0
 10  3  1  0  0  0  0
 11  8  1  6  0  0  0
 11  7  1  0  0  0  0
 12  6  1  0  0  0  0
 13  2  1  0  0  0  0
 14 27  1  0  0  0  0
 17 18  1  0  0  0  0
 18 13  1  0  0  0  0
 19 12  1  0  0  0  0
 20  1  1  6  0  0  0
 20  2  1  0  0  0  0
 21 26  1  0  0  0  0
 21  4  1  1  0  0  0
 22 10  2  0  0  0  0
 23 10  1  1  0  0  0
 23 21  1  0  0  0  0
 25 18  2  0  0  0  0
 26 17  1  1  0  0  0
 26 20  1  0  0  0  0
 27 24  2  6  0  0  0
 27 19  1  0  0  0  0
 28 29  1  6  0  0  0
 28 30  2  0  0  0  0
M  END
>  <MODEL>
5

>  <REMARK>
 VINA RESULT:      -6.5      2.758      5.695
  Name = 
  1 active torsions:
  status: ('A' for Active; 'I' for Inactive)
    1  A    between atoms: S_7  and  C_10
                            x       y       z     vdW  Elec       q    Type
                         _______ _______ _______ _____ _____    ______ ____

>  <TORSDO>
F 1

$$$$
=
 OpenBabel11052417243D

 30 32  0  0  1  0  0  0  0  0999 V2000
  189.7580  175.7870  145.0680 C   0  0  0  0  0  0  0  0  0  0  0  0
  187.2130  176.6940  144.4410 S   0  0  0  0  0  0  0  0  0  0  0  0
  188.1960  175.1540  140.3840 N   0  0  0  0  0  0  0  0  0  0  0  0
  188.6190  172.8570  142.7630 C   0  0  0  0  0  1  0  0  0  0  0  0
  191.0730  176.0450  144.5590 N   0  0  0  0  0  2  0  0  0  0  0  0
  193.2000  173.7980  145.0010 C   0  0  2  0  0  3  0  0  0  0  0  0
  192.6390  174.8000  146.0090 C   0  0  0  0  0  2  0  0  0  0  0  0
  193.3950  176.7850  144.6430 C   0  0  0  0  0  1  0  0  0  0  0  0
  191.1830  172.6730  140.7600 C   0  0  1  0  0  3  0  0  0  0  0  0
  189.1800  174.1610  140.0620 C   0  0  0  0  0  0  0  0  0  0  0  0
  192.2470  176.1570  145.4130 C   0  0  1  0  0  3  0  0  0  0  0  0
  192.0660  173.1180  144.2360 C   0  0  0  0  0  2  0  0  0  0  0  0
  187.4060  177.7170  142.9530 C   0  0  0  0  0  2  0  0  0  0  0  0
  193.2640  174.3620  141.8010 O   0  0  0  0  0  1  0  0  0  0  0  0
  194.0110  172.7670  145.7630 C   0  0  0  0  0  1  0  0  0  0  0  0
  189.5600  175.7300  146.3110 O   0  0  0  0  0  0  0  0  0  0  0  0
  188.1110  175.7060  141.5650 C   0  0  0  0  0  0  0  0  0  0  0  0
  187.2280  176.8600  141.7540 C   0  0  0  0  0  0  0  0  0  0  0  0
  192.5770  172.0900  143.3380 N   0  0  0  0  0  2  0  0  0  0  0  0
  188.6130  175.5410  144.1270 C   0  0  1  0  0  3  0  0  0  0  0  0
  189.6730  173.9300  142.4900 C   0  0  1  0  0  3  0  0  0  0  0  0
  189.1840  173.6250  138.9220 O   0  0  0  0  0  0  0  0  0  0  0  0
  190.2400  173.8410  141.0770 C   0  0  1  0  0  3  0  0  0  0  0  0
  193.7930  171.9510  140.9810 O   0  0  0  0  0  0  0  0  0  0  0  0
  186.3520  177.1530  140.8960 O   0  0  0  0  0  0  0  0  0  0  0  0
  189.0890  175.3360  142.6720 C   0  0  1  0  0  3  0  0  0  0  0  0
  192.7450  172.7530  141.7160 P   0  0  1  0  0  0  0  0  0  0  0  0
  190.4010  171.0330  140.7440 S   0  0  1  0  0  0  0  0  0  0  0  0
  190.6240  170.4460  139.0580 C   0  0  0  0  0  1  0  0  0  0  0  0
  191.3170  170.1320  141.5600 O   0  0  0  0  0  0  0  0  0  0  0  0
  1 16  2  0  0  0  0
  3 17  2  0  0  0  0
  5  1  1  0  0  0  0
  5 11  1  0  0  0  0
  6 15  1  1  0  0  0
  6  7  1  0  0  0  0
  9 28  1  1  0  0  0
  9 23  1  0  0  0  0
  9 27  1  0  0  0  0
 10  3  1  0  0  0  0
 11  8  1  6  0  0  0
 11  7  1  0  0  0  0
 12  6  1  0  0  0  0
 13  2  1  0  0  0  0
 17 18  1  0  0  0  0
 18 13  1  0  0  0  0
 19 12  1  0  0  0  0
 20  2  1  6  0  0  0
 20  1  1  0  0  0  0
 21 26  1  0  0  0  0
 21  4  1  6  0  0  0
 22 10  2  0  0  0  0
 23 10  1  6  0  0  0
 23 21  1  0  0  0  0
 25 18  2  0  0  0  0
 26 17  1  6  0  0  0
 26 20  1  0  0  0  0
 27 24  2  6  0  0  0
 27 14  1  0  0  0  0
 27 19  1  0  0  0  0
 28 29  1  6  0  0  0
 28 30  2  0  0  0  0
M  END
>  <MODEL>
6

>  <REMARK>
 VINA RESULT:      -6.5      2.650      5.559
  Name = 
  1 active torsions:
  status: ('A' for Active; 'I' for Inactive)
    1  A    between atoms: S_7  and  C_10
                            x       y       z     vdW  Elec       q    Type
                         _______ _______ _______ _____ _____    ______ ____

>  <TORSDO>
F 1

$$$$
=
 OpenBabel11052417243D

 30 32  0  0  1  0  0  0  0  0999 V2000
  187.9900  177.1580  143.5410 C   0  0  0  0  0  0  0  0  0  0  0  0
  185.7850  177.4280  141.8800 S   0  0  0  0  0  0  0  0  0  0  0  0
  188.1220  174.7880  139.1660 N   0  0  0  0  0  0  0  0  0  0  0  0
  187.7740  173.4980  142.2200 C   0  0  0  0  0  1  0  0  0  0  0  0
  189.3920  177.4210  143.4040 N   0  0  0  0  0  2  0  0  0  0  0  0
  191.3010  175.7810  145.2560 C   0  0  2  0  0  3  0  0  0  0  0  0
  190.4070  176.9680  145.6110 C   0  0  0  0  0  2  0  0  0  0  0  0
  191.5290  178.4740  143.9230 C   0  0  0  0  0  1  0  0  0  0  0  0
  190.8680  173.0330  141.3090 C   0  0  1  0  0  3  0  0  0  0  0  0
  189.1820  173.8980  139.5420 C   0  0  0  0  0  0  0  0  0  0  0  0
  190.2050  177.9780  144.4750 C   0  0  1  0  0  3  0  0  0  0  0  0
  190.5110  174.7290  144.4800 C   0  0  0  0  0  2  0  0  0  0  0  0
  186.4430  177.9150  140.2600 C   0  0  0  0  0  2  0  0  0  0  0  0
  192.4300  175.2530  142.2550 O   0  0  0  0  0  0  0  0  0  0  0  0
  191.8330  175.1900  146.5480 C   0  0  0  0  0  1  0  0  0  0  0  0
  187.3840  177.4900  144.5960 O   0  0  0  0  0  0  0  0  0  0  0  0
  187.6280  175.6830  139.9810 C   0  0  0  0  0  0  0  0  0  0  0  0
  186.7040  176.6930  139.4590 C   0  0  0  0  0  0  0  0  0  0  0  0
  191.3220  173.5460  144.2180 N   0  0  0  0  0  2  0  0  0  0  0  0
  187.2380  176.4520  142.4500 C   0  0  1  0  0  3  0  0  0  0  0  0
  188.8300  174.5600  141.9160 C   0  0  1  0  0  3  0  0  0  0  0  0
  189.5850  173.0210  138.7340 O   0  0  0  0  0  0  0  0  0  0  0  0
  189.8440  174.0910  140.8770 C   0  0  1  0  0  3  0  0  0  0  0  0
  193.2670  172.8110  142.5650 O   0  0  0  0  0  1  0  0  0  0  0  0
  186.1630  176.5550  138.3290 O   0  0  0  0  0  0  0  0  0  0  0  0
  188.1830  175.8470  141.3890 C   0  0  1  0  0  3  0  0  0  0  0  0
  192.0120  173.6500  142.6020 P   0  0  1  0  0  0  0  0  0  0  0  0
  190.1790  171.3860  141.6470 S   0  0  1  0  0  0  0  0  0  0  0  0
  191.0030  170.3040  140.4680 C   0  0  0  0  0  1  0  0  0  0  0  0
  190.7630  170.9620  142.9880 O   0  0  0  0  0  0  0  0  0  0  0  0
  1 16  2  0  0  0  0
  3 10  1  0  0  0  0
  3 17  2  0  0  0  0
  5  1  1  0  0  0  0
  5 11  1  0  0  0  0
  6  7  1  0  0  0  0
  6 15  1  1  0  0  0
  9 28  1  1  0  0  0
  9 27  1  0  0  0  0
 11  8  1  6  0  0  0
 11  7  1  0  0  0  0
 12  6  1  0  0  0  0
 13  2  1  0  0  0  0
 18 17  1  0  0  0  0
 18 13  1  0  0  0  0
 19 12  1  0  0  0  0
 20  2  1  6  0  0  0
 20  1  1  0  0  0  0
 21  4  1  6  0  0  0
 22 10  2  0  0  0  0
 23 10  1  6  0  0  0
 23  9  1  0  0  0  0
 23 21  1  0  0  0  0
 24 27  1  0  0  0  0
 25 18  2  0  0  0  0
 26 17  1  6  0  0  0
 26 21  1  0  0  0  0
 26 20  1  0  0  0  0
 27 14  2  6  0  0  0
 27 19  1  0  0  0  0
 28 29  1  6  0  0  0
 28 30  2  0  0  0  0
M  END
>  <MODEL>
7

>  <REMARK>
 VINA RESULT:      -6.4      2.495      5.593
  Name = 
  1 active torsions:
  status: ('A' for Active; 'I' for Inactive)
    1  A    between atoms: S_7  and  C_10
                            x       y       z     vdW  Elec       q    Type
                         _______ _______ _______ _____ _____    ______ ____

>  <TORSDO>
F 1

$$$$
=
 OpenBabel11052417243D

 30 32  0  0  1  0  0  0  0  0999 V2000
  188.2950  174.5580  141.6740 C   0  0  0  0  0  0  0  0  0  0  0  0
  188.5400  172.6660  139.6610 S   0  0  0  0  0  0  0  0  0  0  0  0
  192.8980  173.3950  140.1800 N   0  0  0  0  0  0  0  0  0  0  0  0
  191.3810  172.6120  143.0440 C   0  0  0  0  0  1  0  0  0  0  0  0
  188.7270  175.9150  141.8390 N   0  0  0  0  0  2  0  0  0  0  0  0
  189.0720  176.9170  144.7790 C   0  0  2  0  0  3  0  0  0  0  0  0
  187.7850  176.6920  143.9870 C   0  0  0  0  0  2  0  0  0  0  0  0
  188.4690  178.3160  142.1780 C   0  0  0  0  0  1  0  0  0  0  0  0
  193.4010  175.0960  143.6550 C   0  0  1  0  0  3  0  0  0  0  0  0
  193.5430  173.9340  141.3430 C   0  0  0  0  0  0  0  0  0  0  0  0
  187.9110  176.9370  142.4780 C   0  0  1  0  0  3  0  0  0  0  0  0
  189.9860  175.6980  144.6720 C   0  0  0  0  0  2  0  0  0  0  0  0
  189.6310  173.4080  138.4150 C   0  0  0  0  0  2  0  0  0  0  0  0
  191.9290  177.5470  143.3630 O   0  0  0  0  0  0  0  0  0  0  0  0
  188.6970  177.1660  146.2270 C   0  0  0  0  0  1  0  0  0  0  0  0
  187.1290  174.2200  142.0130 O   0  0  0  0  0  0  0  0  0  0  0  0
  191.6010  173.4070  140.0220 C   0  0  0  0  0  0  0  0  0  0  0  0
  191.0350  173.0380  138.7220 C   0  0  0  0  0  0  0  0  0  0  0  0
  191.1760  175.8540  145.4990 N   0  0  0  0  0  2  0  0  0  0  0  0
  189.2370  173.5200  141.1360 C   0  0  1  0  0  3  0  0  0  0  0  0
  191.3260  174.0280  142.4700 C   0  0  1  0  0  3  0  0  0  0  0  0
  194.7930  173.8500  141.4660 O   0  0  0  0  0  0  0  0  0  0  0  0
  192.7070  174.6640  142.3560 C   0  0  1  0  0  3  0  0  0  0  0  0
  193.4840  177.1660  145.4130 O   0  0  0  0  0  1  0  0  0  0  0  0
  191.7340  172.4490  137.8550 O   0  0  0  0  0  0  0  0  0  0  0  0
  190.6930  174.0320  141.0720 C   0  0  1  0  0  3  0  0  0  0  0  0
  192.5070  176.4470  144.5120 P   0  0  1  0  0  0  0  0  0  0  0  0
  193.9170  173.7350  144.7430 S   0  0  1  0  0  0  0  0  0  0  0  0
  195.6930  173.9590  144.9300 C   0  0  0  0  0  1  0  0  0  0  0  0
  193.3670  174.0780  146.1200 O   0  0  0  0  0  0  0  0  0  0  0  0
  1  5  1  0  0  0  0
  1 16  2  0  0  0  0
  3 10  1  0  0  0  0
  5 11  1  0  0  0  0
  6 15  1  1  0  0  0
  7  6  1  0  0  0  0
  9 27  1  0  0  0  0
  9 28  1  1  0  0  0
 10 22  2  0  0  0  0
 11  8  1  1  0  0  0
 11  7  1  0  0  0  0
 12  6  1  0  0  0  0
 12 19  1  0  0  0  0
 13 18  1  0  0  0  0
 13  2  1  0  0  0  0
 17  3  2  0  0  0  0
 18 17  1  0  0  0  0
 20  2  1  6  0  0  0
 20  1  1  0  0  0  0
 21  4  1  6  0  0  0
 23 10  1  1  0  0  0
 23 21  1  0  0  0  0
 23  9  1  0  0  0  0
 25 18  2  0  0  0  0
 26 17  1  6  0  0  0
 26 20  1  0  0  0  0
 26 21  1  0  0  0  0
 27 14  2  6  0  0  0
 27 24  1  0  0  0  0
 27 19  1  0  0  0  0
 28 29  1  1  0  0  0
 28 30  2  0  0  0  0
M  END
>  <MODEL>
8

>  <REMARK>
 VINA RESULT:      -6.4      2.645      5.768
  Name = 
  1 active torsions:
  status: ('A' for Active; 'I' for Inactive)
    1  A    between atoms: S_7  and  C_10
                            x       y       z     vdW  Elec       q    Type
                         _______ _______ _______ _____ _____    ______ ____

>  <TORSDO>
F 1

$$$$
=
 OpenBabel11052417243D

 30 32  0  0  1  0  0  0  0  0999 V2000
  194.6590  175.4390  144.4990 C   0  0  0  0  0  0  0  0  0  0  0  0
  197.1210  174.1890  144.7620 S   0  0  0  0  0  0  0  0  0  0  0  0
  194.6920  170.4630  144.6500 N   0  0  0  0  0  0  0  0  0  0  0  0
  194.0930  172.4610  142.0490 C   0  0  0  0  0  1  0  0  0  0  0  0
  193.4350  175.4200  145.2460 N   0  0  0  0  0  2  0  0  0  0  0  0
  190.8360  176.1530  143.6730 C   0  0  2  0  0  3  0  0  0  0  0  0
  191.9420  177.0760  144.1810 C   0  0  0  0  0  2  0  0  0  0  0  0
  191.6170  176.3500  146.5780 C   0  0  0  0  0  1  0  0  0  0  0  0
  191.2170  171.3700  143.1260 C   0  0  1  0  0  3  0  0  0  0  0  0
  193.3760  170.3170  144.0980 C   0  0  0  0  0  0  0  0  0  0  0  0
  192.6250  176.6070  145.4720 C   0  0  1  0  0  3  0  0  0  0  0  0
  191.4330  174.9710  142.9120 C   0  0  0  0  0  2  0  0  0  0  0  0
  196.9380  173.0200  146.1380 C   0  0  0  0  0  2  0  0  0  0  0  0
  190.1850  173.2680  145.0220 O   0  0  0  0  0  1  0  0  0  0  0  0
  189.9300  176.9600  142.7630 C   0  0  0  0  0  1  0  0  0  0  0  0
  195.1250  176.5300  144.0750 O   0  0  0  0  0  0  0  0  0  0  0  0
  195.2540  171.6290  144.8360 C   0  0  0  0  0  0  0  0  0  0  0  0
  196.5020  171.7070  145.5990 C   0  0  0  0  0  0  0  0  0  0  0  0
  190.3900  174.1310  142.3370 N   0  0  0  0  0  2  0  0  0  0  0  0
  195.3750  174.1580  144.1810 C   0  0  1  0  0  3  0  0  0  0  0  0
  193.4490  172.7080  143.4130 C   0  0  1  0  0  3  0  0  0  0  0  0
  192.9030  169.1680  143.8930 O   0  0  0  0  0  0  0  0  0  0  0  0
  192.5570  171.5520  143.8520 C   0  0  1  0  0  3  0  0  0  0  0  0
  188.6600  172.2890  143.1560 O   0  0  0  0  0  0  0  0  0  0  0  0
  197.1840  170.6740  145.8340 O   0  0  0  0  0  0  0  0  0  0  0  0
  194.5140  172.9150  144.4970 C   0  0  1  0  0  3  0  0  0  0  0  0
  190.0700  172.7720  143.4080 P   0  0  1  0  0  0  0  0  0  0  0  0
  191.3470  170.8490  141.3890 S   0  0  1  0  0  0  0  0  0  0  0  0
  190.8160  169.1290  141.3960 C   0  0  0  0  0  1  0  0  0  0  0  0
  190.2200  171.5670  140.6600 O   0  0  0  0  0  0  0  0  0  0  0  0
  1  5  1  0  0  0  0
  2 13  1  0  0  0  0
  3 17  2  0  0  0  0
  5 11  1  0  0  0  0
  6 15  1  6  0  0  0
  6  7  1  0  0  0  0
  7 11  1  0  0  0  0
  9 28  1  6  0  0  0
  9 27  1  0  0  0  0
  9 23  1  0  0  0  0
 10  3  1  0  0  0  0
 11  8  1  1  0  0  0
 12  6  1  0  0  0  0
 16  1  2  0  0  0  0
 17 18  1  0  0  0  0
 18 25  2  0  0  0  0
 18 13  1  0  0  0  0
 19 12  1  0  0  0  0
 19 27  1  0  0  0  0
 20 26  1  0  0  0  0
 20  1  1  1  0  0  0
 20  2  1  0  0  0  0
 21  4  1  6  0  0  0
 21 23  1  0  0  0  0
 21 26  1  0  0  0  0
 22 10  2  0  0  0  0
 23 10  1  6  0  0  0
 26 17  1  6  0  0  0
 27 24  2  6  0  0  0
 27 14  1  0  0  0  0
 28 29  1  1  0  0  0
 30 28  2  0  0  0  0
M  END
>  <MODEL>
9

>  <REMARK>
 VINA RESULT:      -6.3      3.681      7.543
  Name = 
  1 active torsions:
  status: ('A' for Active; 'I' for Inactive)
    1  A    between atoms: S_7  and  C_10
                            x       y       z     vdW  Elec       q    Type
                         _______ _______ _______ _____ _____    ______ ____

>  <TORSDO>
F 1

$$$$
