=
 OpenBabel11052417343D

 25 28  0  0  1  0  0  0  0  0999 V2000
  185.9020  177.5450  143.2650 N   0  0  0  0  0  0  0  0  0  0  0  0
  186.3680  177.1590  144.4840 C   0  0  0  0  0  0  0  0  0  0  0  0
  184.2550  179.0030  144.1890 C   0  0  0  0  0  3  0  0  0  0  0  0
  186.2610  177.2180  142.0170 C   0  0  0  0  0  0  0  0  0  0  0  0
  186.6510  176.8720  139.3320 C   0  0  0  0  0  3  0  0  0  0  0  0
  184.6950  178.6280  145.4670 C   0  0  0  0  0  3  0  0  0  0  0  0
  185.4750  177.9000  141.1350 C   0  0  0  0  0  0  0  0  0  0  0  0
  185.6410  177.7530  139.7630 C   0  0  0  0  0  3  0  0  0  0  0  0
  186.2180  177.3360  146.9420 N   0  0  0  0  0  0  0  0  0  0  0  0
  185.7710  178.0440  148.1310 C   0  0  0  0  0  1  0  0  0  0  0  0
  187.4730  176.1420  144.6160 C   0  0  0  0  0  2  0  0  0  0  0  0
  187.4440  176.1850  140.2820 C   0  0  0  0  0  3  0  0  0  0  0  0
  184.8920  178.4300  143.0930 C   0  0  0  0  0  0  0  0  0  0  0  0
  184.5890  178.6830  141.7900 N   0  0  0  0  0  0  0  0  0  0  0  0
  187.1770  176.2460  147.1100 C   0  0  0  0  0  2  0  0  0  0  0  0
  187.2410  176.3660  141.6230 N   0  0  0  0  0  0  0  0  0  0  0  0
  188.1910  176.2240  145.9660 C   0  0  2  0  0  3  0  0  0  0  0  0
  185.7470  177.7000  145.6310 C   0  0  0  0  0  0  0  0  0  0  0  0
  189.0910  177.4130  146.0230 C   0  0  0  0  0  3  0  0  0  0  0  0
  190.1370  177.4780  145.2490 C   0  0  0  0  0  0  0  0  0  0  0  0
  191.1860  177.5390  144.4740 C   0  0  0  0  0  0  0  0  0  0  0  0
  191.3040  178.6700  143.5110 C   0  0  0  0  0  1  0  0  0  0  0  0
  192.2240  176.4970  144.5370 C   0  0  0  0  0  0  0  0  0  0  0  0
  193.5690  176.8450  144.6210 O   0  0  0  0  0  1  0  0  0  0  0  0
  191.9040  175.2800  144.5140 O   0  0  0  0  0  0  0  0  0  0  0  0
  1  2  1  0  0  0  0
  2 11  1  0  0  0  0
  2 18  2  0  0  0  0
  3  6  2  0  0  0  0
  4  1  1  0  0  0  0
  5  8  2  0  0  0  0
  5 12  1  0  0  0  0
  6 18  1  0  0  0  0
  7 14  1  0  0  0  0
  7  4  2  0  0  0  0
  8  7  1  0  0  0  0
  9 15  1  0  0  0  0
  9 10  1  0  0  0  0
 11 17  1  0  0  0  0
 12 16  2  0  0  0  0
 13  1  1  0  0  0  0
 13  3  1  0  0  0  0
 14 13  2  0  0  0  0
 16  4  1  0  0  0  0
 17 19  1  6  0  0  0
 17 15  1  0  0  0  0
 18  9  1  0  0  0  0
 20 19  2  0  0  0  0
 21 23  1  0  0  0  0
 21 20  2  0  0  0  0
 22 21  1  0  0  0  0
 23 24  1  0  0  0  0
 25 23  2  0  0  0  0
M  END
>  <MODEL>
1

>  <REMARK>
 VINA RESULT:      -7.4      0.000      0.000
  Name = 
  2 active torsions:
  status: ('A' for Active; 'I' for Inactive)
    1  A    between atoms: C_2  and  C_21
    2  A    between atoms: C_6  and  C_23
                            x       y       z     vdW  Elec       q    Type
                         _______ _______ _______ _____ _____    ______ ____

>  <TORSDO>
F 2

$$$$
=
 OpenBabel11052417343D

 25 28  0  0  1  0  0  0  0  0999 V2000
  186.6880  177.4310  143.2800 N   0  0  0  0  0  0  0  0  0  0  0  0
  186.8320  177.3230  144.6290 C   0  0  0  0  0  0  0  0  0  0  0  0
  185.4190  179.4470  143.4280 C   0  0  0  0  0  3  0  0  0  0  0  0
  187.1180  176.6740  142.2620 C   0  0  0  0  0  0  0  0  0  0  0  0
  187.7880  175.4690  139.9010 C   0  0  0  0  0  3  0  0  0  0  0  0
  185.5340  179.3720  144.8230 C   0  0  0  0  0  3  0  0  0  0  0  0
  186.7070  177.2340  141.0880 C   0  0  0  0  0  0  0  0  0  0  0  0
  187.0260  176.6530  139.8660 C   0  0  0  0  0  3  0  0  0  0  0  0
  186.3740  178.2480  146.8720 N   0  0  0  0  0  0  0  0  0  0  0  0
  185.9800  179.3610  147.7210 C   0  0  0  0  0  1  0  0  0  0  0  0
  187.5590  176.1570  145.2490 C   0  0  0  0  0  2  0  0  0  0  0  0
  188.1940  174.9250  141.1420 C   0  0  0  0  0  3  0  0  0  0  0  0
  186.0180  178.4410  142.6750 C   0  0  0  0  0  0  0  0  0  0  0  0
  186.0010  178.3630  141.3170 N   0  0  0  0  0  0  0  0  0  0  0  0
  186.9360  177.0600  147.5110 C   0  0  0  0  0  2  0  0  0  0  0  0
  187.8540  175.5360  142.3180 N   0  0  0  0  0  0  0  0  0  0  0  0
  188.0590  176.4600  146.6640 C   0  0  2  0  0  3  0  0  0  0  0  0
  186.2310  178.3110  145.4400 C   0  0  0  0  0  0  0  0  0  0  0  0
  189.2480  177.3610  146.6320 C   0  0  0  0  0  3  0  0  0  0  0  0
  190.0780  177.3100  145.6290 C   0  0  0  0  0  0  0  0  0  0  0  0
  190.9100  177.2550  144.6250 C   0  0  0  0  0  0  0  0  0  0  0  0
  191.1340  178.4810  143.8080 C   0  0  0  0  0  1  0  0  0  0  0  0
  191.6020  175.9980  144.2940 C   0  0  0  0  0  0  0  0  0  0  0  0
  192.9850  175.9730  144.1370 O   0  0  0  0  0  0  0  0  0  0  0  0
  190.9470  174.9330  144.1490 O   0  0  0  0  0  1  0  0  0  0  0  0
  1  2  1  0  0  0  0
  2 11  1  0  0  0  0
  2 18  2  0  0  0  0
  3  6  2  0  0  0  0
  4 16  1  0  0  0  0
  4  1  1  0  0  0  0
  5 12  1  0  0  0  0
  6 18  1  0  0  0  0
  7 14  1  0  0  0  0
  7  4  2  0  0  0  0
  8  5  2  0  0  0  0
  8  7  1  0  0  0  0
  9 15  1  0  0  0  0
  9 10  1  0  0  0  0
 11 17  1  0  0  0  0
 12 16  2  0  0  0  0
 13  1  1  0  0  0  0
 13  3  1  0  0  0  0
 14 13  2  0  0  0  0
 17 19  1  6  0  0  0
 17 15  1  0  0  0  0
 18  9  1  0  0  0  0
 20 19  2  0  0  0  0
 21 20  2  0  0  0  0
 22 21  1  0  0  0  0
 23 21  1  0  0  0  0
 24 23  2  0  0  0  0
 25 23  1  0  0  0  0
M  END
>  <MODEL>
2

>  <REMARK>
 VINA RESULT:      -7.3      1.032      1.133
  Name = 
  2 active torsions:
  status: ('A' for Active; 'I' for Inactive)
    1  A    between atoms: C_2  and  C_21
    2  A    between atoms: C_6  and  C_23
                            x       y       z     vdW  Elec       q    Type
                         _______ _______ _______ _____ _____    ______ ____

>  <TORSDO>
F 2

$$$$
=
 OpenBabel11052417343D

 25 28  0  0  1  0  0  0  0  0999 V2000
  188.2450  176.6820  145.2770 N   0  0  0  0  0  0  0  0  0  0  0  0
  187.7640  177.2100  144.1180 C   0  0  0  0  0  0  0  0  0  0  0  0
  186.1010  176.6370  146.3220 C   0  0  0  0  0  3  0  0  0  0  0  0
  189.4770  176.3210  145.6610 C   0  0  0  0  0  0  0  0  0  0  0  0
  191.7710  175.4390  146.8600 C   0  0  0  0  0  3  0  0  0  0  0  0
  185.5610  177.1890  145.1520 C   0  0  0  0  0  3  0  0  0  0  0  0
  189.4190  175.8310  146.9340 C   0  0  0  0  0  0  0  0  0  0  0  0
  190.5610  175.3730  147.5780 C   0  0  0  0  0  3  0  0  0  0  0  0
  185.8240  178.0290  142.8300 N   0  0  0  0  0  0  0  0  0  0  0  0
  184.3860  178.1070  142.6270 C   0  0  0  0  0  1  0  0  0  0  0  0
  188.6800  177.5430  142.9680 C   0  0  0  0  0  2  0  0  0  0  0  0
  191.7840  175.9530  145.5420 C   0  0  0  0  0  3  0  0  0  0  0  0
  187.4710  176.3940  146.3500 C   0  0  0  0  0  0  0  0  0  0  0  0
  188.1520  175.8640  147.4020 N   0  0  0  0  0  0  0  0  0  0  0  0
  186.6970  178.5050  141.7590 C   0  0  0  0  0  2  0  0  0  0  0  0
  190.6300  176.3910  144.9510 N   0  0  0  0  0  0  0  0  0  0  0  0
  187.9400  177.6230  141.6300 C   0  0  2  0  0  3  0  0  0  0  0  0
  186.3820  177.4880  144.0430 C   0  0  0  0  0  0  0  0  0  0  0  0
  187.5840  176.2620  141.1320 C   0  0  0  0  0  3  0  0  0  0  0  0
  188.3520  175.2460  141.4060 C   0  0  0  0  0  0  0  0  0  0  0  0
  189.1240  174.2290  141.6800 C   0  0  0  0  0  0  0  0  0  0  0  0
  188.5550  173.0760  142.4330 C   0  0  0  0  0  1  0  0  0  0  0  0
  190.5370  174.2310  141.2680 C   0  0  0  0  0  0  0  0  0  0  0  0
  190.9440  173.5300  140.1360 O   0  0  0  0  0  0  0  0  0  0  0  0
  191.3930  174.8660  141.9390 O   0  0  0  0  0  1  0  0  0  0  0  0
  1  4  1  0  0  0  0
  1 13  1  0  0  0  0
  2  1  1  0  0  0  0
  3 13  1  0  0  0  0
  4  7  1  0  0  0  0
  5  8  1  0  0  0  0
  6  3  2  0  0  0  0
  7 14  1  0  0  0  0
  7  8  2  0  0  0  0
  9 18  1  0  0  0  0
 10  9  1  0  0  0  0
 11  2  1  0  0  0  0
 12  5  2  0  0  0  0
 13 14  2  0  0  0  0
 15  9  1  0  0  0  0
 16 12  1  0  0  0  0
 16  4  2  0  0  0  0
 17 19  1  1  0  0  0
 17 15  1  0  0  0  0
 17 11  1  0  0  0  0
 18  2  2  0  0  0  0
 18  6  1  0  0  0  0
 19 20  2  0  0  0  0
 20 21  2  0  0  0  0
 21 22  1  0  0  0  0
 23 21  1  0  0  0  0
 23 25  1  0  0  0  0
 24 23  2  0  0  0  0
M  END
>  <MODEL>
3

>  <REMARK>
 VINA RESULT:      -7.3      2.418      5.352
  Name = 
  2 active torsions:
  status: ('A' for Active; 'I' for Inactive)
    1  A    between atoms: C_2  and  C_21
    2  A    between atoms: C_6  and  C_23
                            x       y       z     vdW  Elec       q    Type
                         _______ _______ _______ _____ _____    ______ ____

>  <TORSDO>
F 2

$$$$
=
 OpenBabel11052417343D

 25 28  0  0  1  0  0  0  0  0999 V2000
  189.2150  173.9720  142.4560 N   0  0  0  0  0  0  0  0  0  0  0  0
  189.0420  175.0780  143.2290 C   0  0  0  0  0  0  0  0  0  0  0  0
  189.9620  172.6300  144.2830 C   0  0  0  0  0  3  0  0  0  0  0  0
  189.0210  173.7420  141.1510 C   0  0  0  0  0  0  0  0  0  0  0  0
  188.7600  172.8160  138.5910 C   0  0  0  0  0  3  0  0  0  0  0  0
  189.8070  173.7470  145.1170 C   0  0  0  0  0  3  0  0  0  0  0  0
  189.3390  172.4440  140.8760 C   0  0  0  0  0  0  0  0  0  0  0  0
  189.2190  171.9340  139.5890 C   0  0  0  0  0  3  0  0  0  0  0  0
  189.1690  176.1210  145.4630 N   0  0  0  0  0  0  0  0  0  0  0  0
  189.2510  175.9990  146.9100 C   0  0  0  0  0  1  0  0  0  0  0  0
  188.5860  176.3870  142.6340 C   0  0  0  0  0  2  0  0  0  0  0  0
  188.4400  174.1540  138.9220 C   0  0  0  0  0  3  0  0  0  0  0  0
  189.6520  172.7820  142.9350 C   0  0  0  0  0  0  0  0  0  0  0  0
  189.7460  171.8040  141.9940 N   0  0  0  0  0  0  0  0  0  0  0  0
  188.8780  177.4380  144.8990 C   0  0  0  0  0  2  0  0  0  0  0  0
  188.5740  174.6070  140.2060 N   0  0  0  0  0  0  0  0  0  0  0  0
  187.9670  177.3230  143.6760 C   0  0  2  0  0  3  0  0  0  0  0  0
  189.3550  174.9820  144.6030 C   0  0  0  0  0  0  0  0  0  0  0  0
  186.6010  176.8650  144.0650 C   0  0  0  0  0  3  0  0  0  0  0  0
  185.9810  177.4330  145.0600 C   0  0  0  0  0  0  0  0  0  0  0  0
  185.3630  178.0020  146.0590 C   0  0  0  0  0  0  0  0  0  0  0  0
  184.0490  178.6600  145.8110 C   0  0  0  0  0  1  0  0  0  0  0  0
  185.9620  178.0080  147.4040 C   0  0  0  0  0  0  0  0  0  0  0  0
  186.3320  179.2070  148.0060 O   0  0  0  0  0  0  0  0  0  0  0  0
  186.1470  176.9260  148.0200 O   0  0  0  0  0  1  0  0  0  0  0  0
  1 13  1  0  0  0  0
  1  2  1  0  0  0  0
  2 18  2  0  0  0  0
  3  6  2  0  0  0  0
  4  1  1  0  0  0  0
  5 12  2  0  0  0  0
  5  8  1  0  0  0  0
  7  4  1  0  0  0  0
  7 14  1  0  0  0  0
  8  7  2  0  0  0  0
  9 10  1  0  0  0  0
 11  2  1  0  0  0  0
 11 17  1  0  0  0  0
 12 16  1  0  0  0  0
 13  3  1  0  0  0  0
 14 13  2  0  0  0  0
 15  9  1  0  0  0  0
 16  4  2  0  0  0  0
 17 19  1  1  0  0  0
 17 15  1  0  0  0  0
 18  6  1  0  0  0  0
 18  9  1  0  0  0  0
 19 20  2  0  0  0  0
 20 21  2  0  0  0  0
 21 23  1  0  0  0  0
 22 21  1  0  0  0  0
 23 24  2  0  0  0  0
 23 25  1  0  0  0  0
M  END
>  <MODEL>
4

>  <REMARK>
 VINA RESULT:      -7.2      3.499      5.652
  Name = 
  2 active torsions:
  status: ('A' for Active; 'I' for Inactive)
    1  A    between atoms: C_2  and  C_21
    2  A    between atoms: C_6  and  C_23
                            x       y       z     vdW  Elec       q    Type
                         _______ _______ _______ _____ _____    ______ ____

>  <TORSDO>
F 2

$$$$
=
 OpenBabel11052417343D

 25 28  0  0  1  0  0  0  0  0999 V2000
  189.5090  177.1850  145.1970 N   0  0  0  0  0  0  0  0  0  0  0  0
  188.6710  177.4940  144.1710 C   0  0  0  0  0  0  0  0  0  0  0  0
  187.8380  177.5290  146.8650 C   0  0  0  0  0  3  0  0  0  0  0  0
  190.7970  176.8170  145.2310 C   0  0  0  0  0  0  0  0  0  0  0  0
  193.3570  176.0300  145.7840 C   0  0  0  0  0  3  0  0  0  0  0  0
  186.9390  177.8630  145.8410 C   0  0  0  0  0  3  0  0  0  0  0  0
  191.1660  176.6120  146.5280 C   0  0  0  0  0  0  0  0  0  0  0  0
  192.4570  176.2110  146.8520 C   0  0  0  0  0  3  0  0  0  0  0  0
  186.4140  178.1740  143.4340 N   0  0  0  0  0  0  0  0  0  0  0  0
  184.9910  178.3200  143.6980 C   0  0  0  0  0  1  0  0  0  0  0  0
  189.1500  177.5060  142.7410 C   0  0  0  0  0  2  0  0  0  0  0  0
  192.9310  176.2540  144.4530 C   0  0  0  0  0  3  0  0  0  0  0  0
  189.1370  177.1900  146.4990 C   0  0  0  0  0  0  0  0  0  0  0  0
  190.1290  176.8420  147.3630 N   0  0  0  0  0  0  0  0  0  0  0  0
  186.8810  178.3440  142.0590 C   0  0  0  0  0  2  0  0  0  0  0  0
  191.6470  176.6460  144.1880 N   0  0  0  0  0  0  0  0  0  0  0  0
  188.0060  177.3600  141.7350 C   0  0  2  0  0  3  0  0  0  0  0  0
  187.3430  177.8580  144.4880 C   0  0  0  0  0  0  0  0  0  0  0  0
  187.4990  175.9570  141.6980 C   0  0  0  0  0  3  0  0  0  0  0  0
  188.3380  174.9610  141.6820 C   0  0  0  0  0  0  0  0  0  0  0  0
  189.1810  173.9640  141.6640 C   0  0  0  0  0  0  0  0  0  0  0  0
  189.1290  172.9580  142.7620 C   0  0  0  0  0  1  0  0  0  0  0  0
  190.1770  173.8460  140.5860 C   0  0  0  0  0  0  0  0  0  0  0  0
  191.5370  173.8300  140.8800 O   0  0  0  0  0  1  0  0  0  0  0  0
  189.8060  173.7620  139.3860 O   0  0  0  0  0  0  0  0  0  0  0  0
  1  4  1  0  0  0  0
  1 13  1  0  0  0  0
  2 18  2  0  0  0  0
  2  1  1  0  0  0  0
  4  7  1  0  0  0  0
  5  8  1  0  0  0  0
  6  3  2  0  0  0  0
  7  8  2  0  0  0  0
  7 14  1  0  0  0  0
  9 10  1  0  0  0  0
  9 18  1  0  0  0  0
 11  2  1  0  0  0  0
 12  5  2  0  0  0  0
 13  3  1  0  0  0  0
 13 14  2  0  0  0  0
 15  9  1  0  0  0  0
 16 12  1  0  0  0  0
 16  4  2  0  0  0  0
 17 19  1  1  0  0  0
 17 15  1  0  0  0  0
 17 11  1  0  0  0  0
 18  6  1  0  0  0  0
 20 19  2  0  0  0  0
 21 20  2  0  0  0  0
 21 22  1  0  0  0  0
 23 24  1  0  0  0  0
 23 21  1  0  0  0  0
 25 23  2  0  0  0  0
M  END
>  <MODEL>
5

>  <REMARK>
 VINA RESULT:      -7.2      2.715      5.624
  Name = 
  2 active torsions:
  status: ('A' for Active; 'I' for Inactive)
    1  A    between atoms: C_2  and  C_21
    2  A    between atoms: C_6  and  C_23
                            x       y       z     vdW  Elec       q    Type
                         _______ _______ _______ _____ _____    ______ ____

>  <TORSDO>
F 2

$$$$
=
 OpenBabel11052417343D

 25 28  0  0  1  0  0  0  0  0999 V2000
  190.3000  176.2310  146.0140 N   0  0  0  0  0  0  0  0  0  0  0  0
  189.1830  176.8930  145.6060 C   0  0  0  0  0  0  0  0  0  0  0  0
  189.1230  174.9350  147.6350 C   0  0  0  0  0  3  0  0  0  0  0  0
  191.5800  176.2960  145.6240 C   0  0  0  0  0  0  0  0  0  0  0  0
  194.2640  176.0690  145.1540 C   0  0  0  0  0  3  0  0  0  0  0  0
  187.9460  175.5970  147.2550 C   0  0  0  0  0  3  0  0  0  0  0  0
  192.3110  175.4040  146.3530 C   0  0  0  0  0  0  0  0  0  0  0  0
  193.6780  175.2570  146.1440 C   0  0  0  0  0  3  0  0  0  0  0  0
  186.7500  177.2460  145.8350 N   0  0  0  0  0  0  0  0  0  0  0  0
  185.4470  176.7930  146.2960 C   0  0  0  0  0  1  0  0  0  0  0  0
  189.2470  177.9630  144.5460 C   0  0  0  0  0  2  0  0  0  0  0  0
  193.4670  176.9800  144.4220 C   0  0  0  0  0  3  0  0  0  0  0  0
  190.3010  175.2850  146.9820 C   0  0  0  0  0  0  0  0  0  0  0  0
  191.5240  174.7420  147.2290 N   0  0  0  0  0  0  0  0  0  0  0  0
  186.7990  178.3890  144.9250 C   0  0  0  0  0  2  0  0  0  0  0  0
  192.1240  177.0850  144.6650 N   0  0  0  0  0  0  0  0  0  0  0  0
  187.8930  178.2070  143.8730 C   0  0  2  0  0  3  0  0  0  0  0  0
  187.9610  176.5850  146.2460 C   0  0  0  0  0  0  0  0  0  0  0  0
  187.5560  177.1010  142.9300 C   0  0  0  0  0  3  0  0  0  0  0  0
  186.7420  177.3170  141.9360 C   0  0  0  0  0  0  0  0  0  0  0  0
  185.9240  177.5350  140.9420 C   0  0  0  0  0  0  0  0  0  0  0  0
  186.4080  177.3110  139.5500 C   0  0  0  0  0  1  0  0  0  0  0  0
  184.5540  178.0120  141.1920 C   0  0  0  0  0  0  0  0  0  0  0  0
  183.7580  178.4530  140.1390 O   0  0  0  0  0  0  0  0  0  0  0  0
  184.0910  178.0270  142.3620 O   0  0  0  0  0  1  0  0  0  0  0  0
  1 13  1  0  0  0  0
  2  1  1  0  0  0  0
  2 18  2  0  0  0  0
  4  1  1  0  0  0  0
  4  7  1  0  0  0  0
  5  8  1  0  0  0  0
  6  3  2  0  0  0  0
  7 14  1  0  0  0  0
  8  7  2  0  0  0  0
  9 18  1  0  0  0  0
  9 10  1  0  0  0  0
 11  2  1  0  0  0  0
 12 16  1  0  0  0  0
 12  5  2  0  0  0  0
 13 14  2  0  0  0  0
 13  3  1  0  0  0  0
 15  9  1  0  0  0  0
 16  4  2  0  0  0  0
 17 19  1  6  0  0  0
 17 11  1  0  0  0  0
 17 15  1  0  0  0  0
 18  6  1  0  0  0  0
 20 19  2  0  0  0  0
 21 23  1  0  0  0  0
 21 20  2  0  0  0  0
 22 21  1  0  0  0  0
 23 25  1  0  0  0  0
 24 23  2  0  0  0  0
M  END
>  <MODEL>
6

>  <REMARK>
 VINA RESULT:      -7.1      3.480      6.611
  Name = 
  2 active torsions:
  status: ('A' for Active; 'I' for Inactive)
    1  A    between atoms: C_2  and  C_21
    2  A    between atoms: C_6  and  C_23
                            x       y       z     vdW  Elec       q    Type
                         _______ _______ _______ _____ _____    ______ ____

>  <TORSDO>
F 2

$$$$
=
 OpenBabel11052417343D

 25 28  0  0  1  0  0  0  0  0999 V2000
  187.9020  176.8970  144.1550 N   0  0  0  0  0  0  0  0  0  0  0  0
  188.9790  176.1380  144.4930 C   0  0  0  0  0  0  0  0  0  0  0  0
  187.4970  177.5890  146.4030 C   0  0  0  0  0  3  0  0  0  0  0  0
  187.3100  177.1540  142.9810 C   0  0  0  0  0  0  0  0  0  0  0  0
  185.8080  177.9680  140.8460 C   0  0  0  0  0  3  0  0  0  0  0  0
  188.5960  176.8130  146.7990 C   0  0  0  0  0  3  0  0  0  0  0  0
  186.2580  177.9970  143.1890 C   0  0  0  0  0  0  0  0  0  0  0  0
  185.4700  178.4350  142.1310 C   0  0  0  0  0  3  0  0  0  0  0  0
  190.4880  175.2990  146.2580 N   0  0  0  0  0  0  0  0  0  0  0  0
  191.0340  175.3960  147.6020 C   0  0  0  0  0  1  0  0  0  0  0  0
  189.7320  175.3400  143.4580 C   0  0  0  0  0  2  0  0  0  0  0  0
  186.9090  177.0950  140.6770 C   0  0  0  0  0  3  0  0  0  0  0  0
  187.1740  177.6070  145.0500 C   0  0  0  0  0  0  0  0  0  0  0  0
  186.1430  178.3050  144.4990 N   0  0  0  0  0  0  0  0  0  0  0  0
  191.1430  174.3970  145.3130 C   0  0  0  0  0  2  0  0  0  0  0  0
  187.6540  176.6950  141.7520 N   0  0  0  0  0  0  0  0  0  0  0  0
  191.1550  174.9920  143.9040 C   0  0  2  0  0  3  0  0  0  0  0  0
  189.3430  176.0740  145.8560 C   0  0  0  0  0  0  0  0  0  0  0  0
  192.0470  176.1860  143.8310 C   0  0  0  0  0  3  0  0  0  0  0  0
  193.3050  176.0810  144.1530 C   0  0  0  0  0  0  0  0  0  0  0  0
  194.5650  175.9740  144.4780 C   0  0  0  0  0  0  0  0  0  0  0  0
  195.6010  176.3080  143.4610 C   0  0  0  0  0  1  0  0  0  0  0  0
  194.9540  175.5130  145.8210 C   0  0  0  0  0  0  0  0  0  0  0  0
  195.8870  174.4920  145.9740 O   0  0  0  0  0  0  0  0  0  0  0  0
  194.4440  176.0390  146.8440 O   0  0  0  0  0  1  0  0  0  0  0  0
  1  2  1  0  0  0  0
  1 13  1  0  0  0  0
  2 18  2  0  0  0  0
  3  6  2  0  0  0  0
  4  7  1  0  0  0  0
  4  1  1  0  0  0  0
  5  8  1  0  0  0  0
  7 14  1  0  0  0  0
  8  7  2  0  0  0  0
  9 10  1  0  0  0  0
 11 17  1  0  0  0  0
 11  2  1  0  0  0  0
 12  5  2  0  0  0  0
 12 16  1  0  0  0  0
 13  3  1  0  0  0  0
 14 13  2  0  0  0  0
 15  9  1  0  0  0  0
 16  4  2  0  0  0  0
 17 19  1  1  0  0  0
 17 15  1  0  0  0  0
 18  9  1  0  0  0  0
 18  6  1  0  0  0  0
 19 20  2  0  0  0  0
 20 21  2  0  0  0  0
 21 23  1  0  0  0  0
 22 21  1  0  0  0  0
 23 24  2  0  0  0  0
 23 25  1  0  0  0  0
M  END
>  <MODEL>
7

>  <REMARK>
 VINA RESULT:      -7.1      2.216      3.510
  Name = 
  2 active torsions:
  status: ('A' for Active; 'I' for Inactive)
    1  A    between atoms: C_2  and  C_21
    2  A    between atoms: C_6  and  C_23
                            x       y       z     vdW  Elec       q    Type
                         _______ _______ _______ _____ _____    ______ ____

>  <TORSDO>
F 2

$$$$
=
 OpenBabel11052417343D

 25 28  0  0  1  0  0  0  0  0999 V2000
  189.6120  173.7960  143.3980 N   0  0  0  0  0  0  0  0  0  0  0  0
  189.1300  175.0690  143.4010 C   0  0  0  0  0  0  0  0  0  0  0  0
  189.7680  173.6900  145.7770 C   0  0  0  0  0  3  0  0  0  0  0  0
  189.8830  172.9360  142.4080 C   0  0  0  0  0  0  0  0  0  0  0  0
  190.5510  170.8690  140.7470 C   0  0  0  0  0  3  0  0  0  0  0  0
  189.2820  175.0040  145.8290 C   0  0  0  0  0  3  0  0  0  0  0  0
  190.3430  171.7690  142.9460 C   0  0  0  0  0  0  0  0  0  0  0  0
  190.6930  170.6950  142.1370 C   0  0  0  0  0  3  0  0  0  0  0  0
  188.4400  177.0500  144.7020 N   0  0  0  0  0  0  0  0  0  0  0  0
  188.0350  177.6540  145.9610 C   0  0  0  0  0  1  0  0  0  0  0  0
  188.8330  175.7980  142.1160 C   0  0  0  0  0  2  0  0  0  0  0  0
  190.0690  172.0950  140.2320 C   0  0  0  0  0  3  0  0  0  0  0  0
  189.9240  173.1080  144.5220 C   0  0  0  0  0  0  0  0  0  0  0  0
  190.3820  171.8470  144.2940 N   0  0  0  0  0  0  0  0  0  0  0  0
  188.2870  177.8380  143.4800 C   0  0  0  0  0  2  0  0  0  0  0  0
  189.7370  173.1230  141.0720 N   0  0  0  0  0  0  0  0  0  0  0  0
  187.8500  176.9560  142.3100 C   0  0  2  0  0  3  0  0  0  0  0  0
  188.9660  175.7110  144.6480 C   0  0  0  0  0  0  0  0  0  0  0  0
  186.4590  176.4520  142.5060 C   0  0  0  0  0  3  0  0  0  0  0  0
  185.4930  177.2870  142.7640 C   0  0  0  0  0  0  0  0  0  0  0  0
  184.5270  178.1260  143.0250 C   0  0  0  0  0  0  0  0  0  0  0  0
  183.3660  178.1980  142.0940 C   0  0  0  0  0  1  0  0  0  0  0  0
  184.5940  178.9980  144.2090 C   0  0  0  0  0  0  0  0  0  0  0  0
  183.9110  178.6600  145.3740 O   0  0  0  0  0  1  0  0  0  0  0  0
  185.2680  180.0600  144.1780 O   0  0  0  0  0  0  0  0  0  0  0  0
  1  2  1  0  0  0  0
  1 13  1  0  0  0  0
  2 18  2  0  0  0  0
  3  6  2  0  0  0  0
  4  7  1  0  0  0  0
  4  1  1  0  0  0  0
  5  8  1  0  0  0  0
  7 14  1  0  0  0  0
  8  7  2  0  0  0  0
  9 10  1  0  0  0  0
 11 17  1  0  0  0  0
 11  2  1  0  0  0  0
 12  5  2  0  0  0  0
 12 16  1  0  0  0  0
 13  3  1  0  0  0  0
 14 13  2  0  0  0  0
 15  9  1  0  0  0  0
 16  4  2  0  0  0  0
 17 19  1  1  0  0  0
 17 15  1  0  0  0  0
 18  9  1  0  0  0  0
 18  6  1  0  0  0  0
 19 20  2  0  0  0  0
 20 21  2  0  0  0  0
 21 23  1  0  0  0  0
 22 21  1  0  0  0  0
 23 24  1  0  0  0  0
 25 23  2  0  0  0  0
M  END
>  <MODEL>
8

>  <REMARK>
 VINA RESULT:      -7.0      4.141      6.366
  Name = 
  2 active torsions:
  status: ('A' for Active; 'I' for Inactive)
    1  A    between atoms: C_2  and  C_21
    2  A    between atoms: C_6  and  C_23
                            x       y       z     vdW  Elec       q    Type
                         _______ _______ _______ _____ _____    ______ ____

>  <TORSDO>
F 2

$$$$
=
 OpenBabel11052417343D

 25 28  0  0  1  0  0  0  0  0999 V2000
  190.4180  176.9240  144.8560 N   0  0  0  0  0  0  0  0  0  0  0  0
  189.2120  177.2870  144.3420 C   0  0  0  0  0  0  0  0  0  0  0  0
  189.6570  177.0310  147.1150 C   0  0  0  0  0  3  0  0  0  0  0  0
  191.5890  176.6170  144.2820 C   0  0  0  0  0  0  0  0  0  0  0  0
  194.1310  175.9050  143.5670 C   0  0  0  0  0  3  0  0  0  0  0  0
  188.3970  177.4160  146.6320 C   0  0  0  0  0  3  0  0  0  0  0  0
  192.4940  176.3090  145.2550 C   0  0  0  0  0  0  0  0  0  0  0  0
  193.7960  175.9420  144.9340 C   0  0  0  0  0  3  0  0  0  0  0  0
  186.8610  177.9240  144.7490 N   0  0  0  0  0  0  0  0  0  0  0  0
  185.7020  177.9760  145.6250 C   0  0  0  0  0  1  0  0  0  0  0  0
  189.0100  177.4550  142.8570 C   0  0  0  0  0  2  0  0  0  0  0  0
  193.1590  176.2310  142.5910 C   0  0  0  0  0  3  0  0  0  0  0  0
  190.6610  176.7900  146.1820 C   0  0  0  0  0  0  0  0  0  0  0  0
  191.9330  176.4110  146.4800 N   0  0  0  0  0  0  0  0  0  0  0  0
  186.6710  178.2430  143.3350 C   0  0  0  0  0  2  0  0  0  0  0  0
  191.8900  176.5850  142.9600 N   0  0  0  0  0  0  0  0  0  0  0  0
  187.5380  177.3490  142.4480 C   0  0  2  0  0  3  0  0  0  0  0  0
  188.1610  177.5560  145.2470 C   0  0  0  0  0  0  0  0  0  0  0  0
  187.0700  175.9330  142.4910 C   0  0  0  0  0  3  0  0  0  0  0  0
  187.8190  174.9830  142.0090 C   0  0  0  0  0  0  0  0  0  0  0  0
  188.5720  174.0330  141.5230 C   0  0  0  0  0  0  0  0  0  0  0  0
  189.0080  172.9290  142.4230 C   0  0  0  0  0  1  0  0  0  0  0  0
  188.9950  174.0620  140.1130 C   0  0  0  0  0  0  0  0  0  0  0  0
  190.2890  173.6930  139.7570 O   0  0  0  0  0  1  0  0  0  0  0  0
  188.1890  174.4230  139.2160 O   0  0  0  0  0  0  0  0  0  0  0  0
  1 13  1  0  0  0  0
  2  1  1  0  0  0  0
  2 18  2  0  0  0  0
  4  1  1  0  0  0  0
  4  7  1  0  0  0  0
  5  8  1  0  0  0  0
  6  3  2  0  0  0  0
  7 14  1  0  0  0  0
  8  7  2  0  0  0  0
  9 18  1  0  0  0  0
  9 10  1  0  0  0  0
 11  2  1  0  0  0  0
 12 16  1  0  0  0  0
 12  5  2  0  0  0  0
 13 14  2  0  0  0  0
 13  3  1  0  0  0  0
 15  9  1  0  0  0  0
 16  4  2  0  0  0  0
 17 19  1  1  0  0  0
 17 11  1  0  0  0  0
 17 15  1  0  0  0  0
 18  6  1  0  0  0  0
 20 19  2  0  0  0  0
 21 20  2  0  0  0  0
 21 22  1  0  0  0  0
 23 21  1  0  0  0  0
 24 23  1  0  0  0  0
 25 23  2  0  0  0  0
M  END
>  <MODEL>
9

>  <REMARK>
 VINA RESULT:      -6.9      2.988      5.797
  Name = 
  2 active torsions:
  status: ('A' for Active; 'I' for Inactive)
    1  A    between atoms: C_2  and  C_21
    2  A    between atoms: C_6  and  C_23
                            x       y       z     vdW  Elec       q    Type
                         _______ _______ _______ _____ _____    ______ ____

>  <TORSDO>
F 2

$$$$
