=
 OpenBabel11052418233D

 27 32  0  0  1  0  0  0  0  0999 V2000
  191.4690  175.9180  142.7270 C   0  0  0  0  0  2  0  0  0  0  0  0
  188.9570  176.3140  143.1000 C   0  0  0  0  0  0  0  0  0  0  0  0
  189.2470  176.0930  145.5850 C   0  0  2  0  0  3  0  0  0  0  0  0
  185.7670  179.1970  143.3840 C   0  0  0  0  0  3  0  0  0  0  0  0
  184.8030  179.0850  145.7030 C   0  0  0  0  0  3  0  0  0  0  0  0
  188.4250  176.9680  142.0650 C   0  0  0  0  0  3  0  0  0  0  0  0
  186.7470  177.4850  145.8250 C   0  0  0  0  0  3  0  0  0  0  0  0
  190.5150  176.5120  147.6530 C   0  0  0  0  0  3  0  0  0  0  0  0
  185.5680  178.1990  146.3240 C   0  0  0  0  0  3  0  0  0  0  0  0
  191.7330  175.8880  147.6340 C   0  0  0  0  0  3  0  0  0  0  0  0
  187.3170  177.4510  144.6140 C   0  0  0  0  0  0  0  0  0  0  0  0
  190.0670  175.2940  142.8630 C   0  0  1  0  0  3  0  0  0  0  0  0
  184.9280  179.5870  144.3360 C   0  0  0  0  0  3  0  0  0  0  0  0
  186.8150  178.1690  143.4070 C   0  0  0  0  0  0  0  0  0  0  0  0
  192.4230  175.4590  143.8510 C   0  0  0  0  0  2  0  0  0  0  0  0
  188.4930  176.6240  144.4410 N   0  0  0  0  0  0  0  0  0  0  0  0
  189.8370  177.0470  146.3960 C   0  0  1  0  0  3  0  0  0  0  0  0
  187.3700  177.9180  142.2580 N   0  0  0  0  0  0  0  0  0  0  0  0
  192.5000  175.5900  146.3650 C   0  0  0  0  0  3  0  0  0  0  0  0
  191.9450  175.9170  145.1950 C   0  0  0  0  0  0  0  0  0  0  0  0
  190.6670  176.4530  145.3360 N   0  0  0  0  0  0  0  0  0  0  0  0
  189.2270  172.4730  139.7660 C   0  0  0  0  0  3  0  0  0  0  0  0
  189.7680  174.3170  141.7700 C   0  0  0  0  0  0  0  0  0  0  0  0
  190.7700  173.9810  140.8550 C   0  0  0  0  0  3  0  0  0  0  0  0
  190.4940  173.0550  139.8480 C   0  0  0  0  0  3  0  0  0  0  0  0
  188.2510  172.8290  140.7010 C   0  0  0  0  0  3  0  0  0  0  0  0
  188.5400  173.7340  141.6750 N   0  0  0  0  0  0  0  0  0  0  0  0
  1 12  1  0  0  0  0
  1 15  1  0  0  0  0
  2 16  1  0  0  0  0
  3 16  1  6  0  0  0
  3 17  1  0  0  0  0
  4 14  1  0  0  0  0
  4 13  2  0  0  0  0
  5  9  2  0  0  0  0
  6 18  1  0  0  0  0
  6  2  2  0  0  0  0
  7  9  1  0  0  0  0
 10  8  2  0  0  0  0
 11  7  2  0  0  0  0
 12 23  1  6  0  0  0
 12  2  1  0  0  0  0
 13  5  1  0  0  0  0
 14 11  1  0  0  0  0
 15 20  1  0  0  0  0
 16 11  1  0  0  0  0
 17  8  1  1  0  0  0
 18 14  2  0  0  0  0
 19 10  1  0  0  0  0
 20 21  1  0  0  0  0
 20 19  2  0  0  0  0
 21  3  1  0  0  0  0
 21 17  1  0  0  0  0
 22 25  2  0  0  0  0
 22 26  1  0  0  0  0
 24 23  2  0  0  0  0
 25 24  1  0  0  0  0
 26 27  2  0  0  0  0
 27 23  1  0  0  0  0
M  END
>  <MODEL>
1

>  <REMARK>
 VINA RESULT:      -8.4      0.000      0.000
  Name = 
  1 active torsions:
  status: ('A' for Active; 'I' for Inactive)
    1  A    between atoms: C_9  and  C_15
                            x       y       z     vdW  Elec       q    Type
                         _______ _______ _______ _____ _____    ______ ____

>  <TORSDO>
F 1

$$$$
=
 OpenBabel11052418233D

 27 32  0  0  1  0  0  0  0  0999 V2000
  187.4240  178.0010  142.4710 C   0  0  0  0  0  2  0  0  0  0  0  0
  188.7660  176.7870  144.2970 C   0  0  0  0  0  0  0  0  0  0  0  0
  189.0450  174.7770  142.8170 C   0  0  2  0  0  3  0  0  0  0  0  0
  192.5780  176.3030  146.2480 C   0  0  0  0  0  3  0  0  0  0  0  0
  193.3620  173.9440  145.8780 C   0  0  0  0  0  3  0  0  0  0  0  0
  189.3050  177.6630  145.1470 C   0  0  0  0  0  3  0  0  0  0  0  0
  191.2510  174.0550  144.5060 C   0  0  0  0  0  3  0  0  0  0  0  0
  189.4550  173.7650  140.6110 C   0  0  0  0  0  3  0  0  0  0  0  0
  192.4330  173.4180  145.0930 C   0  0  0  0  0  3  0  0  0  0  0  0
  188.4520  174.0560  139.7260 C   0  0  0  0  0  3  0  0  0  0  0  0
  190.7330  175.2790  144.6620 C   0  0  0  0  0  0  0  0  0  0  0  0
  187.3920  177.0620  143.6920 C   0  0  1  0  0  3  0  0  0  0  0  0
  193.4520  175.3130  146.3810 C   0  0  0  0  0  3  0  0  0  0  0  0
  191.2800  176.3350  145.5630 C   0  0  0  0  0  0  0  0  0  0  0  0
  186.9330  177.3020  141.1860 C   0  0  0  0  0  2  0  0  0  0  0  0
  189.5260  175.6030  143.9320 N   0  0  0  0  0  0  0  0  0  0  0  0
  189.8870  174.7180  141.7200 C   0  0  1  0  0  3  0  0  0  0  0  0
  190.5850  177.4210  145.7420 N   0  0  0  0  0  0  0  0  0  0  0  0
  187.6120  175.3120  139.7990 C   0  0  0  0  0  3  0  0  0  0  0  0
  187.8320  176.1660  140.8020 C   0  0  0  0  0  0  0  0  0  0  0  0
  188.8050  175.7160  141.6900 N   0  0  0  0  0  0  0  0  0  0  0  0
  184.4130  178.2050  146.5330 C   0  0  0  0  0  3  0  0  0  0  0  0
  186.3590  177.4670  144.6970 C   0  0  0  0  0  0  0  0  0  0  0  0
  185.8100  178.7510  144.6390 C   0  0  0  0  0  3  0  0  0  0  0  0
  184.8330  179.1190  145.5650 C   0  0  0  0  0  3  0  0  0  0  0  0
  184.9800  176.9290  146.5580 C   0  0  0  0  0  3  0  0  0  0  0  0
  185.9310  176.5880  145.6460 N   0  0  0  0  0  0  0  0  0  0  0  0
  1 12  1  0  0  0  0
  2  6  2  0  0  0  0
  3 21  1  6  0  0  0
  3 16  1  0  0  0  0
  4 13  2  0  0  0  0
  5 13  1  0  0  0  0
  6 18  1  0  0  0  0
  7 11  2  0  0  0  0
  7  9  1  0  0  0  0
  9  5  2  0  0  0  0
 10 19  1  0  0  0  0
 10  8  2  0  0  0  0
 11 14  1  0  0  0  0
 12  2  1  0  0  0  0
 12 23  1  1  0  0  0
 14 18  2  0  0  0  0
 14  4  1  0  0  0  0
 15  1  1  0  0  0  0
 16  2  1  0  0  0  0
 16 11  1  0  0  0  0
 17  8  1  6  0  0  0
 17  3  1  0  0  0  0
 19 20  2  0  0  0  0
 20 15  1  0  0  0  0
 20 21  1  0  0  0  0
 21 17  1  0  0  0  0
 22 26  1  0  0  0  0
 23 27  1  0  0  0  0
 24 23  2  0  0  0  0
 24 25  1  0  0  0  0
 25 22  2  0  0  0  0
 27 26  2  0  0  0  0
M  END
>  <MODEL>
2

>  <REMARK>
 VINA RESULT:      -8.3      1.540      6.659
  Name = 
  1 active torsions:
  status: ('A' for Active; 'I' for Inactive)
    1  A    between atoms: C_9  and  C_15
                            x       y       z     vdW  Elec       q    Type
                         _______ _______ _______ _____ _____    ______ ____

>  <TORSDO>
F 1

$$$$
=
 OpenBabel11052418233D

 27 32  0  0  1  0  0  0  0  0999 V2000
  190.6480  173.6520  144.2870 C   0  0  0  0  0  2  0  0  0  0  0  0
  189.6570  175.9980  144.6430 C   0  0  0  0  0  0  0  0  0  0  0  0
  188.9130  176.0940  142.2450 C   0  0  2  0  0  3  0  0  0  0  0  0
  186.3440  178.3250  146.1200 C   0  0  0  0  0  3  0  0  0  0  0  0
  185.3280  179.5690  144.1880 C   0  0  0  0  0  3  0  0  0  0  0  0
  189.3840  176.2030  145.9320 C   0  0  0  0  0  3  0  0  0  0  0  0
  187.0880  178.1480  143.0750 C   0  0  0  0  0  3  0  0  0  0  0  0
  187.9540  175.0340  140.2420 C   0  0  0  0  0  3  0  0  0  0  0  0
  186.0200  179.1500  143.1380 C   0  0  0  0  0  3  0  0  0  0  0  0
  188.7560  174.0300  139.7670 C   0  0  0  0  0  3  0  0  0  0  0  0
  187.7140  177.4580  144.0370 C   0  0  0  0  0  0  0  0  0  0  0  0
  190.8800  175.1750  144.2470 C   0  0  1  0  0  3  0  0  0  0  0  0
  185.4520  179.1440  145.5800 C   0  0  0  0  0  3  0  0  0  0  0  0
  187.4580  177.5960  145.5000 C   0  0  0  0  0  0  0  0  0  0  0  0
  190.7920  173.0040  142.8940 C   0  0  0  0  0  2  0  0  0  0  0  0
  188.7510  176.5300  143.6390 N   0  0  0  0  0  0  0  0  0  0  0  0
  187.8480  175.3810  141.7230 C   0  0  1  0  0  3  0  0  0  0  0  0
  188.2520  176.9860  146.3300 N   0  0  0  0  0  0  0  0  0  0  0  0
  189.6810  173.2150  140.6440 C   0  0  0  0  0  3  0  0  0  0  0  0
  189.7500  173.5110  141.9430 C   0  0  0  0  0  0  0  0  0  0  0  0
  188.9670  174.6090  142.2890 N   0  0  0  0  0  0  0  0  0  0  0  0
  194.4880  176.3130  146.2330 C   0  0  0  0  0  3  0  0  0  0  0  0
  192.1360  175.5800  144.9540 C   0  0  0  0  0  0  0  0  0  0  0  0
  192.7360  174.6930  145.8520 C   0  0  0  0  0  3  0  0  0  0  0  0
  193.9170  175.0660  146.4950 C   0  0  0  0  0  3  0  0  0  0  0  0
  193.8640  177.1720  145.3250 C   0  0  0  0  0  3  0  0  0  0  0  0
  192.7130  176.7900  144.7080 N   0  0  0  0  0  0  0  0  0  0  0  0
  2  6  2  0  0  0  0
  3 21  1  1  0  0  0
  3 16  1  0  0  0  0
  5 13  1  0  0  0  0
  6 18  1  0  0  0  0
  7  9  1  0  0  0  0
  7 11  2  0  0  0  0
  9  5  2  0  0  0  0
 10  8  2  0  0  0  0
 10 19  1  0  0  0  0
 11 14  1  0  0  0  0
 12  1  1  0  0  0  0
 12  2  1  0  0  0  0
 12 23  1  1  0  0  0
 13  4  2  0  0  0  0
 14  4  1  0  0  0  0
 14 18  2  0  0  0  0
 15  1  1  0  0  0  0
 16 11  1  0  0  0  0
 16  2  1  0  0  0  0
 17  8  1  6  0  0  0
 17  3  1  0  0  0  0
 17 21  1  0  0  0  0
 19 20  2  0  0  0  0
 20 21  1  0  0  0  0
 20 15  1  0  0  0  0
 22 25  1  0  0  0  0
 23 24  1  0  0  0  0
 24 25  2  0  0  0  0
 26 22  2  0  0  0  0
 27 23  2  0  0  0  0
 27 26  1  0  0  0  0
M  END
>  <MODEL>
3

>  <REMARK>
 VINA RESULT:      -8.3      1.401      4.931
  Name = 
  1 active torsions:
  status: ('A' for Active; 'I' for Inactive)
    1  A    between atoms: C_9  and  C_15
                            x       y       z     vdW  Elec       q    Type
                         _______ _______ _______ _____ _____    ______ ____

>  <TORSDO>
F 1

$$$$
=
 OpenBabel11052418233D

 27 32  0  0  1  0  0  0  0  0999 V2000
  188.2380  177.2960  142.5940 C   0  0  0  0  0  2  0  0  0  0  0  0
  189.8320  176.3760  144.3890 C   0  0  0  0  0  0  0  0  0  0  0  0
  189.9970  174.1800  143.1790 C   0  0  2  0  0  3  0  0  0  0  0  0
  193.8670  176.2370  145.8960 C   0  0  0  0  0  3  0  0  0  0  0  0
  194.6800  173.8630  145.7630 C   0  0  0  0  0  3  0  0  0  0  0  0
  190.4400  177.3730  145.0340 C   0  0  0  0  0  3  0  0  0  0  0  0
  192.4150  173.7420  144.6630 C   0  0  0  0  0  3  0  0  0  0  0  0
  190.1710  172.8720  141.1020 C   0  0  0  0  0  3  0  0  0  0  0  0
  193.6810  173.2150  145.1800 C   0  0  0  0  0  3  0  0  0  0  0  0
  189.0580  173.0180  140.3170 C   0  0  0  0  0  3  0  0  0  0  0  0
  191.8800  174.9680  144.7110 C   0  0  0  0  0  0  0  0  0  0  0  0
  188.3870  176.5390  143.9280 C   0  0  1  0  0  3  0  0  0  0  0  0
  194.7840  175.2910  146.0550 C   0  0  0  0  0  3  0  0  0  0  0  0
  192.4950  176.1500  145.3810 C   0  0  0  0  0  0  0  0  0  0  0  0
  187.6180  176.4130  141.4900 C   0  0  0  0  0  2  0  0  0  0  0  0
  190.5820  175.1650  144.1000 N   0  0  0  0  0  0  0  0  0  0  0  0
  190.7010  173.9800  142.0050 C   0  0  1  0  0  3  0  0  0  0  0  0
  191.7910  177.2390  145.4920 N   0  0  0  0  0  0  0  0  0  0  0  0
  188.1910  174.2570  140.3200 C   0  0  0  0  0  3  0  0  0  0  0  0
  188.5020  175.2490  141.1580 C   0  0  0  0  0  0  0  0  0  0  0  0
  189.5910  174.9460  141.9720 N   0  0  0  0  0  0  0  0  0  0  0  0
  185.7380  178.0210  146.9360 C   0  0  0  0  0  3  0  0  0  0  0  0
  187.4700  177.0660  144.9870 C   0  0  0  0  0  0  0  0  0  0  0  0
  186.7240  178.2220  144.7390 C   0  0  0  0  0  3  0  0  0  0  0  0
  185.8560  178.7000  145.7210 C   0  0  0  0  0  3  0  0  0  0  0  0
  186.4960  176.8660  147.1480 C   0  0  0  0  0  3  0  0  0  0  0  0
  187.3370  176.4160  146.1780 N   0  0  0  0  0  0  0  0  0  0  0  0
  1 12  1  0  0  0  0
  2  6  2  0  0  0  0
  3 21  1  6  0  0  0
  3 16  1  0  0  0  0
  4 13  2  0  0  0  0
  5 13  1  0  0  0  0
  6 18  1  0  0  0  0
  7 11  2  0  0  0  0
  7  9  1  0  0  0  0
  9  5  2  0  0  0  0
 10 19  1  0  0  0  0
 10  8  2  0  0  0  0
 11 14  1  0  0  0  0
 12  2  1  0  0  0  0
 12 23  1  1  0  0  0
 14 18  2  0  0  0  0
 14  4  1  0  0  0  0
 15  1  1  0  0  0  0
 16  2  1  0  0  0  0
 16 11  1  0  0  0  0
 17  8  1  6  0  0  0
 17  3  1  0  0  0  0
 19 20  2  0  0  0  0
 20 15  1  0  0  0  0
 20 21  1  0  0  0  0
 21 17  1  0  0  0  0
 22 26  1  0  0  0  0
 23 27  1  0  0  0  0
 24 23  2  0  0  0  0
 24 25  1  0  0  0  0
 25 22  2  0  0  0  0
 27 26  2  0  0  0  0
M  END
>  <MODEL>
4

>  <REMARK>
 VINA RESULT:      -7.9      1.598      6.778
  Name = 
  1 active torsions:
  status: ('A' for Active; 'I' for Inactive)
    1  A    between atoms: C_9  and  C_15
                            x       y       z     vdW  Elec       q    Type
                         _______ _______ _______ _____ _____    ______ ____

>  <TORSDO>
F 1

$$$$
=
 OpenBabel11052418233D

 27 32  0  0  1  0  0  0  0  0999 V2000
  188.4000  176.0320  145.9970 C   0  0  0  0  0  2  0  0  0  0  0  0
  188.9850  175.6940  143.5160 C   0  0  0  0  0  0  0  0  0  0  0  0
  191.4320  175.9670  144.0100 C   0  0  2  0  0  3  0  0  0  0  0  0
  189.5980  172.8810  140.3100 C   0  0  0  0  0  3  0  0  0  0  0  0
  191.9820  173.0670  139.5390 C   0  0  0  0  0  3  0  0  0  0  0  0
  188.0130  175.0260  142.8900 C   0  0  0  0  0  3  0  0  0  0  0  0
  191.9080  174.6310  141.5140 C   0  0  0  0  0  3  0  0  0  0  0  0
  193.4010  175.5740  145.4340 C   0  0  0  0  0  3  0  0  0  0  0  0
  192.5180  173.9520  140.3670 C   0  0  0  0  0  3  0  0  0  0  0  0
  193.2690  176.1730  146.6580 C   0  0  0  0  0  3  0  0  0  0  0  0
  190.6550  174.6250  141.9850 C   0  0  0  0  0  0  0  0  0  0  0  0
  188.6340  176.6860  144.6210 C   0  0  1  0  0  3  0  0  0  0  0  0
  190.6230  172.5310  139.5440 C   0  0  0  0  0  3  0  0  0  0  0  0
  189.5100  173.8880  141.3740 C   0  0  0  0  0  0  0  0  0  0  0  0
  189.4320  176.4990  147.0460 C   0  0  0  0  0  2  0  0  0  0  0  0
  190.3670  175.4240  143.1570 N   0  0  0  0  0  0  0  0  0  0  0  0
  192.2170  175.0220  144.6470 C   0  0  1  0  0  3  0  0  0  0  0  0
  188.3140  174.1020  141.8380 N   0  0  0  0  0  0  0  0  0  0  0  0
  191.9350  176.4260  147.3240 C   0  0  0  0  0  3  0  0  0  0  0  0
  190.8220  176.0820  146.6700 C   0  0  0  0  0  0  0  0  0  0  0  0
  191.0790  175.5750  145.3990 N   0  0  0  0  0  0  0  0  0  0  0  0
  185.5480  179.4490  143.5740 C   0  0  0  0  0  3  0  0  0  0  0  0
  187.5440  177.6430  144.2520 C   0  0  0  0  0  0  0  0  0  0  0  0
  186.6960  178.1370  145.2470 C   0  0  0  0  0  3  0  0  0  0  0  0
  185.6930  179.0440  144.9020 C   0  0  0  0  0  3  0  0  0  0  0  0
  186.4170  178.9380  142.6060 C   0  0  0  0  0  3  0  0  0  0  0  0
  187.3890  178.0550  142.9620 N   0  0  0  0  0  0  0  0  0  0  0  0
  1 15  1  0  0  0  0
  2 12  1  0  0  0  0
  3 16  1  6  0  0  0
  3 17  1  0  0  0  0
  3 21  1  0  0  0  0
  4 14  1  0  0  0  0
  5 13  1  0  0  0  0
  5  9  2  0  0  0  0
  6  2  2  0  0  0  0
  7 11  2  0  0  0  0
  8 10  2  0  0  0  0
  9  7  1  0  0  0  0
 10 19  1  0  0  0  0
 11 16  1  0  0  0  0
 12 23  1  6  0  0  0
 12  1  1  0  0  0  0
 13  4  2  0  0  0  0
 14 18  2  0  0  0  0
 14 11  1  0  0  0  0
 16  2  1  0  0  0  0
 17 21  1  0  0  0  0
 17  8  1  1  0  0  0
 18  6  1  0  0  0  0
 20 15  1  0  0  0  0
 20 19  2  0  0  0  0
 21 20  1  0  0  0  0
 22 25  1  0  0  0  0
 23 24  1  0  0  0  0
 25 24  2  0  0  0  0
 26 27  1  0  0  0  0
 26 22  2  0  0  0  0
 27 23  2  0  0  0  0
M  END
>  <MODEL>
5

>  <REMARK>
 VINA RESULT:      -7.6      1.125      5.860
  Name = 
  1 active torsions:
  status: ('A' for Active; 'I' for Inactive)
    1  A    between atoms: C_9  and  C_15
                            x       y       z     vdW  Elec       q    Type
                         _______ _______ _______ _____ _____    ______ ____

>  <TORSDO>
F 1

$$$$
=
 OpenBabel11052418233D

 27 32  0  0  1  0  0  0  0  0999 V2000
  192.3280  175.4990  142.0550 C   0  0  0  0  0  2  0  0  0  0  0  0
  190.0080  175.1850  143.1170 C   0  0  0  0  0  0  0  0  0  0  0  0
  190.9810  175.4320  145.4200 C   0  0  2  0  0  3  0  0  0  0  0  0
  186.2380  177.0020  144.1430 C   0  0  0  0  0  3  0  0  0  0  0  0
  185.9920  176.9550  146.6440 C   0  0  0  0  0  3  0  0  0  0  0  0
  189.0460  175.4900  142.2450 C   0  0  0  0  0  3  0  0  0  0  0  0
  188.3140  176.0390  146.2920 C   0  0  0  0  0  3  0  0  0  0  0  0
  192.5280  176.5090  147.0020 C   0  0  0  0  0  3  0  0  0  0  0  0
  187.1360  176.4380  147.0680 C   0  0  0  0  0  3  0  0  0  0  0  0
  193.8350  176.2790  146.6680 C   0  0  0  0  0  3  0  0  0  0  0  0
  188.5330  175.9960  144.9720 C   0  0  0  0  0  0  0  0  0  0  0  0
  191.2910  174.5160  142.6300 C   0  0  1  0  0  3  0  0  0  0  0  0
  185.5920  177.2620  145.2730 C   0  0  0  0  0  3  0  0  0  0  0  0
  187.5330  176.3460  143.9220 C   0  0  0  0  0  0  0  0  0  0  0  0
  193.6330  175.5160  142.8790 C   0  0  0  0  0  2  0  0  0  0  0  0
  189.8280  175.5390  144.5150 N   0  0  0  0  0  0  0  0  0  0  0  0
  191.4140  176.6260  145.9670 C   0  0  1  0  0  3  0  0  0  0  0  0
  187.8250  176.1020  142.6780 N   0  0  0  0  0  0  0  0  0  0  0  0
  194.3050  176.0360  145.2500 C   0  0  0  0  0  3  0  0  0  0  0  0
  193.3940  176.0060  144.2750 C   0  0  0  0  0  0  0  0  0  0  0  0
  192.0920  176.1540  144.7480 N   0  0  0  0  0  0  0  0  0  0  0  0
  190.6630  171.1530  140.0700 C   0  0  0  0  0  3  0  0  0  0  0  0
  191.0570  173.3430  141.7300 C   0  0  0  0  0  0  0  0  0  0  0  0
  191.4330  173.4210  140.3860 C   0  0  0  0  0  3  0  0  0  0  0  0
  191.2320  172.3190  139.5540 C   0  0  0  0  0  3  0  0  0  0  0  0
  190.3030  171.1090  141.4190 C   0  0  0  0  0  3  0  0  0  0  0  0
  190.5080  172.1940  142.2140 N   0  0  0  0  0  0  0  0  0  0  0  0
  1 12  1  0  0  0  0
  1 15  1  0  0  0  0
  2 16  1  0  0  0  0
  3 16  1  6  0  0  0
  3 17  1  0  0  0  0
  4 13  2  0  0  0  0
  5  9  2  0  0  0  0
  6 18  1  0  0  0  0
  6  2  2  0  0  0  0
  7  9  1  0  0  0  0
 10  8  2  0  0  0  0
 11  7  2  0  0  0  0
 12 23  1  6  0  0  0
 12  2  1  0  0  0  0
 13  5  1  0  0  0  0
 14  4  1  0  0  0  0
 14 11  1  0  0  0  0
 15 20  1  0  0  0  0
 16 11  1  0  0  0  0
 17  8  1  1  0  0  0
 18 14  2  0  0  0  0
 19 10  1  0  0  0  0
 20 21  1  0  0  0  0
 20 19  2  0  0  0  0
 21  3  1  0  0  0  0
 21 17  1  0  0  0  0
 22 26  1  0  0  0  0
 23 27  1  0  0  0  0
 24 23  2  0  0  0  0
 25 22  2  0  0  0  0
 25 24  1  0  0  0  0
 26 27  2  0  0  0  0
M  END
>  <MODEL>
6

>  <REMARK>
 VINA RESULT:      -7.6      1.645      1.970
  Name = 
  1 active torsions:
  status: ('A' for Active; 'I' for Inactive)
    1  A    between atoms: C_9  and  C_15
                            x       y       z     vdW  Elec       q    Type
                         _______ _______ _______ _____ _____    ______ ____

>  <TORSDO>
F 1

$$$$
=
 OpenBabel11052418233D

 27 32  0  0  1  0  0  0  0  0999 V2000
  190.1200  172.9620  144.4600 C   0  0  0  0  0  2  0  0  0  0  0  0
  189.1920  175.2230  143.6630 C   0  0  0  0  0  0  0  0  0  0  0  0
  189.2970  174.4720  141.2680 C   0  0  2  0  0  3  0  0  0  0  0  0
  185.7040  177.6880  143.0940 C   0  0  0  0  0  3  0  0  0  0  0  0
  185.4570  178.1540  140.6370 C   0  0  0  0  0  3  0  0  0  0  0  0
  188.5160  175.8260  144.6430 C   0  0  0  0  0  3  0  0  0  0  0  0
  187.4090  176.5620  140.7120 C   0  0  0  0  0  3  0  0  0  0  0  0
  189.0060  172.7480  139.5360 C   0  0  0  0  0  3  0  0  0  0  0  0
  186.4360  177.4570  140.0800 C   0  0  0  0  0  3  0  0  0  0  0  0
  189.8670  171.6980  139.7170 C   0  0  0  0  0  3  0  0  0  0  0  0
  187.6420  176.2720  141.9980 C   0  0  0  0  0  0  0  0  0  0  0  0
  190.4320  174.3970  143.9930 C   0  0  1  0  0  3  0  0  0  0  0  0
  185.0860  178.2230  142.0490 C   0  0  0  0  0  3  0  0  0  0  0  0
  186.9210  176.8700  143.1580 C   0  0  0  0  0  0  0  0  0  0  0  0
  190.6870  171.9000  143.4940 C   0  0  0  0  0  2  0  0  0  0  0  0
  188.7020  175.3330  142.3000 N   0  0  0  0  0  0  0  0  0  0  0  0
  188.4310  173.5590  140.6920 C   0  0  1  0  0  3  0  0  0  0  0  0
  187.3590  176.6210  144.3580 N   0  0  0  0  0  0  0  0  0  0  0  0
  190.4020  171.2810  141.0690 C   0  0  0  0  0  3  0  0  0  0  0  0
  190.0490  171.9950  142.1400 C   0  0  0  0  0  0  0  0  0  0  0  0
  189.2540  173.0920  141.8200 N   0  0  0  0  0  0  0  0  0  0  0  0
  193.1650  176.4150  146.5850 C   0  0  0  0  0  3  0  0  0  0  0  0
  191.4000  175.0930  144.8980 C   0  0  0  0  0  0  0  0  0  0  0  0
  192.2220  176.0990  144.3820 C   0  0  0  0  0  3  0  0  0  0  0  0
  193.1100  176.7600  145.2330 C   0  0  0  0  0  3  0  0  0  0  0  0
  192.3240  175.4090  147.0670 C   0  0  0  0  0  3  0  0  0  0  0  0
  191.4660  174.7760  146.2220 N   0  0  0  0  0  0  0  0  0  0  0  0
  2 12  1  0  0  0  0
  2  6  2  0  0  0  0
  3 21  1  1  0  0  0
  3 16  1  0  0  0  0
  4 14  1  0  0  0  0
  5 13  1  0  0  0  0
  7 11  2  0  0  0  0
  8 10  2  0  0  0  0
  9  5  2  0  0  0  0
  9  7  1  0  0  0  0
 10 19  1  0  0  0  0
 11 16  1  0  0  0  0
 11 14  1  0  0  0  0
 12  1  1  0  0  0  0
 12 23  1  1  0  0  0
 13  4  2  0  0  0  0
 14 18  2  0  0  0  0
 15  1  1  0  0  0  0
 16  2  1  0  0  0  0
 17  8  1  6  0  0  0
 17  3  1  0  0  0  0
 17 21  1  0  0  0  0
 18  6  1  0  0  0  0
 19 20  2  0  0  0  0
 20 15  1  0  0  0  0
 21 20  1  0  0  0  0
 22 26  1  0  0  0  0
 23 27  1  0  0  0  0
 24 23  2  0  0  0  0
 24 25  1  0  0  0  0
 25 22  2  0  0  0  0
 27 26  2  0  0  0  0
M  END
>  <MODEL>
7

>  <REMARK>
 VINA RESULT:      -7.5      1.737      5.306
  Name = 
  1 active torsions:
  status: ('A' for Active; 'I' for Inactive)
    1  A    between atoms: C_9  and  C_15
                            x       y       z     vdW  Elec       q    Type
                         _______ _______ _______ _____ _____    ______ ____

>  <TORSDO>
F 1

$$$$
=
 OpenBabel11052418233D

 27 32  0  0  1  0  0  0  0  0999 V2000
  190.3670  175.4240  146.8480 C   0  0  0  0  0  2  0  0  0  0  0  0
  190.1120  175.0240  144.3220 C   0  0  0  0  0  0  0  0  0  0  0  0
  192.4160  175.9330  143.9010 C   0  0  2  0  0  3  0  0  0  0  0  0
  190.2750  172.1790  141.0890 C   0  0  0  0  0  3  0  0  0  0  0  0
  192.1020  172.8770  139.5120 C   0  0  0  0  0  3  0  0  0  0  0  0
  189.1930  174.0860  144.0840 C   0  0  0  0  0  3  0  0  0  0  0  0
  192.3180  174.5420  141.3920 C   0  0  0  0  0  3  0  0  0  0  0  0
  194.7880  176.1620  144.5160 C   0  0  0  0  0  3  0  0  0  0  0  0
  192.6420  173.9360  140.0970 C   0  0  0  0  0  3  0  0  0  0  0  0
  194.9410  176.8150  145.7090 C   0  0  0  0  0  3  0  0  0  0  0  0
  191.3570  174.2690  142.2830 C   0  0  0  0  0  0  0  0  0  0  0  0
  189.9250  175.9920  145.4860 C   0  0  1  0  0  3  0  0  0  0  0  0
  191.0210  172.0260  140.0030 C   0  0  0  0  0  3  0  0  0  0  0  0
  190.3060  173.2230  142.1200 C   0  0  0  0  0  0  0  0  0  0  0  0
  191.5410  176.2200  147.4580 C   0  0  0  0  0  2  0  0  0  0  0  0
  191.3000  175.0720  143.4860 N   0  0  0  0  0  0  0  0  0  0  0  0
  193.5910  175.2700  144.2050 C   0  0  1  0  0  3  0  0  0  0  0  0
  189.3370  173.1750  142.9870 N   0  0  0  0  0  0  0  0  0  0  0  0
  193.9080  176.7890  146.8140 C   0  0  0  0  0  3  0  0  0  0  0  0
  192.7680  176.1270  146.6030 C   0  0  0  0  0  0  0  0  0  0  0  0
  192.6860  175.5890  145.3210 N   0  0  0  0  0  0  0  0  0  0  0  0
  186.0590  177.8030  145.6680 C   0  0  0  0  0  3  0  0  0  0  0  0
  188.5650  176.6150  145.5420 C   0  0  0  0  0  0  0  0  0  0  0  0
  187.7250  176.3370  146.6240 C   0  0  0  0  0  3  0  0  0  0  0  0
  186.4650  176.9340  146.6830 C   0  0  0  0  0  3  0  0  0  0  0  0
  186.9270  178.0620  144.6040 C   0  0  0  0  0  3  0  0  0  0  0  0
  188.1510  177.4700  144.5650 N   0  0  0  0  0  0  0  0  0  0  0  0
  1 15  1  0  0  0  0
  2 12  1  0  0  0  0
  3 16  1  6  0  0  0
  3 17  1  0  0  0  0
  3 21  1  0  0  0  0
  4 14  1  0  0  0  0
  5 13  1  0  0  0  0
  5  9  2  0  0  0  0
  6  2  2  0  0  0  0
  7 11  2  0  0  0  0
  8 10  2  0  0  0  0
  9  7  1  0  0  0  0
 10 19  1  0  0  0  0
 11 16  1  0  0  0  0
 12 23  1  1  0  0  0
 12  1  1  0  0  0  0
 13  4  2  0  0  0  0
 14 11  1  0  0  0  0
 14 18  2  0  0  0  0
 16  2  1  0  0  0  0
 17  8  1  1  0  0  0
 17 21  1  0  0  0  0
 18  6  1  0  0  0  0
 20 19  2  0  0  0  0
 20 15  1  0  0  0  0
 21 20  1  0  0  0  0
 22 25  1  0  0  0  0
 23 24  1  0  0  0  0
 24 25  2  0  0  0  0
 26 22  2  0  0  0  0
 27 26  1  0  0  0  0
 27 23  2  0  0  0  0
M  END
>  <MODEL>
8

>  <REMARK>
 VINA RESULT:      -7.4      1.606      6.167
  Name = 
  1 active torsions:
  status: ('A' for Active; 'I' for Inactive)
    1  A    between atoms: C_9  and  C_15
                            x       y       z     vdW  Elec       q    Type
                         _______ _______ _______ _____ _____    ______ ____

>  <TORSDO>
F 1

$$$$
=
 OpenBabel11052418233D

 27 32  0  0  1  0  0  0  0  0999 V2000
  190.1980  174.9010  142.6470 C   0  0  0  0  0  2  0  0  0  0  0  0
  191.8850  174.3700  144.5120 C   0  0  0  0  0  0  0  0  0  0  0  0
  192.0110  171.9720  143.7760 C   0  0  2  0  0  3  0  0  0  0  0  0
  195.9890  174.5410  145.8160 C   0  0  0  0  0  3  0  0  0  0  0  0
  196.8160  172.1890  146.1360 C   0  0  0  0  0  3  0  0  0  0  0  0
  192.5150  175.4780  144.9070 C   0  0  0  0  0  3  0  0  0  0  0  0
  194.5020  171.8470  145.1980 C   0  0  0  0  0  3  0  0  0  0  0  0
  192.0950  170.2620  142.0080 C   0  0  0  0  0  3  0  0  0  0  0  0
  195.7960  171.4370  145.7500 C   0  0  0  0  0  3  0  0  0  0  0  0
  190.9450  170.2440  141.2660 C   0  0  0  0  0  3  0  0  0  0  0  0
  193.9580  173.0570  145.0170 C   0  0  0  0  0  0  0  0  0  0  0  0
  190.4180  174.4370  144.0990 C   0  0  1  0  0  3  0  0  0  0  0  0
  196.9210  173.6470  146.1210 C   0  0  0  0  0  3  0  0  0  0  0  0
  194.5950  174.3510  145.3980 C   0  0  0  0  0  0  0  0  0  0  0  0
  189.5330  173.8100  141.7810 C   0  0  0  0  0  2  0  0  0  0  0  0
  192.6310  173.1250  144.4430 N   0  0  0  0  0  0  0  0  0  0  0  0
  192.6590  171.5320  142.6350 C   0  0  1  0  0  3  0  0  0  0  0  0
  193.8880  175.4400  145.3160 N   0  0  0  0  0  0  0  0  0  0  0  0
  190.0680  171.4580  141.0550 C   0  0  0  0  0  3  0  0  0  0  0  0
  190.4100  172.6010  141.6540 C   0  0  0  0  0  0  0  0  0  0  0  0
  191.5400  172.4720  142.4580 N   0  0  0  0  0  0  0  0  0  0  0  0
  187.9720  176.5590  146.8870 C   0  0  0  0  0  3  0  0  0  0  0  0
  189.5490  175.1730  145.0710 C   0  0  0  0  0  0  0  0  0  0  0  0
  189.3560  174.6510  146.3530 C   0  0  0  0  0  3  0  0  0  0  0  0
  188.5620  175.3500  147.2630 C   0  0  0  0  0  3  0  0  0  0  0  0
  188.1910  177.0520  145.5990 C   0  0  0  0  0  3  0  0  0  0  0  0
  188.9690  176.3570  144.7260 N   0  0  0  0  0  0  0  0  0  0  0  0
  1 12  1  0  0  0  0
  2  6  2  0  0  0  0
  3 21  1  6  0  0  0
  3 16  1  0  0  0  0
  4 13  2  0  0  0  0
  6 18  1  0  0  0  0
  7  9  1  0  0  0  0
  9  5  2  0  0  0  0
 10  8  2  0  0  0  0
 11  7  2  0  0  0  0
 11 14  1  0  0  0  0
 12  2  1  0  0  0  0
 12 23  1  1  0  0  0
 13  5  1  0  0  0  0
 14  4  1  0  0  0  0
 15  1  1  0  0  0  0
 16  2  1  0  0  0  0
 16 11  1  0  0  0  0
 17  8  1  6  0  0  0
 17  3  1  0  0  0  0
 18 14  2  0  0  0  0
 19 10  1  0  0  0  0
 19 20  2  0  0  0  0
 20 15  1  0  0  0  0
 20 21  1  0  0  0  0
 21 17  1  0  0  0  0
 22 25  1  0  0  0  0
 23 24  1  0  0  0  0
 24 25  2  0  0  0  0
 26 22  2  0  0  0  0
 27 23  2  0  0  0  0
 27 26  1  0  0  0  0
M  END
>  <MODEL>
9

>  <REMARK>
 VINA RESULT:      -7.1      3.011      7.711
  Name = 
  1 active torsions:
  status: ('A' for Active; 'I' for Inactive)
    1  A    between atoms: C_9  and  C_15
                            x       y       z     vdW  Elec       q    Type
                         _______ _______ _______ _____ _____    ______ ____

>  <TORSDO>
F 1

$$$$
