=
 OpenBabel11052418183D

 27 31  0  0  1  0  0  0  0  0999 V2000
  189.9620  177.7560  143.8610 S   0  0  0  0  0  0  0  0  0  0  0  0
  187.5130  177.1440  145.2250 C   0  0  2  0  0  3  0  0  0  0  0  0
  187.5750  177.7990  142.0150 N   0  0  0  0  0  2  0  0  0  0  0  0
  184.2180  178.2160  144.4320 N   0  0  0  0  0  0  0  0  0  0  0  0
  182.5940  178.8180  142.3040 Cl  0  0  0  0  0  0  0  0  0  0  0  0
  186.7960  177.1540  146.5920 C   0  0  0  0  0  2  0  0  0  0  0  0
  185.1660  177.9360  142.2340 C   0  0  0  0  0  0  0  0  0  0  0  0
  188.8780  174.4020  140.8360 C   0  0  0  0  0  2  0  0  0  0  0  0
  185.0260  177.8910  140.7440 C   0  0  0  0  0  1  0  0  0  0  0  0
  189.6180  173.9910  142.1150 C   0  0  0  0  0  2  0  0  0  0  0  0
  186.4500  177.4260  142.8730 C   0  0  2  0  0  3  0  0  0  0  0  0
  188.9630  177.6490  145.3950 C   0  0  1  0  0  3  0  0  0  0  0  0
  184.1250  178.3070  143.0040 C   0  0  0  0  0  0  0  0  0  0  0  0
  185.3610  178.0560  145.0200 C   0  0  0  0  0  0  0  0  0  0  0  0
  189.2340  176.2810  143.0720 C   0  0  2  0  0  3  0  0  0  0  0  0
  186.6530  178.0140  144.2900 C   0  0  1  0  0  3  0  0  0  0  0  0
  187.8330  175.4770  141.1280 C   0  0  0  0  0  2  0  0  0  0  0  0
  185.4530  177.6450  146.3630 N   0  0  0  0  0  2  0  0  0  0  0  0
  190.2790  175.1980  142.7860 C   0  0  2  0  0  3  0  0  0  0  0  0
  191.3150  175.6920  141.9870 O   0  0  0  0  0  1  0  0  0  0  0  0
  188.5000  176.6840  141.7930 C   0  0  1  0  0  3  0  0  0  0  0  0
  191.2270  175.4970  148.3570 C   0  0  0  0  0  3  0  0  0  0  0  0
  189.7300  176.8820  146.4320 C   0  0  0  0  0  0  0  0  0  0  0  0
  190.4730  177.5850  147.3870 C   0  0  0  0  0  3  0  0  0  0  0  0
  191.2150  176.8960  148.3510 C   0  0  0  0  0  3  0  0  0  0  0  0
  190.4890  174.7890  147.4030 C   0  0  0  0  0  3  0  0  0  0  0  0
  189.7400  175.4770  146.4420 C   0  0  0  0  0  3  0  0  0  0  0  0
  1 12  1  0  0  0  0
  2 12  1  0  0  0  0
  2  6  1  1  0  0  0
  4 14  2  0  0  0  0
  5 13  1  0  0  0  0
  7 11  1  0  0  0  0
  7 13  2  0  0  0  0
  8 17  1  0  0  0  0
  8 10  1  0  0  0  0
  9  7  1  0  0  0  0
 10 19  1  0  0  0  0
 11  3  1  6  0  0  0
 11 16  1  0  0  0  0
 12 23  1  1  0  0  0
 13  4  1  0  0  0  0
 14 18  1  0  0  0  0
 15  1  1  6  0  0  0
 16 14  1  1  0  0  0
 16  2  1  0  0  0  0
 18  6  1  0  0  0  0
 19 20  1  6  0  0  0
 19 15  1  0  0  0  0
 21 17  1  1  0  0  0
 21  3  1  0  0  0  0
 21 15  1  0  0  0  0
 23 27  2  0  0  0  0
 23 24  1  0  0  0  0
 24 25  2  0  0  0  0
 25 22  1  0  0  0  0
 26 22  2  0  0  0  0
 27 26  1  0  0  0  0
M  END
>  <MODEL>
1

>  <REMARK>
 VINA RESULT:      -7.9      0.000      0.000
  Name = 
  1 active torsions:
  status: ('A' for Active; 'I' for Inactive)
    1  A    between atoms: C_9  and  C_15
                            x       y       z     vdW  Elec       q    Type
                         _______ _______ _______ _____ _____    ______ ____

>  <TORSDO>
F 1

$$$$
=
 OpenBabel11052418183D

 27 31  0  0  1  0  0  0  0  0999 V2000
  191.2300  176.6080  142.8170 S   0  0  0  0  0  0  0  0  0  0  0  0
  189.9910  176.4930  145.4020 C   0  0  2  0  0  3  0  0  0  0  0  0
  188.2220  176.7860  142.6590 N   0  0  0  0  0  2  0  0  0  0  0  0
  186.9050  177.9240  146.4350 N   0  0  0  0  0  0  0  0  0  0  0  0
  184.3840  178.5150  145.5250 Cl  0  0  0  0  0  0  0  0  0  0  0  0
  190.1960  176.7490  146.9100 C   0  0  0  0  0  2  0  0  0  0  0  0
  186.3940  177.2810  144.1690 C   0  0  0  0  0  0  0  0  0  0  0  0
  188.4240  173.1350  141.5410 C   0  0  0  0  0  2  0  0  0  0  0  0
  185.4160  177.0970  143.0490 C   0  0  0  0  0  1  0  0  0  0  0  0
  189.7440  172.7640  142.2290 C   0  0  0  0  0  2  0  0  0  0  0  0
  187.7820  176.6680  144.0490 C   0  0  2  0  0  3  0  0  0  0  0  0
  191.2970  176.8070  144.6390 C   0  0  1  0  0  3  0  0  0  0  0  0
  186.0100  177.8740  145.3160 C   0  0  0  0  0  0  0  0  0  0  0  0
  188.1680  177.6700  146.2940 C   0  0  0  0  0  0  0  0  0  0  0  0
  190.1040  175.1740  142.8360 C   0  0  2  0  0  3  0  0  0  0  0  0
  188.7960  177.3700  144.9830 C   0  0  1  0  0  3  0  0  0  0  0  0
  187.7970  174.3700  142.1850 C   0  0  0  0  0  2  0  0  0  0  0  0
  188.9960  177.3970  147.3980 N   0  0  0  0  0  2  0  0  0  0  0  0
  190.7330  173.9310  142.1980 C   0  0  2  0  0  3  0  0  0  0  0  0
  191.1420  174.1880  140.8850 O   0  0  0  0  0  1  0  0  0  0  0  0
  188.7890  175.5360  142.1460 C   0  0  1  0  0  3  0  0  0  0  0  0
  194.7390  174.6920  146.1260 C   0  0  0  0  0  3  0  0  0  0  0  0
  192.4800  176.0560  145.1750 C   0  0  0  0  0  0  0  0  0  0  0  0
  193.6550  176.7570  145.4680 C   0  0  0  0  0  3  0  0  0  0  0  0
  194.7810  176.0790  145.9470 C   0  0  0  0  0  3  0  0  0  0  0  0
  193.5690  173.9860  145.8320 C   0  0  0  0  0  3  0  0  0  0  0  0
  192.4390  174.6630  145.3580 C   0  0  0  0  0  3  0  0  0  0  0  0
  1 12  1  0  0  0  0
  2  6  1  1  0  0  0
  6 18  1  0  0  0  0
  7 13  2  0  0  0  0
  8 17  1  0  0  0  0
  8 10  1  0  0  0  0
  9  7  1  0  0  0  0
 11  3  1  6  0  0  0
 11  7  1  0  0  0  0
 11 16  1  0  0  0  0
 12 23  1  1  0  0  0
 12  2  1  0  0  0  0
 13  5  1  0  0  0  0
 13  4  1  0  0  0  0
 14  4  2  0  0  0  0
 14 18  1  0  0  0  0
 15  1  1  6  0  0  0
 16  2  1  0  0  0  0
 16 14  1  1  0  0  0
 19 20  1  6  0  0  0
 19 10  1  0  0  0  0
 19 15  1  0  0  0  0
 21 17  1  1  0  0  0
 21  3  1  0  0  0  0
 21 15  1  0  0  0  0
 23 27  2  0  0  0  0
 23 24  1  0  0  0  0
 24 25  2  0  0  0  0
 25 22  1  0  0  0  0
 26 22  2  0  0  0  0
 27 26  1  0  0  0  0
M  END
>  <MODEL>
2

>  <REMARK>
 VINA RESULT:      -7.8      2.295      2.776
  Name = 
  1 active torsions:
  status: ('A' for Active; 'I' for Inactive)
    1  A    between atoms: C_9  and  C_15
                            x       y       z     vdW  Elec       q    Type
                         _______ _______ _______ _____ _____    ______ ____

>  <TORSDO>
F 1

$$$$
=
 OpenBabel11052418183D

 27 31  0  0  1  0  0  0  0  0999 V2000
  189.7010  178.0740  144.7990 S   0  0  0  0  0  0  0  0  0  0  0  0
  188.3580  175.9320  143.4410 C   0  0  2  0  0  3  0  0  0  0  0  0
  191.6260  176.0540  143.6510 N   0  0  0  0  0  2  0  0  0  0  0  0
  189.5370  173.9540  140.7330 N   0  0  0  0  0  0  0  0  0  0  0  0
  191.8250  172.8440  139.7030 Cl  0  0  0  0  0  0  0  0  0  0  0  0
  187.0660  175.5230  142.7020 C   0  0  0  0  0  2  0  0  0  0  0  0
  191.5640  174.2890  141.9920 C   0  0  0  0  0  0  0  0  0  0  0  0
  191.9410  174.8380  147.2630 C   0  0  0  0  0  2  0  0  0  0  0  0
  193.0110  173.9980  142.2460 C   0  0  0  0  0  1  0  0  0  0  0  0
  190.5670  175.2910  147.7710 C   0  0  0  0  0  2  0  0  0  0  0  0
  190.7640  175.0380  143.0490 C   0  0  2  0  0  3  0  0  0  0  0  0
  188.2340  177.3910  143.9350 C   0  0  1  0  0  3  0  0  0  0  0  0
  190.9510  173.7910  140.9010 C   0  0  0  0  0  0  0  0  0  0  0  0
  188.8710  174.8050  141.4490 C   0  0  0  0  0  0  0  0  0  0  0  0
  190.1720  176.5120  145.6130 C   0  0  2  0  0  3  0  0  0  0  0  0
  189.5070  175.7070  142.4420 C   0  0  1  0  0  3  0  0  0  0  0  0
  191.9530  174.7220  145.7400 C   0  0  0  0  0  2  0  0  0  0  0  0
  187.4670  174.7610  141.5380 N   0  0  0  0  0  2  0  0  0  0  0  0
  190.1530  176.6230  147.1400 C   0  0  2  0  0  3  0  0  0  0  0  0
  190.9900  177.6520  147.5840 O   0  0  0  0  0  1  0  0  0  0  0  0
  191.5440  176.0590  145.1140 C   0  0  1  0  0  3  0  0  0  0  0  0
  184.7510  178.1230  146.3560 C   0  0  0  0  0  3  0  0  0  0  0  0
  187.0140  177.6190  144.7790 C   0  0  0  0  0  0  0  0  0  0  0  0
  186.1730  178.6970  144.4820 C   0  0  0  0  0  3  0  0  0  0  0  0
  185.0410  178.9470  145.2640 C   0  0  0  0  0  3  0  0  0  0  0  0
  185.5890  177.0460  146.6610 C   0  0  0  0  0  3  0  0  0  0  0  0
  186.7180  176.7910  145.8750 C   0  0  0  0  0  3  0  0  0  0  0  0
  2  6  1  6  0  0  0
  2 12  1  0  0  0  0
  3 21  1  0  0  0  0
  4 13  1  0  0  0  0
  4 14  2  0  0  0  0
  5 13  1  0  0  0  0
  7  9  1  0  0  0  0
  8 10  1  0  0  0  0
 11  7  1  6  0  0  0
 11  3  1  0  0  0  0
 12 23  1  1  0  0  0
 12  1  1  0  0  0  0
 13  7  2  0  0  0  0
 14 18  1  0  0  0  0
 15  1  1  6  0  0  0
 15 19  1  0  0  0  0
 16 14  1  6  0  0  0
 16 11  1  0  0  0  0
 16  2  1  0  0  0  0
 17  8  1  0  0  0  0
 18  6  1  0  0  0  0
 19 20  1  6  0  0  0
 19 10  1  0  0  0  0
 21 15  1  0  0  0  0
 21 17  1  6  0  0  0
 22 26  1  0  0  0  0
 23 27  1  0  0  0  0
 24 23  2  0  0  0  0
 24 25  1  0  0  0  0
 25 22  2  0  0  0  0
 27 26  2  0  0  0  0
M  END
>  <MODEL>
3

>  <REMARK>
 VINA RESULT:      -7.6      3.284      5.930
  Name = 
  1 active torsions:
  status: ('A' for Active; 'I' for Inactive)
    1  A    between atoms: C_9  and  C_15
                            x       y       z     vdW  Elec       q    Type
                         _______ _______ _______ _____ _____    ______ ____

>  <TORSDO>
F 1

$$$$
=
 OpenBabel11052418183D

 27 31  0  0  1  0  0  0  0  0999 V2000
  191.9450  176.0840  142.8150 S   0  0  0  0  0  0  0  0  0  0  0  0
  190.9120  175.9220  145.4870 C   0  0  2  0  0  3  0  0  0  0  0  0
  188.9840  176.6500  142.9390 N   0  0  0  0  0  2  0  0  0  0  0  0
  188.1340  177.6440  146.8860 N   0  0  0  0  0  0  0  0  0  0  0  0
  185.6490  178.6170  146.2470 Cl  0  0  0  0  0  0  0  0  0  0  0  0
  191.2690  176.0310  146.9840 C   0  0  0  0  0  2  0  0  0  0  0  0
  187.3630  177.2500  144.6360 C   0  0  0  0  0  0  0  0  0  0  0  0
  188.6120  173.1020  141.5620 C   0  0  0  0  0  2  0  0  0  0  0  0
  186.2830  177.2790  143.5990 C   0  0  0  0  0  1  0  0  0  0  0  0
  189.9220  172.5150  142.1020 C   0  0  0  0  0  2  0  0  0  0  0  0
  188.6440  176.4790  144.3510 C   0  0  2  0  0  3  0  0  0  0  0  0
  192.1830  176.1290  144.6320 C   0  0  1  0  0  3  0  0  0  0  0  0
  187.1540  177.7950  145.8500 C   0  0  0  0  0  0  0  0  0  0  0  0
  189.3370  177.2450  146.6160 C   0  0  0  0  0  0  0  0  0  0  0  0
  190.6450  174.8050  142.8370 C   0  0  2  0  0  3  0  0  0  0  0  0
  189.8130  176.9720  145.2360 C   0  0  1  0  0  3  0  0  0  0  0  0
  188.2070  174.3510  142.3420 C   0  0  0  0  0  2  0  0  0  0  0  0
  190.2080  176.7830  147.6200 N   0  0  0  0  0  2  0  0  0  0  0  0
  191.0510  173.5480  142.0620 C   0  0  2  0  0  3  0  0  0  0  0  0
  191.3840  173.8530  140.7390 O   0  0  0  0  0  1  0  0  0  0  0  0
  189.3380  175.3830  142.2930 C   0  0  1  0  0  3  0  0  0  0  0  0
  195.4240  173.4880  145.6600 C   0  0  0  0  0  3  0  0  0  0  0  0
  193.2950  175.1940  145.0080 C   0  0  0  0  0  0  0  0  0  0  0  0
  194.5690  175.7190  145.2580 C   0  0  0  0  0  3  0  0  0  0  0  0
  195.6290  174.8700  145.5890 C   0  0  0  0  0  3  0  0  0  0  0  0
  194.1550  172.9580  145.4080 C   0  0  0  0  0  3  0  0  0  0  0  0
  193.0900  173.8070  145.0840 C   0  0  0  0  0  3  0  0  0  0  0  0
  1 12  1  0  0  0  0
  2  6  1  1  0  0  0
  6 18  1  0  0  0  0
  7 13  2  0  0  0  0
  8 10  1  0  0  0  0
  8 17  1  0  0  0  0
  9  7  1  0  0  0  0
 11  3  1  6  0  0  0
 11  7  1  0  0  0  0
 11 16  1  0  0  0  0
 12 23  1  1  0  0  0
 12  2  1  0  0  0  0
 13  5  1  0  0  0  0
 13  4  1  0  0  0  0
 14  4  2  0  0  0  0
 14 18  1  0  0  0  0
 15  1  1  6  0  0  0
 16  2  1  0  0  0  0
 16 14  1  1  0  0  0
 19 20  1  6  0  0  0
 19 10  1  0  0  0  0
 19 15  1  0  0  0  0
 21 17  1  1  0  0  0
 21 15  1  0  0  0  0
 21  3  1  0  0  0  0
 23 27  2  0  0  0  0
 23 24  1  0  0  0  0
 24 25  2  0  0  0  0
 25 22  1  0  0  0  0
 26 22  2  0  0  0  0
 27 26  1  0  0  0  0
M  END
>  <MODEL>
4

>  <REMARK>
 VINA RESULT:      -7.5      2.902      3.708
  Name = 
  1 active torsions:
  status: ('A' for Active; 'I' for Inactive)
    1  A    between atoms: C_9  and  C_15
                            x       y       z     vdW  Elec       q    Type
                         _______ _______ _______ _____ _____    ______ ____

>  <TORSDO>
F 1

$$$$
=
 OpenBabel11052418183D

 27 31  0  0  1  0  0  0  0  0999 V2000
  189.6910  173.2810  145.3200 S   0  0  0  0  0  0  0  0  0  0  0  0
  191.5450  175.4560  145.5740 C   0  0  2  0  0  3  0  0  0  0  0  0
  192.4970  172.4980  144.5330 N   0  0  0  0  0  2  0  0  0  0  0  0
  195.0350  175.3140  146.2400 N   0  0  0  0  0  0  0  0  0  0  0  0
  197.2660  173.7910  145.7630 Cl  0  0  0  0  0  0  0  0  0  0  0  0
  191.8320  176.7900  146.2960 C   0  0  0  0  0  2  0  0  0  0  0  0
  194.7370  173.3610  144.8600 C   0  0  0  0  0  0  0  0  0  0  0  0
  191.1850  172.7820  140.9520 C   0  0  0  0  0  2  0  0  0  0  0  0
  195.2960  172.2100  144.0810 C   0  0  0  0  0  1  0  0  0  0  0  0
  190.0620  173.7950  141.2050 C   0  0  0  0  0  2  0  0  0  0  0  0
  193.2700  173.7300  144.6850 C   0  0  2  0  0  3  0  0  0  0  0  0
  190.1820  174.8960  146.0370 C   0  0  1  0  0  3  0  0  0  0  0  0
  195.5470  174.1330  145.6090 C   0  0  0  0  0  0  0  0  0  0  0  0
  193.7590  175.5150  146.3490 C   0  0  0  0  0  0  0  0  0  0  0  0
  190.4300  173.5820  143.6800 C   0  0  2  0  0  3  0  0  0  0  0  0
  192.7390  174.5370  145.8940 C   0  0  1  0  0  3  0  0  0  0  0  0
  192.2250  172.8230  142.0700 C   0  0  0  0  0  2  0  0  0  0  0  0
  193.2320  176.7820  146.6620 N   0  0  0  0  0  2  0  0  0  0  0  0
  189.3880  173.5500  142.5580 C   0  0  2  0  0  3  0  0  0  0  0  0
  188.6970  172.3340  142.5430 O   0  0  0  0  0  1  0  0  0  0  0  0
  191.5460  172.5710  143.4190 C   0  0  1  0  0  3  0  0  0  0  0  0
  186.9100  177.6530  145.5600 C   0  0  0  0  0  3  0  0  0  0  0  0
  189.0590  175.8760  145.8600 C   0  0  0  0  0  0  0  0  0  0  0  0
  188.1220  176.0290  146.8880 C   0  0  0  0  0  3  0  0  0  0  0  0
  187.0530  176.9190  146.7420 C   0  0  0  0  0  3  0  0  0  0  0  0
  187.8410  177.5010  144.5280 C   0  0  0  0  0  3  0  0  0  0  0  0
  188.9160  176.6170  144.6750 C   0  0  0  0  0  3  0  0  0  0  0  0
  1 12  1  0  0  0  0
  2 16  1  0  0  0  0
  2 12  1  0  0  0  0
  2  6  1  1  0  0  0
  4 14  2  0  0  0  0
  6 18  1  0  0  0  0
  7 13  2  0  0  0  0
  8 10  1  0  0  0  0
  8 17  1  0  0  0  0
  9  7  1  0  0  0  0
 10 19  1  0  0  0  0
 11  3  1  1  0  0  0
 11  7  1  0  0  0  0
 11 16  1  0  0  0  0
 12 23  1  6  0  0  0
 13  5  1  0  0  0  0
 13  4  1  0  0  0  0
 14 18  1  0  0  0  0
 15  1  1  1  0  0  0
 16 14  1  6  0  0  0
 19 20  1  6  0  0  0
 19 15  1  0  0  0  0
 21 17  1  6  0  0  0
 21 15  1  0  0  0  0
 21  3  1  0  0  0  0
 22 25  1  0  0  0  0
 23 24  1  0  0  0  0
 25 24  2  0  0  0  0
 26 27  1  0  0  0  0
 26 22  2  0  0  0  0
 27 23  2  0  0  0  0
M  END
>  <MODEL>
5

>  <REMARK>
 VINA RESULT:      -7.2      4.908      7.148
  Name = 
  1 active torsions:
  status: ('A' for Active; 'I' for Inactive)
    1  A    between atoms: C_9  and  C_15
                            x       y       z     vdW  Elec       q    Type
                         _______ _______ _______ _____ _____    ______ ____

>  <TORSDO>
F 1

$$$$
=
 OpenBabel11052418183D

 27 31  0  0  1  0  0  0  0  0999 V2000
  190.0480  174.0850  144.9240 S   0  0  0  0  0  0  0  0  0  0  0  0
  189.0960  176.3400  143.4260 C   0  0  2  0  0  3  0  0  0  0  0  0
  188.2810  175.8950  146.5690 N   0  0  0  0  0  2  0  0  0  0  0  0
  186.0820  178.1720  143.8730 N   0  0  0  0  0  0  0  0  0  0  0  0
  184.3480  179.0410  145.8140 Cl  0  0  0  0  0  0  0  0  0  0  0  0
  188.7810  176.8710  142.0120 C   0  0  0  0  0  2  0  0  0  0  0  0
  186.6580  177.6450  146.1530 C   0  0  0  0  0  0  0  0  0  0  0  0
  191.5660  177.1010  148.1130 C   0  0  0  0  0  2  0  0  0  0  0  0
  186.4370  177.7930  147.6270 C   0  0  0  0  0  1  0  0  0  0  0  0
  192.4940  176.7910  146.9320 C   0  0  0  0  0  2  0  0  0  0  0  0
  187.9390  176.9880  145.6590 C   0  0  2  0  0  3  0  0  0  0  0  0
  189.6600  174.9050  143.3290 C   0  0  1  0  0  3  0  0  0  0  0  0
  185.7950  178.1940  145.2770 C   0  0  0  0  0  0  0  0  0  0  0  0
  187.0010  177.3970  143.3900 C   0  0  0  0  0  0  0  0  0  0  0  0
  190.6150  175.5990  145.7690 C   0  0  2  0  0  3  0  0  0  0  0  0
  187.7800  176.4430  144.2200 C   0  0  1  0  0  3  0  0  0  0  0  0
  190.1120  177.2030  147.6560 C   0  0  0  0  0  2  0  0  0  0  0  0
  187.5220  177.5810  142.0950 N   0  0  0  0  0  2  0  0  0  0  0  0
  192.0750  175.5020  146.2200 C   0  0  2  0  0  3  0  0  0  0  0  0
  192.2740  174.3980  147.0550 O   0  0  0  0  0  1  0  0  0  0  0  0
  189.6970  175.9090  146.9500 C   0  0  1  0  0  3  0  0  0  0  0  0
  193.0660  174.5410  140.7230 C   0  0  0  0  0  3  0  0  0  0  0  0
  190.8490  174.8060  142.4200 C   0  0  0  0  0  0  0  0  0  0  0  0
  190.8140  173.9050  141.3500 C   0  0  0  0  0  3  0  0  0  0  0  0
  191.9170  173.7760  140.5000 C   0  0  0  0  0  3  0  0  0  0  0  0
  193.1090  175.4400  141.7930 C   0  0  0  0  0  3  0  0  0  0  0  0
  192.0040  175.5760  142.6410 C   0  0  0  0  0  3  0  0  0  0  0  0
  2  6  1  6  0  0  0
  2 16  1  0  0  0  0
  3 21  1  0  0  0  0
  4 13  1  0  0  0  0
  6 18  1  0  0  0  0
  7  9  1  0  0  0  0
 10  8  1  0  0  0  0
 11  7  1  1  0  0  0
 11  3  1  0  0  0  0
 12 23  1  6  0  0  0
 12  2  1  0  0  0  0
 12  1  1  0  0  0  0
 13  5  1  0  0  0  0
 13  7  2  0  0  0  0
 14  4  2  0  0  0  0
 15  1  1  1  0  0  0
 15 19  1  0  0  0  0
 15 21  1  0  0  0  0
 16 14  1  6  0  0  0
 16 11  1  0  0  0  0
 17  8  1  0  0  0  0
 18 14  1  0  0  0  0
 19 10  1  0  0  0  0
 19 20  1  1  0  0  0
 21 17  1  6  0  0  0
 22 26  1  0  0  0  0
 23 27  1  0  0  0  0
 24 23  2  0  0  0  0
 25 22  2  0  0  0  0
 25 24  1  0  0  0  0
 26 27  2  0  0  0  0
M  END
>  <MODEL>
6

>  <REMARK>
 VINA RESULT:      -7.1      2.150      5.176
  Name = 
  1 active torsions:
  status: ('A' for Active; 'I' for Inactive)
    1  A    between atoms: C_9  and  C_15
                            x       y       z     vdW  Elec       q    Type
                         _______ _______ _______ _____ _____    ______ ____

>  <TORSDO>
F 1

$$$$
=
 OpenBabel11052418183D

 27 31  0  0  1  0  0  0  0  0999 V2000
  189.6910  173.3090  144.0620 S   0  0  0  0  0  0  0  0  0  0  0  0
  188.5520  175.4980  142.5990 C   0  0  2  0  0  3  0  0  0  0  0  0
  188.6960  175.5080  145.8720 N   0  0  0  0  0  2  0  0  0  0  0  0
  186.0110  177.7590  143.6340 N   0  0  0  0  0  0  0  0  0  0  0  0
  185.0460  179.0600  145.8490 Cl  0  0  0  0  0  0  0  0  0  0  0  0
  187.8720  175.9120  141.2760 C   0  0  0  0  0  2  0  0  0  0  0  0
  187.2020  177.4080  145.6990 C   0  0  0  0  0  0  0  0  0  0  0  0
  192.3960  176.4160  146.2070 C   0  0  0  0  0  2  0  0  0  0  0  0
  187.4570  177.7420  147.1370 C   0  0  0  0  0  1  0  0  0  0  0  0
  192.8850  175.8570  144.8650 C   0  0  0  0  0  2  0  0  0  0  0  0
  188.2010  176.5340  144.9540 C   0  0  2  0  0  3  0  0  0  0  0  0
  188.9160  173.9970  142.5490 C   0  0  1  0  0  3  0  0  0  0  0  0
  186.1700  177.9720  145.0430 C   0  0  0  0  0  0  0  0  0  0  0  0
  186.6590  176.8190  143.0210 C   0  0  0  0  0  0  0  0  0  0  0  0
  190.6330  174.8140  144.4800 C   0  0  2  0  0  3  0  0  0  0  0  0
  187.5570  175.8640  143.7160 C   0  0  1  0  0  3  0  0  0  0  0  0
  190.8900  176.6650  146.1820 C   0  0  0  0  0  2  0  0  0  0  0  0
  186.7740  176.7910  141.6190 N   0  0  0  0  0  2  0  0  0  0  0  0
  192.1450  174.5680  144.4970 C   0  0  2  0  0  3  0  0  0  0  0  0
  192.4820  173.5440  145.3880 O   0  0  0  0  0  1  0  0  0  0  0  0
  190.1550  175.3710  145.8200 C   0  0  1  0  0  3  0  0  0  0  0  0
  191.3040  172.8960  139.1410 C   0  0  0  0  0  3  0  0  0  0  0  0
  189.7560  173.6410  141.3580 C   0  0  0  0  0  0  0  0  0  0  0  0
  189.2480  172.7430  140.4120 C   0  0  0  0  0  3  0  0  0  0  0  0
  190.0160  172.3750  139.3040 C   0  0  0  0  0  3  0  0  0  0  0  0
  191.8190  173.7910  140.0850 C   0  0  0  0  0  3  0  0  0  0  0  0
  191.0480  174.1660  141.1910 C   0  0  0  0  0  3  0  0  0  0  0  0
  2  6  1  6  0  0  0
  2 16  1  0  0  0  0
  4 13  1  0  0  0  0
  6 18  1  0  0  0  0
  7  9  1  0  0  0  0
 10  8  1  0  0  0  0
 11  7  1  1  0  0  0
 11  3  1  0  0  0  0
 12 23  1  6  0  0  0
 12  2  1  0  0  0  0
 12  1  1  0  0  0  0
 13  7  2  0  0  0  0
 13  5  1  0  0  0  0
 14  4  2  0  0  0  0
 15  1  1  1  0  0  0
 15 19  1  0  0  0  0
 15 21  1  0  0  0  0
 16 14  1  6  0  0  0
 16 11  1  0  0  0  0
 17  8  1  0  0  0  0
 18 14  1  0  0  0  0
 19 10  1  0  0  0  0
 19 20  1  1  0  0  0
 21  3  1  0  0  0  0
 21 17  1  6  0  0  0
 22 25  2  0  0  0  0
 22 26  1  0  0  0  0
 24 23  2  0  0  0  0
 25 24  1  0  0  0  0
 26 27  2  0  0  0  0
 27 23  1  0  0  0  0
M  END
>  <MODEL>
7

>  <REMARK>
 VINA RESULT:      -7.0      2.362      5.416
  Name = 
  1 active torsions:
  status: ('A' for Active; 'I' for Inactive)
    1  A    between atoms: C_9  and  C_15
                            x       y       z     vdW  Elec       q    Type
                         _______ _______ _______ _____ _____    ______ ____

>  <TORSDO>
F 1

$$$$
=
 OpenBabel11052418183D

 27 31  0  0  1  0  0  0  0  0999 V2000
  188.0330  174.0430  142.0990 S   0  0  0  0  0  0  0  0  0  0  0  0
  189.6140  176.4170  142.4120 C   0  0  2  0  0  3  0  0  0  0  0  0
  190.9890  173.4500  142.2030 N   0  0  0  0  0  2  0  0  0  0  0  0
  192.7990  176.7590  143.9530 N   0  0  0  0  0  0  0  0  0  0  0  0
  195.1670  175.4280  144.3420 Cl  0  0  0  0  0  0  0  0  0  0  0  0
  189.6140  177.8720  142.9260 C   0  0  0  0  0  2  0  0  0  0  0  0
  193.0020  174.5900  142.9220 C   0  0  0  0  0  0  0  0  0  0  0  0
  190.6690  173.0160  138.4170 C   0  0  0  0  0  2  0  0  0  0  0  0
  193.8200  173.3960  142.5340 C   0  0  0  0  0  1  0  0  0  0  0  0
  189.4590  173.9300  138.1890 C   0  0  0  0  0  2  0  0  0  0  0  0
  191.6160  174.7670  142.3190 C   0  0  2  0  0  3  0  0  0  0  0  0
  188.2130  175.7950  142.6090 C   0  0  1  0  0  3  0  0  0  0  0  0
  193.5330  175.5540  143.6980 C   0  0  0  0  0  0  0  0  0  0  0  0
  191.5310  176.8370  143.6970 C   0  0  0  0  0  0  0  0  0  0  0  0
  189.1640  174.1550  140.6730 C   0  0  2  0  0  3  0  0  0  0  0  0
  190.7330  175.6950  143.1850 C   0  0  1  0  0  3  0  0  0  0  0  0
  191.3670  173.3460  139.7350 C   0  0  0  0  0  2  0  0  0  0  0  0
  190.8630  178.0740  143.6300 N   0  0  0  0  0  2  0  0  0  0  0  0
  188.4640  173.8330  139.3490 C   0  0  2  0  0  3  0  0  0  0  0  0
  187.8790  172.5630  139.3820 O   0  0  0  0  0  1  0  0  0  0  0  0
  190.3690  173.2410  140.8910 C   0  0  1  0  0  3  0  0  0  0  0  0
  185.0250  178.0800  140.8350 C   0  0  0  0  0  3  0  0  0  0  0  0
  187.1210  176.6080  141.9780 C   0  0  0  0  0  0  0  0  0  0  0  0
  186.0130  176.9750  142.7510 C   0  0  0  0  0  3  0  0  0  0  0  0
  184.9700  177.7140  142.1840 C   0  0  0  0  0  3  0  0  0  0  0  0
  186.1270  177.7130  140.0570 C   0  0  0  0  0  3  0  0  0  0  0  0
  187.1750  176.9800  140.6250 C   0  0  0  0  0  3  0  0  0  0  0  0
  1 12  1  0  0  0  0
  2 12  1  0  0  0  0
  2  6  1  1  0  0  0
  2 16  1  0  0  0  0
  6 18  1  0  0  0  0
  7 13  2  0  0  0  0
  8 17  1  0  0  0  0
  9  7  1  0  0  0  0
 10  8  1  0  0  0  0
 10 19  1  0  0  0  0
 11  3  1  1  0  0  0
 11  7  1  0  0  0  0
 11 16  1  0  0  0  0
 12 23  1  6  0  0  0
 13  4  1  0  0  0  0
 13  5  1  0  0  0  0
 14  4  2  0  0  0  0
 15 21  1  0  0  0  0
 15  1  1  1  0  0  0
 16 14  1  6  0  0  0
 18 14  1  0  0  0  0
 19 20  1  1  0  0  0
 19 15  1  0  0  0  0
 21 17  1  6  0  0  0
 21  3  1  0  0  0  0
 22 25  1  0  0  0  0
 23 24  1  0  0  0  0
 25 24  2  0  0  0  0
 26 27  1  0  0  0  0
 26 22  2  0  0  0  0
 27 23  2  0  0  0  0
M  END
>  <MODEL>
8

>  <REMARK>
 VINA RESULT:      -7.0      4.175      6.784
  Name = 
  1 active torsions:
  status: ('A' for Active; 'I' for Inactive)
    1  A    between atoms: C_9  and  C_15
                            x       y       z     vdW  Elec       q    Type
                         _______ _______ _______ _____ _____    ______ ____

>  <TORSDO>
F 1

$$$$
=
 OpenBabel11052418183D

 27 31  0  0  1  0  0  0  0  0999 V2000
  189.7110  177.4960  143.4210 S   0  0  0  0  0  0  0  0  0  0  0  0
  188.9740  175.1050  142.0170 C   0  0  2  0  0  3  0  0  0  0  0  0
  191.6640  175.2430  143.8830 N   0  0  0  0  0  2  0  0  0  0  0  0
  191.0910  172.5270  140.7870 N   0  0  0  0  0  0  0  0  0  0  0  0
  193.4140  171.1820  141.3570 Cl  0  0  0  0  0  0  0  0  0  0  0  0
  188.1970  174.5420  140.8070 C   0  0  0  0  0  2  0  0  0  0  0  0
  192.2200  173.1340  142.8280 C   0  0  0  0  0  0  0  0  0  0  0  0
  189.9340  174.9190  147.2790 C   0  0  0  0  0  2  0  0  0  0  0  0
  193.2840  172.8980  143.8560 C   0  0  0  0  0  1  0  0  0  0  0  0
  188.5660  175.4930  146.8880 C   0  0  0  0  0  2  0  0  0  0  0  0
  191.1010  174.1200  143.1330 C   0  0  2  0  0  3  0  0  0  0  0  0
  188.8110  176.6400  142.0710 C   0  0  1  0  0  3  0  0  0  0  0  0
  192.1870  172.3950  141.7020 C   0  0  0  0  0  0  0  0  0  0  0  0
  190.2740  173.5300  140.8610 C   0  0  0  0  0  0  0  0  0  0  0  0
  189.4900  176.1680  144.6520 C   0  0  2  0  0  3  0  0  0  0  0  0
  190.4300  174.6360  141.8380 C   0  0  1  0  0  3  0  0  0  0  0  0
  190.7030  174.4440  146.0470 C   0  0  0  0  0  2  0  0  0  0  0  0
  189.0290  173.5210  140.2060 N   0  0  0  0  0  2  0  0  0  0  0  0
  188.7120  176.6400  145.8840 C   0  0  2  0  0  3  0  0  0  0  0  0
  189.3350  177.7370  146.4870 O   0  0  0  0  0  1  0  0  0  0  0  0
  190.8500  175.5970  145.0500 C   0  0  1  0  0  3  0  0  0  0  0  0
  184.7130  177.9580  142.0820 C   0  0  0  0  0  3  0  0  0  0  0  0
  187.3740  177.0730  142.0830 C   0  0  0  0  0  0  0  0  0  0  0  0
  186.8910  177.8540  141.0270 C   0  0  0  0  0  3  0  0  0  0  0  0
  185.5630  178.2910  141.0220 C   0  0  0  0  0  3  0  0  0  0  0  0
  185.1910  177.1810  143.1420 C   0  0  0  0  0  3  0  0  0  0  0  0
  186.5180  176.7370  143.1450 C   0  0  0  0  0  3  0  0  0  0  0  0
  2  6  1  6  0  0  0
  2 12  1  0  0  0  0
  3 21  1  0  0  0  0
  4 14  2  0  0  0  0
  4 13  1  0  0  0  0
  5 13  1  0  0  0  0
  7  9  1  0  0  0  0
 10  8  1  0  0  0  0
 11  7  1  6  0  0  0
 11  3  1  0  0  0  0
 12 23  1  1  0  0  0
 12  1  1  0  0  0  0
 13  7  2  0  0  0  0
 15  1  1  6  0  0  0
 15 21  1  0  0  0  0
 15 19  1  0  0  0  0
 16 14  1  6  0  0  0
 16  2  1  0  0  0  0
 16 11  1  0  0  0  0
 17  8  1  0  0  0  0
 18  6  1  0  0  0  0
 18 14  1  0  0  0  0
 19 20  1  1  0  0  0
 19 10  1  0  0  0  0
 21 17  1  1  0  0  0
 22 26  1  0  0  0  0
 23 27  1  0  0  0  0
 24 23  2  0  0  0  0
 25 24  1  0  0  0  0
 25 22  2  0  0  0  0
 26 27  2  0  0  0  0
M  END
>  <MODEL>
9

>  <REMARK>
 VINA RESULT:      -7.0      3.773      7.023
  Name = 
  1 active torsions:
  status: ('A' for Active; 'I' for Inactive)
    1  A    between atoms: C_9  and  C_15
                            x       y       z     vdW  Elec       q    Type
                         _______ _______ _______ _____ _____    ______ ____

>  <TORSDO>
F 1

$$$$
