=
 OpenBabel11052421293D

 32 37  0  0  1  0  0  0  0  0999 V2000
  185.0010  179.2270  144.6030 C   0  0  0  0  0  2  0  0  0  0  0  0
  188.9320  176.0400  143.7520 C   0  0  0  0  0  0  0  0  0  0  0  0
  191.5790  176.5410  147.7960 C   0  0  0  0  0  3  0  0  0  0  0  0
  192.5570  175.7140  147.2450 C   0  0  0  0  0  3  0  0  0  0  0  0
  189.6870  174.6820  141.8610 C   0  0  0  0  0  0  0  0  0  0  0  0
  188.5070  175.0060  141.1630 C   0  0  0  0  0  0  0  0  0  0  0  0
  186.7730  177.1750  143.6030 C   0  0  0  0  0  0  0  0  0  0  0  0
  188.1230  177.3970  145.5650 N   0  0  0  0  0  0  0  0  0  0  0  0
  190.3850  173.3450  139.9370 C   0  0  0  0  0  0  0  0  0  0  0  0
  185.9510  178.5480  145.5810 C   0  0  0  0  0  2  0  0  0  0  0  0
  190.4240  176.8360  147.0670 C   0  0  0  0  0  3  0  0  0  0  0  0
  189.0890  176.5920  145.0430 C   0  0  0  0  0  0  0  0  0  0  0  0
  190.2390  176.3050  145.7800 C   0  0  0  0  0  0  0  0  0  0  0  0
  191.0430  174.9380  143.9360 C   0  0  0  0  0  0  0  0  0  0  0  0
  189.2090  173.6770  139.2650 C   0  0  0  0  0  3  0  0  0  0  0  0
  186.9920  177.7140  144.8860 C   0  0  0  0  0  0  0  0  0  0  0  0
  188.2700  174.5080  139.8790 C   0  0  0  0  0  3  0  0  0  0  0  0
  185.5600  177.5470  142.7870 C   0  0  0  0  0  2  0  0  0  0  0  0
  184.4490  178.1840  143.6310 C   0  0  2  0  0  3  0  0  0  0  0  0
  192.3830  175.1810  145.9660 C   0  0  0  0  0  3  0  0  0  0  0  0
  191.2250  175.4700  145.2230 C   0  0  0  0  0  0  0  0  0  0  0  0
  191.9480  174.1920  143.4650 O   0  0  0  0  0  0  0  0  0  0  0  0
  187.7540  176.3480  143.0380 C   0  0  0  0  0  0  0  0  0  0  0  0
  187.5590  175.8310  141.7570 O   0  0  0  0  0  0  0  0  0  0  0  0
  191.3870  172.4590  139.2880 C   0  0  0  0  0  1  0  0  0  0  0  0
  189.9030  175.2210  143.2050 N   0  0  0  0  0  0  0  0  0  0  0  0
  190.6190  173.8420  141.2200 C   0  0  0  0  0  3  0  0  0  0  0  0
  183.3710  178.6620  142.8550 O   0  0  0  0  0  0  0  0  0  0  0  0
  183.5510  178.2640  141.5190 C   0  0  0  0  0  2  0  0  0  0  0  0
  182.2280  178.0130  140.8890 C   0  0  0  0  0  0  0  0  0  0  0  0
  181.0630  178.3680  141.5550 O   0  0  0  0  0  1  0  0  0  0  0  0
  182.1660  177.5150  139.7350 O   0  0  0  0  0  0  0  0  0  0  0  0
  1 10  1  0  0  0  0
  2 12  1  0  0  0  0
  4  3  1  0  0  0  0
  5 26  1  0  0  0  0
  6 24  1  0  0  0  0
  6  5  2  0  0  0  0
  7 16  2  0  0  0  0
  9 27  2  0  0  0  0
 11  3  2  0  0  0  0
 12  8  2  0  0  0  0
 12 13  1  0  0  0  0
 13 11  1  0  0  0  0
 14 21  1  0  0  0  0
 15 17  2  0  0  0  0
 15  9  1  0  0  0  0
 16  8  1  0  0  0  0
 16 10  1  0  0  0  0
 17  6  1  0  0  0  0
 18  7  1  0  0  0  0
 18 19  1  0  0  0  0
 19 28  1  6  0  0  0
 19  1  1  0  0  0  0
 20  4  2  0  0  0  0
 21 13  2  0  0  0  0
 21 20  1  0  0  0  0
 22 14  2  0  0  0  0
 23  7  1  0  0  0  0
 23  2  2  0  0  0  0
 24 23  1  0  0  0  0
 25  9  1  0  0  0  0
 26  2  1  0  0  0  0
 26 14  1  0  0  0  0
 27  5  1  0  0  0  0
 29 28  1  0  0  0  0
 30 29  1  0  0  0  0
 30 31  1  0  0  0  0
 32 30  2  0  0  0  0
M  END
>  <MODEL>
1

>  <REMARK>
 VINA RESULT:      -8.5      0.000      0.000
  Name = 
  3 active torsions:
  status: ('A' for Active; 'I' for Inactive)
    1  A    between atoms: C_1  and  C_10
    2  A    between atoms: C_10  and  O_19
    3  A    between atoms: O_19  and  C_24
                            x       y       z     vdW  Elec       q    Type
                         _______ _______ _______ _____ _____    ______ ____

>  <TORSDO>
F 3

$$$$
=
 OpenBabel11052421293D

 32 37  0  0  1  0  0  0  0  0999 V2000
  186.7260  178.1180  146.8270 C   0  0  0  0  0  2  0  0  0  0  0  0
  190.2600  175.6370  144.0530 C   0  0  0  0  0  0  0  0  0  0  0  0
  194.2960  176.2900  146.6780 C   0  0  0  0  0  3  0  0  0  0  0  0
  195.0360  175.6600  145.6770 C   0  0  0  0  0  3  0  0  0  0  0  0
  190.2900  174.5330  141.8690 C   0  0  0  0  0  0  0  0  0  0  0  0
  188.8970  174.7130  141.7640 C   0  0  0  0  0  0  0  0  0  0  0  0
  188.1270  176.4320  144.9440 C   0  0  0  0  0  0  0  0  0  0  0  0
  190.1470  176.7380  146.1890 N   0  0  0  0  0  0  0  0  0  0  0  0
  190.2530  173.4430  139.6810 C   0  0  0  0  0  0  0  0  0  0  0  0
  188.0720  177.5350  147.2370 C   0  0  0  0  0  2  0  0  0  0  0  0
  192.9160  176.4470  146.5300 C   0  0  0  0  0  3  0  0  0  0  0  0
  190.8850  176.1260  145.2220 C   0  0  0  0  0  0  0  0  0  0  0  0
  192.2640  175.9750  145.3800 C   0  0  0  0  0  0  0  0  0  0  0  0
  192.3600  174.8660  143.2160 C   0  0  0  0  0  0  0  0  0  0  0  0
  188.8730  173.6310  139.5980 C   0  0  0  0  0  3  0  0  0  0  0  0
  188.8070  176.9170  146.0800 C   0  0  0  0  0  0  0  0  0  0  0  0
  188.1960  174.2660  140.6400 C   0  0  0  0  0  3  0  0  0  0  0  0
  186.6490  176.6620  144.7520 C   0  0  0  0  0  2  0  0  0  0  0  0
  185.9370  177.0650  146.0490 C   0  0  2  0  0  3  0  0  0  0  0  0
  194.3970  175.1870  144.5280 C   0  0  0  0  0  3  0  0  0  0  0  0
  193.0080  175.3390  144.3690 C   0  0  0  0  0  0  0  0  0  0  0  0
  193.0580  174.3010  142.3280 O   0  0  0  0  0  0  0  0  0  0  0  0
  188.8630  175.8040  143.9300 C   0  0  0  0  0  0  0  0  0  0  0  0
  188.2030  175.3430  142.7910 O   0  0  0  0  0  0  0  0  0  0  0  0
  190.9780  172.7660  138.5750 C   0  0  0  0  0  1  0  0  0  0  0  0
  190.9930  175.0150  143.0600 N   0  0  0  0  0  0  0  0  0  0  0  0
  190.9510  173.8890  140.8040 C   0  0  0  0  0  3  0  0  0  0  0  0
  184.5840  177.4170  145.8490 O   0  0  0  0  0  0  0  0  0  0  0  0
  184.4680  178.8180  145.8360 C   0  0  0  0  0  2  0  0  0  0  0  0
  184.5230  179.3110  144.4350 C   0  0  0  0  0  0  0  0  0  0  0  0
  183.6500  178.8010  143.4840 O   0  0  0  0  0  0  0  0  0  0  0  0
  185.3350  180.2190  144.1200 O   0  0  0  0  0  1  0  0  0  0  0  0
  1 10  1  0  0  0  0
  2 12  1  0  0  0  0
  4  3  2  0  0  0  0
  5 26  1  0  0  0  0
  6  5  1  0  0  0  0
  6 24  1  0  0  0  0
  7 16  2  0  0  0  0
  9 27  1  0  0  0  0
 11  3  1  0  0  0  0
 12 13  1  0  0  0  0
 12  8  2  0  0  0  0
 13 11  2  0  0  0  0
 14 21  1  0  0  0  0
 15  9  2  0  0  0  0
 15 17  1  0  0  0  0
 16  8  1  0  0  0  0
 16 10  1  0  0  0  0
 17  6  2  0  0  0  0
 18  7  1  0  0  0  0
 18 19  1  0  0  0  0
 19 28  1  6  0  0  0
 19  1  1  0  0  0  0
 20  4  1  0  0  0  0
 21 20  2  0  0  0  0
 21 13  1  0  0  0  0
 22 14  2  0  0  0  0
 23  2  2  0  0  0  0
 23  7  1  0  0  0  0
 24 23  1  0  0  0  0
 25  9  1  0  0  0  0
 26 14  1  0  0  0  0
 26  2  1  0  0  0  0
 27  5  2  0  0  0  0
 29 28  1  0  0  0  0
 30 29  1  0  0  0  0
 31 30  2  0  0  0  0
 32 30  1  0  0  0  0
M  END
>  <MODEL>
2

>  <REMARK>
 VINA RESULT:      -8.4      1.774      2.515
  Name = 
  3 active torsions:
  status: ('A' for Active; 'I' for Inactive)
    1  A    between atoms: C_1  and  C_10
    2  A    between atoms: C_10  and  O_19
    3  A    between atoms: O_19  and  C_24
                            x       y       z     vdW  Elec       q    Type
                         _______ _______ _______ _____ _____    ______ ____

>  <TORSDO>
F 3

$$$$
=
 OpenBabel11052421293D

 32 37  0  0  1  0  0  0  0  0999 V2000
  185.2590  177.7780  143.2070 C   0  0  0  0  0  2  0  0  0  0  0  0
  189.7930  175.4190  142.7500 C   0  0  0  0  0  0  0  0  0  0  0  0
  189.2170  172.8260  138.6820 C   0  0  0  0  0  3  0  0  0  0  0  0
  190.4700  172.2480  138.8850 C   0  0  0  0  0  3  0  0  0  0  0  0
  191.8060  175.2460  144.1320 C   0  0  0  0  0  0  0  0  0  0  0  0
  191.2700  176.1960  145.0230 C   0  0  0  0  0  0  0  0  0  0  0  0
  188.0190  176.9520  143.4370 C   0  0  0  0  0  0  0  0  0  0  0  0
  187.7820  175.6420  141.4500 N   0  0  0  0  0  0  0  0  0  0  0  0
  193.7880  175.1160  145.5560 C   0  0  0  0  0  0  0  0  0  0  0  0
  185.9420  177.1820  141.9830 C   0  0  0  0  0  2  0  0  0  0  0  0
  188.7250  173.7630  139.5930 C   0  0  0  0  0  3  0  0  0  0  0  0
  189.0030  175.0680  141.6320 C   0  0  0  0  0  0  0  0  0  0  0  0
  189.4840  174.1320  140.7160 C   0  0  0  0  0  0  0  0  0  0  0  0
  191.5110  173.9170  142.0440 C   0  0  0  0  0  0  0  0  0  0  0  0
  193.2390  176.0590  146.4250 C   0  0  0  0  0  3  0  0  0  0  0  0
  187.2660  176.5500  142.3160 C   0  0  0  0  0  0  0  0  0  0  0  0
  191.9800  176.5980  146.1580 C   0  0  0  0  0  3  0  0  0  0  0  0
  187.4610  177.9120  144.4580 C   0  0  0  0  0  2  0  0  0  0  0  0
  186.2430  178.6880  143.9410 C   0  0  2  0  0  3  0  0  0  0  0  0
  191.2340  172.6080  139.9990 C   0  0  0  0  0  3  0  0  0  0  0  0
  190.7490  173.5510  140.9220 C   0  0  0  0  0  0  0  0  0  0  0  0
  192.6420  173.3760  142.2000 O   0  0  0  0  0  0  0  0  0  0  0  0
  189.2760  176.3730  143.6530 C   0  0  0  0  0  0  0  0  0  0  0  0
  190.0180  176.7450  144.7740 O   0  0  0  0  0  0  0  0  0  0  0  0
  195.1290  174.5400  145.8360 C   0  0  0  0  0  1  0  0  0  0  0  0
  191.0350  174.8460  142.9520 N   0  0  0  0  0  0  0  0  0  0  0  0
  193.0790  174.7160  144.4230 C   0  0  0  0  0  3  0  0  0  0  0  0
  185.6320  179.4830  144.9350 O   0  0  0  0  0  0  0  0  0  0  0  0
  184.4390  178.8690  145.3510 C   0  0  0  0  0  2  0  0  0  0  0  0
  184.6860  178.0800  146.5850 C   0  0  0  0  0  0  0  0  0  0  0  0
  184.8160  176.6990  146.5130 O   0  0  0  0  0  0  0  0  0  0  0  0
  184.8160  178.6660  147.6910 O   0  0  0  0  0  1  0  0  0  0  0  0
  1 19  1  0  0  0  0
  2 26  1  0  0  0  0
  2 23  1  0  0  0  0
  3  4  2  0  0  0  0
  3 11  1  0  0  0  0
  4 20  1  0  0  0  0
  5 27  2  0  0  0  0
  5  6  1  0  0  0  0
  6 17  2  0  0  0  0
  7 23  2  0  0  0  0
  7 18  1  0  0  0  0
  8 12  1  0  0  0  0
  8 16  2  0  0  0  0
  9 25  1  0  0  0  0
  9 15  2  0  0  0  0
 10 16  1  0  0  0  0
 10  1  1  0  0  0  0
 11 13  2  0  0  0  0
 12  2  2  0  0  0  0
 13 21  1  0  0  0  0
 13 12  1  0  0  0  0
 14 22  2  0  0  0  0
 14 26  1  0  0  0  0
 16  7  1  0  0  0  0
 17 15  1  0  0  0  0
 19 18  1  0  0  0  0
 19 28  1  1  0  0  0
 20 21  2  0  0  0  0
 21 14  1  0  0  0  0
 23 24  1  0  0  0  0
 24  6  1  0  0  0  0
 26  5  1  0  0  0  0
 27  9  1  0  0  0  0
 28 29  1  0  0  0  0
 29 30  1  0  0  0  0
 30 32  1  0  0  0  0
 31 30  2  0  0  0  0
M  END
>  <MODEL>
3

>  <REMARK>
 VINA RESULT:      -8.2      2.329      5.371
  Name = 
  3 active torsions:
  status: ('A' for Active; 'I' for Inactive)
    1  A    between atoms: C_1  and  C_10
    2  A    between atoms: C_10  and  O_19
    3  A    between atoms: O_19  and  C_24
                            x       y       z     vdW  Elec       q    Type
                         _______ _______ _______ _____ _____    ______ ____

>  <TORSDO>
F 3

$$$$
=
 OpenBabel11052421293D

 32 37  0  0  1  0  0  0  0  0999 V2000
  190.3900  172.8610  139.7550 C   0  0  0  0  0  2  0  0  0  0  0  0
  189.9570  175.7520  143.9720 C   0  0  0  0  0  0  0  0  0  0  0  0
  194.4700  175.6580  145.7710 C   0  0  0  0  0  3  0  0  0  0  0  0
  194.0280  176.3680  146.8880 C   0  0  0  0  0  3  0  0  0  0  0  0
  188.1040  176.8270  145.1560 C   0  0  0  0  0  0  0  0  0  0  0  0
  187.2330  176.4660  144.1100 C   0  0  0  0  0  0  0  0  0  0  0  0
  189.5230  174.6950  141.8120 C   0  0  0  0  0  0  0  0  0  0  0  0
  191.7230  174.6680  142.7500 N   0  0  0  0  0  0  0  0  0  0  0  0
  186.2120  177.8800  146.2880 C   0  0  0  0  0  0  0  0  0  0  0  0
  191.4490  173.6180  140.5450 C   0  0  0  0  0  2  0  0  0  0  0  0
  193.5690  175.3210  144.7580 C   0  0  0  0  0  3  0  0  0  0  0  0
  191.3090  175.3610  143.8470 C   0  0  0  0  0  0  0  0  0  0  0  0
  192.2180  175.6920  144.8530 C   0  0  0  0  0  0  0  0  0  0  0  0
  190.4200  176.7810  146.0770 C   0  0  0  0  0  0  0  0  0  0  0  0
  185.3660  177.5130  145.2420 C   0  0  0  0  0  3  0  0  0  0  0  0
  190.8780  174.3150  141.7490 C   0  0  0  0  0  0  0  0  0  0  0  0
  185.8770  176.8060  144.1530 C   0  0  0  0  0  3  0  0  0  0  0  0
  188.5350  174.2730  140.7530 C   0  0  0  0  0  2  0  0  0  0  0  0
  189.2150  173.7930  139.4640 C   0  0  2  0  0  3  0  0  0  0  0  0
  192.6860  176.7420  146.9920 C   0  0  0  0  0  3  0  0  0  0  0  0
  191.7710  176.4080  145.9780 C   0  0  0  0  0  0  0  0  0  0  0  0
  190.0510  177.4230  147.1010 O   0  0  0  0  0  0  0  0  0  0  0  0
  189.0680  175.4030  142.9320 C   0  0  0  0  0  0  0  0  0  0  0  0
  187.7220  175.7620  143.0160 O   0  0  0  0  0  0  0  0  0  0  0  0
  185.6720  178.6350  147.4500 C   0  0  0  0  0  1  0  0  0  0  0  0
  189.5180  176.4540  145.0800 N   0  0  0  0  0  0  0  0  0  0  0  0
  187.5650  177.5410  146.2450 C   0  0  0  0  0  3  0  0  0  0  0  0
  188.3040  173.2660  138.5230 O   0  0  0  0  0  0  0  0  0  0  0  0
  188.9390  173.1560  137.2750 C   0  0  0  0  0  2  0  0  0  0  0  0
  188.9380  174.4770  136.5940 C   0  0  0  0  0  0  0  0  0  0  0  0
  187.8160  175.2930  136.6630 O   0  0  0  0  0  1  0  0  0  0  0  0
  189.9670  174.8730  135.9870 O   0  0  0  0  0  0  0  0  0  0  0  0
  1 10  1  0  0  0  0
  2 26  1  0  0  0  0
  3  4  1  0  0  0  0
  4 20  2  0  0  0  0
  5 27  1  0  0  0  0
  6 17  1  0  0  0  0
  6  5  2  0  0  0  0
  7 23  1  0  0  0  0
  8 12  2  0  0  0  0
  9 25  1  0  0  0  0
 10 16  1  0  0  0  0
 11 13  1  0  0  0  0
 11  3  2  0  0  0  0
 12  2  1  0  0  0  0
 12 13  1  0  0  0  0
 13 21  2  0  0  0  0
 14 22  2  0  0  0  0
 15  9  1  0  0  0  0
 16  7  2  0  0  0  0
 16  8  1  0  0  0  0
 17 15  2  0  0  0  0
 18  7  1  0  0  0  0
 19 28  1  6  0  0  0
 19  1  1  0  0  0  0
 19 18  1  0  0  0  0
 21 14  1  0  0  0  0
 21 20  1  0  0  0  0
 23 24  1  0  0  0  0
 23  2  2  0  0  0  0
 24  6  1  0  0  0  0
 26  5  1  0  0  0  0
 26 14  1  0  0  0  0
 27  9  2  0  0  0  0
 29 28  1  0  0  0  0
 30 31  1  0  0  0  0
 30 29  1  0  0  0  0
 32 30  2  0  0  0  0
M  END
>  <MODEL>
4

>  <REMARK>
 VINA RESULT:      -8.2      2.640      6.141
  Name = 
  3 active torsions:
  status: ('A' for Active; 'I' for Inactive)
    1  A    between atoms: C_1  and  C_10
    2  A    between atoms: C_10  and  O_19
    3  A    between atoms: O_19  and  C_24
                            x       y       z     vdW  Elec       q    Type
                         _______ _______ _______ _____ _____    ______ ____

>  <TORSDO>
F 3

$$$$
=
 OpenBabel11052421293D

 32 37  0  0  1  0  0  0  0  0999 V2000
  190.3340  172.7000  139.5920 C   0  0  0  0  0  2  0  0  0  0  0  0
  188.9560  175.6200  143.5810 C   0  0  0  0  0  0  0  0  0  0  0  0
  192.6200  174.9310  146.6960 C   0  0  0  0  0  3  0  0  0  0  0  0
  191.9410  175.6920  147.6470 C   0  0  0  0  0  3  0  0  0  0  0  0
  186.9730  176.9300  144.1700 C   0  0  0  0  0  0  0  0  0  0  0  0
  186.4390  176.6870  142.8890 C   0  0  0  0  0  0  0  0  0  0  0  0
  189.0970  174.6320  141.3500 C   0  0  0  0  0  0  0  0  0  0  0  0
  190.8670  174.3140  142.9270 N   0  0  0  0  0  0  0  0  0  0  0  0
  184.9670  178.2230  144.6970 C   0  0  0  0  0  0  0  0  0  0  0  0
  191.1750  173.3110  140.7050 C   0  0  0  0  0  2  0  0  0  0  0  0
  192.0510  174.7170  145.4380 C   0  0  0  0  0  3  0  0  0  0  0  0
  190.2180  175.0540  143.8690 C   0  0  0  0  0  0  0  0  0  0  0  0
  190.7960  175.2620  145.1220 C   0  0  0  0  0  0  0  0  0  0  0  0
  188.8550  176.5780  145.7670 C   0  0  0  0  0  0  0  0  0  0  0  0
  184.4560  177.9710  143.4240 C   0  0  0  0  0  3  0  0  0  0  0  0
  190.3440  174.0760  141.6990 C   0  0  0  0  0  0  0  0  0  0  0  0
  185.1930  177.2030  142.5200 C   0  0  0  0  0  3  0  0  0  0  0  0
  188.4490  174.3440  140.0190 C   0  0  0  0  0  2  0  0  0  0  0  0
  189.4360  173.7800  138.9880 C   0  0  2  0  0  3  0  0  0  0  0  0
  190.6920  176.2400  147.3420 C   0  0  0  0  0  3  0  0  0  0  0  0
  190.1100  176.0310  146.0790 C   0  0  0  0  0  0  0  0  0  0  0  0
  188.2640  177.2620  146.6500 O   0  0  0  0  0  0  0  0  0  0  0  0
  188.4040  175.3930  142.3010 C   0  0  0  0  0  0  0  0  0  0  0  0
  187.1570  175.9250  141.9750 O   0  0  0  0  0  0  0  0  0  0  0  0
  184.1870  179.0400  145.6620 C   0  0  0  0  0  1  0  0  0  0  0  0
  188.2810  176.3730  144.5240 N   0  0  0  0  0  0  0  0  0  0  0  0
  186.2110  177.7070  145.0640 C   0  0  0  0  0  3  0  0  0  0  0  0
  188.8100  173.3780  137.7880 O   0  0  0  0  0  0  0  0  0  0  0  0
  189.4870  173.9530  136.6980 C   0  0  0  0  0  2  0  0  0  0  0  0
  188.6780  175.0680  136.1390 C   0  0  0  0  0  0  0  0  0  0  0  0
  187.4360  175.3660  136.6830 O   0  0  0  0  0  1  0  0  0  0  0  0
  189.1370  175.7660  135.1980 O   0  0  0  0  0  0  0  0  0  0  0  0
  1 10  1  0  0  0  0
  2 12  1  0  0  0  0
  2 26  1  0  0  0  0
  3  4  1  0  0  0  0
  5 26  1  0  0  0  0
  5 27  1  0  0  0  0
  6  5  2  0  0  0  0
  7 16  2  0  0  0  0
  7 23  1  0  0  0  0
  8 12  2  0  0  0  0
  9 27  2  0  0  0  0
  9 25  1  0  0  0  0
 10 16  1  0  0  0  0
 11  3  2  0  0  0  0
 12 13  1  0  0  0  0
 13 11  1  0  0  0  0
 13 21  2  0  0  0  0
 14 21  1  0  0  0  0
 14 22  2  0  0  0  0
 15  9  1  0  0  0  0
 16  8  1  0  0  0  0
 17  6  1  0  0  0  0
 17 15  2  0  0  0  0
 18  7  1  0  0  0  0
 19 28  1  6  0  0  0
 19  1  1  0  0  0  0
 19 18  1  0  0  0  0
 20  4  2  0  0  0  0
 21 20  1  0  0  0  0
 23  2  2  0  0  0  0
 24 23  1  0  0  0  0
 24  6  1  0  0  0  0
 26 14  1  0  0  0  0
 29 28  1  0  0  0  0
 30 31  1  0  0  0  0
 30 29  1  0  0  0  0
 32 30  2  0  0  0  0
M  END
>  <MODEL>
5

>  <REMARK>
 VINA RESULT:      -8.1      2.236      6.056
  Name = 
  3 active torsions:
  status: ('A' for Active; 'I' for Inactive)
    1  A    between atoms: C_1  and  C_10
    2  A    between atoms: C_10  and  O_19
    3  A    between atoms: O_19  and  C_24
                            x       y       z     vdW  Elec       q    Type
                         _______ _______ _______ _____ _____    ______ ____

>  <TORSDO>
F 3

$$$$
=
 OpenBabel11052421293D

 32 37  0  0  1  0  0  0  0  0999 V2000
  189.4860  173.7910  139.2630 C   0  0  0  0  0  2  0  0  0  0  0  0
  188.6880  176.1270  143.7620 C   0  0  0  0  0  0  0  0  0  0  0  0
  184.3600  178.2300  143.0940 C   0  0  0  0  0  3  0  0  0  0  0  0
  184.4750  178.8400  144.3430 C   0  0  0  0  0  3  0  0  0  0  0  0
  190.0080  176.4790  145.7930 C   0  0  0  0  0  0  0  0  0  0  0  0
  191.0110  175.6320  145.2820 C   0  0  0  0  0  0  0  0  0  0  0  0
  189.5760  174.6650  142.0160 C   0  0  0  0  0  0  0  0  0  0  0  0
  187.4560  175.7360  141.7340 N   0  0  0  0  0  0  0  0  0  0  0  0
  191.3760  176.7910  147.7940 C   0  0  0  0  0  0  0  0  0  0  0  0
  188.1920  174.2490  139.9210 C   0  0  0  0  0  2  0  0  0  0  0  0
  185.3800  177.3990  142.6270 C   0  0  0  0  0  3  0  0  0  0  0  0
  187.5510  176.3400  142.9510 C   0  0  0  0  0  0  0  0  0  0  0  0
  186.5250  177.1690  143.4070 C   0  0  0  0  0  0  0  0  0  0  0  0
  187.7870  177.5550  145.4510 C   0  0  0  0  0  0  0  0  0  0  0  0
  192.3570  175.9490  147.2700 C   0  0  0  0  0  3  0  0  0  0  0  0
  188.4280  174.9280  141.2420 C   0  0  0  0  0  0  0  0  0  0  0  0
  192.1740  175.3700  146.0130 C   0  0  0  0  0  3  0  0  0  0  0  0
  190.7090  173.8230  141.4860 C   0  0  0  0  0  2  0  0  0  0  0  0
  190.3040  172.9810  140.2690 C   0  0  2  0  0  3  0  0  0  0  0  0
  185.6100  178.6180  145.1270 C   0  0  0  0  0  3  0  0  0  0  0  0
  186.6430  177.7820  144.6670 C   0  0  0  0  0  0  0  0  0  0  0  0
  187.8620  178.1220  146.5780 O   0  0  0  0  0  0  0  0  0  0  0  0
  189.7030  175.2780  143.2700 C   0  0  0  0  0  0  0  0  0  0  0  0
  190.8480  175.0450  144.0330 O   0  0  0  0  0  0  0  0  0  0  0  0
  191.5660  177.4090  149.1330 C   0  0  0  0  0  1  0  0  0  0  0  0
  188.8040  176.7330  145.0000 N   0  0  0  0  0  0  0  0  0  0  0  0
  190.2160  177.0510  147.0630 C   0  0  0  0  0  3  0  0  0  0  0  0
  191.3930  172.2990  139.6830 O   0  0  0  0  0  0  0  0  0  0  0  0
  191.9400  171.4080  140.6210 C   0  0  0  0  0  2  0  0  0  0  0  0
  191.0540  170.2240  140.7650 C   0  0  0  0  0  0  0  0  0  0  0  0
  190.4640  169.9410  141.9900 O   0  0  0  0  0  1  0  0  0  0  0  0
  190.8060  169.5000  139.7660 O   0  0  0  0  0  0  0  0  0  0  0  0
  1 10  1  0  0  0  0
  1 19  1  0  0  0  0
  2 26  1  0  0  0  0
  3  4  1  0  0  0  0
  4 20  2  0  0  0  0
  5 27  1  0  0  0  0
  6  5  2  0  0  0  0
  6 17  1  0  0  0  0
  7 23  2  0  0  0  0
  8 12  1  0  0  0  0
  9 25  1  0  0  0  0
 10 16  1  0  0  0  0
 11  3  2  0  0  0  0
 11 13  1  0  0  0  0
 12 13  1  0  0  0  0
 12  2  2  0  0  0  0
 13 21  2  0  0  0  0
 14 22  2  0  0  0  0
 15  9  1  0  0  0  0
 16  8  2  0  0  0  0
 16  7  1  0  0  0  0
 17 15  2  0  0  0  0
 18  7  1  0  0  0  0
 19 28  1  6  0  0  0
 19 18  1  0  0  0  0
 21 20  1  0  0  0  0
 21 14  1  0  0  0  0
 23  2  1  0  0  0  0
 23 24  1  0  0  0  0
 24  6  1  0  0  0  0
 26 14  1  0  0  0  0
 26  5  1  0  0  0  0
 27  9  2  0  0  0  0
 28 29  1  0  0  0  0
 29 30  1  0  0  0  0
 30 31  1  0  0  0  0
 32 30  2  0  0  0  0
M  END
>  <MODEL>
6

>  <REMARK>
 VINA RESULT:      -8.0      2.702      7.500
  Name = 
  3 active torsions:
  status: ('A' for Active; 'I' for Inactive)
    1  A    between atoms: C_1  and  C_10
    2  A    between atoms: C_10  and  O_19
    3  A    between atoms: O_19  and  C_24
                            x       y       z     vdW  Elec       q    Type
                         _______ _______ _______ _____ _____    ______ ____

>  <TORSDO>
F 3

$$$$
=
 OpenBabel11052421293D

 32 37  0  0  1  0  0  0  0  0999 V2000
  194.8670  175.3210  146.5010 C   0  0  0  0  0  2  0  0  0  0  0  0
  190.5540  175.4400  143.7240 C   0  0  0  0  0  0  0  0  0  0  0  0
  187.4260  177.6080  146.7430 C   0  0  0  0  0  3  0  0  0  0  0  0
  186.4020  177.3930  145.8200 C   0  0  0  0  0  3  0  0  0  0  0  0
  189.8610  174.5400  141.5550 C   0  0  0  0  0  0  0  0  0  0  0  0
  191.1840  174.1230  141.3110 C   0  0  0  0  0  0  0  0  0  0  0  0
  192.8970  175.2440  144.3880 C   0  0  0  0  0  0  0  0  0  0  0  0
  191.3120  176.2910  145.8410 N   0  0  0  0  0  0  0  0  0  0  0  0
  189.2330  173.6200  139.3790 C   0  0  0  0  0  0  0  0  0  0  0  0
  193.6430  176.2200  146.6170 C   0  0  0  0  0  2  0  0  0  0  0  0
  188.7230  177.1770  146.4590 C   0  0  0  0  0  3  0  0  0  0  0  0
  190.3000  176.0890  144.9520 C   0  0  0  0  0  0  0  0  0  0  0  0
  189.0080  176.5250  145.2480 C   0  0  0  0  0  0  0  0  0  0  0  0
  188.2570  175.6550  143.1030 C   0  0  0  0  0  0  0  0  0  0  0  0
  190.5490  173.2160  139.1580 C   0  0  0  0  0  3  0  0  0  0  0  0
  192.5830  175.8800  145.6050 C   0  0  0  0  0  0  0  0  0  0  0  0
  191.5240  173.4680  140.1240 C   0  0  0  0  0  3  0  0  0  0  0  0
  194.2820  174.7160  144.1080 C   0  0  0  0  0  2  0  0  0  0  0  0
  195.3430  175.3030  145.0480 C   0  0  2  0  0  3  0  0  0  0  0  0
  186.6740  176.7460  144.6130 C   0  0  0  0  0  3  0  0  0  0  0  0
  187.9770  176.3070  144.3160 C   0  0  0  0  0  0  0  0  0  0  0  0
  187.3080  175.4740  142.2890 O   0  0  0  0  0  0  0  0  0  0  0  0
  191.8740  175.0170  143.4570 C   0  0  0  0  0  0  0  0  0  0  0  0
  192.1700  174.3650  142.2600 O   0  0  0  0  0  0  0  0  0  0  0  0
  188.1910  173.3550  138.3530 C   0  0  0  0  0  1  0  0  0  0  0  0
  189.5390  175.2240  142.8090 N   0  0  0  0  0  0  0  0  0  0  0  0
  188.8950  174.2750  140.5650 C   0  0  0  0  0  3  0  0  0  0  0  0
  196.6140  174.7090  144.8850 O   0  0  0  0  0  0  0  0  0  0  0  0
  196.8690  173.8550  145.9710 C   0  0  0  0  0  2  0  0  0  0  0  0
  197.1740  172.4890  145.4730 C   0  0  0  0  0  0  0  0  0  0  0  0
  197.8940  172.3230  144.2970 O   0  0  0  0  0  0  0  0  0  0  0  0
  196.8150  171.4820  146.1370 O   0  0  0  0  0  1  0  0  0  0  0  0
  1 10  1  0  0  0  0
  2 12  1  0  0  0  0
  4  3  2  0  0  0  0
  5 26  1  0  0  0  0
  6  5  1  0  0  0  0
  6 24  1  0  0  0  0
  7 16  2  0  0  0  0
  9 27  1  0  0  0  0
 11  3  1  0  0  0  0
 12 13  1  0  0  0  0
 12  8  2  0  0  0  0
 13 11  2  0  0  0  0
 14 21  1  0  0  0  0
 15  9  2  0  0  0  0
 15 17  1  0  0  0  0
 16  8  1  0  0  0  0
 16 10  1  0  0  0  0
 17  6  2  0  0  0  0
 18  7  1  0  0  0  0
 18 19  1  0  0  0  0
 19 28  1  1  0  0  0
 19  1  1  0  0  0  0
 20  4  1  0  0  0  0
 21 20  2  0  0  0  0
 21 13  1  0  0  0  0
 22 14  2  0  0  0  0
 23  2  2  0  0  0  0
 23  7  1  0  0  0  0
 24 23  1  0  0  0  0
 25  9  1  0  0  0  0
 26 14  1  0  0  0  0
 26  2  1  0  0  0  0
 27  5  2  0  0  0  0
 28 29  1  0  0  0  0
 30 29  1  0  0  0  0
 30 32  1  0  0  0  0
 31 30  2  0  0  0  0
M  END
>  <MODEL>
7

>  <REMARK>
 VINA RESULT:      -7.9      2.658      7.960
  Name = 
  3 active torsions:
  status: ('A' for Active; 'I' for Inactive)
    1  A    between atoms: C_1  and  C_10
    2  A    between atoms: C_10  and  O_19
    3  A    between atoms: O_19  and  C_24
                            x       y       z     vdW  Elec       q    Type
                         _______ _______ _______ _____ _____    ______ ____

>  <TORSDO>
F 3

$$$$
=
 OpenBabel11052421293D

 32 37  0  0  1  0  0  0  0  0999 V2000
  191.5510  175.6420  147.7510 C   0  0  0  0  0  2  0  0  0  0  0  0
  188.5890  176.2890  143.6110 C   0  0  0  0  0  0  0  0  0  0  0  0
  185.1660  179.3280  145.2410 C   0  0  0  0  0  3  0  0  0  0  0  0
  184.5000  179.2160  144.0200 C   0  0  0  0  0  3  0  0  0  0  0  0
  188.5040  175.3130  141.3680 C   0  0  0  0  0  0  0  0  0  0  0  0
  189.7060  174.6260  141.6270 C   0  0  0  0  0  0  0  0  0  0  0  0
  190.4600  175.7190  145.0760 C   0  0  0  0  0  0  0  0  0  0  0  0
  188.7400  177.2010  145.8320 N   0  0  0  0  0  0  0  0  0  0  0  0
  188.4770  174.3030  139.1420 C   0  0  0  0  0  0  0  0  0  0  0  0
  190.5880  176.7660  147.3930 C   0  0  0  0  0  2  0  0  0  0  0  0
  186.3550  178.6270  145.4530 C   0  0  0  0  0  3  0  0  0  0  0  0
  188.0770  177.1030  144.6470 C   0  0  0  0  0  0  0  0  0  0  0  0
  186.8890  177.8080  144.4460 C   0  0  0  0  0  0  0  0  0  0  0  0
  186.7500  176.8740  142.2040 C   0  0  0  0  0  0  0  0  0  0  0  0
  189.6680  173.6330  139.4190 C   0  0  0  0  0  3  0  0  0  0  0  0
  189.8930  176.5300  146.0800 C   0  0  0  0  0  0  0  0  0  0  0  0
  190.2820  173.7940  140.6620 C   0  0  0  0  0  3  0  0  0  0  0  0
  191.7060  174.9080  145.3280 C   0  0  0  0  0  2  0  0  0  0  0  0
  192.4800  175.3780  146.5660 C   0  0  2  0  0  3  0  0  0  0  0  0
  185.0230  178.4030  143.0110 C   0  0  0  0  0  3  0  0  0  0  0  0
  186.2190  177.6940  143.2140 C   0  0  0  0  0  0  0  0  0  0  0  0
  186.1230  176.7930  141.1090 O   0  0  0  0  0  0  0  0  0  0  0  0
  189.7950  175.5950  143.8490 C   0  0  0  0  0  0  0  0  0  0  0  0
  190.3340  174.7740  142.8580 O   0  0  0  0  0  0  0  0  0  0  0  0
  187.8190  174.1350  137.8200 C   0  0  0  0  0  1  0  0  0  0  0  0
  187.9280  176.1760  142.4020 N   0  0  0  0  0  0  0  0  0  0  0  0
  187.9030  175.1340  140.1070 C   0  0  0  0  0  3  0  0  0  0  0  0
  193.5690  174.5370  146.8880 O   0  0  0  0  0  0  0  0  0  0  0  0
  194.1360  174.0410  145.7020 C   0  0  0  0  0  2  0  0  0  0  0  0
  195.5020  174.6020  145.5290 C   0  0  0  0  0  0  0  0  0  0  0  0
  195.6960  175.7250  144.7360 O   0  0  0  0  0  0  0  0  0  0  0  0
  196.4770  174.0830  146.1320 O   0  0  0  0  0  1  0  0  0  0  0  0
  2 23  2  0  0  0  0
  2 12  1  0  0  0  0
  3 11  1  0  0  0  0
  4  3  2  0  0  0  0
  5  6  1  0  0  0  0
  5 26  1  0  0  0  0
  6 24  1  0  0  0  0
  7 18  1  0  0  0  0
  7 16  2  0  0  0  0
  8 16  1  0  0  0  0
  9 15  2  0  0  0  0
  9 27  1  0  0  0  0
 10  1  1  0  0  0  0
 12  8  2  0  0  0  0
 13 12  1  0  0  0  0
 13 11  2  0  0  0  0
 14 26  1  0  0  0  0
 14 21  1  0  0  0  0
 15 17  1  0  0  0  0
 16 10  1  0  0  0  0
 17  6  2  0  0  0  0
 18 19  1  0  0  0  0
 19 28  1  1  0  0  0
 19  1  1  0  0  0  0
 20 21  2  0  0  0  0
 20  4  1  0  0  0  0
 21 13  1  0  0  0  0
 22 14  2  0  0  0  0
 23  7  1  0  0  0  0
 24 23  1  0  0  0  0
 25  9  1  0  0  0  0
 26  2  1  0  0  0  0
 27  5  2  0  0  0  0
 29 28  1  0  0  0  0
 30 29  1  0  0  0  0
 30 32  1  0  0  0  0
 31 30  2  0  0  0  0
M  END
>  <MODEL>
8

>  <REMARK>
 VINA RESULT:      -7.8      1.828      7.208
  Name = 
  3 active torsions:
  status: ('A' for Active; 'I' for Inactive)
    1  A    between atoms: C_1  and  C_10
    2  A    between atoms: C_10  and  O_19
    3  A    between atoms: O_19  and  C_24
                            x       y       z     vdW  Elec       q    Type
                         _______ _______ _______ _____ _____    ______ ____

>  <TORSDO>
F 3

$$$$
=
 OpenBabel11052421293D

 32 37  0  0  1  0  0  0  0  0999 V2000
  186.1170  176.7020  143.6920 C   0  0  0  0  0  2  0  0  0  0  0  0
  190.7370  174.5420  143.1300 C   0  0  0  0  0  0  0  0  0  0  0  0
  190.0250  171.5040  139.4050 C   0  0  0  0  0  3  0  0  0  0  0  0
  191.3220  171.0160  139.5690 C   0  0  0  0  0  3  0  0  0  0  0  0
  192.8500  174.6190  144.3630 C   0  0  0  0  0  0  0  0  0  0  0  0
  192.3250  175.6300  145.1910 C   0  0  0  0  0  0  0  0  0  0  0  0
  188.9290  176.0470  143.7920 C   0  0  0  0  0  0  0  0  0  0  0  0
  188.6290  174.5220  141.9730 N   0  0  0  0  0  0  0  0  0  0  0  0
  194.9330  174.7430  145.6370 C   0  0  0  0  0  0  0  0  0  0  0  0
  186.7450  176.0150  142.4860 C   0  0  0  0  0  2  0  0  0  0  0  0
  189.5460  172.5070  140.2510 C   0  0  0  0  0  3  0  0  0  0  0  0
  189.8910  174.0340  142.1190 C   0  0  0  0  0  0  0  0  0  0  0  0
  190.3600  173.0310  141.2680 C   0  0  0  0  0  0  0  0  0  0  0  0
  192.4850  173.0620  142.4510 C   0  0  0  0  0  0  0  0  0  0  0  0
  194.3930  175.7430  146.4440 C   0  0  0  0  0  3  0  0  0  0  0  0
  188.1240  175.4900  142.7780 C   0  0  0  0  0  0  0  0  0  0  0  0
  193.0890  176.1860  146.2210 C   0  0  0  0  0  3  0  0  0  0  0  0
  188.3910  177.0800  144.7490 C   0  0  0  0  0  2  0  0  0  0  0  0
  187.0950  177.7340  144.2500 C   0  0  2  0  0  3  0  0  0  0  0  0
  192.1400  171.5310  140.5780 C   0  0  0  0  0  3  0  0  0  0  0  0
  191.6680  172.5410  141.4340 C   0  0  0  0  0  0  0  0  0  0  0  0
  193.6550  172.5990  142.5740 O   0  0  0  0  0  0  0  0  0  0  0  0
  190.2310  175.5590  143.9680 C   0  0  0  0  0  0  0  0  0  0  0  0
  191.0280  176.0850  144.9850 O   0  0  0  0  0  0  0  0  0  0  0  0
  196.3220  174.2680  145.8700 C   0  0  0  0  0  1  0  0  0  0  0  0
  192.0220  174.0570  143.2940 N   0  0  0  0  0  0  0  0  0  0  0  0
  194.1690  174.1880  144.6080 C   0  0  0  0  0  3  0  0  0  0  0  0
  186.5110  178.5980  145.2020 O   0  0  0  0  0  0  0  0  0  0  0  0
  185.6710  179.5120  144.5440 C   0  0  0  0  0  2  0  0  0  0  0  0
  184.2510  179.1370  144.7680 C   0  0  0  0  0  0  0  0  0  0  0  0
  183.3860  179.0130  143.6890 O   0  0  0  0  0  0  0  0  0  0  0  0
  183.8410  178.8940  145.9330 O   0  0  0  0  0  1  0  0  0  0  0  0
  1 19  1  0  0  0  0
  2 26  1  0  0  0  0
  2 23  1  0  0  0  0
  3  4  2  0  0  0  0
  3 11  1  0  0  0  0
  4 20  1  0  0  0  0
  5 27  2  0  0  0  0
  5  6  1  0  0  0  0
  6 17  2  0  0  0  0
  7 23  2  0  0  0  0
  7 18  1  0  0  0  0
  8 12  1  0  0  0  0
  8 16  2  0  0  0  0
  9 25  1  0  0  0  0
  9 15  2  0  0  0  0
 10 16  1  0  0  0  0
 10  1  1  0  0  0  0
 11 13  2  0  0  0  0
 12  2  2  0  0  0  0
 13 21  1  0  0  0  0
 13 12  1  0  0  0  0
 14 22  2  0  0  0  0
 14 26  1  0  0  0  0
 16  7  1  0  0  0  0
 17 15  1  0  0  0  0
 19 18  1  0  0  0  0
 19 28  1  1  0  0  0
 20 21  2  0  0  0  0
 21 14  1  0  0  0  0
 23 24  1  0  0  0  0
 24  6  1  0  0  0  0
 26  5  1  0  0  0  0
 27  9  1  0  0  0  0
 29 30  1  0  0  0  0
 29 28  1  0  0  0  0
 30 32  1  0  0  0  0
 31 30  2  0  0  0  0
M  END
>  <MODEL>
9

>  <REMARK>
 VINA RESULT:      -7.7      2.249      5.446
  Name = 
  3 active torsions:
  status: ('A' for Active; 'I' for Inactive)
    1  A    between atoms: C_1  and  C_10
    2  A    between atoms: C_10  and  O_19
    3  A    between atoms: O_19  and  C_24
                            x       y       z     vdW  Elec       q    Type
                         _______ _______ _______ _____ _____    ______ ____

>  <TORSDO>
F 3

$$$$
