=
 OpenBabel11052417283D

 25 29  0  0  1  0  0  0  0  0999 V2000
  188.1670  176.9610  145.9140 C   0  0  0  0  0  0  0  0  0  0  0  0
  187.4740  176.7060  144.7910 C   0  0  0  0  0  0  0  0  0  0  0  0
  186.0260  177.5020  147.0850 C   0  0  0  0  0  2  0  0  0  0  0  0
  188.1510  175.2950  141.4260 N   0  0  0  0  0  2  0  0  0  0  0  0
  185.4150  177.5080  145.7530 N   0  0  0  0  0  0  0  0  0  0  0  0
  185.3440  176.9350  143.3820 C   0  0  1  0  0  3  0  0  0  0  0  0
  184.1830  178.2550  143.0790 Cl  0  0  0  0  0  0  0  0  0  0  0  0
  188.0710  176.0170  143.6870 N   0  0  0  0  0  0  0  0  0  0  0  0
  187.5310  177.7750  147.0070 C   0  0  0  0  0  2  0  0  0  0  0  0
  186.3220  176.8570  142.2030 C   0  0  0  0  0  2  0  0  0  0  0  0
  187.5280  176.0070  142.5040 C   0  0  0  0  0  0  0  0  0  0  0  0
  186.0610  177.1250  144.6900 C   0  0  0  0  0  0  0  0  0  0  0  0
  189.5480  176.5900  146.0400 N   0  0  0  0  0  0  0  0  0  0  0  0
  192.3380  176.0350  146.2700 C   0  0  0  0  0  2  0  0  0  0  0  0
  190.0030  175.7040  147.1270 C   0  0  2  0  0  3  0  0  0  0  0  0
  191.3130  175.0160  146.7490 C   0  0  0  0  0  2  0  0  0  0  0  0
  191.7910  176.7720  145.0570 C   0  0  0  0  0  2  0  0  0  0  0  0
  188.9770  174.6260  147.4440 C   0  0  0  0  0  1  0  0  0  0  0  0
  190.5140  177.5090  145.4400 C   0  0  0  0  0  2  0  0  0  0  0  0
  190.5000  172.7910  142.9860 C   0  0  0  0  0  2  0  0  0  0  0  0
  189.6370  173.7450  140.2410 C   0  0  0  0  0  2  0  0  0  0  0  0
  189.6810  172.1060  141.9100 C   0  0  2  0  0  3  0  0  0  0  0  0
  189.3430  174.4560  141.5400 C   0  0  2  0  0  3  0  0  0  0  0  0
  190.2030  172.4520  140.5900 N   0  0  0  0  0  2  0  0  0  0  0  0
  189.1590  173.3690  142.5740 C   0  0  2  0  0  3  0  0  0  0  0  0
  1 13  1  0  0  0  0
  1  9  1  0  0  0  0
  2  1  2  0  0  0  0
  4 11  1  0  0  0  0
  5  3  1  0  0  0  0
  6  7  1  6  0  0  0
  6 12  1  0  0  0  0
  8  2  1  0  0  0  0
  9  3  1  0  0  0  0
 10 11  1  0  0  0  0
 10  6  1  0  0  0  0
 11  8  2  0  0  0  0
 12  2  1  0  0  0  0
 12  5  2  0  0  0  0
 13 15  1  0  0  0  0
 14 16  1  0  0  0  0
 15 18  1  6  0  0  0
 16 15  1  0  0  0  0
 17 19  1  0  0  0  0
 17 14  1  0  0  0  0
 19 13  1  0  0  0  0
 21 24  1  0  0  0  0
 21 23  1  0  0  0  0
 22 25  1  0  0  0  0
 22 20  1  1  0  0  0
 23  4  1  6  0  0  0
 23 25  1  0  0  0  0
 24 22  1  0  0  0  0
 25 20  1  1  0  0  0
M  END
>  <MODEL>
1

>  <REMARK>
 VINA RESULT:      -7.3      0.000      0.000
  Name = 
  2 active torsions:
  status: ('A' for Active; 'I' for Inactive)
    1  A    between atoms: C_1  and  N_5
    2  A    between atoms: N_6  and  C_15
                            x       y       z     vdW  Elec       q    Type
                         _______ _______ _______ _____ _____    ______ ____

>  <TORSDO>
F 2

$$$$
=
 OpenBabel11052417283D

 25 29  0  0  1  0  0  0  0  0999 V2000
  187.1550  177.2050  143.3600 C   0  0  0  0  0  0  0  0  0  0  0  0
  187.0620  177.2640  144.7000 C   0  0  0  0  0  0  0  0  0  0  0  0
  185.9840  179.4080  143.2040 C   0  0  0  0  0  2  0  0  0  0  0  0
  188.3600  175.3680  147.6130 N   0  0  0  0  0  2  0  0  0  0  0  0
  185.6600  179.2230  144.6210 N   0  0  0  0  0  0  0  0  0  0  0  0
  185.9880  178.2200  146.8220 C   0  0  1  0  0  3  0  0  0  0  0  0
  184.3230  178.6610  147.2900 Cl  0  0  0  0  0  0  0  0  0  0  0  0
  187.8310  176.3960  145.5390 N   0  0  0  0  0  0  0  0  0  0  0  0
  186.2550  178.0660  142.5160 C   0  0  0  0  0  2  0  0  0  0  0  0
  186.3160  176.8400  147.4030 C   0  0  0  0  0  2  0  0  0  0  0  0
  187.5580  176.2360  146.8020 C   0  0  0  0  0  0  0  0  0  0  0  0
  186.1640  178.2550  145.3290 C   0  0  0  0  0  0  0  0  0  0  0  0
  187.9990  176.2410  142.7120 N   0  0  0  0  0  0  0  0  0  0  0  0
  189.5240  174.2640  141.3310 C   0  0  0  0  0  2  0  0  0  0  0  0
  189.2800  176.6390  142.1010 C   0  0  2  0  0  3  0  0  0  0  0  0
  190.2230  175.4420  141.9960 C   0  0  0  0  0  2  0  0  0  0  0  0
  188.3030  173.8710  142.1480 C   0  0  0  0  0  2  0  0  0  0  0  0
  189.9800  177.7220  142.9100 C   0  0  0  0  0  1  0  0  0  0  0  0
  187.3310  175.0420  142.2090 C   0  0  0  0  0  2  0  0  0  0  0  0
  190.6790  173.6020  145.2200 C   0  0  0  0  0  2  0  0  0  0  0  0
  190.8120  175.3820  147.6710 C   0  0  0  0  0  2  0  0  0  0  0  0
  191.1230  175.0420  145.3780 C   0  0  2  0  0  3  0  0  0  0  0  0
  189.5710  174.6770  147.1750 C   0  0  2  0  0  3  0  0  0  0  0  0
  191.8290  175.2110  146.6460 N   0  0  0  0  0  2  0  0  0  0  0  0
  189.6840  174.6560  145.6680 C   0  0  2  0  0  3  0  0  0  0  0  0
  1  2  2  0  0  0  0
  2 12  1  0  0  0  0
  2  8  1  0  0  0  0
  3  5  1  0  0  0  0
  5 12  2  0  0  0  0
  6  7  1  6  0  0  0
  6 10  1  0  0  0  0
  8 11  2  0  0  0  0
  9  3  1  0  0  0  0
  9  1  1  0  0  0  0
 11 10  1  0  0  0  0
 11  4  1  0  0  0  0
 12  6  1  0  0  0  0
 13  1  1  0  0  0  0
 14 16  1  0  0  0  0
 14 17  1  0  0  0  0
 15 13  1  0  0  0  0
 15 18  1  1  0  0  0
 16 15  1  0  0  0  0
 17 19  1  0  0  0  0
 19 13  1  0  0  0  0
 22 20  1  6  0  0  0
 22 25  1  0  0  0  0
 22 24  1  0  0  0  0
 23  4  1  6  0  0  0
 23 21  1  0  0  0  0
 24 21  1  0  0  0  0
 25 20  1  1  0  0  0
 25 23  1  0  0  0  0
M  END
>  <MODEL>
2

>  <REMARK>
 VINA RESULT:      -7.1      1.937      4.641
  Name = 
  2 active torsions:
  status: ('A' for Active; 'I' for Inactive)
    1  A    between atoms: C_1  and  N_5
    2  A    between atoms: N_6  and  C_15
                            x       y       z     vdW  Elec       q    Type
                         _______ _______ _______ _____ _____    ______ ____

>  <TORSDO>
F 2

$$$$
=
 OpenBabel11052417283D

 25 29  0  0  1  0  0  0  0  0999 V2000
  188.2910  176.7740  145.9830 C   0  0  0  0  0  0  0  0  0  0  0  0
  187.6740  176.4520  144.8330 C   0  0  0  0  0  0  0  0  0  0  0  0
  186.1050  177.5560  146.9100 C   0  0  0  0  0  2  0  0  0  0  0  0
  188.5210  174.6750  141.6870 N   0  0  0  0  0  2  0  0  0  0  0  0
  185.6040  177.4670  145.5350 N   0  0  0  0  0  0  0  0  0  0  0  0
  185.6850  176.6680  143.2300 C   0  0  1  0  0  3  0  0  0  0  0  0
  184.6450  178.0190  142.7060 Cl  0  0  0  0  0  0  0  0  0  0  0  0
  188.3100  175.6220  143.8550 N   0  0  0  0  0  0  0  0  0  0  0  0
  187.6270  177.7290  146.9370 C   0  0  0  0  0  2  0  0  0  0  0  0
  186.7470  176.4150  142.1530 C   0  0  0  0  0  2  0  0  0  0  0  0
  187.8640  175.5270  142.6350 C   0  0  0  0  0  0  0  0  0  0  0  0
  186.3060  176.9420  144.5720 C   0  0  0  0  0  0  0  0  0  0  0  0
  189.6290  176.3340  146.2620 N   0  0  0  0  0  0  0  0  0  0  0  0
  192.2170  175.2880  146.8550 C   0  0  0  0  0  2  0  0  0  0  0  0
  190.7360  176.6230  145.3320 C   0  0  2  0  0  3  0  0  0  0  0  0
  192.0770  176.5800  146.0610 C   0  0  0  0  0  2  0  0  0  0  0  0
  191.0900  175.1960  147.8730 C   0  0  0  0  0  2  0  0  0  0  0  0
  190.5910  177.9950  144.6900 C   0  0  0  0  0  1  0  0  0  0  0  0
  189.7500  175.1800  147.1510 C   0  0  0  0  0  2  0  0  0  0  0  0
  190.2370  171.5170  142.8270 C   0  0  0  0  0  2  0  0  0  0  0  0
  190.6520  173.7870  140.8610 C   0  0  0  0  0  2  0  0  0  0  0  0
  190.1850  171.5400  141.3120 C   0  0  2  0  0  3  0  0  0  0  0  0
  189.6400  173.7820  141.9820 C   0  0  2  0  0  3  0  0  0  0  0  0
  191.2070  172.4450  140.7920 N   0  0  0  0  0  2  0  0  0  0  0  0
  189.1840  172.3480  142.1190 C   0  0  2  0  0  3  0  0  0  0  0  0
  1 13  1  0  0  0  0
  1  9  1  0  0  0  0
  2  1  2  0  0  0  0
  3  9  1  0  0  0  0
  4 11  1  0  0  0  0
  5  3  1  0  0  0  0
  6  7  1  6  0  0  0
  6 12  1  0  0  0  0
  8  2  1  0  0  0  0
 10 11  1  0  0  0  0
 10  6  1  0  0  0  0
 11  8  2  0  0  0  0
 12  2  1  0  0  0  0
 12  5  2  0  0  0  0
 13 19  1  0  0  0  0
 14 17  1  0  0  0  0
 15 18  1  1  0  0  0
 15 16  1  0  0  0  0
 15 13  1  0  0  0  0
 16 14  1  0  0  0  0
 19 17  1  0  0  0  0
 21 23  1  0  0  0  0
 22 25  1  0  0  0  0
 22 20  1  1  0  0  0
 23  4  1  6  0  0  0
 23 25  1  0  0  0  0
 24 21  1  0  0  0  0
 24 22  1  0  0  0  0
 25 20  1  1  0  0  0
M  END
>  <MODEL>
3

>  <REMARK>
 VINA RESULT:      -6.9      0.731      1.552
  Name = 
  2 active torsions:
  status: ('A' for Active; 'I' for Inactive)
    1  A    between atoms: C_1  and  N_5
    2  A    between atoms: N_6  and  C_15
                            x       y       z     vdW  Elec       q    Type
                         _______ _______ _______ _____ _____    ______ ____

>  <TORSDO>
F 2

$$$$
=
 OpenBabel11052417283D

 25 29  0  0  1  0  0  0  0  0999 V2000
  192.3140  176.0120  145.8600 C   0  0  0  0  0  0  0  0  0  0  0  0
  192.7870  175.2890  144.8310 C   0  0  0  0  0  0  0  0  0  0  0  0
  194.5270  177.1610  146.0420 C   0  0  0  0  0  2  0  0  0  0  0  0
  191.4410  172.9260  142.3070 N   0  0  0  0  0  2  0  0  0  0  0  0
  195.0290  176.1190  145.1410 N   0  0  0  0  0  0  0  0  0  0  0  0
  194.7540  174.3550  143.4770 C   0  0  1  0  0  3  0  0  0  0  0  0
  196.3530  173.6850  143.8980 Cl  0  0  0  0  0  0  0  0  0  0  0  0
  191.9100  174.5520  143.9730 N   0  0  0  0  0  0  0  0  0  0  0  0
  193.2780  176.6900  146.7950 C   0  0  0  0  0  2  0  0  0  0  0  0
  193.7900  173.1950  143.2010 C   0  0  0  0  0  2  0  0  0  0  0  0
  192.3490  173.6340  143.1600 C   0  0  0  0  0  0  0  0  0  0  0  0
  194.2390  175.2640  144.5590 C   0  0  0  0  0  0  0  0  0  0  0  0
  190.9120  176.0430  146.1690 N   0  0  0  0  0  0  0  0  0  0  0  0
  188.1700  176.0520  146.9600 C   0  0  0  0  0  2  0  0  0  0  0  0
  190.0750  177.1980  145.7970 C   0  0  2  0  0  3  0  0  0  0  0  0
  188.6060  176.7910  145.7020 C   0  0  0  0  0  2  0  0  0  0  0  0
  189.0250  174.8070  147.1370 C   0  0  0  0  0  2  0  0  0  0  0  0
  190.4900  177.7880  144.4560 C   0  0  0  0  0  1  0  0  0  0  0  0
  190.4860  175.2080  147.2910 C   0  0  0  0  0  2  0  0  0  0  0  0
  188.3320  175.0110  141.8510 C   0  0  0  0  0  2  0  0  0  0  0  0
  189.3510  172.2240  141.2310 C   0  0  0  0  0  2  0  0  0  0  0  0
  188.6950  174.3570  140.5320 C   0  0  2  0  0  3  0  0  0  0  0  0
  190.0110  173.2000  142.1760 C   0  0  2  0  0  3  0  0  0  0  0  0
  188.2960  172.9520  140.5460 N   0  0  0  0  0  2  0  0  0  0  0  0
  189.7610  174.5720  141.5920 C   0  0  2  0  0  3  0  0  0  0  0  0
  1 13  1  0  0  0  0
  1  9  1  0  0  0  0
  2  1  2  0  0  0  0
  3  9  1  0  0  0  0
  4 11  1  0  0  0  0
  5  3  1  0  0  0  0
  6  7  1  1  0  0  0
  6 12  1  0  0  0  0
  8  2  1  0  0  0  0
 10  6  1  0  0  0  0
 11 10  1  0  0  0  0
 11  8  2  0  0  0  0
 12  2  1  0  0  0  0
 12  5  2  0  0  0  0
 13 19  1  0  0  0  0
 14 17  1  0  0  0  0
 15 18  1  6  0  0  0
 15 13  1  0  0  0  0
 16 15  1  0  0  0  0
 16 14  1  0  0  0  0
 17 19  1  0  0  0  0
 21 23  1  0  0  0  0
 22 24  1  0  0  0  0
 22 25  1  0  0  0  0
 22 20  1  1  0  0  0
 23  4  1  6  0  0  0
 24 21  1  0  0  0  0
 25 20  1  1  0  0  0
 25 23  1  0  0  0  0
M  END
>  <MODEL>
4

>  <REMARK>
 VINA RESULT:      -6.8      3.369      5.770
  Name = 
  2 active torsions:
  status: ('A' for Active; 'I' for Inactive)
    1  A    between atoms: C_1  and  N_5
    2  A    between atoms: N_6  and  C_15
                            x       y       z     vdW  Elec       q    Type
                         _______ _______ _______ _____ _____    ______ ____

>  <TORSDO>
F 2

$$$$
=
 OpenBabel11052417283D

 25 29  0  0  1  0  0  0  0  0999 V2000
  190.8100  174.5310  143.6880 C   0  0  0  0  0  0  0  0  0  0  0  0
  189.7860  174.7940  142.8580 C   0  0  0  0  0  0  0  0  0  0  0  0
  192.2040  173.8700  141.7210 C   0  0  0  0  0  2  0  0  0  0  0  0
  186.4190  176.3380  143.0820 N   0  0  0  0  0  2  0  0  0  0  0  0
  190.9520  173.8810  140.9570 N   0  0  0  0  0  0  0  0  0  0  0  0
  188.6280  174.5260  140.5860 C   0  0  1  0  0  3  0  0  0  0  0  0
  188.4150  173.1710  139.4450 Cl  0  0  0  0  0  0  0  0  0  0  0  0
  188.6460  175.5410  143.2960 N   0  0  0  0  0  0  0  0  0  0  0  0
  191.9410  173.6590  143.2150 C   0  0  0  0  0  2  0  0  0  0  0  0
  187.3470  174.6800  141.4150 C   0  0  0  0  0  2  0  0  0  0  0  0
  187.5350  175.5670  142.6170 C   0  0  0  0  0  0  0  0  0  0  0  0
  189.8360  174.3230  141.4590 C   0  0  0  0  0  0  0  0  0  0  0  0
  190.7870  174.9530  145.0600 N   0  0  0  0  0  0  0  0  0  0  0  0
  190.7050  175.6120  147.8350 C   0  0  0  0  0  2  0  0  0  0  0  0
  191.8640  175.7920  145.6180 C   0  0  2  0  0  3  0  0  0  0  0  0
  191.3710  176.5570  146.8440 C   0  0  0  0  0  2  0  0  0  0  0  0
  189.5250  174.9250  147.1650 C   0  0  0  0  0  2  0  0  0  0  0  0
  192.3740  176.8050  144.6030 C   0  0  0  0  0  1  0  0  0  0  0  0
  190.0150  174.1130  145.9740 C   0  0  0  0  0  2  0  0  0  0  0  0
  185.7060  179.4530  145.0850 C   0  0  0  0  0  2  0  0  0  0  0  0
  186.0390  176.4680  145.5010 C   0  0  0  0  0  2  0  0  0  0  0  0
  184.6950  178.3820  145.4460 C   0  0  2  0  0  3  0  0  0  0  0  0
  186.4230  177.2190  144.2480 C   0  0  2  0  0  3  0  0  0  0  0  0
  185.3050  177.4020  146.3410 N   0  0  0  0  0  2  0  0  0  0  0  0
  185.4100  178.3310  144.1070 C   0  0  2  0  0  3  0  0  0  0  0  0
  1 13  1  0  0  0  0
  2  8  1  0  0  0  0
  2  1  2  0  0  0  0
  3  9  1  0  0  0  0
  5 12  2  0  0  0  0
  5  3  1  0  0  0  0
  6  7  1  6  0  0  0
  6 10  1  0  0  0  0
  6 12  1  0  0  0  0
  9  1  1  0  0  0  0
 10 11  1  0  0  0  0
 11  4  1  0  0  0  0
 11  8  2  0  0  0  0
 12  2  1  0  0  0  0
 13 15  1  0  0  0  0
 13 19  1  0  0  0  0
 15 18  1  6  0  0  0
 15 16  1  0  0  0  0
 16 14  1  0  0  0  0
 17 14  1  0  0  0  0
 19 17  1  0  0  0  0
 21 24  1  0  0  0  0
 22 20  1  1  0  0  0
 22 24  1  0  0  0  0
 23  4  1  6  0  0  0
 23 21  1  0  0  0  0
 25 23  1  0  0  0  0
 25 20  1  1  0  0  0
 25 22  1  0  0  0  0
M  END
>  <MODEL>
5

>  <REMARK>
 VINA RESULT:      -6.8      2.122      5.539
  Name = 
  2 active torsions:
  status: ('A' for Active; 'I' for Inactive)
    1  A    between atoms: C_1  and  N_5
    2  A    between atoms: N_6  and  C_15
                            x       y       z     vdW  Elec       q    Type
                         _______ _______ _______ _____ _____    ______ ____

>  <TORSDO>
F 2

$$$$
=
 OpenBabel11052417283D

 25 29  0  0  1  0  0  0  0  0999 V2000
  190.1520  176.3550  143.3120 C   0  0  0  0  0  0  0  0  0  0  0  0
  190.0210  176.4280  144.6480 C   0  0  0  0  0  0  0  0  0  0  0  0
  192.2780  175.0760  143.6120 C   0  0  0  0  0  2  0  0  0  0  0  0
  187.4500  177.5340  147.0840 N   0  0  0  0  0  2  0  0  0  0  0  0
  192.2070  175.4810  145.0190 N   0  0  0  0  0  0  0  0  0  0  0  0
  191.0320  176.2890  147.0010 C   0  0  1  0  0  3  0  0  0  0  0  0
  192.5770  176.8040  147.7280 Cl  0  0  0  0  0  0  0  0  0  0  0  0
  188.7850  176.8160  145.2560 N   0  0  0  0  0  0  0  0  0  0  0  0
  191.4960  176.0410  142.7160 C   0  0  0  0  0  2  0  0  0  0  0  0
  189.9560  177.3290  147.3370 C   0  0  0  0  0  2  0  0  0  0  0  0
  188.7090  177.1650  146.5080 C   0  0  0  0  0  0  0  0  0  0  0  0
  191.1660  176.0850  145.5170 C   0  0  0  0  0  0  0  0  0  0  0  0
  189.0680  176.7030  142.4360 N   0  0  0  0  0  0  0  0  0  0  0  0
  187.0190  177.5390  140.6350 C   0  0  0  0  0  2  0  0  0  0  0  0
  188.4310  175.6900  141.5750 C   0  0  2  0  0  3  0  0  0  0  0  0
  187.0170  176.1230  141.1920 C   0  0  0  0  0  2  0  0  0  0  0  0
  187.5680  178.4940  141.6840 C   0  0  0  0  0  2  0  0  0  0  0  0
  188.3400  174.3370  142.2650 C   0  0  0  0  0  1  0  0  0  0  0  0
  188.9990  178.1050  142.0300 C   0  0  0  0  0  2  0  0  0  0  0  0
  184.1000  178.7690  145.8680 C   0  0  0  0  0  2  0  0  0  0  0  0
  186.2840  176.8350  145.0430 C   0  0  0  0  0  2  0  0  0  0  0  0
  185.0990  178.8270  144.7290 C   0  0  2  0  0  3  0  0  0  0  0  0
  186.1560  177.4700  146.4070 C   0  0  2  0  0  3  0  0  0  0  0  0
  185.3110  177.4890  144.1830 N   0  0  0  0  0  2  0  0  0  0  0  0
  185.5850  178.8490  146.1680 C   0  0  2  0  0  3  0  0  0  0  0  0
  1  2  2  0  0  0  0
  2  8  1  0  0  0  0
  2 12  1  0  0  0  0
  3  5  1  0  0  0  0
  5 12  2  0  0  0  0
  6 10  1  0  0  0  0
  6  7  1  6  0  0  0
  8 11  2  0  0  0  0
  9  1  1  0  0  0  0
  9  3  1  0  0  0  0
 11  4  1  0  0  0  0
 11 10  1  0  0  0  0
 12  6  1  0  0  0  0
 13  1  1  0  0  0  0
 14 16  1  0  0  0  0
 14 17  1  0  0  0  0
 15 18  1  1  0  0  0
 15 13  1  0  0  0  0
 16 15  1  0  0  0  0
 17 19  1  0  0  0  0
 19 13  1  0  0  0  0
 21 23  1  0  0  0  0
 22 20  1  1  0  0  0
 22 25  1  0  0  0  0
 23  4  1  6  0  0  0
 24 22  1  0  0  0  0
 24 21  1  0  0  0  0
 25 20  1  1  0  0  0
 25 23  1  0  0  0  0
M  END
>  <MODEL>
6

>  <REMARK>
 VINA RESULT:      -6.7      2.678      6.410
  Name = 
  2 active torsions:
  status: ('A' for Active; 'I' for Inactive)
    1  A    between atoms: C_1  and  N_5
    2  A    between atoms: N_6  and  C_15
                            x       y       z     vdW  Elec       q    Type
                         _______ _______ _______ _____ _____    ______ ____

>  <TORSDO>
F 2

$$$$
=
 OpenBabel11052417283D

 25 29  0  0  1  0  0  0  0  0999 V2000
  191.6050  173.5090  143.5200 C   0  0  0  0  0  0  0  0  0  0  0  0
  191.6840  174.4200  144.5060 C   0  0  0  0  0  0  0  0  0  0  0  0
  193.6020  172.3430  144.4660 C   0  0  0  0  0  2  0  0  0  0  0  0
  189.6390  177.2350  145.7930 N   0  0  0  0  0  2  0  0  0  0  0  0
  193.7860  173.5400  145.2920 N   0  0  0  0  0  0  0  0  0  0  0  0
  193.0140  175.5970  146.3550 C   0  0  1  0  0  3  0  0  0  0  0  0
  194.6970  176.1680  146.5120 Cl  0  0  0  0  0  0  0  0  0  0  0  0
  190.6010  175.3130  144.7840 N   0  0  0  0  0  0  0  0  0  0  0  0
  192.8030  172.6600  143.1980 C   0  0  0  0  0  2  0  0  0  0  0  0
  192.1190  176.7900  146.0010 C   0  0  0  0  0  2  0  0  0  0  0  0
  190.7520  176.3710  145.5270 C   0  0  0  0  0  0  0  0  0  0  0  0
  192.9020  174.4940  145.3380 C   0  0  0  0  0  0  0  0  0  0  0  0
  190.4460  173.4220  142.6760 N   0  0  0  0  0  0  0  0  0  0  0  0
  188.2570  173.2800  140.8510 C   0  0  0  0  0  2  0  0  0  0  0  0
  189.4950  172.3020  142.8020 C   0  0  2  0  0  3  0  0  0  0  0  0
  188.1260  172.6940  142.2500 C   0  0  0  0  0  2  0  0  0  0  0  0
  189.1490  174.5110  140.8990 C   0  0  0  0  0  2  0  0  0  0  0  0
  189.3150  171.8740  144.2520 C   0  0  0  0  0  1  0  0  0  0  0  0
  190.5350  174.1180  141.3940 C   0  0  0  0  0  2  0  0  0  0  0  0
  185.9160  176.7910  146.1950 C   0  0  0  0  0  2  0  0  0  0  0  0
  187.9110  177.8040  144.1490 C   0  0  0  0  0  2  0  0  0  0  0  0
  186.2020  178.1940  145.6990 C   0  0  2  0  0  3  0  0  0  0  0  0
  188.2590  176.9950  145.3760 C   0  0  2  0  0  3  0  0  0  0  0  0
  186.5070  178.1650  144.2700 N   0  0  0  0  0  2  0  0  0  0  0  0
  187.2750  177.4180  146.4420 C   0  0  2  0  0  3  0  0  0  0  0  0
  1  2  2  0  0  0  0
  2  8  1  0  0  0  0
  2 12  1  0  0  0  0
  3  5  1  0  0  0  0
  5 12  2  0  0  0  0
  6  7  1  6  0  0  0
  8 11  2  0  0  0  0
  9  1  1  0  0  0  0
  9  3  1  0  0  0  0
 10  6  1  0  0  0  0
 11  4  1  0  0  0  0
 11 10  1  0  0  0  0
 12  6  1  0  0  0  0
 13 15  1  0  0  0  0
 13  1  1  0  0  0  0
 14 17  1  0  0  0  0
 14 16  1  0  0  0  0
 15 18  1  1  0  0  0
 16 15  1  0  0  0  0
 17 19  1  0  0  0  0
 19 13  1  0  0  0  0
 21 24  1  0  0  0  0
 21 23  1  0  0  0  0
 22 20  1  6  0  0  0
 22 25  1  0  0  0  0
 23  4  1  1  0  0  0
 23 25  1  0  0  0  0
 24 22  1  0  0  0  0
 25 20  1  6  0  0  0
M  END
>  <MODEL>
7

>  <REMARK>
 VINA RESULT:      -6.6      2.944      6.720
  Name = 
  2 active torsions:
  status: ('A' for Active; 'I' for Inactive)
    1  A    between atoms: C_1  and  N_5
    2  A    between atoms: N_6  and  C_15
                            x       y       z     vdW  Elec       q    Type
                         _______ _______ _______ _____ _____    ______ ____

>  <TORSDO>
F 2

$$$$
=
 OpenBabel11052417283D

 25 29  0  0  1  0  0  0  0  0999 V2000
  187.8800  176.1260  142.0100 C   0  0  0  0  0  0  0  0  0  0  0  0
  187.0780  176.7960  142.8560 C   0  0  0  0  0  0  0  0  0  0  0  0
  186.9850  177.4900  140.1160 C   0  0  0  0  0  2  0  0  0  0  0  0
  186.5930  177.0600  146.5250 N   0  0  0  0  0  2  0  0  0  0  0  0
  185.9460  177.9270  141.0540 N   0  0  0  0  0  0  0  0  0  0  0  0
  185.0310  178.2770  143.2890 C   0  0  1  0  0  3  0  0  0  0  0  0
  183.3780  178.3510  142.6200 Cl  0  0  0  0  0  0  0  0  0  0  0  0
  187.2700  176.7310  144.2730 N   0  0  0  0  0  0  0  0  0  0  0  0
  187.5810  176.1430  140.5360 C   0  0  0  0  0  2  0  0  0  0  0  0
  184.9900  177.5310  144.6280 C   0  0  0  0  0  2  0  0  0  0  0  0
  186.3580  177.1290  145.1120 C   0  0  0  0  0  0  0  0  0  0  0  0
  185.9860  177.6350  142.3210 C   0  0  0  0  0  0  0  0  0  0  0  0
  188.9380  175.2840  142.4930 N   0  0  0  0  0  0  0  0  0  0  0  0
  190.9660  173.4690  143.3500 C   0  0  0  0  0  2  0  0  0  0  0  0
  190.3420  175.7300  142.4600 C   0  0  2  0  0  3  0  0  0  0  0  0
  191.1730  174.9700  143.4920 C   0  0  0  0  0  2  0  0  0  0  0  0
  189.4950  173.1400  143.5510 C   0  0  0  0  0  2  0  0  0  0  0  0
  190.4700  177.2180  142.7540 C   0  0  0  0  0  1  0  0  0  0  0  0
  188.6640  173.8480  142.4890 C   0  0  0  0  0  2  0  0  0  0  0  0
  189.4900  174.7960  147.3610 C   0  0  0  0  0  2  0  0  0  0  0  0
  188.8830  177.7510  147.0640 C   0  0  0  0  0  2  0  0  0  0  0  0
  189.9240  175.7970  146.3090 C   0  0  2  0  0  3  0  0  0  0  0  0
  187.8470  176.6570  147.1580 C   0  0  2  0  0  3  0  0  0  0  0  0
  190.1740  177.0960  146.9300 N   0  0  0  0  0  2  0  0  0  0  0  0
  188.4530  175.4550  146.4710 C   0  0  2  0  0  3  0  0  0  0  0  0
  1 13  1  0  0  0  0
  1  2  2  0  0  0  0
  2  8  1  0  0  0  0
  3  9  1  0  0  0  0
  3  5  1  0  0  0  0
  5 12  2  0  0  0  0
  6  7  1  6  0  0  0
  6 10  1  0  0  0  0
  8 11  2  0  0  0  0
  9  1  1  0  0  0  0
 10 11  1  0  0  0  0
 11  4  1  0  0  0  0
 12  2  1  0  0  0  0
 12  6  1  0  0  0  0
 14 16  1  0  0  0  0
 14 17  1  0  0  0  0
 15 13  1  0  0  0  0
 15 18  1  1  0  0  0
 15 16  1  0  0  0  0
 19 13  1  0  0  0  0
 19 17  1  0  0  0  0
 21 23  1  0  0  0  0
 22 25  1  0  0  0  0
 22 24  1  0  0  0  0
 22 20  1  1  0  0  0
 23  4  1  6  0  0  0
 24 21  1  0  0  0  0
 25 23  1  0  0  0  0
 25 20  1  1  0  0  0
M  END
>  <MODEL>
8

>  <REMARK>
 VINA RESULT:      -6.6      1.618      4.808
  Name = 
  2 active torsions:
  status: ('A' for Active; 'I' for Inactive)
    1  A    between atoms: C_1  and  N_5
    2  A    between atoms: N_6  and  C_15
                            x       y       z     vdW  Elec       q    Type
                         _______ _______ _______ _____ _____    ______ ____

>  <TORSDO>
F 2

$$$$
=
 OpenBabel11052417283D

 25 29  0  0  1  0  0  0  0  0999 V2000
  189.5520  176.8430  145.7010 C   0  0  0  0  0  0  0  0  0  0  0  0
  188.6710  176.4220  144.7760 C   0  0  0  0  0  0  0  0  0  0  0  0
  187.6520  177.6560  147.1070 C   0  0  0  0  0  2  0  0  0  0  0  0
  188.7410  174.4240  141.6500 N   0  0  0  0  0  2  0  0  0  0  0  0
  186.8170  177.4530  145.9190 N   0  0  0  0  0  0  0  0  0  0  0  0
  186.3290  176.4800  143.7350 C   0  0  1  0  0  3  0  0  0  0  0  0
  185.1400  177.7680  143.4070 Cl  0  0  0  0  0  0  0  0  0  0  0  0
  189.0620  175.5310  143.7270 N   0  0  0  0  0  0  0  0  0  0  0  0
  189.1220  177.8570  146.7250 C   0  0  0  0  0  2  0  0  0  0  0  0
  187.0850  176.1630  142.4390 C   0  0  0  0  0  2  0  0  0  0  0  0
  188.3210  175.3350  142.6740 C   0  0  0  0  0  0  0  0  0  0  0  0
  187.2650  176.8680  144.8470 C   0  0  0  0  0  0  0  0  0  0  0  0
  190.9320  176.4500  145.6520 N   0  0  0  0  0  0  0  0  0  0  0  0
  193.7100  175.8280  145.4600 C   0  0  0  0  0  2  0  0  0  0  0  0
  191.6340  175.9820  146.8610 C   0  0  2  0  0  3  0  0  0  0  0  0
  192.8360  175.1180  146.4850 C   0  0  0  0  0  2  0  0  0  0  0  0
  192.8920  176.1180  144.2120 C   0  0  0  0  0  2  0  0  0  0  0  0
  190.7230  175.1590  147.7610 C   0  0  0  0  0  1  0  0  0  0  0  0
  191.7230  177.0270  144.5670 C   0  0  0  0  0  2  0  0  0  0  0  0
  190.7320  171.2230  141.5400 C   0  0  0  0  0  2  0  0  0  0  0  0
  191.0620  174.1680  140.9000 C   0  0  0  0  0  2  0  0  0  0  0  0
  190.8640  171.9420  140.2110 C   0  0  2  0  0  3  0  0  0  0  0  0
  189.9300  173.5760  141.7050 C   0  0  2  0  0  3  0  0  0  0  0  0
  191.8050  173.0530  140.3360 N   0  0  0  0  0  2  0  0  0  0  0  0
  189.6680  172.2130  141.1060 C   0  0  2  0  0  3  0  0  0  0  0  0
  1  9  1  0  0  0  0
  2 12  1  0  0  0  0
  2  1  2  0  0  0  0
  4 11  1  0  0  0  0
  5  3  1  0  0  0  0
  6  7  1  6  0  0  0
  6 12  1  0  0  0  0
  8  2  1  0  0  0  0
  9  3  1  0  0  0  0
 10 11  1  0  0  0  0
 10  6  1  0  0  0  0
 11  8  2  0  0  0  0
 12  5  2  0  0  0  0
 13  1  1  0  0  0  0
 13 15  1  0  0  0  0
 14 16  1  0  0  0  0
 15 18  1  1  0  0  0
 16 15  1  0  0  0  0
 17 19  1  0  0  0  0
 17 14  1  0  0  0  0
 19 13  1  0  0  0  0
 21 23  1  0  0  0  0
 22 24  1  0  0  0  0
 22 25  1  0  0  0  0
 22 20  1  1  0  0  0
 23  4  1  6  0  0  0
 24 21  1  0  0  0  0
 25 20  1  1  0  0  0
 25 23  1  0  0  0  0
M  END
>  <MODEL>
9

>  <REMARK>
 VINA RESULT:      -6.3      1.233      1.511
  Name = 
  2 active torsions:
  status: ('A' for Active; 'I' for Inactive)
    1  A    between atoms: C_1  and  N_5
    2  A    between atoms: N_6  and  C_15
                            x       y       z     vdW  Elec       q    Type
                         _______ _______ _______ _____ _____    ______ ____

>  <TORSDO>
F 2

$$$$
