=
 OpenBabel11052418323D

 27 30  0  0  1  0  0  0  0  0999 V2000
  188.2700  176.2830  146.2130 C   0  0  0  0  0  2  0  0  0  0  0  0
  190.2610  176.1680  143.5930 C   0  0  1  0  0  3  0  0  0  0  0  0
  187.9240  175.6870  143.3300 O   0  0  0  0  0  0  0  0  0  0  0  0
  192.6040  176.0980  142.6440 C   0  0  1  0  0  3  0  0  0  0  0  0
  191.3630  176.9560  142.8990 C   0  0  0  0  0  2  0  0  0  0  0  0
  190.8470  176.3710  147.8840 C   0  0  0  0  0  2  0  0  0  0  0  0
  190.4330  176.2420  145.0520 N   0  0  0  0  0  0  0  0  0  0  0  0
  184.8310  177.7090  144.0790 N   0  0  0  0  0  0  0  0  0  0  0  0
  191.5310  175.5240  145.6620 C   0  0  0  0  0  0  0  0  0  0  0  0
  185.0320  177.9670  145.3390 C   0  0  0  0  0  0  0  0  0  0  0  0
  189.5290  177.0660  145.8740 C   0  0  2  0  0  3  0  0  0  0  0  0
  193.3440  175.6590  143.9120 C   0  0  2  0  0  3  0  0  0  0  0  0
  187.1120  176.7830  145.4160 C   0  0  0  0  0  0  0  0  0  0  0  0
  188.9030  176.6740  143.1270 C   0  0  0  0  0  2  0  0  0  0  0  0
  185.8500  177.1200  143.2090 C   0  0  2  0  0  3  0  0  0  0  0  0
  192.2890  174.9930  141.8480 O   0  0  0  0  0  1  0  0  0  0  0  0
  184.0110  178.6070  146.0950 N   0  0  0  0  0  1  0  0  0  0  0  0
  191.7640  175.6160  146.9740 C   0  0  0  0  0  3  0  0  0  0  0  0
  186.2390  177.5510  145.9930 N   0  0  0  0  0  0  0  0  0  0  0  0
  192.5120  174.7540  144.8280 C   0  0  0  0  0  2  0  0  0  0  0  0
  186.8290  176.2470  144.0310 C   0  0  1  0  0  3  0  0  0  0  0  0
  190.2230  177.5520  147.1480 C   0  0  0  0  0  2  0  0  0  0  0  0
  194.9550  176.3180  145.1720 O   0  0  0  0  0  1  0  0  0  0  0  0
  193.8540  176.7620  144.6010 O   0  0  0  0  0  0  0  0  0  0  0  0
  186.5320  178.2390  142.4340 C   0  0  0  0  0  2  0  0  0  0  0  0
  184.7110  178.3000  140.5650 C   0  0  0  0  0  1  0  0  0  0  0  0
  186.4720  177.8750  140.6560 S   0  0  0  0  0  0  0  0  0  0  0  0
  2  5  1  6  0  0  0
  2  7  1  0  0  0  0
  4 16  1  1  0  0  0
  4  5  1  0  0  0  0
  4 12  1  0  0  0  0
  7  9  1  0  0  0  0
  7 11  1  0  0  0  0
  8 10  2  0  0  0  0
  9 18  2  0  0  0  0
 10 19  1  0  0  0  0
 10 17  1  0  0  0  0
 11  1  1  1  0  0  0
 11 22  1  0  0  0  0
 12 24  1  1  0  0  0
 12 20  1  0  0  0  0
 13 19  2  0  0  0  0
 13  1  1  0  0  0  0
 14  3  1  0  0  0  0
 14  2  1  0  0  0  0
 15 25  1  1  0  0  0
 15 21  1  0  0  0  0
 15  8  1  0  0  0  0
 18  6  1  0  0  0  0
 20  9  1  0  0  0  0
 21  3  1  6  0  0  0
 21 13  1  0  0  0  0
 22  6  1  0  0  0  0
 24 23  1  0  0  0  0
 26 27  1  0  0  0  0
 27 25  1  0  0  0  0
M  END
>  <MODEL>
1

>  <REMARK>
 VINA RESULT:      -7.3      0.000      0.000
  Name = 
  3 active torsions:
  status: ('A' for Active; 'I' for Inactive)
    1  A    between atoms: S_12  and  C_14
    2  A    between atoms: C_14  and  C_20
    3  A    between atoms: O_16  and  C_17
                            x       y       z     vdW  Elec       q    Type
                         _______ _______ _______ _____ _____    ______ ____

>  <TORSDO>
F 3

$$$$
=
 OpenBabel11052418323D

 27 30  0  0  1  0  0  0  0  0999 V2000
  187.8080  176.5400  141.8890 C   0  0  0  0  0  2  0  0  0  0  0  0
  189.2750  175.9160  144.7710 C   0  0  1  0  0  3  0  0  0  0  0  0
  188.0650  177.9680  144.4740 O   0  0  0  0  0  0  0  0  0  0  0  0
  190.9160  174.5490  146.1250 C   0  0  1  0  0  3  0  0  0  0  0  0
  189.4430  174.8140  145.8080 C   0  0  0  0  0  2  0  0  0  0  0  0
  189.4460  174.1790  140.8030 C   0  0  0  0  0  2  0  0  0  0  0  0
  189.3110  175.3420  143.4180 N   0  0  0  0  0  0  0  0  0  0  0  0
  184.4770  178.6740  143.5530 N   0  0  0  0  0  0  0  0  0  0  0  0
  190.5700  174.8490  142.9020 C   0  0  0  0  0  0  0  0  0  0  0  0
  184.4010  178.0160  142.4330 C   0  0  0  0  0  0  0  0  0  0  0  0
  188.0800  175.2310  142.6140 C   0  0  2  0  0  3  0  0  0  0  0  0
  191.7170  173.9510  144.9630 C   0  0  2  0  0  3  0  0  0  0  0  0
  186.6740  177.2680  142.5290 C   0  0  0  0  0  0  0  0  0  0  0  0
  187.9950  176.6910  145.0550 C   0  0  0  0  0  2  0  0  0  0  0  0
  185.6130  178.5650  144.4710 C   0  0  2  0  0  3  0  0  0  0  0  0
  191.5350  175.7040  146.6090 O   0  0  0  0  0  1  0  0  0  0  0  0
  183.2280  178.1260  141.6340 N   0  0  0  0  0  1  0  0  0  0  0  0
  190.6360  174.2600  141.7060 C   0  0  0  0  0  3  0  0  0  0  0  0
  185.5090  177.2390  141.9570 N   0  0  0  0  0  0  0  0  0  0  0  0
  191.8130  174.8730  143.7420 C   0  0  0  0  0  2  0  0  0  0  0  0
  186.9030  178.1980  143.6980 C   0  0  1  0  0  3  0  0  0  0  0  0
  188.1650  174.0710  141.6220 C   0  0  0  0  0  2  0  0  0  0  0  0
  192.3090  171.9690  144.3800 O   0  0  0  0  0  1  0  0  0  0  0  0
  191.2310  172.6870  144.6180 O   0  0  0  0  0  0  0  0  0  0  0  0
  185.2550  177.5740  145.5690 C   0  0  0  0  0  2  0  0  0  0  0  0
  186.2880  178.6300  147.7200 C   0  0  0  0  0  1  0  0  0  0  0  0
  184.6230  178.4690  147.0170 S   0  0  0  0  0  0  0  0  0  0  0  0
  1 13  1  0  0  0  0
  1 11  1  0  0  0  0
  2 14  1  1  0  0  0
  2  5  1  0  0  0  0
  3 14  1  0  0  0  0
  4 16  1  6  0  0  0
  5  4  1  0  0  0  0
  6 22  1  0  0  0  0
  6 18  1  0  0  0  0
  7  2  1  0  0  0  0
  8 15  1  0  0  0  0
  9  7  1  0  0  0  0
  9 20  1  0  0  0  0
 10  8  2  0  0  0  0
 11 22  1  6  0  0  0
 11  7  1  0  0  0  0
 12 24  1  6  0  0  0
 12  4  1  0  0  0  0
 15 25  1  1  0  0  0
 17 10  1  0  0  0  0
 18  9  2  0  0  0  0
 19 10  1  0  0  0  0
 19 13  2  0  0  0  0
 20 12  1  0  0  0  0
 21 13  1  1  0  0  0
 21 15  1  0  0  0  0
 21  3  1  0  0  0  0
 23 24  1  0  0  0  0
 25 27  1  0  0  0  0
 27 26  1  0  0  0  0
M  END
>  <MODEL>
2

>  <REMARK>
 VINA RESULT:      -7.1      2.546      4.249
  Name = 
  3 active torsions:
  status: ('A' for Active; 'I' for Inactive)
    1  A    between atoms: S_12  and  C_14
    2  A    between atoms: C_14  and  C_20
    3  A    between atoms: O_16  and  C_17
                            x       y       z     vdW  Elec       q    Type
                         _______ _______ _______ _____ _____    ______ ____

>  <TORSDO>
F 3

$$$$
=
 OpenBabel11052418323D

 27 30  0  0  1  0  0  0  0  0999 V2000
  189.5530  175.6410  142.4580 C   0  0  0  0  0  2  0  0  0  0  0  0
  188.3760  176.4380  145.4280 C   0  0  1  0  0  3  0  0  0  0  0  0
  189.8760  174.5770  145.2060 O   0  0  0  0  0  0  0  0  0  0  0  0
  186.7060  177.7150  146.8340 C   0  0  1  0  0  3  0  0  0  0  0  0
  188.1520  177.6380  146.3370 C   0  0  0  0  0  2  0  0  0  0  0  0
  187.4080  177.5390  141.3480 C   0  0  0  0  0  2  0  0  0  0  0  0
  188.0710  176.7990  144.0360 N   0  0  0  0  0  0  0  0  0  0  0  0
  193.3860  174.3090  143.8570 N   0  0  0  0  0  0  0  0  0  0  0  0
  186.6910  177.0120  143.6560 C   0  0  0  0  0  0  0  0  0  0  0  0
  193.2060  174.8030  142.6660 C   0  0  0  0  0  0  0  0  0  0  0  0
  189.1530  176.9830  143.0520 C   0  0  2  0  0  3  0  0  0  0  0  0
  185.6750  178.0090  145.7400 C   0  0  2  0  0  3  0  0  0  0  0  0
  190.8690  175.1970  143.0060 C   0  0  0  0  0  0  0  0  0  0  0  0
  189.7960  175.9190  145.6110 C   0  0  0  0  0  2  0  0  0  0  0  0
  192.3730  174.3730  144.9120 C   0  0  2  0  0  3  0  0  0  0  0  0
  186.3620  176.5610  147.5410 O   0  0  0  0  0  1  0  0  0  0  0  0
  194.2700  174.7630  141.7220 N   0  0  0  0  0  1  0  0  0  0  0  0
  186.3730  177.4050  142.4200 C   0  0  0  0  0  3  0  0  0  0  0  0
  191.9290  175.3240  142.2680 N   0  0  0  0  0  0  0  0  0  0  0  0
  185.5860  176.9170  144.6670 C   0  0  0  0  0  2  0  0  0  0  0  0
  190.9520  174.4210  144.3000 C   0  0  1  0  0  3  0  0  0  0  0  0
  188.7440  177.9610  141.9500 C   0  0  0  0  0  2  0  0  0  0  0  0
  184.7020  179.6430  144.7390 O   0  0  0  0  0  1  0  0  0  0  0  0
  185.8870  179.2700  145.1770 O   0  0  0  0  0  0  0  0  0  0  0  0
  192.6900  175.5550  145.8170 C   0  0  0  0  0  2  0  0  0  0  0  0
  194.5960  177.3320  145.6750 C   0  0  0  0  0  1  0  0  0  0  0  0
  194.4710  175.5920  146.1720 S   0  0  0  0  0  0  0  0  0  0  0  0
  1 13  1  0  0  0  0
  1 11  1  0  0  0  0
  2 14  1  6  0  0  0
  2  5  1  0  0  0  0
  3 14  1  0  0  0  0
  4 16  1  6  0  0  0
  5  4  1  0  0  0  0
  6 22  1  0  0  0  0
  6 18  1  0  0  0  0
  7  2  1  0  0  0  0
  8 15  1  0  0  0  0
  9  7  1  0  0  0  0
  9 20  1  0  0  0  0
 10  8  2  0  0  0  0
 11 22  1  6  0  0  0
 11  7  1  0  0  0  0
 12 24  1  6  0  0  0
 12  4  1  0  0  0  0
 15 25  1  6  0  0  0
 17 10  1  0  0  0  0
 18  9  2  0  0  0  0
 19 10  1  0  0  0  0
 19 13  2  0  0  0  0
 20 12  1  0  0  0  0
 21 13  1  6  0  0  0
 21 15  1  0  0  0  0
 21  3  1  0  0  0  0
 23 24  1  0  0  0  0
 25 27  1  0  0  0  0
 26 27  1  0  0  0  0
M  END
>  <MODEL>
3

>  <REMARK>
 VINA RESULT:      -6.9      3.169      7.233
  Name = 
  3 active torsions:
  status: ('A' for Active; 'I' for Inactive)
    1  A    between atoms: S_12  and  C_14
    2  A    between atoms: C_14  and  C_20
    3  A    between atoms: O_16  and  C_17
                            x       y       z     vdW  Elec       q    Type
                         _______ _______ _______ _____ _____    ______ ____

>  <TORSDO>
F 3

$$$$
=
 OpenBabel11052418323D

 27 30  0  0  1  0  0  0  0  0999 V2000
  188.5520  177.7440  146.4010 C   0  0  0  0  0  2  0  0  0  0  0  0
  187.9300  177.1790  143.2170 C   0  0  1  0  0  3  0  0  0  0  0  0
  190.1980  177.1720  144.0030 O   0  0  0  0  0  0  0  0  0  0  0  0
  186.3140  177.2440  141.2720 C   0  0  1  0  0  3  0  0  0  0  0  0
  187.0200  176.3660  142.3080 C   0  0  0  0  0  2  0  0  0  0  0  0
  185.6270  178.6670  146.5760 C   0  0  0  0  0  2  0  0  0  0  0  0
  187.1690  177.6760  144.3740 N   0  0  0  0  0  0  0  0  0  0  0  0
  191.9480  175.1310  146.6470 N   0  0  0  0  0  0  0  0  0  0  0  0
  186.1940  178.7260  144.1680 C   0  0  0  0  0  0  0  0  0  0  0  0
  191.1870  175.3910  147.6700 C   0  0  0  0  0  0  0  0  0  0  0  0
  187.3650  177.0890  145.7120 C   0  0  2  0  0  3  0  0  0  0  0  0
  185.2970  178.2260  141.8630 C   0  0  2  0  0  3  0  0  0  0  0  0
  189.7220  176.8170  146.4230 C   0  0  0  0  0  0  0  0  0  0  0  0
  189.1360  176.3390  143.6140 C   0  0  0  0  0  2  0  0  0  0  0  0
  191.6000  175.5030  145.2740 C   0  0  2  0  0  3  0  0  0  0  0  0
  187.2440  177.9160  140.4750 O   0  0  0  0  0  1  0  0  0  0  0  0
  191.5670  174.9300  148.9610 N   0  0  0  0  0  1  0  0  0  0  0  0
  185.4340  179.1610  145.1770 C   0  0  0  0  0  3  0  0  0  0  0  0
  190.0070  176.1950  147.5260 N   0  0  0  0  0  0  0  0  0  0  0  0
  185.9190  179.2710  142.7980 C   0  0  0  0  0  2  0  0  0  0  0  0
  190.6890  176.7540  145.2630 C   0  0  1  0  0  3  0  0  0  0  0  0
  186.1040  177.2190  146.5670 C   0  0  0  0  0  2  0  0  0  0  0  0
  183.1820  178.2900  142.2390 O   0  0  0  0  0  1  0  0  0  0  0  0
  184.2420  177.5460  142.4780 O   0  0  0  0  0  0  0  0  0  0  0  0
  190.9850  174.2930  144.5850 C   0  0  0  0  0  2  0  0  0  0  0  0
  192.4570  174.8600  142.5060 C   0  0  0  0  0  1  0  0  0  0  0  0
  192.2540  173.4350  143.6100 S   0  0  0  0  0  0  0  0  0  0  0  0
  1 13  1  0  0  0  0
  2  5  1  6  0  0  0
  2 14  1  0  0  0  0
  2  7  1  0  0  0  0
  4 16  1  1  0  0  0
  4 12  1  0  0  0  0
  4  5  1  0  0  0  0
  7 11  1  0  0  0  0
  8 10  2  0  0  0  0
  9  7  1  0  0  0  0
  9 18  2  0  0  0  0
 10 17  1  0  0  0  0
 11  1  1  1  0  0  0
 11 22  1  0  0  0  0
 12 24  1  1  0  0  0
 12 20  1  0  0  0  0
 13 19  2  0  0  0  0
 14  3  1  0  0  0  0
 15 25  1  1  0  0  0
 15  8  1  0  0  0  0
 18  6  1  0  0  0  0
 19 10  1  0  0  0  0
 20  9  1  0  0  0  0
 21  3  1  6  0  0  0
 21 15  1  0  0  0  0
 21 13  1  0  0  0  0
 22  6  1  0  0  0  0
 23 24  1  0  0  0  0
 26 27  1  0  0  0  0
 27 25  1  0  0  0  0
M  END
>  <MODEL>
4

>  <REMARK>
 VINA RESULT:      -6.9      2.687      6.460
  Name = 
  3 active torsions:
  status: ('A' for Active; 'I' for Inactive)
    1  A    between atoms: S_12  and  C_14
    2  A    between atoms: C_14  and  C_20
    3  A    between atoms: O_16  and  C_17
                            x       y       z     vdW  Elec       q    Type
                         _______ _______ _______ _____ _____    ______ ____

>  <TORSDO>
F 3

$$$$
=
 OpenBabel11052418323D

 27 30  0  0  1  0  0  0  0  0999 V2000
  191.8980  175.1790  146.1060 C   0  0  0  0  0  2  0  0  0  0  0  0
  190.4950  176.5540  143.4630 C   0  0  1  0  0  3  0  0  0  0  0  0
  192.8680  176.7380  143.7780 O   0  0  0  0  0  0  0  0  0  0  0  0
  188.4060  177.3240  142.2630 C   0  0  1  0  0  3  0  0  0  0  0  0
  189.4980  176.2550  142.3530 C   0  0  0  0  0  2  0  0  0  0  0  0
  189.0380  174.8710  147.1830 C   0  0  0  0  0  2  0  0  0  0  0  0
  190.0260  175.9730  144.7300 N   0  0  0  0  0  0  0  0  0  0  0  0
  195.5750  174.1390  144.1510 N   0  0  0  0  0  0  0  0  0  0  0  0
  188.8880  176.5720  145.3930 C   0  0  0  0  0  0  0  0  0  0  0  0
  195.1020  173.4680  145.1610 C   0  0  0  0  0  0  0  0  0  0  0  0
  190.6760  174.7770  145.2950 C   0  0  2  0  0  3  0  0  0  0  0  0
  187.4620  177.3690  143.4690 C   0  0  2  0  0  3  0  0  0  0  0  0
  193.1500  174.8400  145.3680 C   0  0  0  0  0  0  0  0  0  0  0  0
  191.8750  176.0570  143.0550 C   0  0  0  0  0  2  0  0  0  0  0  0
  194.8020  175.1550  143.4330 C   0  0  2  0  0  3  0  0  0  0  0  0
  188.9630  178.5820  142.0230 O   0  0  0  0  0  1  0  0  0  0  0  0
  195.8940  172.4470  145.7560 N   0  0  0  0  0  1  0  0  0  0  0  0
  188.3870  176.0380  146.5100 C   0  0  0  0  0  3  0  0  0  0  0  0
  193.8240  173.7900  145.7280 N   0  0  0  0  0  0  0  0  0  0  0  0
  188.1600  177.7350  144.7840 C   0  0  0  0  0  2  0  0  0  0  0  0
  193.7500  175.8000  144.3660 C   0  0  1  0  0  3  0  0  0  0  0  0
  189.7020  173.9660  146.1510 C   0  0  0  0  0  2  0  0  0  0  0  0
  185.5660  176.5490  144.0600 O   0  0  0  0  0  1  0  0  0  0  0  0
  186.7370  176.1810  143.5830 O   0  0  0  0  0  0  0  0  0  0  0  0
  194.2060  174.5190  142.1860 C   0  0  0  0  0  2  0  0  0  0  0  0
  195.6960  176.4540  141.2670 C   0  0  0  0  0  1  0  0  0  0  0  0
  195.3380  174.7430  140.7840 S   0  0  0  0  0  0  0  0  0  0  0  0
  2  5  1  6  0  0  0
  2  7  1  0  0  0  0
  4 16  1  1  0  0  0
  4  5  1  0  0  0  0
  4 12  1  0  0  0  0
  7 11  1  0  0  0  0
  7  9  1  0  0  0  0
  8 10  2  0  0  0  0
  9 18  2  0  0  0  0
 10 19  1  0  0  0  0
 10 17  1  0  0  0  0
 11  1  1  1  0  0  0
 11 22  1  0  0  0  0
 12 24  1  1  0  0  0
 12 20  1  0  0  0  0
 13 19  2  0  0  0  0
 13  1  1  0  0  0  0
 14  2  1  0  0  0  0
 14  3  1  0  0  0  0
 15 25  1  6  0  0  0
 15  8  1  0  0  0  0
 15 21  1  0  0  0  0
 18  6  1  0  0  0  0
 20  9  1  0  0  0  0
 21  3  1  6  0  0  0
 21 13  1  0  0  0  0
 22  6  1  0  0  0  0
 24 23  1  0  0  0  0
 27 26  1  0  0  0  0
 27 25  1  0  0  0  0
M  END
>  <MODEL>
5

>  <REMARK>
 VINA RESULT:      -6.7      3.068      6.967
  Name = 
  3 active torsions:
  status: ('A' for Active; 'I' for Inactive)
    1  A    between atoms: S_12  and  C_14
    2  A    between atoms: C_14  and  C_20
    3  A    between atoms: O_16  and  C_17
                            x       y       z     vdW  Elec       q    Type
                         _______ _______ _______ _____ _____    ______ ____

>  <TORSDO>
F 3

$$$$
=
 OpenBabel11052418323D

 27 30  0  0  1  0  0  0  0  0999 V2000
  189.6270  177.0000  145.4290 C   0  0  0  0  0  2  0  0  0  0  0  0
  187.7620  177.1850  142.7210 C   0  0  1  0  0  3  0  0  0  0  0  0
  190.1410  176.9430  142.5100 O   0  0  0  0  0  0  0  0  0  0  0  0
  185.5390  177.7280  141.6450 C   0  0  1  0  0  3  0  0  0  0  0  0
  186.4850  176.6210  142.1140 C   0  0  0  0  0  2  0  0  0  0  0  0
  187.1230  177.9340  146.9430 C   0  0  0  0  0  2  0  0  0  0  0  0
  187.5700  177.4270  144.1590 N   0  0  0  0  0  0  0  0  0  0  0  0
  192.5330  174.3140  143.7680 N   0  0  0  0  0  0  0  0  0  0  0  0
  186.7170  178.5200  144.5740 C   0  0  0  0  0  0  0  0  0  0  0  0
  192.2620  174.3550  145.0400 C   0  0  0  0  0  0  0  0  0  0  0  0
  188.2000  176.5490  145.1610 C   0  0  2  0  0  3  0  0  0  0  0  0
  184.9470  178.5770  142.7760 C   0  0  2  0  0  3  0  0  0  0  0  0
  190.6010  176.0630  144.7950 C   0  0  0  0  0  0  0  0  0  0  0  0
  188.9240  176.2470  142.4260 C   0  0  0  0  0  2  0  0  0  0  0  0
  191.7260  174.9950  142.7530 C   0  0  2  0  0  3  0  0  0  0  0  0
  186.1570  178.5390  140.6900 O   0  0  0  0  0  1  0  0  0  0  0  0
  193.0560  173.6060  145.9510 N   0  0  0  0  0  1  0  0  0  0  0  0
  186.4610  178.7360  145.8670 C   0  0  0  0  0  3  0  0  0  0  0  0
  191.2180  175.2010  145.5440 N   0  0  0  0  0  0  0  0  0  0  0  0
  185.9970  179.3670  143.5670 C   0  0  0  0  0  2  0  0  0  0  0  0
  191.0300  176.2390  143.3570 C   0  0  1  0  0  3  0  0  0  0  0  0
  187.3920  176.5140  146.4580 C   0  0  0  0  0  2  0  0  0  0  0  0
  183.3590  178.6720  144.2200 O   0  0  0  0  0  1  0  0  0  0  0  0
  184.1430  177.8030  143.6160 O   0  0  0  0  0  0  0  0  0  0  0  0
  190.7590  173.9870  142.1470 C   0  0  0  0  0  2  0  0  0  0  0  0
  189.9700  172.3320  140.2900 C   0  0  0  0  0  1  0  0  0  0  0  0
  191.3260  173.5210  140.4860 S   0  0  0  0  0  0  0  0  0  0  0  0
  2  5  1  1  0  0  0
  2  7  1  0  0  0  0
  4 16  1  6  0  0  0
  4  5  1  0  0  0  0
  4 12  1  0  0  0  0
  7  9  1  0  0  0  0
  7 11  1  0  0  0  0
  8 10  2  0  0  0  0
  9 18  2  0  0  0  0
 10 19  1  0  0  0  0
 10 17  1  0  0  0  0
 11  1  1  1  0  0  0
 11 22  1  0  0  0  0
 12 20  1  0  0  0  0
 12 24  1  1  0  0  0
 13  1  1  0  0  0  0
 13 19  2  0  0  0  0
 14  3  1  0  0  0  0
 14  2  1  0  0  0  0
 15 25  1  1  0  0  0
 15 21  1  0  0  0  0
 15  8  1  0  0  0  0
 18  6  1  0  0  0  0
 20  9  1  0  0  0  0
 21  3  1  6  0  0  0
 21 13  1  0  0  0  0
 22  6  1  0  0  0  0
 24 23  1  0  0  0  0
 26 27  1  0  0  0  0
 27 25  1  0  0  0  0
M  END
>  <MODEL>
6

>  <REMARK>
 VINA RESULT:      -6.5      2.792      6.468
  Name = 
  3 active torsions:
  status: ('A' for Active; 'I' for Inactive)
    1  A    between atoms: S_12  and  C_14
    2  A    between atoms: C_14  and  C_20
    3  A    between atoms: O_16  and  C_17
                            x       y       z     vdW  Elec       q    Type
                         _______ _______ _______ _____ _____    ______ ____

>  <TORSDO>
F 3

$$$$
=
 OpenBabel11052418323D

 27 30  0  0  1  0  0  0  0  0999 V2000
  188.1040  176.2450  141.5730 C   0  0  0  0  0  2  0  0  0  0  0  0
  189.9480  175.3430  144.1490 C   0  0  1  0  0  3  0  0  0  0  0  0
  188.9190  177.5120  144.1260 O   0  0  0  0  0  0  0  0  0  0  0  0
  191.6410  173.7620  145.1640 C   0  0  1  0  0  3  0  0  0  0  0  0
  190.1700  174.1800  145.1050 C   0  0  0  0  0  2  0  0  0  0  0  0
  189.2970  173.7980  140.1500 C   0  0  0  0  0  2  0  0  0  0  0  0
  189.7060  174.8360  142.7890 N   0  0  0  0  0  0  0  0  0  0  0  0
  185.3190  178.5970  143.8390 N   0  0  0  0  0  0  0  0  0  0  0  0
  190.8090  174.2540  142.0560 C   0  0  0  0  0  0  0  0  0  0  0  0
  184.9960  178.0060  142.7260 C   0  0  0  0  0  0  0  0  0  0  0  0
  188.3560  174.8820  142.1990 C   0  0  2  0  0  3  0  0  0  0  0  0
  192.1780  173.1500  143.8660 C   0  0  2  0  0  3  0  0  0  0  0  0
  187.1670  177.0430  142.4170 C   0  0  0  0  0  0  0  0  0  0  0  0
  188.8160  176.2200  144.6670 C   0  0  0  0  0  2  0  0  0  0  0  0
  186.5720  178.3350  144.5510 C   0  0  2  0  0  3  0  0  0  0  0  0
  192.4430  174.8280  145.5770 O   0  0  0  0  0  1  0  0  0  0  0  0
  183.7270  178.2640  142.1370 N   0  0  0  0  0  1  0  0  0  0  0  0
  190.6210  173.7220  140.8450 C   0  0  0  0  0  3  0  0  0  0  0  0
  185.9280  177.1520  142.0460 N   0  0  0  0  0  0  0  0  0  0  0  0
  192.1680  174.1190  142.6770 C   0  0  0  0  0  2  0  0  0  0  0  0
  187.6760  177.8880  143.5630 C   0  0  1  0  0  3  0  0  0  0  0  0
  188.1620  173.7700  141.1670 C   0  0  0  0  0  2  0  0  0  0  0  0
  192.4430  171.1910  143.0220 O   0  0  0  0  0  1  0  0  0  0  0  0
  191.5180  171.9560  143.5640 O   0  0  0  0  0  0  0  0  0  0  0  0
  186.2980  177.3280  145.6590 C   0  0  0  0  0  2  0  0  0  0  0  0
  185.8620  179.0380  147.5830 C   0  0  0  0  0  1  0  0  0  0  0  0
  184.8600  177.8640  146.6290 S   0  0  0  0  0  0  0  0  0  0  0  0
  1 11  1  0  0  0  0
  1 13  1  0  0  0  0
  2 14  1  1  0  0  0
  2  5  1  0  0  0  0
  3 14  1  0  0  0  0
  4 16  1  6  0  0  0
  5  4  1  0  0  0  0
  6 18  1  0  0  0  0
  6 22  1  0  0  0  0
  7  2  1  0  0  0  0
  8 15  1  0  0  0  0
  9 20  1  0  0  0  0
  9  7  1  0  0  0  0
 10  8  2  0  0  0  0
 11 22  1  6  0  0  0
 11  7  1  0  0  0  0
 12 24  1  6  0  0  0
 12  4  1  0  0  0  0
 15 25  1  1  0  0  0
 17 10  1  0  0  0  0
 18  9  2  0  0  0  0
 19 13  2  0  0  0  0
 19 10  1  0  0  0  0
 20 12  1  0  0  0  0
 21 13  1  1  0  0  0
 21  3  1  0  0  0  0
 21 15  1  0  0  0  0
 23 24  1  0  0  0  0
 25 27  1  0  0  0  0
 27 26  1  0  0  0  0
M  END
>  <MODEL>
7

>  <REMARK>
 VINA RESULT:      -6.5      2.650      4.369
  Name = 
  3 active torsions:
  status: ('A' for Active; 'I' for Inactive)
    1  A    between atoms: S_12  and  C_14
    2  A    between atoms: C_14  and  C_20
    3  A    between atoms: O_16  and  C_17
                            x       y       z     vdW  Elec       q    Type
                         _______ _______ _______ _____ _____    ______ ____

>  <TORSDO>
F 3

$$$$
=
 OpenBabel11052418323D

 27 30  0  0  1  0  0  0  0  0999 V2000
  193.4150  176.3140  146.1040 C   0  0  0  0  0  2  0  0  0  0  0  0
  191.0710  176.0300  143.8080 C   0  0  1  0  0  3  0  0  0  0  0  0
  193.3650  176.2650  143.1410 O   0  0  0  0  0  0  0  0  0  0  0  0
  188.6200  176.0790  143.1850 C   0  0  1  0  0  3  0  0  0  0  0  0
  189.8440  175.2010  143.4550 C   0  0  0  0  0  2  0  0  0  0  0  0
  191.1070  176.7740  148.0800 C   0  0  0  0  0  2  0  0  0  0  0  0
  191.1100  176.2760  145.2580 N   0  0  0  0  0  0  0  0  0  0  0  0
  196.4370  174.2150  143.8960 N   0  0  0  0  0  0  0  0  0  0  0  0
  190.1470  177.1880  145.8370 C   0  0  0  0  0  0  0  0  0  0  0  0
  196.4100  174.2430  145.1970 C   0  0  0  0  0  0  0  0  0  0  0  0
  192.0850  175.5760  146.1130 C   0  0  2  0  0  3  0  0  0  0  0  0
  188.0940  176.8280  144.4140 C   0  0  2  0  0  3  0  0  0  0  0  0
  194.4200  175.5720  145.2880 C   0  0  0  0  0  0  0  0  0  0  0  0
  192.3220  175.3360  143.2880 C   0  0  0  0  0  2  0  0  0  0  0  0
  195.3300  174.6850  143.0610 C   0  0  2  0  0  3  0  0  0  0  0  0
  188.8670  176.9650  142.1340 O   0  0  0  0  0  1  0  0  0  0  0  0
  197.4990  173.6990  145.9330 N   0  0  0  0  0  1  0  0  0  0  0  0
  190.1030  177.3900  147.1570 C   0  0  0  0  0  3  0  0  0  0  0  0
  195.3310  174.8760  145.8990 N   0  0  0  0  0  0  0  0  0  0  0  0
  189.0920  177.8390  144.9930 C   0  0  0  0  0  2  0  0  0  0  0  0
  194.5230  175.7830  143.7950 C   0  0  1  0  0  3  0  0  0  0  0  0
  191.5630  175.4210  147.5420 C   0  0  0  0  0  2  0  0  0  0  0  0
  186.6470  176.5670  145.9810 O   0  0  0  0  0  1  0  0  0  0  0  0
  187.6390  175.9360  145.3880 O   0  0  0  0  0  0  0  0  0  0  0  0
  194.4930  173.4840  142.6460 C   0  0  0  0  0  2  0  0  0  0  0  0
  194.3250  171.5480  140.9030 C   0  0  0  0  0  1  0  0  0  0  0  0
  195.5810  172.1520  142.0650 S   0  0  0  0  0  0  0  0  0  0  0  0
  2 14  1  1  0  0  0
  2  7  1  0  0  0  0
  3 14  1  0  0  0  0
  4 16  1  6  0  0  0
  4  5  1  0  0  0  0
  4 12  1  0  0  0  0
  5  2  1  0  0  0  0
  7  9  1  0  0  0  0
  7 11  1  0  0  0  0
  8 10  2  0  0  0  0
  9 18  2  0  0  0  0
 10 19  1  0  0  0  0
 10 17  1  0  0  0  0
 11  1  1  1  0  0  0
 11 22  1  0  0  0  0
 12 20  1  0  0  0  0
 12 24  1  1  0  0  0
 13 19  2  0  0  0  0
 13  1  1  0  0  0  0
 15 25  1  1  0  0  0
 15 21  1  0  0  0  0
 15  8  1  0  0  0  0
 18  6  1  0  0  0  0
 20  9  1  0  0  0  0
 21  3  1  6  0  0  0
 21 13  1  0  0  0  0
 22  6  1  0  0  0  0
 24 23  1  0  0  0  0
 26 27  1  0  0  0  0
 27 25  1  0  0  0  0
M  END
>  <MODEL>
8

>  <REMARK>
 VINA RESULT:      -6.2      3.516      7.286
  Name = 
  3 active torsions:
  status: ('A' for Active; 'I' for Inactive)
    1  A    between atoms: S_12  and  C_14
    2  A    between atoms: C_14  and  C_20
    3  A    between atoms: O_16  and  C_17
                            x       y       z     vdW  Elec       q    Type
                         _______ _______ _______ _____ _____    ______ ____

>  <TORSDO>
F 3

$$$$
=
 OpenBabel11052418323D

 27 30  0  0  1  0  0  0  0  0999 V2000
  188.5130  175.0470  141.7200 C   0  0  0  0  0  2  0  0  0  0  0  0
  188.3270  176.1000  144.8350 C   0  0  1  0  0  3  0  0  0  0  0  0
  189.4970  174.0630  144.3380 O   0  0  0  0  0  0  0  0  0  0  0  0
  187.2730  177.6250  146.5550 C   0  0  1  0  0  3  0  0  0  0  0  0
  188.4990  177.3540  145.6800 C   0  0  0  0  0  2  0  0  0  0  0  0
  186.3510  177.1450  141.1200 C   0  0  0  0  0  2  0  0  0  0  0  0
  187.6750  176.4390  143.5610 N   0  0  0  0  0  0  0  0  0  0  0  0
  192.4250  173.3190  142.0820 N   0  0  0  0  0  0  0  0  0  0  0  0
  186.2740  176.8020  143.5690 C   0  0  0  0  0  0  0  0  0  0  0  0
  191.9640  173.7830  140.9570 C   0  0  0  0  0  0  0  0  0  0  0  0
  188.4430  176.4500  142.3020 C   0  0  2  0  0  3  0  0  0  0  0  0
  186.0080  177.9970  145.7760 C   0  0  2  0  0  3  0  0  0  0  0  0
  189.8760  174.4700  141.9090 C   0  0  0  0  0  0  0  0  0  0  0  0
  189.6770  175.4210  144.6500 C   0  0  0  0  0  2  0  0  0  0  0  0
  191.7690  173.5470  143.3720 C   0  0  2  0  0  3  0  0  0  0  0  0
  187.0280  176.5500  147.4120 O   0  0  0  0  0  1  0  0  0  0  0  0
  192.7020  173.5760  139.7580 N   0  0  0  0  0  1  0  0  0  0  0  0
  185.6580  177.1810  142.4460 C   0  0  0  0  0  3  0  0  0  0  0  0
  190.6880  174.4370  140.8960 N   0  0  0  0  0  0  0  0  0  0  0  0
  185.5020  176.8820  144.8530 C   0  0  0  0  0  2  0  0  0  0  0  0
  190.2460  173.7420  143.1810 C   0  0  1  0  0  3  0  0  0  0  0  0
  187.8390  177.4260  141.2910 C   0  0  0  0  0  2  0  0  0  0  0  0
  184.9610  179.6720  144.9280 O   0  0  0  0  0  1  0  0  0  0  0  0
  186.1800  179.2000  145.0850 O   0  0  0  0  0  0  0  0  0  0  0  0
  192.4540  174.7170  144.0630 C   0  0  0  0  0  2  0  0  0  0  0  0
  193.4690  172.5510  145.1070 C   0  0  0  0  0  1  0  0  0  0  0  0
  193.0270  174.2050  145.7080 S   0  0  0  0  0  0  0  0  0  0  0  0
  1 13  1  0  0  0  0
  1 11  1  0  0  0  0
  2 14  1  6  0  0  0
  2  5  1  0  0  0  0
  3 14  1  0  0  0  0
  4 16  1  6  0  0  0
  5  4  1  0  0  0  0
  6 22  1  0  0  0  0
  6 18  1  0  0  0  0
  7  9  1  0  0  0  0
  7  2  1  0  0  0  0
  8 15  1  0  0  0  0
  9 20  1  0  0  0  0
 10  8  2  0  0  0  0
 11 22  1  6  0  0  0
 11  7  1  0  0  0  0
 12 24  1  6  0  0  0
 12  4  1  0  0  0  0
 15 25  1  6  0  0  0
 17 10  1  0  0  0  0
 18  9  2  0  0  0  0
 19 10  1  0  0  0  0
 19 13  2  0  0  0  0
 20 12  1  0  0  0  0
 21 13  1  6  0  0  0
 21 15  1  0  0  0  0
 21  3  1  0  0  0  0
 23 24  1  0  0  0  0
 25 27  1  0  0  0  0
 26 27  1  0  0  0  0
M  END
>  <MODEL>
9

>  <REMARK>
 VINA RESULT:      -6.2      3.321      7.187
  Name = 
  3 active torsions:
  status: ('A' for Active; 'I' for Inactive)
    1  A    between atoms: S_12  and  C_14
    2  A    between atoms: C_14  and  C_20
    3  A    between atoms: O_16  and  C_17
                            x       y       z     vdW  Elec       q    Type
                         _______ _______ _______ _____ _____    ______ ____

>  <TORSDO>
F 3

$$$$
