=
 OpenBabel11052417233D

 30 32  0  0  1  0  0  0  0  0999 V2000
  189.5710  177.0580  144.8330 C   0  0  0  0  0  0  0  0  0  0  0  0
  190.3570  173.6280  145.0460 C   0  0  0  0  0  2  0  0  0  0  0  0
  188.8160  174.1160  142.6350 C   0  0  0  0  0  1  0  0  0  0  0  0
  190.7580  174.6380  143.9580 C   0  0  2  0  0  3  0  0  0  0  0  0
  190.1060  176.7150  146.1210 N   0  0  0  0  0  2  0  0  0  0  0  0
  189.8270  178.1960  144.3560 O   0  0  0  0  0  0  0  0  0  0  0  0
  189.4460  174.2340  146.1110 C   0  0  0  0  0  2  0  0  0  0  0  0
  190.0690  175.4300  146.7610 C   0  0  0  0  0  0  0  0  0  0  0  0
  189.6300  175.2020  143.1850 N   0  0  0  0  0  0  0  0  0  0  0  0
  190.5940  175.2960  147.8960 O   0  0  0  0  0  0  0  0  0  0  0  0
  188.7690  176.0650  144.0180 C   0  0  2  0  0  3  0  0  0  0  0  0
  193.0950  174.4060  143.1060 C   0  0  0  0  0  3  0  0  0  0  0  0
  191.8050  174.0560  143.0530 C   0  0  0  0  0  3  0  0  0  0  0  0
  193.6180  175.4100  144.0840 C   0  0  0  0  0  2  0  0  0  0  0  0
  193.9060  174.7330  145.4070 C   0  0  0  0  0  3  0  0  0  0  0  0
  193.8810  175.7750  146.5060 C   0  0  0  0  0  2  0  0  0  0  0  0
  195.2040  175.2750  145.9680 C   0  0  0  0  0  2  0  0  0  0  0  0
  187.7290  176.7810  143.1520 C   0  0  0  0  0  2  0  0  0  0  0  0
  186.3030  176.3920  143.5300 C   0  0  0  0  0  2  0  0  0  0  0  0
  185.4480  177.6030  143.9180 C   0  0  2  0  0  0  0  0  0  0  0  0
  184.0450  178.7430  145.8160 C   0  0  0  0  0  1  0  0  0  0  0  0
  186.2170  178.7530  144.5440 C   0  0  0  0  0  2  0  0  0  0  0  0
  185.2600  177.9340  145.3920 C   0  0  2  0  0  0  0  0  0  0  0  0
  184.3820  178.0440  143.0190 N   0  0  0  0  0  2  0  0  0  0  0  0
  184.9500  178.2720  141.7580 N   0  0  0  0  0  0  0  0  0  0  0  0
  182.5070  178.1680  140.7510 S   0  0  0  0  0  1  0  0  0  0  0  0
  184.1260  178.2950  140.6000 C   0  0  0  0  0  3  0  0  0  0  0  0
  186.0070  177.1310  146.4440 C   0  0  0  0  0  2  0  0  0  0  0  0
  186.9840  177.9220  147.0440 O   0  0  0  0  0  0  0  0  0  0  0  0
  186.4410  178.3160  148.1760 O   0  0  0  0  0  1  0  0  0  0  0  0
  1  5  1  0  0  0  0
  2  7  1  0  0  0  0
  3  9  1  0  0  0  0
  4 13  1  6  0  0  0
  4  2  1  0  0  0  0
  5  8  1  0  0  0  0
  6  1  2  0  0  0  0
  7  8  1  0  0  0  0
  8 10  2  0  0  0  0
  9  4  1  0  0  0  0
  9 11  1  0  0  0  0
 11 18  1  6  0  0  0
 11  1  1  0  0  0  0
 12 14  1  0  0  0  0
 13 12  2  0  0  0  0
 14 15  1  0  0  0  0
 15 17  1  0  0  0  0
 15 16  1  0  0  0  0
 17 16  1  0  0  0  0
 18 19  1  0  0  0  0
 20 19  1  6  0  0  0
 20 22  1  0  0  0  0
 20 23  1  0  0  0  0
 22 23  1  0  0  0  0
 23 21  1  1  0  0  0
 23 28  1  0  0  0  0
 24 20  1  0  0  0  0
 25 24  1  0  0  0  0
 27 26  1  0  0  0  0
 27 25  2  0  0  0  0
 28 29  1  0  0  0  0
 29 30  1  0  0  0  0
M  END
>  <MODEL>
1

>  <REMARK>
 VINA RESULT:      -6.7      0.000      0.000
  Name = 
  11 active torsions:
  status: ('A' for Active; 'I' for Inactive)
    1  A    between atoms: C_1  and  C_4
    2  A    between atoms: C_1  and  C_22
    3  A    between atoms: C_4  and  N_5
    4  A    between atoms: N_5  and  N_21
    5  A    between atoms: C_10  and  C_25
    6  A    between atoms: C_11  and  C_24
    7  A    between atoms: C_12  and  C_27
    8  A    between atoms: O_13  and  C_27
    9  A    between atoms: C_15  and  C_25
   10  A    between atoms: C_17  and  N_21
   11  A    between atoms: C_22  and  C_29
                            x       y       z     vdW  Elec       q    Type
                         _______ _______ _______ _____ _____    ______ ____

>  <TORSDO>
F 11

$$$$
=
 OpenBabel11052417233D

 30 32  0  0  1  0  0  0  0  0999 V2000
  189.2550  175.2230  146.0520 C   0  0  0  0  0  0  0  0  0  0  0  0
  191.5090  175.1960  143.3410 C   0  0  0  0  0  2  0  0  0  0  0  0
  190.2190  177.7910  143.4960 C   0  0  0  0  0  1  0  0  0  0  0  0
  191.5240  176.0910  144.5920 C   0  0  2  0  0  3  0  0  0  0  0  0
  189.7290  173.8970  145.7700 N   0  0  0  0  0  2  0  0  0  0  0  0
  189.0090  175.5360  147.2480 O   0  0  0  0  0  0  0  0  0  0  0  0
  190.3010  174.2630  143.2940 C   0  0  0  0  0  2  0  0  0  0  0  0
  190.2160  173.3990  144.5140 C   0  0  0  0  0  0  0  0  0  0  0  0
  190.3640  177.0010  144.7200 N   0  0  0  0  0  0  0  0  0  0  0  0
  190.6020  172.2060  144.4380 O   0  0  0  0  0  0  0  0  0  0  0  0
  189.1090  176.2620  144.9600 C   0  0  2  0  0  3  0  0  0  0  0  0
  193.9050  176.3440  145.3020 C   0  0  0  0  0  3  0  0  0  0  0  0
  192.8210  176.8400  144.6940 C   0  0  0  0  0  3  0  0  0  0  0  0
  193.9270  174.9890  145.9320 C   0  0  0  0  0  2  0  0  0  0  0  0
  194.4720  173.9760  144.9470 C   0  0  0  0  0  3  0  0  0  0  0  0
  194.0350  172.5910  145.3760 C   0  0  0  0  0  2  0  0  0  0  0  0
  195.4430  173.0620  145.6630 C   0  0  0  0  0  2  0  0  0  0  0  0
  187.9670  177.2330  145.2760 C   0  0  0  0  0  2  0  0  0  0  0  0
  186.6140  176.6940  144.8200 C   0  0  0  0  0  2  0  0  0  0  0  0
  185.7600  177.7620  144.1290 C   0  0  2  0  0  0  0  0  0  0  0  0
  183.4900  179.0720  144.1620 C   0  0  0  0  0  1  0  0  0  0  0  0
  185.9560  179.1730  144.6530 C   0  0  0  0  0  2  0  0  0  0  0  0
  184.6500  178.4450  144.9170 C   0  0  2  0  0  0  0  0  0  0  0  0
  185.5790  177.7060  142.6790 N   0  0  0  0  0  2  0  0  0  0  0  0
  186.6990  178.3010  142.0830 N   0  0  0  0  0  2  0  0  0  0  0  0
  187.7730  176.0820  141.1240 S   0  0  0  0  0  0  0  0  0  0  0  0
  187.3560  177.6540  141.0010 C   0  0  0  0  0  3  0  0  0  0  0  0
  184.4800  178.1380  146.3960 C   0  0  0  0  0  2  0  0  0  0  0  0
  185.3100  178.9620  147.1530 O   0  0  0  0  0  0  0  0  0  0  0  0
  185.8710  178.1540  148.0270 O   0  0  0  0  0  1  0  0  0  0  0  0
  1  6  2  0  0  0  0
  2  4  1  0  0  0  0
  3  9  1  0  0  0  0
  4 13  1  6  0  0  0
  4  9  1  0  0  0  0
  5  1  1  0  0  0  0
  7  2  1  0  0  0  0
  7  8  1  0  0  0  0
  8  5  1  0  0  0  0
  9 11  1  0  0  0  0
 10  8  2  0  0  0  0
 11 18  1  1  0  0  0
 11  1  1  0  0  0  0
 12 14  1  0  0  0  0
 13 12  2  0  0  0  0
 15 16  1  0  0  0  0
 15 17  1  0  0  0  0
 15 14  1  0  0  0  0
 16 17  1  0  0  0  0
 19 18  1  0  0  0  0
 20 22  1  0  0  0  0
 20 19  1  1  0  0  0
 20 23  1  0  0  0  0
 22 23  1  0  0  0  0
 23 21  1  6  0  0  0
 23 28  1  0  0  0  0
 24 20  1  0  0  0  0
 25 24  1  0  0  0  0
 27 26  2  0  0  0  0
 27 25  1  0  0  0  0
 28 29  1  0  0  0  0
 29 30  1  0  0  0  0
M  END
>  <MODEL>
2

>  <REMARK>
 VINA RESULT:      -6.3      1.970      2.649
  Name = 
  11 active torsions:
  status: ('A' for Active; 'I' for Inactive)
    1  A    between atoms: C_1  and  C_4
    2  A    between atoms: C_1  and  C_22
    3  A    between atoms: C_4  and  N_5
    4  A    between atoms: N_5  and  N_21
    5  A    between atoms: C_10  and  C_25
    6  A    between atoms: C_11  and  C_24
    7  A    between atoms: C_12  and  C_27
    8  A    between atoms: O_13  and  C_27
    9  A    between atoms: C_15  and  C_25
   10  A    between atoms: C_17  and  N_21
   11  A    between atoms: C_22  and  C_29
                            x       y       z     vdW  Elec       q    Type
                         _______ _______ _______ _____ _____    ______ ____

>  <TORSDO>
F 11

$$$$
=
 OpenBabel11052417233D

 30 32  0  0  1  0  0  0  0  0999 V2000
  190.1590  177.0080  144.0420 C   0  0  0  0  0  0  0  0  0  0  0  0
  191.7160  174.4640  145.9220 C   0  0  0  0  0  2  0  0  0  0  0  0
  189.0430  174.9260  146.9540 C   0  0  0  0  0  1  0  0  0  0  0  0
  190.4380  174.3820  145.0690 C   0  0  2  0  0  3  0  0  0  0  0  0
  191.5620  176.9130  143.7480 N   0  0  0  0  0  2  0  0  0  0  0  0
  189.3680  177.3360  143.1180 O   0  0  0  0  0  0  0  0  0  0  0  0
  192.3050  175.8720  145.9740 C   0  0  0  0  0  2  0  0  0  0  0  0
  192.5960  176.4050  144.6050 C   0  0  0  0  0  0  0  0  0  0  0  0
  189.3170  175.2210  145.5460 N   0  0  0  0  0  0  0  0  0  0  0  0
  193.7810  176.3850  144.1880 O   0  0  0  0  0  0  0  0  0  0  0  0
  189.6110  176.6610  145.4110 C   0  0  2  0  0  3  0  0  0  0  0  0
  189.7360  172.4220  143.6910 C   0  0  0  0  0  3  0  0  0  0  0  0
  190.0130  172.9530  144.8860 C   0  0  0  0  0  3  0  0  0  0  0  0
  189.8300  173.2020  142.4190 C   0  0  0  0  0  2  0  0  0  0  0  0
  188.4730  173.2620  141.7520 C   0  0  0  0  0  3  0  0  0  0  0  0
  188.4280  174.4660  140.8350 C   0  0  0  0  0  2  0  0  0  0  0  0
  187.7610  174.5240  142.1910 C   0  0  0  0  0  2  0  0  0  0  0  0
  188.3670  177.4960  145.7300 C   0  0  0  0  0  2  0  0  0  0  0  0
  187.0770  176.7290  145.4560 C   0  0  0  0  0  2  0  0  0  0  0  0
  185.9770  177.6220  144.8730 C   0  0  2  0  0  0  0  0  0  0  0  0
  183.6980  178.8310  145.3370 C   0  0  0  0  0  1  0  0  0  0  0  0
  186.1860  179.1120  145.0830 C   0  0  0  0  0  2  0  0  0  0  0  0
  185.0700  178.3930  145.8220 C   0  0  2  0  0  0  0  0  0  0  0  0
  185.4110  177.3000  143.5630 N   0  0  0  0  0  2  0  0  0  0  0  0
  186.0720  178.0810  142.6060 N   0  0  0  0  0  2  0  0  0  0  0  0
  186.3920  177.5560  140.0330 S   0  0  0  0  0  0  0  0  0  0  0  0
  185.5530  178.1770  141.2860 C   0  0  0  0  0  3  0  0  0  0  0  0
  185.3380  178.3520  147.3180 C   0  0  0  0  0  2  0  0  0  0  0  0
  185.9260  179.5460  147.7310 O   0  0  0  0  0  0  0  0  0  0  0  0
  186.9320  179.1730  148.4930 O   0  0  0  0  0  1  0  0  0  0  0  0
  1 11  1  0  0  0  0
  2  7  1  0  0  0  0
  4 13  1  1  0  0  0
  4  9  1  0  0  0  0
  4  2  1  0  0  0  0
  5  1  1  0  0  0  0
  5  8  1  0  0  0  0
  6  1  2  0  0  0  0
  8  7  1  0  0  0  0
  9  3  1  0  0  0  0
 10  8  2  0  0  0  0
 11  9  1  0  0  0  0
 11 18  1  6  0  0  0
 12 13  2  0  0  0  0
 14 12  1  0  0  0  0
 15 17  1  0  0  0  0
 15 14  1  0  0  0  0
 16 15  1  0  0  0  0
 16 17  1  0  0  0  0
 19 18  1  0  0  0  0
 20 22  1  0  0  0  0
 20 19  1  1  0  0  0
 20 23  1  0  0  0  0
 22 23  1  0  0  0  0
 23 21  1  6  0  0  0
 23 28  1  0  0  0  0
 24 20  1  0  0  0  0
 25 24  1  0  0  0  0
 26 27  2  0  0  0  0
 27 25  1  0  0  0  0
 28 29  1  0  0  0  0
 29 30  1  0  0  0  0
M  END
>  <MODEL>
3

>  <REMARK>
 VINA RESULT:      -6.2      1.970      3.469
  Name = 
  11 active torsions:
  status: ('A' for Active; 'I' for Inactive)
    1  A    between atoms: C_1  and  C_4
    2  A    between atoms: C_1  and  C_22
    3  A    between atoms: C_4  and  N_5
    4  A    between atoms: N_5  and  N_21
    5  A    between atoms: C_10  and  C_25
    6  A    between atoms: C_11  and  C_24
    7  A    between atoms: C_12  and  C_27
    8  A    between atoms: O_13  and  C_27
    9  A    between atoms: C_15  and  C_25
   10  A    between atoms: C_17  and  N_21
   11  A    between atoms: C_22  and  C_29
                            x       y       z     vdW  Elec       q    Type
                         _______ _______ _______ _____ _____    ______ ____

>  <TORSDO>
F 11

$$$$
=
 OpenBabel11052417233D

 30 32  0  0  1  0  0  0  0  0999 V2000
  189.6480  174.6900  145.3270 C   0  0  0  0  0  0  0  0  0  0  0  0
  190.3300  174.5630  141.8700 C   0  0  0  0  0  2  0  0  0  0  0  0
  189.5830  177.2690  142.6060 C   0  0  0  0  0  1  0  0  0  0  0  0
  191.0400  175.3860  142.9590 C   0  0  2  0  0  3  0  0  0  0  0  0
  189.7730  173.3380  144.8600 N   0  0  0  0  0  2  0  0  0  0  0  0
  190.0370  174.9650  146.4940 O   0  0  0  0  0  0  0  0  0  0  0  0
  189.1430  173.7670  142.4090 C   0  0  0  0  0  2  0  0  0  0  0  0
  189.5440  172.8560  143.5270 C   0  0  0  0  0  0  0  0  0  0  0  0
  190.1960  176.4060  143.6180 N   0  0  0  0  0  0  0  0  0  0  0  0
  189.7050  171.6340  143.2820 O   0  0  0  0  0  0  0  0  0  0  0  0
  189.1270  175.7940  144.4300 C   0  0  2  0  0  3  0  0  0  0  0  0
  193.4370  176.0650  143.1420 C   0  0  0  0  0  3  0  0  0  0  0  0
  192.3100  175.9860  142.4270 C   0  0  0  0  0  3  0  0  0  0  0  0
  193.5400  175.5530  144.5430 C   0  0  0  0  0  2  0  0  0  0  0  0
  193.1930  176.6570  145.5190 C   0  0  0  0  0  3  0  0  0  0  0  0
  194.3930  176.9270  146.4020 C   0  0  0  0  0  2  0  0  0  0  0  0
  193.2380  176.1040  146.9280 C   0  0  0  0  0  2  0  0  0  0  0  0
  188.3940  176.8620  145.2470 C   0  0  0  0  0  2  0  0  0  0  0  0
  186.9730  176.4370  145.6040 C   0  0  0  0  0  2  0  0  0  0  0  0
  185.9170  177.4030  145.0580 C   0  0  2  0  0  0  0  0  0  0  0  0
  183.8270  178.8760  145.6370 C   0  0  0  0  0  1  0  0  0  0  0  0
  186.2940  178.8720  145.1390 C   0  0  0  0  0  2  0  0  0  0  0  0
  185.1890  178.3260  146.0260 C   0  0  2  0  0  0  0  0  0  0  0  0
  185.1960  177.0600  143.8330 N   0  0  0  0  0  2  0  0  0  0  0  0
  186.0870  177.1930  142.7590 N   0  0  0  0  0  2  0  0  0  0  0  0
  186.4540  177.5350  140.1620 S   0  0  0  0  0  0  0  0  0  0  0  0
  185.6640  177.8260  141.5590 C   0  0  0  0  0  3  0  0  0  0  0  0
  185.5970  178.3520  147.4900 C   0  0  0  0  0  2  0  0  0  0  0  0
  186.0920  179.6100  147.8260 O   0  0  0  0  0  0  0  0  0  0  0  0
  187.1300  179.3630  148.5960 O   0  0  0  0  0  1  0  0  0  0  0  0
  1  6  2  0  0  0  0
  2  7  1  0  0  0  0
  2  4  1  0  0  0  0
  3  9  1  0  0  0  0
  4 13  1  6  0  0  0
  4  9  1  0  0  0  0
  5  1  1  0  0  0  0
  7  8  1  0  0  0  0
  8  5  1  0  0  0  0
  9 11  1  0  0  0  0
 10  8  2  0  0  0  0
 11 18  1  1  0  0  0
 11  1  1  0  0  0  0
 12 14  1  0  0  0  0
 13 12  2  0  0  0  0
 14 15  1  0  0  0  0
 15 16  1  0  0  0  0
 15 17  1  0  0  0  0
 16 17  1  0  0  0  0
 18 19  1  0  0  0  0
 20 22  1  0  0  0  0
 20 19  1  1  0  0  0
 20 23  1  0  0  0  0
 22 23  1  0  0  0  0
 23 21  1  6  0  0  0
 23 28  1  0  0  0  0
 24 20  1  0  0  0  0
 25 24  1  0  0  0  0
 26 27  2  0  0  0  0
 27 25  1  0  0  0  0
 28 29  1  0  0  0  0
 29 30  1  0  0  0  0
M  END
>  <MODEL>
4

>  <REMARK>
 VINA RESULT:      -6.1      1.884      2.528
  Name = 
  11 active torsions:
  status: ('A' for Active; 'I' for Inactive)
    1  A    between atoms: C_1  and  C_4
    2  A    between atoms: C_1  and  C_22
    3  A    between atoms: C_4  and  N_5
    4  A    between atoms: N_5  and  N_21
    5  A    between atoms: C_10  and  C_25
    6  A    between atoms: C_11  and  C_24
    7  A    between atoms: C_12  and  C_27
    8  A    between atoms: O_13  and  C_27
    9  A    between atoms: C_15  and  C_25
   10  A    between atoms: C_17  and  N_21
   11  A    between atoms: C_22  and  C_29
                            x       y       z     vdW  Elec       q    Type
                         _______ _______ _______ _____ _____    ______ ____

>  <TORSDO>
F 11

$$$$
=
 OpenBabel11052417233D

 30 32  0  0  1  0  0  0  0  0999 V2000
  191.8580  176.6550  143.9030 C   0  0  0  0  0  0  0  0  0  0  0  0
  192.4230  174.3880  146.5440 C   0  0  0  0  0  2  0  0  0  0  0  0
  189.7900  173.9190  145.4180 C   0  0  0  0  0  1  0  0  0  0  0  0
  192.1640  174.0850  145.0580 C   0  0  2  0  0  3  0  0  0  0  0  0
  193.0280  177.0030  144.6600 N   0  0  0  0  0  2  0  0  0  0  0  0
  191.8470  176.8880  142.6650 O   0  0  0  0  0  0  0  0  0  0  0  0
  192.3500  175.8790  146.8670 C   0  0  0  0  0  2  0  0  0  0  0  0
  193.3030  176.6770  146.0320 C   0  0  0  0  0  0  0  0  0  0  0  0
  190.8310  174.4930  144.5630 N   0  0  0  0  0  0  0  0  0  0  0  0
  194.3860  177.0550  146.5450 O   0  0  0  0  0  0  0  0  0  0  0  0
  190.6760  175.9600  144.5460 C   0  0  2  0  0  3  0  0  0  0  0  0
  193.6580  172.1840  144.4330 C   0  0  0  0  0  3  0  0  0  0  0  0
  192.4430  172.6420  144.7540 C   0  0  0  0  0  3  0  0  0  0  0  0
  194.8600  173.0710  144.3550 C   0  0  0  0  0  2  0  0  0  0  0  0
  195.7390  172.8490  145.5670 C   0  0  0  0  0  3  0  0  0  0  0  0
  196.3260  174.1770  145.9970 C   0  0  0  0  0  2  0  0  0  0  0  0
  197.1690  173.1970  145.2110 C   0  0  0  0  0  2  0  0  0  0  0  0
  189.3670  176.3540  143.8540 C   0  0  0  0  0  2  0  0  0  0  0  0
  188.7010  177.5520  144.5260 C   0  0  0  0  0  2  0  0  0  0  0  0
  187.1790  177.4050  144.6110 C   0  0  2  0  0  0  0  0  0  0  0  0
  185.1450  176.8120  146.1550 C   0  0  0  0  0  1  0  0  0  0  0  0
  186.4400  178.6600  145.0410 C   0  0  0  0  0  2  0  0  0  0  0  0
  186.5060  177.4650  145.9750 C   0  0  2  0  0  0  0  0  0  0  0  0
  186.4730  176.6470  143.5790 N   0  0  0  0  0  2  0  0  0  0  0  0
  186.1780  177.5250  142.5270 N   0  0  0  0  0  2  0  0  0  0  0  0
  184.5180  178.2980  140.6180 S   0  0  0  0  0  0  0  0  0  0  0  0
  184.8320  177.6980  142.1020 C   0  0  0  0  0  3  0  0  0  0  0  0
  187.3360  177.7770  147.2100 C   0  0  0  0  0  2  0  0  0  0  0  0
  186.5180  178.2750  148.2220 O   0  0  0  0  0  0  0  0  0  0  0  0
  187.1120  179.3840  148.6110 O   0  0  0  0  0  1  0  0  0  0  0  0
  1 11  1  0  0  0  0
  1  5  1  0  0  0  0
  2  7  1  0  0  0  0
  4 13  1  1  0  0  0
  4  2  1  0  0  0  0
  5  8  1  0  0  0  0
  6  1  2  0  0  0  0
  8 10  2  0  0  0  0
  8  7  1  0  0  0  0
  9  4  1  0  0  0  0
  9  3  1  0  0  0  0
 11 18  1  6  0  0  0
 11  9  1  0  0  0  0
 12 13  2  0  0  0  0
 14 12  1  0  0  0  0
 14 15  1  0  0  0  0
 15 16  1  0  0  0  0
 17 15  1  0  0  0  0
 17 16  1  0  0  0  0
 18 19  1  0  0  0  0
 20 19  1  6  0  0  0
 20 22  1  0  0  0  0
 20 23  1  0  0  0  0
 22 23  1  0  0  0  0
 23 21  1  1  0  0  0
 23 28  1  0  0  0  0
 24 20  1  0  0  0  0
 25 24  1  0  0  0  0
 26 27  2  0  0  0  0
 27 25  1  0  0  0  0
 28 29  1  0  0  0  0
 29 30  1  0  0  0  0
M  END
>  <MODEL>
5

>  <REMARK>
 VINA RESULT:      -6.0      2.022      2.486
  Name = 
  11 active torsions:
  status: ('A' for Active; 'I' for Inactive)
    1  A    between atoms: C_1  and  C_4
    2  A    between atoms: C_1  and  C_22
    3  A    between atoms: C_4  and  N_5
    4  A    between atoms: N_5  and  N_21
    5  A    between atoms: C_10  and  C_25
    6  A    between atoms: C_11  and  C_24
    7  A    between atoms: C_12  and  C_27
    8  A    between atoms: O_13  and  C_27
    9  A    between atoms: C_15  and  C_25
   10  A    between atoms: C_17  and  N_21
   11  A    between atoms: C_22  and  C_29
                            x       y       z     vdW  Elec       q    Type
                         _______ _______ _______ _____ _____    ______ ____

>  <TORSDO>
F 11

$$$$
=
 OpenBabel11052417233D

 30 32  0  0  1  0  0  0  0  0999 V2000
  191.0780  177.3720  143.0820 C   0  0  0  0  0  0  0  0  0  0  0  0
  188.1760  175.3850  143.3170 C   0  0  0  0  0  2  0  0  0  0  0  0
  190.5180  173.7180  143.7130 C   0  0  0  0  0  1  0  0  0  0  0  0
  189.2470  175.6480  144.3890 C   0  0  2  0  0  3  0  0  0  0  0  0
  189.9110  178.0850  142.6450 N   0  0  0  0  0  2  0  0  0  0  0  0
  191.9970  178.0120  143.6600 O   0  0  0  0  0  0  0  0  0  0  0  0
  188.5000  176.0460  141.9790 C   0  0  0  0  0  2  0  0  0  0  0  0
  188.6980  177.5230  142.1210 C   0  0  0  0  0  0  0  0  0  0  0  0
  190.5970  175.1400  144.0570 N   0  0  0  0  0  0  0  0  0  0  0  0
  187.7610  178.2930  141.7880 O   0  0  0  0  0  0  0  0  0  0  0  0
  191.1960  175.8700  142.9240 C   0  0  2  0  0  3  0  0  0  0  0  0
  188.1410  175.9220  146.6110 C   0  0  0  0  0  3  0  0  0  0  0  0
  188.7900  175.1530  145.7300 C   0  0  0  0  0  3  0  0  0  0  0  0
  187.8020  177.3520  146.3370 C   0  0  0  0  0  2  0  0  0  0  0  0
  186.3620  177.4600  145.8850 C   0  0  0  0  0  3  0  0  0  0  0  0
  186.2370  178.6150  144.9130 C   0  0  0  0  0  2  0  0  0  0  0  0
  185.7950  178.7840  146.3500 C   0  0  0  0  0  2  0  0  0  0  0  0
  192.6570  175.4540  142.7300 C   0  0  0  0  0  2  0  0  0  0  0  0
  193.2250  174.7620  143.9660 C   0  0  0  0  0  2  0  0  0  0  0  0
  194.2040  175.6520  144.7380 C   0  0  2  0  0  0  0  0  0  0  0  0
  194.4840  177.3590  146.7070 C   0  0  0  0  0  1  0  0  0  0  0  0
  194.8540  174.9910  145.9410 C   0  0  0  0  0  2  0  0  0  0  0  0
  193.8400  176.1020  146.1460 C   0  0  2  0  0  0  0  0  0  0  0  0
  195.1150  176.5250  143.9990 N   0  0  0  0  0  2  0  0  0  0  0  0
  196.2900  175.8050  143.7450 N   0  0  0  0  0  2  0  0  0  0  0  0
  196.2530  176.3770  141.1630 S   0  0  0  0  0  0  0  0  0  0  0  0
  197.0320  176.0500  142.5580 C   0  0  0  0  0  3  0  0  0  0  0  0
  192.5720  175.5760  146.8000 C   0  0  0  0  0  2  0  0  0  0  0  0
  191.6650  176.6170  146.9870 O   0  0  0  0  0  0  0  0  0  0  0  0
  191.2710  176.4910  148.2370 O   0  0  0  0  0  1  0  0  0  0  0  0
  1  6  2  0  0  0  0
  2  4  1  0  0  0  0
  3  9  1  0  0  0  0
  4 13  1  1  0  0  0
  5  1  1  0  0  0  0
  7  8  1  0  0  0  0
  7  2  1  0  0  0  0
  8  5  1  0  0  0  0
  9  4  1  0  0  0  0
 10  8  2  0  0  0  0
 11 18  1  1  0  0  0
 11  1  1  0  0  0  0
 11  9  1  0  0  0  0
 13 12  2  0  0  0  0
 14 12  1  0  0  0  0
 15 14  1  0  0  0  0
 15 17  1  0  0  0  0
 16 15  1  0  0  0  0
 16 17  1  0  0  0  0
 18 19  1  0  0  0  0
 20 19  1  6  0  0  0
 20 22  1  0  0  0  0
 20 23  1  0  0  0  0
 22 23  1  0  0  0  0
 23 21  1  1  0  0  0
 23 28  1  0  0  0  0
 24 20  1  0  0  0  0
 25 24  1  0  0  0  0
 26 27  2  0  0  0  0
 27 25  1  0  0  0  0
 28 29  1  0  0  0  0
 29 30  1  0  0  0  0
M  END
>  <MODEL>
6

>  <REMARK>
 VINA RESULT:      -6.0      3.506      7.412
  Name = 
  11 active torsions:
  status: ('A' for Active; 'I' for Inactive)
    1  A    between atoms: C_1  and  C_4
    2  A    between atoms: C_1  and  C_22
    3  A    between atoms: C_4  and  N_5
    4  A    between atoms: N_5  and  N_21
    5  A    between atoms: C_10  and  C_25
    6  A    between atoms: C_11  and  C_24
    7  A    between atoms: C_12  and  C_27
    8  A    between atoms: O_13  and  C_27
    9  A    between atoms: C_15  and  C_25
   10  A    between atoms: C_17  and  N_21
   11  A    between atoms: C_22  and  C_29
                            x       y       z     vdW  Elec       q    Type
                         _______ _______ _______ _____ _____    ______ ____

>  <TORSDO>
F 11

$$$$
=
 OpenBabel11052417233D

 30 32  0  0  1  0  0  0  0  0999 V2000
  190.6220  178.0140  143.5400 C   0  0  0  0  0  0  0  0  0  0  0  0
  187.9530  175.8900  144.4320 C   0  0  0  0  0  2  0  0  0  0  0  0
  190.1360  175.5360  146.3120 C   0  0  0  0  0  1  0  0  0  0  0  0
  188.5820  177.0340  145.2450 C   0  0  2  0  0  3  0  0  0  0  0  0
  189.6230  177.9560  142.5090 N   0  0  0  0  0  2  0  0  0  0  0  0
  191.2460  179.0940  143.7160 O   0  0  0  0  0  0  0  0  0  0  0  0
  188.6620  175.6500  143.1000 C   0  0  0  0  0  2  0  0  0  0  0  0
  188.6980  176.8870  142.2570 C   0  0  0  0  0  0  0  0  0  0  0  0
  189.9960  176.8230  145.6260 N   0  0  0  0  0  0  0  0  0  0  0  0
  187.8770  176.9980  141.3120 O   0  0  0  0  0  0  0  0  0  0  0  0
  190.8900  176.8350  144.4520 C   0  0  2  0  0  3  0  0  0  0  0  0
  186.6330  178.1160  146.3720 C   0  0  0  0  0  3  0  0  0  0  0  0
  187.7360  177.3630  146.4410 C   0  0  0  0  0  3  0  0  0  0  0  0
  186.1330  178.6980  145.0880 C   0  0  0  0  0  2  0  0  0  0  0  0
  184.8930  177.9540  144.6380 C   0  0  0  0  0  3  0  0  0  0  0  0
  184.9320  177.8030  143.1320 C   0  0  0  0  0  2  0  0  0  0  0  0
  184.0600  178.8660  143.7630 C   0  0  0  0  0  2  0  0  0  0  0  0
  192.3560  176.8060  144.8930 C   0  0  0  0  0  2  0  0  0  0  0  0
  193.1290  175.6650  144.2380 C   0  0  0  0  0  2  0  0  0  0  0  0
  193.9770  174.8790  145.2420 C   0  0  2  0  0  0  0  0  0  0  0  0
  196.3520  173.9030  145.7730 C   0  0  0  0  0  1  0  0  0  0  0  0
  194.6940  175.7290  146.2760 C   0  0  0  0  0  2  0  0  0  0  0  0
  195.4930  175.0170  145.1980 C   0  0  2  0  0  0  0  0  0  0  0  0
  193.4620  173.6230  145.7870 N   0  0  0  0  0  2  0  0  0  0  0  0
  192.5130  173.1210  144.8850 N   0  0  0  0  0  0  0  0  0  0  0  0
  193.9720  170.9200  144.7360 S   0  0  0  0  0  1  0  0  0  0  0  0
  192.6590  171.8100  144.3570 C   0  0  0  0  0  3  0  0  0  0  0  0
  196.1300  176.0100  144.2390 C   0  0  0  0  0  2  0  0  0  0  0  0
  197.0010  175.3490  143.3760 O   0  0  0  0  0  0  0  0  0  0  0  0
  196.2490  174.9840  142.3610 O   0  0  0  0  0  1  0  0  0  0  0  0
  1  6  2  0  0  0  0
  1 11  1  0  0  0  0
  2  4  1  0  0  0  0
  4  9  1  0  0  0  0
  4 13  1  1  0  0  0
  5  1  1  0  0  0  0
  7  2  1  0  0  0  0
  8  5  1  0  0  0  0
  8  7  1  0  0  0  0
  9  3  1  0  0  0  0
 10  8  2  0  0  0  0
 11 18  1  1  0  0  0
 11  9  1  0  0  0  0
 12 13  2  0  0  0  0
 14 12  1  0  0  0  0
 15 14  1  0  0  0  0
 16 17  1  0  0  0  0
 16 15  1  0  0  0  0
 17 15  1  0  0  0  0
 19 18  1  0  0  0  0
 20 19  1  6  0  0  0
 20 24  1  0  0  0  0
 20 22  1  0  0  0  0
 23 20  1  0  0  0  0
 23 21  1  1  0  0  0
 23 22  1  0  0  0  0
 25 24  1  0  0  0  0
 27 26  1  0  0  0  0
 27 25  2  0  0  0  0
 28 23  1  0  0  0  0
 29 28  1  0  0  0  0
 30 29  1  0  0  0  0
M  END
>  <MODEL>
7

>  <REMARK>
 VINA RESULT:      -6.0      3.742      8.361
  Name = 
  11 active torsions:
  status: ('A' for Active; 'I' for Inactive)
    1  A    between atoms: C_1  and  C_4
    2  A    between atoms: C_1  and  C_22
    3  A    between atoms: C_4  and  N_5
    4  A    between atoms: N_5  and  N_21
    5  A    between atoms: C_10  and  C_25
    6  A    between atoms: C_11  and  C_24
    7  A    between atoms: C_12  and  C_27
    8  A    between atoms: O_13  and  C_27
    9  A    between atoms: C_15  and  C_25
   10  A    between atoms: C_17  and  N_21
   11  A    between atoms: C_22  and  C_29
                            x       y       z     vdW  Elec       q    Type
                         _______ _______ _______ _____ _____    ______ ____

>  <TORSDO>
F 11

$$$$
=
 OpenBabel11052417233D

 30 32  0  0  1  0  0  0  0  0999 V2000
  190.3430  175.1070  146.0310 C   0  0  0  0  0  0  0  0  0  0  0  0
  192.6190  175.6730  143.3990 C   0  0  0  0  0  2  0  0  0  0  0  0
  191.1370  178.1110  143.9320 C   0  0  0  0  0  1  0  0  0  0  0  0
  192.5550  176.3570  144.7750 C   0  0  2  0  0  3  0  0  0  0  0  0
  190.9180  173.8800  145.5540 N   0  0  0  0  0  2  0  0  0  0  0  0
  190.0630  175.2080  147.2550 O   0  0  0  0  0  0  0  0  0  0  0  0
  191.4850  174.6740  143.1790 C   0  0  0  0  0  2  0  0  0  0  0  0
  191.4530  173.6240  144.2460 C   0  0  0  0  0  0  0  0  0  0  0  0
  191.3290  177.1490  145.0190 N   0  0  0  0  0  0  0  0  0  0  0  0
  191.9290  172.4890  143.9910 O   0  0  0  0  0  0  0  0  0  0  0  0
  190.1310  176.2930  145.1130 C   0  0  2  0  0  3  0  0  0  0  0  0
  194.8770  176.6860  145.6320 C   0  0  0  0  0  3  0  0  0  0  0  0
  193.7910  177.1720  145.0220 C   0  0  0  0  0  3  0  0  0  0  0  0
  194.9650  175.2760  146.1210 C   0  0  0  0  0  2  0  0  0  0  0  0
  195.9170  174.4890  145.2470 C   0  0  0  0  0  3  0  0  0  0  0  0
  195.6310  173.0110  145.4140 C   0  0  0  0  0  2  0  0  0  0  0  0
  196.8090  173.6380  146.1270 C   0  0  0  0  0  2  0  0  0  0  0  0
  188.9160  177.1150  145.5530 C   0  0  0  0  0  2  0  0  0  0  0  0
  187.6020  176.4790  145.1110 C   0  0  0  0  0  2  0  0  0  0  0  0
  186.8560  177.3290  144.0790 C   0  0  2  0  0  0  0  0  0  0  0  0
  186.8830  178.2880  141.6390 C   0  0  0  0  0  1  0  0  0  0  0  0
  185.9050  176.5560  143.1820 C   0  0  0  0  0  2  0  0  0  0  0  0
  187.1770  177.1490  142.6010 C   0  0  2  0  0  0  0  0  0  0  0  0
  186.3410  178.6410  144.4690 N   0  0  0  0  0  2  0  0  0  0  0  0
  184.9810  178.4950  144.7740 N   0  0  0  0  0  2  0  0  0  0  0  0
  185.5370  178.8020  147.3410 S   0  0  0  0  0  0  0  0  0  0  0  0
  184.5700  178.3130  146.1220 C   0  0  0  0  0  3  0  0  0  0  0  0
  188.1450  176.0590  142.1700 C   0  0  0  0  0  2  0  0  0  0  0  0
  187.4400  174.9330  141.7490 O   0  0  0  0  0  0  0  0  0  0  0  0
  188.2370  173.9220  142.0210 O   0  0  0  0  0  1  0  0  0  0  0  0
  1  6  2  0  0  0  0
  2  4  1  0  0  0  0
  3  9  1  0  0  0  0
  4  9  1  0  0  0  0
  4 13  1  6  0  0  0
  5  1  1  0  0  0  0
  7  2  1  0  0  0  0
  7  8  1  0  0  0  0
  8  5  1  0  0  0  0
  9 11  1  0  0  0  0
 10  8  2  0  0  0  0
 11 18  1  1  0  0  0
 11  1  1  0  0  0  0
 12 14  1  0  0  0  0
 13 12  2  0  0  0  0
 15 16  1  0  0  0  0
 15 14  1  0  0  0  0
 15 17  1  0  0  0  0
 16 17  1  0  0  0  0
 19 18  1  0  0  0  0
 20 24  1  0  0  0  0
 20 19  1  1  0  0  0
 22 20  1  0  0  0  0
 23 21  1  6  0  0  0
 23 22  1  0  0  0  0
 23 20  1  0  0  0  0
 24 25  1  0  0  0  0
 25 27  1  0  0  0  0
 27 26  2  0  0  0  0
 28 23  1  0  0  0  0
 29 30  1  0  0  0  0
 29 28  1  0  0  0  0
M  END
>  <MODEL>
8

>  <REMARK>
 VINA RESULT:      -5.8      2.547      3.980
  Name = 
  11 active torsions:
  status: ('A' for Active; 'I' for Inactive)
    1  A    between atoms: C_1  and  C_4
    2  A    between atoms: C_1  and  C_22
    3  A    between atoms: C_4  and  N_5
    4  A    between atoms: N_5  and  N_21
    5  A    between atoms: C_10  and  C_25
    6  A    between atoms: C_11  and  C_24
    7  A    between atoms: C_12  and  C_27
    8  A    between atoms: O_13  and  C_27
    9  A    between atoms: C_15  and  C_25
   10  A    between atoms: C_17  and  N_21
   11  A    between atoms: C_22  and  C_29
                            x       y       z     vdW  Elec       q    Type
                         _______ _______ _______ _____ _____    ______ ____

>  <TORSDO>
F 11

$$$$
=
 OpenBabel11052417233D

 30 32  0  0  1  0  0  0  0  0999 V2000
  191.9500  176.5810  143.7640 C   0  0  0  0  0  0  0  0  0  0  0  0
  192.4710  174.5350  146.5870 C   0  0  0  0  0  2  0  0  0  0  0  0
  189.8580  173.9710  145.4580 C   0  0  0  0  0  1  0  0  0  0  0  0
  192.2390  174.1130  145.1260 C   0  0  2  0  0  3  0  0  0  0  0  0
  193.1060  176.9920  144.5100 N   0  0  0  0  0  2  0  0  0  0  0  0
  191.9600  176.7140  142.5110 O   0  0  0  0  0  0  0  0  0  0  0  0
  192.3920  176.0470  146.7880 C   0  0  0  0  0  2  0  0  0  0  0  0
  193.3580  176.7770  145.9080 C   0  0  0  0  0  0  0  0  0  0  0  0
  190.9130  174.4770  144.5770 N   0  0  0  0  0  0  0  0  0  0  0  0
  194.4320  177.1980  146.4070 O   0  0  0  0  0  0  0  0  0  0  0  0
  190.7570  175.9380  144.4400 C   0  0  2  0  0  3  0  0  0  0  0  0
  193.7540  172.1650  144.7410 C   0  0  0  0  0  3  0  0  0  0  0  0
  192.5240  172.6500  144.9440 C   0  0  0  0  0  3  0  0  0  0  0  0
  194.9660  173.0390  144.6850 C   0  0  0  0  0  2  0  0  0  0  0  0
  195.9370  172.6380  145.7750 C   0  0  0  0  0  3  0  0  0  0  0  0
  196.7660  173.8440  146.1620 C   0  0  0  0  0  2  0  0  0  0  0  0
  197.3510  172.7840  145.2560 C   0  0  0  0  0  2  0  0  0  0  0  0
  189.4600  176.2710  143.6960 C   0  0  0  0  0  2  0  0  0  0  0  0
  188.6560  177.3570  144.4050 C   0  0  0  0  0  2  0  0  0  0  0  0
  187.1510  177.0750  144.3930 C   0  0  2  0  0  0  0  0  0  0  0  0
  184.8070  177.8660  143.5250 C   0  0  0  0  0  1  0  0  0  0  0  0
  186.6750  176.2020  143.2450 C   0  0  0  0  0  2  0  0  0  0  0  0
  186.2950  177.6720  143.2840 C   0  0  2  0  0  0  0  0  0  0  0  0
  186.4640  176.7930  145.6530 N   0  0  0  0  0  2  0  0  0  0  0  0
  187.2820  177.2430  146.6980 N   0  0  0  0  0  0  0  0  0  0  0  0
  185.4200  179.0260  147.2880 S   0  0  0  0  0  1  0  0  0  0  0  0
  186.7940  178.2120  147.6170 C   0  0  0  0  0  3  0  0  0  0  0  0
  186.9600  178.4420  142.1540 C   0  0  0  0  0  2  0  0  0  0  0  0
  187.2850  177.5760  141.1130 O   0  0  0  0  0  0  0  0  0  0  0  0
  186.4840  177.9250  140.1290 O   0  0  0  0  0  1  0  0  0  0  0  0
  1 11  1  0  0  0  0
  1  5  1  0  0  0  0
  2  7  1  0  0  0  0
  4 13  1  1  0  0  0
  4  2  1  0  0  0  0
  5  8  1  0  0  0  0
  6  1  2  0  0  0  0
  8 10  2  0  0  0  0
  8  7  1  0  0  0  0
  9  4  1  0  0  0  0
  9  3  1  0  0  0  0
 11 18  1  6  0  0  0
 11  9  1  0  0  0  0
 12 13  2  0  0  0  0
 14 12  1  0  0  0  0
 14 15  1  0  0  0  0
 15 16  1  0  0  0  0
 17 15  1  0  0  0  0
 17 16  1  0  0  0  0
 18 19  1  0  0  0  0
 20 19  1  1  0  0  0
 20 24  1  0  0  0  0
 22 23  1  0  0  0  0
 22 20  1  0  0  0  0
 23 21  1  1  0  0  0
 23 20  1  0  0  0  0
 24 25  1  0  0  0  0
 25 27  2  0  0  0  0
 26 27  1  0  0  0  0
 28 23  1  0  0  0  0
 29 28  1  0  0  0  0
 30 29  1  0  0  0  0
M  END
>  <MODEL>
9

>  <REMARK>
 VINA RESULT:      -5.8      3.053      3.943
  Name = 
  11 active torsions:
  status: ('A' for Active; 'I' for Inactive)
    1  A    between atoms: C_1  and  C_4
    2  A    between atoms: C_1  and  C_22
    3  A    between atoms: C_4  and  N_5
    4  A    between atoms: N_5  and  N_21
    5  A    between atoms: C_10  and  C_25
    6  A    between atoms: C_11  and  C_24
    7  A    between atoms: C_12  and  C_27
    8  A    between atoms: O_13  and  C_27
    9  A    between atoms: C_15  and  C_25
   10  A    between atoms: C_17  and  N_21
   11  A    between atoms: C_22  and  C_29
                            x       y       z     vdW  Elec       q    Type
                         _______ _______ _______ _____ _____    ______ ____

>  <TORSDO>
F 11

$$$$
