=
 OpenBabel11052418503D

 34 38  0  0  1  0  0  0  0  0999 V2000
  190.0540  171.8740  141.4760 C   0  0  0  0  0  0  0  0  0  0  0  0
  189.9740  173.3320  139.4680 C   0  0  0  0  0  3  0  0  0  0  0  0
  189.0790  174.1630  141.6380 N   0  0  0  0  0  0  0  0  0  0  0  0
  187.9210  176.3900  142.0960 C   0  0  2  0  0  3  0  0  0  0  0  0
  190.9110  171.0670  139.3630 C   0  0  0  0  0  3  0  0  0  0  0  0
  191.1810  172.7220  137.5360 O   0  0  0  0  0  1  0  0  0  0  0  0
  187.9120  175.3080  139.9520 O   0  0  0  0  0  0  0  0  0  0  0  0
  189.3080  172.9880  140.7780 C   0  0  0  0  0  0  0  0  0  0  0  0
  190.6400  170.8120  140.6480 C   0  0  0  0  0  2  0  0  0  0  0  0
  189.3080  174.0780  143.0620 C   0  0  0  0  0  0  0  0  0  0  0  0
  190.2100  171.8610  142.7640 N   0  0  0  0  0  0  0  0  0  0  0  0
  190.6630  172.4080  138.7850 C   0  0  0  0  0  0  0  0  0  0  0  0
  188.8800  176.4780  143.1940 N   0  0  0  0  0  2  0  0  0  0  0  0
  188.8680  175.2250  143.9490 C   0  0  2  0  0  3  0  0  0  0  0  0
  188.3230  175.2890  141.1450 C   0  0  0  0  0  0  0  0  0  0  0  0
  189.7930  172.9500  143.5930 C   0  0  0  0  0  3  0  0  0  0  0  0
  191.7520  176.1510  146.2310 C   0  0  0  0  0  0  0  0  0  0  0  0
  191.2970  175.6910  147.4690 C   0  0  0  0  0  3  0  0  0  0  0  0
  189.7070  175.3760  145.1840 C   0  0  0  0  0  0  0  0  0  0  0  0
  190.0470  175.0730  147.5690 C   0  0  0  0  0  3  0  0  0  0  0  0
  190.9590  175.9950  145.0900 C   0  0  0  0  0  3  0  0  0  0  0  0
  189.2530  174.9160  146.4300 C   0  0  0  0  0  3  0  0  0  0  0  0
  192.9630  176.7510  146.1360 F   0  0  0  0  0  0  0  0  0  0  0  0
  187.8500  177.7420  141.4000 C   0  0  0  0  0  2  0  0  0  0  0  0
  186.4690  178.0660  141.0850 N   0  0  0  0  0  2  0  0  0  0  0  0
  185.6920  177.7820  142.2760 C   0  0  0  0  0  2  0  0  0  0  0  0
  185.6890  179.0010  143.1800 C   0  0  0  0  0  2  0  0  0  0  0  0
  183.3080  179.0990  144.6390 F   0  0  0  0  0  0  0  0  0  0  0  0
  185.6000  178.5860  144.6150 C   0  0  0  0  0  0  0  0  0  0  0  0
  184.4330  178.6940  145.2890 C   0  0  0  0  0  0  0  0  0  0  0  0
  185.6310  178.2190  147.4570 C   0  0  0  0  0  2  0  0  0  0  0  0
  186.6520  177.4680  146.6180 C   0  0  0  0  0  2  0  0  0  0  0  0
  186.8870  178.2240  145.3150 C   0  0  0  0  0  2  0  0  0  0  0  0
  184.2940  178.2450  146.7220 C   0  0  0  0  0  2  0  0  0  0  0  0
  1 11  2  0  0  0  0
  2  8  2  0  0  0  0
  3 10  1  0  0  0  0
  4 24  1  6  0  0  0
  4 13  1  0  0  0  0
  5  9  1  0  0  0  0
  6 12  1  0  0  0  0
  7 15  2  0  0  0  0
  8  1  1  0  0  0  0
  8  3  1  0  0  0  0
  9  1  1  0  0  0  0
 10 16  2  0  0  0  0
 10 14  1  0  0  0  0
 11 16  1  0  0  0  0
 12  5  2  0  0  0  0
 12  2  1  0  0  0  0
 13 14  1  0  0  0  0
 14 19  1  1  0  0  0
 15  3  1  0  0  0  0
 15  4  1  0  0  0  0
 17 18  1  0  0  0  0
 18 20  2  0  0  0  0
 19 22  2  0  0  0  0
 21 19  1  0  0  0  0
 21 17  2  0  0  0  0
 22 20  1  0  0  0  0
 23 17  1  0  0  0  0
 25 24  1  0  0  0  0
 25 26  1  0  0  0  0
 26 27  1  0  0  0  0
 27 29  1  0  0  0  0
 28 30  1  0  0  0  0
 29 30  2  0  0  0  0
 29 33  1  0  0  0  0
 30 34  1  0  0  0  0
 32 31  1  0  0  0  0
 33 32  1  0  0  0  0
 34 31  1  0  0  0  0
M  END
>  <MODEL>
1

>  <REMARK>
 VINA RESULT:      -8.4      0.000      0.000
  Name = 
  6 active torsions:
  status: ('A' for Active; 'I' for Inactive)
    1  A    between atoms: C_3  and  C_13
    2  A    between atoms: C_3  and  C_17
    3  A    between atoms: C_5  and  C_18
    4  A    between atoms: C_12  and  C_28
    5  A    between atoms: C_17  and  N_29
    6  A    between atoms: C_18  and  N_29
                            x       y       z     vdW  Elec       q    Type
                         _______ _______ _______ _____ _____    ______ ____

>  <TORSDO>
F 6

$$$$
=
 OpenBabel11052418503D

 34 38  0  0  1  0  0  0  0  0999 V2000
  190.2710  172.0140  140.7040 C   0  0  0  0  0  0  0  0  0  0  0  0
  189.9560  173.5100  138.7490 C   0  0  0  0  0  3  0  0  0  0  0  0
  189.0610  174.1770  140.9750 N   0  0  0  0  0  0  0  0  0  0  0  0
  187.6870  176.2500  141.5450 C   0  0  2  0  0  3  0  0  0  0  0  0
  191.1280  171.3650  138.5370 C   0  0  0  0  0  3  0  0  0  0  0  0
  191.1450  173.0900  136.7560 O   0  0  0  0  0  1  0  0  0  0  0  0
  187.7120  175.2330  139.3690 O   0  0  0  0  0  0  0  0  0  0  0  0
  189.3820  173.0580  140.0700 C   0  0  0  0  0  0  0  0  0  0  0  0
  190.9370  171.0460  139.8220 C   0  0  0  0  0  2  0  0  0  0  0  0
  189.3530  174.0770  142.3860 C   0  0  0  0  0  0  0  0  0  0  0  0
  190.4780  171.9820  141.9850 N   0  0  0  0  0  0  0  0  0  0  0  0
  190.7130  172.6870  138.0120 C   0  0  0  0  0  0  0  0  0  0  0  0
  188.6730  176.4110  142.6110 N   0  0  0  0  0  2  0  0  0  0  0  0
  188.8260  175.1440  143.3250 C   0  0  2  0  0  3  0  0  0  0  0  0
  188.1680  175.2260  140.5460 C   0  0  0  0  0  0  0  0  0  0  0  0
  189.9780  172.9950  142.8630 C   0  0  0  0  0  3  0  0  0  0  0  0
  190.0470  175.0620  146.9140 C   0  0  0  0  0  0  0  0  0  0  0  0
  191.2840  175.7020  146.8110 C   0  0  0  0  0  3  0  0  0  0  0  0
  189.6920  175.3510  144.5330 C   0  0  0  0  0  0  0  0  0  0  0  0
  191.7300  176.1670  145.5700 C   0  0  0  0  0  3  0  0  0  0  0  0
  189.2520  174.8850  145.7780 C   0  0  0  0  0  3  0  0  0  0  0  0
  190.9360  175.9920  144.4330 C   0  0  0  0  0  3  0  0  0  0  0  0
  189.6170  174.6100  148.1170 F   0  0  0  0  0  0  0  0  0  0  0  0
  187.4420  177.6040  140.8970 C   0  0  0  0  0  2  0  0  0  0  0  0
  186.0140  177.8530  140.7890 N   0  0  0  0  0  2  0  0  0  0  0  0
  185.4580  177.6630  142.1140 C   0  0  0  0  0  2  0  0  0  0  0  0
  185.8680  178.8200  143.0060 C   0  0  0  0  0  2  0  0  0  0  0  0
  183.4330  179.1230  144.3430 F   0  0  0  0  0  0  0  0  0  0  0  0
  185.6830  178.4600  144.4460 C   0  0  0  0  0  0  0  0  0  0  0  0
  184.4960  178.6670  145.0590 C   0  0  0  0  0  0  0  0  0  0  0  0
  185.5550  178.1850  147.2970 C   0  0  0  0  0  2  0  0  0  0  0  0
  186.5620  177.3410  146.5320 C   0  0  0  0  0  2  0  0  0  0  0  0
  186.9090  178.0370  145.2200 C   0  0  0  0  0  2  0  0  0  0  0  0
  184.2600  178.2760  146.4960 C   0  0  0  0  0  2  0  0  0  0  0  0
  1 11  2  0  0  0  0
  2  8  2  0  0  0  0
  3 10  1  0  0  0  0
  4 24  1  6  0  0  0
  4 13  1  0  0  0  0
  5  9  1  0  0  0  0
  6 12  1  0  0  0  0
  7 15  2  0  0  0  0
  8  1  1  0  0  0  0
  8  3  1  0  0  0  0
  9  1  1  0  0  0  0
 10 16  2  0  0  0  0
 10 14  1  0  0  0  0
 11 16  1  0  0  0  0
 12  5  2  0  0  0  0
 12  2  1  0  0  0  0
 13 14  1  0  0  0  0
 14 19  1  1  0  0  0
 15  3  1  0  0  0  0
 15  4  1  0  0  0  0
 17 23  1  0  0  0  0
 18 17  1  0  0  0  0
 19 21  1  0  0  0  0
 20 18  2  0  0  0  0
 21 17  2  0  0  0  0
 22 19  2  0  0  0  0
 22 20  1  0  0  0  0
 25 24  1  0  0  0  0
 25 26  1  0  0  0  0
 26 27  1  0  0  0  0
 27 29  1  0  0  0  0
 28 30  1  0  0  0  0
 29 30  2  0  0  0  0
 29 33  1  0  0  0  0
 30 34  1  0  0  0  0
 32 31  1  0  0  0  0
 33 32  1  0  0  0  0
 34 31  1  0  0  0  0
M  END
>  <MODEL>
2

>  <REMARK>
 VINA RESULT:      -8.1      0.969      1.283
  Name = 
  6 active torsions:
  status: ('A' for Active; 'I' for Inactive)
    1  A    between atoms: C_3  and  C_13
    2  A    between atoms: C_3  and  C_17
    3  A    between atoms: C_5  and  C_18
    4  A    between atoms: C_12  and  C_28
    5  A    between atoms: C_17  and  N_29
    6  A    between atoms: C_18  and  N_29
                            x       y       z     vdW  Elec       q    Type
                         _______ _______ _______ _____ _____    ______ ____

>  <TORSDO>
F 6

$$$$
=
 OpenBabel11052418503D

 34 38  0  0  1  0  0  0  0  0999 V2000
  188.6520  174.7230  141.0090 C   0  0  0  0  0  0  0  0  0  0  0  0
  190.2240  173.1060  142.0470 C   0  0  0  0  0  3  0  0  0  0  0  0
  189.6970  175.2410  143.2140 N   0  0  0  0  0  0  0  0  0  0  0  0
  190.6840  176.1070  145.4010 C   0  0  2  0  0  3  0  0  0  0  0  0
  189.1780  172.6530  139.8740 C   0  0  0  0  0  3  0  0  0  0  0  0
  190.4050  170.9260  141.1640 O   0  0  0  0  0  1  0  0  0  0  0  0
  191.8390  174.6010  143.9300 O   0  0  0  0  0  0  0  0  0  0  0  0
  189.8520  174.5620  141.9140 C   0  0  0  0  0  0  0  0  0  0  0  0
  188.5360  173.8260  139.8520 C   0  0  0  0  0  2  0  0  0  0  0  0
  188.6180  176.1800  143.4190 C   0  0  0  0  0  0  0  0  0  0  0  0
  187.7270  175.5990  141.2540 N   0  0  0  0  0  0  0  0  0  0  0  0
  189.9640  172.2380  141.0600 C   0  0  0  0  0  0  0  0  0  0  0  0
  189.2840  176.3110  145.7640 N   0  0  0  0  0  2  0  0  0  0  0  0
  188.6010  177.0180  144.6810 C   0  0  2  0  0  3  0  0  0  0  0  0
  190.7780  175.2410  144.1680 C   0  0  0  0  0  0  0  0  0  0  0  0
  187.7180  176.3840  142.4500 C   0  0  0  0  0  3  0  0  0  0  0  0
  185.3320  178.9160  144.9930 C   0  0  0  0  0  0  0  0  0  0  0  0
  184.6310  178.1290  145.9100 C   0  0  0  0  0  3  0  0  0  0  0  0
  187.2170  177.3970  145.1230 C   0  0  0  0  0  0  0  0  0  0  0  0
  185.2190  176.9750  146.4350 C   0  0  0  0  0  3  0  0  0  0  0  0
  186.6230  178.5500  144.5990 C   0  0  0  0  0  3  0  0  0  0  0  0
  186.5090  176.6080  146.0430 C   0  0  0  0  0  3  0  0  0  0  0  0
  184.7600  180.0340  144.4830 F   0  0  0  0  0  0  0  0  0  0  0  0
  191.4110  175.4890  146.5860 C   0  0  0  0  0  2  0  0  0  0  0  0
  192.2390  176.4890  147.2380 N   0  0  0  0  0  2  0  0  0  0  0  0
  193.4220  176.6510  146.4150 C   0  0  0  0  0  2  0  0  0  0  0  0
  194.2270  175.3650  146.4270 C   0  0  0  0  0  2  0  0  0  0  0  0
  196.5160  173.7620  146.4320 F   0  0  0  0  0  0  0  0  0  0  0  0
  195.2120  175.3540  145.3010 C   0  0  0  0  0  0  0  0  0  0  0  0
  196.3270  174.5930  145.3720 C   0  0  0  0  0  0  0  0  0  0  0  0
  197.2570  175.7480  143.3310 C   0  0  0  0  0  2  0  0  0  0  0  0
  195.8130  176.0100  142.9380 C   0  0  0  0  0  2  0  0  0  0  0  0
  195.0050  176.3510  144.1860 C   0  0  0  0  0  2  0  0  0  0  0  0
  197.3200  174.5230  144.2380 C   0  0  0  0  0  2  0  0  0  0  0  0
  1 11  2  0  0  0  0
  1  8  1  0  0  0  0
  3 10  1  0  0  0  0
  3 15  1  0  0  0  0
  4 13  1  0  0  0  0
  4 24  1  1  0  0  0
  5 12  2  0  0  0  0
  7 15  2  0  0  0  0
  8  2  2  0  0  0  0
  8  3  1  0  0  0  0
  9  5  1  0  0  0  0
  9  1  1  0  0  0  0
 10 14  1  0  0  0  0
 11 16  1  0  0  0  0
 12  6  1  0  0  0  0
 12  2  1  0  0  0  0
 14 19  1  1  0  0  0
 14 13  1  0  0  0  0
 15  4  1  0  0  0  0
 16 10  2  0  0  0  0
 17 18  1  0  0  0  0
 18 20  2  0  0  0  0
 19 22  2  0  0  0  0
 21 17  2  0  0  0  0
 21 19  1  0  0  0  0
 22 20  1  0  0  0  0
 23 17  1  0  0  0  0
 24 25  1  0  0  0  0
 26 27  1  0  0  0  0
 26 25  1  0  0  0  0
 29 30  2  0  0  0  0
 29 27  1  0  0  0  0
 30 28  1  0  0  0  0
 31 34  1  0  0  0  0
 32 31  1  0  0  0  0
 32 33  1  0  0  0  0
 33 29  1  0  0  0  0
 34 30  1  0  0  0  0
M  END
>  <MODEL>
3

>  <REMARK>
 VINA RESULT:      -7.9      2.977      7.126
  Name = 
  6 active torsions:
  status: ('A' for Active; 'I' for Inactive)
    1  A    between atoms: C_3  and  C_13
    2  A    between atoms: C_3  and  C_17
    3  A    between atoms: C_5  and  C_18
    4  A    between atoms: C_12  and  C_28
    5  A    between atoms: C_17  and  N_29
    6  A    between atoms: C_18  and  N_29
                            x       y       z     vdW  Elec       q    Type
                         _______ _______ _______ _____ _____    ______ ____

>  <TORSDO>
F 6

$$$$
=
 OpenBabel11052418503D

 34 38  0  0  1  0  0  0  0  0999 V2000
  194.8020  175.5260  143.2550 C   0  0  0  0  0  0  0  0  0  0  0  0
  194.9420  174.8840  145.6490 C   0  0  0  0  0  3  0  0  0  0  0  0
  192.7530  175.5630  144.6750 N   0  0  0  0  0  0  0  0  0  0  0  0
  190.5200  175.8160  145.8840 C   0  0  2  0  0  3  0  0  0  0  0  0
  196.9280  174.8770  144.2090 C   0  0  0  0  0  3  0  0  0  0  0  0
  196.8980  173.8520  146.4670 O   0  0  0  0  0  1  0  0  0  0  0  0
  192.6500  176.0680  146.9660 O   0  0  0  0  0  0  0  0  0  0  0  0
  194.2170  175.7330  144.6330 C   0  0  0  0  0  0  0  0  0  0  0  0
  196.2530  175.3250  143.1450 C   0  0  0  0  0  2  0  0  0  0  0  0
  191.9930  175.4980  143.4490 C   0  0  0  0  0  0  0  0  0  0  0  0
  194.0540  175.4890  142.1960 N   0  0  0  0  0  0  0  0  0  0  0  0
  196.2260  174.5480  145.4720 C   0  0  0  0  0  0  0  0  0  0  0  0
  190.0190  174.9870  144.7910 N   0  0  0  0  0  2  0  0  0  0  0  0
  190.4800  175.5360  143.5160 C   0  0  2  0  0  3  0  0  0  0  0  0
  192.0300  175.7920  145.9030 C   0  0  0  0  0  0  0  0  0  0  0  0
  192.6260  175.5240  142.2700 C   0  0  0  0  0  3  0  0  0  0  0  0
  189.4960  172.7490  141.1400 C   0  0  0  0  0  0  0  0  0  0  0  0
  188.5880  173.3970  140.2990 C   0  0  0  0  0  3  0  0  0  0  0  0
  189.8170  174.8040  142.3860 C   0  0  0  0  0  0  0  0  0  0  0  0
  188.2910  174.7480  140.4980 C   0  0  0  0  0  3  0  0  0  0  0  0
  190.1090  173.4500  142.1830 C   0  0  0  0  0  3  0  0  0  0  0  0
  188.9040  175.4510  141.5400 C   0  0  0  0  0  3  0  0  0  0  0  0
  189.7810  171.4380  140.9470 F   0  0  0  0  0  0  0  0  0  0  0  0
  189.9290  175.3120  147.1920 C   0  0  0  0  0  2  0  0  0  0  0  0
  188.4780  175.3150  147.1160 N   0  0  0  0  0  2  0  0  0  0  0  0
  188.0720  176.6990  146.9630 C   0  0  0  0  0  2  0  0  0  0  0  0
  186.5900  176.7600  146.6440 C   0  0  0  0  0  2  0  0  0  0  0  0
  185.4960  179.3240  146.8360 F   0  0  0  0  0  0  0  0  0  0  0  0
  186.3480  177.6300  145.4510 C   0  0  0  0  0  0  0  0  0  0  0  0
  185.7760  178.8460  145.5930 C   0  0  0  0  0  0  0  0  0  0  0  0
  185.4990  179.0190  143.0920 C   0  0  0  0  0  2  0  0  0  0  0  0
  186.6900  178.0800  142.9900 C   0  0  0  0  0  2  0  0  0  0  0  0
  186.5960  177.0270  144.0890 C   0  0  0  0  0  2  0  0  0  0  0  0
  185.5570  179.7680  144.4190 C   0  0  0  0  0  2  0  0  0  0  0  0
  1  8  1  0  0  0  0
  3 15  1  0  0  0  0
  4 15  1  0  0  0  0
  4 24  1  1  0  0  0
  5 12  2  0  0  0  0
  8  3  1  0  0  0  0
  8  2  2  0  0  0  0
  9  1  1  0  0  0  0
  9  5  1  0  0  0  0
 10 14  1  0  0  0  0
 10  3  1  0  0  0  0
 11 16  1  0  0  0  0
 11  1  2  0  0  0  0
 12  2  1  0  0  0  0
 12  6  1  0  0  0  0
 13  4  1  0  0  0  0
 14 19  1  6  0  0  0
 14 13  1  0  0  0  0
 15  7  2  0  0  0  0
 16 10  2  0  0  0  0
 17 21  1  0  0  0  0
 18 20  1  0  0  0  0
 18 17  2  0  0  0  0
 20 22  2  0  0  0  0
 21 19  2  0  0  0  0
 22 19  1  0  0  0  0
 23 17  1  0  0  0  0
 25 24  1  0  0  0  0
 26 25  1  0  0  0  0
 27 26  1  0  0  0  0
 29 30  2  0  0  0  0
 29 27  1  0  0  0  0
 30 28  1  0  0  0  0
 31 34  1  0  0  0  0
 32 31  1  0  0  0  0
 32 33  1  0  0  0  0
 33 29  1  0  0  0  0
 34 30  1  0  0  0  0
M  END
>  <MODEL>
4

>  <REMARK>
 VINA RESULT:      -7.8      3.796      5.856
  Name = 
  6 active torsions:
  status: ('A' for Active; 'I' for Inactive)
    1  A    between atoms: C_3  and  C_13
    2  A    between atoms: C_3  and  C_17
    3  A    between atoms: C_5  and  C_18
    4  A    between atoms: C_12  and  C_28
    5  A    between atoms: C_17  and  N_29
    6  A    between atoms: C_18  and  N_29
                            x       y       z     vdW  Elec       q    Type
                         _______ _______ _______ _____ _____    ______ ____

>  <TORSDO>
F 6

$$$$
=
 OpenBabel11052418503D

 34 38  0  0  1  0  0  0  0  0999 V2000
  188.6360  174.5770  140.9950 C   0  0  0  0  0  0  0  0  0  0  0  0
  190.4900  173.1970  141.9030 C   0  0  0  0  0  3  0  0  0  0  0  0
  189.9070  175.3600  142.9910 N   0  0  0  0  0  0  0  0  0  0  0  0
  191.0850  176.4820  144.9570 C   0  0  2  0  0  3  0  0  0  0  0  0
  189.2140  172.4810  139.9340 C   0  0  0  0  0  3  0  0  0  0  0  0
  190.7720  170.9820  141.1470 O   0  0  0  0  0  1  0  0  0  0  0  0
  192.1810  174.9780  143.4390 O   0  0  0  0  0  0  0  0  0  0  0  0
  189.9560  174.5990  141.7300 C   0  0  0  0  0  0  0  0  0  0  0  0
  188.4580  173.5850  139.9250 C   0  0  0  0  0  2  0  0  0  0  0  0
  188.7760  176.2090  143.2850 C   0  0  0  0  0  0  0  0  0  0  0  0
  187.6670  175.3800  141.3100 N   0  0  0  0  0  0  0  0  0  0  0  0
  190.1900  172.2350  141.0210 C   0  0  0  0  0  0  0  0  0  0  0  0
  189.7330  176.5840  145.5000 N   0  0  0  0  0  2  0  0  0  0  0  0
  188.8420  177.1380  144.4800 C   0  0  2  0  0  3  0  0  0  0  0  0
  191.1010  175.5350  143.7820 C   0  0  0  0  0  0  0  0  0  0  0  0
  187.7380  176.2520  142.4410 C   0  0  0  0  0  3  0  0  0  0  0  0
  185.4940  178.7820  145.1650 C   0  0  0  0  0  0  0  0  0  0  0  0
  184.9800  177.9720  146.1820 C   0  0  0  0  0  3  0  0  0  0  0  0
  187.4990  177.4210  145.0870 C   0  0  0  0  0  0  0  0  0  0  0  0
  185.7220  176.8860  146.6530 C   0  0  0  0  0  3  0  0  0  0  0  0
  186.7500  178.5060  144.6180 C   0  0  0  0  0  3  0  0  0  0  0  0
  186.9790  176.6090  146.1070 C   0  0  0  0  0  3  0  0  0  0  0  0
  184.7730  179.8340  144.7090 F   0  0  0  0  0  0  0  0  0  0  0  0
  192.0230  176.0280  146.0650 C   0  0  0  0  0  2  0  0  0  0  0  0
  193.3000  176.7120  145.9470 N   0  0  0  0  0  2  0  0  0  0  0  0
  194.3060  175.8090  146.4740 C   0  0  0  0  0  2  0  0  0  0  0  0
  195.1410  175.2610  145.3320 C   0  0  0  0  0  2  0  0  0  0  0  0
  197.6460  174.1560  145.8910 F   0  0  0  0  0  0  0  0  0  0  0  0
  195.3590  173.7910  145.5030 C   0  0  0  0  0  0  0  0  0  0  0  0
  196.5990  173.3020  145.7300 C   0  0  0  0  0  0  0  0  0  0  0  0
  195.7550  170.9560  145.3510 C   0  0  0  0  0  2  0  0  0  0  0  0
  194.3970  171.4750  145.7930 C   0  0  0  0  0  2  0  0  0  0  0  0
  194.1870  172.8780  145.2330 C   0  0  0  0  0  2  0  0  0  0  0  0
  196.8500  171.8310  145.9510 C   0  0  0  0  0  2  0  0  0  0  0  0
  1 11  2  0  0  0  0
  1  8  1  0  0  0  0
  3 10  1  0  0  0  0
  3 15  1  0  0  0  0
  4 13  1  0  0  0  0
  4 24  1  1  0  0  0
  5 12  2  0  0  0  0
  7 15  2  0  0  0  0
  8  2  2  0  0  0  0
  8  3  1  0  0  0  0
  9  5  1  0  0  0  0
  9  1  1  0  0  0  0
 10 14  1  0  0  0  0
 11 16  1  0  0  0  0
 12  6  1  0  0  0  0
 12  2  1  0  0  0  0
 14 19  1  1  0  0  0
 14 13  1  0  0  0  0
 15  4  1  0  0  0  0
 16 10  2  0  0  0  0
 17 18  1  0  0  0  0
 18 20  2  0  0  0  0
 19 22  2  0  0  0  0
 21 19  1  0  0  0  0
 21 17  2  0  0  0  0
 22 20  1  0  0  0  0
 23 17  1  0  0  0  0
 25 24  1  0  0  0  0
 25 26  1  0  0  0  0
 27 29  1  0  0  0  0
 27 26  1  0  0  0  0
 29 30  2  0  0  0  0
 30 28  1  0  0  0  0
 30 34  1  0  0  0  0
 31 32  1  0  0  0  0
 31 34  1  0  0  0  0
 33 29  1  0  0  0  0
 33 32  1  0  0  0  0
M  END
>  <MODEL>
5

>  <REMARK>
 VINA RESULT:      -7.6      3.174      7.275
  Name = 
  6 active torsions:
  status: ('A' for Active; 'I' for Inactive)
    1  A    between atoms: C_3  and  C_13
    2  A    between atoms: C_3  and  C_17
    3  A    between atoms: C_5  and  C_18
    4  A    between atoms: C_12  and  C_28
    5  A    between atoms: C_17  and  N_29
    6  A    between atoms: C_18  and  N_29
                            x       y       z     vdW  Elec       q    Type
                         _______ _______ _______ _____ _____    ______ ____

>  <TORSDO>
F 6

$$$$
=
 OpenBabel11052418503D

 34 38  0  0  1  0  0  0  0  0999 V2000
  191.3460  176.2010  146.5960 C   0  0  0  0  0  0  0  0  0  0  0  0
  192.5290  176.0240  144.4210 C   0  0  0  0  0  3  0  0  0  0  0  0
  190.0690  175.6580  144.5250 N   0  0  0  0  0  0  0  0  0  0  0  0
  188.5120  174.9780  142.6210 C   0  0  2  0  0  3  0  0  0  0  0  0
  193.7380  176.5440  146.4920 C   0  0  0  0  0  3  0  0  0  0  0  0
  194.7600  176.7700  144.2430 O   0  0  0  0  0  1  0  0  0  0  0  0
  190.8500  174.4280  142.6840 O   0  0  0  0  0  0  0  0  0  0  0  0
  191.3550  175.5420  145.2360 C   0  0  2  0  0  3  0  0  0  0  0  0
  192.6380  176.4560  147.2470 C   0  0  0  0  0  3  0  0  0  0  0  0
  188.8880  176.1080  145.2250 C   0  0  0  0  0  0  0  0  0  0  0  0
  190.2410  176.5690  147.1680 N   0  0  0  0  0  0  0  0  0  0  0  0
  193.6600  176.4260  145.0170 C   0  0  0  0  0  0  0  0  0  0  0  0
  187.7140  176.1100  143.0850 N   0  0  0  0  0  2  0  0  0  0  0  0
  187.5430  176.0200  144.5340 C   0  0  2  0  0  3  0  0  0  0  0  0
  189.8880  175.0250  143.2410 C   0  0  0  0  0  0  0  0  0  0  0  0
  188.9760  176.4830  146.5060 C   0  0  0  0  0  3  0  0  0  0  0  0
  185.6810  179.3140  144.7820 C   0  0  0  0  0  0  0  0  0  0  0  0
  184.7630  179.0490  145.8010 C   0  0  0  0  0  3  0  0  0  0  0  0
  186.5710  177.0690  144.9910 C   0  0  0  0  0  0  0  0  0  0  0  0
  184.7450  177.7940  146.4170 C   0  0  0  0  0  3  0  0  0  0  0  0
  186.5830  178.3260  144.3760 C   0  0  0  0  0  3  0  0  0  0  0  0
  185.6460  176.8050  146.0130 C   0  0  0  0  0  3  0  0  0  0  0  0
  185.6970  180.5310  144.1850 F   0  0  0  0  0  0  0  0  0  0  0  0
  188.5740  175.0130  141.1010 C   0  0  0  0  0  2  0  0  0  0  0  0
  188.2110  173.7150  140.5580 N   0  0  0  0  0  2  0  0  0  0  0  0
  188.6170  173.7180  139.1660 C   0  0  0  0  0  2  0  0  0  0  0  0
  190.0790  173.3230  139.0640 C   0  0  0  0  0  2  0  0  0  0  0  0
  190.9580  171.6880  141.1530 F   0  0  0  0  0  0  0  0  0  0  0  0
  190.2100  171.8380  138.9320 C   0  0  0  0  0  0  0  0  0  0  0  0
  190.6820  171.0970  139.9590 C   0  0  0  0  0  0  0  0  0  0  0  0
  190.8670  169.0920  138.4390 C   0  0  0  0  0  2  0  0  0  0  0  0
  189.7570  169.7290  137.6200 C   0  0  0  0  0  2  0  0  0  0  0  0
  189.9730  171.2380  137.5670 C   0  0  0  0  0  2  0  0  0  0  0  0
  190.7870  169.5940  139.8770 C   0  0  0  0  0  2  0  0  0  0  0  0
  1 11  2  0  0  0  0
  1  9  1  0  0  0  0
  2 12  2  0  0  0  0
  3 10  1  0  0  0  0
  3  8  1  0  0  0  0
  4 24  1  6  0  0  0
  4 13  1  0  0  0  0
  4 15  1  0  0  0  0
  5  9  2  0  0  0  0
  6 12  1  0  0  0  0
  7 15  2  0  0  0  0
  8  2  1  6  0  0  0
  8  1  1  0  0  0  0
 10 16  2  0  0  0  0
 12  5  1  0  0  0  0
 13 14  1  0  0  0  0
 14 19  1  1  0  0  0
 14 10  1  0  0  0  0
 15  3  1  0  0  0  0
 16 11  1  0  0  0  0
 17 18  1  0  0  0  0
 18 20  2  0  0  0  0
 19 22  2  0  0  0  0
 21 17  2  0  0  0  0
 21 19  1  0  0  0  0
 22 20  1  0  0  0  0
 23 17  1  0  0  0  0
 25 24  1  0  0  0  0
 26 25  1  0  0  0  0
 27 26  1  0  0  0  0
 29 27  1  0  0  0  0
 29 30  2  0  0  0  0
 30 28  1  0  0  0  0
 31 34  1  0  0  0  0
 32 31  1  0  0  0  0
 33 32  1  0  0  0  0
 33 29  1  0  0  0  0
 34 30  1  0  0  0  0
M  END
>  <MODEL>
6

>  <REMARK>
 VINA RESULT:      -7.6      2.554      7.500
  Name = 
  6 active torsions:
  status: ('A' for Active; 'I' for Inactive)
    1  A    between atoms: C_3  and  C_13
    2  A    between atoms: C_3  and  C_17
    3  A    between atoms: C_5  and  C_18
    4  A    between atoms: C_12  and  C_28
    5  A    between atoms: C_17  and  N_29
    6  A    between atoms: C_18  and  N_29
                            x       y       z     vdW  Elec       q    Type
                         _______ _______ _______ _____ _____    ______ ____

>  <TORSDO>
F 6

$$$$
=
 OpenBabel11052418503D

 34 38  0  0  1  0  0  0  0  0999 V2000
  191.5370  176.3720  146.6770 C   0  0  0  0  0  0  0  0  0  0  0  0
  192.7000  176.1000  144.5010 C   0  0  0  0  0  3  0  0  0  0  0  0
  190.2480  175.6930  144.6540 N   0  0  0  0  0  0  0  0  0  0  0  0
  188.6850  174.8800  142.8080 C   0  0  2  0  0  3  0  0  0  0  0  0
  193.9200  176.7540  146.5260 C   0  0  0  0  0  3  0  0  0  0  0  0
  194.9130  176.8770  144.2570 O   0  0  0  0  0  1  0  0  0  0  0  0
  191.0330  174.3790  142.8740 O   0  0  0  0  0  0  0  0  0  0  0  0
  191.5440  175.6400  145.3560 C   0  0  2  0  0  3  0  0  0  0  0  0
  192.8300  176.6870  147.2990 C   0  0  0  0  0  3  0  0  0  0  0  0
  189.0660  176.1570  145.3430 C   0  0  0  0  0  0  0  0  0  0  0  0
  190.4310  176.7490  147.2420 N   0  0  0  0  0  0  0  0  0  0  0  0
  193.8290  176.5540  145.0610 C   0  0  0  0  0  0  0  0  0  0  0  0
  187.8700  176.0200  143.2190 N   0  0  0  0  0  2  0  0  0  0  0  0
  187.7160  176.0060  144.6740 C   0  0  2  0  0  3  0  0  0  0  0  0
  190.0660  174.9870  143.4090 C   0  0  0  0  0  0  0  0  0  0  0  0
  189.1600  176.6040  146.6010 C   0  0  0  0  0  3  0  0  0  0  0  0
  185.7860  179.2700  144.7580 C   0  0  0  0  0  0  0  0  0  0  0  0
  184.8900  179.0450  145.8060 C   0  0  0  0  0  3  0  0  0  0  0  0
  186.7280  177.0590  145.0840 C   0  0  0  0  0  0  0  0  0  0  0  0
  184.9090  177.8290  146.4950 C   0  0  0  0  0  3  0  0  0  0  0  0
  186.7030  178.2780  144.3960 C   0  0  0  0  0  3  0  0  0  0  0  0
  185.8260  176.8370  146.1350 C   0  0  0  0  0  3  0  0  0  0  0  0
  185.7660  180.4480  144.0900 F   0  0  0  0  0  0  0  0  0  0  0  0
  188.7300  174.8330  141.2880 C   0  0  0  0  0  2  0  0  0  0  0  0
  188.0840  173.6230  140.8080 N   0  0  0  0  0  2  0  0  0  0  0  0
  189.1360  172.6490  140.5890 C   0  0  0  0  0  2  0  0  0  0  0  0
  190.1440  173.2070  139.6020 C   0  0  0  0  0  2  0  0  0  0  0  0
  190.4520  174.3380  137.0650 F   0  0  0  0  0  0  0  0  0  0  0  0
  190.1520  172.3930  138.3470 C   0  0  0  0  0  0  0  0  0  0  0  0
  190.2600  172.9930  137.1400 C   0  0  0  0  0  0  0  0  0  0  0  0
  189.6890  170.8180  135.9970 C   0  0  0  0  0  2  0  0  0  0  0  0
  190.2540  170.1310  137.2300 C   0  0  0  0  0  2  0  0  0  0  0  0
  189.8530  170.9180  138.4730 C   0  0  0  0  0  2  0  0  0  0  0  0
  190.3160  172.2020  135.8570 C   0  0  0  0  0  2  0  0  0  0  0  0
  1 11  2  0  0  0  0
  1  9  1  0  0  0  0
  2 12  2  0  0  0  0
  3 10  1  0  0  0  0
  3  8  1  0  0  0  0
  4 24  1  6  0  0  0
  4 13  1  0  0  0  0
  4 15  1  0  0  0  0
  5  9  2  0  0  0  0
  6 12  1  0  0  0  0
  7 15  2  0  0  0  0
  8  2  1  6  0  0  0
  8  1  1  0  0  0  0
 10 16  2  0  0  0  0
 12  5  1  0  0  0  0
 13 14  1  0  0  0  0
 14 19  1  6  0  0  0
 14 10  1  0  0  0  0
 15  3  1  0  0  0  0
 16 11  1  0  0  0  0
 17 18  1  0  0  0  0
 18 20  2  0  0  0  0
 19 22  2  0  0  0  0
 21 17  2  0  0  0  0
 21 19  1  0  0  0  0
 22 20  1  0  0  0  0
 23 17  1  0  0  0  0
 25 24  1  0  0  0  0
 26 25  1  0  0  0  0
 27 26  1  0  0  0  0
 28 30  1  0  0  0  0
 29 33  1  0  0  0  0
 29 27  1  0  0  0  0
 30 29  2  0  0  0  0
 31 32  1  0  0  0  0
 32 33  1  0  0  0  0
 34 31  1  0  0  0  0
 34 30  1  0  0  0  0
M  END
>  <MODEL>
7

>  <REMARK>
 VINA RESULT:      -7.4      2.883      7.637
  Name = 
  6 active torsions:
  status: ('A' for Active; 'I' for Inactive)
    1  A    between atoms: C_3  and  C_13
    2  A    between atoms: C_3  and  C_17
    3  A    between atoms: C_5  and  C_18
    4  A    between atoms: C_12  and  C_28
    5  A    between atoms: C_17  and  N_29
    6  A    between atoms: C_18  and  N_29
                            x       y       z     vdW  Elec       q    Type
                         _______ _______ _______ _____ _____    ______ ____

>  <TORSDO>
F 6

$$$$
=
 OpenBabel11052418503D

 34 38  0  0  1  0  0  0  0  0999 V2000
  193.4500  175.4870  144.2140 C   0  0  0  0  0  0  0  0  0  0  0  0
  191.5770  176.3140  145.6180 C   0  0  0  0  0  3  0  0  0  0  0  0
  191.1360  175.5550  143.2880 N   0  0  0  0  0  0  0  0  0  0  0  0
  188.9210  175.6120  142.0230 C   0  0  2  0  0  3  0  0  0  0  0  0
  193.8750  176.2380  146.4740 C   0  0  0  0  0  3  0  0  0  0  0  0
  191.9090  176.6370  147.9310 O   0  0  0  0  0  1  0  0  0  0  0  0
  189.4700  177.1260  143.8050 O   0  0  0  0  0  0  0  0  0  0  0  0
  192.1050  176.1750  144.2110 C   0  0  2  0  0  3  0  0  0  0  0  0
  194.3730  175.7810  145.3190 C   0  0  0  0  0  3  0  0  0  0  0  0
  191.5790  174.5860  142.3120 C   0  0  0  0  0  0  0  0  0  0  0  0
  193.7810  174.6340  143.2950 N   0  0  0  0  0  0  0  0  0  0  0  0
  192.4160  176.4100  146.6590 C   0  0  0  0  0  0  0  0  0  0  0  0
  189.2360  174.2160  141.7330 N   0  0  0  0  0  2  0  0  0  0  0  0
  190.6110  174.1220  141.2430 C   0  0  2  0  0  3  0  0  0  0  0  0
  189.8240  176.1310  143.1160 C   0  0  0  0  0  0  0  0  0  0  0  0
  192.8600  174.2000  142.2900 C   0  0  0  0  0  3  0  0  0  0  0  0
  190.7970  170.3350  141.1680 C   0  0  0  0  0  0  0  0  0  0  0  0
  191.3490  170.1000  139.9060 C   0  0  0  0  0  3  0  0  0  0  0  0
  190.8800  172.7240  140.7660 C   0  0  0  0  0  0  0  0  0  0  0  0
  191.6660  171.1750  139.0710 C   0  0  0  0  0  3  0  0  0  0  0  0
  190.5620  171.6450  141.5980 C   0  0  0  0  0  3  0  0  0  0  0  0
  191.4320  172.4850  139.4980 C   0  0  0  0  0  3  0  0  0  0  0  0
  190.4890  169.2920  141.9770 F   0  0  0  0  0  0  0  0  0  0  0  0
  187.4520  175.7110  142.4070 C   0  0  0  0  0  2  0  0  0  0  0  0
  186.8170  176.7910  141.6710 N   0  0  0  0  0  2  0  0  0  0  0  0
  185.7130  177.2590  142.4870 C   0  0  0  0  0  2  0  0  0  0  0  0
  186.1720  178.4290  143.3370 C   0  0  0  0  0  2  0  0  0  0  0  0
  183.6510  179.1030  144.3360 F   0  0  0  0  0  0  0  0  0  0  0  0
  185.7840  178.2200  144.7670 C   0  0  0  0  0  0  0  0  0  0  0  0
  184.5660  178.6040  145.2100 C   0  0  0  0  0  0  0  0  0  0  0  0
  185.3010  178.2150  147.5920 C   0  0  0  0  0  2  0  0  0  0  0  0
  186.2840  177.2060  147.0240 C   0  0  0  0  0  2  0  0  0  0  0  0
  186.8560  177.7420  145.7160 C   0  0  0  0  0  2  0  0  0  0  0  0
  184.1240  178.3690  146.6330 C   0  0  0  0  0  2  0  0  0  0  0  0
  1  9  1  0  0  0  0
  2 12  2  0  0  0  0
  3  8  1  0  0  0  0
  4 24  1  1  0  0  0
  4 15  1  0  0  0  0
  5 12  1  0  0  0  0
  8  1  1  0  0  0  0
  8  2  1  1  0  0  0
  9  5  2  0  0  0  0
 10  3  1  0  0  0  0
 11  1  2  0  0  0  0
 12  6  1  0  0  0  0
 13  4  1  0  0  0  0
 14 19  1  1  0  0  0
 14 13  1  0  0  0  0
 14 10  1  0  0  0  0
 15  3  1  0  0  0  0
 15  7  2  0  0  0  0
 16 10  2  0  0  0  0
 16 11  1  0  0  0  0
 17 21  1  0  0  0  0
 17 23  1  0  0  0  0
 18 17  2  0  0  0  0
 19 21  2  0  0  0  0
 20 22  2  0  0  0  0
 20 18  1  0  0  0  0
 22 19  1  0  0  0  0
 25 24  1  0  0  0  0
 25 26  1  0  0  0  0
 26 27  1  0  0  0  0
 27 29  1  0  0  0  0
 28 30  1  0  0  0  0
 29 30  2  0  0  0  0
 29 33  1  0  0  0  0
 30 34  1  0  0  0  0
 32 31  1  0  0  0  0
 33 32  1  0  0  0  0
 34 31  1  0  0  0  0
M  END
>  <MODEL>
8

>  <REMARK>
 VINA RESULT:      -7.4      2.804      5.435
  Name = 
  6 active torsions:
  status: ('A' for Active; 'I' for Inactive)
    1  A    between atoms: C_3  and  C_13
    2  A    between atoms: C_3  and  C_17
    3  A    between atoms: C_5  and  C_18
    4  A    between atoms: C_12  and  C_28
    5  A    between atoms: C_17  and  N_29
    6  A    between atoms: C_18  and  N_29
                            x       y       z     vdW  Elec       q    Type
                         _______ _______ _______ _____ _____    ______ ____

>  <TORSDO>
F 6

$$$$
=
 OpenBabel11052418503D

 34 38  0  0  1  0  0  0  0  0999 V2000
  189.4450  173.5750  140.5970 C   0  0  0  0  0  0  0  0  0  0  0  0
  191.4480  172.9090  141.9030 C   0  0  0  0  0  3  0  0  0  0  0  0
  190.5130  175.2030  142.1540 N   0  0  0  0  0  0  0  0  0  0  0  0
  191.4400  177.1180  143.5630 C   0  0  2  0  0  3  0  0  0  0  0  0
  190.3640  171.3520  140.3480 C   0  0  0  0  0  3  0  0  0  0  0  0
  192.0830  170.6390  141.9870 O   0  0  0  0  0  1  0  0  0  0  0  0
  192.8010  175.3540  142.6640 O   0  0  0  0  0  0  0  0  0  0  0  0
  190.7200  174.0580  141.2490 C   0  0  0  0  0  0  0  0  0  0  0  0
  189.4540  172.2520  139.9590 C   0  0  0  0  0  2  0  0  0  0  0  0
  189.2590  175.9190  142.1460 C   0  0  0  0  0  0  0  0  0  0  0  0
  188.3570  174.2810  140.6230 N   0  0  0  0  0  0  0  0  0  0  0  0
  191.3260  171.6610  141.4310 C   0  0  0  0  0  0  0  0  0  0  0  0
  190.0690  177.2010  144.0590 N   0  0  0  0  0  2  0  0  0  0  0  0
  189.1440  177.2120  142.9270 C   0  0  2  0  0  3  0  0  0  0  0  0
  191.6390  175.8270  142.8060 C   0  0  0  0  0  0  0  0  0  0  0  0
  188.2570  175.5010  141.3640 C   0  0  0  0  0  3  0  0  0  0  0  0
  185.9760  177.0300  145.0050 C   0  0  0  0  0  0  0  0  0  0  0  0
  185.1680  177.9820  144.3790 C   0  0  0  0  0  3  0  0  0  0  0  0
  187.7520  177.4870  143.4190 C   0  0  0  0  0  0  0  0  0  0  0  0
  185.6480  178.6900  143.2730 C   0  0  0  0  0  3  0  0  0  0  0  0
  187.2670  176.7830  144.5270 C   0  0  0  0  0  3  0  0  0  0  0  0
  186.9380  178.4440  142.7930 C   0  0  0  0  0  3  0  0  0  0  0  0
  185.5100  176.3460  146.0770 F   0  0  0  0  0  0  0  0  0  0  0  0
  192.3950  177.2380  144.7410 C   0  0  0  0  0  2  0  0  0  0  0  0
  191.8020  176.6400  145.9250 N   0  0  0  0  0  2  0  0  0  0  0  0
  192.8430  175.8580  146.5630 C   0  0  0  0  0  2  0  0  0  0  0  0
  192.7730  174.4250  146.0700 C   0  0  0  0  0  2  0  0  0  0  0  0
  193.2530  171.8000  145.2410 F   0  0  0  0  0  0  0  0  0  0  0  0
  194.1440  173.9070  145.7700 C   0  0  0  0  0  0  0  0  0  0  0  0
  194.3280  172.6160  145.4150 C   0  0  0  0  0  0  0  0  0  0  0  0
  196.8220  172.8890  145.6730 C   0  0  0  0  0  2  0  0  0  0  0  0
  196.5960  174.3620  145.3760 C   0  0  0  0  0  2  0  0  0  0  0  0
  195.3110  174.8220  146.0560 C   0  0  0  0  0  2  0  0  0  0  0  0
  195.6890  172.0700  145.0620 C   0  0  0  0  0  2  0  0  0  0  0  0
  1 11  2  0  0  0  0
  1  8  1  0  0  0  0
  3 15  1  0  0  0  0
  4 13  1  0  0  0  0
  4 24  1  1  0  0  0
  5 12  2  0  0  0  0
  7 15  2  0  0  0  0
  8  2  2  0  0  0  0
  8  3  1  0  0  0  0
  9  5  1  0  0  0  0
  9  1  1  0  0  0  0
 10  3  1  0  0  0  0
 10 14  1  0  0  0  0
 11 16  1  0  0  0  0
 12  2  1  0  0  0  0
 12  6  1  0  0  0  0
 14 19  1  1  0  0  0
 14 13  1  0  0  0  0
 15  4  1  0  0  0  0
 16 10  2  0  0  0  0
 17 23  1  0  0  0  0
 18 17  2  0  0  0  0
 19 21  2  0  0  0  0
 20 18  1  0  0  0  0
 21 17  1  0  0  0  0
 22 20  2  0  0  0  0
 22 19  1  0  0  0  0
 24 25  1  0  0  0  0
 25 26  1  0  0  0  0
 27 26  1  0  0  0  0
 28 30  1  0  0  0  0
 29 33  1  0  0  0  0
 29 27  1  0  0  0  0
 30 29  2  0  0  0  0
 32 31  1  0  0  0  0
 32 33  1  0  0  0  0
 34 30  1  0  0  0  0
 34 31  1  0  0  0  0
M  END
>  <MODEL>
9

>  <REMARK>
 VINA RESULT:      -7.4      3.007      6.756
  Name = 
  6 active torsions:
  status: ('A' for Active; 'I' for Inactive)
    1  A    between atoms: C_3  and  C_13
    2  A    between atoms: C_3  and  C_17
    3  A    between atoms: C_5  and  C_18
    4  A    between atoms: C_12  and  C_28
    5  A    between atoms: C_17  and  N_29
    6  A    between atoms: C_18  and  N_29
                            x       y       z     vdW  Elec       q    Type
                         _______ _______ _______ _____ _____    ______ ____

>  <TORSDO>
F 6

$$$$
