=
 OpenBabel11052419403D

 55 60  0  0  1  0  0  0  0  0999 V2000
  189.9630  175.3820  145.2010 C   0  0  1  0  0  3  0  0  0  0  0  0
  186.4300  177.8460  145.2300 C   0  0  0  0  0  3  0  0  0  0  0  0
  188.7470  176.2660  145.2040 C   0  0  0  0  0  0  0  0  0  0  0  0
  187.8280  176.1530  146.2530 C   0  0  0  0  0  3  0  0  0  0  0  0
  187.3400  177.9580  144.1750 C   0  0  0  0  0  3  0  0  0  0  0  0
  186.6740  176.9420  146.2690 C   0  0  0  0  0  3  0  0  0  0  0  0
  188.4940  177.1680  144.1590 C   0  0  0  0  0  3  0  0  0  0  0  0
  191.1830  176.0800  145.7240 C   0  0  0  0  0  0  0  0  0  0  0  0
  191.0660  176.8030  146.7040 O   0  0  0  0  0  0  0  0  0  0  0  0
  193.1860  177.1840  145.0630 O   0  0  0  0  0  1  0  0  0  0  0  0
  192.5060  175.9680  145.0090 C   0  0  1  0  0  3  0  0  0  0  0  0
  193.2080  174.5300  146.7630 O   0  0  0  0  0  0  0  0  0  0  0  0
  196.3520  172.7060  144.7010 C   0  0  2  0  0  3  0  0  0  0  0  0
  196.9640  171.4430  145.2540 C   0  0  0  0  0  3  0  0  0  0  0  0
  194.1090  171.7440  145.3000 C   0  0  0  0  0  2  0  0  0  0  0  0
  194.7570  170.6360  146.1260 C   0  0  0  0  0  2  0  0  0  0  0  0
  193.3660  174.8630  145.5570 C   0  0  0  0  0  0  0  0  0  0  0  0
  196.2340  170.4870  145.8550 C   0  0  0  0  0  3  0  0  0  0  0  0
  194.9910  172.9940  145.3480 C   0  0  2  0  0  3  0  0  0  0  0  0
  194.0470  175.4890  142.8260 O   0  0  0  0  0  0  0  0  0  0  0  0
  195.5580  173.7250  142.6030 N   0  0  0  0  0  0  0  0  0  0  0  0
  196.1850  172.5460  143.1950 C   0  0  0  0  0  2  0  0  0  0  0  0
  194.3140  174.1430  144.7360 N   0  0  0  0  0  0  0  0  0  0  0  0
  194.5970  174.4890  143.3600 C   0  0  0  0  0  0  0  0  0  0  0  0
  197.6450  175.5890  141.6820 C   0  0  0  0  0  1  0  0  0  0  0  0
  194.9410  173.3110  140.2590 C   0  0  0  0  0  3  0  0  0  0  0  0
  195.1290  173.5130  138.8900 C   0  0  0  0  0  3  0  0  0  0  0  0
  196.7720  174.8330  140.7380 C   0  0  0  0  0  0  0  0  0  0  0  0
  196.9540  175.0310  139.3660 C   0  0  0  0  0  3  0  0  0  0  0  0
  196.1360  174.3730  138.4400 C   0  0  0  0  0  0  0  0  0  0  0  0
  195.7570  173.9660  141.1980 C   0  0  0  0  0  0  0  0  0  0  0  0
  196.3580  174.5790  136.9780 C   0  0  0  0  0  3  0  0  0  0  0  0
  195.3280  175.3270  136.4340 F   0  0  0  0  0  0  0  0  0  0  0  0
  196.4370  173.3560  136.3360 F   0  0  0  0  0  0  0  0  0  0  0  0
  189.7500  174.0450  145.9130 C   0  0  0  0  0  2  0  0  0  0  0  0
  189.6570  172.8960  144.9230 C   0  0  2  0  0  3  0  0  0  0  0  0
  189.3370  171.7380  145.6080 F   0  0  0  0  0  0  0  0  0  0  0  0
  190.8840  172.7360  144.2680 O   0  0  0  0  0  0  0  0  0  0  0  0
  191.6900  171.4750  140.8080 C   0  0  2  0  0  3  0  0  0  0  0  0
  190.5750  172.2280  143.0030 C   0  0  1  0  0  3  0  0  0  0  0  0
  190.8800  174.4190  141.8050 C   0  0  0  0  0  2  0  0  0  0  0  0
  189.8900  173.2970  142.1280 C   0  0  1  0  0  3  0  0  0  0  0  0
  189.5590  172.6600  140.8560 N   0  0  0  0  0  0  0  0  0  0  0  0
  188.5560  173.4940  140.1890 C   0  0  0  0  0  1  0  0  0  0  0  0
  191.8610  171.7010  142.3340 C   0  0  0  0  0  2  0  0  0  0  0  0
  191.5510  173.9680  140.5150 C   0  0  0  0  0  2  0  0  0  0  0  0
  190.8650  172.6420  140.1700 C   0  0  1  0  0  0  0  0  0  0  0  0
  190.6370  169.4560  141.6890 O   0  0  0  0  0  1  0  0  0  0  0  0
  191.0810  170.0820  140.5160 C   0  0  2  0  0  3  0  0  0  0  0  0
  192.1110  169.1830  139.8640 C   0  0  0  0  0  1  0  0  0  0  0  0
  190.7680  172.4320  138.6390 C   0  0  0  0  0  2  0  0  0  0  0  0
  191.5680  173.4270  137.8070 C   0  0  0  0  0  2  0  0  0  0  0  0
  192.1470  172.7210  136.5990 C   0  0  0  0  0  2  0  0  0  0  0  0
  193.9990  171.1340  136.2140 C   0  0  0  0  0  1  0  0  0  0  0  0
  192.7530  171.4030  137.0300 C   0  0  0  0  0  2  0  0  0  0  0  0
  1  3  1  0  0  0  0
  1  8  1  0  0  0  0
  1 35  1  1  0  0  0
  2  6  1  0  0  0  0
  3  4  1  0  0  0  0
  4  6  2  0  0  0  0
  5  2  2  0  0  0  0
  7  5  1  0  0  0  0
  7  3  2  0  0  0  0
  8  9  2  0  0  0  0
 11 10  1  1  0  0  0
 11 17  1  0  0  0  0
 11  8  1  0  0  0  0
 13 22  1  6  0  0  0
 13 14  1  0  0  0  0
 13 19  1  0  0  0  0
 14 18  2  0  0  0  0
 15 16  1  0  0  0  0
 17 12  2  0  0  0  0
 18 16  1  0  0  0  0
 19 15  1  6  0  0  0
 20 24  2  0  0  0  0
 21 22  1  0  0  0  0
 21 24  1  0  0  0  0
 23 19  1  0  0  0  0
 23 17  1  0  0  0  0
 24 23  1  0  0  0  0
 26 31  1  0  0  0  0
 27 26  2  0  0  0  0
 28 31  2  0  0  0  0
 28 25  1  0  0  0  0
 29 28  1  0  0  0  0
 30 27  1  0  0  0  0
 30 29  2  0  0  0  0
 31 21  1  0  0  0  0
 32 30  1  0  0  0  0
 33 32  1  0  0  0  0
 34 32  1  0  0  0  0
 36 37  1  1  0  0  0
 36 35  1  0  0  0  0
 38 36  1  0  0  0  0
 39 49  1  1  0  0  0
 39 45  1  0  0  0  0
 40 38  1  1  0  0  0
 42 41  1  6  0  0  0
 42 40  1  0  0  0  0
 43 42  1  0  0  0  0
 44 43  1  0  0  0  0
 45 40  1  0  0  0  0
 46 41  1  0  0  0  0
 47 51  1  6  0  0  0
 47 46  1  0  0  0  0
 47 39  1  0  0  0  0
 47 43  1  0  0  0  0
 49 50  1  1  0  0  0
 49 48  1  0  0  0  0
 52 51  1  0  0  0  0
 53 55  1  0  0  0  0
 53 52  1  0  0  0  0
 54 55  1  0  0  0  0
M  END
>  <MODEL>
1

>  <REMARK>
 VINA RESULT:      -6.6      0.000      0.000
  Name = 
  15 active torsions:
  status: ('A' for Active; 'I' for Inactive)
    1  A    between atoms: C_1  and  C_21
    2  A    between atoms: C_3  and  C_25
    3  A    between atoms: C_3  and  C_38
    4  A    between atoms: C_6  and  O_22
    5  A    between atoms: C_8  and  O_22
    6  A    between atoms: C_8  and  C_54
    7  A    between atoms: C_10  and  C_48
    8  A    between atoms: C_19  and  C_37
    9  A    between atoms: C_27  and  C_51
   10  A    between atoms: C_29  and  C_38
   11  A    between atoms: C_29  and  C_53
   12  A    between atoms: N_33  and  C_52
   13  A    between atoms: C_35  and  C_37
   14  A    between atoms: C_35  and  C_51
   15  A    between atoms: C_51  and  C_54
                            x       y       z     vdW  Elec       q    Type
                         _______ _______ _______ _____ _____    ______ ____

>  <TORSDO>
F 15

$$$$
=
 OpenBabel11052419403D

 55 60  0  0  1  0  0  0  0  0999 V2000
  194.6030  173.5890  145.4790 C   0  0  1  0  0  3  0  0  0  0  0  0
  192.8070  169.8510  144.3170 C   0  0  0  0  0  3  0  0  0  0  0  0
  194.0020  172.2760  145.0610 C   0  0  0  0  0  0  0  0  0  0  0  0
  192.7280  172.2660  144.4820 C   0  0  0  0  0  3  0  0  0  0  0  0
  194.0760  169.8530  144.9020 C   0  0  0  0  0  3  0  0  0  0  0  0
  192.1320  171.0570  144.1080 C   0  0  0  0  0  3  0  0  0  0  0  0
  194.6720  171.0620  145.2770 C   0  0  0  0  0  3  0  0  0  0  0  0
  195.9700  173.8070  144.9000 C   0  0  0  0  0  0  0  0  0  0  0  0
  196.9350  173.7700  145.6510 O   0  0  0  0  0  0  0  0  0  0  0  0
  197.0130  175.2370  143.3080 O   0  0  0  0  0  1  0  0  0  0  0  0
  196.1480  174.1520  143.4430 C   0  0  1  0  0  3  0  0  0  0  0  0
  197.7920  172.5360  142.8730 O   0  0  0  0  0  0  0  0  0  0  0  0
  195.7790  170.8920  139.6010 C   0  0  2  0  0  3  0  0  0  0  0  0
  196.2430  169.5710  139.0360 C   0  0  0  0  0  3  0  0  0  0  0  0
  196.1210  169.9010  141.8850 C   0  0  0  0  0  2  0  0  0  0  0  0
  196.8740  168.7080  141.3030 C   0  0  0  0  0  2  0  0  0  0  0  0
  196.6390  172.9870  142.6290 C   0  0  0  0  0  0  0  0  0  0  0  0
  196.6920  168.5690  139.8110 C   0  0  0  0  0  3  0  0  0  0  0  0
  196.3560  171.1290  141.0020 C   0  0  2  0  0  3  0  0  0  0  0  0
  194.0390  173.8760  141.7540 O   0  0  0  0  0  0  0  0  0  0  0  0
  193.7450  172.1250  140.2400 N   0  0  0  0  0  0  0  0  0  0  0  0
  194.2560  170.8850  139.6620 C   0  0  0  0  0  2  0  0  0  0  0  0
  195.8180  172.3410  141.6290 N   0  0  0  0  0  0  0  0  0  0  0  0
  194.5070  172.8210  141.2480 C   0  0  0  0  0  0  0  0  0  0  0  0
  193.1420  173.8390  137.9210 C   0  0  0  0  0  1  0  0  0  0  0  0
  191.3450  172.0580  140.7710 C   0  0  0  0  0  3  0  0  0  0  0  0
  190.0200  172.3950  140.4900 C   0  0  0  0  0  3  0  0  0  0  0  0
  192.0790  173.3000  138.8170 C   0  0  0  0  0  0  0  0  0  0  0  0
  190.7490  173.6330  138.5420 C   0  0  0  0  0  3  0  0  0  0  0  0
  189.7180  173.1830  139.3740 C   0  0  0  0  0  0  0  0  0  0  0  0
  192.3890  172.5040  139.9420 C   0  0  0  0  0  0  0  0  0  0  0  0
  188.3020  173.5310  139.0540 C   0  0  0  0  0  3  0  0  0  0  0  0
  187.9980  173.1700  137.7520 F   0  0  0  0  0  0  0  0  0  0  0  0
  188.1000  174.8890  139.2200 F   0  0  0  0  0  0  0  0  0  0  0  0
  193.6970  174.7910  145.2080 C   0  0  0  0  0  2  0  0  0  0  0  0
  194.2320  176.0510  145.8700 C   0  0  2  0  0  3  0  0  0  0  0  0
  194.9910  175.6920  146.9680 F   0  0  0  0  0  0  0  0  0  0  0  0
  193.1650  176.8610  146.2750 O   0  0  0  0  0  0  0  0  0  0  0  0
  189.9240  176.7620  144.3510 C   0  0  2  0  0  3  0  0  0  0  0  0
  192.0130  176.2530  145.7670 C   0  0  1  0  0  3  0  0  0  0  0  0
  190.4630  177.2510  147.4790 C   0  0  0  0  0  2  0  0  0  0  0  0
  191.0060  175.9440  146.8930 C   0  0  1  0  0  3  0  0  0  0  0  0
  189.8690  175.2660  146.2760 N   0  0  0  0  0  0  0  0  0  0  0  0
  189.1180  174.5980  147.3420 C   0  0  0  0  0  1  0  0  0  0  0  0
  191.3840  177.1620  144.6910 C   0  0  0  0  0  2  0  0  0  0  0  0
  189.2370  177.5610  146.6330 C   0  0  0  0  0  2  0  0  0  0  0  0
  189.1400  176.3870  145.6530 C   0  0  1  0  0  0  0  0  0  0  0  0
  191.1620  175.3850  142.7610 O   0  0  0  0  0  1  0  0  0  0  0  0
  189.8880  175.6390  143.2860 C   0  0  2  0  0  3  0  0  0  0  0  0
  188.9760  176.0280  142.1410 C   0  0  0  0  0  1  0  0  0  0  0  0
  187.6690  176.0610  145.2970 C   0  0  0  0  0  2  0  0  0  0  0  0
  186.7050  177.2320  145.4390 C   0  0  0  0  0  2  0  0  0  0  0  0
  185.4630  176.7740  146.1750 C   0  0  0  0  0  2  0  0  0  0  0  0
  184.2380  178.7920  145.4520 C   0  0  0  0  0  1  0  0  0  0  0  0
  184.6860  177.9830  146.6500 C   0  0  0  0  0  2  0  0  0  0  0  0
  1 35  1  6  0  0  0
  2  5  1  0  0  0  0
  3  7  1  0  0  0  0
  3  1  1  0  0  0  0
  4  3  2  0  0  0  0
  5  7  2  0  0  0  0
  6  2  2  0  0  0  0
  6  4  1  0  0  0  0
  8  1  1  0  0  0  0
  8  9  2  0  0  0  0
 11 10  1  1  0  0  0
 11  8  1  0  0  0  0
 13 14  1  1  0  0  0
 13 22  1  0  0  0  0
 13 19  1  0  0  0  0
 14 18  2  0  0  0  0
 16 15  1  0  0  0  0
 17 12  2  0  0  0  0
 17 11  1  0  0  0  0
 18 16  1  0  0  0  0
 19 23  1  0  0  0  0
 19 15  1  1  0  0  0
 21 24  1  0  0  0  0
 22 21  1  0  0  0  0
 23 17  1  0  0  0  0
 24 23  1  0  0  0  0
 24 20  2  0  0  0  0
 25 28  1  0  0  0  0
 27 26  1  0  0  0  0
 28 31  1  0  0  0  0
 29 28  2  0  0  0  0
 29 30  1  0  0  0  0
 30 27  2  0  0  0  0
 31 21  1  0  0  0  0
 31 26  2  0  0  0  0
 32 34  1  0  0  0  0
 32 30  1  0  0  0  0
 33 32  1  0  0  0  0
 35 36  1  0  0  0  0
 36 38  1  0  0  0  0
 36 37  1  1  0  0  0
 39 49  1  6  0  0  0
 39 45  1  0  0  0  0
 39 47  1  0  0  0  0
 40 38  1  1  0  0  0
 40 42  1  0  0  0  0
 42 41  1  6  0  0  0
 43 42  1  0  0  0  0
 43 44  1  0  0  0  0
 45 40  1  0  0  0  0
 46 41  1  0  0  0  0
 47 51  1  6  0  0  0
 47 43  1  0  0  0  0
 47 46  1  0  0  0  0
 48 49  1  0  0  0  0
 49 50  1  6  0  0  0
 51 52  1  0  0  0  0
 52 53  1  0  0  0  0
 53 55  1  0  0  0  0
 54 55  1  0  0  0  0
M  END
>  <MODEL>
2

>  <REMARK>
 VINA RESULT:      -6.2      2.797      7.009
  Name = 
  15 active torsions:
  status: ('A' for Active; 'I' for Inactive)
    1  A    between atoms: C_1  and  C_21
    2  A    between atoms: C_3  and  C_25
    3  A    between atoms: C_3  and  C_38
    4  A    between atoms: C_6  and  O_22
    5  A    between atoms: C_8  and  O_22
    6  A    between atoms: C_8  and  C_54
    7  A    between atoms: C_10  and  C_48
    8  A    between atoms: C_19  and  C_37
    9  A    between atoms: C_27  and  C_51
   10  A    between atoms: C_29  and  C_38
   11  A    between atoms: C_29  and  C_53
   12  A    between atoms: N_33  and  C_52
   13  A    between atoms: C_35  and  C_37
   14  A    between atoms: C_35  and  C_51
   15  A    between atoms: C_51  and  C_54
                            x       y       z     vdW  Elec       q    Type
                         _______ _______ _______ _____ _____    ______ ____

>  <TORSDO>
F 15

$$$$
=
 OpenBabel11052419403D

 55 60  0  0  1  0  0  0  0  0999 V2000
  190.2820  171.5200  139.7700 C   0  0  1  0  0  3  0  0  0  0  0  0
  190.6630  174.0680  136.3180 C   0  0  0  0  0  3  0  0  0  0  0  0
  190.4030  172.3880  138.5480 C   0  0  0  0  0  0  0  0  0  0  0  0
  191.5860  173.1050  138.3390 C   0  0  0  0  0  3  0  0  0  0  0  0
  189.4750  173.3610  136.5250 C   0  0  0  0  0  3  0  0  0  0  0  0
  191.7180  173.9410  137.2260 C   0  0  0  0  0  3  0  0  0  0  0  0
  189.3430  172.5250  137.6390 C   0  0  0  0  0  3  0  0  0  0  0  0
  191.5360  170.7460  140.0520 C   0  0  0  0  0  0  0  0  0  0  0  0
  191.8150  169.8020  139.3260 O   0  0  0  0  0  0  0  0  0  0  0  0
  192.6990  169.8950  141.9470 O   0  0  0  0  0  1  0  0  0  0  0  0
  192.3880  171.0640  141.2550 C   0  0  1  0  0  3  0  0  0  0  0  0
  194.3030  171.4080  139.8930 O   0  0  0  0  0  0  0  0  0  0  0  0
  195.9940  174.4860  142.1580 C   0  0  2  0  0  3  0  0  0  0  0  0
  197.0990  175.3210  141.5600 C   0  0  0  0  0  3  0  0  0  0  0  0
  194.8350  174.6380  139.9340 C   0  0  0  0  0  2  0  0  0  0  0  0
  196.0880  175.2020  139.2700 C   0  0  0  0  0  2  0  0  0  0  0  0
  193.6440  171.8080  140.8920 C   0  0  0  0  0  0  0  0  0  0  0  0
  197.1150  175.6830  140.2660 C   0  0  0  0  0  3  0  0  0  0  0  0
  195.2430  173.7020  141.0740 C   0  0  2  0  0  3  0  0  0  0  0  0
  192.4360  172.8640  143.2880 O   0  0  0  0  0  0  0  0  0  0  0  0
  193.9110  174.6630  143.4610 N   0  0  0  0  0  0  0  0  0  0  0  0
  195.0300  175.4100  142.8920 C   0  0  0  0  0  2  0  0  0  0  0  0
  194.0810  172.9840  141.6100 N   0  0  0  0  0  0  0  0  0  0  0  0
  193.4170  173.4830  142.7960 C   0  0  0  0  0  0  0  0  0  0  0  0
  192.0270  176.8800  143.0000 C   0  0  0  0  0  1  0  0  0  0  0  0
  193.3960  174.7700  145.8640 C   0  0  0  0  0  3  0  0  0  0  0  0
  192.6940  175.3120  146.9410 C   0  0  0  0  0  3  0  0  0  0  0  0
  192.2620  176.2960  144.3520 C   0  0  0  0  0  0  0  0  0  0  0  0
  191.5620  176.8340  145.4370 C   0  0  0  0  0  3  0  0  0  0  0  0
  191.7740  176.3450  146.7300 C   0  0  0  0  0  0  0  0  0  0  0  0
  193.1910  175.2520  144.5590 C   0  0  0  0  0  0  0  0  0  0  0  0
  191.0030  176.9160  147.8740 C   0  0  0  0  0  3  0  0  0  0  0  0
  190.1060  177.8710  147.4240 F   0  0  0  0  0  0  0  0  0  0  0  0
  191.8690  177.4860  148.7900 F   0  0  0  0  0  0  0  0  0  0  0  0
  189.8140  172.2770  141.0140 C   0  0  0  0  0  2  0  0  0  0  0  0
  189.6420  173.7600  140.7310 C   0  0  2  0  0  3  0  0  0  0  0  0
  190.5120  174.4740  141.5340 F   0  0  0  0  0  0  0  0  0  0  0  0
  188.3230  174.1420  141.0030 O   0  0  0  0  0  0  0  0  0  0  0  0
  187.1010  176.1710  143.9350 C   0  0  2  0  0  3  0  0  0  0  0  0
  188.4120  175.1470  141.9710 C   0  0  1  0  0  3  0  0  0  0  0  0
  186.8630  176.7350  140.7820 C   0  0  0  0  0  2  0  0  0  0  0  0
  188.2790  176.5450  141.3330 C   0  0  1  0  0  3  0  0  0  0  0  0
  188.4380  177.5210  142.4080 N   0  0  0  0  0  0  0  0  0  0  0  0
  188.7400  178.8150  141.7910 C   0  0  0  0  0  1  0  0  0  0  0  0
  187.3280  174.9210  143.0450 C   0  0  0  0  0  2  0  0  0  0  0  0
  186.0830  177.3260  141.9480 C   0  0  0  0  0  2  0  0  0  0  0  0
  187.1200  177.4730  143.0670 C   0  0  1  0  0  0  0  0  0  0  0  0
  188.8780  175.0410  145.1700 O   0  0  0  0  0  1  0  0  0  0  0  0
  188.1150  176.2150  145.1040 C   0  0  2  0  0  3  0  0  0  0  0  0
  187.3920  176.3820  146.4240 C   0  0  0  0  0  1  0  0  0  0  0  0
  186.8200  178.6990  143.9640 C   0  0  0  0  0  2  0  0  0  0  0  0
  185.5490  179.4580  143.6020 C   0  0  0  0  0  2  0  0  0  0  0  0
  184.4680  179.1380  144.6140 C   0  0  0  0  0  2  0  0  0  0  0  0
  184.3640  178.1870  146.8910 C   0  0  0  0  0  1  0  0  0  0  0  0
  185.0510  179.2080  146.0100 C   0  0  0  0  0  2  0  0  0  0  0  0
  1  8  1  0  0  0  0
  1 35  1  1  0  0  0
  2  5  2  0  0  0  0
  2  6  1  0  0  0  0
  3  1  1  0  0  0  0
  4  3  1  0  0  0  0
  5  7  1  0  0  0  0
  6  4  2  0  0  0  0
  7  3  2  0  0  0  0
  8 11  1  0  0  0  0
  9  8  2  0  0  0  0
 11 10  1  6  0  0  0
 12 17  2  0  0  0  0
 13 14  1  6  0  0  0
 13 22  1  0  0  0  0
 16 15  1  0  0  0  0
 16 18  1  0  0  0  0
 17 11  1  0  0  0  0
 17 23  1  0  0  0  0
 18 14  2  0  0  0  0
 19 15  1  6  0  0  0
 19 23  1  0  0  0  0
 19 13  1  0  0  0  0
 21 31  1  0  0  0  0
 22 21  1  0  0  0  0
 23 24  1  0  0  0  0
 24 20  2  0  0  0  0
 24 21  1  0  0  0  0
 25 28  1  0  0  0  0
 26 27  1  0  0  0  0
 28 31  1  0  0  0  0
 28 29  2  0  0  0  0
 29 30  1  0  0  0  0
 30 27  2  0  0  0  0
 30 32  1  0  0  0  0
 31 26  2  0  0  0  0
 32 34  1  0  0  0  0
 33 32  1  0  0  0  0
 36 38  1  0  0  0  0
 36 35  1  0  0  0  0
 36 37  1  1  0  0  0
 39 49  1  1  0  0  0
 40 38  1  6  0  0  0
 40 45  1  0  0  0  0
 41 46  1  0  0  0  0
 42 41  1  1  0  0  0
 42 40  1  0  0  0  0
 42 43  1  0  0  0  0
 43 47  1  0  0  0  0
 44 43  1  0  0  0  0
 45 39  1  0  0  0  0
 46 47  1  0  0  0  0
 47 39  1  0  0  0  0
 47 51  1  1  0  0  0
 49 48  1  0  0  0  0
 49 50  1  1  0  0  0
 52 51  1  0  0  0  0
 52 53  1  0  0  0  0
 53 55  1  0  0  0  0
 55 54  1  0  0  0  0
M  END
>  <MODEL>
3

>  <REMARK>
 VINA RESULT:      -6.2      2.765      7.933
  Name = 
  15 active torsions:
  status: ('A' for Active; 'I' for Inactive)
    1  A    between atoms: C_1  and  C_21
    2  A    between atoms: C_3  and  C_25
    3  A    between atoms: C_3  and  C_38
    4  A    between atoms: C_6  and  O_22
    5  A    between atoms: C_8  and  O_22
    6  A    between atoms: C_8  and  C_54
    7  A    between atoms: C_10  and  C_48
    8  A    between atoms: C_19  and  C_37
    9  A    between atoms: C_27  and  C_51
   10  A    between atoms: C_29  and  C_38
   11  A    between atoms: C_29  and  C_53
   12  A    between atoms: N_33  and  C_52
   13  A    between atoms: C_35  and  C_37
   14  A    between atoms: C_35  and  C_51
   15  A    between atoms: C_51  and  C_54
                            x       y       z     vdW  Elec       q    Type
                         _______ _______ _______ _____ _____    ______ ____

>  <TORSDO>
F 15

$$$$
=
 OpenBabel11052419403D

 55 60  0  0  1  0  0  0  0  0999 V2000
  195.3460  175.7710  144.3270 C   0  0  1  0  0  3  0  0  0  0  0  0
  196.4380  171.8550  145.7490 C   0  0  0  0  0  3  0  0  0  0  0  0
  195.7020  174.4040  144.8400 C   0  0  0  0  0  0  0  0  0  0  0  0
  197.0190  174.1500  145.2380 C   0  0  0  0  0  3  0  0  0  0  0  0
  195.1230  172.1000  145.3450 C   0  0  0  0  0  3  0  0  0  0  0  0
  197.3870  172.8800  145.6940 C   0  0  0  0  0  3  0  0  0  0  0  0
  194.7550  173.3690  144.8880 C   0  0  0  0  0  3  0  0  0  0  0  0
  196.2780  176.2420  143.2490 C   0  0  0  0  0  0  0  0  0  0  0  0
  197.1740  177.0180  143.5510 O   0  0  0  0  0  0  0  0  0  0  0  0
  196.5420  176.8360  140.9590 O   0  0  0  0  0  1  0  0  0  0  0  0
  196.0640  175.8420  141.8110 C   0  0  1  0  0  3  0  0  0  0  0  0
  197.9330  174.3810  141.6990 O   0  0  0  0  0  0  0  0  0  0  0  0
  195.9990  171.2240  139.7600 C   0  0  2  0  0  3  0  0  0  0  0  0
  196.6580  169.8670  139.7210 C   0  0  0  0  0  3  0  0  0  0  0  0
  196.7220  171.3760  142.1630 C   0  0  0  0  0  2  0  0  0  0  0  0
  197.6380  170.1640  142.0080 C   0  0  0  0  0  2  0  0  0  0  0  0
  196.6980  174.5190  141.4800 C   0  0  0  0  0  0  0  0  0  0  0  0
  197.3580  169.3710  140.7550 C   0  0  0  0  0  3  0  0  0  0  0  0
  196.6390  172.1210  140.8280 C   0  0  2  0  0  3  0  0  0  0  0  0
  193.9100  174.5760  140.7480 O   0  0  0  0  0  0  0  0  0  0  0  0
  193.8290  172.3210  140.1550 N   0  0  0  0  0  0  0  0  0  0  0  0
  194.5170  171.0360  140.0630 C   0  0  0  0  0  2  0  0  0  0  0  0
  195.9330  173.3990  140.9800 N   0  0  0  0  0  0  0  0  0  0  0  0
  194.5260  173.4810  140.6510 C   0  0  0  0  0  0  0  0  0  0  0  0
  191.9840  171.8730  142.4080 C   0  0  0  0  0  1  0  0  0  0  0  0
  191.8900  172.5710  138.6620 C   0  0  0  0  0  3  0  0  0  0  0  0
  190.5120  172.6170  138.4440 C   0  0  0  0  0  3  0  0  0  0  0  0
  191.5050  172.1590  141.0250 C   0  0  0  0  0  0  0  0  0  0  0  0
  190.1260  172.2070  140.7980 C   0  0  0  0  0  3  0  0  0  0  0  0
  189.6270  172.4360  139.5120 C   0  0  0  0  0  0  0  0  0  0  0  0
  192.4040  172.3430  139.9500 C   0  0  0  0  0  0  0  0  0  0  0  0
  188.1510  172.5040  139.2910 C   0  0  0  0  0  3  0  0  0  0  0  0
  187.8340  173.5790  138.4780 F   0  0  0  0  0  0  0  0  0  0  0  0
  187.4980  172.6280  140.5030 F   0  0  0  0  0  0  0  0  0  0  0  0
  193.8880  175.8980  143.8830 C   0  0  0  0  0  2  0  0  0  0  0  0
  193.0160  176.4610  144.9930 C   0  0  2  0  0  3  0  0  0  0  0  0
  193.7900  176.6370  146.1250 F   0  0  0  0  0  0  0  0  0  0  0  0
  191.9690  175.5730  145.2670 O   0  0  0  0  0  0  0  0  0  0  0  0
  188.2460  176.1390  145.4580 C   0  0  2  0  0  3  0  0  0  0  0  0
  190.7950  176.3230  145.1440 C   0  0  1  0  0  3  0  0  0  0  0  0
  190.0850  175.2630  142.9740 C   0  0  0  0  0  2  0  0  0  0  0  0
  190.4550  176.5810  143.6610 C   0  0  1  0  0  3  0  0  0  0  0  0
  189.2540  177.4100  143.6370 N   0  0  0  0  0  0  0  0  0  0  0  0
  189.1560  178.0120  142.3050 C   0  0  0  0  0  1  0  0  0  0  0  0
  189.6410  175.5910  145.8600 C   0  0  0  0  0  2  0  0  0  0  0  0
  188.5810  175.1460  143.1730 C   0  0  0  0  0  2  0  0  0  0  0  0
  188.1920  176.4260  143.9210 C   0  0  1  0  0  0  0  0  0  0  0  0
  188.9110  177.7530  147.1640 O   0  0  0  0  0  1  0  0  0  0  0  0
  187.8660  177.3730  146.3110 C   0  0  2  0  0  3  0  0  0  0  0  0
  186.6500  177.0710  147.1630 C   0  0  0  0  0  1  0  0  0  0  0  0
  186.7710  176.9040  143.5320 C   0  0  0  0  0  2  0  0  0  0  0  0
  186.6690  178.3840  143.1850 C   0  0  0  0  0  2  0  0  0  0  0  0
  185.2440  178.8520  143.3960 C   0  0  0  0  0  2  0  0  0  0  0  0
  183.9540  178.7990  145.5000 C   0  0  0  0  0  1  0  0  0  0  0  0
  185.1130  179.4530  144.7790 C   0  0  0  0  0  2  0  0  0  0  0  0
  1 35  1  6  0  0  0
  1  3  1  0  0  0  0
  3  7  2  0  0  0  0
  3  4  1  0  0  0  0
  4  6  2  0  0  0  0
  5  2  2  0  0  0  0
  6  2  1  0  0  0  0
  7  5  1  0  0  0  0
  8  9  2  0  0  0  0
  8  1  1  0  0  0  0
 11 10  1  6  0  0  0
 11  8  1  0  0  0  0
 13 14  1  1  0  0  0
 13 22  1  0  0  0  0
 13 19  1  0  0  0  0
 14 18  2  0  0  0  0
 16 15  1  0  0  0  0
 17 12  2  0  0  0  0
 17 11  1  0  0  0  0
 18 16  1  0  0  0  0
 19 23  1  0  0  0  0
 19 15  1  1  0  0  0
 21 24  1  0  0  0  0
 22 21  1  0  0  0  0
 23 17  1  0  0  0  0
 24 20  2  0  0  0  0
 24 23  1  0  0  0  0
 26 31  1  0  0  0  0
 27 26  2  0  0  0  0
 27 30  1  0  0  0  0
 28 25  1  0  0  0  0
 29 28  1  0  0  0  0
 30 29  2  0  0  0  0
 31 21  1  0  0  0  0
 31 28  2  0  0  0  0
 32 30  1  0  0  0  0
 32 34  1  0  0  0  0
 33 32  1  0  0  0  0
 35 36  1  0  0  0  0
 36 38  1  0  0  0  0
 36 37  1  1  0  0  0
 39 45  1  0  0  0  0
 39 49  1  1  0  0  0
 40 38  1  6  0  0  0
 40 45  1  0  0  0  0
 41 46  1  0  0  0  0
 42 41  1  6  0  0  0
 42 40  1  0  0  0  0
 43 42  1  0  0  0  0
 43 47  1  0  0  0  0
 44 43  1  0  0  0  0
 46 47  1  0  0  0  0
 47 51  1  6  0  0  0
 47 39  1  0  0  0  0
 49 50  1  1  0  0  0
 49 48  1  0  0  0  0
 52 53  1  0  0  0  0
 52 51  1  0  0  0  0
 53 55  1  0  0  0  0
 55 54  1  0  0  0  0
M  END
>  <MODEL>
4

>  <REMARK>
 VINA RESULT:      -6.2      2.720      7.211
  Name = 
  15 active torsions:
  status: ('A' for Active; 'I' for Inactive)
    1  A    between atoms: C_1  and  C_21
    2  A    between atoms: C_3  and  C_25
    3  A    between atoms: C_3  and  C_38
    4  A    between atoms: C_6  and  O_22
    5  A    between atoms: C_8  and  O_22
    6  A    between atoms: C_8  and  C_54
    7  A    between atoms: C_10  and  C_48
    8  A    between atoms: C_19  and  C_37
    9  A    between atoms: C_27  and  C_51
   10  A    between atoms: C_29  and  C_38
   11  A    between atoms: C_29  and  C_53
   12  A    between atoms: N_33  and  C_52
   13  A    between atoms: C_35  and  C_37
   14  A    between atoms: C_35  and  C_51
   15  A    between atoms: C_51  and  C_54
                            x       y       z     vdW  Elec       q    Type
                         _______ _______ _______ _____ _____    ______ ____

>  <TORSDO>
F 15

$$$$
=
 OpenBabel11052419403D

 55 60  0  0  1  0  0  0  0  0999 V2000
  190.2100  172.8540  139.4780 C   0  0  1  0  0  3  0  0  0  0  0  0
  190.8820  174.3310  135.4890 C   0  0  0  0  0  3  0  0  0  0  0  0
  190.4300  173.3460  138.0750 C   0  0  0  0  0  0  0  0  0  0  0  0
  191.6940  173.8220  137.7130 C   0  0  0  0  0  3  0  0  0  0  0  0
  189.6140  173.8650  135.8470 C   0  0  0  0  0  3  0  0  0  0  0  0
  191.9220  174.3110  136.4230 C   0  0  0  0  0  3  0  0  0  0  0  0
  189.3860  173.3760  137.1370 C   0  0  0  0  0  3  0  0  0  0  0  0
  191.0060  171.6200  139.7870 C   0  0  0  0  0  0  0  0  0  0  0  0
  190.8800  170.6460  139.0580 O   0  0  0  0  0  0  0  0  0  0  0  0
  191.9880  170.2250  141.4480 O   0  0  0  0  0  1  0  0  0  0  0  0
  191.8740  171.5460  141.0180 C   0  0  1  0  0  3  0  0  0  0  0  0
  193.9100  171.7440  139.8120 O   0  0  0  0  0  0  0  0  0  0  0  0
  195.8060  174.3830  142.4400 C   0  0  2  0  0  3  0  0  0  0  0  0
  197.0480  175.1120  141.9870 C   0  0  0  0  0  3  0  0  0  0  0  0
  194.8380  174.8620  140.1710 C   0  0  0  0  0  2  0  0  0  0  0  0
  196.1970  175.3090  139.6380 C   0  0  0  0  0  2  0  0  0  0  0  0
  193.2360  172.1450  140.8000 C   0  0  0  0  0  0  0  0  0  0  0  0
  197.2020  175.5710  140.7330 C   0  0  0  0  0  3  0  0  0  0  0  0
  195.0430  173.7940  141.2470 C   0  0  2  0  0  3  0  0  0  0  0  0
  192.0000  173.1560  143.2010 O   0  0  0  0  0  0  0  0  0  0  0  0
  193.6730  174.7270  143.6230 N   0  0  0  0  0  0  0  0  0  0  0  0
  194.9140  175.3640  143.1920 C   0  0  0  0  0  2  0  0  0  0  0  0
  193.7640  173.1940  141.6450 N   0  0  0  0  0  0  0  0  0  0  0  0
  193.0840  173.6780  142.8270 C   0  0  0  0  0  0  0  0  0  0  0  0
  191.8330  176.9830  143.1750 C   0  0  0  0  0  1  0  0  0  0  0  0
  193.1410  174.8150  146.0230 C   0  0  0  0  0  3  0  0  0  0  0  0
  192.4400  175.3560  147.1020 C   0  0  0  0  0  3  0  0  0  0  0  0
  192.0460  176.3780  144.5210 C   0  0  0  0  0  0  0  0  0  0  0  0
  191.3480  176.9160  145.6070 C   0  0  0  0  0  3  0  0  0  0  0  0
  191.5410  176.4080  146.8960 C   0  0  0  0  0  0  0  0  0  0  0  0
  192.9550  175.3160  144.7230 C   0  0  0  0  0  0  0  0  0  0  0  0
  190.7710  176.9800  148.0410 C   0  0  0  0  0  3  0  0  0  0  0  0
  190.2050  178.1920  147.6850 F   0  0  0  0  0  0  0  0  0  0  0  0
  191.6060  177.1570  149.1290 F   0  0  0  0  0  0  0  0  0  0  0  0
  190.4290  173.9280  140.5450 C   0  0  0  0  0  2  0  0  0  0  0  0
  189.1230  174.3230  141.2130 C   0  0  2  0  0  3  0  0  0  0  0  0
  188.0850  174.1200  140.3220 F   0  0  0  0  0  0  0  0  0  0  0  0
  189.1710  175.6720  141.5840 O   0  0  0  0  0  0  0  0  0  0  0  0
  186.3290  178.1480  141.6370 C   0  0  2  0  0  3  0  0  0  0  0  0
  187.8410  176.0670  141.7500 C   0  0  1  0  0  3  0  0  0  0  0  0
  188.1960  177.0850  144.0240 C   0  0  0  0  0  2  0  0  0  0  0  0
  187.4290  176.0190  143.2360 C   0  0  1  0  0  3  0  0  0  0  0  0
  186.0190  176.3930  143.3010 N   0  0  0  0  0  0  0  0  0  0  0  0
  185.5020  175.9540  144.6000 C   0  0  0  0  0  1  0  0  0  0  0  0
  187.6490  177.4810  141.1650 C   0  0  0  0  0  2  0  0  0  0  0  0
  187.3100  178.3200  143.9440 C   0  0  0  0  0  2  0  0  0  0  0  0
  186.0810  177.8600  143.1540 C   0  0  1  0  0  0  0  0  0  0  0  0
  185.5710  177.2870  139.4810 O   0  0  0  0  0  1  0  0  0  0  0  0
  185.1390  177.7210  140.7430 C   0  0  2  0  0  3  0  0  0  0  0  0
  184.1870  178.8820  140.5410 C   0  0  0  0  0  1  0  0  0  0  0  0
  184.7980  178.5930  143.6180 C   0  0  0  0  0  2  0  0  0  0  0  0
  185.0090  179.5940  144.7470 C   0  0  0  0  0  2  0  0  0  0  0  0
  184.5320  178.9880  146.0510 C   0  0  0  0  0  2  0  0  0  0  0  0
  186.0280  177.8640  147.6620 C   0  0  0  0  0  1  0  0  0  0  0  0
  185.5830  179.2050  147.1190 C   0  0  0  0  0  2  0  0  0  0  0  0
  1  8  1  0  0  0  0
  1 35  1  1  0  0  0
  2  5  2  0  0  0  0
  2  6  1  0  0  0  0
  3  1  1  0  0  0  0
  4  3  1  0  0  0  0
  5  7  1  0  0  0  0
  6  4  2  0  0  0  0
  7  3  2  0  0  0  0
  8 11  1  0  0  0  0
  9  8  2  0  0  0  0
 11 10  1  6  0  0  0
 12 17  2  0  0  0  0
 13 14  1  6  0  0  0
 13 22  1  0  0  0  0
 16 15  1  0  0  0  0
 16 18  1  0  0  0  0
 17 11  1  0  0  0  0
 17 23  1  0  0  0  0
 18 14  2  0  0  0  0
 19 15  1  6  0  0  0
 19 23  1  0  0  0  0
 19 13  1  0  0  0  0
 21 31  1  0  0  0  0
 22 21  1  0  0  0  0
 23 24  1  0  0  0  0
 24 20  2  0  0  0  0
 24 21  1  0  0  0  0
 25 28  1  0  0  0  0
 26 27  1  0  0  0  0
 28 31  1  0  0  0  0
 28 29  2  0  0  0  0
 29 30  1  0  0  0  0
 30 27  2  0  0  0  0
 30 32  1  0  0  0  0
 31 26  2  0  0  0  0
 32 34  1  0  0  0  0
 33 32  1  0  0  0  0
 35 36  1  0  0  0  0
 36 37  1  6  0  0  0
 36 38  1  0  0  0  0
 39 49  1  6  0  0  0
 39 47  1  0  0  0  0
 40 38  1  1  0  0  0
 40 42  1  0  0  0  0
 42 43  1  0  0  0  0
 42 41  1  1  0  0  0
 43 44  1  0  0  0  0
 45 39  1  0  0  0  0
 45 40  1  0  0  0  0
 46 41  1  0  0  0  0
 47 43  1  0  0  0  0
 47 51  1  1  0  0  0
 47 46  1  0  0  0  0
 48 49  1  0  0  0  0
 49 50  1  6  0  0  0
 51 52  1  0  0  0  0
 52 53  1  0  0  0  0
 53 55  1  0  0  0  0
 55 54  1  0  0  0  0
M  END
>  <MODEL>
5

>  <REMARK>
 VINA RESULT:      -6.1      3.034      8.277
  Name = 
  15 active torsions:
  status: ('A' for Active; 'I' for Inactive)
    1  A    between atoms: C_1  and  C_21
    2  A    between atoms: C_3  and  C_25
    3  A    between atoms: C_3  and  C_38
    4  A    between atoms: C_6  and  O_22
    5  A    between atoms: C_8  and  O_22
    6  A    between atoms: C_8  and  C_54
    7  A    between atoms: C_10  and  C_48
    8  A    between atoms: C_19  and  C_37
    9  A    between atoms: C_27  and  C_51
   10  A    between atoms: C_29  and  C_38
   11  A    between atoms: C_29  and  C_53
   12  A    between atoms: N_33  and  C_52
   13  A    between atoms: C_35  and  C_37
   14  A    between atoms: C_35  and  C_51
   15  A    between atoms: C_51  and  C_54
                            x       y       z     vdW  Elec       q    Type
                         _______ _______ _______ _____ _____    ______ ____

>  <TORSDO>
F 15

$$$$
=
 OpenBabel11052419403D

 55 60  0  0  1  0  0  0  0  0999 V2000
  189.9970  172.4510  139.5210 C   0  0  1  0  0  3  0  0  0  0  0  0
  189.6720  171.9550  135.2550 C   0  0  0  0  0  3  0  0  0  0  0  0
  189.8620  172.2990  138.0320 C   0  0  0  0  0  0  0  0  0  0  0  0
  189.8310  171.0130  137.4810 C   0  0  0  0  0  3  0  0  0  0  0  0
  189.7110  173.2420  135.7980 C   0  0  0  0  0  3  0  0  0  0  0  0
  189.7330  170.8400  136.0970 C   0  0  0  0  0  3  0  0  0  0  0  0
  189.8090  173.4150  137.1830 C   0  0  0  0  0  3  0  0  0  0  0  0
  191.2110  171.7560  140.0630 C   0  0  0  0  0  0  0  0  0  0  0  0
  192.2900  171.9580  139.5220 O   0  0  0  0  0  0  0  0  0  0  0  0
  190.7160  169.5140  140.6940 O   0  0  0  0  0  1  0  0  0  0  0  0
  191.0960  170.7600  141.1900 C   0  0  1  0  0  3  0  0  0  0  0  0
  193.2330  169.8100  141.6020 O   0  0  0  0  0  0  0  0  0  0  0  0
  193.9710  171.7630  145.2220 C   0  0  2  0  0  3  0  0  0  0  0  0
  195.3710  171.7680  145.7860 C   0  0  0  0  0  3  0  0  0  0  0  0
  195.0020  172.1990  142.9720 C   0  0  0  0  0  2  0  0  0  0  0  0
  196.3990  171.8900  143.5040 C   0  0  0  0  0  2  0  0  0  0  0  0
  192.3660  170.6420  141.9870 C   0  0  0  0  0  0  0  0  0  0  0  0
  196.4640  171.8740  145.0110 C   0  0  0  0  0  3  0  0  0  0  0  0
  193.9720  171.3670  143.7400 C   0  0  2  0  0  3  0  0  0  0  0  0
  190.5290  172.5150  143.1830 O   0  0  0  0  0  0  0  0  0  0  0  0
  192.0310  173.2270  144.8200 N   0  0  0  0  0  0  0  0  0  0  0  0
  193.3760  173.1560  145.3860 C   0  0  0  0  0  2  0  0  0  0  0  0
  192.6410  171.4810  143.1310 N   0  0  0  0  0  0  0  0  0  0  0  0
  191.6860  172.4240  143.6740 C   0  0  0  0  0  0  0  0  0  0  0  0
  192.4460  176.0300  144.0130 C   0  0  0  0  0  1  0  0  0  0  0  0
  190.0890  173.9350  146.1530 C   0  0  0  0  0  3  0  0  0  0  0  0
  189.2100  174.9190  146.6070 C   0  0  0  0  0  3  0  0  0  0  0  0
  191.3170  175.6070  144.8910 C   0  0  0  0  0  0  0  0  0  0  0  0
  190.4330  176.5880  145.3500 C   0  0  0  0  0  3  0  0  0  0  0  0
  189.3790  176.2490  146.2060 C   0  0  0  0  0  0  0  0  0  0  0  0
  191.1510  174.2630  145.2920 C   0  0  0  0  0  0  0  0  0  0  0  0
  188.4320  177.3050  146.6700 C   0  0  0  0  0  3  0  0  0  0  0  0
  187.2740  176.7310  147.1680 F   0  0  0  0  0  0  0  0  0  0  0  0
  188.1190  178.1520  145.6230 F   0  0  0  0  0  0  0  0  0  0  0  0
  189.9410  173.9030  139.9960 C   0  0  0  0  0  2  0  0  0  0  0  0
  188.5270  174.3090  140.3790 C   0  0  2  0  0  3  0  0  0  0  0  0
  187.6470  173.3390  139.9350 F   0  0  0  0  0  0  0  0  0  0  0  0
  188.2130  175.5400  139.7920 O   0  0  0  0  0  0  0  0  0  0  0  0
  185.6420  178.1130  140.7820 C   0  0  2  0  0  3  0  0  0  0  0  0
  187.0720  175.9970  140.4580 C   0  0  1  0  0  3  0  0  0  0  0  0
  188.3420  177.2050  142.2640 C   0  0  0  0  0  2  0  0  0  0  0  0
  187.3210  176.1000  141.9770 C   0  0  1  0  0  3  0  0  0  0  0  0
  186.0660  176.5300  142.5870 N   0  0  0  0  0  0  0  0  0  0  0  0
  186.1420  176.2300  144.0190 C   0  0  0  0  0  1  0  0  0  0  0  0
  186.6460  177.3580  139.8710 C   0  0  0  0  0  2  0  0  0  0  0  0
  187.4980  178.4590  142.4410 C   0  0  0  0  0  2  0  0  0  0  0  0
  186.0530  177.9740  142.2850 C   0  0  1  0  0  0  0  0  0  0  0  0
  184.0500  177.1080  139.2280 O   0  0  0  0  0  1  0  0  0  0  0  0
  184.1890  177.6500  140.5130 C   0  0  2  0  0  3  0  0  0  0  0  0
  183.2320  178.8170  140.6370 C   0  0  0  0  0  1  0  0  0  0  0  0
  185.0790  178.7930  143.1670 C   0  0  0  0  0  2  0  0  0  0  0  0
  185.7360  179.8980  143.9850 C   0  0  0  0  0  2  0  0  0  0  0  0
  185.3610  179.7340  145.4430 C   0  0  0  0  0  2  0  0  0  0  0  0
  184.2630  177.9390  146.7350 C   0  0  0  0  0  1  0  0  0  0  0  0
  184.1240  178.8680  145.5490 C   0  0  0  0  0  2  0  0  0  0  0  0
  1 35  1  6  0  0  0
  1  8  1  0  0  0  0
  2  5  2  0  0  0  0
  2  6  1  0  0  0  0
  3  1  1  0  0  0  0
  4  3  1  0  0  0  0
  5  7  1  0  0  0  0
  6  4  2  0  0  0  0
  7  3  2  0  0  0  0
  8 11  1  0  0  0  0
  9  8  2  0  0  0  0
 11 10  1  6  0  0  0
 11 17  1  0  0  0  0
 12 17  2  0  0  0  0
 13 22  1  6  0  0  0
 13 14  1  0  0  0  0
 15 16  1  0  0  0  0
 16 18  1  0  0  0  0
 17 23  1  0  0  0  0
 18 14  2  0  0  0  0
 19 15  1  6  0  0  0
 19 13  1  0  0  0  0
 20 24  2  0  0  0  0
 21 31  1  0  0  0  0
 21 22  1  0  0  0  0
 23 24  1  0  0  0  0
 23 19  1  0  0  0  0
 24 21  1  0  0  0  0
 25 28  1  0  0  0  0
 26 27  1  0  0  0  0
 28 31  1  0  0  0  0
 28 29  2  0  0  0  0
 29 30  1  0  0  0  0
 30 27  2  0  0  0  0
 30 32  1  0  0  0  0
 31 26  2  0  0  0  0
 32 33  1  0  0  0  0
 34 32  1  0  0  0  0
 35 36  1  0  0  0  0
 36 37  1  6  0  0  0
 38 36  1  0  0  0  0
 39 49  1  1  0  0  0
 39 47  1  0  0  0  0
 40 38  1  6  0  0  0
 40 42  1  0  0  0  0
 41 46  1  0  0  0  0
 42 41  1  6  0  0  0
 42 43  1  0  0  0  0
 43 44  1  0  0  0  0
 45 40  1  0  0  0  0
 45 39  1  0  0  0  0
 47 46  1  0  0  0  0
 47 43  1  0  0  0  0
 47 51  1  1  0  0  0
 48 49  1  0  0  0  0
 49 50  1  6  0  0  0
 51 52  1  0  0  0  0
 52 53  1  0  0  0  0
 53 55  1  0  0  0  0
 55 54  1  0  0  0  0
M  END
>  <MODEL>
6

>  <REMARK>
 VINA RESULT:      -6.0      3.329      8.340
  Name = 
  15 active torsions:
  status: ('A' for Active; 'I' for Inactive)
    1  A    between atoms: C_1  and  C_21
    2  A    between atoms: C_3  and  C_25
    3  A    between atoms: C_3  and  C_38
    4  A    between atoms: C_6  and  O_22
    5  A    between atoms: C_8  and  O_22
    6  A    between atoms: C_8  and  C_54
    7  A    between atoms: C_10  and  C_48
    8  A    between atoms: C_19  and  C_37
    9  A    between atoms: C_27  and  C_51
   10  A    between atoms: C_29  and  C_38
   11  A    between atoms: C_29  and  C_53
   12  A    between atoms: N_33  and  C_52
   13  A    between atoms: C_35  and  C_37
   14  A    between atoms: C_35  and  C_51
   15  A    between atoms: C_51  and  C_54
                            x       y       z     vdW  Elec       q    Type
                         _______ _______ _______ _____ _____    ______ ____

>  <TORSDO>
F 15

$$$$
=
 OpenBabel11052419403D

 55 60  0  0  1  0  0  0  0  0999 V2000
  190.8530  171.9620  138.3540 C   0  0  1  0  0  3  0  0  0  0  0  0
  191.6750  174.7320  135.1600 C   0  0  0  0  0  3  0  0  0  0  0  0
  191.1500  172.9060  137.2220 C   0  0  0  0  0  0  0  0  0  0  0  0
  191.7970  174.1150  137.4990 C   0  0  0  0  0  3  0  0  0  0  0  0
  191.0210  173.5300  134.8780 C   0  0  0  0  0  3  0  0  0  0  0  0
  192.0620  175.0250  136.4710 C   0  0  0  0  0  3  0  0  0  0  0  0
  190.7540  172.6190  135.9060 C   0  0  0  0  0  3  0  0  0  0  0  0
  191.8940  170.8900  138.4970 C   0  0  0  0  0  0  0  0  0  0  0  0
  191.8180  169.9030  137.7790 O   0  0  0  0  0  0  0  0  0  0  0  0
  193.2840  169.7080  140.0260 O   0  0  0  0  0  1  0  0  0  0  0  0
  192.9570  170.9810  139.5630 C   0  0  1  0  0  3  0  0  0  0  0  0
  194.6890  171.3520  137.9810 O   0  0  0  0  0  0  0  0  0  0  0  0
  196.8240  174.1680  140.2120 C   0  0  2  0  0  3  0  0  0  0  0  0
  197.8820  175.0010  139.5310 C   0  0  0  0  0  3  0  0  0  0  0  0
  195.3880  174.5430  138.1840 C   0  0  0  0  0  2  0  0  0  0  0  0
  196.5700  175.1050  137.3980 C   0  0  0  0  0  2  0  0  0  0  0  0
  194.1900  171.6980  139.0870 C   0  0  0  0  0  0  0  0  0  0  0  0
  197.7440  175.4630  138.2770 C   0  0  0  0  0  3  0  0  0  0  0  0
  195.8950  173.5040  139.1870 C   0  0  2  0  0  3  0  0  0  0  0  0
  193.3670  172.6110  141.6960 O   0  0  0  0  0  0  0  0  0  0  0  0
  194.9440  174.3270  141.7970 N   0  0  0  0  0  0  0  0  0  0  0  0
  196.0150  175.0700  141.1360 C   0  0  0  0  0  2  0  0  0  0  0  0
  194.7790  172.7950  139.8230 N   0  0  0  0  0  0  0  0  0  0  0  0
  194.3060  173.2250  141.1210 C   0  0  0  0  0  0  0  0  0  0  0  0
  195.8440  173.2830  144.4010 C   0  0  0  0  0  1  0  0  0  0  0  0
  193.4410  175.8760  142.9760 C   0  0  0  0  0  3  0  0  0  0  0  0
  192.9220  176.4200  144.1520 C   0  0  0  0  0  3  0  0  0  0  0  0
  194.8500  174.3890  144.2800 C   0  0  0  0  0  0  0  0  0  0  0  0
  194.3260  174.9380  145.4540 C   0  0  0  0  0  3  0  0  0  0  0  0
  193.3640  175.9530  145.3950 C   0  0  0  0  0  0  0  0  0  0  0  0
  194.4080  174.8570  143.0230 C   0  0  0  0  0  0  0  0  0  0  0  0
  192.8300  176.5430  146.6580 C   0  0  0  0  0  3  0  0  0  0  0  0
  193.8470  177.1450  147.3780 F   0  0  0  0  0  0  0  0  0  0  0  0
  192.2360  175.5570  147.4250 F   0  0  0  0  0  0  0  0  0  0  0  0
  190.6040  172.6650  139.6890 C   0  0  0  0  0  2  0  0  0  0  0  0
  189.1300  172.6500  140.0590 C   0  0  2  0  0  3  0  0  0  0  0  0
  188.4380  171.9120  139.1150 F   0  0  0  0  0  0  0  0  0  0  0  0
  188.6380  173.9600  140.0910 O   0  0  0  0  0  0  0  0  0  0  0  0
  188.7680  174.5090  143.8180 C   0  0  2  0  0  3  0  0  0  0  0  0
  189.1350  174.5230  141.2700 C   0  0  1  0  0  3  0  0  0  0  0  0
  187.2620  176.1830  141.5290 C   0  0  0  0  0  2  0  0  0  0  0  0
  188.7760  176.0200  141.3650 C   0  0  1  0  0  3  0  0  0  0  0  0
  189.3810  176.5260  142.5940 N   0  0  0  0  0  0  0  0  0  0  0  0
  189.4240  177.9880  142.4980 C   0  0  0  0  0  1  0  0  0  0  0  0
  188.5870  173.7410  142.4820 C   0  0  0  0  0  2  0  0  0  0  0  0
  187.0430  176.1600  143.0340 C   0  0  0  0  0  2  0  0  0  0  0  0
  188.4510  176.0280  143.6250 C   0  0  1  0  0  0  0  0  0  0  0  0
  190.9550  173.4480  143.5820 O   0  0  0  0  0  1  0  0  0  0  0  0
  190.1750  174.2620  144.4160 C   0  0  2  0  0  3  0  0  0  0  0  0
  190.0620  173.5820  145.7650 C   0  0  0  0  0  1  0  0  0  0  0  0
  188.5690  176.7600  144.9850 C   0  0  0  0  0  2  0  0  0  0  0  0
  187.6790  176.2010  146.0890 C   0  0  0  0  0  2  0  0  0  0  0  0
  186.3870  176.9900  146.1400 C   0  0  0  0  0  2  0  0  0  0  0  0
  185.0950  178.6390  147.4480 C   0  0  0  0  0  1  0  0  0  0  0  0
  186.4450  177.9720  147.2910 C   0  0  0  0  0  2  0  0  0  0  0  0
  1  8  1  0  0  0  0
  1 35  1  1  0  0  0
  2  6  1  0  0  0  0
  3  4  1  0  0  0  0
  3  1  1  0  0  0  0
  5  2  2  0  0  0  0
  5  7  1  0  0  0  0
  6  4  2  0  0  0  0
  7  3  2  0  0  0  0
  8 11  1  0  0  0  0
  9  8  2  0  0  0  0
 11 10  1  6  0  0  0
 12 17  2  0  0  0  0
 13 14  1  6  0  0  0
 13 22  1  0  0  0  0
 16 15  1  0  0  0  0
 16 18  1  0  0  0  0
 17 11  1  0  0  0  0
 17 23  1  0  0  0  0
 18 14  2  0  0  0  0
 19 15  1  6  0  0  0
 19 23  1  0  0  0  0
 19 13  1  0  0  0  0
 21 31  1  0  0  0  0
 22 21  1  0  0  0  0
 23 24  1  0  0  0  0
 24 20  2  0  0  0  0
 24 21  1  0  0  0  0
 26 31  2  0  0  0  0
 26 27  1  0  0  0  0
 27 30  2  0  0  0  0
 28 25  1  0  0  0  0
 28 29  2  0  0  0  0
 30 29  1  0  0  0  0
 30 32  1  0  0  0  0
 31 28  1  0  0  0  0
 32 33  1  0  0  0  0
 32 34  1  0  0  0  0
 35 36  1  0  0  0  0
 36 37  1  6  0  0  0
 36 38  1  0  0  0  0
 39 49  1  6  0  0  0
 40 38  1  6  0  0  0
 40 42  1  0  0  0  0
 40 45  1  0  0  0  0
 41 46  1  0  0  0  0
 42 41  1  1  0  0  0
 42 43  1  0  0  0  0
 43 47  1  0  0  0  0
 44 43  1  0  0  0  0
 45 39  1  0  0  0  0
 46 47  1  0  0  0  0
 47 39  1  0  0  0  0
 47 51  1  1  0  0  0
 48 49  1  0  0  0  0
 49 50  1  1  0  0  0
 51 52  1  0  0  0  0
 52 53  1  0  0  0  0
 53 55  1  0  0  0  0
 55 54  1  0  0  0  0
M  END
>  <MODEL>
7

>  <REMARK>
 VINA RESULT:      -5.9      2.660      7.819
  Name = 
  15 active torsions:
  status: ('A' for Active; 'I' for Inactive)
    1  A    between atoms: C_1  and  C_21
    2  A    between atoms: C_3  and  C_25
    3  A    between atoms: C_3  and  C_38
    4  A    between atoms: C_6  and  O_22
    5  A    between atoms: C_8  and  O_22
    6  A    between atoms: C_8  and  C_54
    7  A    between atoms: C_10  and  C_48
    8  A    between atoms: C_19  and  C_37
    9  A    between atoms: C_27  and  C_51
   10  A    between atoms: C_29  and  C_38
   11  A    between atoms: C_29  and  C_53
   12  A    between atoms: N_33  and  C_52
   13  A    between atoms: C_35  and  C_37
   14  A    between atoms: C_35  and  C_51
   15  A    between atoms: C_51  and  C_54
                            x       y       z     vdW  Elec       q    Type
                         _______ _______ _______ _____ _____    ______ ____

>  <TORSDO>
F 15

$$$$
=
 OpenBabel11052419403D

 55 60  0  0  1  0  0  0  0  0999 V2000
  190.2410  172.6690  139.1060 C   0  0  1  0  0  3  0  0  0  0  0  0
  190.1440  175.1210  135.5660 C   0  0  0  0  0  3  0  0  0  0  0  0
  190.2260  173.5450  137.8840 C   0  0  0  0  0  0  0  0  0  0  0  0
  189.0050  173.8060  137.2510 C   0  0  0  0  0  3  0  0  0  0  0  0
  191.3670  174.8560  136.1880 C   0  0  0  0  0  3  0  0  0  0  0  0
  188.9630  174.5950  136.0970 C   0  0  0  0  0  3  0  0  0  0  0  0
  191.4100  174.0670  137.3420 C   0  0  0  0  0  3  0  0  0  0  0  0
  191.1650  171.4960  138.9610 C   0  0  0  0  0  0  0  0  0  0  0  0
  190.8560  170.6020  138.1850 O   0  0  0  0  0  0  0  0  0  0  0  0
  192.6110  170.0410  140.1700 O   0  0  0  0  0  1  0  0  0  0  0  0
  192.4010  171.3730  139.8170 C   0  0  1  0  0  3  0  0  0  0  0  0
  193.8810  171.5650  137.9700 O   0  0  0  0  0  0  0  0  0  0  0  0
  196.7170  174.0000  139.8390 C   0  0  2  0  0  3  0  0  0  0  0  0
  197.7500  174.7090  138.9980 C   0  0  0  0  0  3  0  0  0  0  0  0
  195.0290  174.6280  138.0860 C   0  0  0  0  0  2  0  0  0  0  0  0
  196.1300  175.0560  137.1180 C   0  0  0  0  0  2  0  0  0  0  0  0
  193.6240  171.9370  139.1480 C   0  0  0  0  0  0  0  0  0  0  0  0
  197.4700  175.2270  137.7900 C   0  0  0  0  0  3  0  0  0  0  0  0
  195.5500  173.4990  138.9780 C   0  0  2  0  0  3  0  0  0  0  0  0
  193.3750  172.8630  141.8670 O   0  0  0  0  0  0  0  0  0  0  0  0
  195.1650  174.3530  141.7190 N   0  0  0  0  0  0  0  0  0  0  0  0
  196.2010  174.9700  140.8960 C   0  0  0  0  0  2  0  0  0  0  0  0
  194.4690  172.9220  139.7850 N   0  0  0  0  0  0  0  0  0  0  0  0
  194.2800  173.3670  141.1490 C   0  0  0  0  0  0  0  0  0  0  0  0
  196.4000  173.1640  144.1150 C   0  0  0  0  0  1  0  0  0  0  0  0
  194.0680  176.0210  143.1560 C   0  0  0  0  0  3  0  0  0  0  0  0
  193.8280  176.5890  144.4080 C   0  0  0  0  0  3  0  0  0  0  0  0
  195.5240  174.3680  144.1790 C   0  0  0  0  0  0  0  0  0  0  0  0
  195.2790  174.9420  145.4310 C   0  0  0  0  0  3  0  0  0  0  0  0
  194.4340  176.0510  145.5490 C   0  0  0  0  0  0  0  0  0  0  0  0
  194.9150  174.9080  143.0240 C   0  0  0  0  0  0  0  0  0  0  0  0
  194.2000  176.6650  146.8900 C   0  0  0  0  0  3  0  0  0  0  0  0
  192.8420  176.7780  147.1390 F   0  0  0  0  0  0  0  0  0  0  0  0
  194.7900  177.9140  146.9470 F   0  0  0  0  0  0  0  0  0  0  0  0
  190.5230  173.4310  140.4020 C   0  0  0  0  0  2  0  0  0  0  0  0
  189.2360  173.7970  141.1220 C   0  0  2  0  0  3  0  0  0  0  0  0
  188.2200  172.9730  140.6730 F   0  0  0  0  0  0  0  0  0  0  0  0
  188.9120  175.1340  140.8610 O   0  0  0  0  0  0  0  0  0  0  0  0
  187.7430  177.7980  143.2580 C   0  0  2  0  0  3  0  0  0  0  0  0
  188.2960  175.6080  142.0230 C   0  0  1  0  0  3  0  0  0  0  0  0
  190.4490  176.0670  143.2420 C   0  0  0  0  0  2  0  0  0  0  0  0
  189.1370  175.2770  143.2720 C   0  0  1  0  0  3  0  0  0  0  0  0
  188.3900  175.7600  144.4300 N   0  0  0  0  0  0  0  0  0  0  0  0
  188.9370  175.0990  145.6180 C   0  0  0  0  0  1  0  0  0  0  0  0
  188.0630  177.1280  141.8960 C   0  0  0  0  0  2  0  0  0  0  0  0
  190.1190  177.3680  143.9590 C   0  0  0  0  0  2  0  0  0  0  0  0
  188.6550  177.2110  144.3860 C   0  0  1  0  0  0  0  0  0  0  0  0
  185.5750  176.8140  142.7200 O   0  0  0  0  0  1  0  0  0  0  0  0
  186.2350  177.6910  143.5910 C   0  0  2  0  0  3  0  0  0  0  0  0
  185.5740  179.0500  143.4820 C   0  0  0  0  0  1  0  0  0  0  0  0
  188.3680  177.9430  145.7200 C   0  0  0  0  0  2  0  0  0  0  0  0
  187.2530  177.3290  146.5570 C   0  0  0  0  0  2  0  0  0  0  0  0
  186.8540  178.2990  147.6500 C   0  0  0  0  0  2  0  0  0  0  0  0
  184.5720  177.9460  146.7740 C   0  0  0  0  0  1  0  0  0  0  0  0
  185.5590  178.9830  147.2650 C   0  0  0  0  0  2  0  0  0  0  0  0
  1 35  1  1  0  0  0
  2  6  2  0  0  0  0
  2  5  1  0  0  0  0
  3  1  1  0  0  0  0
  4  3  2  0  0  0  0
  5  7  2  0  0  0  0
  6  4  1  0  0  0  0
  7  3  1  0  0  0  0
  8  1  1  0  0  0  0
  8 11  1  0  0  0  0
  9  8  2  0  0  0  0
 11 10  1  6  0  0  0
 12 17  2  0  0  0  0
 13 14  1  6  0  0  0
 13 22  1  0  0  0  0
 16 18  1  0  0  0  0
 16 15  1  0  0  0  0
 17 23  1  0  0  0  0
 17 11  1  0  0  0  0
 18 14  2  0  0  0  0
 19 15  1  1  0  0  0
 19 23  1  0  0  0  0
 19 13  1  0  0  0  0
 21 31  1  0  0  0  0
 22 21  1  0  0  0  0
 23 24  1  0  0  0  0
 24 21  1  0  0  0  0
 24 20  2  0  0  0  0
 25 28  1  0  0  0  0
 26 27  1  0  0  0  0
 27 30  2  0  0  0  0
 28 29  2  0  0  0  0
 29 30  1  0  0  0  0
 30 32  1  0  0  0  0
 31 26  2  0  0  0  0
 31 28  1  0  0  0  0
 32 34  1  0  0  0  0
 32 33  1  0  0  0  0
 35 36  1  0  0  0  0
 36 37  1  6  0  0  0
 38 36  1  0  0  0  0
 39 49  1  1  0  0  0
 39 47  1  0  0  0  0
 40 38  1  6  0  0  0
 40 42  1  0  0  0  0
 41 46  1  0  0  0  0
 42 41  1  6  0  0  0
 42 43  1  0  0  0  0
 43 44  1  0  0  0  0
 45 40  1  0  0  0  0
 45 39  1  0  0  0  0
 46 47  1  0  0  0  0
 47 43  1  0  0  0  0
 47 51  1  1  0  0  0
 48 49  1  0  0  0  0
 49 50  1  6  0  0  0
 51 52  1  0  0  0  0
 52 53  1  0  0  0  0
 54 55  1  0  0  0  0
 55 53  1  0  0  0  0
M  END
>  <MODEL>
8

>  <REMARK>
 VINA RESULT:      -5.9      2.947      7.987
  Name = 
  15 active torsions:
  status: ('A' for Active; 'I' for Inactive)
    1  A    between atoms: C_1  and  C_21
    2  A    between atoms: C_3  and  C_25
    3  A    between atoms: C_3  and  C_38
    4  A    between atoms: C_6  and  O_22
    5  A    between atoms: C_8  and  O_22
    6  A    between atoms: C_8  and  C_54
    7  A    between atoms: C_10  and  C_48
    8  A    between atoms: C_19  and  C_37
    9  A    between atoms: C_27  and  C_51
   10  A    between atoms: C_29  and  C_38
   11  A    between atoms: C_29  and  C_53
   12  A    between atoms: N_33  and  C_52
   13  A    between atoms: C_35  and  C_37
   14  A    between atoms: C_35  and  C_51
   15  A    between atoms: C_51  and  C_54
                            x       y       z     vdW  Elec       q    Type
                         _______ _______ _______ _____ _____    ______ ____

>  <TORSDO>
F 15

$$$$
=
 OpenBabel11052419403D

 55 60  0  0  1  0  0  0  0  0999 V2000
  190.8930  171.8490  139.0980 C   0  0  1  0  0  3  0  0  0  0  0  0
  190.7990  168.1660  141.3290 C   0  0  0  0  0  3  0  0  0  0  0  0
  190.8330  170.5580  139.8650 C   0  0  0  0  0  0  0  0  0  0  0  0
  191.2130  170.5500  141.2110 C   0  0  0  0  0  3  0  0  0  0  0  0
  190.4270  168.1660  139.9820 C   0  0  0  0  0  3  0  0  0  0  0  0
  191.1940  169.3580  141.9430 C   0  0  0  0  0  3  0  0  0  0  0  0
  190.4470  169.3570  139.2490 C   0  0  0  0  0  3  0  0  0  0  0  0
  191.8550  171.7910  137.9480 C   0  0  0  0  0  0  0  0  0  0  0  0
  191.4800  172.1860  136.8530 O   0  0  0  0  0  0  0  0  0  0  0  0
  193.2360  169.8850  137.5930 O   0  0  0  0  0  1  0  0  0  0  0  0
  193.2230  171.1780  138.1120 C   0  0  1  0  0  3  0  0  0  0  0  0
  194.6130  171.7680  136.2800 O   0  0  0  0  0  0  0  0  0  0  0  0
  196.9600  174.5730  138.3020 C   0  0  2  0  0  3  0  0  0  0  0  0
  197.8280  175.5190  137.5080 C   0  0  0  0  0  3  0  0  0  0  0  0
  195.1590  174.9800  136.5970 C   0  0  0  0  0  2  0  0  0  0  0  0
  196.1450  175.6710  135.6580 C   0  0  0  0  0  2  0  0  0  0  0  0
  194.3060  172.0070  137.4800 C   0  0  0  0  0  0  0  0  0  0  0  0
  197.4370  176.0510  136.3380 C   0  0  0  0  0  3  0  0  0  0  0  0
  195.8980  173.9150  137.4110 C   0  0  2  0  0  3  0  0  0  0  0  0
  193.9260  172.6900  140.2560 O   0  0  0  0  0  0  0  0  0  0  0  0
  195.3970  174.5000  140.2040 N   0  0  0  0  0  0  0  0  0  0  0  0
  196.2850  175.3560  139.4220 C   0  0  0  0  0  2  0  0  0  0  0  0
  194.9580  173.0920  138.1800 N   0  0  0  0  0  0  0  0  0  0  0  0
  194.7080  173.4030  139.5710 C   0  0  0  0  0  0  0  0  0  0  0  0
  196.9130  173.4660  142.5080 C   0  0  0  0  0  1  0  0  0  0  0  0
  194.0030  175.8080  141.7520 C   0  0  0  0  0  3  0  0  0  0  0  0
  193.6770  176.2370  143.0400 C   0  0  0  0  0  3  0  0  0  0  0  0
  195.8010  174.4480  142.6560 C   0  0  0  0  0  0  0  0  0  0  0  0
  195.4680  174.8830  143.9430 C   0  0  0  0  0  3  0  0  0  0  0  0
  194.4090  175.7760  144.1390 C   0  0  0  0  0  0  0  0  0  0  0  0
  195.0650  174.9120  141.5430 C   0  0  0  0  0  0  0  0  0  0  0  0
  194.0810  176.2460  145.5170 C   0  0  0  0  0  3  0  0  0  0  0  0
  192.7750  176.7020  145.5740 F   0  0  0  0  0  0  0  0  0  0  0  0
  194.9450  177.2590  145.8890 F   0  0  0  0  0  0  0  0  0  0  0  0
  189.5240  172.3540  138.6410 C   0  0  0  0  0  2  0  0  0  0  0  0
  188.6650  172.7770  139.8210 C   0  0  2  0  0  3  0  0  0  0  0  0
  187.4400  172.1400  139.7360 F   0  0  0  0  0  0  0  0  0  0  0  0
  188.4800  174.1640  139.7990 O   0  0  0  0  0  0  0  0  0  0  0  0
  189.4180  174.2810  143.4480 C   0  0  2  0  0  3  0  0  0  0  0  0
  189.1660  174.6560  140.9140 C   0  0  1  0  0  3  0  0  0  0  0  0
  187.2090  175.9520  141.8210 C   0  0  0  0  0  2  0  0  0  0  0  0
  188.6500  176.0540  141.3100 C   0  0  1  0  0  3  0  0  0  0  0  0
  189.4570  176.5020  142.4410 N   0  0  0  0  0  0  0  0  0  0  0  0
  189.2870  177.9520  142.5620 C   0  0  0  0  0  1  0  0  0  0  0  0
  189.0260  173.6590  142.0820 C   0  0  0  0  0  2  0  0  0  0  0  0
  187.3570  175.7160  143.3170 C   0  0  0  0  0  2  0  0  0  0  0  0
  188.8700  175.7430  143.5620 C   0  0  1  0  0  0  0  0  0  0  0  0
  191.5820  173.4600  142.6730 O   0  0  0  0  0  1  0  0  0  0  0  0
  190.9460  174.1950  143.6830 C   0  0  2  0  0  3  0  0  0  0  0  0
  191.2380  173.5230  145.0090 C   0  0  0  0  0  1  0  0  0  0  0  0
  189.2110  176.3170  144.9590 C   0  0  0  0  0  2  0  0  0  0  0  0
  188.1720  176.0310  146.0370 C   0  0  0  0  0  2  0  0  0  0  0  0
  187.6400  177.3400  146.5810 C   0  0  0  0  0  2  0  0  0  0  0  0
  185.8550  178.7030  145.5560 C   0  0  0  0  0  1  0  0  0  0  0  0
  186.1530  177.4270  146.3140 C   0  0  0  0  0  2  0  0  0  0  0  0
  1 35  1  6  0  0  0
  1  3  1  0  0  0  0
  2  6  1  0  0  0  0
  3  4  1  0  0  0  0
  4  6  2  0  0  0  0
  5  2  2  0  0  0  0
  7  3  2  0  0  0  0
  7  5  1  0  0  0  0
  8 11  1  0  0  0  0
  8  1  1  0  0  0  0
  9  8  2  0  0  0  0
 11 10  1  6  0  0  0
 12 17  2  0  0  0  0
 13 14  1  6  0  0  0
 13 22  1  0  0  0  0
 16 18  1  0  0  0  0
 16 15  1  0  0  0  0
 17 11  1  0  0  0  0
 17 23  1  0  0  0  0
 18 14  2  0  0  0  0
 19 15  1  1  0  0  0
 19 23  1  0  0  0  0
 19 13  1  0  0  0  0
 21 31  1  0  0  0  0
 22 21  1  0  0  0  0
 23 24  1  0  0  0  0
 24 21  1  0  0  0  0
 24 20  2  0  0  0  0
 25 28  1  0  0  0  0
 26 27  1  0  0  0  0
 27 30  2  0  0  0  0
 28 29  2  0  0  0  0
 29 30  1  0  0  0  0
 30 32  1  0  0  0  0
 31 26  2  0  0  0  0
 31 28  1  0  0  0  0
 32 33  1  0  0  0  0
 32 34  1  0  0  0  0
 35 36  1  0  0  0  0
 36 37  1  6  0  0  0
 38 36  1  0  0  0  0
 39 47  1  0  0  0  0
 39 49  1  6  0  0  0
 40 38  1  6  0  0  0
 40 42  1  0  0  0  0
 40 45  1  0  0  0  0
 41 46  1  0  0  0  0
 42 41  1  1  0  0  0
 42 43  1  0  0  0  0
 43 44  1  0  0  0  0
 43 47  1  0  0  0  0
 45 39  1  0  0  0  0
 46 47  1  0  0  0  0
 47 51  1  1  0  0  0
 48 49  1  0  0  0  0
 49 50  1  1  0  0  0
 51 52  1  0  0  0  0
 52 53  1  0  0  0  0
 54 55  1  0  0  0  0
 55 53  1  0  0  0  0
M  END
>  <MODEL>
9

>  <REMARK>
 VINA RESULT:      -5.6      3.063      7.732
  Name = 
  15 active torsions:
  status: ('A' for Active; 'I' for Inactive)
    1  A    between atoms: C_1  and  C_21
    2  A    between atoms: C_3  and  C_25
    3  A    between atoms: C_3  and  C_38
    4  A    between atoms: C_6  and  O_22
    5  A    between atoms: C_8  and  O_22
    6  A    between atoms: C_8  and  C_54
    7  A    between atoms: C_10  and  C_48
    8  A    between atoms: C_19  and  C_37
    9  A    between atoms: C_27  and  C_51
   10  A    between atoms: C_29  and  C_38
   11  A    between atoms: C_29  and  C_53
   12  A    between atoms: N_33  and  C_52
   13  A    between atoms: C_35  and  C_37
   14  A    between atoms: C_35  and  C_51
   15  A    between atoms: C_51  and  C_54
                            x       y       z     vdW  Elec       q    Type
                         _______ _______ _______ _____ _____    ______ ____

>  <TORSDO>
F 15

$$$$
