=
 OpenBabel11052419093D

 32 35  0  0  1  0  0  0  0  0999 V2000
  188.3690  175.8840  142.8850 C   0  0  1  0  0  3  0  0  0  0  0  0
  190.6030  176.4720  144.1640 C   0  0  0  0  0  2  0  0  0  0  0  0
  187.8240  175.2570  141.6040 C   0  0  0  0  0  2  0  0  0  0  0  0
  189.8460  175.5400  143.2330 C   0  0  2  0  0  0  0  0  0  0  0  0
  192.9790  175.2370  143.2540 C   0  0  0  0  0  2  0  0  0  0  0  0
  192.2120  174.2610  145.4360 N   0  0  0  0  0  0  0  0  0  0  0  0
  190.6550  174.5170  142.3590 C   0  0  2  0  0  3  0  0  0  0  0  0
  193.0560  174.0740  144.2450 C   0  0  0  0  0  2  0  0  0  0  0  0
  192.1140  174.9270  142.0240 C   0  0  2  0  0  3  0  0  0  0  0  0
  189.9060  174.0920  141.0910 C   0  0  0  0  0  2  0  0  0  0  0  0
  189.9120  175.2530  144.7480 C   0  0  1  0  0  3  0  0  0  0  0  0
  188.4300  173.8930  141.3530 C   0  0  0  0  0  2  0  0  0  0  0  0
  190.7930  174.0270  145.1060 C   0  0  0  0  0  2  0  0  0  0  0  0
  193.1470  174.4810  139.8450 N   0  0  0  0  0  2  0  0  0  0  0  0
  194.1920  174.3150  140.8620 C   0  0  0  0  0  2  0  0  0  0  0  0
  192.8250  173.8880  141.1530 C   0  0  1  0  0  3  0  0  0  0  0  0
  191.7880  175.4450  147.5550 C   0  0  0  0  0  1  0  0  0  0  0  0
  192.4960  175.4880  146.2060 C   0  0  1  0  0  3  0  0  0  0  0  0
  194.4340  177.0630  146.1480 C   0  0  0  0  0  1  0  0  0  0  0  0
  193.9930  175.6430  146.4540 C   0  0  0  0  0  2  0  0  0  0  0  0
  188.1260  178.0090  141.6110 C   0  0  0  0  0  1  0  0  0  0  0  0
  187.9510  177.3660  142.9830 C   0  0  1  0  0  3  0  0  0  0  0  0
  186.5860  177.5670  143.5270 N   0  0  0  0  0  0  0  0  0  0  0  0
  185.5710  179.8000  143.8330 C   0  0  0  0  0  1  0  0  0  0  0  0
  185.8670  178.6710  142.8630 C   0  0  2  0  0  3  0  0  0  0  0  0
  184.6960  178.2410  142.2270 O   0  0  0  0  0  1  0  0  0  0  0  0
  186.6880  177.9400  144.9380 C   0  0  0  0  0  2  0  0  0  0  0  0
  186.3330  176.7660  145.8510 C   0  0  1  0  0  3  0  0  0  0  0  0
  187.4010  176.5070  146.9050 C   0  0  0  0  0  2  0  0  0  0  0  0
  188.3950  177.4620  146.8140 F   0  0  0  0  0  0  0  0  0  0  0  0
  184.8920  178.4820  147.3100 S   0  0  0  0  0  1  0  0  0  0  0  0
  185.0060  176.9340  146.4490 N   0  0  0  0  0  2  0  0  0  0  0  0
  1 22  1  6  0  0  0
  1  4  1  0  0  0  0
  3  1  1  0  0  0  0
  4  2  1  6  0  0  0
  4 11  1  0  0  0  0
  5  8  1  0  0  0  0
  6 18  1  0  0  0  0
  7 10  1  6  0  0  0
  7  4  1  0  0  0  0
  8  6  1  0  0  0  0
  9  7  1  0  0  0  0
  9  5  1  1  0  0  0
 10 12  1  0  0  0  0
 11  2  1  1  0  0  0
 11 13  1  0  0  0  0
 12  3  1  0  0  0  0
 13  6  1  0  0  0  0
 14 15  1  0  0  0  0
 14 16  1  0  0  0  0
 16 15  1  1  0  0  0
 16  9  1  0  0  0  0
 18 20  1  0  0  0  0
 18 17  1  1  0  0  0
 19 20  1  0  0  0  0
 22 21  1  6  0  0  0
 22 23  1  0  0  0  0
 23 27  1  0  0  0  0
 25 23  1  0  0  0  0
 25 24  1  1  0  0  0
 26 25  1  0  0  0  0
 28 27  1  1  0  0  0
 28 32  1  0  0  0  0
 28 29  1  0  0  0  0
 30 29  1  0  0  0  0
 32 31  1  0  0  0  0
M  END
>  <MODEL>
1

>  <REMARK>
 VINA RESULT:      -6.4      0.000      0.000
  Name = 
  10 active torsions:
  status: ('A' for Active; 'I' for Inactive)
    1  A    between atoms: C_1  and  C_27
    2  A    between atoms: C_3  and  C_7
    3  A    between atoms: C_7  and  C_20
    4  A    between atoms: C_7  and  N_26
    5  A    between atoms: N_10  and  C_12
    6  A    between atoms: C_12  and  C_31
    7  A    between atoms: N_16  and  C_20
    8  A    between atoms: N_16  and  C_22
    9  A    between atoms: N_16  and  C_27
   10  A    between atoms: C_18  and  C_29
                            x       y       z     vdW  Elec       q    Type
                         _______ _______ _______ _____ _____    ______ ____

>  <TORSDO>
F 10

$$$$
=
 OpenBabel11052419093D

 32 35  0  0  1  0  0  0  0  0999 V2000
  190.4290  175.6100  144.8540 C   0  0  1  0  0  3  0  0  0  0  0  0
  189.0030  177.3520  143.4730 C   0  0  0  0  0  2  0  0  0  0  0  0
  190.5900  174.9900  146.2400 C   0  0  0  0  0  2  0  0  0  0  0  0
  189.0690  176.3150  144.5810 C   0  0  2  0  0  0  0  0  0  0  0  0
  186.5670  178.2260  144.6130 C   0  0  0  0  0  2  0  0  0  0  0  0
  186.1750  176.6650  142.6860 N   0  0  0  0  0  0  0  0  0  0  0  0
  187.9170  176.2680  145.6470 C   0  0  2  0  0  3  0  0  0  0  0  0
  185.5990  177.2910  143.8870 C   0  0  0  0  0  2  0  0  0  0  0  0
  187.1670  177.6070  145.8840 C   0  0  2  0  0  3  0  0  0  0  0  0
  188.3610  175.6530  146.9780 C   0  0  0  0  0  2  0  0  0  0  0  0
  188.6170  175.9180  143.1600 C   0  0  1  0  0  3  0  0  0  0  0  0
  189.2740  174.4650  146.7690 C   0  0  0  0  0  2  0  0  0  0  0  0
  187.1050  175.5840  143.0630 C   0  0  0  0  0  2  0  0  0  0  0  0
  186.3920  178.3690  148.0820 N   0  0  0  0  0  2  0  0  0  0  0  0
  185.3650  178.7500  147.1040 C   0  0  0  0  0  2  0  0  0  0  0  0
  186.0760  177.4830  146.9500 C   0  0  1  0  0  3  0  0  0  0  0  0
  187.0000  176.8900  140.3760 C   0  0  0  0  0  1  0  0  0  0  0  0
  186.6750  177.6170  141.6750 C   0  0  1  0  0  3  0  0  0  0  0  0
  184.5420  178.1380  140.4850 C   0  0  0  0  0  1  0  0  0  0  0  0
  185.6370  178.6930  141.3770 C   0  0  0  0  0  2  0  0  0  0  0  0
  192.5640  176.5770  145.6950 C   0  0  0  0  0  1  0  0  0  0  0  0
  191.7080  176.3730  144.4490 C   0  0  1  0  0  3  0  0  0  0  0  0
  192.4650  175.7270  143.3490 N   0  0  0  0  0  0  0  0  0  0  0  0
  192.5630  173.2590  143.4160 C   0  0  0  0  0  1  0  0  0  0  0  0
  191.8340  174.4780  142.8820 C   0  0  2  0  0  3  0  0  0  0  0  0
  191.7250  174.4220  141.4870 O   0  0  0  0  0  1  0  0  0  0  0  0
  193.7900  175.3530  143.8410 C   0  0  0  0  0  2  0  0  0  0  0  0
  194.8970  175.9220  142.9510 C   0  0  1  0  0  3  0  0  0  0  0  0
  196.0530  176.4950  143.7590 C   0  0  0  0  0  2  0  0  0  0  0  0
  196.8980  177.2110  142.9320 F   0  0  0  0  0  0  0  0  0  0  0  0
  195.0090  175.4900  140.3150 S   0  0  0  0  0  1  0  0  0  0  0  0
  195.3530  174.9390  141.9670 N   0  0  0  0  0  2  0  0  0  0  0  0
  1 22  1  1  0  0  0
  1  3  1  0  0  0  0
  3 12  1  0  0  0  0
  4  2  1  6  0  0  0
  4  1  1  0  0  0  0
  4  7  1  0  0  0  0
  6 13  1  0  0  0  0
  6  8  1  0  0  0  0
  7  9  1  0  0  0  0
  7 10  1  1  0  0  0
  8  5  1  0  0  0  0
  9  5  1  6  0  0  0
  9 16  1  0  0  0  0
 11 13  1  1  0  0  0
 11  2  1  0  0  0  0
 11  4  1  0  0  0  0
 12 10  1  0  0  0  0
 15 14  1  0  0  0  0
 16 15  1  6  0  0  0
 16 14  1  0  0  0  0
 18 17  1  6  0  0  0
 18  6  1  0  0  0  0
 19 20  1  0  0  0  0
 20 18  1  0  0  0  0
 22 21  1  1  0  0  0
 23 27  1  0  0  0  0
 23 22  1  0  0  0  0
 25 23  1  0  0  0  0
 25 24  1  6  0  0  0
 26 25  1  0  0  0  0
 28 29  1  1  0  0  0
 28 27  1  0  0  0  0
 30 29  1  0  0  0  0
 31 32  1  0  0  0  0
 32 28  1  0  0  0  0
M  END
>  <MODEL>
2

>  <REMARK>
 VINA RESULT:      -6.4      3.545      7.927
  Name = 
  10 active torsions:
  status: ('A' for Active; 'I' for Inactive)
    1  A    between atoms: C_1  and  C_27
    2  A    between atoms: C_3  and  C_7
    3  A    between atoms: C_7  and  C_20
    4  A    between atoms: C_7  and  N_26
    5  A    between atoms: N_10  and  C_12
    6  A    between atoms: C_12  and  C_31
    7  A    between atoms: N_16  and  C_20
    8  A    between atoms: N_16  and  C_22
    9  A    between atoms: N_16  and  C_27
   10  A    between atoms: C_18  and  C_29
                            x       y       z     vdW  Elec       q    Type
                         _______ _______ _______ _____ _____    ______ ____

>  <TORSDO>
F 10

$$$$
=
 OpenBabel11052419093D

 32 35  0  0  1  0  0  0  0  0999 V2000
  190.3970  175.5180  145.2180 C   0  0  1  0  0  3  0  0  0  0  0  0
  189.0840  177.2180  143.6810 C   0  0  0  0  0  2  0  0  0  0  0  0
  190.4700  174.9630  146.6390 C   0  0  0  0  0  2  0  0  0  0  0  0
  189.0680  176.2340  144.8380 C   0  0  2  0  0  0  0  0  0  0  0  0
  186.6100  178.1910  144.6440 C   0  0  0  0  0  2  0  0  0  0  0  0
  186.2870  176.5470  142.7750 N   0  0  0  0  0  0  0  0  0  0  0  0
  187.8610  176.2610  145.8420 C   0  0  2  0  0  3  0  0  0  0  0  0
  185.6620  177.2410  143.9120 C   0  0  0  0  0  2  0  0  0  0  0  0
  187.1280  177.6230  145.9740 C   0  0  2  0  0  3  0  0  0  0  0  0
  188.2190  175.7020  147.2220 C   0  0  0  0  0  2  0  0  0  0  0  0
  188.6850  175.7780  143.4150 C   0  0  1  0  0  3  0  0  0  0  0  0
  189.1170  174.4880  147.1190 C   0  0  0  0  0  2  0  0  0  0  0  0
  187.1730  175.4680  143.2530 C   0  0  0  0  0  2  0  0  0  0  0  0
  186.2760  178.4670  148.1130 N   0  0  0  0  0  2  0  0  0  0  0  0
  185.3190  178.8710  147.0760 C   0  0  0  0  0  2  0  0  0  0  0  0
  185.9790  177.5710  146.9840 C   0  0  1  0  0  3  0  0  0  0  0  0
  187.1650  176.6600  140.4760 C   0  0  0  0  0  1  0  0  0  0  0  0
  186.8610  177.4400  141.7490 C   0  0  1  0  0  3  0  0  0  0  0  0
  184.9030  178.1070  140.3500 C   0  0  0  0  0  1  0  0  0  0  0  0
  185.8940  178.5670  141.4030 C   0  0  0  0  0  2  0  0  0  0  0  0
  192.4620  176.5630  146.1340 C   0  0  0  0  0  1  0  0  0  0  0  0
  191.7110  176.2360  144.8480 C   0  0  1  0  0  3  0  0  0  0  0  0
  192.5510  175.4840  143.8840 N   0  0  0  0  0  0  0  0  0  0  0  0
  194.1000  176.1190  142.0650 C   0  0  0  0  0  1  0  0  0  0  0  0
  192.6750  176.1680  142.5830 C   0  0  2  0  0  3  0  0  0  0  0  0
  192.2050  177.4870  142.6250 O   0  0  0  0  0  1  0  0  0  0  0  0
  191.9160  174.1960  143.6060 C   0  0  0  0  0  2  0  0  0  0  0  0
  192.8770  173.0340  143.8600 C   0  0  1  0  0  3  0  0  0  0  0  0
  193.9600  173.3880  144.8710 C   0  0  0  0  0  2  0  0  0  0  0  0
  193.4320  173.3870  146.1480 F   0  0  0  0  0  0  0  0  0  0  0  0
  190.4110  172.0070  143.9780 S   0  0  0  0  0  1  0  0  0  0  0  0
  192.1580  171.8150  144.2350 N   0  0  0  0  0  2  0  0  0  0  0  0
  1 22  1  1  0  0  0
  1  3  1  0  0  0  0
  3 12  1  0  0  0  0
  4  2  1  6  0  0  0
  4  1  1  0  0  0  0
  4  7  1  0  0  0  0
  6 13  1  0  0  0  0
  6  8  1  0  0  0  0
  7  9  1  0  0  0  0
  7 10  1  1  0  0  0
  8  5  1  0  0  0  0
  9  5  1  6  0  0  0
  9 16  1  0  0  0  0
 11 13  1  1  0  0  0
 11  2  1  0  0  0  0
 11  4  1  0  0  0  0
 12 10  1  0  0  0  0
 15 14  1  0  0  0  0
 16 15  1  6  0  0  0
 16 14  1  0  0  0  0
 18 17  1  6  0  0  0
 18  6  1  0  0  0  0
 19 20  1  0  0  0  0
 20 18  1  0  0  0  0
 22 21  1  1  0  0  0
 23 22  1  0  0  0  0
 25 24  1  1  0  0  0
 25 26  1  0  0  0  0
 25 23  1  0  0  0  0
 27 23  1  0  0  0  0
 28 27  1  1  0  0  0
 28 32  1  0  0  0  0
 28 29  1  0  0  0  0
 29 30  1  0  0  0  0
 31 32  1  0  0  0  0
M  END
>  <MODEL>
3

>  <REMARK>
 VINA RESULT:      -6.4      2.982      7.434
  Name = 
  10 active torsions:
  status: ('A' for Active; 'I' for Inactive)
    1  A    between atoms: C_1  and  C_27
    2  A    between atoms: C_3  and  C_7
    3  A    between atoms: C_7  and  C_20
    4  A    between atoms: C_7  and  N_26
    5  A    between atoms: N_10  and  C_12
    6  A    between atoms: C_12  and  C_31
    7  A    between atoms: N_16  and  C_20
    8  A    between atoms: N_16  and  C_22
    9  A    between atoms: N_16  and  C_27
   10  A    between atoms: C_18  and  C_29
                            x       y       z     vdW  Elec       q    Type
                         _______ _______ _______ _____ _____    ______ ____

>  <TORSDO>
F 10

$$$$
=
 OpenBabel11052419093D

 32 35  0  0  1  0  0  0  0  0999 V2000
  190.5240  175.5210  145.2890 C   0  0  1  0  0  3  0  0  0  0  0  0
  189.2190  177.1740  143.6960 C   0  0  0  0  0  2  0  0  0  0  0  0
  190.5670  174.9800  146.7170 C   0  0  0  0  0  2  0  0  0  0  0  0
  189.1910  176.2010  144.8630 C   0  0  2  0  0  0  0  0  0  0  0  0
  186.6940  178.0970  144.5740 C   0  0  0  0  0  2  0  0  0  0  0  0
  186.4680  176.4280  142.7130 N   0  0  0  0  0  0  0  0  0  0  0  0
  187.9530  176.2080  145.8280 C   0  0  2  0  0  3  0  0  0  0  0  0
  185.7920  177.1170  143.8230 C   0  0  0  0  0  2  0  0  0  0  0  0
  187.1850  177.5530  145.9250 C   0  0  2  0  0  3  0  0  0  0  0  0
  188.2820  175.6710  147.2250 C   0  0  0  0  0  2  0  0  0  0  0  0
  188.8620  175.7220  143.4330 C   0  0  1  0  0  3  0  0  0  0  0  0
  189.2110  174.4780  147.1610 C   0  0  0  0  0  2  0  0  0  0  0  0
  187.3640  175.3750  143.2280 C   0  0  0  0  0  2  0  0  0  0  0  0
  186.2580  178.3810  148.0390 N   0  0  0  0  0  2  0  0  0  0  0  0
  185.3270  178.7740  146.9740 C   0  0  0  0  0  2  0  0  0  0  0  0
  186.0070  177.4830  146.9000 C   0  0  1  0  0  3  0  0  0  0  0  0
  187.3480  176.5540  140.4150 C   0  0  0  0  0  1  0  0  0  0  0  0
  187.0520  177.3240  141.6960 C   0  0  1  0  0  3  0  0  0  0  0  0
  185.1180  178.0350  140.2830 C   0  0  0  0  0  1  0  0  0  0  0  0
  186.0970  178.4650  141.3600 C   0  0  0  0  0  2  0  0  0  0  0  0
  192.5260  176.6400  146.2580 C   0  0  0  0  0  1  0  0  0  0  0  0
  191.8320  176.2670  144.9520 C   0  0  1  0  0  3  0  0  0  0  0  0
  192.7270  175.5180  144.0360 N   0  0  0  0  0  0  0  0  0  0  0  0
  191.9520  174.7280  141.8260 C   0  0  0  0  0  1  0  0  0  0  0  0
  192.5280  175.8850  142.6210 C   0  0  2  0  0  3  0  0  0  0  0  0
  193.6980  176.3680  142.0240 O   0  0  0  0  0  1  0  0  0  0  0  0
  192.4170  174.0920  144.1310 C   0  0  0  0  0  2  0  0  0  0  0  0
  193.4930  173.3390  144.9160 C   0  0  1  0  0  3  0  0  0  0  0  0
  193.3700  171.8290  144.7670 C   0  0  0  0  0  2  0  0  0  0  0  0
  194.0930  171.1960  145.7590 F   0  0  0  0  0  0  0  0  0  0  0  0
  195.4020  173.0800  143.0620 S   0  0  0  0  0  1  0  0  0  0  0  0
  194.8360  173.8140  144.5760 N   0  0  0  0  0  2  0  0  0  0  0  0
  1 22  1  1  0  0  0
  1  3  1  0  0  0  0
  3 12  1  0  0  0  0
  4  2  1  6  0  0  0
  4  1  1  0  0  0  0
  4  7  1  0  0  0  0
  6 13  1  0  0  0  0
  6  8  1  0  0  0  0
  7  9  1  0  0  0  0
  7 10  1  1  0  0  0
  8  5  1  0  0  0  0
  9  5  1  6  0  0  0
  9 16  1  0  0  0  0
 11 13  1  1  0  0  0
 11  2  1  0  0  0  0
 11  4  1  0  0  0  0
 12 10  1  0  0  0  0
 15 14  1  0  0  0  0
 16 15  1  6  0  0  0
 16 14  1  0  0  0  0
 18 17  1  6  0  0  0
 18  6  1  0  0  0  0
 19 20  1  0  0  0  0
 20 18  1  0  0  0  0
 22 21  1  1  0  0  0
 23 27  1  0  0  0  0
 23 22  1  0  0  0  0
 25 24  1  6  0  0  0
 25 23  1  0  0  0  0
 26 25  1  0  0  0  0
 28 27  1  6  0  0  0
 29 28  1  0  0  0  0
 29 30  1  0  0  0  0
 31 32  1  0  0  0  0
 32 28  1  0  0  0  0
M  END
>  <MODEL>
4

>  <REMARK>
 VINA RESULT:      -6.2      3.553      7.710
  Name = 
  10 active torsions:
  status: ('A' for Active; 'I' for Inactive)
    1  A    between atoms: C_1  and  C_27
    2  A    between atoms: C_3  and  C_7
    3  A    between atoms: C_7  and  C_20
    4  A    between atoms: C_7  and  N_26
    5  A    between atoms: N_10  and  C_12
    6  A    between atoms: C_12  and  C_31
    7  A    between atoms: N_16  and  C_20
    8  A    between atoms: N_16  and  C_22
    9  A    between atoms: N_16  and  C_27
   10  A    between atoms: C_18  and  C_29
                            x       y       z     vdW  Elec       q    Type
                         _______ _______ _______ _____ _____    ______ ____

>  <TORSDO>
F 10

$$$$
=
 OpenBabel11052419093D

 32 35  0  0  1  0  0  0  0  0999 V2000
  190.3540  175.5540  144.5920 C   0  0  1  0  0  3  0  0  0  0  0  0
  188.9090  177.3360  143.2850 C   0  0  0  0  0  2  0  0  0  0  0  0
  190.5970  174.9560  145.9770 C   0  0  0  0  0  2  0  0  0  0  0  0
  189.0130  176.3210  144.4110 C   0  0  2  0  0  0  0  0  0  0  0  0
  186.6200  178.3580  144.5940 C   0  0  0  0  0  2  0  0  0  0  0  0
  185.9950  176.7780  142.7470 N   0  0  0  0  0  0  0  0  0  0  0  0
  187.9510  176.3570  145.5670 C   0  0  2  0  0  3  0  0  0  0  0  0
  185.5500  177.4590  143.9730 C   0  0  0  0  0  2  0  0  0  0  0  0
  187.2900  177.7370  145.8290 C   0  0  2  0  0  3  0  0  0  0  0  0
  188.4700  175.7490  146.8740 C   0  0  0  0  0  2  0  0  0  0  0  0
  188.4280  175.9170  143.0420 C   0  0  1  0  0  3  0  0  0  0  0  0
  189.3040  174.5110  146.6230 C   0  0  0  0  0  2  0  0  0  0  0  0
  186.8980  175.6590  143.0760 C   0  0  0  0  0  2  0  0  0  0  0  0
  186.6930  178.6440  148.0280 N   0  0  0  0  0  2  0  0  0  0  0  0
  185.5960  178.9750  147.1100 C   0  0  0  0  0  2  0  0  0  0  0  0
  186.2850  177.6920  146.9820 C   0  0  1  0  0  3  0  0  0  0  0  0
  186.7140  176.8970  140.3930 C   0  0  0  0  0  1  0  0  0  0  0  0
  186.4580  177.6810  141.6750 C   0  0  1  0  0  3  0  0  0  0  0  0
  184.3180  178.1990  140.4960 C   0  0  0  0  0  1  0  0  0  0  0  0
  185.4180  178.7570  141.3790 C   0  0  0  0  0  2  0  0  0  0  0  0
  192.2030  177.1150  145.1780 C   0  0  0  0  0  1  0  0  0  0  0  0
  191.6320  176.2410  144.0670 C   0  0  1  0  0  3  0  0  0  0  0  0
  192.6380  175.2950  143.5250 N   0  0  0  0  0  0  0  0  0  0  0  0
  194.9080  176.0420  142.8950 C   0  0  0  0  0  1  0  0  0  0  0  0
  194.0010  175.5710  144.0170 C   0  0  2  0  0  3  0  0  0  0  0  0
  194.5620  174.4760  144.6850 O   0  0  0  0  0  1  0  0  0  0  0  0
  192.6940  175.4440  142.0710 C   0  0  0  0  0  2  0  0  0  0  0  0
  192.3470  174.1330  141.3630 C   0  0  1  0  0  3  0  0  0  0  0  0
  190.8450  173.8890  141.2990 C   0  0  0  0  0  2  0  0  0  0  0  0
  190.4520  173.0880  142.3540 F   0  0  0  0  0  0  0  0  0  0  0  0
  191.8310  173.4040  138.8420 S   0  0  0  0  0  1  0  0  0  0  0  0
  192.9680  174.0580  140.0390 N   0  0  0  0  0  2  0  0  0  0  0  0
  1 22  1  1  0  0  0
  1  3  1  0  0  0  0
  3 12  1  0  0  0  0
  4  2  1  6  0  0  0
  4  1  1  0  0  0  0
  4  7  1  0  0  0  0
  6 13  1  0  0  0  0
  6  8  1  0  0  0  0
  7  9  1  0  0  0  0
  7 10  1  1  0  0  0
  8  5  1  0  0  0  0
  9  5  1  6  0  0  0
  9 16  1  0  0  0  0
 11 13  1  1  0  0  0
 11  2  1  0  0  0  0
 11  4  1  0  0  0  0
 12 10  1  0  0  0  0
 15 14  1  0  0  0  0
 16 15  1  6  0  0  0
 16 14  1  0  0  0  0
 18 17  1  6  0  0  0
 18  6  1  0  0  0  0
 19 20  1  0  0  0  0
 20 18  1  0  0  0  0
 22 21  1  1  0  0  0
 23 25  1  0  0  0  0
 23 22  1  0  0  0  0
 25 24  1  6  0  0  0
 25 26  1  0  0  0  0
 27 23  1  0  0  0  0
 28 29  1  6  0  0  0
 28 27  1  0  0  0  0
 29 30  1  0  0  0  0
 31 32  1  0  0  0  0
 32 28  1  0  0  0  0
M  END
>  <MODEL>
5

>  <REMARK>
 VINA RESULT:      -6.0      3.452      7.830
  Name = 
  10 active torsions:
  status: ('A' for Active; 'I' for Inactive)
    1  A    between atoms: C_1  and  C_27
    2  A    between atoms: C_3  and  C_7
    3  A    between atoms: C_7  and  C_20
    4  A    between atoms: C_7  and  N_26
    5  A    between atoms: N_10  and  C_12
    6  A    between atoms: C_12  and  C_31
    7  A    between atoms: N_16  and  C_20
    8  A    between atoms: N_16  and  C_22
    9  A    between atoms: N_16  and  C_27
   10  A    between atoms: C_18  and  C_29
                            x       y       z     vdW  Elec       q    Type
                         _______ _______ _______ _____ _____    ______ ____

>  <TORSDO>
F 10

$$$$
=
 OpenBabel11052419093D

 32 35  0  0  1  0  0  0  0  0999 V2000
  189.1150  176.6420  144.2730 C   0  0  1  0  0  3  0  0  0  0  0  0
  189.9350  174.1700  144.7060 C   0  0  0  0  0  2  0  0  0  0  0  0
  189.5620  178.1030  144.3180 C   0  0  0  0  0  2  0  0  0  0  0  0
  190.2570  175.5850  144.2580 C   0  0  2  0  0  0  0  0  0  0  0  0
  192.7210  173.7530  144.9500 C   0  0  0  0  0  2  0  0  0  0  0  0
  191.8470  172.8780  142.7650 N   0  0  0  0  0  0  0  0  0  0  0  0
  191.7590  176.0340  144.1770 C   0  0  2  0  0  3  0  0  0  0  0  0
  193.0350  173.3020  143.5220 C   0  0  0  0  0  2  0  0  0  0  0  0
  192.7360  175.2790  145.1190 C   0  0  2  0  0  3  0  0  0  0  0  0
  191.9380  177.5490  144.3130 C   0  0  0  0  0  2  0  0  0  0  0  0
  189.8740  174.5030  143.2260 C   0  0  1  0  0  3  0  0  0  0  0  0
  190.8600  178.3080  143.5710 C   0  0  0  0  0  2  0  0  0  0  0  0
  191.0620  174.0510  142.3370 C   0  0  0  0  0  2  0  0  0  0  0  0
  194.5660  176.4640  146.2430 N   0  0  0  0  0  2  0  0  0  0  0  0
  195.0420  175.1060  145.9530 C   0  0  0  0  0  2  0  0  0  0  0  0
  194.1740  175.7880  144.9950 C   0  0  1  0  0  3  0  0  0  0  0  0
  190.0960  171.1860  142.3880 C   0  0  0  0  0  1  0  0  0  0  0  0
  191.0760  171.7850  143.3900 C   0  0  1  0  0  3  0  0  0  0  0  0
  192.3300  169.7230  142.7460 C   0  0  0  0  0  1  0  0  0  0  0  0
  192.0010  170.6750  143.8810 C   0  0  0  0  0  2  0  0  0  0  0  0
  188.5090  176.3630  146.6720 C   0  0  0  0  0  1  0  0  0  0  0  0
  187.9490  176.4020  145.2540 C   0  0  1  0  0  3  0  0  0  0  0  0
  186.8410  177.3790  145.1160 N   0  0  0  0  0  0  0  0  0  0  0  0
  184.8240  177.0730  146.5110 C   0  0  0  0  0  1  0  0  0  0  0  0
  186.2020  177.7000  146.4060 C   0  0  2  0  0  3  0  0  0  0  0  0
  186.1420  179.0780  146.6450 O   0  0  0  0  0  1  0  0  0  0  0  0
  185.7940  176.7930  144.2790 C   0  0  0  0  0  2  0  0  0  0  0  0
  185.7460  177.4560  142.9010 C   0  0  1  0  0  3  0  0  0  0  0  0
  186.1900  178.9120  142.9420 C   0  0  0  0  0  2  0  0  0  0  0  0
  185.2520  179.6730  143.6120 F   0  0  0  0  0  0  0  0  0  0  0  0
  186.5540  177.5390  140.3540 S   0  0  0  0  0  1  0  0  0  0  0  0
  186.4960  176.6840  141.9090 N   0  0  0  0  0  2  0  0  0  0  0  0
  1  3  1  0  0  0  0
  1 22  1  1  0  0  0
  4  1  1  0  0  0  0
  4  2  1  1  0  0  0
  6 18  1  0  0  0  0
  6  8  1  0  0  0  0
  7  4  1  0  0  0  0
  7 10  1  1  0  0  0
  7  9  1  0  0  0  0
  8  5  1  0  0  0  0
  9  5  1  6  0  0  0
 11 13  1  6  0  0  0
 11  4  1  0  0  0  0
 11  2  1  0  0  0  0
 12 10  1  0  0  0  0
 12  3  1  0  0  0  0
 13  6  1  0  0  0  0
 15 14  1  0  0  0  0
 16  9  1  0  0  0  0
 16 15  1  1  0  0  0
 16 14  1  0  0  0  0
 18 17  1  6  0  0  0
 18 20  1  0  0  0  0
 19 20  1  0  0  0  0
 22 21  1  1  0  0  0
 23 22  1  0  0  0  0
 23 25  1  0  0  0  0
 25 24  1  6  0  0  0
 25 26  1  0  0  0  0
 27 23  1  0  0  0  0
 28 29  1  1  0  0  0
 28 27  1  0  0  0  0
 29 30  1  0  0  0  0
 31 32  1  0  0  0  0
 32 28  1  0  0  0  0
M  END
>  <MODEL>
6

>  <REMARK>
 VINA RESULT:      -6.0      2.583      4.411
  Name = 
  10 active torsions:
  status: ('A' for Active; 'I' for Inactive)
    1  A    between atoms: C_1  and  C_27
    2  A    between atoms: C_3  and  C_7
    3  A    between atoms: C_7  and  C_20
    4  A    between atoms: C_7  and  N_26
    5  A    between atoms: N_10  and  C_12
    6  A    between atoms: C_12  and  C_31
    7  A    between atoms: N_16  and  C_20
    8  A    between atoms: N_16  and  C_22
    9  A    between atoms: N_16  and  C_27
   10  A    between atoms: C_18  and  C_29
                            x       y       z     vdW  Elec       q    Type
                         _______ _______ _______ _____ _____    ______ ____

>  <TORSDO>
F 10

$$$$
=
 OpenBabel11052419093D

 32 35  0  0  1  0  0  0  0  0999 V2000
  188.8020  175.5190  141.8870 C   0  0  1  0  0  3  0  0  0  0  0  0
  189.6620  175.0140  144.3320 C   0  0  0  0  0  2  0  0  0  0  0  0
  187.6310  176.1060  141.1010 C   0  0  0  0  0  2  0  0  0  0  0  0
  188.8700  175.9080  143.3920 C   0  0  2  0  0  0  0  0  0  0  0  0
  188.3170  176.2910  146.4670 C   0  0  0  0  0  2  0  0  0  0  0  0
  190.5870  177.2910  146.0810 N   0  0  0  0  0  0  0  0  0  0  0  0
  187.8480  176.9330  143.9990 C   0  0  2  0  0  3  0  0  0  0  0  0
  189.2590  177.4750  146.6880 C   0  0  0  0  0  2  0  0  0  0  0  0
  187.2590  176.5540  145.3850 C   0  0  2  0  0  3  0  0  0  0  0  0
  186.7310  177.3130  143.0210 C   0  0  0  0  0  2  0  0  0  0  0  0
  190.3430  176.2270  143.7230 C   0  0  1  0  0  3  0  0  0  0  0  0
  187.2540  177.4790  141.6110 C   0  0  0  0  0  2  0  0  0  0  0  0
  190.5160  177.4820  144.6190 C   0  0  0  0  0  2  0  0  0  0  0  0
  184.9620  176.9430  146.1500 N   0  0  0  0  0  2  0  0  0  0  0  0
  185.8540  177.2820  147.2660 C   0  0  0  0  0  2  0  0  0  0  0  0
  186.2580  177.5930  145.8960 C   0  0  1  0  0  3  0  0  0  0  0  0
  192.7900  176.1920  146.1820 C   0  0  0  0  0  1  0  0  0  0  0  0
  191.3110  176.0880  146.5350 C   0  0  1  0  0  3  0  0  0  0  0  0
  191.6450  177.1710  148.7600 C   0  0  0  0  0  1  0  0  0  0  0  0
  191.1880  175.9130  148.0450 C   0  0  0  0  0  2  0  0  0  0  0  0
  187.6620  173.3120  141.7160 C   0  0  0  0  0  1  0  0  0  0  0  0
  188.9960  174.0290  141.5370 C   0  0  1  0  0  3  0  0  0  0  0  0
  189.5780  173.8030  140.1910 N   0  0  0  0  0  0  0  0  0  0  0  0
  189.3430  171.7990  138.7630 C   0  0  0  0  0  1  0  0  0  0  0  0
  188.6740  173.0510  139.3000 C   0  0  2  0  0  3  0  0  0  0  0  0
  188.1760  173.8380  138.2550 O   0  0  0  0  0  1  0  0  0  0  0  0
  190.7840  172.9860  140.3270 C   0  0  0  0  0  2  0  0  0  0  0  0
  191.1900  172.8320  141.7940 C   0  0  1  0  0  3  0  0  0  0  0  0
  191.2090  171.3770  142.2410 C   0  0  0  0  0  2  0  0  0  0  0  0
  189.9670  171.0160  142.7270 F   0  0  0  0  0  0  0  0  0  0  0  0
  192.9970  173.1840  143.7340 S   0  0  0  0  0  1  0  0  0  0  0  0
  192.4610  173.5050  142.0720 N   0  0  0  0  0  2  0  0  0  0  0  0
  1 22  1  1  0  0  0
  1  4  1  0  0  0  0
  3 12  1  0  0  0  0
  3  1  1  0  0  0  0
  4 11  1  0  0  0  0
  4  7  1  0  0  0  0
  4  2  1  1  0  0  0
  5  8  1  0  0  0  0
  6 18  1  0  0  0  0
  6  8  1  0  0  0  0
  7 10  1  6  0  0  0
  7  9  1  0  0  0  0
  9 16  1  0  0  0  0
  9  5  1  1  0  0  0
 11  2  1  1  0  0  0
 11 13  1  0  0  0  0
 12 10  1  0  0  0  0
 13  6  1  0  0  0  0
 14 15  1  0  0  0  0
 16 14  1  0  0  0  0
 16 15  1  1  0  0  0
 18 17  1  1  0  0  0
 18 20  1  0  0  0  0
 20 19  1  0  0  0  0
 22 21  1  6  0  0  0
 23 27  1  0  0  0  0
 23 22  1  0  0  0  0
 25 24  1  6  0  0  0
 25 23  1  0  0  0  0
 26 25  1  0  0  0  0
 28 27  1  6  0  0  0
 28 32  1  0  0  0  0
 28 29  1  0  0  0  0
 29 30  1  0  0  0  0
 32 31  1  0  0  0  0
M  END
>  <MODEL>
7

>  <REMARK>
 VINA RESULT:      -5.9      3.135      6.228
  Name = 
  10 active torsions:
  status: ('A' for Active; 'I' for Inactive)
    1  A    between atoms: C_1  and  C_27
    2  A    between atoms: C_3  and  C_7
    3  A    between atoms: C_7  and  C_20
    4  A    between atoms: C_7  and  N_26
    5  A    between atoms: N_10  and  C_12
    6  A    between atoms: C_12  and  C_31
    7  A    between atoms: N_16  and  C_20
    8  A    between atoms: N_16  and  C_22
    9  A    between atoms: N_16  and  C_27
   10  A    between atoms: C_18  and  C_29
                            x       y       z     vdW  Elec       q    Type
                         _______ _______ _______ _____ _____    ______ ____

>  <TORSDO>
F 10

$$$$
=
 OpenBabel11052419093D

 32 35  0  0  1  0  0  0  0  0999 V2000
  190.0450  175.8680  145.1520 C   0  0  1  0  0  3  0  0  0  0  0  0
  189.6790  173.7730  143.5860 C   0  0  0  0  0  2  0  0  0  0  0  0
  190.9870  176.4600  146.1990 C   0  0  0  0  0  2  0  0  0  0  0  0
  190.6390  174.7290  144.2740 C   0  0  2  0  0  0  0  0  0  0  0  0
  191.8830  172.0440  143.2000 C   0  0  0  0  0  2  0  0  0  0  0  0
  191.4210  173.4180  141.1510 N   0  0  0  0  0  0  0  0  0  0  0  0
  192.1500  174.3230  144.4080 C   0  0  2  0  0  3  0  0  0  0  0  0
  192.4020  172.5890  141.8690 C   0  0  0  0  0  2  0  0  0  0  0  0
  192.4370  172.7980  144.4190 C   0  0  2  0  0  3  0  0  0  0  0  0
  192.8530  175.0150  145.5800 C   0  0  0  0  0  2  0  0  0  0  0  0
  190.1890  174.9810  142.8200 C   0  0  1  0  0  3  0  0  0  0  0  0
  192.4210  176.4590  145.7190 C   0  0  0  0  0  2  0  0  0  0  0  0
  191.3140  174.7490  141.7770 C   0  0  0  0  0  2  0  0  0  0  0  0
  194.1560  171.7960  145.8520 N   0  0  0  0  0  2  0  0  0  0  0  0
  194.1490  171.0420  144.5920 C   0  0  0  0  0  2  0  0  0  0  0  0
  193.9280  172.4860  144.5720 C   0  0  1  0  0  3  0  0  0  0  0  0
  189.3330  173.5500  139.8490 C   0  0  0  0  0  1  0  0  0  0  0  0
  190.1420  172.7430  140.8570 C   0  0  1  0  0  3  0  0  0  0  0  0
  190.5410  171.4260  138.7730 C   0  0  0  0  0  1  0  0  0  0  0  0
  190.3780  171.3510  140.2800 C   0  0  0  0  0  2  0  0  0  0  0  0
  188.8120  175.1240  147.1840 C   0  0  0  0  0  1  0  0  0  0  0  0
  188.6450  175.6310  145.7550 C   0  0  1  0  0  3  0  0  0  0  0  0
  187.7550  176.8160  145.6820 N   0  0  0  0  0  0  0  0  0  0  0  0
  185.4440  176.7790  146.5570 C   0  0  0  0  0  1  0  0  0  0  0  0
  186.9130  176.9700  146.8840 C   0  0  2  0  0  3  0  0  0  0  0  0
  187.1250  178.1920  147.5330 O   0  0  0  0  0  1  0  0  0  0  0  0
  186.8330  176.6480  144.5600 C   0  0  0  0  0  2  0  0  0  0  0  0
  187.1600  177.6140  143.4200 C   0  0  1  0  0  3  0  0  0  0  0  0
  187.2430  176.9120  142.0710 C   0  0  0  0  0  2  0  0  0  0  0  0
  186.8540  175.5930  142.2000 F   0  0  0  0  0  0  0  0  0  0  0  0
  184.5860  178.2000  142.9990 S   0  0  0  0  0  1  0  0  0  0  0  0
  186.2300  178.7440  143.3910 N   0  0  0  0  0  2  0  0  0  0  0  0
  1 22  1  1  0  0  0
  1  3  1  0  0  0  0
  4  2  1  1  0  0  0
  4  7  1  0  0  0  0
  4  1  1  0  0  0  0
  6 13  1  0  0  0  0
  6  8  1  0  0  0  0
  7  9  1  0  0  0  0
  7 10  1  1  0  0  0
  8  5  1  0  0  0  0
  9  5  1  6  0  0  0
  9 16  1  0  0  0  0
 10 12  1  0  0  0  0
 11 13  1  6  0  0  0
 11  2  1  0  0  0  0
 11  4  1  0  0  0  0
 12  3  1  0  0  0  0
 15 14  1  0  0  0  0
 16 15  1  6  0  0  0
 16 14  1  0  0  0  0
 18 17  1  6  0  0  0
 18  6  1  0  0  0  0
 19 20  1  0  0  0  0
 20 18  1  0  0  0  0
 22 21  1  1  0  0  0
 23 22  1  0  0  0  0
 23 25  1  0  0  0  0
 25 24  1  6  0  0  0
 25 26  1  0  0  0  0
 27 23  1  0  0  0  0
 28 29  1  6  0  0  0
 28 27  1  0  0  0  0
 29 30  1  0  0  0  0
 31 32  1  0  0  0  0
 32 28  1  0  0  0  0
M  END
>  <MODEL>
8

>  <REMARK>
 VINA RESULT:      -5.7      2.365      4.941
  Name = 
  10 active torsions:
  status: ('A' for Active; 'I' for Inactive)
    1  A    between atoms: C_1  and  C_27
    2  A    between atoms: C_3  and  C_7
    3  A    between atoms: C_7  and  C_20
    4  A    between atoms: C_7  and  N_26
    5  A    between atoms: N_10  and  C_12
    6  A    between atoms: C_12  and  C_31
    7  A    between atoms: N_16  and  C_20
    8  A    between atoms: N_16  and  C_22
    9  A    between atoms: N_16  and  C_27
   10  A    between atoms: C_18  and  C_29
                            x       y       z     vdW  Elec       q    Type
                         _______ _______ _______ _____ _____    ______ ____

>  <TORSDO>
F 10

$$$$
=
 OpenBabel11052419093D

 32 35  0  0  1  0  0  0  0  0999 V2000
  191.6330  175.0930  145.6040 C   0  0  1  0  0  3  0  0  0  0  0  0
  190.9310  175.2850  143.0660 C   0  0  0  0  0  2  0  0  0  0  0  0
  191.1980  175.4600  147.0220 C   0  0  0  0  0  2  0  0  0  0  0  0
  190.5170  175.1420  144.5210 C   0  0  2  0  0  0  0  0  0  0  0  0
  188.2570  176.0200  142.5130 C   0  0  0  0  0  2  0  0  0  0  0  0
  188.6650  173.5930  142.0200 N   0  0  0  0  0  0  0  0  0  0  0  0
  189.0280  175.4410  144.9200 C   0  0  2  0  0  3  0  0  0  0  0  0
  187.6570  174.6330  142.2770 C   0  0  0  0  0  2  0  0  0  0  0  0
  188.2700  176.4300  143.9930 C   0  0  2  0  0  3  0  0  0  0  0  0
  188.8740  175.8500  146.3890 C   0  0  0  0  0  2  0  0  0  0  0  0
  190.6830  173.8960  143.6270 C   0  0  1  0  0  3  0  0  0  0  0  0
  189.7730  175.0340  147.2930 C   0  0  0  0  0  2  0  0  0  0  0  0
  189.3390  173.2060  143.2740 C   0  0  0  0  0  2  0  0  0  0  0  0
  186.6940  178.0900  144.8720 N   0  0  0  0  0  2  0  0  0  0  0  0
  186.1710  177.6380  143.5780 C   0  0  0  0  0  2  0  0  0  0  0  0
  186.8360  176.6830  144.4620 C   0  0  1  0  0  3  0  0  0  0  0  0
  190.4460  172.6630  140.5950 C   0  0  0  0  0  1  0  0  0  0  0  0
  189.5530  173.8660  140.8730 C   0  0  1  0  0  3  0  0  0  0  0  0
  188.1940  172.8810  139.0230 C   0  0  0  0  0  1  0  0  0  0  0  0
  188.7440  174.1650  139.6150 C   0  0  0  0  0  2  0  0  0  0  0  0
  193.5220  176.4330  146.5170 C   0  0  0  0  0  1  0  0  0  0  0  0
  192.9780  175.7660  145.2580 C   0  0  1  0  0  3  0  0  0  0  0  0
  193.9630  174.8450  144.6410 N   0  0  0  0  0  0  0  0  0  0  0  0
  195.6260  173.3950  145.7550 C   0  0  0  0  0  1  0  0  0  0  0  0
  194.1610  173.6130  145.4270 C   0  0  2  0  0  3  0  0  0  0  0  0
  193.6170  172.4850  144.8000 O   0  0  0  0  0  1  0  0  0  0  0  0
  195.2660  175.5080  144.5940 C   0  0  0  0  0  2  0  0  0  0  0  0
  195.6400  175.9010  143.1630 C   0  0  1  0  0  3  0  0  0  0  0  0
  197.1090  176.2820  143.0310 C   0  0  0  0  0  2  0  0  0  0  0  0
  197.3100  177.5610  143.5110 F   0  0  0  0  0  0  0  0  0  0  0  0
  194.5250  175.5780  140.7540 S   0  0  0  0  0  1  0  0  0  0  0  0
  195.2580  174.8620  142.2050 N   0  0  0  0  0  2  0  0  0  0  0  0
  1 22  1  6  0  0  0
  1  3  1  0  0  0  0
  3 12  1  0  0  0  0
  4  2  1  6  0  0  0
  4  7  1  0  0  0  0
  4  1  1  0  0  0  0
  6  8  1  0  0  0  0
  6 13  1  0  0  0  0
  7 10  1  1  0  0  0
  8  5  1  0  0  0  0
  9  5  1  6  0  0  0
  9 16  1  0  0  0  0
  9  7  1  0  0  0  0
 10 12  1  0  0  0  0
 11  2  1  6  0  0  0
 11  4  1  0  0  0  0
 13 11  1  0  0  0  0
 15 14  1  0  0  0  0
 16 15  1  6  0  0  0
 16 14  1  0  0  0  0
 18 17  1  6  0  0  0
 18  6  1  0  0  0  0
 19 20  1  0  0  0  0
 20 18  1  0  0  0  0
 22 21  1  1  0  0  0
 23 22  1  0  0  0  0
 23 25  1  0  0  0  0
 25 24  1  6  0  0  0
 26 25  1  0  0  0  0
 27 23  1  0  0  0  0
 28 29  1  1  0  0  0
 28 27  1  0  0  0  0
 29 30  1  0  0  0  0
 31 32  1  0  0  0  0
 32 28  1  0  0  0  0
M  END
>  <MODEL>
9

>  <REMARK>
 VINA RESULT:      -5.7      3.840      7.745
  Name = 
  10 active torsions:
  status: ('A' for Active; 'I' for Inactive)
    1  A    between atoms: C_1  and  C_27
    2  A    between atoms: C_3  and  C_7
    3  A    between atoms: C_7  and  C_20
    4  A    between atoms: C_7  and  N_26
    5  A    between atoms: N_10  and  C_12
    6  A    between atoms: C_12  and  C_31
    7  A    between atoms: N_16  and  C_20
    8  A    between atoms: N_16  and  C_22
    9  A    between atoms: N_16  and  C_27
   10  A    between atoms: C_18  and  C_29
                            x       y       z     vdW  Elec       q    Type
                         _______ _______ _______ _____ _____    ______ ____

>  <TORSDO>
F 10

$$$$
