=
 OpenBabel11052418463D

 34 38  0  0  1  0  0  0  0  0999 V2000
  187.0670  176.8740  146.7430 C   0  0  0  0  0  0  0  0  0  0  0  0
  185.7300  178.5540  145.6030 C   0  0  0  0  0  0  0  0  0  0  0  0
  187.2440  176.9900  144.3040 C   0  0  0  0  0  0  0  0  0  0  0  0
  187.5790  176.9120  141.8490 C   0  0  2  0  0  3  0  0  0  0  0  0
  185.4200  178.1400  147.9760 C   0  0  0  0  0  3  0  0  0  0  0  0
  185.1040  178.8470  146.8200 C   0  0  0  0  0  3  0  0  0  0  0  0
  185.3820  177.7150  142.5480 C   0  0  0  0  0  2  0  0  0  0  0  0
  186.6510  177.4710  145.5180 C   0  0  0  0  0  0  0  0  0  0  0  0
  186.6820  176.9730  140.2680 S   0  0  0  0  0  0  0  0  0  0  0  0
  186.4230  177.1790  147.9430 C   0  0  0  0  0  3  0  0  0  0  0  0
  188.8380  175.6860  145.6130 C   0  0  0  0  0  3  0  0  0  0  0  0
  188.1550  176.0050  146.7790 C   0  0  0  0  0  3  0  0  0  0  0  0
  185.6100  179.6080  144.5590 C   0  0  0  0  0  1  0  0  0  0  0  0
  188.3870  175.7610  141.9140 O   0  0  0  0  0  0  0  0  0  0  0  0
  189.1360  175.7550  143.1250 C   0  0  2  0  0  3  0  0  0  0  0  0
  185.1070  177.3780  141.0950 C   0  0  2  0  0  3  0  0  0  0  0  0
  186.5560  176.8710  142.9560 C   0  0  2  0  0  3  0  0  0  0  0  0
  188.3970  176.1760  144.3850 C   0  0  0  0  0  0  0  0  0  0  0  0
  192.9150  176.1800  143.3570 C   0  0  1  0  0  3  0  0  0  0  0  0
  193.5680  176.6120  142.2030 O   0  0  0  0  0  1  0  0  0  0  0  0
  190.5790  176.2810  142.9980 C   0  0  2  0  0  3  0  0  0  0  0  0
  192.4180  177.3400  144.0990 N   0  0  0  0  0  2  0  0  0  0  0  0
  191.7390  175.3050  142.9720 C   0  0  2  0  0  3  0  0  0  0  0  0
  190.9590  177.3300  144.0120 C   0  0  0  0  0  2  0  0  0  0  0  0
  191.6200  174.1900  143.9990 C   0  0  0  0  0  1  0  0  0  0  0  0
  184.4430  178.5520  140.4030 C   0  0  0  0  0  2  0  0  0  0  0  0
  183.0920  178.2310  140.1040 O   0  0  0  0  0  0  0  0  0  0  0  0
  182.0560  178.4300  141.0180 C   0  0  0  0  0  0  0  0  0  0  0  0
  182.3340  178.6020  142.2330 O   0  0  0  0  0  0  0  0  0  0  0  0
  180.3360  178.4760  140.5000 S   0  0  0  0  0  0  0  0  0  0  0  0
  179.7860  179.2940  142.0280 C   0  0  0  0  0  2  0  0  0  0  0  0
  178.5810  177.1420  142.2410 C   0  0  0  0  0  1  0  0  0  0  0  0
  178.4460  178.7980  144.0650 C   0  0  0  0  0  1  0  0  0  0  0  0
  178.5340  178.6210  142.5630 C   0  0  0  0  0  3  0  0  0  0  0  0
  1 12  1  0  0  0  0
  1 10  2  0  0  0  0
  2  6  1  0  0  0  0
  3 18  2  0  0  0  0
  3  8  1  0  0  0  0
  4  9  1  6  0  0  0
  4 14  1  0  0  0  0
  4 17  1  0  0  0  0
  6  5  2  0  0  0  0
  8  2  2  0  0  0  0
  8  1  1  0  0  0  0
  9 16  1  0  0  0  0
 10  5  1  0  0  0  0
 11 12  2  0  0  0  0
 13  2  1  0  0  0  0
 15 14  1  6  0  0  0
 15 18  1  0  0  0  0
 16 26  1  6  0  0  0
 16  7  1  0  0  0  0
 17  7  1  6  0  0  0
 17  3  1  0  0  0  0
 18 11  1  0  0  0  0
 19 20  1  6  0  0  0
 19 22  1  0  0  0  0
 21 15  1  0  0  0  0
 21 24  1  1  0  0  0
 23 21  1  0  0  0  0
 23 19  1  0  0  0  0
 23 25  1  1  0  0  0
 24 22  1  0  0  0  0
 27 26  1  0  0  0  0
 27 28  1  0  0  0  0
 28 29  2  0  0  0  0
 30 28  1  0  0  0  0
 30 31  1  0  0  0  0
 31 34  1  0  0  0  0
 32 34  1  0  0  0  0
 34 33  1  0  0  0  0
M  END
>  <MODEL>
1

>  <REMARK>
 VINA RESULT:      -8.2      0.000      0.000
  Name = 
  7 active torsions:
  status: ('A' for Active; 'I' for Inactive)
    1  A    between atoms: O_3  and  C_13
    2  A    between atoms: O_3  and  C_17
    3  A    between atoms: S_11  and  C_13
    4  A    between atoms: S_11  and  C_14
    5  A    between atoms: C_12  and  C_28
    6  A    between atoms: C_14  and  C_34
    7  A    between atoms: C_17  and  C_29
                            x       y       z     vdW  Elec       q    Type
                         _______ _______ _______ _____ _____    ______ ____

>  <TORSDO>
F 7

$$$$
=
 OpenBabel11052418463D

 34 38  0  0  1  0  0  0  0  0999 V2000
  186.8740  177.7810  145.7570 C   0  0  0  0  0  0  0  0  0  0  0  0
  186.8740  178.1550  143.3560 C   0  0  0  0  0  0  0  0  0  0  0  0
  188.2290  176.2760  144.3820 C   0  0  0  0  0  0  0  0  0  0  0  0
  189.6590  174.6300  143.2010 C   0  0  2  0  0  3  0  0  0  0  0  0
  185.3450  179.3810  144.7900 C   0  0  0  0  0  3  0  0  0  0  0  0
  185.8720  179.1160  143.5290 C   0  0  0  0  0  3  0  0  0  0  0  0
  187.7910  175.4810  141.8810 C   0  0  0  0  0  2  0  0  0  0  0  0
  187.3170  177.3780  144.4640 C   0  0  0  0  0  0  0  0  0  0  0  0
  189.7090  173.5480  141.7410 S   0  0  0  0  0  0  0  0  0  0  0  0
  185.8700  178.7380  145.9040 C   0  0  0  0  0  3  0  0  0  0  0  0
  188.4790  176.3170  146.8090 C   0  0  0  0  0  3  0  0  0  0  0  0
  187.4640  177.2590  146.9070 C   0  0  0  0  0  3  0  0  0  0  0  0
  187.6180  178.2410  142.0690 C   0  0  0  0  0  1  0  0  0  0  0  0
  189.9160  173.8910  144.3710 O   0  0  0  0  0  0  0  0  0  0  0  0
  189.9420  174.7560  145.5030 C   0  0  2  0  0  3  0  0  0  0  0  0
  188.1570  174.2460  141.0820 C   0  0  2  0  0  3  0  0  0  0  0  0
  188.2790  175.2320  143.2800 C   0  0  2  0  0  3  0  0  0  0  0  0
  188.8680  175.8310  145.5620 C   0  0  0  0  0  0  0  0  0  0  0  0
  193.3500  176.4430  145.7290 C   0  0  1  0  0  3  0  0  0  0  0  0
  193.7470  176.8860  146.9910 O   0  0  0  0  0  1  0  0  0  0  0  0
  191.3480  175.2020  145.9470 C   0  0  2  0  0  3  0  0  0  0  0  0
  193.7040  175.0300  145.5750 N   0  0  0  0  0  2  0  0  0  0  0  0
  191.8480  176.5880  145.5940 C   0  0  2  0  0  3  0  0  0  0  0  0
  192.4610  174.2620  145.5570 C   0  0  0  0  0  2  0  0  0  0  0  0
  191.5380  177.0020  144.1640 C   0  0  0  0  0  1  0  0  0  0  0  0
  188.3270  174.6030  139.6180 C   0  0  0  0  0  2  0  0  0  0  0  0
  188.5220  173.4200  138.8570 O   0  0  0  0  0  0  0  0  0  0  0  0
  189.4660  173.3360  137.8320 C   0  0  0  0  0  0  0  0  0  0  0  0
  189.3170  174.0440  136.8020 O   0  0  0  0  0  0  0  0  0  0  0  0
  190.9040  172.2670  137.9570 S   0  0  0  0  0  0  0  0  0  0  0  0
  189.9450  170.8770  138.6340 C   0  0  0  0  0  2  0  0  0  0  0  0
  190.4980  170.2030  136.3170 C   0  0  0  0  0  1  0  0  0  0  0  0
  190.4100  168.4940  138.0940 C   0  0  0  0  0  1  0  0  0  0  0  0
  189.7960  169.7840  137.5910 C   0  0  0  0  0  3  0  0  0  0  0  0
  1 10  1  0  0  0  0
  1 12  1  0  0  0  0
  2  6  2  0  0  0  0
  2  8  1  0  0  0  0
  3  8  1  0  0  0  0
  3 18  2  0  0  0  0
  4  9  1  6  0  0  0
  4 17  1  0  0  0  0
  4 14  1  0  0  0  0
  5 10  2  0  0  0  0
  6  5  1  0  0  0  0
  8  1  2  0  0  0  0
 11 12  2  0  0  0  0
 13  2  1  0  0  0  0
 15 14  1  6  0  0  0
 15 18  1  0  0  0  0
 15 21  1  0  0  0  0
 16 26  1  6  0  0  0
 16  9  1  0  0  0  0
 16  7  1  0  0  0  0
 17  7  1  6  0  0  0
 17  3  1  0  0  0  0
 18 11  1  0  0  0  0
 19 20  1  1  0  0  0
 21 24  1  6  0  0  0
 22 19  1  0  0  0  0
 23 25  1  6  0  0  0
 23 19  1  0  0  0  0
 23 21  1  0  0  0  0
 24 22  1  0  0  0  0
 27 26  1  0  0  0  0
 28 30  1  0  0  0  0
 28 27  1  0  0  0  0
 29 28  2  0  0  0  0
 30 31  1  0  0  0  0
 32 34  1  0  0  0  0
 34 33  1  0  0  0  0
 34 31  1  0  0  0  0
M  END
>  <MODEL>
2

>  <REMARK>
 VINA RESULT:      -8.0      4.133      6.829
  Name = 
  7 active torsions:
  status: ('A' for Active; 'I' for Inactive)
    1  A    between atoms: O_3  and  C_13
    2  A    between atoms: O_3  and  C_17
    3  A    between atoms: S_11  and  C_13
    4  A    between atoms: S_11  and  C_14
    5  A    between atoms: C_12  and  C_28
    6  A    between atoms: C_14  and  C_34
    7  A    between atoms: C_17  and  C_29
                            x       y       z     vdW  Elec       q    Type
                         _______ _______ _______ _____ _____    ______ ____

>  <TORSDO>
F 7

$$$$
=
 OpenBabel11052418463D

 34 38  0  0  1  0  0  0  0  0999 V2000
  192.0010  176.1210  146.7450 C   0  0  0  0  0  0  0  0  0  0  0  0
  190.1280  177.0000  145.4700 C   0  0  0  0  0  0  0  0  0  0  0  0
  191.7800  175.3930  144.4190 C   0  0  0  0  0  0  0  0  0  0  0  0
  191.7580  174.5100  142.1010 C   0  0  2  0  0  3  0  0  0  0  0  0
  190.2870  177.4080  147.8590 C   0  0  0  0  0  3  0  0  0  0  0  0
  189.6340  177.5840  146.6420 C   0  0  0  0  0  3  0  0  0  0  0  0
  189.5580  175.0800  142.9910 C   0  0  0  0  0  2  0  0  0  0  0  0
  191.2700  176.1520  145.5220 C   0  0  0  0  0  0  0  0  0  0  0  0
  190.6520  173.8350  140.8260 S   0  0  0  0  0  0  0  0  0  0  0  0
  191.4860  176.7060  147.9020 C   0  0  0  0  0  3  0  0  0  0  0  0
  193.8290  174.9660  145.6740 C   0  0  0  0  0  3  0  0  0  0  0  0
  193.2680  175.5430  146.8040 C   0  0  0  0  0  3  0  0  0  0  0  0
  189.5910  177.5710  144.2040 C   0  0  0  0  0  1  0  0  0  0  0  0
  192.8320  173.6320  142.3380 O   0  0  0  0  0  0  0  0  0  0  0  0
  193.7290  174.1990  143.2890 C   0  0  2  0  0  3  0  0  0  0  0  0
  189.1660  174.2030  141.8180 C   0  0  2  0  0  3  0  0  0  0  0  0
  190.9540  174.6740  143.3670 C   0  0  2  0  0  3  0  0  0  0  0  0
  193.1010  174.8930  144.4870 C   0  0  0  0  0  0  0  0  0  0  0  0
  197.2730  175.3320  142.4710 C   0  0  1  0  0  3  0  0  0  0  0  0
  197.5800  175.5030  141.1210 O   0  0  0  0  0  1  0  0  0  0  0  0
  194.9560  174.9070  142.6820 C   0  0  2  0  0  3  0  0  0  0  0  0
  196.6590  176.5560  142.9900 N   0  0  0  0  0  2  0  0  0  0  0  0
  196.2900  174.1900  142.6230 C   0  0  2  0  0  3  0  0  0  0  0  0
  195.2550  176.2640  143.2680 C   0  0  0  0  0  2  0  0  0  0  0  0
  196.6320  173.4350  143.8980 C   0  0  0  0  0  1  0  0  0  0  0  0
  188.1300  174.9060  140.9630 C   0  0  0  0  0  2  0  0  0  0  0  0
  188.2220  176.3100  141.1560 O   0  0  0  0  0  0  0  0  0  0  0  0
  187.1600  177.1740  140.8840 C   0  0  0  0  0  0  0  0  0  0  0  0
  186.6390  177.1640  139.7380 O   0  0  0  0  0  0  0  0  0  0  0  0
  186.4970  178.2790  142.1350 S   0  0  0  0  0  0  0  0  0  0  0  0
  185.9960  176.9150  143.2290 C   0  0  0  0  0  2  0  0  0  0  0  0
  186.2400  176.5900  145.6710 C   0  0  0  0  0  1  0  0  0  0  0  0
  186.0990  178.8760  144.7550 C   0  0  0  0  0  1  0  0  0  0  0  0
  185.6110  177.4510  144.5960 C   0  0  0  0  0  3  0  0  0  0  0  0
  1 12  1  0  0  0  0
  1 10  2  0  0  0  0
  2  8  2  0  0  0  0
  2  6  1  0  0  0  0
  3 18  2  0  0  0  0
  3  8  1  0  0  0  0
  4  9  1  6  0  0  0
  4 14  1  0  0  0  0
  4 17  1  0  0  0  0
  5 10  1  0  0  0  0
  6  5  2  0  0  0  0
  8  1  1  0  0  0  0
  9 16  1  0  0  0  0
 11 12  2  0  0  0  0
 13  2  1  0  0  0  0
 15 14  1  6  0  0  0
 15 18  1  0  0  0  0
 16 26  1  6  0  0  0
 16  7  1  0  0  0  0
 17  7  1  6  0  0  0
 17  3  1  0  0  0  0
 18 11  1  0  0  0  0
 19 20  1  6  0  0  0
 19 23  1  0  0  0  0
 19 22  1  0  0  0  0
 21 24  1  1  0  0  0
 21 15  1  0  0  0  0
 22 24  1  0  0  0  0
 23 21  1  0  0  0  0
 23 25  1  1  0  0  0
 26 27  1  0  0  0  0
 28 27  1  0  0  0  0
 28 30  1  0  0  0  0
 29 28  2  0  0  0  0
 30 31  1  0  0  0  0
 31 34  1  0  0  0  0
 34 33  1  0  0  0  0
 34 32  1  0  0  0  0
M  END
>  <MODEL>
3

>  <REMARK>
 VINA RESULT:      -8.0      3.484      5.331
  Name = 
  7 active torsions:
  status: ('A' for Active; 'I' for Inactive)
    1  A    between atoms: O_3  and  C_13
    2  A    between atoms: O_3  and  C_17
    3  A    between atoms: S_11  and  C_13
    4  A    between atoms: S_11  and  C_14
    5  A    between atoms: C_12  and  C_28
    6  A    between atoms: C_14  and  C_34
    7  A    between atoms: C_17  and  C_29
                            x       y       z     vdW  Elec       q    Type
                         _______ _______ _______ _____ _____    ______ ____

>  <TORSDO>
F 7

$$$$
=
 OpenBabel11052418463D

 34 38  0  0  1  0  0  0  0  0999 V2000
  186.9990  177.8700  145.4170 C   0  0  0  0  0  0  0  0  0  0  0  0
  187.0970  178.0180  142.9930 C   0  0  0  0  0  0  0  0  0  0  0  0
  188.3640  176.2130  144.2410 C   0  0  0  0  0  0  0  0  0  0  0  0
  189.7930  174.4320  143.2730 C   0  0  2  0  0  3  0  0  0  0  0  0
  185.5490  179.4080  144.2470 C   0  0  0  0  0  3  0  0  0  0  0  0
  186.1150  179.0140  143.0370 C   0  0  0  0  0  3  0  0  0  0  0  0
  187.9970  175.1990  141.8090 C   0  0  0  0  0  2  0  0  0  0  0  0
  187.4780  177.3380  144.1840 C   0  0  0  0  0  0  0  0  0  0  0  0
  189.8680  173.2180  141.9220 S   0  0  0  0  0  0  0  0  0  0  0  0
  186.0150  178.8600  145.4360 C   0  0  0  0  0  3  0  0  0  0  0  0
  188.5250  176.4750  146.6610 C   0  0  0  0  0  3  0  0  0  0  0  0
  187.5320  177.4450  146.6320 C   0  0  0  0  0  3  0  0  0  0  0  0
  187.8900  177.9670  141.7340 C   0  0  0  0  0  1  0  0  0  0  0  0
  189.9870  173.8000  144.5160 O   0  0  0  0  0  0  0  0  0  0  0  0
  189.9930  174.7660  145.5630 C   0  0  2  0  0  3  0  0  0  0  0  0
  188.3600  173.8870  141.1420 C   0  0  2  0  0  3  0  0  0  0  0  0
  188.4260  175.0700  143.2430 C   0  0  2  0  0  3  0  0  0  0  0  0
  188.9470  175.8650  145.4810 C   0  0  0  0  0  0  0  0  0  0  0  0
  193.4370  176.3820  145.7620 C   0  0  1  0  0  3  0  0  0  0  0  0
  193.7980  176.9390  146.9880 O   0  0  0  0  0  1  0  0  0  0  0  0
  191.3940  175.2190  146.0190 C   0  0  2  0  0  3  0  0  0  0  0  0
  193.7560  174.9530  145.7630 N   0  0  0  0  0  2  0  0  0  0  0  0
  191.9470  176.5510  145.5510 C   0  0  2  0  0  3  0  0  0  0  0  0
  192.4940  174.2180  145.7700 C   0  0  0  0  0  2  0  0  0  0  0  0
  191.7040  176.8260  144.0750 C   0  0  0  0  0  1  0  0  0  0  0  0
  188.5930  174.1010  139.6590 C   0  0  0  0  0  2  0  0  0  0  0  0
  189.9270  173.7450  139.3270 O   0  0  0  0  0  0  0  0  0  0  0  0
  190.3980  173.7490  138.0130 C   0  0  0  0  0  0  0  0  0  0  0  0
  189.5700  173.7440  137.0650 O   0  0  0  0  0  0  0  0  0  0  0  0
  192.1540  173.7890  137.6400 S   0  0  0  0  0  0  0  0  0  0  0  0
  192.6280  173.1720  139.2840 C   0  0  0  0  0  2  0  0  0  0  0  0
  194.2060  175.0260  138.8350 C   0  0  0  0  0  1  0  0  0  0  0  0
  193.1710  174.8210  141.0650 C   0  0  0  0  0  1  0  0  0  0  0  0
  193.7150  174.0480  139.8810 C   0  0  0  0  0  3  0  0  0  0  0  0
  1 10  1  0  0  0  0
  1 12  1  0  0  0  0
  2  6  2  0  0  0  0
  2  8  1  0  0  0  0
  3 18  2  0  0  0  0
  4  9  1  6  0  0  0
  4 14  1  0  0  0  0
  5 10  2  0  0  0  0
  6  5  1  0  0  0  0
  8  3  1  0  0  0  0
  8  1  2  0  0  0  0
 12 11  2  0  0  0  0
 13  2  1  0  0  0  0
 15 14  1  6  0  0  0
 15 21  1  0  0  0  0
 16 26  1  6  0  0  0
 16  7  1  0  0  0  0
 16  9  1  0  0  0  0
 17  7  1  6  0  0  0
 17  4  1  0  0  0  0
 17  3  1  0  0  0  0
 18 15  1  0  0  0  0
 18 11  1  0  0  0  0
 19 22  1  0  0  0  0
 19 20  1  1  0  0  0
 21 24  1  6  0  0  0
 22 24  1  0  0  0  0
 23 25  1  6  0  0  0
 23 19  1  0  0  0  0
 23 21  1  0  0  0  0
 27 26  1  0  0  0  0
 28 27  1  0  0  0  0
 29 28  2  0  0  0  0
 30 28  1  0  0  0  0
 30 31  1  0  0  0  0
 31 34  1  0  0  0  0
 32 34  1  0  0  0  0
 34 33  1  0  0  0  0
M  END
>  <MODEL>
4

>  <REMARK>
 VINA RESULT:      -7.9      4.270      7.095
  Name = 
  7 active torsions:
  status: ('A' for Active; 'I' for Inactive)
    1  A    between atoms: O_3  and  C_13
    2  A    between atoms: O_3  and  C_17
    3  A    between atoms: S_11  and  C_13
    4  A    between atoms: S_11  and  C_14
    5  A    between atoms: C_12  and  C_28
    6  A    between atoms: C_14  and  C_34
    7  A    between atoms: C_17  and  C_29
                            x       y       z     vdW  Elec       q    Type
                         _______ _______ _______ _____ _____    ______ ____

>  <TORSDO>
F 7

$$$$
=
 OpenBabel11052418463D

 34 38  0  0  1  0  0  0  0  0999 V2000
  191.7300  175.4770  146.5920 C   0  0  0  0  0  0  0  0  0  0  0  0
  190.0570  177.0940  145.8900 C   0  0  0  0  0  0  0  0  0  0  0  0
  190.8160  175.2450  144.3330 C   0  0  0  0  0  0  0  0  0  0  0  0
  190.0350  174.8060  142.0210 C   0  0  2  0  0  3  0  0  0  0  0  0
  190.8150  177.0350  148.1970 C   0  0  0  0  0  3  0  0  0  0  0  0
  190.0350  177.6030  147.1940 C   0  0  0  0  0  3  0  0  0  0  0  0
  188.3850  175.8820  143.4630 C   0  0  0  0  0  2  0  0  0  0  0  0
  190.8270  175.9350  145.5900 C   0  0  0  0  0  0  0  0  0  0  0  0
  188.5350  174.7280  140.9960 S   0  0  0  0  0  0  0  0  0  0  0  0
  191.6850  175.9960  147.8870 C   0  0  0  0  0  3  0  0  0  0  0  0
  192.8010  174.0000  145.0140 C   0  0  0  0  0  3  0  0  0  0  0  0
  192.7070  174.5310  146.2930 C   0  0  0  0  0  3  0  0  0  0  0  0
  189.5070  178.0030  144.8470 C   0  0  0  0  0  1  0  0  0  0  0  0
  190.7690  173.6100  141.9130 O   0  0  0  0  0  0  0  0  0  0  0  0
  191.9740  173.7040  142.6660 C   0  0  2  0  0  3  0  0  0  0  0  0
  187.4920  175.3750  142.3460 C   0  0  2  0  0  3  0  0  0  0  0  0
  189.6030  175.0030  143.4530 C   0  0  2  0  0  3  0  0  0  0  0  0
  191.8730  174.3540  144.0360 C   0  0  0  0  0  0  0  0  0  0  0  0
  195.4940  173.8750  141.2190 C   0  0  1  0  0  3  0  0  0  0  0  0
  195.5970  174.0190  139.8350 O   0  0  0  0  0  1  0  0  0  0  0  0
  193.2230  174.0820  141.8460 C   0  0  2  0  0  3  0  0  0  0  0  0
  195.3400  175.1930  141.8360 N   0  0  0  0  0  2  0  0  0  0  0  0
  194.2780  173.0350  141.5490 C   0  0  2  0  0  3  0  0  0  0  0  0
  193.9800  175.2790  142.3640 C   0  0  0  0  0  2  0  0  0  0  0  0
  194.6170  172.1570  142.7430 C   0  0  0  0  0  1  0  0  0  0  0  0
  186.6110  176.4970  141.8320 C   0  0  0  0  0  2  0  0  0  0  0  0
  186.6370  177.5840  142.7450 O   0  0  0  0  0  0  0  0  0  0  0  0
  185.4760  178.2340  143.1670 C   0  0  0  0  0  0  0  0  0  0  0  0
  184.3560  177.7460  142.8670 O   0  0  0  0  0  0  0  0  0  0  0  0
  185.5400  179.7340  144.1540 S   0  0  0  0  0  0  0  0  0  0  0  0
  185.0270  178.8830  145.6770 C   0  0  0  0  0  2  0  0  0  0  0  0
  186.3250  178.7870  147.7840 C   0  0  0  0  0  1  0  0  0  0  0  0
  186.0970  176.7570  146.4010 C   0  0  0  0  0  1  0  0  0  0  0  0
  186.2320  178.2650  146.3650 C   0  0  0  0  0  3  0  0  0  0  0  0
  1 10  2  0  0  0  0
  2  6  1  0  0  0  0
  3  8  1  0  0  0  0
  4  9  1  6  0  0  0
  4 17  1  0  0  0  0
  6  5  2  0  0  0  0
  8  2  2  0  0  0  0
  8  1  1  0  0  0  0
  9 16  1  0  0  0  0
 10  5  1  0  0  0  0
 11 12  2  0  0  0  0
 12  1  1  0  0  0  0
 13  2  1  0  0  0  0
 14  4  1  0  0  0  0
 15 14  1  6  0  0  0
 15 18  1  0  0  0  0
 16 26  1  6  0  0  0
 16  7  1  0  0  0  0
 17  7  1  6  0  0  0
 17  3  1  0  0  0  0
 18  3  2  0  0  0  0
 18 11  1  0  0  0  0
 19 20  1  6  0  0  0
 19 23  1  0  0  0  0
 19 22  1  0  0  0  0
 21 24  1  1  0  0  0
 21 15  1  0  0  0  0
 22 24  1  0  0  0  0
 23 21  1  0  0  0  0
 23 25  1  1  0  0  0
 26 27  1  0  0  0  0
 27 28  1  0  0  0  0
 28 30  1  0  0  0  0
 29 28  2  0  0  0  0
 30 31  1  0  0  0  0
 31 34  1  0  0  0  0
 34 33  1  0  0  0  0
 34 32  1  0  0  0  0
M  END
>  <MODEL>
5

>  <REMARK>
 VINA RESULT:      -7.9      3.224      4.852
  Name = 
  7 active torsions:
  status: ('A' for Active; 'I' for Inactive)
    1  A    between atoms: O_3  and  C_13
    2  A    between atoms: O_3  and  C_17
    3  A    between atoms: S_11  and  C_13
    4  A    between atoms: S_11  and  C_14
    5  A    between atoms: C_12  and  C_28
    6  A    between atoms: C_14  and  C_34
    7  A    between atoms: C_17  and  C_29
                            x       y       z     vdW  Elec       q    Type
                         _______ _______ _______ _____ _____    ______ ____

>  <TORSDO>
F 7

$$$$
=
 OpenBabel11052418463D

 34 38  0  0  1  0  0  0  0  0999 V2000
  187.0070  177.8600  145.3040 C   0  0  0  0  0  0  0  0  0  0  0  0
  187.1180  177.9710  142.8780 C   0  0  0  0  0  0  0  0  0  0  0  0
  188.3760  176.1840  144.1610 C   0  0  0  0  0  0  0  0  0  0  0  0
  189.8090  174.3870  143.2290 C   0  0  2  0  0  3  0  0  0  0  0  0
  185.5640  179.3800  144.1020 C   0  0  0  0  0  3  0  0  0  0  0  0
  186.1370  178.9680  142.9020 C   0  0  0  0  0  3  0  0  0  0  0  0
  188.0230  175.1330  141.7420 C   0  0  0  0  0  2  0  0  0  0  0  0
  187.4920  177.3090  144.0820 C   0  0  0  0  0  0  0  0  0  0  0  0
  189.8910  173.1530  141.8960 S   0  0  0  0  0  0  0  0  0  0  0  0
  186.0240  178.8500  145.3020 C   0  0  0  0  0  3  0  0  0  0  0  0
  188.5250  176.4830  146.5780 C   0  0  0  0  0  3  0  0  0  0  0  0
  187.5330  177.4520  146.5280 C   0  0  0  0  0  3  0  0  0  0  0  0
  187.9180  177.9000  141.6250 C   0  0  0  0  0  1  0  0  0  0  0  0
  189.9960  173.7740  144.4820 O   0  0  0  0  0  0  0  0  0  0  0  0
  189.9980  174.7560  145.5140 C   0  0  2  0  0  3  0  0  0  0  0  0
  188.3880  173.8110  141.0980 C   0  0  2  0  0  3  0  0  0  0  0  0
  188.4440  175.0260  143.1810 C   0  0  2  0  0  3  0  0  0  0  0  0
  188.9530  175.8550  145.4090 C   0  0  0  0  0  0  0  0  0  0  0  0
  193.4320  176.3910  145.7170 C   0  0  1  0  0  3  0  0  0  0  0  0
  193.7910  176.9440  146.9460 O   0  0  0  0  0  1  0  0  0  0  0  0
  191.3960  175.2150  145.9710 C   0  0  2  0  0  3  0  0  0  0  0  0
  193.7590  174.9630  145.7120 N   0  0  0  0  0  2  0  0  0  0  0  0
  191.9410  176.5520  145.5080 C   0  0  2  0  0  3  0  0  0  0  0  0
  192.5010  174.2210  145.7160 C   0  0  0  0  0  2  0  0  0  0  0  0
  191.6950  176.8320  144.0340 C   0  0  0  0  0  1  0  0  0  0  0  0
  188.6290  174.0020  139.6130 C   0  0  0  0  0  2  0  0  0  0  0  0
  188.5140  172.7540  138.9440 O   0  0  0  0  0  0  0  0  0  0  0  0
  189.4190  172.3450  137.9640 C   0  0  0  0  0  0  0  0  0  0  0  0
  189.9530  173.2090  137.2210 O   0  0  0  0  0  0  0  0  0  0  0  0
  189.8650  170.6170  137.7530 S   0  0  0  0  0  0  0  0  0  0  0  0
  191.4900  170.8280  138.5450 C   0  0  0  0  0  2  0  0  0  0  0  0
  190.7540  168.9110  139.9280 C   0  0  0  0  0  1  0  0  0  0  0  0
  192.8870  170.0380  140.4450 C   0  0  0  0  0  1  0  0  0  0  0  0
  191.4710  170.2450  139.9460 C   0  0  0  0  0  3  0  0  0  0  0  0
  1 12  1  0  0  0  0
  2  6  2  0  0  0  0
  2  8  1  0  0  0  0
  3 18  2  0  0  0  0
  4  9  1  6  0  0  0
  4 14  1  0  0  0  0
  5 10  2  0  0  0  0
  6  5  1  0  0  0  0
  8  3  1  0  0  0  0
  8  1  2  0  0  0  0
 10  1  1  0  0  0  0
 12 11  2  0  0  0  0
 13  2  1  0  0  0  0
 15 14  1  6  0  0  0
 15 21  1  0  0  0  0
 16 26  1  6  0  0  0
 16  7  1  0  0  0  0
 16  9  1  0  0  0  0
 17  7  1  6  0  0  0
 17  4  1  0  0  0  0
 17  3  1  0  0  0  0
 18 15  1  0  0  0  0
 18 11  1  0  0  0  0
 19 20  1  1  0  0  0
 21 24  1  6  0  0  0
 22 24  1  0  0  0  0
 22 19  1  0  0  0  0
 23 25  1  6  0  0  0
 23 19  1  0  0  0  0
 23 21  1  0  0  0  0
 27 26  1  0  0  0  0
 28 27  1  0  0  0  0
 29 28  2  0  0  0  0
 30 28  1  0  0  0  0
 30 31  1  0  0  0  0
 31 34  1  0  0  0  0
 32 34  1  0  0  0  0
 34 33  1  0  0  0  0
M  END
>  <MODEL>
6

>  <REMARK>
 VINA RESULT:      -7.6      4.230      7.124
  Name = 
  7 active torsions:
  status: ('A' for Active; 'I' for Inactive)
    1  A    between atoms: O_3  and  C_13
    2  A    between atoms: O_3  and  C_17
    3  A    between atoms: S_11  and  C_13
    4  A    between atoms: S_11  and  C_14
    5  A    between atoms: C_12  and  C_28
    6  A    between atoms: C_14  and  C_34
    7  A    between atoms: C_17  and  C_29
                            x       y       z     vdW  Elec       q    Type
                         _______ _______ _______ _____ _____    ______ ____

>  <TORSDO>
F 7

$$$$
=
 OpenBabel11052418463D

 34 38  0  0  1  0  0  0  0  0999 V2000
  189.7260  174.0710  141.2420 C   0  0  0  0  0  0  0  0  0  0  0  0
  191.8890  174.9640  141.8980 C   0  0  0  0  0  0  0  0  0  0  0  0
  189.8300  175.3560  143.3230 C   0  0  0  0  0  0  0  0  0  0  0  0
  189.6920  176.6080  145.4590 C   0  0  2  0  0  3  0  0  0  0  0  0
  191.7120  173.4290  140.0240 C   0  0  0  0  0  3  0  0  0  0  0  0
  192.4760  174.2540  140.8450 C   0  0  0  0  0  3  0  0  0  0  0  0
  191.8620  175.5770  145.0260 C   0  0  0  0  0  2  0  0  0  0  0  0
  190.5060  174.7930  142.1910 C   0  0  0  0  0  0  0  0  0  0  0  0
  190.5450  176.8510  147.0460 S   0  0  0  0  0  0  0  0  0  0  0  0
  190.3350  173.3650  140.2030 C   0  0  0  0  0  3  0  0  0  0  0  0
  187.6840  174.7900  142.3090 C   0  0  0  0  0  3  0  0  0  0  0  0
  188.3340  174.0860  141.3040 C   0  0  0  0  0  3  0  0  0  0  0  0
  192.7050  176.0870  142.4360 C   0  0  0  0  0  1  0  0  0  0  0  0
  188.3450  176.2570  145.6710 O   0  0  0  0  0  0  0  0  0  0  0  0
  187.6680  176.1350  144.4240 C   0  0  2  0  0  3  0  0  0  0  0  0
  191.9730  175.8470  146.5130 C   0  0  2  0  0  3  0  0  0  0  0  0
  190.3920  175.4900  144.7270 C   0  0  2  0  0  3  0  0  0  0  0  0
  188.4180  175.4270  143.3080 C   0  0  0  0  0  0  0  0  0  0  0  0
  185.0700  178.9090  144.1620 C   0  0  1  0  0  3  0  0  0  0  0  0
  185.5510  180.1980  143.9340 O   0  0  0  0  0  1  0  0  0  0  0  0
  186.8660  177.3790  143.9950 C   0  0  2  0  0  3  0  0  0  0  0  0
  184.9210  178.2120  142.8830 N   0  0  0  0  0  2  0  0  0  0  0  0
  186.0570  178.1470  145.0220 C   0  0  2  0  0  3  0  0  0  0  0  0
  185.9340  177.1600  142.8310 C   0  0  0  0  0  2  0  0  0  0  0  0
  185.2720  177.2540  145.9700 C   0  0  0  0  0  1  0  0  0  0  0  0
  193.2650  176.5800  146.8160 C   0  0  0  0  0  2  0  0  0  0  0  0
  194.3560  175.6730  146.7520 O   0  0  0  0  0  0  0  0  0  0  0  0
  195.1690  175.5590  145.6230 C   0  0  0  0  0  0  0  0  0  0  0  0
  195.2860  176.5450  144.8490 O   0  0  0  0  0  0  0  0  0  0  0  0
  196.0770  174.0520  145.2610 S   0  0  0  0  0  0  0  0  0  0  0  0
  194.7560  173.3820  144.2050 C   0  0  0  0  0  2  0  0  0  0  0  0
  192.6350  172.1060  144.1580 C   0  0  0  0  0  1  0  0  0  0  0  0
  194.4670  171.3680  145.6360 C   0  0  0  0  0  1  0  0  0  0  0  0
  193.7750  172.5750  145.0370 C   0  0  0  0  0  3  0  0  0  0  0  0
  1 12  2  0  0  0  0
  1  8  1  0  0  0  0
  2  8  1  0  0  0  0
  2 13  1  0  0  0  0
  3 17  1  0  0  0  0
  4 14  1  1  0  0  0
  4  9  1  0  0  0  0
  5 10  2  0  0  0  0
  5  6  1  0  0  0  0
  6  2  2  0  0  0  0
  7 16  1  0  0  0  0
  8  3  2  0  0  0  0
 10  1  1  0  0  0  0
 11 18  2  0  0  0  0
 12 11  1  0  0  0  0
 15 18  1  6  0  0  0
 15 14  1  0  0  0  0
 16 26  1  6  0  0  0
 16  9  1  0  0  0  0
 17  7  1  6  0  0  0
 17  4  1  0  0  0  0
 18  3  1  0  0  0  0
 19 20  1  6  0  0  0
 19 23  1  0  0  0  0
 21 24  1  6  0  0  0
 21 15  1  0  0  0  0
 21 23  1  0  0  0  0
 22 19  1  0  0  0  0
 23 25  1  1  0  0  0
 24 22  1  0  0  0  0
 27 26  1  0  0  0  0
 28 27  1  0  0  0  0
 29 28  2  0  0  0  0
 30 28  1  0  0  0  0
 31 34  1  0  0  0  0
 31 30  1  0  0  0  0
 32 34  1  0  0  0  0
 34 33  1  0  0  0  0
M  END
>  <MODEL>
7

>  <REMARK>
 VINA RESULT:      -7.6      4.134      9.765
  Name = 
  7 active torsions:
  status: ('A' for Active; 'I' for Inactive)
    1  A    between atoms: O_3  and  C_13
    2  A    between atoms: O_3  and  C_17
    3  A    between atoms: S_11  and  C_13
    4  A    between atoms: S_11  and  C_14
    5  A    between atoms: C_12  and  C_28
    6  A    between atoms: C_14  and  C_34
    7  A    between atoms: C_17  and  C_29
                            x       y       z     vdW  Elec       q    Type
                         _______ _______ _______ _____ _____    ______ ____

>  <TORSDO>
F 7

$$$$
=
 OpenBabel11052418463D

 34 38  0  0  1  0  0  0  0  0999 V2000
  191.8140  175.4350  145.8730 C   0  0  0  0  0  0  0  0  0  0  0  0
  191.4120  173.5520  144.3900 C   0  0  0  0  0  0  0  0  0  0  0  0
  189.9370  175.6110  144.3120 C   0  0  0  0  0  0  0  0  0  0  0  0
  187.9980  176.0210  142.8210 C   0  0  2  0  0  3  0  0  0  0  0  0
  193.4110  173.6250  145.7660 C   0  0  0  0  0  3  0  0  0  0  0  0
  192.6010  172.9700  144.8430 C   0  0  0  0  0  3  0  0  0  0  0  0
  189.6990  174.5380  141.8890 C   0  0  0  0  0  2  0  0  0  0  0  0
  191.0510  174.8620  144.8140 C   0  0  0  0  0  0  0  0  0  0  0  0
  187.4410  175.8480  141.0990 S   0  0  0  0  0  0  0  0  0  0  0  0
  193.0000  174.8390  146.3040 C   0  0  0  0  0  3  0  0  0  0  0  0
  190.1890  177.1970  146.1490 C   0  0  0  0  0  3  0  0  0  0  0  0
  191.3730  176.5800  146.5310 C   0  0  0  0  0  3  0  0  0  0  0  0
  190.4590  172.6150  143.7330 C   0  0  0  0  0  1  0  0  0  0  0  0
  187.8360  177.3480  143.2620 O   0  0  0  0  0  0  0  0  0  0  0  0
  188.2110  177.4600  144.6310 C   0  0  2  0  0  3  0  0  0  0  0  0
  188.9390  174.9160  140.6330 C   0  0  2  0  0  3  0  0  0  0  0  0
  189.4590  175.6500  142.8710 C   0  0  2  0  0  3  0  0  0  0  0  0
  189.4690  176.7190  145.0550 C   0  0  0  0  0  0  0  0  0  0  0  0
  185.0680  178.2250  146.6420 C   0  0  1  0  0  3  0  0  0  0  0  0
  184.2030  177.1570  146.8840 O   0  0  0  0  0  1  0  0  0  0  0  0
  187.0410  177.4000  145.6320 C   0  0  2  0  0  3  0  0  0  0  0  0
  186.1140  178.2460  147.6660 N   0  0  0  0  0  2  0  0  0  0  0  0
  185.7160  178.0500  145.2840 C   0  0  2  0  0  3  0  0  0  0  0  0
  187.3730  177.8830  147.0210 C   0  0  0  0  0  2  0  0  0  0  0  0
  185.8610  179.4230  144.6470 C   0  0  0  0  0  1  0  0  0  0  0  0
  188.5560  173.6700  139.8580 C   0  0  0  0  0  2  0  0  0  0  0  0
  189.6310  173.2820  139.0150 O   0  0  0  0  0  0  0  0  0  0  0  0
  190.5120  172.2530  139.3510 C   0  0  0  0  0  0  0  0  0  0  0  0
  190.1210  171.3370  140.1210 O   0  0  0  0  0  0  0  0  0  0  0  0
  192.1810  172.1850  138.6910 S   0  0  0  0  0  0  0  0  0  0  0  0
  192.6520  173.7810  139.4270 C   0  0  0  0  0  2  0  0  0  0  0  0
  193.7340  172.4900  141.2420 C   0  0  0  0  0  1  0  0  0  0  0  0
  193.3740  174.9150  141.5200 C   0  0  0  0  0  1  0  0  0  0  0  0
  192.8010  173.6420  140.9320 C   0  0  0  0  0  3  0  0  0  0  0  0
  1 10  2  0  0  0  0
  1 12  1  0  0  0  0
  2  8  2  0  0  0  0
  2  6  1  0  0  0  0
  3  8  1  0  0  0  0
  3 18  2  0  0  0  0
  4  9  1  6  0  0  0
  4 17  1  0  0  0  0
  4 14  1  0  0  0  0
  5 10  1  0  0  0  0
  6  5  2  0  0  0  0
  8  1  1  0  0  0  0
 11 12  2  0  0  0  0
 13  2  1  0  0  0  0
 15 14  1  6  0  0  0
 15 18  1  0  0  0  0
 15 21  1  0  0  0  0
 16 26  1  1  0  0  0
 16  9  1  0  0  0  0
 16  7  1  0  0  0  0
 17  7  1  1  0  0  0
 17  3  1  0  0  0  0
 18 11  1  0  0  0  0
 19 20  1  1  0  0  0
 19 22  1  0  0  0  0
 21 24  1  1  0  0  0
 23 25  1  1  0  0  0
 23 21  1  0  0  0  0
 23 19  1  0  0  0  0
 24 22  1  0  0  0  0
 27 28  1  0  0  0  0
 27 26  1  0  0  0  0
 28 29  2  0  0  0  0
 30 28  1  0  0  0  0
 30 31  1  0  0  0  0
 31 34  1  0  0  0  0
 34 32  1  0  0  0  0
 34 33  1  0  0  0  0
M  END
>  <MODEL>
8

>  <REMARK>
 VINA RESULT:      -7.2      3.960      8.343
  Name = 
  7 active torsions:
  status: ('A' for Active; 'I' for Inactive)
    1  A    between atoms: O_3  and  C_13
    2  A    between atoms: O_3  and  C_17
    3  A    between atoms: S_11  and  C_13
    4  A    between atoms: S_11  and  C_14
    5  A    between atoms: C_12  and  C_28
    6  A    between atoms: C_14  and  C_34
    7  A    between atoms: C_17  and  C_29
                            x       y       z     vdW  Elec       q    Type
                         _______ _______ _______ _____ _____    ______ ____

>  <TORSDO>
F 7

$$$$
=
 OpenBabel11052418463D

 34 38  0  0  1  0  0  0  0  0999 V2000
  192.4120  174.1230  145.0820 C   0  0  0  0  0  0  0  0  0  0  0  0
  191.9430  176.4480  144.5500 C   0  0  0  0  0  0  0  0  0  0  0  0
  190.7120  174.5680  143.3780 C   0  0  0  0  0  0  0  0  0  0  0  0
  188.9560  174.7700  141.6390 C   0  0  2  0  0  3  0  0  0  0  0  0
  193.3830  175.8830  146.4230 C   0  0  0  0  0  3  0  0  0  0  0  0
  192.7730  176.8340  145.6080 C   0  0  0  0  0  3  0  0  0  0  0  0
  189.0660  176.6490  143.1930 C   0  0  0  0  0  2  0  0  0  0  0  0
  191.6520  175.0700  144.3360 C   0  0  0  0  0  0  0  0  0  0  0  0
  187.4580  175.7030  141.2050 S   0  0  0  0  0  0  0  0  0  0  0  0
  193.2280  174.5320  146.1380 C   0  0  0  0  0  3  0  0  0  0  0  0
  191.6080  172.3200  143.6940 C   0  0  0  0  0  3  0  0  0  0  0  0
  192.3920  172.7710  144.7480 C   0  0  0  0  0  3  0  0  0  0  0  0
  191.6790  177.5050  143.5350 C   0  0  0  0  0  1  0  0  0  0  0  0
  188.6980  173.3870  141.6230 O   0  0  0  0  0  0  0  0  0  0  0  0
  189.8930  172.6610  141.8990 C   0  0  2  0  0  3  0  0  0  0  0  0
  187.6890  176.8610  142.5950 C   0  0  2  0  0  3  0  0  0  0  0  0
  189.3710  175.1880  143.0280 C   0  0  2  0  0  3  0  0  0  0  0  0
  190.7790  173.2060  143.0070 C   0  0  0  0  0  0  0  0  0  0  0  0
  191.8120  170.5020  139.4160 C   0  0  1  0  0  3  0  0  0  0  0  0
  191.3940  170.5550  138.0860 O   0  0  0  0  0  1  0  0  0  0  0  0
  190.6360  172.1380  140.6540 C   0  0  2  0  0  3  0  0  0  0  0  0
  192.7490  171.5960  139.6760 N   0  0  0  0  0  2  0  0  0  0  0  0
  190.6120  170.6580  140.3270 C   0  0  2  0  0  3  0  0  0  0  0  0
  192.0850  172.5450  140.5660 C   0  0  0  0  0  2  0  0  0  0  0  0
  190.8160  169.7630  141.5390 C   0  0  0  0  0  1  0  0  0  0  0  0
  187.5440  178.2910  142.1110 C   0  0  0  0  0  2  0  0  0  0  0  0
  186.6390  178.9920  142.9520 O   0  0  0  0  0  0  0  0  0  0  0  0
  185.2920  178.6420  143.0570 C   0  0  0  0  0  0  0  0  0  0  0  0
  184.6750  178.2590  142.0290 O   0  0  0  0  0  0  0  0  0  0  0  0
  184.4220  178.6970  144.6280 S   0  0  0  0  0  0  0  0  0  0  0  0
  185.9370  179.0260  145.5790 C   0  0  0  0  0  2  0  0  0  0  0  0
  185.1920  176.7910  146.3410 C   0  0  0  0  0  1  0  0  0  0  0  0
  187.5880  177.3740  146.4370 C   0  0  0  0  0  1  0  0  0  0  0  0
  186.1800  177.9130  146.5840 C   0  0  0  0  0  3  0  0  0  0  0  0
  1 10  2  0  0  0  0
  2  6  1  0  0  0  0
  3  8  1  0  0  0  0
  4  9  1  1  0  0  0
  4 17  1  0  0  0  0
  6  5  2  0  0  0  0
  8  2  2  0  0  0  0
  8  1  1  0  0  0  0
  9 16  1  0  0  0  0
 10  5  1  0  0  0  0
 11 12  2  0  0  0  0
 12  1  1  0  0  0  0
 13  2  1  0  0  0  0
 14  4  1  0  0  0  0
 15 14  1  6  0  0  0
 15 18  1  0  0  0  0
 16 26  1  6  0  0  0
 16  7  1  0  0  0  0
 17  7  1  6  0  0  0
 17  3  1  0  0  0  0
 18  3  2  0  0  0  0
 18 11  1  0  0  0  0
 19 20  1  6  0  0  0
 19 22  1  0  0  0  0
 19 23  1  0  0  0  0
 21 24  1  1  0  0  0
 21 15  1  0  0  0  0
 22 24  1  0  0  0  0
 23 21  1  0  0  0  0
 23 25  1  1  0  0  0
 26 27  1  0  0  0  0
 27 28  1  0  0  0  0
 28 30  1  0  0  0  0
 29 28  2  0  0  0  0
 30 31  1  0  0  0  0
 31 34  1  0  0  0  0
 32 34  1  0  0  0  0
 33 34  1  0  0  0  0
M  END
>  <MODEL>
9

>  <REMARK>
 VINA RESULT:      -7.2      3.337      5.796
  Name = 
  7 active torsions:
  status: ('A' for Active; 'I' for Inactive)
    1  A    between atoms: O_3  and  C_13
    2  A    between atoms: O_3  and  C_17
    3  A    between atoms: S_11  and  C_13
    4  A    between atoms: S_11  and  C_14
    5  A    between atoms: C_12  and  C_28
    6  A    between atoms: C_14  and  C_34
    7  A    between atoms: C_17  and  C_29
                            x       y       z     vdW  Elec       q    Type
                         _______ _______ _______ _____ _____    ______ ____

>  <TORSDO>
F 7

$$$$
