=
 OpenBabel11052417493D

 31 35  0  0  1  0  0  0  0  0999 V2000
  185.2430  178.0270  146.0720 C   0  0  0  0  0  0  0  0  0  0  0  0
  187.9720  177.1320  143.5140 C   0  0  1  0  0  3  0  0  0  0  0  0
  187.2150  177.1490  142.1900 C   0  0  0  0  0  0  0  0  0  0  0  0
  191.5770  175.9440  147.1450 O   0  0  0  0  0  0  0  0  0  0  0  0
  191.9210  175.3950  146.0630 C   0  0  0  0  0  0  0  0  0  0  0  0
  185.5570  178.1750  140.7280 C   0  0  0  0  0  0  0  0  0  0  0  0
  187.1790  177.2870  144.8000 C   0  0  0  0  0  0  0  0  0  0  0  0
  185.9040  177.7290  147.2650 C   0  0  0  0  0  3  0  0  0  0  0  0
  186.1850  178.0780  141.9710 C   0  0  0  0  0  3  0  0  0  0  0  0
  189.7180  175.9880  144.9020 C   0  0  0  0  0  0  0  0  0  0  0  0
  183.6200  178.6810  146.1100 Cl  0  0  0  0  0  0  0  0  0  0  0  0
  188.8100  175.4040  141.2250 C   0  0  0  0  0  2  0  0  0  0  0  0
  184.5480  179.0600  140.5460 F   0  0  0  0  0  0  0  0  0  0  0  0
  189.1660  176.4420  145.9920 N   0  0  0  0  0  0  0  0  0  0  0  0
  188.8990  175.9120  143.6370 C   0  0  2  0  0  3  0  0  0  0  0  0
  191.0330  175.4150  144.9350 N   0  0  0  0  0  2  0  0  0  0  0  0
  185.8810  177.8190  144.8470 C   0  0  0  0  0  3  0  0  0  0  0  0
  185.9760  177.3670  139.6710 C   0  0  0  0  0  3  0  0  0  0  0  0
  187.8380  176.9880  146.0120 C   0  0  0  0  0  0  0  0  0  0  0  0
  187.2010  177.2120  147.2350 C   0  0  0  0  0  3  0  0  0  0  0  0
  189.7390  175.7650  142.3780 C   0  0  0  0  0  2  0  0  0  0  0  0
  187.6720  176.3760  141.0930 C   0  0  0  0  0  0  0  0  0  0  0  0
  187.0320  176.4740  139.8530 C   0  0  0  0  0  3  0  0  0  0  0  0
  195.6420  173.3300  145.6710 C   0  0  0  0  0  0  0  0  0  0  0  0
  193.2720  173.3470  145.7060 C   0  0  0  0  0  3  0  0  0  0  0  0
  194.5800  176.8830  146.2770 C   0  0  0  0  0  1  0  0  0  0  0  0
  196.9110  172.5710  145.5280 C   0  0  0  0  0  1  0  0  0  0  0  0
  194.4520  172.6840  145.5800 N   0  0  0  0  0  0  0  0  0  0  0  0
  194.4800  175.4140  146.0330 C   0  0  0  0  0  0  0  0  0  0  0  0
  193.2430  174.7310  145.9360 C   0  0  0  0  0  0  0  0  0  0  0  0
  195.6760  174.7050  145.9000 C   0  0  0  0  0  3  0  0  0  0  0  0
  1 11  1  0  0  0  0
  1  8  1  0  0  0  0
  2  3  1  6  0  0  0
  2 15  1  0  0  0  0
  2  7  1  0  0  0  0
  5  4  2  0  0  0  0
  6  9  2  0  0  0  0
  7 17  1  0  0  0  0
  7 19  2  0  0  0  0
  9  3  1  0  0  0  0
 10 16  1  0  0  0  0
 10 14  2  0  0  0  0
 12 21  1  0  0  0  0
 13  6  1  0  0  0  0
 14 19  1  0  0  0  0
 15 21  1  6  0  0  0
 15 10  1  0  0  0  0
 16  5  1  0  0  0  0
 17  1  2  0  0  0  0
 18 23  2  0  0  0  0
 18  6  1  0  0  0  0
 19 20  1  0  0  0  0
 20  8  2  0  0  0  0
 22 12  1  0  0  0  0
 22  3  2  0  0  0  0
 23 22  1  0  0  0  0
 24 31  1  0  0  0  0
 25 30  2  0  0  0  0
 27 24  1  0  0  0  0
 28 24  2  0  0  0  0
 28 25  1  0  0  0  0
 29 26  1  0  0  0  0
 30 29  1  0  0  0  0
 30  5  1  0  0  0  0
 31 29  2  0  0  0  0
M  END
>  <MODEL>
1

>  <REMARK>
 VINA RESULT:      -9.7      0.000      0.000
  Name = 
  1 active torsions:
  status: ('A' for Active; 'I' for Inactive)
    1  A    between atoms: C_9  and  C_22
                            x       y       z     vdW  Elec       q    Type
                         _______ _______ _______ _____ _____    ______ ____

>  <TORSDO>
F 1

$$$$
=
 OpenBabel11052417493D

 31 35  0  0  1  0  0  0  0  0999 V2000
  185.7790  177.7200  141.1220 C   0  0  0  0  0  0  0  0  0  0  0  0
  187.3340  176.6300  144.4670 C   0  0  1  0  0  3  0  0  0  0  0  0
  186.5540  177.4540  145.4870 C   0  0  0  0  0  0  0  0  0  0  0  0
  191.2220  173.8830  142.2490 O   0  0  0  0  0  0  0  0  0  0  0  0
  191.5640  174.1520  143.4320 C   0  0  0  0  0  0  0  0  0  0  0  0
  184.4420  178.3880  146.2640 C   0  0  0  0  0  0  0  0  0  0  0  0
  187.1070  176.9090  142.9910 C   0  0  0  0  0  0  0  0  0  0  0  0
  186.6940  177.1660  140.2230 C   0  0  0  0  0  3  0  0  0  0  0  0
  185.1910  177.7280  145.2890 C   0  0  0  0  0  3  0  0  0  0  0  0
  189.5690  175.7140  143.7990 C   0  0  0  0  0  0  0  0  0  0  0  0
  184.3720  178.5710  140.5250 Cl  0  0  0  0  0  0  0  0  0  0  0  0
  188.5660  177.4580  147.0600 C   0  0  0  0  0  2  0  0  0  0  0  0
  183.1350  178.6660  146.0410 F   0  0  0  0  0  0  0  0  0  0  0  0
  189.1890  175.6610  142.5530 N   0  0  0  0  0  0  0  0  0  0  0  0
  188.8440  176.6300  144.7540 C   0  0  2  0  0  3  0  0  0  0  0  0
  190.7610  175.0380  144.2270 N   0  0  0  0  0  2  0  0  0  0  0  0
  185.9780  177.5810  142.4970 C   0  0  0  0  0  3  0  0  0  0  0  0
  185.0360  178.7510  147.4720 C   0  0  0  0  0  3  0  0  0  0  0  0
  188.0250  176.3530  142.0750 C   0  0  0  0  0  0  0  0  0  0  0  0
  187.8140  176.4810  140.6990 C   0  0  0  0  0  3  0  0  0  0  0  0
  189.0980  176.3060  146.2180 C   0  0  0  0  0  2  0  0  0  0  0  0
  187.1320  177.7740  146.7420 C   0  0  0  0  0  0  0  0  0  0  0  0
  186.3750  178.4420  147.7100 C   0  0  0  0  0  3  0  0  0  0  0  0
  195.0010  172.2870  145.1560 C   0  0  0  0  0  0  0  0  0  0  0  0
  192.7270  172.2350  144.4890 C   0  0  0  0  0  3  0  0  0  0  0  0
  194.2130  175.6530  143.6830 C   0  0  0  0  0  1  0  0  0  0  0  0
  196.1700  171.5990  145.7630 C   0  0  0  0  0  1  0  0  0  0  0  0
  193.8160  171.6360  145.0380 N   0  0  0  0  0  0  0  0  0  0  0  0
  194.0220  174.2450  144.1410 C   0  0  0  0  0  0  0  0  0  0  0  0
  192.7900  173.5560  144.0220 C   0  0  0  0  0  0  0  0  0  0  0  0
  195.1230  173.6020  144.7100 C   0  0  0  0  0  3  0  0  0  0  0  0
  1 17  1  0  0  0  0
  2  7  1  6  0  0  0
  2 15  1  0  0  0  0
  2  3  1  0  0  0  0
  3 22  1  0  0  0  0
  4  5  2  0  0  0  0
  5 30  1  0  0  0  0
  5 16  1  0  0  0  0
  6 18  2  0  0  0  0
  8 20  1  0  0  0  0
  8  1  2  0  0  0  0
  9  3  2  0  0  0  0
  9  6  1  0  0  0  0
 10 16  1  0  0  0  0
 10 15  1  0  0  0  0
 11  1  1  0  0  0  0
 13  6  1  0  0  0  0
 14 10  2  0  0  0  0
 15 21  1  1  0  0  0
 17  7  2  0  0  0  0
 18 23  1  0  0  0  0
 19 14  1  0  0  0  0
 19  7  1  0  0  0  0
 20 19  2  0  0  0  0
 21 12  1  0  0  0  0
 22 12  1  0  0  0  0
 22 23  2  0  0  0  0
 24 27  1  0  0  0  0
 25 28  2  0  0  0  0
 26 29  1  0  0  0  0
 28 24  1  0  0  0  0
 29 31  1  0  0  0  0
 30 29  2  0  0  0  0
 30 25  1  0  0  0  0
 31 24  2  0  0  0  0
M  END
>  <MODEL>
2

>  <REMARK>
 VINA RESULT:      -9.6      2.221      4.272
  Name = 
  1 active torsions:
  status: ('A' for Active; 'I' for Inactive)
    1  A    between atoms: C_9  and  C_22
                            x       y       z     vdW  Elec       q    Type
                         _______ _______ _______ _____ _____    ______ ____

>  <TORSDO>
F 1

$$$$
=
 OpenBabel11052417493D

 31 35  0  0  1  0  0  0  0  0999 V2000
  195.2070  174.1680  145.7580 C   0  0  0  0  0  0  0  0  0  0  0  0
  191.6990  173.0580  144.6380 C   0  0  1  0  0  3  0  0  0  0  0  0
  191.9760  171.7520  143.9010 C   0  0  0  0  0  0  0  0  0  0  0  0
  189.3630  177.5380  146.0710 O   0  0  0  0  0  0  0  0  0  0  0  0
  188.6160  176.9630  145.2340 C   0  0  0  0  0  0  0  0  0  0  0  0
  193.1800  169.6390  143.7440 C   0  0  0  0  0  0  0  0  0  0  0  0
  192.8830  173.8910  145.0980 C   0  0  0  0  0  0  0  0  0  0  0  0
  194.9410  175.4760  146.1700 C   0  0  0  0  0  3  0  0  0  0  0  0
  192.9880  170.8840  144.3450 C   0  0  0  0  0  3  0  0  0  0  0  0
  190.3740  175.1850  144.6830 C   0  0  0  0  0  0  0  0  0  0  0  0
  196.8220  173.5130  145.9120 Cl  0  0  0  0  0  0  0  0  0  0  0  0
  189.9430  172.1350  142.4030 C   0  0  0  0  0  2  0  0  0  0  0  0
  194.1790  168.8290  144.1720 F   0  0  0  0  0  0  0  0  0  0  0  0
  191.3050  175.7650  145.3850 N   0  0  0  0  0  0  0  0  0  0  0  0
  190.7150  173.9580  143.8730 C   0  0  2  0  0  3  0  0  0  0  0  0
  189.0790  175.7910  144.5460 N   0  0  0  0  0  2  0  0  0  0  0  0
  194.1820  173.3770  145.2360 C   0  0  0  0  0  3  0  0  0  0  0  0
  192.3380  169.2240  142.7130 C   0  0  0  0  0  3  0  0  0  0  0  0
  192.6250  175.2140  145.5170 C   0  0  0  0  0  0  0  0  0  0  0  0
  193.6510  175.9970  146.0520 C   0  0  0  0  0  3  0  0  0  0  0  0
  189.4980  173.1550  143.4440 C   0  0  0  0  0  2  0  0  0  0  0  0
  191.0890  171.2950  142.8930 C   0  0  0  0  0  0  0  0  0  0  0  0
  191.2950  170.0490  142.2920 C   0  0  0  0  0  3  0  0  0  0  0  0
  184.7450  178.4950  144.2670 C   0  0  0  0  0  0  0  0  0  0  0  0
  187.0100  178.0750  143.7080 C   0  0  0  0  0  3  0  0  0  0  0  0
  186.3090  176.7910  147.2290 C   0  0  0  0  0  1  0  0  0  0  0  0
  183.4160  179.0410  143.8880 C   0  0  0  0  0  1  0  0  0  0  0  0
  185.7820  178.5640  143.3940 N   0  0  0  0  0  0  0  0  0  0  0  0
  186.1770  177.4010  145.8730 C   0  0  0  0  0  0  0  0  0  0  0  0
  187.2510  177.4780  144.9540 C   0  0  0  0  0  0  0  0  0  0  0  0
  184.9260  177.9130  145.5210 C   0  0  0  0  0  3  0  0  0  0  0  0
  1 11  1  0  0  0  0
  1  8  1  0  0  0  0
  2  3  1  6  0  0  0
  2  7  1  0  0  0  0
  3  9  1  0  0  0  0
  5  4  2  0  0  0  0
  6 13  1  0  0  0  0
  6  9  2  0  0  0  0
  7 17  1  0  0  0  0
  7 19  2  0  0  0  0
 10 14  2  0  0  0  0
 12 22  1  0  0  0  0
 12 21  1  0  0  0  0
 14 19  1  0  0  0  0
 15 21  1  1  0  0  0
 15  2  1  0  0  0  0
 15 10  1  0  0  0  0
 16 10  1  0  0  0  0
 16  5  1  0  0  0  0
 17  1  2  0  0  0  0
 18  6  1  0  0  0  0
 19 20  1  0  0  0  0
 20  8  2  0  0  0  0
 22  3  2  0  0  0  0
 23 18  2  0  0  0  0
 23 22  1  0  0  0  0
 24 31  1  0  0  0  0
 25 30  2  0  0  0  0
 27 24  1  0  0  0  0
 28 25  1  0  0  0  0
 28 24  2  0  0  0  0
 29 26  1  0  0  0  0
 30  5  1  0  0  0  0
 30 29  1  0  0  0  0
 31 29  2  0  0  0  0
M  END
>  <MODEL>
3

>  <REMARK>
 VINA RESULT:      -8.6      4.407      8.611
  Name = 
  1 active torsions:
  status: ('A' for Active; 'I' for Inactive)
    1  A    between atoms: C_9  and  C_22
                            x       y       z     vdW  Elec       q    Type
                         _______ _______ _______ _____ _____    ______ ____

>  <TORSDO>
F 1

$$$$
=
 OpenBabel11052417493D

 31 35  0  0  1  0  0  0  0  0999 V2000
  195.5770  173.4660  145.4650 C   0  0  0  0  0  0  0  0  0  0  0  0
  191.9210  172.6110  144.6290 C   0  0  1  0  0  3  0  0  0  0  0  0
  192.0560  171.3710  143.7510 C   0  0  0  0  0  0  0  0  0  0  0  0
  189.9720  177.0260  146.7010 O   0  0  0  0  0  0  0  0  0  0  0  0
  189.1160  176.5630  145.9000 C   0  0  0  0  0  0  0  0  0  0  0  0
  193.1290  169.2350  143.2780 C   0  0  0  0  0  0  0  0  0  0  0  0
  193.1870  173.3480  145.0330 C   0  0  0  0  0  0  0  0  0  0  0  0
  195.4210  174.7390  146.0190 C   0  0  0  0  0  3  0  0  0  0  0  0
  193.0630  170.4240  144.0050 C   0  0  0  0  0  3  0  0  0  0  0  0
  190.7160  174.7760  145.0060 C   0  0  0  0  0  0  0  0  0  0  0  0
  197.1650  172.7340  145.3860 Cl  0  0  0  0  0  0  0  0  0  0  0  0
  189.9020  171.9760  142.5200 C   0  0  0  0  0  2  0  0  0  0  0  0
  194.1250  168.3480  143.5210 F   0  0  0  0  0  0  0  0  0  0  0  0
  191.7430  175.2490  145.6550 N   0  0  0  0  0  0  0  0  0  0  0  0
  190.9110  173.6190  144.0570 C   0  0  2  0  0  3  0  0  0  0  0  0
  189.4470  175.4440  145.0640 N   0  0  0  0  0  2  0  0  0  0  0  0
  194.4650  172.7700  144.9860 C   0  0  0  0  0  3  0  0  0  0  0  0
  192.1670  168.9550  142.3090 C   0  0  0  0  0  3  0  0  0  0  0  0
  193.0390  174.6340  145.5950 C   0  0  0  0  0  0  0  0  0  0  0  0
  194.1530  175.3210  146.0870 C   0  0  0  0  0  3  0  0  0  0  0  0
  189.6180  172.9100  143.6890 C   0  0  0  0  0  2  0  0  0  0  0  0
  191.0490  171.0480  142.8070 C   0  0  0  0  0  0  0  0  0  0  0  0
  191.1290  169.8580  142.0770 C   0  0  0  0  0  3  0  0  0  0  0  0
  185.1780  178.2240  145.8200 C   0  0  0  0  0  0  0  0  0  0  0  0
  186.9240  177.0750  146.9400 C   0  0  0  0  0  3  0  0  0  0  0  0
  188.0420  177.9550  143.4020 C   0  0  0  0  0  1  0  0  0  0  0  0
  183.8030  178.7860  145.8380 C   0  0  0  0  0  1  0  0  0  0  0  0
  185.6710  177.6010  146.9210 N   0  0  0  0  0  0  0  0  0  0  0  0
  187.2530  177.8050  144.6600 C   0  0  0  0  0  0  0  0  0  0  0  0
  187.7570  177.1570  145.8140 C   0  0  0  0  0  0  0  0  0  0  0  0
  185.9610  178.3350  144.6720 C   0  0  0  0  0  3  0  0  0  0  0  0
  1  8  1  0  0  0  0
  2  3  1  6  0  0  0
  2  7  1  0  0  0  0
  3  9  1  0  0  0  0
  5  4  2  0  0  0  0
  6 13  1  0  0  0  0
  6  9  2  0  0  0  0
  7 19  2  0  0  0  0
  8 20  2  0  0  0  0
 10 16  1  0  0  0  0
 10 14  2  0  0  0  0
 11  1  1  0  0  0  0
 12 22  1  0  0  0  0
 12 21  1  0  0  0  0
 15 21  1  1  0  0  0
 15  2  1  0  0  0  0
 15 10  1  0  0  0  0
 16  5  1  0  0  0  0
 17  7  1  0  0  0  0
 17  1  2  0  0  0  0
 18  6  1  0  0  0  0
 19 14  1  0  0  0  0
 19 20  1  0  0  0  0
 22  3  2  0  0  0  0
 23 18  2  0  0  0  0
 23 22  1  0  0  0  0
 24 27  1  0  0  0  0
 24 28  1  0  0  0  0
 26 29  1  0  0  0  0
 28 25  2  0  0  0  0
 29 31  1  0  0  0  0
 29 30  2  0  0  0  0
 30  5  1  0  0  0  0
 30 25  1  0  0  0  0
 31 24  2  0  0  0  0
M  END
>  <MODEL>
4

>  <REMARK>
 VINA RESULT:      -8.5      4.497      8.605
  Name = 
  1 active torsions:
  status: ('A' for Active; 'I' for Inactive)
    1  A    between atoms: C_9  and  C_22
                            x       y       z     vdW  Elec       q    Type
                         _______ _______ _______ _____ _____    ______ ____

>  <TORSDO>
F 1

$$$$
=
 OpenBabel11052417493D

 31 35  0  0  1  0  0  0  0  0999 V2000
  186.8730  177.1930  144.8600 C   0  0  0  0  0  0  0  0  0  0  0  0
  189.9840  175.1230  143.9490 C   0  0  1  0  0  3  0  0  0  0  0  0
  191.0380  175.6530  144.9160 C   0  0  0  0  0  0  0  0  0  0  0  0
  187.8160  172.9620  139.6810 O   0  0  0  0  0  0  0  0  0  0  0  0
  189.0680  172.8650  139.5710 C   0  0  0  0  0  0  0  0  0  0  0  0
  191.6520  176.4160  147.1480 C   0  0  0  0  0  0  0  0  0  0  0  0
  188.6370  175.8240  143.8980 C   0  0  0  0  0  0  0  0  0  0  0  0
  186.0360  176.8810  143.7870 C   0  0  0  0  0  3  0  0  0  0  0  0
  190.6810  176.0320  146.2210 C   0  0  0  0  0  3  0  0  0  0  0  0
  189.5000  174.3410  141.6180 C   0  0  0  0  0  0  0  0  0  0  0  0
  186.3020  178.2410  146.1400 Cl  0  0  0  0  0  0  0  0  0  0  0  0
  192.8860  175.1190  143.2360 C   0  0  0  0  0  2  0  0  0  0  0  0
  191.2830  176.8030  148.3930 F   0  0  0  0  0  0  0  0  0  0  0  0
  188.2460  174.6650  141.7560 N   0  0  0  0  0  0  0  0  0  0  0  0
  190.5300  174.9760  142.5200 C   0  0  2  0  0  3  0  0  0  0  0  0
  189.9240  173.5200  140.5190 N   0  0  0  0  0  2  0  0  0  0  0  0
  188.1610  176.6580  144.9220 C   0  0  0  0  0  3  0  0  0  0  0  0
  193.0010  176.3910  146.7950 C   0  0  0  0  0  3  0  0  0  0  0  0
  187.7830  175.5150  142.8170 C   0  0  0  0  0  0  0  0  0  0  0  0
  186.4900  176.0410  142.7680 C   0  0  0  0  0  3  0  0  0  0  0  0
  191.8570  174.2340  142.5420 C   0  0  0  0  0  2  0  0  0  0  0  0
  192.4150  175.5740  144.5890 C   0  0  0  0  0  0  0  0  0  0  0  0
  193.3800  175.9690  145.5210 C   0  0  0  0  0  3  0  0  0  0  0  0
  190.8270  170.4470  136.5170 C   0  0  0  0  0  0  0  0  0  0  0  0
  190.0690  170.7540  138.7430 C   0  0  0  0  0  3  0  0  0  0  0  0
  189.5010  173.9550  136.7510 C   0  0  0  0  0  1  0  0  0  0  0  0
  191.4420  169.5700  135.4880 C   0  0  0  0  0  1  0  0  0  0  0  0
  190.6290  169.9790  137.7760 N   0  0  0  0  0  0  0  0  0  0  0  0
  189.8770  172.5700  137.1610 C   0  0  0  0  0  0  0  0  0  0  0  0
  189.6740  172.0720  138.4710 C   0  0  0  0  0  0  0  0  0  0  0  0
  190.4550  171.7500  136.1900 C   0  0  0  0  0  3  0  0  0  0  0  0
  1 17  1  0  0  0  0
  1 11  1  0  0  0  0
  2  7  1  6  0  0  0
  2  3  1  0  0  0  0
  3  9  1  0  0  0  0
  5  4  2  0  0  0  0
  5 16  1  0  0  0  0
  6 13  1  0  0  0  0
  7 17  2  0  0  0  0
  8  1  2  0  0  0  0
  9  6  2  0  0  0  0
 10 14  2  0  0  0  0
 10 15  1  0  0  0  0
 12 22  1  0  0  0  0
 14 19  1  0  0  0  0
 15 21  1  1  0  0  0
 15  2  1  0  0  0  0
 16 10  1  0  0  0  0
 18  6  1  0  0  0  0
 19  7  1  0  0  0  0
 20 19  2  0  0  0  0
 20  8  1  0  0  0  0
 21 12  1  0  0  0  0
 22  3  2  0  0  0  0
 22 23  1  0  0  0  0
 23 18  2  0  0  0  0
 24 28  1  0  0  0  0
 26 29  1  0  0  0  0
 27 24  1  0  0  0  0
 28 25  2  0  0  0  0
 29 30  2  0  0  0  0
 30 25  1  0  0  0  0
 30  5  1  0  0  0  0
 31 24  2  0  0  0  0
 31 29  1  0  0  0  0
M  END
>  <MODEL>
5

>  <REMARK>
 VINA RESULT:      -8.1      4.521      7.225
  Name = 
  1 active torsions:
  status: ('A' for Active; 'I' for Inactive)
    1  A    between atoms: C_9  and  C_22
                            x       y       z     vdW  Elec       q    Type
                         _______ _______ _______ _____ _____    ______ ____

>  <TORSDO>
F 1

$$$$
=
 OpenBabel11052417493D

 31 35  0  0  1  0  0  0  0  0999 V2000
  193.8270  175.4470  144.9940 C   0  0  0  0  0  0  0  0  0  0  0  0
  190.6530  173.7610  143.6230 C   0  0  1  0  0  3  0  0  0  0  0  0
  191.1450  172.3670  143.2490 C   0  0  0  0  0  0  0  0  0  0  0  0
  187.7960  178.1680  143.6380 O   0  0  0  0  0  0  0  0  0  0  0  0
  187.2480  177.3540  142.8470 C   0  0  0  0  0  0  0  0  0  0  0  0
  192.5020  170.4080  143.7580 C   0  0  0  0  0  0  0  0  0  0  0  0
  191.6780  174.7930  144.0620 C   0  0  0  0  0  0  0  0  0  0  0  0
  193.4030  176.7760  145.0560 C   0  0  0  0  0  3  0  0  0  0  0  0
  192.1220  171.7240  144.0270 C   0  0  0  0  0  3  0  0  0  0  0  0
  189.1940  175.6970  142.9860 C   0  0  0  0  0  0  0  0  0  0  0  0
  195.4320  175.0140  145.5380 Cl  0  0  0  0  0  0  0  0  0  0  0  0
  189.3810  172.2100  141.4090 C   0  0  0  0  0  2  0  0  0  0  0  0
  193.4660  169.8160  144.5040 F   0  0  0  0  0  0  0  0  0  0  0  0
  189.9470  176.5070  143.6750 N   0  0  0  0  0  0  0  0  0  0  0  0
  189.7570  174.3720  142.5330 C   0  0  2  0  0  3  0  0  0  0  0  0
  187.9040  176.1200  142.5190 N   0  0  0  0  0  2  0  0  0  0  0  0
  192.9650  174.4600  144.5110 C   0  0  0  0  0  3  0  0  0  0  0  0
  191.8830  169.7000  142.7280 C   0  0  0  0  0  3  0  0  0  0  0  0
  191.2590  176.1390  144.1290 C   0  0  0  0  0  0  0  0  0  0  0  0
  192.1190  177.1210  144.6270 C   0  0  0  0  0  3  0  0  0  0  0  0
  188.6920  173.3720  142.1130 C   0  0  0  0  0  2  0  0  0  0  0  0
  190.4810  171.6180  142.2450 C   0  0  0  0  0  0  0  0  0  0  0  0
  190.8740  170.3020  141.9770 C   0  0  0  0  0  3  0  0  0  0  0  0
  183.3600  178.2200  141.2960 C   0  0  0  0  0  0  0  0  0  0  0  0
  184.8350  177.8570  143.1170 C   0  0  0  0  0  3  0  0  0  0  0  0
  186.7560  177.5390  139.8380 C   0  0  0  0  0  1  0  0  0  0  0  0
  181.9920  178.5240  140.8020 C   0  0  0  0  0  1  0  0  0  0  0  0
  183.5960  178.1330  142.6300 N   0  0  0  0  0  0  0  0  0  0  0  0
  185.6840  177.7400  140.8580 C   0  0  0  0  0  0  0  0  0  0  0  0
  185.9200  177.6510  142.2510 C   0  0  0  0  0  0  0  0  0  0  0  0
  184.4000  178.0240  140.3890 C   0  0  0  0  0  3  0  0  0  0  0  0
  1  8  1  0  0  0  0
  1 11  1  0  0  0  0
  2  3  1  6  0  0  0
  2  7  1  0  0  0  0
  3  9  1  0  0  0  0
  5  4  2  0  0  0  0
  6  9  2  0  0  0  0
  6 13  1  0  0  0  0
  7 19  2  0  0  0  0
  7 17  1  0  0  0  0
 10 14  2  0  0  0  0
 12 21  1  0  0  0  0
 12 22  1  0  0  0  0
 14 19  1  0  0  0  0
 15 21  1  1  0  0  0
 15 10  1  0  0  0  0
 15  2  1  0  0  0  0
 16  5  1  0  0  0  0
 16 10  1  0  0  0  0
 17  1  2  0  0  0  0
 18  6  1  0  0  0  0
 19 20  1  0  0  0  0
 20  8  2  0  0  0  0
 22  3  2  0  0  0  0
 23 22  1  0  0  0  0
 23 18  2  0  0  0  0
 24 28  1  0  0  0  0
 26 29  1  0  0  0  0
 27 24  1  0  0  0  0
 28 25  2  0  0  0  0
 29 30  2  0  0  0  0
 30  5  1  0  0  0  0
 30 25  1  0  0  0  0
 31 29  1  0  0  0  0
 31 24  2  0  0  0  0
M  END
>  <MODEL>
6

>  <REMARK>
 VINA RESULT:      -8.0      4.393      8.729
  Name = 
  1 active torsions:
  status: ('A' for Active; 'I' for Inactive)
    1  A    between atoms: C_9  and  C_22
                            x       y       z     vdW  Elec       q    Type
                         _______ _______ _______ _____ _____    ______ ____

>  <TORSDO>
F 1

$$$$
=
 OpenBabel11052417493D

 31 35  0  0  1  0  0  0  0  0999 V2000
  186.3290  178.6330  142.8990 C   0  0  0  0  0  0  0  0  0  0  0  0
  188.9320  175.8380  143.3530 C   0  0  1  0  0  3  0  0  0  0  0  0
  189.6720  176.2660  144.6150 C   0  0  0  0  0  0  0  0  0  0  0  0
  187.9460  173.5890  138.7090 O   0  0  0  0  0  0  0  0  0  0  0  0
  189.0880  173.2130  139.0870 C   0  0  0  0  0  0  0  0  0  0  0  0
  189.6270  177.1970  146.8670 C   0  0  0  0  0  0  0  0  0  0  0  0
  187.9130  176.7940  142.7560 C   0  0  0  0  0  0  0  0  0  0  0  0
  185.8770  178.3540  141.6080 C   0  0  0  0  0  3  0  0  0  0  0  0
  188.9850  176.8980  145.6640 C   0  0  0  0  0  3  0  0  0  0  0  0
  189.1250  174.8450  141.0590 C   0  0  0  0  0  0  0  0  0  0  0  0
  185.6250  179.9530  143.8070 Cl  0  0  0  0  0  0  0  0  0  0  0  0
  191.7970  175.1110  143.7930 C   0  0  0  0  0  2  0  0  0  0  0  0
  188.9520  177.8310  147.8550 F   0  0  0  0  0  0  0  0  0  0  0  0
  188.0270  175.4450  140.6930 N   0  0  0  0  0  0  0  0  0  0  0  0
  189.8930  175.3700  142.2470 C   0  0  2  0  0  3  0  0  0  0  0  0
  189.6880  173.8010  140.2510 N   0  0  0  0  0  2  0  0  0  0  0  0
  187.3320  177.8500  143.4740 C   0  0  0  0  0  3  0  0  0  0  0  0
  190.9610  176.8350  147.0540 C   0  0  0  0  0  3  0  0  0  0  0  0
  187.4490  176.5190  141.4510 C   0  0  0  0  0  0  0  0  0  0  0  0
  186.4350  177.2960  140.8860 C   0  0  0  0  0  3  0  0  0  0  0  0
  190.8930  174.3740  142.8120 C   0  0  0  0  0  2  0  0  0  0  0  0
  191.0090  175.8480  144.8390 C   0  0  0  0  0  0  0  0  0  0  0  0
  191.6470  176.1600  146.0440 C   0  0  0  0  0  3  0  0  0  0  0  0
  191.1160  170.0530  137.0450 C   0  0  0  0  0  0  0  0  0  0  0  0
  189.5590  170.8160  138.6620 C   0  0  0  0  0  3  0  0  0  0  0  0
  191.1440  173.8080  136.9080 C   0  0  0  0  0  1  0  0  0  0  0  0
  191.7970  168.9220  136.3620 C   0  0  0  0  0  1  0  0  0  0  0  0
  190.2010  169.8060  138.0170 N   0  0  0  0  0  0  0  0  0  0  0  0
  190.7770  172.4250  137.3330 C   0  0  0  0  0  0  0  0  0  0  0  0
  189.8230  172.1570  138.3450 C   0  0  0  0  0  0  0  0  0  0  0  0
  191.4200  171.3660  136.6890 C   0  0  0  0  0  3  0  0  0  0  0  0
  1 17  1  0  0  0  0
  1 11  1  0  0  0  0
  2  7  1  6  0  0  0
  2  3  1  0  0  0  0
  3 22  2  0  0  0  0
  3  9  1  0  0  0  0
  4  5  2  0  0  0  0
  5 16  1  0  0  0  0
  6 18  1  0  0  0  0
  6 13  1  0  0  0  0
  7 17  2  0  0  0  0
  8  1  2  0  0  0  0
  9  6  2  0  0  0  0
 10 15  1  0  0  0  0
 12 22  1  0  0  0  0
 14 10  2  0  0  0  0
 14 19  1  0  0  0  0
 15 21  1  1  0  0  0
 15  2  1  0  0  0  0
 16 10  1  0  0  0  0
 19  7  1  0  0  0  0
 20 19  2  0  0  0  0
 20  8  1  0  0  0  0
 21 12  1  0  0  0  0
 22 23  1  0  0  0  0
 23 18  2  0  0  0  0
 24 28  1  0  0  0  0
 26 29  1  0  0  0  0
 27 24  1  0  0  0  0
 28 25  2  0  0  0  0
 29 30  2  0  0  0  0
 30 25  1  0  0  0  0
 30  5  1  0  0  0  0
 31 24  2  0  0  0  0
 31 29  1  0  0  0  0
M  END
>  <MODEL>
7

>  <REMARK>
 VINA RESULT:      -8.0      4.459      6.922
  Name = 
  1 active torsions:
  status: ('A' for Active; 'I' for Inactive)
    1  A    between atoms: C_9  and  C_22
                            x       y       z     vdW  Elec       q    Type
                         _______ _______ _______ _____ _____    ______ ____

>  <TORSDO>
F 1

$$$$
=
 OpenBabel11052417493D

 31 35  0  0  1  0  0  0  0  0999 V2000
  191.0590  176.7940  147.5570 C   0  0  0  0  0  0  0  0  0  0  0  0
  188.6300  176.6660  144.5780 C   0  0  1  0  0  3  0  0  0  0  0  0
  187.3500  177.2580  145.1590 C   0  0  0  0  0  0  0  0  0  0  0  0
  191.8430  173.8380  141.5350 O   0  0  0  0  0  0  0  0  0  0  0  0
  190.6730  173.7080  141.0870 C   0  0  0  0  0  0  0  0  0  0  0  0
  186.2470  178.9210  146.5580 C   0  0  0  0  0  0  0  0  0  0  0  0
  189.7930  176.4010  145.5190 C   0  0  0  0  0  0  0  0  0  0  0  0
  192.1010  176.0010  147.0710 C   0  0  0  0  0  3  0  0  0  0  0  0
  187.4100  178.3000  146.1000 C   0  0  0  0  0  3  0  0  0  0  0  0
  189.6260  174.9130  143.0890 C   0  0  0  0  0  0  0  0  0  0  0  0
  191.1910  177.5430  149.1330 Cl  0  0  0  0  0  0  0  0  0  0  0  0
  185.9410  175.8580  143.5530 C   0  0  0  0  0  2  0  0  0  0  0  0
  186.3270  179.9060  147.4860 F   0  0  0  0  0  0  0  0  0  0  0  0
  190.7490  174.9730  143.7490 N   0  0  0  0  0  0  0  0  0  0  0  0
  188.3580  175.4040  143.7430 C   0  0  2  0  0  3  0  0  0  0  0  0
  189.5610  174.2420  141.8220 N   0  0  0  0  0  2  0  0  0  0  0  0
  189.9170  177.0020  146.7810 C   0  0  0  0  0  3  0  0  0  0  0  0
  185.0060  178.5360  146.0540 C   0  0  0  0  0  3  0  0  0  0  0  0
  190.8510  175.6010  145.0360 C   0  0  0  0  0  0  0  0  0  0  0  0
  191.9980  175.4080  145.8100 C   0  0  0  0  0  3  0  0  0  0  0  0
  187.2280  175.6620  142.7600 C   0  0  0  0  0  2  0  0  0  0  0  0
  186.0880  176.9170  144.6090 C   0  0  0  0  0  0  0  0  0  0  0  0
  184.9280  177.5400  145.0810 C   0  0  0  0  0  3  0  0  0  0  0  0
  189.9340  171.8650  137.3020 C   0  0  0  0  0  0  0  0  0  0  0  0
  190.1120  173.7910  138.6740 C   0  0  0  0  0  3  0  0  0  0  0  0
  190.8100  170.6750  140.7570 C   0  0  0  0  0  1  0  0  0  0  0  0
  189.6700  171.2680  135.9680 C   0  0  0  0  0  1  0  0  0  0  0  0
  189.8760  173.2110  137.4670 N   0  0  0  0  0  0  0  0  0  0  0  0
  190.4890  171.6070  139.6370 C   0  0  0  0  0  0  0  0  0  0  0  0
  190.4250  173.0130  139.7980 C   0  0  0  0  0  0  0  0  0  0  0  0
  190.2410  171.0420  138.3850 C   0  0  0  0  0  3  0  0  0  0  0  0
  1 11  1  0  0  0  0
  2  3  1  1  0  0  0
  2  7  1  0  0  0  0
  3  9  1  0  0  0  0
  5  4  2  0  0  0  0
  5 16  1  0  0  0  0
  6 13  1  0  0  0  0
  7 17  1  0  0  0  0
  8  1  1  0  0  0  0
  9  6  2  0  0  0  0
 10 15  1  0  0  0  0
 10 14  2  0  0  0  0
 12 22  1  0  0  0  0
 14 19  1  0  0  0  0
 15 21  1  6  0  0  0
 15  2  1  0  0  0  0
 16 10  1  0  0  0  0
 17  1  2  0  0  0  0
 18  6  1  0  0  0  0
 19  7  2  0  0  0  0
 19 20  1  0  0  0  0
 20  8  2  0  0  0  0
 21 12  1  0  0  0  0
 22 23  1  0  0  0  0
 22  3  2  0  0  0  0
 23 18  2  0  0  0  0
 24 28  2  0  0  0  0
 24 31  1  0  0  0  0
 25 30  2  0  0  0  0
 27 24  1  0  0  0  0
 28 25  1  0  0  0  0
 29 30  1  0  0  0  0
 29 26  1  0  0  0  0
 30  5  1  0  0  0  0
 31 29  2  0  0  0  0
M  END
>  <MODEL>
8

>  <REMARK>
 VINA RESULT:      -8.0      3.770      6.315
  Name = 
  1 active torsions:
  status: ('A' for Active; 'I' for Inactive)
    1  A    between atoms: C_9  and  C_22
                            x       y       z     vdW  Elec       q    Type
                         _______ _______ _______ _____ _____    ______ ____

>  <TORSDO>
F 1

$$$$
=
 OpenBabel11052417493D

 31 35  0  0  1  0  0  0  0  0999 V2000
  192.9620  172.7300  139.5820 C   0  0  0  0  0  0  0  0  0  0  0  0
  192.9210  175.6130  142.1290 C   0  0  1  0  0  3  0  0  0  0  0  0
  194.3980  175.7890  142.4650 C   0  0  0  0  0  0  0  0  0  0  0  0
  187.6910  175.6820  142.6010 O   0  0  0  0  0  0  0  0  0  0  0  0
  188.1790  176.2480  143.6160 C   0  0  0  0  0  0  0  0  0  0  0  0
  196.7250  175.8690  141.7440 C   0  0  0  0  0  0  0  0  0  0  0  0
  192.5160  174.4370  141.2560 C   0  0  0  0  0  0  0  0  0  0  0  0
  191.6010  172.4250  139.5210 C   0  0  0  0  0  3  0  0  0  0  0  0
  195.3800  175.6060  141.4770 C   0  0  0  0  0  3  0  0  0  0  0  0
  190.5740  175.5800  143.0070 C   0  0  0  0  0  0  0  0  0  0  0  0
  194.1000  171.8630  138.5750 Cl  0  0  0  0  0  0  0  0  0  0  0  0
  193.7940  176.6260  144.8010 C   0  0  0  0  0  2  0  0  0  0  0  0
  197.6580  175.6600  140.7840 F   0  0  0  0  0  0  0  0  0  0  0  0
  190.2010  174.8190  142.0170 N   0  0  0  0  0  0  0  0  0  0  0  0
  192.0340  175.6390  143.3840 C   0  0  2  0  0  3  0  0  0  0  0  0
  189.5970  176.2290  143.8350 N   0  0  0  0  0  2  0  0  0  0  0  0
  193.4150  173.7390  140.4360 C   0  0  0  0  0  3  0  0  0  0  0  0
  197.1060  176.3540  142.9940 C   0  0  0  0  0  3  0  0  0  0  0  0
  191.1420  174.1210  141.1880 C   0  0  0  0  0  0  0  0  0  0  0  0
  190.6910  173.1210  140.3210 C   0  0  0  0  0  3  0  0  0  0  0  0
  192.3900  176.8370  144.2500 C   0  0  0  0  0  2  0  0  0  0  0  0
  194.7890  176.3400  143.7110 C   0  0  0  0  0  0  0  0  0  0  0  0
  196.1400  176.5920  143.9730 C   0  0  0  0  0  3  0  0  0  0  0  0
  185.7080  178.1390  146.5470 C   0  0  0  0  0  0  0  0  0  0  0  0
  187.2480  176.4540  145.9050 C   0  0  0  0  0  3  0  0  0  0  0  0
  186.4880  178.6930  142.9130 C   0  0  0  0  0  1  0  0  0  0  0  0
  184.8640  178.7630  147.5980 C   0  0  0  0  0  1  0  0  0  0  0  0
  186.4640  177.0510  146.8420 N   0  0  0  0  0  0  0  0  0  0  0  0
  186.5160  178.0800  144.2740 C   0  0  0  0  0  0  0  0  0  0  0  0
  187.3020  176.9450  144.5920 C   0  0  0  0  0  0  0  0  0  0  0  0
  185.7210  178.6700  145.2580 C   0  0  0  0  0  3  0  0  0  0  0  0
  1 17  1  0  0  0  0
  2  7  1  1  0  0  0
  2  3  1  0  0  0  0
  2 15  1  0  0  0  0
  3 22  1  0  0  0  0
  4  5  2  0  0  0  0
  5 16  1  0  0  0  0
  5 30  1  0  0  0  0
  6 18  2  0  0  0  0
  8  1  2  0  0  0  0
  8 20  1  0  0  0  0
  9  6  1  0  0  0  0
  9  3  2  0  0  0  0
 10 15  1  0  0  0  0
 10 16  1  0  0  0  0
 11  1  1  0  0  0  0
 13  6  1  0  0  0  0
 14 10  2  0  0  0  0
 15 21  1  6  0  0  0
 17  7  2  0  0  0  0
 18 23  1  0  0  0  0
 19  7  1  0  0  0  0
 19 14  1  0  0  0  0
 20 19  2  0  0  0  0
 21 12  1  0  0  0  0
 22 23  2  0  0  0  0
 22 12  1  0  0  0  0
 24 28  1  0  0  0  0
 24 27  1  0  0  0  0
 25 28  2  0  0  0  0
 26 29  1  0  0  0  0
 29 30  2  0  0  0  0
 29 31  1  0  0  0  0
 30 25  1  0  0  0  0
 31 24  2  0  0  0  0
M  END
>  <MODEL>
9

>  <REMARK>
 VINA RESULT:      -7.9      4.622      8.804
  Name = 
  1 active torsions:
  status: ('A' for Active; 'I' for Inactive)
    1  A    between atoms: C_9  and  C_22
                            x       y       z     vdW  Elec       q    Type
                         _______ _______ _______ _____ _____    ______ ____

>  <TORSDO>
F 1

$$$$
