=
 OpenBabel11052419073D

 32 37  0  0  1  0  0  0  0  0999 V2000
  188.6880  175.7060  142.1110 C   0  0  1  0  0  3  0  0  0  0  0  0
  188.4140  175.3010  144.4970 C   0  0  2  0  0  3  0  0  0  0  0  0
  190.7440  171.6160  141.2640 C   0  0  1  0  0  3  0  0  0  0  0  0
  188.2030  174.9220  140.9770 N   0  0  0  0  0  2  0  0  0  0  0  0
  187.6610  175.7020  143.2220 C   0  0  1  0  0  3  0  0  0  0  0  0
  188.5140  176.4030  145.5770 C   0  0  2  0  0  3  0  0  0  0  0  0
  190.7110  170.1880  141.7800 C   0  0  0  0  0  1  0  0  0  0  0  0
  192.9760  176.2540  144.0690 O   0  0  0  0  0  0  0  0  0  0  0  0
  189.7750  174.7810  144.0180 C   0  0  1  0  0  3  0  0  0  0  0  0
  191.5330  177.8950  143.0890 C   0  0  0  0  0  1  0  0  0  0  0  0
  190.9770  176.6860  145.2620 C   0  0  1  0  0  3  0  0  0  0  0  0
  187.1980  177.0920  145.7420 C   0  0  0  0  0  0  0  0  0  0  0  0
  189.9670  171.7370  139.9390 C   0  0  1  0  0  3  0  0  0  0  0  0
  189.3360  174.1400  140.5260 C   0  0  2  0  0  3  0  0  0  0  0  0
  189.6160  177.3940  145.2210 C   0  0  0  0  0  2  0  0  0  0  0  0
  186.9820  177.0770  143.2680 C   0  0  0  0  0  2  0  0  0  0  0  0
  188.8520  172.7900  139.9810 C   0  0  0  0  0  2  0  0  0  0  0  0
  190.3100  172.6180  142.3430 C   0  0  2  0  0  3  0  0  0  0  0  0
  189.0530  172.2690  142.8540 O   0  0  0  0  0  1  0  0  0  0  0  0
  189.9510  175.1540  142.6080 N   0  0  1  0  0  0  0  0  0  0  0  0
  186.7690  177.3960  146.9620 C   0  0  0  0  0  2  0  0  0  0  0  0
  190.2780  174.0320  141.7150 C   0  0  2  0  0  3  0  0  0  0  0  0
  190.9680  175.2210  144.9000 C   0  0  2  0  0  3  0  0  0  0  0  0
  186.3940  177.3320  144.5750 N   0  0  0  0  0  0  0  0  0  0  0  0
  192.0620  177.2780  144.3810 C   0  0  1  0  0  3  0  0  0  0  0  0
  192.3080  175.0170  144.2170 C   0  0  0  0  0  2  0  0  0  0  0  0
  184.9920  177.7240  144.6470 C   0  0  0  0  0  2  0  0  0  0  0  0
  184.7280  178.8990  143.7250 C   0  0  0  0  0  2  0  0  0  0  0  0
  185.4330  180.1270  144.2600 C   0  0  0  0  0  1  0  0  0  0  0  0
  191.1160  172.0920  138.5740 S   0  0  0  0  0  0  0  0  0  0  0  0
  189.7760  169.8150  137.9120 C   0  0  0  0  0  1  0  0  0  0  0  0
  191.1830  170.3520  138.0610 C   0  0  0  0  0  2  0  0  0  0  0  0
  1  4  1  6  0  0  0
  1 20  1  0  0  0  0
  1  5  1  0  0  0  0
  2  6  1  0  0  0  0
  3  7  1  0  0  0  0
  3 18  1  0  0  0  0
  5 16  1  0  0  0  0
  5  2  1  0  0  0  0
  6 12  1  0  0  0  0
  8 26  1  0  0  0  0
  8 25  1  0  0  0  0
  9  2  1  0  0  0  0
  9 23  1  0  0  0  0
 10 25  1  0  0  0  0
 12 21  2  0  0  0  0
 13 17  1  0  0  0  0
 13  3  1  0  0  0  0
 14  4  1  0  0  0  0
 14 22  1  0  0  0  0
 15 11  1  0  0  0  0
 15  6  1  0  0  0  0
 16 24  1  0  0  0  0
 17 14  1  0  0  0  0
 18 19  1  0  0  0  0
 20  9  1  0  0  0  0
 22 18  1  0  0  0  0
 22 20  1  0  0  0  0
 23 11  1  0  0  0  0
 24 27  1  0  0  0  0
 24 12  1  0  0  0  0
 25 11  1  0  0  0  0
 26 23  1  0  0  0  0
 28 29  1  0  0  0  0
 28 27  1  0  0  0  0
 30 13  1  0  0  0  0
 31 32  1  0  0  0  0
 32 30  1  0  0  0  0
M  END
>  <MODEL>
1

>  <REMARK>
 VINA RESULT:      -7.5      0.000      0.000
  Name = 
  4 active torsions:
  status: ('A' for Active; 'I' for Inactive)
    1  A    between atoms: C_14  and  C_21
    2  A    between atoms: C_14  and  N_29
    3  A    between atoms: C_15  and  S_19
    4  A    between atoms: S_19  and  C_26
                            x       y       z     vdW  Elec       q    Type
                         _______ _______ _______ _____ _____    ______ ____

>  <TORSDO>
F 4

$$$$
=
 OpenBabel11052419073D

 32 37  0  0  1  0  0  0  0  0999 V2000
  191.3200  176.0570  142.9940 C   0  0  1  0  0  3  0  0  0  0  0  0
  192.3590  175.1200  144.9880 C   0  0  2  0  0  3  0  0  0  0  0  0
  187.1320  176.5800  144.9590 C   0  0  1  0  0  3  0  0  0  0  0  0
  190.6420  177.3400  142.8200 N   0  0  0  0  0  2  0  0  0  0  0  0
  192.5020  176.2170  143.9250 C   0  0  1  0  0  3  0  0  0  0  0  0
  193.4540  174.0290  144.9580 C   0  0  2  0  0  3  0  0  0  0  0  0
  186.5350  176.8800  146.3230 C   0  0  0  0  0  1  0  0  0  0  0  0
  189.7550  171.5910  143.3530 O   0  0  0  0  0  0  0  0  0  0  0  0
  190.9370  174.5710  144.8160 C   0  0  1  0  0  3  0  0  0  0  0  0
  191.2290  172.5580  141.7320 C   0  0  0  0  0  1  0  0  0  0  0  0
  191.8710  172.2590  144.1790 C   0  0  1  0  0  3  0  0  0  0  0  0
  194.8030  174.6490  144.7850 C   0  0  0  0  0  0  0  0  0  0  0  0
  187.0980  177.8310  144.0620 C   0  0  1  0  0  3  0  0  0  0  0  0
  189.2240  177.0470  142.8850 C   0  0  2  0  0  3  0  0  0  0  0  0
  193.1650  173.0180  143.8550 C   0  0  0  0  0  2  0  0  0  0  0  0
  193.7910  176.1620  143.0960 C   0  0  0  0  0  2  0  0  0  0  0  0
  188.4770  178.2290  143.5180 C   0  0  0  0  0  2  0  0  0  0  0  0
  188.5150  175.9260  145.0770 C   0  0  2  0  0  3  0  0  0  0  0  0
  189.3630  176.7180  145.8640 O   0  0  0  0  0  1  0  0  0  0  0  0
  190.3930  175.0620  143.5430 N   0  0  1  0  0  0  0  0  0  0  0  0
  195.8300  174.1850  145.4900 C   0  0  0  0  0  2  0  0  0  0  0  0
  189.0940  175.7420  143.6550 C   0  0  2  0  0  3  0  0  0  0  0  0
  190.8310  173.0330  144.9510 C   0  0  2  0  0  3  0  0  0  0  0  0
  194.9320  175.7880  143.9190 N   0  0  0  0  0  0  0  0  0  0  0  0
  191.1110  171.7020  142.9890 C   0  0  1  0  0  3  0  0  0  0  0  0
  189.5170  172.4880  144.4190 C   0  0  0  0  0  2  0  0  0  0  0  0
  196.1160  176.6390  143.9010 C   0  0  0  0  0  2  0  0  0  0  0  0
  196.7050  176.6870  142.5040 C   0  0  0  0  0  2  0  0  0  0  0  0
  197.4930  175.4200  142.2460 C   0  0  0  0  0  1  0  0  0  0  0  0
  185.9300  177.5830  142.6890 S   0  0  0  0  0  0  0  0  0  0  0  0
  185.2220  179.7340  144.2020 C   0  0  0  0  0  1  0  0  0  0  0  0
  184.6190  178.5250  143.5180 C   0  0  0  0  0  2  0  0  0  0  0  0
  1  4  1  1  0  0  0
  1 20  1  0  0  0  0
  1  5  1  0  0  0  0
  3 18  1  0  0  0  0
  3  7  1  0  0  0  0
  4 14  1  0  0  0  0
  5  2  1  0  0  0  0
  6  2  1  0  0  0  0
  8 26  1  0  0  0  0
  9 23  1  0  0  0  0
  9  2  1  0  0  0  0
 10 25  1  0  0  0  0
 11 23  1  0  0  0  0
 12  6  1  0  0  0  0
 12 21  2  0  0  0  0
 13  3  1  0  0  0  0
 14 17  1  0  0  0  0
 14 22  1  0  0  0  0
 15 11  1  0  0  0  0
 15  6  1  0  0  0  0
 16 24  1  0  0  0  0
 16  5  1  0  0  0  0
 17 13  1  0  0  0  0
 18 19  1  0  0  0  0
 20 22  1  0  0  0  0
 20  9  1  0  0  0  0
 22 18  1  0  0  0  0
 24 12  1  0  0  0  0
 25  8  1  0  0  0  0
 25 11  1  0  0  0  0
 26 23  1  0  0  0  0
 27 24  1  0  0  0  0
 28 27  1  0  0  0  0
 29 28  1  0  0  0  0
 30 32  1  0  0  0  0
 30 13  1  0  0  0  0
 32 31  1  0  0  0  0
M  END
>  <MODEL>
2

>  <REMARK>
 VINA RESULT:      -7.3      2.895      7.248
  Name = 
  4 active torsions:
  status: ('A' for Active; 'I' for Inactive)
    1  A    between atoms: C_14  and  C_21
    2  A    between atoms: C_14  and  N_29
    3  A    between atoms: C_15  and  S_19
    4  A    between atoms: S_19  and  C_26
                            x       y       z     vdW  Elec       q    Type
                         _______ _______ _______ _____ _____    ______ ____

>  <TORSDO>
F 4

$$$$
=
 OpenBabel11052419073D

 32 37  0  0  1  0  0  0  0  0999 V2000
  189.8840  174.8490  144.9840 C   0  0  1  0  0  3  0  0  0  0  0  0
  189.4240  176.6320  143.3890 C   0  0  2  0  0  3  0  0  0  0  0  0
  194.3210  174.3100  143.6830 C   0  0  1  0  0  3  0  0  0  0  0  0
  190.8980  174.7860  146.0340 N   0  0  0  0  0  2  0  0  0  0  0  0
  189.3380  176.2570  144.8740 C   0  0  1  0  0  3  0  0  0  0  0  0
  188.0640  176.8250  142.6790 C   0  0  2  0  0  3  0  0  0  0  0  0
  195.4690  175.1490  143.1490 C   0  0  0  0  0  1  0  0  0  0  0  0
  189.4940  172.7790  140.7320 O   0  0  0  0  0  0  0  0  0  0  0  0
  190.3070  175.5530  142.7480 C   0  0  1  0  0  3  0  0  0  0  0  0
  188.0390  172.6390  142.6280 C   0  0  0  0  0  1  0  0  0  0  0  0
  188.3450  174.7770  141.2750 C   0  0  1  0  0  3  0  0  0  0  0  0
  187.1360  177.6220  143.5390 C   0  0  0  0  0  0  0  0  0  0  0  0
  194.5080  174.0210  145.1840 C   0  0  1  0  0  3  0  0  0  0  0  0
  191.9740  173.9800  145.4940 C   0  0  2  0  0  3  0  0  0  0  0  0
  187.4590  175.4740  142.3180 C   0  0  0  0  0  2  0  0  0  0  0  0
  187.9280  176.2850  145.4750 C   0  0  0  0  0  2  0  0  0  0  0  0
  193.3200  174.4710  146.0440 C   0  0  0  0  0  2  0  0  0  0  0  0
  192.9600  174.9200  143.3230 C   0  0  2  0  0  3  0  0  0  0  0  0
  192.8900  176.2500  143.7590 O   0  0  0  0  0  1  0  0  0  0  0  0
  190.4570  174.4430  143.6980 N   0  0  1  0  0  0  0  0  0  0  0  0
  186.3760  178.5590  142.9830 C   0  0  0  0  0  2  0  0  0  0  0  0
  191.8500  174.0650  143.9810 C   0  0  2  0  0  3  0  0  0  0  0  0
  189.8200  175.0800  141.3570 C   0  0  2  0  0  3  0  0  0  0  0  0
  187.1560  177.4060  144.9590 N   0  0  0  0  0  0  0  0  0  0  0  0
  188.2790  173.2600  141.2560 C   0  0  1  0  0  3  0  0  0  0  0  0
  190.4730  173.7810  140.9190 C   0  0  0  0  0  2  0  0  0  0  0  0
  186.5190  178.3130  145.9060 C   0  0  0  0  0  2  0  0  0  0  0  0
  185.2210  177.7130  146.4140 C   0  0  0  0  0  2  0  0  0  0  0  0
  184.0640  178.6010  146.0090 C   0  0  0  0  0  1  0  0  0  0  0  0
  194.8340  172.2490  145.4420 S   0  0  0  0  0  0  0  0  0  0  0  0
  196.9990  173.6560  146.3070 C   0  0  0  0  0  1  0  0  0  0  0  0
  196.6330  172.4870  145.4190 C   0  0  0  0  0  2  0  0  0  0  0  0
  1  4  1  1  0  0  0
  2  5  1  0  0  0  0
  3 13  1  0  0  0  0
  5  1  1  0  0  0  0
  5 16  1  0  0  0  0
  6  2  1  0  0  0  0
  6 12  1  0  0  0  0
  7  3  1  0  0  0  0
  8 26  1  0  0  0  0
  8 25  1  0  0  0  0
  9  2  1  0  0  0  0
  9 20  1  0  0  0  0
 11 23  1  0  0  0  0
 11 15  1  0  0  0  0
 12 24  1  0  0  0  0
 13 30  1  0  0  0  0
 13 17  1  0  0  0  0
 14  4  1  0  0  0  0
 14 17  1  0  0  0  0
 15  6  1  0  0  0  0
 18  3  1  0  0  0  0
 18 19  1  0  0  0  0
 18 22  1  0  0  0  0
 20 22  1  0  0  0  0
 20  1  1  0  0  0  0
 21 12  2  0  0  0  0
 22 14  1  0  0  0  0
 23  9  1  0  0  0  0
 24 16  1  0  0  0  0
 24 27  1  0  0  0  0
 25 11  1  0  0  0  0
 25 10  1  0  0  0  0
 26 23  1  0  0  0  0
 27 28  1  0  0  0  0
 29 28  1  0  0  0  0
 32 30  1  0  0  0  0
 32 31  1  0  0  0  0
M  END
>  <MODEL>
3

>  <REMARK>
 VINA RESULT:      -7.2      2.513      5.195
  Name = 
  4 active torsions:
  status: ('A' for Active; 'I' for Inactive)
    1  A    between atoms: C_14  and  C_21
    2  A    between atoms: C_14  and  N_29
    3  A    between atoms: C_15  and  S_19
    4  A    between atoms: S_19  and  C_26
                            x       y       z     vdW  Elec       q    Type
                         _______ _______ _______ _____ _____    ______ ____

>  <TORSDO>
F 4

$$$$
=
 OpenBabel11052419073D

 32 37  0  0  1  0  0  0  0  0999 V2000
  189.7180  175.7840  142.6800 C   0  0  1  0  0  3  0  0  0  0  0  0
  188.8430  175.3160  144.9050 C   0  0  2  0  0  3  0  0  0  0  0  0
  190.9940  171.3860  141.8420 C   0  0  1  0  0  3  0  0  0  0  0  0
  189.3410  175.1990  141.3950 N   0  0  0  0  0  2  0  0  0  0  0  0
  188.4940  175.9530  143.5530 C   0  0  1  0  0  3  0  0  0  0  0  0
  188.9330  176.3020  146.0920 C   0  0  2  0  0  3  0  0  0  0  0  0
  190.5450  169.9760  142.1860 C   0  0  0  0  0  1  0  0  0  0  0  0
  193.4820  175.2170  145.5140 O   0  0  0  0  0  0  0  0  0  0  0  0
  190.1340  174.5250  144.6600 C   0  0  1  0  0  3  0  0  0  0  0  0
  192.6750  177.1990  144.4410 C   0  0  0  0  0  1  0  0  0  0  0  0
  191.4070  176.0270  146.3160 C   0  0  1  0  0  3  0  0  0  0  0  0
  187.7900  177.2650  146.0590 C   0  0  0  0  0  0  0  0  0  0  0  0
  190.5740  171.7570  140.4070 C   0  0  1  0  0  3  0  0  0  0  0  0
  190.3530  174.2040  141.1030 C   0  0  2  0  0  3  0  0  0  0  0  0
  190.2710  177.0310  146.0740 C   0  0  0  0  0  2  0  0  0  0  0  0
  188.1300  177.4420  143.6060 C   0  0  0  0  0  2  0  0  0  0  0  0
  189.7270  173.0350  140.3320 C   0  0  0  0  0  2  0  0  0  0  0  0
  190.5550  172.3970  142.9090 C   0  0  2  0  0  3  0  0  0  0  0  0
  189.1710  172.3180  143.1150 O   0  0  0  0  0  1  0  0  0  0  0  0
  190.6930  174.9280  143.3620 N   0  0  1  0  0  0  0  0  0  0  0  0
  187.1770  177.5890  147.1920 C   0  0  0  0  0  2  0  0  0  0  0  0
  190.9630  173.8140  142.4410 C   0  0  2  0  0  3  0  0  0  0  0  0
  191.1670  174.6280  145.8070 C   0  0  2  0  0  3  0  0  0  0  0  0
  187.3350  177.7500  144.7850 N   0  0  0  0  0  0  0  0  0  0  0  0
  192.7610  176.4040  145.7400 C   0  0  1  0  0  3  0  0  0  0  0  0
  192.5510  174.1600  145.3920 C   0  0  0  0  0  2  0  0  0  0  0  0
  186.0670  178.4490  144.6120 C   0  0  0  0  0  2  0  0  0  0  0  0
  185.0580  177.5440  143.9310 C   0  0  0  0  0  2  0  0  0  0  0  0
  184.5400  178.2200  142.6790 C   0  0  0  0  0  1  0  0  0  0  0  0
  192.0440  171.9160  139.3480 S   0  0  0  0  0  0  0  0  0  0  0  0
  190.4430  169.9430  138.3700 C   0  0  0  0  0  1  0  0  0  0  0  0
  191.2060  171.1710  137.9220 C   0  0  0  0  0  2  0  0  0  0  0  0
  1  4  1  6  0  0  0
  1 20  1  0  0  0  0
  1  5  1  0  0  0  0
  2  6  1  0  0  0  0
  3  7  1  0  0  0  0
  3 18  1  0  0  0  0
  5 16  1  0  0  0  0
  5  2  1  0  0  0  0
  8 25  1  0  0  0  0
  9  2  1  0  0  0  0
  9 23  1  0  0  0  0
 10 25  1  0  0  0  0
 12  6  1  0  0  0  0
 12 21  2  0  0  0  0
 13  3  1  0  0  0  0
 14  4  1  0  0  0  0
 14 22  1  0  0  0  0
 15  6  1  0  0  0  0
 15 11  1  0  0  0  0
 16 24  1  0  0  0  0
 17 13  1  0  0  0  0
 17 14  1  0  0  0  0
 18 19  1  0  0  0  0
 20  9  1  0  0  0  0
 22 18  1  0  0  0  0
 22 20  1  0  0  0  0
 23 11  1  0  0  0  0
 24 12  1  0  0  0  0
 25 11  1  0  0  0  0
 26  8  1  0  0  0  0
 26 23  1  0  0  0  0
 27 24  1  0  0  0  0
 28 27  1  0  0  0  0
 29 28  1  0  0  0  0
 30 13  1  0  0  0  0
 32 31  1  0  0  0  0
 32 30  1  0  0  0  0
M  END
>  <MODEL>
4

>  <REMARK>
 VINA RESULT:      -6.8      1.061      1.185
  Name = 
  4 active torsions:
  status: ('A' for Active; 'I' for Inactive)
    1  A    between atoms: C_14  and  C_21
    2  A    between atoms: C_14  and  N_29
    3  A    between atoms: C_15  and  S_19
    4  A    between atoms: S_19  and  C_26
                            x       y       z     vdW  Elec       q    Type
                         _______ _______ _______ _____ _____    ______ ____

>  <TORSDO>
F 4

$$$$
=
 OpenBabel11052419073D

 32 37  0  0  1  0  0  0  0  0999 V2000
  191.4140  174.7250  144.3110 C   0  0  1  0  0  3  0  0  0  0  0  0
  190.0640  175.9350  142.6830 C   0  0  2  0  0  3  0  0  0  0  0  0
  195.3210  174.9260  141.7870 C   0  0  1  0  0  3  0  0  0  0  0  0
  192.6410  175.1410  144.9870 N   0  0  0  0  0  2  0  0  0  0  0  0
  190.4790  175.9060  144.1600 C   0  0  1  0  0  3  0  0  0  0  0  0
  188.5700  175.6420  142.4130 C   0  0  2  0  0  3  0  0  0  0  0  0
  196.0010  175.8560  140.7980 C   0  0  0  0  0  1  0  0  0  0  0  0
  190.5410  171.6910  140.7680 O   0  0  0  0  0  0  0  0  0  0  0  0
  191.0200  174.9670  141.9730 C   0  0  1  0  0  3  0  0  0  0  0  0
  189.7330  171.6660  143.0220 C   0  0  0  0  0  1  0  0  0  0  0  0
  189.0500  173.4430  141.3270 C   0  0  1  0  0  3  0  0  0  0  0  0
  187.7100  176.3840  143.3850 C   0  0  0  0  0  0  0  0  0  0  0  0
  195.9670  175.0430  143.1810 C   0  0  1  0  0  3  0  0  0  0  0  0
  193.7230  174.4990  144.2700 C   0  0  2  0  0  3  0  0  0  0  0  0
  188.3050  174.1430  142.4730 C   0  0  0  0  0  2  0  0  0  0  0  0
  189.3270  175.7500  145.1600 C   0  0  0  0  0  2  0  0  0  0  0  0
  194.9660  175.3980  144.2880 C   0  0  0  0  0  2  0  0  0  0  0  0
  193.7980  175.1070  141.7810 C   0  0  2  0  0  3  0  0  0  0  0  0
  193.4660  176.4500  142.0060 O   0  0  0  0  0  1  0  0  0  0  0  0
  191.7250  174.1730  142.9890 N   0  0  1  0  0  0  0  0  0  0  0  0
  186.5960  176.9670  142.9570 C   0  0  0  0  0  2  0  0  0  0  0  0
  193.1900  174.1990  142.8770 C   0  0  2  0  0  3  0  0  0  0  0  0
  190.3450  174.0860  140.8950 C   0  0  2  0  0  3  0  0  0  0  0  0
  188.1600  176.5140  144.7440 N   0  0  0  0  0  0  0  0  0  0  0  0
  189.4190  171.9900  141.5640 C   0  0  1  0  0  3  0  0  0  0  0  0
  191.2050  172.9050  140.4820 C   0  0  0  0  0  2  0  0  0  0  0  0
  187.5590  177.4460  145.6900 C   0  0  0  0  0  2  0  0  0  0  0  0
  186.7490  176.6910  146.7270 C   0  0  0  0  0  2  0  0  0  0  0  0
  185.2730  176.9070  146.4690 C   0  0  0  0  0  1  0  0  0  0  0  0
  196.8420  173.5030  143.5950 S   0  0  0  0  0  0  0  0  0  0  0  0
  196.9750  173.0510  146.2770 C   0  0  0  0  0  1  0  0  0  0  0  0
  197.3050  174.1050  145.2430 C   0  0  0  0  0  2  0  0  0  0  0  0
  1  4  1  6  0  0  0
  2  5  1  0  0  0  0
  3 13  1  0  0  0  0
  5  1  1  0  0  0  0
  5 16  1  0  0  0  0
  6 15  1  0  0  0  0
  6  2  1  0  0  0  0
  6 12  1  0  0  0  0
  7  3  1  0  0  0  0
  8 25  1  0  0  0  0
  9  2  1  0  0  0  0
  9 20  1  0  0  0  0
 11 25  1  0  0  0  0
 11 15  1  0  0  0  0
 12 24  1  0  0  0  0
 13 30  1  0  0  0  0
 13 17  1  0  0  0  0
 14 17  1  0  0  0  0
 14  4  1  0  0  0  0
 18  3  1  0  0  0  0
 18 19  1  0  0  0  0
 18 22  1  0  0  0  0
 20  1  1  0  0  0  0
 21 12  2  0  0  0  0
 22 20  1  0  0  0  0
 22 14  1  0  0  0  0
 23 11  1  0  0  0  0
 23  9  1  0  0  0  0
 24 16  1  0  0  0  0
 24 27  1  0  0  0  0
 25 10  1  0  0  0  0
 26  8  1  0  0  0  0
 26 23  1  0  0  0  0
 27 28  1  0  0  0  0
 29 28  1  0  0  0  0
 30 32  1  0  0  0  0
 32 31  1  0  0  0  0
M  END
>  <MODEL>
5

>  <REMARK>
 VINA RESULT:      -6.7      2.781      5.537
  Name = 
  4 active torsions:
  status: ('A' for Active; 'I' for Inactive)
    1  A    between atoms: C_14  and  C_21
    2  A    between atoms: C_14  and  N_29
    3  A    between atoms: C_15  and  S_19
    4  A    between atoms: S_19  and  C_26
                            x       y       z     vdW  Elec       q    Type
                         _______ _______ _______ _____ _____    ______ ____

>  <TORSDO>
F 4

$$$$
=
 OpenBabel11052419073D

 32 37  0  0  1  0  0  0  0  0999 V2000
  191.5920  174.9480  142.9270 C   0  0  1  0  0  3  0  0  0  0  0  0
  191.4940  174.2740  145.2650 C   0  0  2  0  0  3  0  0  0  0  0  0
  191.6430  170.5950  141.2780 C   0  0  1  0  0  3  0  0  0  0  0  0
  190.6810  174.6250  141.8310 N   0  0  0  0  0  2  0  0  0  0  0  0
  190.8120  175.1510  144.2080 C   0  0  1  0  0  3  0  0  0  0  0  0
  192.1820  175.0440  146.4160 C   0  0  2  0  0  3  0  0  0  0  0  0
  191.0920  169.2260  141.6380 C   0  0  0  0  0  1  0  0  0  0  0  0
  195.9410  173.4340  144.0740 O   0  0  0  0  0  0  0  0  0  0  0  0
  192.4420  173.3560  144.4830 C   0  0  1  0  0  3  0  0  0  0  0  0
  195.1900  175.6500  143.5670 C   0  0  0  0  0  1  0  0  0  0  0  0
  194.4760  174.3950  145.6670 C   0  0  1  0  0  3  0  0  0  0  0  0
  191.3030  176.1510  146.9010 C   0  0  0  0  0  0  0  0  0  0  0  0
  190.8180  171.2360  140.1460 C   0  0  1  0  0  3  0  0  0  0  0  0
  191.3190  173.5540  141.0920 C   0  0  2  0  0  3  0  0  0  0  0  0
  193.5370  175.5730  145.9610 C   0  0  0  0  0  2  0  0  0  0  0  0
  190.7750  176.6510  144.5270 C   0  0  0  0  0  2  0  0  0  0  0  0
  190.2540  172.6160  140.5110 C   0  0  0  0  0  2  0  0  0  0  0  0
  191.8090  171.4820  142.5180 C   0  0  2  0  0  3  0  0  0  0  0  0
  190.6000  171.5680  143.2220 O   0  0  0  0  0  1  0  0  0  0  0  0
  192.5680  173.8700  143.1120 N   0  0  1  0  0  0  0  0  0  0  0  0
  191.2040  176.3810  148.2060 C   0  0  0  0  0  2  0  0  0  0  0  0
  192.2810  172.8830  142.0610 C   0  0  2  0  0  3  0  0  0  0  0  0
  193.8150  173.1370  145.1620 C   0  0  2  0  0  3  0  0  0  0  0  0
  190.5230  176.8830  145.9420 N   0  0  0  0  0  0  0  0  0  0  0  0
  195.5820  174.6620  144.6610 C   0  0  1  0  0  3  0  0  0  0  0  0
  194.8480  172.5500  144.2170 C   0  0  0  0  0  2  0  0  0  0  0  0
  189.4310  177.7710  146.3220 C   0  0  0  0  0  2  0  0  0  0  0  0
  188.1110  177.2290  145.8060 C   0  0  0  0  0  2  0  0  0  0  0  0
  187.4500  176.4020  146.8880 C   0  0  0  0  0  1  0  0  0  0  0  0
  191.8190  171.3480  138.6310 S   0  0  0  0  0  0  0  0  0  0  0  0
  189.6910  169.8230  137.8800 C   0  0  0  0  0  1  0  0  0  0  0  0
  191.1990  169.7630  138.0000 C   0  0  0  0  0  2  0  0  0  0  0  0
  1  4  1  6  0  0  0
  1 20  1  0  0  0  0
  1  5  1  0  0  0  0
  2  6  1  0  0  0  0
  3  7  1  0  0  0  0
  3 18  1  0  0  0  0
  5 16  1  0  0  0  0
  5  2  1  0  0  0  0
  6 12  1  0  0  0  0
  8 26  1  0  0  0  0
  8 25  1  0  0  0  0
  9 23  1  0  0  0  0
  9  2  1  0  0  0  0
 10 25  1  0  0  0  0
 11 15  1  0  0  0  0
 12 21  2  0  0  0  0
 13 17  1  0  0  0  0
 13  3  1  0  0  0  0
 14  4  1  0  0  0  0
 14 22  1  0  0  0  0
 15  6  1  0  0  0  0
 16 24  1  0  0  0  0
 17 14  1  0  0  0  0
 18 19  1  0  0  0  0
 20  9  1  0  0  0  0
 22 18  1  0  0  0  0
 22 20  1  0  0  0  0
 23 11  1  0  0  0  0
 24 27  1  0  0  0  0
 24 12  1  0  0  0  0
 25 11  1  0  0  0  0
 26 23  1  0  0  0  0
 28 27  1  0  0  0  0
 28 29  1  0  0  0  0
 30 13  1  0  0  0  0
 31 32  1  0  0  0  0
 32 30  1  0  0  0  0
M  END
>  <MODEL>
6

>  <REMARK>
 VINA RESULT:      -6.6      2.219      3.338
  Name = 
  4 active torsions:
  status: ('A' for Active; 'I' for Inactive)
    1  A    between atoms: C_14  and  C_21
    2  A    between atoms: C_14  and  N_29
    3  A    between atoms: C_15  and  S_19
    4  A    between atoms: S_19  and  C_26
                            x       y       z     vdW  Elec       q    Type
                         _______ _______ _______ _____ _____    ______ ____

>  <TORSDO>
F 4

$$$$
=
 OpenBabel11052419073D

 32 37  0  0  1  0  0  0  0  0999 V2000
  192.1500  175.6640  142.3870 C   0  0  1  0  0  3  0  0  0  0  0  0
  193.4250  173.7180  143.1100 C   0  0  2  0  0  3  0  0  0  0  0  0
  189.0170  175.3610  145.8170 C   0  0  1  0  0  3  0  0  0  0  0  0
  191.8270  176.8840  143.1230 N   0  0  0  0  0  2  0  0  0  0  0  0
  193.5480  175.2010  142.7380 C   0  0  1  0  0  3  0  0  0  0  0  0
  194.1250  172.7360  142.1430 C   0  0  2  0  0  3  0  0  0  0  0  0
  188.9440  174.9180  147.2680 C   0  0  0  0  0  1  0  0  0  0  0  0
  189.6020  171.8540  141.1570 O   0  0  0  0  0  0  0  0  0  0  0  0
  191.9210  173.4620  143.2680 C   0  0  1  0  0  3  0  0  0  0  0  0
  190.7490  173.4270  139.7640 C   0  0  0  0  0  1  0  0  0  0  0  0
  191.9640  171.8010  141.3040 C   0  0  1  0  0  3  0  0  0  0  0  0
  195.4820  173.2440  141.7760 C   0  0  0  0  0  0  0  0  0  0  0  0
  189.0670  176.8970  145.7160 C   0  0  1  0  0  3  0  0  0  0  0  0
  190.4650  176.7140  143.5880 C   0  0  2  0  0  3  0  0  0  0  0  0
  193.2650  172.5110  140.9040 C   0  0  0  0  0  2  0  0  0  0  0  0
  194.4770  175.5040  141.5560 C   0  0  0  0  0  2  0  0  0  0  0  0
  190.2840  177.4170  144.9390 C   0  0  0  0  0  2  0  0  0  0  0  0
  190.1420  174.6420  145.0610 C   0  0  2  0  0  3  0  0  0  0  0  0
  191.3630  174.8130  145.7270 O   0  0  0  0  0  1  0  0  0  0  0  0
  191.1880  174.6060  142.7080 N   0  0  1  0  0  0  0  0  0  0  0  0
  196.5010  172.3940  141.7110 C   0  0  0  0  0  2  0  0  0  0  0  0
  190.2130  175.2140  143.6250 C   0  0  2  0  0  3  0  0  0  0  0  0
  191.4430  172.1100  142.6850 C   0  0  2  0  0  3  0  0  0  0  0  0
  195.6600  174.6570  141.5830 N   0  0  0  0  0  0  0  0  0  0  0  0
  190.7710  172.0390  140.3960 C   0  0  1  0  0  3  0  0  0  0  0  0
  189.9360  172.0450  142.5170 C   0  0  0  0  0  2  0  0  0  0  0  0
  196.9730  175.2860  141.5120 C   0  0  0  0  0  2  0  0  0  0  0  0
  197.4480  175.6660  142.9030 C   0  0  0  0  0  2  0  0  0  0  0  0
  197.1910  177.1390  143.1380 C   0  0  0  0  0  1  0  0  0  0  0  0
  187.5310  177.5240  144.9700 S   0  0  0  0  0  0  0  0  0  0  0  0
  185.4090  176.7910  146.5110 C   0  0  0  0  0  1  0  0  0  0  0  0
  186.6830  177.6060  146.5720 C   0  0  0  0  0  2  0  0  0  0  0  0
  1 20  1  0  0  0  0
  1  5  1  0  0  0  0
  1  4  1  1  0  0  0
  2  9  1  0  0  0  0
  3  7  1  0  0  0  0
  4 14  1  0  0  0  0
  5  2  1  0  0  0  0
  6  2  1  0  0  0  0
  8 26  1  0  0  0  0
 10 25  1  0  0  0  0
 11 23  1  0  0  0  0
 12  6  1  0  0  0  0
 13  3  1  0  0  0  0
 14 22  1  0  0  0  0
 14 17  1  0  0  0  0
 15 11  1  0  0  0  0
 15  6  1  0  0  0  0
 16 24  1  0  0  0  0
 16  5  1  0  0  0  0
 17 13  1  0  0  0  0
 18 19  1  0  0  0  0
 18  3  1  0  0  0  0
 20  9  1  0  0  0  0
 20 22  1  0  0  0  0
 21 12  2  0  0  0  0
 22 18  1  0  0  0  0
 23  9  1  0  0  0  0
 24 12  1  0  0  0  0
 25  8  1  0  0  0  0
 25 11  1  0  0  0  0
 26 23  1  0  0  0  0
 27 24  1  0  0  0  0
 27 28  1  0  0  0  0
 28 29  1  0  0  0  0
 30 13  1  0  0  0  0
 30 32  1  0  0  0  0
 31 32  1  0  0  0  0
M  END
>  <MODEL>
7

>  <REMARK>
 VINA RESULT:      -6.2      3.268      7.756
  Name = 
  4 active torsions:
  status: ('A' for Active; 'I' for Inactive)
    1  A    between atoms: C_14  and  C_21
    2  A    between atoms: C_14  and  N_29
    3  A    between atoms: C_15  and  S_19
    4  A    between atoms: S_19  and  C_26
                            x       y       z     vdW  Elec       q    Type
                         _______ _______ _______ _____ _____    ______ ____

>  <TORSDO>
F 4

$$$$
=
 OpenBabel11052419073D

 32 37  0  0  1  0  0  0  0  0999 V2000
  192.7690  174.6950  143.2180 C   0  0  1  0  0  3  0  0  0  0  0  0
  193.2930  172.6990  144.5140 C   0  0  2  0  0  3  0  0  0  0  0  0
  188.8760  175.6670  145.5800 C   0  0  1  0  0  3  0  0  0  0  0  0
  192.5740  176.0690  143.6740 N   0  0  0  0  0  2  0  0  0  0  0  0
  193.8690  174.0330  144.0190 C   0  0  1  0  0  3  0  0  0  0  0  0
  193.9580  171.4350  143.9210 C   0  0  2  0  0  3  0  0  0  0  0  0
  188.3220  175.5230  146.9870 C   0  0  0  0  0  1  0  0  0  0  0  0
  189.7730  171.3160  141.7560 O   0  0  0  0  0  0  0  0  0  0  0  0
  191.7850  172.7850  144.2490 C   0  0  1  0  0  3  0  0  0  0  0  0
  191.5940  172.3420  140.5860 C   0  0  0  0  0  1  0  0  0  0  0  0
  191.9290  170.8160  142.5990 C   0  0  1  0  0  3  0  0  0  0  0  0
  195.4450  171.5830  143.9130 C   0  0  0  0  0  0  0  0  0  0  0  0
  189.3260  177.1160  145.3150 C   0  0  1  0  0  3  0  0  0  0  0  0
  191.1400  176.2660  143.7320 C   0  0  2  0  0  3  0  0  0  0  0  0
  193.4220  171.1640  142.5200 C   0  0  0  0  0  2  0  0  0  0  0  0
  195.1180  173.9190  143.1370 C   0  0  0  0  0  2  0  0  0  0  0  0
  190.7920  177.2280  144.8760 C   0  0  0  0  0  2  0  0  0  0  0  0
  189.9470  174.6100  145.2820 C   0  0  2  0  0  3  0  0  0  0  0  0
  190.9560  174.6510  146.2540 O   0  0  0  0  0  1  0  0  0  0  0  0
  191.5260  173.9300  143.3650 N   0  0  1  0  0  0  0  0  0  0  0  0
  196.2050  170.5480  144.2550 C   0  0  0  0  0  2  0  0  0  0  0  0
  190.5270  174.8810  143.8730 C   0  0  2  0  0  3  0  0  0  0  0  0
  191.1590  171.4730  143.7170 C   0  0  2  0  0  3  0  0  0  0  0  0
  196.0080  172.8710  143.6140 N   0  0  0  0  0  0  0  0  0  0  0  0
  191.1090  171.1180  141.3580 C   0  0  1  0  0  3  0  0  0  0  0  0
  189.7780  171.6830  143.1210 C   0  0  0  0  0  2  0  0  0  0  0  0
  197.4070  173.1990  143.8590 C   0  0  0  0  0  2  0  0  0  0  0  0
  197.5180  174.2240  144.9730 C   0  0  0  0  0  2  0  0  0  0  0  0
  197.0670  173.6010  146.2770 C   0  0  0  0  0  1  0  0  0  0  0  0
  188.2400  177.8910  144.0790 S   0  0  0  0  0  0  0  0  0  0  0  0
  185.6260  177.4280  144.6890 C   0  0  0  0  0  1  0  0  0  0  0  0
  186.8740  178.0660  145.2610 C   0  0  0  0  0  2  0  0  0  0  0  0
  1 20  1  0  0  0  0
  1  4  1  1  0  0  0
  1  5  1  0  0  0  0
  3  7  1  0  0  0  0
  4 14  1  0  0  0  0
  5  2  1  0  0  0  0
  6  2  1  0  0  0  0
  8 26  1  0  0  0  0
  9  2  1  0  0  0  0
 10 25  1  0  0  0  0
 11 23  1  0  0  0  0
 12  6  1  0  0  0  0
 12 21  2  0  0  0  0
 13  3  1  0  0  0  0
 14 22  1  0  0  0  0
 14 17  1  0  0  0  0
 15 11  1  0  0  0  0
 15  6  1  0  0  0  0
 16 24  1  0  0  0  0
 16  5  1  0  0  0  0
 17 13  1  0  0  0  0
 18  3  1  0  0  0  0
 18 19  1  0  0  0  0
 20 22  1  0  0  0  0
 20  9  1  0  0  0  0
 22 18  1  0  0  0  0
 23  9  1  0  0  0  0
 24 27  1  0  0  0  0
 24 12  1  0  0  0  0
 25  8  1  0  0  0  0
 25 11  1  0  0  0  0
 26 23  1  0  0  0  0
 27 28  1  0  0  0  0
 28 29  1  0  0  0  0
 30 32  1  0  0  0  0
 30 13  1  0  0  0  0
 31 32  1  0  0  0  0
M  END
>  <MODEL>
8

>  <REMARK>
 VINA RESULT:      -6.2      3.345      7.936
  Name = 
  4 active torsions:
  status: ('A' for Active; 'I' for Inactive)
    1  A    between atoms: C_14  and  C_21
    2  A    between atoms: C_14  and  N_29
    3  A    between atoms: C_15  and  S_19
    4  A    between atoms: S_19  and  C_26
                            x       y       z     vdW  Elec       q    Type
                         _______ _______ _______ _____ _____    ______ ____

>  <TORSDO>
F 4

$$$$
=
 OpenBabel11052419073D

 32 37  0  0  1  0  0  0  0  0999 V2000
  192.8990  173.1370  143.9180 C   0  0  1  0  0  3  0  0  0  0  0  0
  193.1360  174.1120  146.1380 C   0  0  2  0  0  3  0  0  0  0  0  0
  196.1190  169.8450  144.6030 C   0  0  1  0  0  3  0  0  0  0  0  0
  192.5620  171.7660  143.5410 N   0  0  0  0  0  2  0  0  0  0  0  0
  192.1130  173.5460  145.1450 C   0  0  1  0  0  3  0  0  0  0  0  0
  192.9980  175.6230  146.4360 C   0  0  2  0  0  3  0  0  0  0  0  0
  196.6680  168.9960  145.7370 C   0  0  0  0  0  1  0  0  0  0  0  0
  196.9550  175.6010  143.8770 O   0  0  0  0  0  0  0  0  0  0  0  0
  194.5080  173.7180  145.5760 C   0  0  1  0  0  3  0  0  0  0  0  0
  194.8990  176.0410  142.7300 C   0  0  0  0  0  1  0  0  0  0  0  0
  195.1290  176.1950  145.2630 C   0  0  1  0  0  3  0  0  0  0  0  0
  191.5620  175.9830  146.6460 C   0  0  0  0  0  0  0  0  0  0  0  0
  195.1660  169.0230  143.7160 C   0  0  1  0  0  3  0  0  0  0  0  0
  193.8190  171.1300  143.2040 C   0  0  2  0  0  3  0  0  0  0  0  0
  193.6150  176.4430  145.3100 C   0  0  0  0  0  2  0  0  0  0  0  0
  191.0070  174.5200  144.7180 C   0  0  0  0  0  2  0  0  0  0  0  0
  193.7690  169.6440  143.5820 C   0  0  0  0  0  2  0  0  0  0  0  0
  195.5220  171.1610  145.1190 C   0  0  2  0  0  3  0  0  0  0  0  0
  194.5570  170.9060  146.1030 O   0  0  0  0  0  1  0  0  0  0  0  0
  194.3340  173.2500  144.1940 N   0  0  1  0  0  0  0  0  0  0  0  0
  191.2370  176.8270  147.6200 C   0  0  0  0  0  2  0  0  0  0  0  0
  194.9020  171.9220  143.9220 C   0  0  2  0  0  3  0  0  0  0  0  0
  195.5840  174.8240  145.6960 C   0  0  2  0  0  3  0  0  0  0  0  0
  190.5650  175.3390  145.8370 N   0  0  0  0  0  0  0  0  0  0  0  0
  195.7940  176.3970  143.9130 C   0  0  1  0  0  3  0  0  0  0  0  0
  196.7950  174.5600  144.8190 C   0  0  0  0  0  2  0  0  0  0  0  0
  189.1410  175.3920  146.1450 C   0  0  0  0  0  2  0  0  0  0  0  0
  188.3810  176.0410  145.0030 C   0  0  0  0  0  2  0  0  0  0  0  0
  188.6360  177.5330  145.0130 C   0  0  0  0  0  1  0  0  0  0  0  0
  195.9030  168.7740  142.0710 S   0  0  0  0  0  0  0  0  0  0  0  0
  197.7040  170.7090  141.4170 C   0  0  0  0  0  1  0  0  0  0  0  0
  197.4010  169.7020  142.5060 C   0  0  0  0  0  2  0  0  0  0  0  0
  1  4  1  1  0  0  0
  1 20  1  0  0  0  0
  1  5  1  0  0  0  0
  2  6  1  0  0  0  0
  3 18  1  0  0  0  0
  3  7  1  0  0  0  0
  5  2  1  0  0  0  0
  6 12  1  0  0  0  0
  8 25  1  0  0  0  0
  8 26  1  0  0  0  0
  9 23  1  0  0  0  0
  9  2  1  0  0  0  0
 10 25  1  0  0  0  0
 11 15  1  0  0  0  0
 11 23  1  0  0  0  0
 12 21  2  0  0  0  0
 13  3  1  0  0  0  0
 14  4  1  0  0  0  0
 14 17  1  0  0  0  0
 14 22  1  0  0  0  0
 15  6  1  0  0  0  0
 16  5  1  0  0  0  0
 16 24  1  0  0  0  0
 17 13  1  0  0  0  0
 18 19  1  0  0  0  0
 20  9  1  0  0  0  0
 22 20  1  0  0  0  0
 22 18  1  0  0  0  0
 24 27  1  0  0  0  0
 24 12  1  0  0  0  0
 25 11  1  0  0  0  0
 26 23  1  0  0  0  0
 28 29  1  0  0  0  0
 28 27  1  0  0  0  0
 30 32  1  0  0  0  0
 30 13  1  0  0  0  0
 31 32  1  0  0  0  0
M  END
>  <MODEL>
9

>  <REMARK>
 VINA RESULT:      -5.9      4.113      5.557
  Name = 
  4 active torsions:
  status: ('A' for Active; 'I' for Inactive)
    1  A    between atoms: C_14  and  C_21
    2  A    between atoms: C_14  and  N_29
    3  A    between atoms: C_15  and  S_19
    4  A    between atoms: S_19  and  C_26
                            x       y       z     vdW  Elec       q    Type
                         _______ _______ _______ _____ _____    ______ ____

>  <TORSDO>
F 4

$$$$
