=
 OpenBabel11052419563D

 37 42  0  0  1  0  0  0  0  0999 V2000
  190.8410  173.4280  142.7130 C   0  0  1  0  0  3  0  0  0  0  0  0
  191.9720  172.8940  144.7950 O   0  0  0  0  0  0  0  0  0  0  0  0
  190.4790  174.6800  143.4980 C   0  0  2  0  0  3  0  0  0  0  0  0
  191.8550  172.5440  143.4310 C   0  0  1  0  0  3  0  0  0  0  0  0
  189.8570  175.5940  142.6360 O   0  0  0  0  0  0  0  0  0  0  0  0
  191.2980  171.1440  143.2900 C   0  0  0  0  0  2  0  0  0  0  0  0
  192.5360  174.1950  144.8970 C   0  0  2  0  0  3  0  0  0  0  0  0
  189.0690  173.1070  141.2320 C   0  0  0  0  0  2  0  0  0  0  0  0
  190.1290  171.2880  142.3340 C   0  0  0  0  0  2  0  0  0  0  0  0
  189.6380  172.6450  142.4930 N   0  0  1  0  0  0  0  0  0  0  0  0
  191.7200  175.2800  144.1520 C   0  0  2  0  0  3  0  0  0  0  0  0
  188.5010  175.2270  142.6350 C   0  0  2  0  0  3  0  0  0  0  0  0
  188.1400  174.3200  141.4400 C   0  0  0  0  0  2  0  0  0  0  0  0
  188.1600  177.6720  142.2530 C   0  0  0  0  0  3  0  0  0  0  0  0
  187.6340  176.4430  142.6680 C   0  0  0  0  0  0  0  0  0  0  0  0
  186.2990  176.3660  143.0890 C   0  0  0  0  0  3  0  0  0  0  0  0
  184.2100  177.4370  143.5120 F   0  0  0  0  0  0  0  0  0  0  0  0
  186.0300  178.7400  142.6880 C   0  0  0  0  0  3  0  0  0  0  0  0
  185.4990  177.5140  143.1030 C   0  0  0  0  0  0  0  0  0  0  0  0
  187.3590  178.8180  142.2620 C   0  0  0  0  0  3  0  0  0  0  0  0
  194.8580  173.7600  145.6610 C   0  0  2  0  0  3  0  0  0  0  0  0
  194.0070  174.2160  144.4890 C   0  0  2  0  0  3  0  0  0  0  0  0
  194.7620  175.2340  145.3200 C   0  0  0  0  0  2  0  0  0  0  0  0
  196.0610  173.2470  145.1760 O   0  0  0  0  0  0  0  0  0  0  0  0
  196.9720  173.4420  146.2150 C   0  0  0  0  0  1  0  0  0  0  0  0
  190.8740  177.7690  144.3580 O   0  0  0  0  0  0  0  0  0  0  0  0
  191.2190  176.6060  145.2790 S   0  0  1  0  0  0  0  0  0  0  0  0
  189.6280  176.0750  145.9630 C   0  0  2  0  0  3  0  0  0  0  0  0
  188.0960  177.9590  145.6820 O   0  0  0  0  0  0  0  0  0  0  0  0
  188.8900  177.2450  146.6070 C   0  0  1  0  0  0  0  0  0  0  0  0
  187.4140  177.2530  146.6950 C   0  0  2  0  0  0  0  0  0  0  0  0
  189.5900  178.1090  147.4550 O   0  0  0  0  0  1  0  0  0  0  0  0
  186.7300  176.1490  146.1810 O   0  0  0  0  0  1  0  0  0  0  0  0
  185.7800  179.0170  147.2170 C   0  0  0  0  0  2  0  0  0  0  0  0
  186.7020  178.1600  147.6500 C   0  0  0  0  0  3  0  0  0  0  0  0
  190.9680  175.2570  147.7660 O   0  0  0  0  0  1  0  0  0  0  0  0
  189.8390  174.9780  146.9930 C   0  0  0  0  0  2  0  0  0  0  0  0
  1  4  1  0  0  0  0
  1  3  1  0  0  0  0
  2  7  1  0  0  0  0
  3 11  1  0  0  0  0
  4  2  1  0  0  0  0
  5  3  1  0  0  0  0
  6  4  1  0  0  0  0
  8 13  1  0  0  0  0
  8 10  1  0  0  0  0
  9 10  1  0  0  0  0
  9  6  1  0  0  0  0
 10  1  1  0  0  0  0
 11  7  1  0  0  0  0
 11 27  1  0  0  0  0
 12  5  1  0  0  0  0
 12 15  1  0  0  0  0
 13 12  1  0  0  0  0
 14 20  2  0  0  0  0
 14 15  1  0  0  0  0
 15 16  2  0  0  0  0
 16 19  1  0  0  0  0
 18 19  2  0  0  0  0
 19 17  1  0  0  0  0
 20 18  1  0  0  0  0
 22  7  1  0  0  0  0
 22 23  1  0  0  0  0
 22 21  1  0  0  0  0
 23 21  1  0  0  0  0
 24 21  1  0  0  0  0
 24 25  1  0  0  0  0
 26 27  2  0  0  0  0
 27 28  1  0  0  0  0
 28 30  1  0  0  0  0
 28 37  1  0  0  0  0
 29 30  1  0  0  0  0
 29 31  1  0  0  0  0
 30 31  1  0  0  0  0
 30 32  1  0  0  0  0
 31 35  1  0  0  0  0
 33 31  1  0  0  0  0
 34 35  2  0  0  0  0
 37 36  1  0  0  0  0
M  END
>  <MODEL>
1

>  <REMARK>
 VINA RESULT:      -7.2      0.000      0.000
  Name = 
  8 active torsions:
  status: ('A' for Active; 'I' for Inactive)
    1  A    between atoms: O_3  and  C_21
    2  A    between atoms: C_6  and  C_31
    3  A    between atoms: C_11  and  C_33
    4  A    between atoms: C_17  and  C_23
    5  A    between atoms: C_20  and  C_25
    6  A    between atoms: C_27  and  C_33
    7  A    between atoms: C_29  and  S_36
    8  A    between atoms: C_33  and  S_36
                            x       y       z     vdW  Elec       q    Type
                         _______ _______ _______ _____ _____    ______ ____

>  <TORSDO>
F 8

$$$$
=
 OpenBabel11052419563D

 37 42  0  0  1  0  0  0  0  0999 V2000
  190.0690  175.8170  145.9220 C   0  0  1  0  0  3  0  0  0  0  0  0
  192.4100  175.5110  145.3560 O   0  0  0  0  0  0  0  0  0  0  0  0
  189.9410  175.8310  144.4050 C   0  0  2  0  0  3  0  0  0  0  0  0
  191.4630  175.4320  146.4020 C   0  0  1  0  0  3  0  0  0  0  0  0
  188.5820  175.8220  144.0630 O   0  0  0  0  0  0  0  0  0  0  0  0
  191.7810  176.4460  147.4800 C   0  0  0  0  0  2  0  0  0  0  0  0
  192.1120  174.5220  144.3790 C   0  0  2  0  0  3  0  0  0  0  0  0
  188.3310  177.1700  146.6880 C   0  0  0  0  0  2  0  0  0  0  0  0
  190.4840  177.2030  147.6930 C   0  0  0  0  0  2  0  0  0  0  0  0
  189.7670  177.1430  146.4320 N   0  0  1  0  0  0  0  0  0  0  0  0
  190.6830  174.6450  143.7950 C   0  0  2  0  0  3  0  0  0  0  0  0
  188.1920  177.1710  144.0870 C   0  0  2  0  0  3  0  0  0  0  0  0
  187.5380  177.5680  145.4270 C   0  0  0  0  0  2  0  0  0  0  0  0
  186.1430  178.2490  143.1500 C   0  0  0  0  0  3  0  0  0  0  0  0
  187.2870  177.4710  142.9370 C   0  0  0  0  0  0  0  0  0  0  0  0
  187.5790  177.0020  141.6480 C   0  0  0  0  0  3  0  0  0  0  0  0
  187.0090  176.8470  139.3380 F   0  0  0  0  0  0  0  0  0  0  0  0
  185.5820  178.0790  140.7980 C   0  0  0  0  0  3  0  0  0  0  0  0
  186.7240  177.3030  140.5810 C   0  0  0  0  0  0  0  0  0  0  0  0
  185.2920  178.5530  142.0820 C   0  0  0  0  0  3  0  0  0  0  0  0
  193.8820  172.8290  144.7850 C   0  0  2  0  0  3  0  0  0  0  0  0
  192.3930  173.1110  144.8880 C   0  0  2  0  0  3  0  0  0  0  0  0
  192.9270  172.2490  143.7610 C   0  0  0  0  0  2  0  0  0  0  0  0
  194.2230  171.8460  145.7140 O   0  0  0  0  0  0  0  0  0  0  0  0
  195.5810  171.6100  145.4950 C   0  0  0  0  0  1  0  0  0  0  0  0
  192.2130  174.9500  141.6690 O   0  0  0  0  0  0  0  0  0  0  0  0
  190.7300  174.8340  141.9940 S   0  0  1  0  0  0  0  0  0  0  0  0
  190.2390  173.2220  141.3330 C   0  0  2  0  0  3  0  0  0  0  0  0
  190.7790  173.6140  138.9820 O   0  0  0  0  0  0  0  0  0  0  0  0
  189.7360  173.3480  139.8970 C   0  0  1  0  0  0  0  0  0  0  0  0
  190.1340  172.3640  138.8670 C   0  0  2  0  0  0  0  0  0  0  0  0
  188.6110  174.1350  139.6350 O   0  0  0  0  0  1  0  0  0  0  0  0
  190.9700  171.3170  139.2610 O   0  0  0  0  0  1  0  0  0  0  0  0
  189.7320  171.3490  136.6620 C   0  0  0  0  0  2  0  0  0  0  0  0
  189.3630  172.2290  137.5910 C   0  0  0  0  0  3  0  0  0  0  0  0
  189.6200  171.4380  142.7990 O   0  0  0  0  0  1  0  0  0  0  0  0
  189.1510  172.6080  142.1990 C   0  0  0  0  0  2  0  0  0  0  0  0
  1  4  1  0  0  0  0
  1 10  1  0  0  0  0
  2  4  1  0  0  0  0
  3  1  1  0  0  0  0
  4  6  1  0  0  0  0
  5 12  1  0  0  0  0
  5  3  1  0  0  0  0
  6  9  1  0  0  0  0
  7 22  1  0  0  0  0
  7  2  1  0  0  0  0
 10  8  1  0  0  0  0
 10  9  1  0  0  0  0
 11  7  1  0  0  0  0
 11  3  1  0  0  0  0
 12 13  1  0  0  0  0
 13  8  1  0  0  0  0
 15 14  1  0  0  0  0
 15 12  1  0  0  0  0
 16 15  2  0  0  0  0
 17 19  1  0  0  0  0
 18 20  1  0  0  0  0
 19 18  2  0  0  0  0
 19 16  1  0  0  0  0
 20 14  2  0  0  0  0
 21 22  1  0  0  0  0
 21 24  1  0  0  0  0
 23 21  1  0  0  0  0
 23 22  1  0  0  0  0
 25 24  1  0  0  0  0
 26 27  2  0  0  0  0
 27 11  1  0  0  0  0
 28 27  1  0  0  0  0
 28 37  1  0  0  0  0
 29 30  1  0  0  0  0
 30 28  1  0  0  0  0
 31 29  1  0  0  0  0
 31 33  1  0  0  0  0
 31 30  1  0  0  0  0
 32 30  1  0  0  0  0
 34 35  2  0  0  0  0
 35 31  1  0  0  0  0
 37 36  1  0  0  0  0
M  END
>  <MODEL>
2

>  <REMARK>
 VINA RESULT:      -7.1      2.688      5.724
  Name = 
  8 active torsions:
  status: ('A' for Active; 'I' for Inactive)
    1  A    between atoms: O_3  and  C_21
    2  A    between atoms: C_6  and  C_31
    3  A    between atoms: C_11  and  C_33
    4  A    between atoms: C_17  and  C_23
    5  A    between atoms: C_20  and  C_25
    6  A    between atoms: C_27  and  C_33
    7  A    between atoms: C_29  and  S_36
    8  A    between atoms: C_33  and  S_36
                            x       y       z     vdW  Elec       q    Type
                         _______ _______ _______ _____ _____    ______ ____

>  <TORSDO>
F 8

$$$$
=
 OpenBabel11052419563D

 37 42  0  0  1  0  0  0  0  0999 V2000
  190.0380  175.7490  145.8700 C   0  0  1  0  0  3  0  0  0  0  0  0
  192.3900  175.4950  145.3250 O   0  0  0  0  0  0  0  0  0  0  0  0
  189.9240  175.7670  144.3520 C   0  0  2  0  0  3  0  0  0  0  0  0
  191.4360  175.3910  146.3610 C   0  0  1  0  0  3  0  0  0  0  0  0
  188.5680  175.7310  143.9960 O   0  0  0  0  0  0  0  0  0  0  0  0
  191.7220  176.4050  147.4480 C   0  0  0  0  0  2  0  0  0  0  0  0
  192.1220  174.5050  144.3410 C   0  0  2  0  0  3  0  0  0  0  0  0
  188.2650  177.0610  146.6250 C   0  0  0  0  0  2  0  0  0  0  0  0
  190.4080  177.1350  147.6510 C   0  0  0  0  0  2  0  0  0  0  0  0
  189.7040  177.0650  146.3830 N   0  0  1  0  0  0  0  0  0  0  0  0
  190.6970  174.6010  143.7440 C   0  0  2  0  0  3  0  0  0  0  0  0
  188.1500  177.0720  144.0240 C   0  0  2  0  0  3  0  0  0  0  0  0
  187.4760  177.4480  145.3590 C   0  0  0  0  0  2  0  0  0  0  0  0
  187.7780  177.3520  141.5700 C   0  0  0  0  0  3  0  0  0  0  0  0
  187.2500  177.3580  142.8660 C   0  0  0  0  0  0  0  0  0  0  0  0
  185.8850  177.6110  143.0600 C   0  0  0  0  0  3  0  0  0  0  0  0
  183.7370  178.1130  142.1530 F   0  0  0  0  0  0  0  0  0  0  0  0
  185.5870  177.8610  140.6680 C   0  0  0  0  0  3  0  0  0  0  0  0
  185.0560  177.8670  141.9620 C   0  0  0  0  0  0  0  0  0  0  0  0
  186.9470  177.6030  140.4730 C   0  0  0  0  0  3  0  0  0  0  0  0
  193.9240  172.8490  144.7610 C   0  0  2  0  0  3  0  0  0  0  0  0
  192.4280  173.0970  144.8450 C   0  0  2  0  0  3  0  0  0  0  0  0
  192.9960  172.2540  143.7210 C   0  0  0  0  0  2  0  0  0  0  0  0
  194.2740  171.8680  145.6890 O   0  0  0  0  0  0  0  0  0  0  0  0
  195.6450  171.6810  145.5030 C   0  0  0  0  0  1  0  0  0  0  0  0
  192.2420  174.9280  141.6310 O   0  0  0  0  0  0  0  0  0  0  0  0
  190.7570  174.7990  141.9440 S   0  0  1  0  0  0  0  0  0  0  0  0
  190.2840  173.1860  141.2700 C   0  0  2  0  0  3  0  0  0  0  0  0
  190.7560  173.6440  138.9170 O   0  0  0  0  0  0  0  0  0  0  0  0
  189.7450  173.3230  139.8490 C   0  0  1  0  0  0  0  0  0  0  0  0
  190.1540  172.3740  138.7900 C   0  0  2  0  0  0  0  0  0  0  0  0
  188.5870  174.0740  139.6280 O   0  0  0  0  0  1  0  0  0  0  0  0
  191.0340  171.3500  139.1450 O   0  0  0  0  0  1  0  0  0  0  0  0
  189.6980  171.3380  136.6060 C   0  0  0  0  0  2  0  0  0  0  0  0
  189.3600  172.2360  137.5290 C   0  0  0  0  0  3  0  0  0  0  0  0
  189.7060  171.3250  142.6550 O   0  0  0  0  0  1  0  0  0  0  0  0
  189.2300  172.5370  142.1530 C   0  0  0  0  0  2  0  0  0  0  0  0
  1  4  1  0  0  0  0
  1 10  1  0  0  0  0
  2  4  1  0  0  0  0
  3  1  1  0  0  0  0
  4  6  1  0  0  0  0
  5 12  1  0  0  0  0
  5  3  1  0  0  0  0
  6  9  1  0  0  0  0
  7 22  1  0  0  0  0
  7  2  1  0  0  0  0
 10  8  1  0  0  0  0
 10  9  1  0  0  0  0
 11  7  1  0  0  0  0
 11  3  1  0  0  0  0
 12 13  1  0  0  0  0
 13  8  1  0  0  0  0
 14 15  1  0  0  0  0
 15 16  2  0  0  0  0
 15 12  1  0  0  0  0
 18 19  2  0  0  0  0
 19 17  1  0  0  0  0
 19 16  1  0  0  0  0
 20 18  1  0  0  0  0
 20 14  2  0  0  0  0
 21 22  1  0  0  0  0
 21 24  1  0  0  0  0
 23 21  1  0  0  0  0
 23 22  1  0  0  0  0
 25 24  1  0  0  0  0
 26 27  2  0  0  0  0
 27 11  1  0  0  0  0
 28 27  1  0  0  0  0
 28 37  1  0  0  0  0
 29 30  1  0  0  0  0
 30 28  1  0  0  0  0
 31 29  1  0  0  0  0
 31 33  1  0  0  0  0
 31 30  1  0  0  0  0
 32 30  1  0  0  0  0
 34 35  2  0  0  0  0
 35 31  1  0  0  0  0
 37 36  1  0  0  0  0
M  END
>  <MODEL>
3

>  <REMARK>
 VINA RESULT:      -7.0      2.576      5.647
  Name = 
  8 active torsions:
  status: ('A' for Active; 'I' for Inactive)
    1  A    between atoms: O_3  and  C_21
    2  A    between atoms: C_6  and  C_31
    3  A    between atoms: C_11  and  C_33
    4  A    between atoms: C_17  and  C_23
    5  A    between atoms: C_20  and  C_25
    6  A    between atoms: C_27  and  C_33
    7  A    between atoms: C_29  and  S_36
    8  A    between atoms: C_33  and  S_36
                            x       y       z     vdW  Elec       q    Type
                         _______ _______ _______ _____ _____    ______ ____

>  <TORSDO>
F 8

$$$$
=
 OpenBabel11052419563D

 37 42  0  0  1  0  0  0  0  0999 V2000
  187.4870  175.8750  142.4940 C   0  0  1  0  0  3  0  0  0  0  0  0
  187.2990  177.8060  143.9550 O   0  0  0  0  0  0  0  0  0  0  0  0
  188.5930  175.5250  143.4780 C   0  0  2  0  0  3  0  0  0  0  0  0
  186.6560  177.0770  142.9290 C   0  0  1  0  0  3  0  0  0  0  0  0
  189.0510  174.2280  143.2070 O   0  0  0  0  0  0  0  0  0  0  0  0
  186.5340  177.9200  141.6780 C   0  0  0  0  0  2  0  0  0  0  0  0
  187.3630  177.0050  145.1280 C   0  0  2  0  0  3  0  0  0  0  0  0
  188.1520  174.9240  140.4720 C   0  0  0  0  0  2  0  0  0  0  0  0
  187.1130  177.0590  140.5730 C   0  0  0  0  0  2  0  0  0  0  0  0
  188.0820  176.1830  141.2060 N   0  0  1  0  0  0  0  0  0  0  0  0
  188.0930  175.6570  144.9140 C   0  0  2  0  0  3  0  0  0  0  0  0
  190.0210  174.3880  142.2050 C   0  0  2  0  0  3  0  0  0  0  0  0
  189.4480  174.1530  140.7920 C   0  0  0  0  0  2  0  0  0  0  0  0
  192.4220  173.7840  141.8680 C   0  0  0  0  0  3  0  0  0  0  0  0
  191.1900  173.4950  142.4670 C   0  0  0  0  0  0  0  0  0  0  0  0
  191.0750  172.3870  143.3200 C   0  0  0  0  0  3  0  0  0  0  0  0
  192.0690  170.4990  144.3840 F   0  0  0  0  0  0  0  0  0  0  0  0
  193.4120  171.8610  142.9590 C   0  0  0  0  0  3  0  0  0  0  0  0
  192.1840  171.5690  143.5610 C   0  0  0  0  0  0  0  0  0  0  0  0
  193.5310  172.9680  142.1140 C   0  0  0  0  0  3  0  0  0  0  0  0
  185.5560  178.0990  146.4330 C   0  0  2  0  0  3  0  0  0  0  0  0
  185.9890  176.8070  145.7620 C   0  0  2  0  0  3  0  0  0  0  0  0
  186.0860  176.9510  147.2680 C   0  0  0  0  0  2  0  0  0  0  0  0
  184.1630  178.1270  146.5090 O   0  0  0  0  0  0  0  0  0  0  0  0
  183.7740  179.0230  145.5120 C   0  0  0  0  0  1  0  0  0  0  0  0
  189.7940  173.9940  146.0540 O   0  0  0  0  0  0  0  0  0  0  0  0
  189.4940  175.4880  146.0510 S   0  0  1  0  0  0  0  0  0  0  0  0
  190.9000  176.2360  145.1900 C   0  0  2  0  0  3  0  0  0  0  0  0
  192.7790  174.6800  145.3380 O   0  0  0  0  0  0  0  0  0  0  0  0
  192.2170  175.8650  145.8650 C   0  0  1  0  0  0  0  0  0  0  0  0
  193.4870  175.8780  145.1060 C   0  0  2  0  0  0  0  0  0  0  0  0
  192.3010  175.8940  147.2600 O   0  0  0  0  0  1  0  0  0  0  0  0
  193.4330  176.2560  143.7630 O   0  0  0  0  0  1  0  0  0  0  0  0
  195.6060  174.8480  145.8140 C   0  0  0  0  0  2  0  0  0  0  0  0
  194.8070  175.9130  145.8120 C   0  0  0  0  0  3  0  0  0  0  0  0
  190.7310  178.2040  143.8420 O   0  0  0  0  0  1  0  0  0  0  0  0
  190.7530  177.7490  145.1620 C   0  0  0  0  0  2  0  0  0  0  0  0
  1  4  1  0  0  0  0
  1  3  1  0  0  0  0
  2  7  1  0  0  0  0
  3 11  1  0  0  0  0
  4  2  1  0  0  0  0
  5  3  1  0  0  0  0
  6  4  1  0  0  0  0
  7 22  1  0  0  0  0
  8 13  1  0  0  0  0
  8 10  1  0  0  0  0
  9 10  1  0  0  0  0
  9  6  1  0  0  0  0
 10  1  1  0  0  0  0
 11  7  1  0  0  0  0
 11 27  1  0  0  0  0
 12 15  1  0  0  0  0
 12  5  1  0  0  0  0
 13 12  1  0  0  0  0
 14 20  2  0  0  0  0
 14 15  1  0  0  0  0
 15 16  2  0  0  0  0
 16 19  1  0  0  0  0
 18 19  2  0  0  0  0
 19 17  1  0  0  0  0
 20 18  1  0  0  0  0
 21 24  1  0  0  0  0
 21 23  1  0  0  0  0
 22 21  1  0  0  0  0
 22 23  1  0  0  0  0
 25 24  1  0  0  0  0
 27 26  2  0  0  0  0
 28 30  1  0  0  0  0
 28 27  1  0  0  0  0
 29 30  1  0  0  0  0
 30 32  1  0  0  0  0
 31 29  1  0  0  0  0
 31 35  1  0  0  0  0
 31 30  1  0  0  0  0
 33 31  1  0  0  0  0
 35 34  2  0  0  0  0
 36 37  1  0  0  0  0
 37 28  1  0  0  0  0
M  END
>  <MODEL>
4

>  <REMARK>
 VINA RESULT:      -6.8      2.512      6.985
  Name = 
  8 active torsions:
  status: ('A' for Active; 'I' for Inactive)
    1  A    between atoms: O_3  and  C_21
    2  A    between atoms: C_6  and  C_31
    3  A    between atoms: C_11  and  C_33
    4  A    between atoms: C_17  and  C_23
    5  A    between atoms: C_20  and  C_25
    6  A    between atoms: C_27  and  C_33
    7  A    between atoms: C_29  and  S_36
    8  A    between atoms: C_33  and  S_36
                            x       y       z     vdW  Elec       q    Type
                         _______ _______ _______ _____ _____    ______ ____

>  <TORSDO>
F 8

$$$$
=
 OpenBabel11052419563D

 37 42  0  0  1  0  0  0  0  0999 V2000
  187.5950  177.5890  145.3070 C   0  0  1  0  0  3  0  0  0  0  0  0
  186.0430  176.5260  143.7720 O   0  0  0  0  0  0  0  0  0  0  0  0
  188.6000  176.8240  144.4590 C   0  0  2  0  0  3  0  0  0  0  0  0
  186.1780  177.5400  144.7460 C   0  0  1  0  0  3  0  0  0  0  0  0
  189.8960  177.2210  144.8200 O   0  0  0  0  0  0  0  0  0  0  0  0
  185.3100  177.2370  145.9490 C   0  0  0  0  0  2  0  0  0  0  0  0
  186.8360  176.8570  142.6390 C   0  0  2  0  0  3  0  0  0  0  0  0
  188.5720  177.7360  147.4190 C   0  0  0  0  0  2  0  0  0  0  0  0
  186.2460  177.3400  147.1380 C   0  0  0  0  0  2  0  0  0  0  0  0
  187.5710  177.0150  146.6410 N   0  0  1  0  0  0  0  0  0  0  0  0
  188.3340  177.0570  142.9740 C   0  0  2  0  0  3  0  0  0  0  0  0
  190.2320  176.4080  145.9150 C   0  0  2  0  0  3  0  0  0  0  0  0
  189.9710  177.1060  147.2650 C   0  0  0  0  0  2  0  0  0  0  0  0
  191.9970  174.6710  146.2430 C   0  0  0  0  0  3  0  0  0  0  0  0
  191.6520  175.9560  145.8080 C   0  0  0  0  0  0  0  0  0  0  0  0
  192.6370  176.7910  145.2610 C   0  0  0  0  0  3  0  0  0  0  0  0
  194.9080  177.1570  144.6330 F   0  0  0  0  0  0  0  0  0  0  0  0
  194.2990  175.0620  145.5970 C   0  0  0  0  0  3  0  0  0  0  0  0
  193.9590  176.3460  145.1600 C   0  0  0  0  0  0  0  0  0  0  0  0
  193.3180  174.2240  146.1370 C   0  0  0  0  0  3  0  0  0  0  0  0
  185.2140  177.5520  140.8930 C   0  0  2  0  0  3  0  0  0  0  0  0
  186.2670  178.0460  141.8690 C   0  0  2  0  0  3  0  0  0  0  0  0
  186.5980  177.9160  140.3950 C   0  0  0  0  0  2  0  0  0  0  0  0
  184.3290  178.5930  140.6140 O   0  0  0  0  0  0  0  0  0  0  0  0
  183.0800  177.9780  140.5140 C   0  0  0  0  0  1  0  0  0  0  0  0
  190.7930  176.2610  142.4490 O   0  0  0  0  0  0  0  0  0  0  0  0
  189.3740  175.9380  142.0000 S   0  0  1  0  0  0  0  0  0  0  0  0
  189.0480  174.2850  142.6630 C   0  0  2  0  0  3  0  0  0  0  0  0
  191.3290  173.6540  143.2750 O   0  0  0  0  0  0  0  0  0  0  0  0
  190.2370  173.3570  142.4300 C   0  0  1  0  0  0  0  0  0  0  0  0
  190.6820  172.4180  143.4830 C   0  0  2  0  0  0  0  0  0  0  0  0
  190.6570  173.1020  141.1210 O   0  0  0  0  0  1  0  0  0  0  0  0
  189.9680  172.4060  144.6820 O   0  0  0  0  0  1  0  0  0  0  0  0
  192.6340  170.9760  143.8860 C   0  0  0  0  0  2  0  0  0  0  0  0
  191.5560  171.2490  143.1540 C   0  0  0  0  0  3  0  0  0  0  0  0
  187.7300  172.3270  142.2830 O   0  0  0  0  0  1  0  0  0  0  0  0
  187.8070  173.6950  142.0140 C   0  0  0  0  0  2  0  0  0  0  0  0
  1 10  1  0  0  0  0
  2  4  1  0  0  0  0
  3  5  1  0  0  0  0
  3  1  1  0  0  0  0
  4  1  1  0  0  0  0
  4  6  1  0  0  0  0
  5 12  1  0  0  0  0
  6  9  1  0  0  0  0
  7 11  1  0  0  0  0
  7  2  1  0  0  0  0
 10  9  1  0  0  0  0
 10  8  1  0  0  0  0
 11  3  1  0  0  0  0
 12 13  1  0  0  0  0
 13  8  1  0  0  0  0
 15 12  1  0  0  0  0
 15 14  2  0  0  0  0
 16 15  1  0  0  0  0
 17 19  1  0  0  0  0
 18 20  2  0  0  0  0
 19 16  2  0  0  0  0
 19 18  1  0  0  0  0
 20 14  1  0  0  0  0
 21 22  1  0  0  0  0
 22  7  1  0  0  0  0
 23 21  1  0  0  0  0
 23 22  1  0  0  0  0
 24 21  1  0  0  0  0
 25 24  1  0  0  0  0
 27 26  2  0  0  0  0
 27 28  1  0  0  0  0
 27 11  1  0  0  0  0
 29 31  1  0  0  0  0
 30 28  1  0  0  0  0
 30 29  1  0  0  0  0
 30 31  1  0  0  0  0
 31 33  1  0  0  0  0
 32 30  1  0  0  0  0
 35 31  1  0  0  0  0
 35 34  2  0  0  0  0
 37 36  1  0  0  0  0
 37 28  1  0  0  0  0
M  END
>  <MODEL>
5

>  <REMARK>
 VINA RESULT:      -6.7      2.926      7.850
  Name = 
  8 active torsions:
  status: ('A' for Active; 'I' for Inactive)
    1  A    between atoms: O_3  and  C_21
    2  A    between atoms: C_6  and  C_31
    3  A    between atoms: C_11  and  C_33
    4  A    between atoms: C_17  and  C_23
    5  A    between atoms: C_20  and  C_25
    6  A    between atoms: C_27  and  C_33
    7  A    between atoms: C_29  and  S_36
    8  A    between atoms: C_33  and  S_36
                            x       y       z     vdW  Elec       q    Type
                         _______ _______ _______ _____ _____    ______ ____

>  <TORSDO>
F 8

$$$$
=
 OpenBabel11052419563D

 37 42  0  0  1  0  0  0  0  0999 V2000
  189.1790  174.9450  141.0850 C   0  0  1  0  0  3  0  0  0  0  0  0
  190.1220  172.8830  141.9550 O   0  0  0  0  0  0  0  0  0  0  0  0
  188.9590  175.2010  142.5680 C   0  0  2  0  0  3  0  0  0  0  0  0
  190.0230  173.7060  140.8100 C   0  0  1  0  0  3  0  0  0  0  0  0
  188.5130  176.5190  142.7420 O   0  0  0  0  0  0  0  0  0  0  0  0
  189.2820  172.9850  139.7040 C   0  0  0  0  0  2  0  0  0  0  0  0
  190.8580  173.5690  142.9610 C   0  0  2  0  0  3  0  0  0  0  0  0
  187.4520  176.0850  140.0110 C   0  0  0  0  0  2  0  0  0  0  0  0
  188.1920  173.9490  139.2770 C   0  0  0  0  0  2  0  0  0  0  0  0
  187.8900  174.7620  140.4420 N   0  0  1  0  0  0  0  0  0  0  0  0
  190.2390  174.9320  143.3540 C   0  0  2  0  0  3  0  0  0  0  0  0
  187.1200  176.4570  142.5670 C   0  0  2  0  0  3  0  0  0  0  0  0
  186.6940  176.8250  141.1300 C   0  0  0  0  0  2  0  0  0  0  0  0
  186.2250  178.6770  143.2820 C   0  0  0  0  0  3  0  0  0  0  0  0
  186.4320  177.3230  143.5710 C   0  0  0  0  0  0  0  0  0  0  0  0
  185.9740  176.7940  144.7860 C   0  0  0  0  0  3  0  0  0  0  0  0
  184.8810  177.1040  146.8830 F   0  0  0  0  0  0  0  0  0  0  0  0
  185.1180  178.9710  145.4170 C   0  0  0  0  0  3  0  0  0  0  0  0
  185.3210  177.6180  145.7090 C   0  0  0  0  0  0  0  0  0  0  0  0
  185.5690  179.4990  144.2030 C   0  0  0  0  0  3  0  0  0  0  0  0
  193.0780  172.4620  143.0600 C   0  0  2  0  0  3  0  0  0  0  0  0
  192.3350  173.7040  142.5990 C   0  0  2  0  0  3  0  0  0  0  0  0
  193.1760  173.7460  143.8590 C   0  0  0  0  0  2  0  0  0  0  0  0
  194.2270  172.3070  142.2850 O   0  0  0  0  0  0  0  0  0  0  0  0
  194.9460  171.2930  142.9200 C   0  0  0  0  0  1  0  0  0  0  0  0
  190.2530  173.6100  145.6360 O   0  0  0  0  0  0  0  0  0  0  0  0
  189.8750  174.9950  145.1270 S   0  0  1  0  0  0  0  0  0  0  0  0
  191.1250  176.1000  145.8320 C   0  0  2  0  0  3  0  0  0  0  0  0
  191.0130  175.9140  148.2660 O   0  0  0  0  0  0  0  0  0  0  0  0
  190.6460  176.6990  147.1510 C   0  0  1  0  0  0  0  0  0  0  0  0
  191.6140  177.1850  148.1580 C   0  0  2  0  0  0  0  0  0  0  0  0
  189.3270  177.1520  147.2550 O   0  0  0  0  0  1  0  0  0  0  0  0
  192.9730  177.0870  147.8480 O   0  0  0  0  0  1  0  0  0  0  0  0
  191.5700  177.9110  150.5080 C   0  0  0  0  0  2  0  0  0  0  0  0
  191.1900  178.1180  149.2490 C   0  0  0  0  0  3  0  0  0  0  0  0
  192.7840  177.1350  144.4570 O   0  0  0  0  0  1  0  0  0  0  0  0
  191.4490  177.2170  144.8540 C   0  0  0  0  0  2  0  0  0  0  0  0
  1  3  1  0  0  0  0
  2  7  1  0  0  0  0
  3  5  1  0  0  0  0
  3 11  1  0  0  0  0
  4  1  1  0  0  0  0
  4  2  1  0  0  0  0
  6  4  1  0  0  0  0
  7 11  1  0  0  0  0
  8 10  1  0  0  0  0
  8 13  1  0  0  0  0
  9  6  1  0  0  0  0
  9 10  1  0  0  0  0
 10  1  1  0  0  0  0
 11 27  1  0  0  0  0
 12  5  1  0  0  0  0
 12 15  1  0  0  0  0
 13 12  1  0  0  0  0
 14 15  2  0  0  0  0
 14 20  1  0  0  0  0
 15 16  1  0  0  0  0
 16 19  2  0  0  0  0
 18 19  1  0  0  0  0
 19 17  1  0  0  0  0
 20 18  2  0  0  0  0
 21 23  1  0  0  0  0
 22  7  1  0  0  0  0
 22 21  1  0  0  0  0
 22 23  1  0  0  0  0
 24 25  1  0  0  0  0
 24 21  1  0  0  0  0
 27 26  2  0  0  0  0
 27 28  1  0  0  0  0
 28 30  1  0  0  0  0
 30 32  1  0  0  0  0
 30 31  1  0  0  0  0
 30 29  1  0  0  0  0
 31 29  1  0  0  0  0
 31 35  1  0  0  0  0
 33 31  1  0  0  0  0
 35 34  2  0  0  0  0
 36 37  1  0  0  0  0
 37 28  1  0  0  0  0
M  END
>  <MODEL>
6

>  <REMARK>
 VINA RESULT:      -6.6      2.174      3.442
  Name = 
  8 active torsions:
  status: ('A' for Active; 'I' for Inactive)
    1  A    between atoms: O_3  and  C_21
    2  A    between atoms: C_6  and  C_31
    3  A    between atoms: C_11  and  C_33
    4  A    between atoms: C_17  and  C_23
    5  A    between atoms: C_20  and  C_25
    6  A    between atoms: C_27  and  C_33
    7  A    between atoms: C_29  and  S_36
    8  A    between atoms: C_33  and  S_36
                            x       y       z     vdW  Elec       q    Type
                         _______ _______ _______ _____ _____    ______ ____

>  <TORSDO>
F 8

$$$$
=
 OpenBabel11052419563D

 37 42  0  0  1  0  0  0  0  0999 V2000
  189.4670  173.9280  140.4490 C   0  0  1  0  0  3  0  0  0  0  0  0
  190.0140  171.8140  141.5120 O   0  0  0  0  0  0  0  0  0  0  0  0
  189.2270  174.3310  141.8970 C   0  0  2  0  0  3  0  0  0  0  0  0
  190.1040  172.5500  140.3100 C   0  0  1  0  0  3  0  0  0  0  0  0
  188.9990  175.7130  141.9540 O   0  0  0  0  0  0  0  0  0  0  0  0
  189.3040  171.8770  139.2160 C   0  0  0  0  0  2  0  0  0  0  0  0
  190.8070  172.4460  142.5080 C   0  0  2  0  0  3  0  0  0  0  0  0
  188.0060  175.2480  139.2030 C   0  0  0  0  0  2  0  0  0  0  0  0
  188.4100  172.9700  138.6610 C   0  0  0  0  0  2  0  0  0  0  0  0
  188.1960  173.9090  139.7480 N   0  0  1  0  0  0  0  0  0  0  0  0
  190.4080  173.9180  142.7710 C   0  0  2  0  0  3  0  0  0  0  0  0
  187.6260  175.8660  141.7040 C   0  0  2  0  0  3  0  0  0  0  0  0
  187.3310  176.1860  140.2240 C   0  0  0  0  0  2  0  0  0  0  0  0
  186.1470  177.8430  142.0830 C   0  0  0  0  0  3  0  0  0  0  0  0
  187.0470  176.9070  142.6050 C   0  0  0  0  0  0  0  0  0  0  0  0
  187.3770  176.9460  143.9680 C   0  0  0  0  0  3  0  0  0  0  0  0
  187.1380  177.9580  146.1140 F   0  0  0  0  0  0  0  0  0  0  0  0
  185.9180  178.8560  144.2710 C   0  0  0  0  0  3  0  0  0  0  0  0
  186.8160  177.9230  144.7980 C   0  0  0  0  0  0  0  0  0  0  0  0
  185.5830  178.8150  142.9140 C   0  0  0  0  0  3  0  0  0  0  0  0
  192.7770  170.9450  142.6910 C   0  0  2  0  0  3  0  0  0  0  0  0
  192.3010  172.3090  142.2240 C   0  0  2  0  0  3  0  0  0  0  0  0
  193.0680  172.1760  143.5240 C   0  0  0  0  0  2  0  0  0  0  0  0
  193.9170  170.5900  141.9690 O   0  0  0  0  0  0  0  0  0  0  0  0
  194.2510  169.3200  142.4410 C   0  0  0  0  0  1  0  0  0  0  0  0
  190.1860  172.8100  145.1540 O   0  0  0  0  0  0  0  0  0  0  0  0
  189.9800  174.1760  144.5120 S   0  0  1  0  0  0  0  0  0  0  0  0
  191.3120  175.2040  145.1830 C   0  0  2  0  0  3  0  0  0  0  0  0
  189.6690  175.9450  146.8340 O   0  0  0  0  0  0  0  0  0  0  0  0
  190.7510  176.3500  146.0200 C   0  0  1  0  0  0  0  0  0  0  0  0
  190.8540  176.3290  147.4960 C   0  0  2  0  0  0  0  0  0  0  0  0
  190.4990  177.5820  145.4100 O   0  0  0  0  0  1  0  0  0  0  0  0
  191.4930  175.2360  148.0840 O   0  0  0  0  0  1  0  0  0  0  0  0
  191.5700  177.9150  149.2360 C   0  0  0  0  0  2  0  0  0  0  0  0
  190.6850  177.5820  148.2980 C   0  0  0  0  0  3  0  0  0  0  0  0
  193.4500  176.0370  144.5110 O   0  0  0  0  0  1  0  0  0  0  0  0
  192.1590  175.7680  144.0540 C   0  0  0  0  0  2  0  0  0  0  0  0
  1  3  1  0  0  0  0
  2  7  1  0  0  0  0
  3  5  1  0  0  0  0
  3 11  1  0  0  0  0
  4  1  1  0  0  0  0
  4  2  1  0  0  0  0
  6  4  1  0  0  0  0
  7 11  1  0  0  0  0
  8 10  1  0  0  0  0
  8 13  1  0  0  0  0
  9  6  1  0  0  0  0
  9 10  1  0  0  0  0
 10  1  1  0  0  0  0
 11 27  1  0  0  0  0
 12  5  1  0  0  0  0
 12 15  1  0  0  0  0
 13 12  1  0  0  0  0
 14 15  2  0  0  0  0
 14 20  1  0  0  0  0
 15 16  1  0  0  0  0
 16 19  2  0  0  0  0
 18 19  1  0  0  0  0
 19 17  1  0  0  0  0
 20 18  2  0  0  0  0
 21 23  1  0  0  0  0
 22  7  1  0  0  0  0
 22 21  1  0  0  0  0
 22 23  1  0  0  0  0
 24 25  1  0  0  0  0
 24 21  1  0  0  0  0
 27 26  2  0  0  0  0
 27 28  1  0  0  0  0
 28 30  1  0  0  0  0
 29 31  1  0  0  0  0
 30 29  1  0  0  0  0
 30 31  1  0  0  0  0
 31 33  1  0  0  0  0
 31 35  1  0  0  0  0
 32 30  1  0  0  0  0
 35 34  2  0  0  0  0
 37 36  1  0  0  0  0
 37 28  1  0  0  0  0
M  END
>  <MODEL>
7

>  <REMARK>
 VINA RESULT:      -6.5      2.195      3.501
  Name = 
  8 active torsions:
  status: ('A' for Active; 'I' for Inactive)
    1  A    between atoms: O_3  and  C_21
    2  A    between atoms: C_6  and  C_31
    3  A    between atoms: C_11  and  C_33
    4  A    between atoms: C_17  and  C_23
    5  A    between atoms: C_20  and  C_25
    6  A    between atoms: C_27  and  C_33
    7  A    between atoms: C_29  and  S_36
    8  A    between atoms: C_33  and  S_36
                            x       y       z     vdW  Elec       q    Type
                         _______ _______ _______ _____ _____    ______ ____

>  <TORSDO>
F 8

$$$$
=
 OpenBabel11052419563D

 37 42  0  0  1  0  0  0  0  0999 V2000
  190.5970  176.3620  145.1080 C   0  0  1  0  0  3  0  0  0  0  0  0
  188.2830  175.9700  144.4850 O   0  0  0  0  0  0  0  0  0  0  0  0
  190.7720  175.0210  144.4110 C   0  0  2  0  0  3  0  0  0  0  0  0
  189.1980  176.9440  144.9430 C   0  0  1  0  0  3  0  0  0  0  0  0
  192.1420  174.7440  144.2930 O   0  0  0  0  0  0  0  0  0  0  0  0
  188.8210  177.4120  146.3320 C   0  0  0  0  0  2  0  0  0  0  0  0
  188.6380  175.5800  143.1640 C   0  0  2  0  0  3  0  0  0  0  0  0
  192.2740  176.4260  146.7270 C   0  0  0  0  0  2  0  0  0  0  0  0
  190.0900  177.2620  147.1490 C   0  0  0  0  0  2  0  0  0  0  0  0
  190.8490  176.1910  146.5280 N   0  0  1  0  0  0  0  0  0  0  0  0
  190.0800  175.0300  143.0510 C   0  0  2  0  0  3  0  0  0  0  0  0
  192.4960  174.1350  145.5080 C   0  0  2  0  0  3  0  0  0  0  0  0
  193.0970  175.1400  146.5130 C   0  0  0  0  0  2  0  0  0  0  0  0
  192.9490  171.8380  144.6380 C   0  0  0  0  0  3  0  0  0  0  0  0
  193.4290  172.9950  145.2640 C   0  0  0  0  0  0  0  0  0  0  0  0
  194.7790  173.0750  145.6340 C   0  0  0  0  0  3  0  0  0  0  0  0
  196.9440  172.0800  145.7480 F   0  0  0  0  0  0  0  0  0  0  0  0
  195.1560  170.8460  144.7630 C   0  0  0  0  0  3  0  0  0  0  0  0
  195.6400  171.9990  145.3870 C   0  0  0  0  0  0  0  0  0  0  0  0
  193.8110  170.7660  144.3870 C   0  0  0  0  0  3  0  0  0  0  0  0
  186.8840  176.7910  141.8900 C   0  0  2  0  0  3  0  0  0  0  0  0
  188.3770  176.6900  142.1490 C   0  0  2  0  0  3  0  0  0  0  0  0
  187.7850  176.1070  140.8820 C   0  0  0  0  0  2  0  0  0  0  0  0
  186.5850  178.0800  141.4500 O   0  0  0  0  0  0  0  0  0  0  0  0
  185.4940  177.9160  140.5950 C   0  0  0  0  0  1  0  0  0  0  0  0
  188.6210  172.9370  142.3850 O   0  0  0  0  0  0  0  0  0  0  0  0
  190.0860  173.3530  142.3680 S   0  0  1  0  0  0  0  0  0  0  0  0
  190.4840  173.5540  140.6120 C   0  0  2  0  0  3  0  0  0  0  0  0
  188.7280  172.3540  139.4090 O   0  0  0  0  0  0  0  0  0  0  0  0
  190.0810  172.3180  139.8140 C   0  0  1  0  0  0  0  0  0  0  0  0
  189.7000  172.4290  138.3890 C   0  0  2  0  0  0  0  0  0  0  0  0
  190.4410  171.0530  140.2870 O   0  0  0  0  0  1  0  0  0  0  0  0
  189.7370  173.6980  137.8060 O   0  0  0  0  0  1  0  0  0  0  0  0
  189.6950  171.3630  136.1720 C   0  0  0  0  0  2  0  0  0  0  0  0
  189.6920  171.2280  137.4960 C   0  0  0  0  0  3  0  0  0  0  0  0
  192.6920  173.1520  141.4380 O   0  0  0  0  0  1  0  0  0  0  0  0
  191.9730  173.8090  140.4380 C   0  0  0  0  0  2  0  0  0  0  0  0
  1 10  1  0  0  0  0
  2  4  1  0  0  0  0
  3  1  1  0  0  0  0
  4  1  1  0  0  0  0
  4  6  1  0  0  0  0
  5  3  1  0  0  0  0
  5 12  1  0  0  0  0
  6  9  1  0  0  0  0
  7  2  1  0  0  0  0
 10  8  1  0  0  0  0
 10  9  1  0  0  0  0
 11  7  1  0  0  0  0
 11  3  1  0  0  0  0
 12 13  1  0  0  0  0
 13  8  1  0  0  0  0
 14 15  1  0  0  0  0
 15 12  1  0  0  0  0
 15 16  2  0  0  0  0
 18 19  2  0  0  0  0
 19 16  1  0  0  0  0
 19 17  1  0  0  0  0
 20 14  2  0  0  0  0
 20 18  1  0  0  0  0
 21 22  1  0  0  0  0
 22  7  1  0  0  0  0
 23 21  1  0  0  0  0
 23 22  1  0  0  0  0
 24 21  1  0  0  0  0
 25 24  1  0  0  0  0
 27 26  2  0  0  0  0
 27 11  1  0  0  0  0
 28 27  1  0  0  0  0
 29 30  1  0  0  0  0
 30 32  1  0  0  0  0
 30 28  1  0  0  0  0
 31 29  1  0  0  0  0
 31 30  1  0  0  0  0
 33 31  1  0  0  0  0
 34 35  2  0  0  0  0
 35 31  1  0  0  0  0
 37 28  1  0  0  0  0
 37 36  1  0  0  0  0
M  END
>  <MODEL>
8

>  <REMARK>
 VINA RESULT:      -6.5      3.659      8.462
  Name = 
  8 active torsions:
  status: ('A' for Active; 'I' for Inactive)
    1  A    between atoms: O_3  and  C_21
    2  A    between atoms: C_6  and  C_31
    3  A    between atoms: C_11  and  C_33
    4  A    between atoms: C_17  and  C_23
    5  A    between atoms: C_20  and  C_25
    6  A    between atoms: C_27  and  C_33
    7  A    between atoms: C_29  and  S_36
    8  A    between atoms: C_33  and  S_36
                            x       y       z     vdW  Elec       q    Type
                         _______ _______ _______ _____ _____    ______ ____

>  <TORSDO>
F 8

$$$$
=
 OpenBabel11052419563D

 37 42  0  0  1  0  0  0  0  0999 V2000
  189.4970  174.1970  141.4840 C   0  0  1  0  0  3  0  0  0  0  0  0
  188.8080  176.5190  141.6550 O   0  0  0  0  0  0  0  0  0  0  0  0
  190.7510  174.7600  142.1370 C   0  0  2  0  0  3  0  0  0  0  0  0
  188.3540  175.2030  141.4190 C   0  0  1  0  0  3  0  0  0  0  0  0
  191.5970  173.6990  142.4910 O   0  0  0  0  0  0  0  0  0  0  0  0
  187.8210  175.0730  140.0080 C   0  0  0  0  0  2  0  0  0  0  0  0
  189.2640  176.6230  142.9980 C   0  0  2  0  0  3  0  0  0  0  0  0
  190.2380  172.3950  140.2050 C   0  0  0  0  0  2  0  0  0  0  0  0
  188.5440  173.8710  139.4310 C   0  0  0  0  0  2  0  0  0  0  0  0
  189.8150  173.7880  140.1280 N   0  0  1  0  0  0  0  0  0  0  0  0
  190.3870  175.6160  143.3470 C   0  0  2  0  0  3  0  0  0  0  0  0
  192.3450  173.4290  141.3330 C   0  0  2  0  0  3  0  0  0  0  0  0
  191.7460  172.2750  140.5030 C   0  0  0  0  0  2  0  0  0  0  0  0
  194.0750  172.0470  142.4890 C   0  0  0  0  0  3  0  0  0  0  0  0
  193.7690  173.1540  141.6880 C   0  0  0  0  0  0  0  0  0  0  0  0
  194.8030  173.9750  141.2150 C   0  0  0  0  0  3  0  0  0  0  0  0
  197.1280  174.4910  141.0920 F   0  0  0  0  0  0  0  0  0  0  0  0
  196.4330  172.5880  142.3510 C   0  0  0  0  0  3  0  0  0  0  0  0
  196.1320  173.6950  141.5500 C   0  0  0  0  0  0  0  0  0  0  0  0
  195.4040  171.7650  142.8190 C   0  0  0  0  0  3  0  0  0  0  0  0
  187.4390  177.9110  144.0830 C   0  0  2  0  0  3  0  0  0  0  0  0
  188.1140  176.5530  144.0000 C   0  0  2  0  0  3  0  0  0  0  0  0
  188.3920  177.4690  145.1750 C   0  0  0  0  0  2  0  0  0  0  0  0
  186.1240  177.7400  144.5140 O   0  0  0  0  0  0  0  0  0  0  0  0
  185.4980  178.9540  144.2280 C   0  0  0  0  0  1  0  0  0  0  0  0
  191.3890  177.8880  144.2350 O   0  0  0  0  0  0  0  0  0  0  0  0
  191.8690  176.4730  143.9390 S   0  0  1  0  0  0  0  0  0  0  0  0
  192.2150  175.7570  145.5660 C   0  0  2  0  0  3  0  0  0  0  0  0
  194.3030  175.1070  144.4730 O   0  0  0  0  0  0  0  0  0  0  0  0
  193.3850  174.7790  145.4960 C   0  0  1  0  0  0  0  0  0  0  0  0
  194.7620  175.2240  145.8020 C   0  0  2  0  0  0  0  0  0  0  0  0
  193.1290  173.4050  145.5330 O   0  0  0  0  0  1  0  0  0  0  0  0
  194.9440  176.5590  146.1680 O   0  0  0  0  0  1  0  0  0  0  0  0
  196.9430  174.1630  145.3900 C   0  0  0  0  0  2  0  0  0  0  0  0
  195.8370  174.2350  146.1280 C   0  0  0  0  0  3  0  0  0  0  0  0
  190.7580  175.3960  147.4270 O   0  0  0  0  0  1  0  0  0  0  0  0
  190.9850  175.0400  146.0960 C   0  0  0  0  0  2  0  0  0  0  0  0
  1  3  1  0  0  0  0
  2  7  1  0  0  0  0
  3  5  1  0  0  0  0
  3 11  1  0  0  0  0
  4  1  1  0  0  0  0
  4  2  1  0  0  0  0
  6  4  1  0  0  0  0
  7 11  1  0  0  0  0
  7 22  1  0  0  0  0
  8 13  1  0  0  0  0
  9  6  1  0  0  0  0
  9 10  1  0  0  0  0
 10  8  1  0  0  0  0
 10  1  1  0  0  0  0
 11 27  1  0  0  0  0
 12 15  1  0  0  0  0
 12  5  1  0  0  0  0
 13 12  1  0  0  0  0
 14 20  1  0  0  0  0
 15 14  2  0  0  0  0
 16 19  2  0  0  0  0
 16 15  1  0  0  0  0
 17 19  1  0  0  0  0
 18 20  2  0  0  0  0
 19 18  1  0  0  0  0
 21 24  1  0  0  0  0
 21 23  1  0  0  0  0
 22 21  1  0  0  0  0
 22 23  1  0  0  0  0
 25 24  1  0  0  0  0
 27 26  2  0  0  0  0
 27 28  1  0  0  0  0
 28 37  1  0  0  0  0
 29 30  1  0  0  0  0
 29 31  1  0  0  0  0
 30 32  1  0  0  0  0
 30 28  1  0  0  0  0
 30 31  1  0  0  0  0
 31 35  1  0  0  0  0
 31 33  1  0  0  0  0
 34 35  2  0  0  0  0
 37 36  1  0  0  0  0
M  END
>  <MODEL>
9

>  <REMARK>
 VINA RESULT:      -6.4      3.023      7.197
  Name = 
  8 active torsions:
  status: ('A' for Active; 'I' for Inactive)
    1  A    between atoms: O_3  and  C_21
    2  A    between atoms: C_6  and  C_31
    3  A    between atoms: C_11  and  C_33
    4  A    between atoms: C_17  and  C_23
    5  A    between atoms: C_20  and  C_25
    6  A    between atoms: C_27  and  C_33
    7  A    between atoms: C_29  and  S_36
    8  A    between atoms: C_33  and  S_36
                            x       y       z     vdW  Elec       q    Type
                         _______ _______ _______ _____ _____    ______ ____

>  <TORSDO>
F 8

$$$$
