=
 OpenBabel11052418313D

 27 31  0  0  1  0  0  0  0  0999 V2000
  189.3850  175.0620  145.0240 N   0  0  0  0  0  0  0  0  0  0  0  0
  188.5290  176.0480  145.3530 C   0  0  0  0  0  0  0  0  0  0  0  0
  188.3910  175.8310  143.1560 C   0  0  0  0  0  0  0  0  0  0  0  0
  185.7310  179.0700  145.8810 C   0  0  0  0  0  3  0  0  0  0  0  0
  185.0420  179.6050  144.7900 C   0  0  0  0  0  3  0  0  0  0  0  0
  188.2550  176.5340  146.6300 C   0  0  0  0  0  3  0  0  0  0  0  0
  186.2320  178.1160  143.2930 C   0  0  0  0  0  3  0  0  0  0  0  0
  189.8110  174.0810  141.3790 C   0  0  0  0  0  0  0  0  0  0  0  0
  187.4600  176.8280  141.1960 O   0  0  0  0  0  0  0  0  0  0  0  0
  190.5790  173.5650  140.5830 O   0  0  0  0  0  0  0  0  0  0  0  0
  186.9340  177.5750  144.3740 C   0  0  0  0  0  0  0  0  0  0  0  0
  185.2910  179.1290  143.5000 C   0  0  0  0  0  3  0  0  0  0  0  0
  186.6740  178.0560  145.6860 C   0  0  0  0  0  0  0  0  0  0  0  0
  189.3010  174.9270  143.6820 C   0  0  0  0  0  0  0  0  0  0  0  0
  187.8920  176.5560  144.2410 C   0  0  0  0  0  0  0  0  0  0  0  0
  188.5650  174.7480  140.8460 C   0  0  0  0  0  2  0  0  0  0  0  0
  187.3340  177.5300  146.7620 N   0  0  0  0  0  0  0  0  0  0  0  0
  191.4310  174.1090  143.1060 F   0  0  0  0  0  0  0  0  0  0  0  0
  190.0800  173.9360  142.8620 C   0  0  2  0  0  3  0  0  0  0  0  0
  188.1020  175.8790  141.7140 C   0  0  0  0  0  0  0  0  0  0  0  0
  190.1830  174.2550  145.9410 C   0  0  0  0  0  2  0  0  0  0  0  0
  194.1270  175.8800  146.3830 C   0  0  0  0  0  3  0  0  0  0  0  0
  191.5530  174.8280  146.0760 C   0  0  0  0  0  0  0  0  0  0  0  0
  191.7290  176.0990  146.6340 C   0  0  0  0  0  3  0  0  0  0  0  0
  193.0150  176.6260  146.7850 C   0  0  0  0  0  3  0  0  0  0  0  0
  193.9540  174.6060  145.8320 C   0  0  0  0  0  3  0  0  0  0  0  0
  192.6670  174.0800  145.6820 C   0  0  0  0  0  3  0  0  0  0  0  0
  1  2  1  0  0  0  0
  1 21  1  0  0  0  0
  2  6  1  0  0  0  0
  3 14  2  0  0  0  0
  3 15  1  0  0  0  0
  5  4  2  0  0  0  0
  6 17  2  0  0  0  0
  7 12  2  0  0  0  0
  7 11  1  0  0  0  0
  8 19  1  0  0  0  0
  9 20  2  0  0  0  0
 10  8  2  0  0  0  0
 11 13  2  0  0  0  0
 12  5  1  0  0  0  0
 13  4  1  0  0  0  0
 13 17  1  0  0  0  0
 14  1  1  0  0  0  0
 15 11  1  0  0  0  0
 15  2  2  0  0  0  0
 16  8  1  0  0  0  0
 16 20  1  0  0  0  0
 19 18  1  6  0  0  0
 19 14  1  0  0  0  0
 20  3  1  0  0  0  0
 21 23  1  0  0  0  0
 22 25  1  0  0  0  0
 23 24  1  0  0  0  0
 24 25  2  0  0  0  0
 26 22  2  0  0  0  0
 27 26  1  0  0  0  0
 27 23  2  0  0  0  0
M  END
>  <MODEL>
1

>  <REMARK>
 VINA RESULT:      -8.3      0.000      0.000
  Name = 
  2 active torsions:
  status: ('A' for Active; 'I' for Inactive)
    1  A    between atoms: N_1  and  C_15
    2  A    between atoms: C_9  and  C_15
                            x       y       z     vdW  Elec       q    Type
                         _______ _______ _______ _____ _____    ______ ____

>  <TORSDO>
F 2

$$$$
=
 OpenBabel11052418313D

 27 31  0  0  1  0  0  0  0  0999 V2000
  189.4050  176.1850  143.3740 N   0  0  0  0  0  0  0  0  0  0  0  0
  188.1660  176.6570  143.1380 C   0  0  0  0  0  0  0  0  0  0  0  0
  188.5730  177.0600  145.2750 C   0  0  0  0  0  0  0  0  0  0  0  0
  184.3650  178.3080  142.8820 C   0  0  0  0  0  3  0  0  0  0  0  0
  183.7640  178.8940  143.9980 C   0  0  0  0  0  3  0  0  0  0  0  0
  187.4770  176.6440  141.9270 C   0  0  0  0  0  3  0  0  0  0  0  0
  185.7150  178.3740  145.3380 C   0  0  0  0  0  3  0  0  0  0  0  0
  190.8760  176.4300  146.8680 C   0  0  0  0  0  0  0  0  0  0  0  0
  187.5570  177.8110  147.3010 O   0  0  0  0  0  0  0  0  0  0  0  0
  191.6980  175.9390  147.6250 O   0  0  0  0  0  0  0  0  0  0  0  0
  186.3280  177.7790  144.2310 C   0  0  0  0  0  0  0  0  0  0  0  0
  184.4370  178.9280  145.2220 C   0  0  0  0  0  3  0  0  0  0  0  0
  185.6440  177.7510  142.9850 C   0  0  0  0  0  0  0  0  0  0  0  0
  189.6560  176.4330  144.6780 C   0  0  0  0  0  0  0  0  0  0  0  0
  187.6090  177.2040  144.2740 C   0  0  0  0  0  0  0  0  0  0  0  0
  189.9080  177.4480  147.4210 C   0  0  0  0  0  2  0  0  0  0  0  0
  186.2290  177.1910  141.8840 N   0  0  0  0  0  0  0  0  0  0  0  0
  191.1760  174.7280  145.2480 F   0  0  0  0  0  0  0  0  0  0  0  0
  190.9310  176.0820  145.3950 C   0  0  2  0  0  3  0  0  0  0  0  0
  188.5980  177.4520  146.6930 C   0  0  0  0  0  0  0  0  0  0  0  0
  190.3170  175.5980  142.3980 C   0  0  0  0  0  2  0  0  0  0  0  0
  190.1070  171.3190  142.6040 C   0  0  0  0  0  3  0  0  0  0  0  0
  190.2400  174.1090  142.4490 C   0  0  0  0  0  0  0  0  0  0  0  0
  191.3820  173.3390  142.2070 C   0  0  0  0  0  3  0  0  0  0  0  0
  191.3160  171.9450  142.2810 C   0  0  0  0  0  3  0  0  0  0  0  0
  188.9660  172.0880  142.8540 C   0  0  0  0  0  3  0  0  0  0  0  0
  189.0330  173.4820  142.7790 C   0  0  0  0  0  3  0  0  0  0  0  0
  1 14  1  0  0  0  0
  2  1  1  0  0  0  0
  2 15  1  0  0  0  0
  3 20  1  0  0  0  0
  4 13  1  0  0  0  0
  4  5  2  0  0  0  0
  5 12  1  0  0  0  0
  6  2  2  0  0  0  0
  8 16  1  0  0  0  0
  8 10  2  0  0  0  0
 11 15  2  0  0  0  0
 11  7  1  0  0  0  0
 12  7  2  0  0  0  0
 13 11  1  0  0  0  0
 14  3  2  0  0  0  0
 14 19  1  0  0  0  0
 15  3  1  0  0  0  0
 17  6  1  0  0  0  0
 17 13  2  0  0  0  0
 19 18  1  1  0  0  0
 19  8  1  0  0  0  0
 20  9  2  0  0  0  0
 20 16  1  0  0  0  0
 21 23  1  0  0  0  0
 21  1  1  0  0  0  0
 22 26  1  0  0  0  0
 23 27  1  0  0  0  0
 24 25  1  0  0  0  0
 24 23  2  0  0  0  0
 25 22  2  0  0  0  0
 27 26  2  0  0  0  0
M  END
>  <MODEL>
2

>  <REMARK>
 VINA RESULT:      -8.0      2.606      4.481
  Name = 
  2 active torsions:
  status: ('A' for Active; 'I' for Inactive)
    1  A    between atoms: N_1  and  C_15
    2  A    between atoms: C_9  and  C_15
                            x       y       z     vdW  Elec       q    Type
                         _______ _______ _______ _____ _____    ______ ____

>  <TORSDO>
F 2

$$$$
=
 OpenBabel11052418313D

 27 31  0  0  1  0  0  0  0  0999 V2000
  189.3770  176.4920  142.6950 N   0  0  0  0  0  0  0  0  0  0  0  0
  190.5070  176.6950  143.3990 C   0  0  0  0  0  0  0  0  0  0  0  0
  190.1840  174.5060  143.3850 C   0  0  0  0  0  0  0  0  0  0  0  0
  194.0470  176.8130  145.5650 C   0  0  0  0  0  3  0  0  0  0  0  0
  194.6430  175.6360  146.0250 C   0  0  0  0  0  3  0  0  0  0  0  0
  191.1240  177.9150  143.6670 C   0  0  0  0  0  3  0  0  0  0  0  0
  192.8540  174.3300  145.0410 C   0  0  0  0  0  3  0  0  0  0  0  0
  188.0580  172.9590  142.2360 C   0  0  0  0  0  0  0  0  0  0  0  0
  190.9730  172.4570  144.3220 O   0  0  0  0  0  0  0  0  0  0  0  0
  187.0500  172.3070  142.0110 O   0  0  0  0  0  0  0  0  0  0  0  0
  192.2420  175.4990  144.5790 C   0  0  0  0  0  0  0  0  0  0  0  0
  194.0490  174.3980  145.7630 C   0  0  0  0  0  3  0  0  0  0  0  0
  192.8510  176.7570  144.8420 C   0  0  0  0  0  0  0  0  0  0  0  0
  189.1790  175.1550  142.6840 C   0  0  0  0  0  0  0  0  0  0  0  0
  191.0430  175.5060  143.8480 C   0  0  0  0  0  0  0  0  0  0  0  0
  189.3170  172.2240  142.6270 C   0  0  0  0  0  2  0  0  0  0  0  0
  192.2820  177.9130  144.3850 N   0  0  0  0  0  0  0  0  0  0  0  0
  186.8410  174.9760  142.4820 F   0  0  0  0  0  0  0  0  0  0  0  0
  188.0330  174.4560  142.0070 C   0  0  2  0  0  3  0  0  0  0  0  0
  190.2100  173.0400  143.5120 C   0  0  0  0  0  0  0  0  0  0  0  0
  188.5750  177.5060  142.0180 C   0  0  0  0  0  2  0  0  0  0  0  0
  185.4500  178.8750  144.6160 C   0  0  0  0  0  3  0  0  0  0  0  0
  187.4970  178.0010  142.9230 C   0  0  0  0  0  0  0  0  0  0  0  0
  186.3530  178.6010  142.3860 C   0  0  0  0  0  3  0  0  0  0  0  0
  185.3310  179.0410  143.2320 C   0  0  0  0  0  3  0  0  0  0  0  0
  186.5900  178.2680  145.1530 C   0  0  0  0  0  3  0  0  0  0  0  0
  187.6120  177.8290  144.3060 C   0  0  0  0  0  3  0  0  0  0  0  0
  1  2  1  0  0  0  0
  2  6  2  0  0  0  0
  2 15  1  0  0  0  0
  3 20  1  0  0  0  0
  3 15  1  0  0  0  0
  4  5  2  0  0  0  0
  6 17  1  0  0  0  0
  7 12  2  0  0  0  0
  8 16  1  0  0  0  0
 10  8  2  0  0  0  0
 11 13  1  0  0  0  0
 11  7  1  0  0  0  0
 12  5  1  0  0  0  0
 13  4  1  0  0  0  0
 14  1  1  0  0  0  0
 14  3  2  0  0  0  0
 15 11  2  0  0  0  0
 16 20  1  0  0  0  0
 17 13  2  0  0  0  0
 19  8  1  0  0  0  0
 19 18  1  1  0  0  0
 19 14  1  0  0  0  0
 20  9  2  0  0  0  0
 21  1  1  0  0  0  0
 21 23  1  0  0  0  0
 22 26  1  0  0  0  0
 23 27  1  0  0  0  0
 24 23  2  0  0  0  0
 24 25  1  0  0  0  0
 25 22  2  0  0  0  0
 27 26  2  0  0  0  0
M  END
>  <MODEL>
3

>  <REMARK>
 VINA RESULT:      -7.9      2.236      6.124
  Name = 
  2 active torsions:
  status: ('A' for Active; 'I' for Inactive)
    1  A    between atoms: N_1  and  C_15
    2  A    between atoms: C_9  and  C_15
                            x       y       z     vdW  Elec       q    Type
                         _______ _______ _______ _____ _____    ______ ____

>  <TORSDO>
F 2

$$$$
=
 OpenBabel11052418313D

 27 31  0  0  1  0  0  0  0  0999 V2000
  188.1750  176.9640  142.8670 N   0  0  0  0  0  0  0  0  0  0  0  0
  189.3330  176.7960  143.5340 C   0  0  0  0  0  0  0  0  0  0  0  0
  187.8230  177.3270  145.0610 C   0  0  0  0  0  0  0  0  0  0  0  0
  192.6250  176.3230  146.0190 C   0  0  0  0  0  3  0  0  0  0  0  0
  192.5120  176.5060  147.3990 C   0  0  0  0  0  3  0  0  0  0  0  0
  190.5680  176.4390  142.9990 C   0  0  0  0  0  3  0  0  0  0  0  0
  190.1590  177.0280  147.1480 C   0  0  0  0  0  3  0  0  0  0  0  0
  185.0400  177.9630  144.7660 C   0  0  0  0  0  0  0  0  0  0  0  0
  187.5600  177.9030  147.3640 O   0  0  0  0  0  0  0  0  0  0  0  0
  183.9500  178.5010  144.6500 O   0  0  0  0  0  0  0  0  0  0  0  0
  190.2570  176.8540  145.7650 C   0  0  0  0  0  0  0  0  0  0  0  0
  191.2820  176.8570  147.9620 C   0  0  0  0  0  3  0  0  0  0  0  0
  191.5080  176.4910  145.1940 C   0  0  0  0  0  0  0  0  0  0  0  0
  187.2510  177.2870  143.7990 C   0  0  0  0  0  0  0  0  0  0  0  0
  189.1720  177.0100  144.8870 C   0  0  0  0  0  0  0  0  0  0  0  0
  185.5290  177.6220  146.1530 C   0  0  0  0  0  2  0  0  0  0  0  0
  191.6270  176.2980  143.8460 N   0  0  0  0  0  0  0  0  0  0  0  0
  185.7060  178.5730  142.5760 F   0  0  0  0  0  0  0  0  0  0  0  0
  185.8000  177.5640  143.5180 C   0  0  2  0  0  3  0  0  0  0  0  0
  187.0240  177.6420  146.2570 C   0  0  0  0  0  0  0  0  0  0  0  0
  187.9520  176.7620  141.4390 C   0  0  0  0  0  2  0  0  0  0  0  0
  188.1690  172.5820  140.5050 C   0  0  0  0  0  3  0  0  0  0  0  0
  188.0070  175.3090  141.1090 C   0  0  0  0  0  0  0  0  0  0  0  0
  188.3750  174.8960  139.8240 C   0  0  0  0  0  3  0  0  0  0  0  0
  188.4540  173.5340  139.5210 C   0  0  0  0  0  3  0  0  0  0  0  0
  187.8080  172.9930  141.7930 C   0  0  0  0  0  3  0  0  0  0  0  0
  187.7300  174.3560  142.0950 C   0  0  0  0  0  3  0  0  0  0  0  0
  1  2  1  0  0  0  0
  1 14  1  0  0  0  0
  2 15  1  0  0  0  0
  3 20  1  0  0  0  0
  4  5  2  0  0  0  0
  5 12  1  0  0  0  0
  6  2  2  0  0  0  0
  6 17  1  0  0  0  0
  7 12  2  0  0  0  0
  8 16  1  0  0  0  0
 10  8  2  0  0  0  0
 11  7  1  0  0  0  0
 13 11  1  0  0  0  0
 13  4  1  0  0  0  0
 14  3  2  0  0  0  0
 15  3  1  0  0  0  0
 15 11  2  0  0  0  0
 16 20  1  0  0  0  0
 17 13  2  0  0  0  0
 19 18  1  6  0  0  0
 19 14  1  0  0  0  0
 19  8  1  0  0  0  0
 20  9  2  0  0  0  0
 21  1  1  0  0  0  0
 22 26  1  0  0  0  0
 23 21  1  0  0  0  0
 23 27  1  0  0  0  0
 24 23  2  0  0  0  0
 25 24  1  0  0  0  0
 25 22  2  0  0  0  0
 26 27  2  0  0  0  0
M  END
>  <MODEL>
4

>  <REMARK>
 VINA RESULT:      -7.7      2.953      6.247
  Name = 
  2 active torsions:
  status: ('A' for Active; 'I' for Inactive)
    1  A    between atoms: N_1  and  C_15
    2  A    between atoms: C_9  and  C_15
                            x       y       z     vdW  Elec       q    Type
                         _______ _______ _______ _____ _____    ______ ____

>  <TORSDO>
F 2

$$$$
=
 OpenBabel11052418313D

 27 31  0  0  1  0  0  0  0  0999 V2000
  188.8060  176.0860  143.0140 N   0  0  0  0  0  0  0  0  0  0  0  0
  187.8060  176.5820  142.2610 C   0  0  0  0  0  0  0  0  0  0  0  0
  187.0710  176.6160  144.3480 C   0  0  0  0  0  0  0  0  0  0  0  0
  184.4900  178.2290  140.3820 C   0  0  0  0  0  3  0  0  0  0  0  0
  183.3670  178.6110  141.1190 C   0  0  0  0  0  3  0  0  0  0  0  0
  187.8050  176.7730  140.8810 C   0  0  0  0  0  3  0  0  0  0  0  0
  184.4450  177.8810  143.1630 C   0  0  0  0  0  3  0  0  0  0  0  0
  188.3390  175.7370  146.7680 C   0  0  0  0  0  0  0  0  0  0  0  0
  185.1260  177.0010  145.6780 O   0  0  0  0  0  0  0  0  0  0  0  0
  188.7230  175.1290  147.7540 O   0  0  0  0  0  0  0  0  0  0  0  0
  185.5740  177.4880  142.4390 C   0  0  0  0  0  0  0  0  0  0  0  0
  183.3440  178.4380  142.5060 C   0  0  0  0  0  3  0  0  0  0  0  0
  185.5970  177.6710  141.0290 C   0  0  0  0  0  0  0  0  0  0  0  0
  188.3590  176.1070  144.2890 C   0  0  0  0  0  0  0  0  0  0  0  0
  186.7140  176.9230  143.0320 C   0  0  0  0  0  0  0  0  0  0  0  0
  187.1360  176.6390  146.9030 C   0  0  0  0  0  2  0  0  0  0  0  0
  186.6970  177.3120  140.3000 N   0  0  0  0  0  0  0  0  0  0  0  0
  189.5500  174.3400  145.2870 F   0  0  0  0  0  0  0  0  0  0  0  0
  189.1430  175.6470  145.4870 C   0  0  2  0  0  3  0  0  0  0  0  0
  186.3590  176.7590  145.6270 C   0  0  0  0  0  0  0  0  0  0  0  0
  190.1290  175.6800  142.5510 C   0  0  0  0  0  2  0  0  0  0  0  0
  190.3850  171.4100  142.2380 C   0  0  0  0  0  3  0  0  0  0  0  0
  190.2120  174.1930  142.4620 C   0  0  0  0  0  0  0  0  0  0  0  0
  189.1020  173.4540  142.0380 C   0  0  0  0  0  3  0  0  0  0  0  0
  189.1870  172.0630  141.9290 C   0  0  0  0  0  3  0  0  0  0  0  0
  191.4980  172.1490  142.6550 C   0  0  0  0  0  3  0  0  0  0  0  0
  191.4110  173.5400  142.7640 C   0  0  0  0  0  3  0  0  0  0  0  0
  1 14  1  0  0  0  0
  2  1  1  0  0  0  0
  2 15  1  0  0  0  0
  3 20  1  0  0  0  0
  4 13  1  0  0  0  0
  4  5  2  0  0  0  0
  5 12  1  0  0  0  0
  6  2  2  0  0  0  0
  8 16  1  0  0  0  0
  8 10  2  0  0  0  0
 11 15  2  0  0  0  0
 11  7  1  0  0  0  0
 12  7  2  0  0  0  0
 13 11  1  0  0  0  0
 14  3  2  0  0  0  0
 14 19  1  0  0  0  0
 15  3  1  0  0  0  0
 17  6  1  0  0  0  0
 17 13  2  0  0  0  0
 19 18  1  6  0  0  0
 19  8  1  0  0  0  0
 20  9  2  0  0  0  0
 20 16  1  0  0  0  0
 21  1  1  0  0  0  0
 22 26  1  0  0  0  0
 23 21  1  0  0  0  0
 23 27  1  0  0  0  0
 24 23  2  0  0  0  0
 25 24  1  0  0  0  0
 25 22  2  0  0  0  0
 26 27  2  0  0  0  0
M  END
>  <MODEL>
5

>  <REMARK>
 VINA RESULT:      -7.6      2.942      4.680
  Name = 
  2 active torsions:
  status: ('A' for Active; 'I' for Inactive)
    1  A    between atoms: N_1  and  C_15
    2  A    between atoms: C_9  and  C_15
                            x       y       z     vdW  Elec       q    Type
                         _______ _______ _______ _____ _____    ______ ____

>  <TORSDO>
F 2

$$$$
=
 OpenBabel11052418313D

 27 31  0  0  1  0  0  0  0  0999 V2000
  187.9720  177.4490  144.2030 N   0  0  0  0  0  0  0  0  0  0  0  0
  187.1740  177.4760  143.1190 C   0  0  0  0  0  0  0  0  0  0  0  0
  185.9120  178.1150  144.8200 C   0  0  0  0  0  0  0  0  0  0  0  0
  184.3620  177.7820  140.0800 C   0  0  0  0  0  3  0  0  0  0  0  0
  183.0590  178.2050  140.3510 C   0  0  0  0  0  3  0  0  0  0  0  0
  187.5250  177.1680  141.8060 C   0  0  0  0  0  3  0  0  0  0  0  0
  183.6080  178.4280  142.7010 C   0  0  0  0  0  3  0  0  0  0  0  0
  186.5550  178.3640  147.6060 C   0  0  0  0  0  0  0  0  0  0  0  0
  183.6620  178.6120  145.4450 O   0  0  0  0  0  0  0  0  0  0  0  0
  186.7080  178.2130  148.8080 O   0  0  0  0  0  0  0  0  0  0  0  0
  184.9140  178.0010  142.4460 C   0  0  0  0  0  0  0  0  0  0  0  0
  182.6830  178.5280  141.6580 C   0  0  0  0  0  3  0  0  0  0  0  0
  185.2960  177.6790  141.1150 C   0  0  0  0  0  0  0  0  0  0  0  0
  187.2040  177.8410  145.2430 C   0  0  0  0  0  0  0  0  0  0  0  0
  185.8950  177.8780  143.4440 C   0  0  0  0  0  0  0  0  0  0  0  0
  185.2960  179.0430  147.1220 C   0  0  0  0  0  2  0  0  0  0  0  0
  186.5730  177.2760  140.8370 N   0  0  0  0  0  0  0  0  0  0  0  0
  188.2150  176.7600  147.0730 F   0  0  0  0  0  0  0  0  0  0  0  0
  187.6740  177.9670  146.6660 C   0  0  2  0  0  3  0  0  0  0  0  0
  184.8780  178.5770  145.7600 C   0  0  0  0  0  0  0  0  0  0  0  0
  189.3970  177.1340  144.2310 C   0  0  0  0  0  2  0  0  0  0  0  0
  189.9170  172.8780  144.3310 C   0  0  0  0  0  3  0  0  0  0  0  0
  189.5990  175.6560  144.2670 C   0  0  0  0  0  0  0  0  0  0  0  0
  189.5790  174.9770  145.4900 C   0  0  0  0  0  3  0  0  0  0  0  0
  189.7410  173.5890  145.5230 C   0  0  0  0  0  3  0  0  0  0  0  0
  189.9300  173.5550  143.1070 C   0  0  0  0  0  3  0  0  0  0  0  0
  189.7680  174.9430  143.0760 C   0  0  0  0  0  3  0  0  0  0  0  0
  1 21  1  0  0  0  0
  1 14  1  0  0  0  0
  2 15  1  0  0  0  0
  2  1  1  0  0  0  0
  3 14  2  0  0  0  0
  3 20  1  0  0  0  0
  4  5  2  0  0  0  0
  4 13  1  0  0  0  0
  5 12  1  0  0  0  0
  6  2  2  0  0  0  0
  8 10  2  0  0  0  0
  9 20  2  0  0  0  0
 11  7  1  0  0  0  0
 11 15  2  0  0  0  0
 12  7  2  0  0  0  0
 13 11  1  0  0  0  0
 14 19  1  0  0  0  0
 15  3  1  0  0  0  0
 16  8  1  0  0  0  0
 17 13  2  0  0  0  0
 17  6  1  0  0  0  0
 19 18  1  1  0  0  0
 19  8  1  0  0  0  0
 20 16  1  0  0  0  0
 21 23  1  0  0  0  0
 22 25  1  0  0  0  0
 23 24  1  0  0  0  0
 24 25  2  0  0  0  0
 26 22  2  0  0  0  0
 27 26  1  0  0  0  0
 27 23  2  0  0  0  0
M  END
>  <MODEL>
6

>  <REMARK>
 VINA RESULT:      -7.6      3.269      5.180
  Name = 
  2 active torsions:
  status: ('A' for Active; 'I' for Inactive)
    1  A    between atoms: N_1  and  C_15
    2  A    between atoms: C_9  and  C_15
                            x       y       z     vdW  Elec       q    Type
                         _______ _______ _______ _____ _____    ______ ____

>  <TORSDO>
F 2

$$$$
=
 OpenBabel11052418313D

 27 31  0  0  1  0  0  0  0  0999 V2000
  189.3650  176.6800  143.6840 N   0  0  0  0  0  0  0  0  0  0  0  0
  189.0080  176.0470  142.5500 C   0  0  0  0  0  0  0  0  0  0  0  0
  190.5490  174.7730  143.4980 C   0  0  0  0  0  0  0  0  0  0  0  0
  188.1910  173.7030  139.2220 C   0  0  0  0  0  3  0  0  0  0  0  0
  188.8560  172.4910  139.0200 C   0  0  0  0  0  3  0  0  0  0  0  0
  188.0530  176.4560  141.6220 C   0  0  0  0  0  3  0  0  0  0  0  0
  190.1110  172.8250  141.0670 C   0  0  0  0  0  3  0  0  0  0  0  0
  192.0480  175.1740  145.9120 C   0  0  0  0  0  0  0  0  0  0  0  0
  191.9180  172.8510  143.1390 O   0  0  0  0  0  0  0  0  0  0  0  0
  192.8850  175.4400  146.7610 O   0  0  0  0  0  0  0  0  0  0  0  0
  189.4580  174.0430  141.2790 C   0  0  0  0  0  0  0  0  0  0  0  0
  189.8120  172.0530  139.9410 C   0  0  0  0  0  3  0  0  0  0  0  0
  188.4810  174.4840  140.3450 C   0  0  0  0  0  0  0  0  0  0  0  0
  190.3050  175.9020  144.2650 C   0  0  0  0  0  0  0  0  0  0  0  0
  189.7070  174.8690  142.3880 C   0  0  0  0  0  0  0  0  0  0  0  0
  192.0350  173.7820  145.3280 C   0  0  0  0  0  2  0  0  0  0  0  0
  187.8170  175.6630  140.5400 N   0  0  0  0  0  0  0  0  0  0  0  0
  191.5880  177.4570  145.4810 F   0  0  0  0  0  0  0  0  0  0  0  0
  190.9980  176.2080  145.5650 C   0  0  2  0  0  3  0  0  0  0  0  0
  191.5230  173.7540  143.9190 C   0  0  0  0  0  0  0  0  0  0  0  0
  188.7950  177.9150  144.2120 C   0  0  0  0  0  2  0  0  0  0  0  0
  185.2190  177.1280  146.4450 C   0  0  0  0  0  3  0  0  0  0  0  0
  187.5500  177.6220  144.9800 C   0  0  0  0  0  0  0  0  0  0  0  0
  187.6300  177.0300  146.2450 C   0  0  0  0  0  3  0  0  0  0  0  0
  186.4660  176.7800  146.9760 C   0  0  0  0  0  3  0  0  0  0  0  0
  185.1380  177.7270  145.1830 C   0  0  0  0  0  3  0  0  0  0  0  0
  186.3040  177.9770  144.4530 C   0  0  0  0  0  3  0  0  0  0  0  0
  1 21  1  0  0  0  0
  1 14  1  0  0  0  0
  2  1  1  0  0  0  0
  3 20  1  0  0  0  0
  3 14  2  0  0  0  0
  4 13  1  0  0  0  0
  5  4  2  0  0  0  0
  5 12  1  0  0  0  0
  6  2  2  0  0  0  0
  7 11  1  0  0  0  0
  8 10  2  0  0  0  0
  9 20  2  0  0  0  0
 11 15  2  0  0  0  0
 12  7  2  0  0  0  0
 13 17  2  0  0  0  0
 13 11  1  0  0  0  0
 14 19  1  0  0  0  0
 15  2  1  0  0  0  0
 15  3  1  0  0  0  0
 16  8  1  0  0  0  0
 17  6  1  0  0  0  0
 19 18  1  6  0  0  0
 19  8  1  0  0  0  0
 20 16  1  0  0  0  0
 21 23  1  0  0  0  0
 22 25  1  0  0  0  0
 23 24  1  0  0  0  0
 24 25  2  0  0  0  0
 26 22  2  0  0  0  0
 27 23  2  0  0  0  0
 27 26  1  0  0  0  0
M  END
>  <MODEL>
7

>  <REMARK>
 VINA RESULT:      -7.5      2.334      6.108
  Name = 
  2 active torsions:
  status: ('A' for Active; 'I' for Inactive)
    1  A    between atoms: N_1  and  C_15
    2  A    between atoms: C_9  and  C_15
                            x       y       z     vdW  Elec       q    Type
                         _______ _______ _______ _____ _____    ______ ____

>  <TORSDO>
F 2

$$$$
=
 OpenBabel11052418313D

 27 31  0  0  1  0  0  0  0  0999 V2000
  188.4070  176.7630  143.7050 N   0  0  0  0  0  0  0  0  0  0  0  0
  189.1020  175.6390  143.9630 C   0  0  0  0  0  0  0  0  0  0  0  0
  188.3460  175.4250  141.8950 C   0  0  0  0  0  0  0  0  0  0  0  0
  191.1850  172.0600  144.2630 C   0  0  0  0  0  3  0  0  0  0  0  0
  191.2270  171.1660  143.1910 C   0  0  0  0  0  3  0  0  0  0  0  0
  189.7820  175.3200  145.1370 C   0  0  0  0  0  3  0  0  0  0  0  0
  189.8480  172.6600  141.8730 C   0  0  0  0  0  3  0  0  0  0  0  0
  186.6990  177.1860  140.3380 C   0  0  0  0  0  0  0  0  0  0  0  0
  188.1430  173.8760  140.0900 O   0  0  0  0  0  0  0  0  0  0  0  0
  185.7900  177.7630  139.7630 O   0  0  0  0  0  0  0  0  0  0  0  0
  189.7910  173.5630  142.9390 C   0  0  0  0  0  0  0  0  0  0  0  0
  190.5620  171.4650  141.9990 C   0  0  0  0  0  3  0  0  0  0  0  0
  190.4740  173.2590  144.1480 C   0  0  0  0  0  0  0  0  0  0  0  0
  187.9460  176.6350  142.4420 C   0  0  0  0  0  0  0  0  0  0  0  0
  189.0950  174.7820  142.8830 C   0  0  0  0  0  0  0  0  0  0  0  0
  187.4410  176.0980  139.6000 C   0  0  0  0  0  2  0  0  0  0  0  0
  190.4490  174.1340  145.1990 N   0  0  0  0  0  0  0  0  0  0  0  0
  185.9850  177.9370  142.4680 F   0  0  0  0  0  0  0  0  0  0  0  0
  187.1130  177.6560  141.7170 C   0  0  2  0  0  3  0  0  0  0  0  0
  187.9860  175.0470  140.5190 C   0  0  0  0  0  0  0  0  0  0  0  0
  188.2500  177.9160  144.5870 C   0  0  0  0  0  2  0  0  0  0  0  0
  184.3860  177.9060  146.4460 C   0  0  0  0  0  3  0  0  0  0  0  0
  186.8980  177.9050  145.2160 C   0  0  0  0  0  0  0  0  0  0  0  0
  186.4560  176.7710  145.9060 C   0  0  0  0  0  3  0  0  0  0  0  0
  185.1990  176.7700  146.5190 C   0  0  0  0  0  3  0  0  0  0  0  0
  184.8300  179.0430  145.7630 C   0  0  0  0  0  3  0  0  0  0  0  0
  186.0860  179.0420  145.1500 C   0  0  0  0  0  3  0  0  0  0  0  0
  1  2  1  0  0  0  0
  1 21  1  0  0  0  0
  2  6  1  0  0  0  0
  3 14  2  0  0  0  0
  3 15  1  0  0  0  0
  5  4  2  0  0  0  0
  6 17  2  0  0  0  0
  7 12  2  0  0  0  0
  7 11  1  0  0  0  0
  8 19  1  0  0  0  0
  9 20  2  0  0  0  0
 10  8  2  0  0  0  0
 11 13  2  0  0  0  0
 12  5  1  0  0  0  0
 13  4  1  0  0  0  0
 13 17  1  0  0  0  0
 14  1  1  0  0  0  0
 15 11  1  0  0  0  0
 15  2  2  0  0  0  0
 16  8  1  0  0  0  0
 16 20  1  0  0  0  0
 19 14  1  0  0  0  0
 19 18  1  1  0  0  0
 20  3  1  0  0  0  0
 21 23  1  0  0  0  0
 22 25  1  0  0  0  0
 23 24  1  0  0  0  0
 24 25  2  0  0  0  0
 26 22  2  0  0  0  0
 27 23  2  0  0  0  0
 27 26  1  0  0  0  0
M  END
>  <MODEL>
8

>  <REMARK>
 VINA RESULT:      -7.5      2.478      6.098
  Name = 
  2 active torsions:
  status: ('A' for Active; 'I' for Inactive)
    1  A    between atoms: N_1  and  C_15
    2  A    between atoms: C_9  and  C_15
                            x       y       z     vdW  Elec       q    Type
                         _______ _______ _______ _____ _____    ______ ____

>  <TORSDO>
F 2

$$$$
=
 OpenBabel11052418313D

 27 31  0  0  1  0  0  0  0  0999 V2000
  187.1140  178.0850  143.4660 N   0  0  0  0  0  0  0  0  0  0  0  0
  187.9940  177.1010  143.1980 C   0  0  0  0  0  0  0  0  0  0  0  0
  187.3950  176.8220  145.3090 C   0  0  0  0  0  0  0  0  0  0  0  0
  190.5850  173.8780  142.8300 C   0  0  0  0  0  3  0  0  0  0  0  0
  190.8160  173.0200  143.9080 C   0  0  0  0  0  3  0  0  0  0  0  0
  188.6370  176.8540  141.9870 C   0  0  0  0  0  3  0  0  0  0  0  0
  189.3040  174.3210  145.2840 C   0  0  0  0  0  3  0  0  0  0  0  0
  185.6190  178.3720  146.9470 C   0  0  0  0  0  0  0  0  0  0  0  0
  187.8940  175.5760  147.2840 O   0  0  0  0  0  0  0  0  0  0  0  0
  185.1050  179.1500  147.7340 O   0  0  0  0  0  0  0  0  0  0  0  0
  189.0670  175.1930  144.2170 C   0  0  0  0  0  0  0  0  0  0  0  0
  190.1770  173.2400  145.1310 C   0  0  0  0  0  3  0  0  0  0  0  0
  189.7130  174.9630  142.9710 C   0  0  0  0  0  0  0  0  0  0  0  0
  186.7460  177.9150  144.7550 C   0  0  0  0  0  0  0  0  0  0  0  0
  188.2040  176.2970  144.2980 C   0  0  0  0  0  0  0  0  0  0  0  0
  185.9840  176.9910  147.4350 C   0  0  0  0  0  2  0  0  0  0  0  0
  189.4840  175.7890  141.9070 N   0  0  0  0  0  0  0  0  0  0  0  0
  186.1880  180.1000  145.4290 F   0  0  0  0  0  0  0  0  0  0  0  0
  185.7670  178.7830  145.4960 C   0  0  2  0  0  3  0  0  0  0  0  0
  187.1570  176.4120  146.7020 C   0  0  0  0  0  0  0  0  0  0  0  0
  186.6060  179.0820  142.5300 C   0  0  0  0  0  2  0  0  0  0  0  0
  182.7830  177.9210  140.9710 C   0  0  0  0  0  3  0  0  0  0  0  0
  185.2800  178.6590  141.9930 C   0  0  0  0  0  0  0  0  0  0  0  0
  184.1540  178.6660  142.8230 C   0  0  0  0  0  3  0  0  0  0  0  0
  182.9060  178.2950  142.3130 C   0  0  0  0  0  3  0  0  0  0  0  0
  183.9070  177.9200  140.1380 C   0  0  0  0  0  3  0  0  0  0  0  0
  185.1550  178.2920  140.6490 C   0  0  0  0  0  3  0  0  0  0  0  0
  1 14  1  0  0  0  0
  2  1  1  0  0  0  0
  2 15  1  0  0  0  0
  3 20  1  0  0  0  0
  4 13  1  0  0  0  0
  4  5  2  0  0  0  0
  5 12  1  0  0  0  0
  6  2  2  0  0  0  0
  8 16  1  0  0  0  0
  8 10  2  0  0  0  0
 11 15  2  0  0  0  0
 11  7  1  0  0  0  0
 12  7  2  0  0  0  0
 13 11  1  0  0  0  0
 14  3  2  0  0  0  0
 14 19  1  0  0  0  0
 15  3  1  0  0  0  0
 17  6  1  0  0  0  0
 17 13  2  0  0  0  0
 19 18  1  1  0  0  0
 19  8  1  0  0  0  0
 20  9  2  0  0  0  0
 20 16  1  0  0  0  0
 21  1  1  0  0  0  0
 22 25  1  0  0  0  0
 23 21  1  0  0  0  0
 23 24  1  0  0  0  0
 25 24  2  0  0  0  0
 26 27  1  0  0  0  0
 26 22  2  0  0  0  0
 27 23  2  0  0  0  0
M  END
>  <MODEL>
9

>  <REMARK>
 VINA RESULT:      -7.4      3.293      7.471
  Name = 
  2 active torsions:
  status: ('A' for Active; 'I' for Inactive)
    1  A    between atoms: N_1  and  C_15
    2  A    between atoms: C_9  and  C_15
                            x       y       z     vdW  Elec       q    Type
                         _______ _______ _______ _____ _____    ______ ____

>  <TORSDO>
F 2

$$$$
