=
 OpenBabel11052417123D

 30 34  0  0  1  0  0  0  0  0999 V2000
  187.3020  175.4710  142.7160 C   0  0  0  0  0  2  0  0  0  0  0  0
  185.9240  177.5410  140.5670 C   0  0  0  0  0  0  0  0  0  0  0  0
  185.8470  176.7910  147.1330 C   0  0  0  0  0  2  0  0  0  0  0  0
  188.5800  174.8040  143.2080 C   0  0  0  0  0  2  0  0  0  0  0  0
  187.5140  176.9470  142.4200 C   0  0  0  0  0  2  0  0  0  0  0  0
  192.7650  174.5420  142.5300 C   0  0  0  0  0  2  0  0  0  0  0  0
  190.1260  177.1600  146.8990 O   0  0  0  0  0  0  0  0  0  0  0  0
  189.6490  174.7080  142.1140 C   0  0  1  0  0  0  0  0  0  0  0  0
  191.6590  175.4890  142.9520 C   0  0  0  0  0  0  0  0  0  0  0  0
  187.0480  176.6480  146.1900 C   0  0  0  0  0  2  0  0  0  0  0  0
  184.7210  177.6950  146.6140 C   0  0  0  0  0  2  0  0  0  0  0  0
  190.6290  175.7220  142.0130 O   0  0  0  0  0  0  0  0  0  0  0  0
  190.1540  173.4070  141.9260 O   0  0  0  0  0  0  0  0  0  0  0  0
  184.7140  177.9820  140.1380 N   0  0  0  0  0  0  0  0  0  0  0  0
  190.0830  177.3550  145.6550 C   0  0  0  0  0  0  0  0  0  0  0  0
  188.8760  177.7780  145.0220 N   0  0  0  0  0  2  0  0  0  0  0  0
  192.9910  176.0450  142.4920 C   0  0  0  0  0  2  0  0  0  0  0  0
  186.8670  177.0580  139.6140 N   0  0  0  0  0  1  0  0  0  0  0  0
  185.2480  178.0280  142.8330 C   0  0  0  0  0  0  0  0  0  0  0  0
  183.7800  178.4280  141.0160 C   0  0  0  0  0  3  0  0  0  0  0  0
  191.3880  175.6540  144.4450 C   0  0  0  0  0  2  0  0  0  0  0  0
  186.2280  177.5490  141.9370 C   0  0  0  0  0  0  0  0  0  0  0  0
  186.6910  178.8210  144.8250 C   0  0  0  0  0  2  0  0  0  0  0  0
  184.5510  177.6180  145.1250 C   0  0  0  0  0  3  0  0  0  0  0  0
  187.6250  177.9930  145.7300 C   0  0  1  0  0  3  0  0  0  0  0  0
  191.2920  177.1230  144.8220 C   0  0  0  0  0  2  0  0  0  0  0  0
  189.4080  173.9470  140.8580 C   0  0  1  0  0  3  0  0  0  0  0  0
  184.0480  178.4450  142.3450 N   0  0  0  0  0  0  0  0  0  0  0  0
  185.4800  178.0940  144.2890 C   0  0  0  0  0  0  0  0  0  0  0  0
  188.1450  173.3510  140.8360 O   0  0  0  0  0  1  0  0  0  0  0  0
  1  4  1  0  0  0  0
  2 22  1  0  0  0  0
  5  1  1  0  0  0  0
  6  9  1  0  0  0  0
  8  4  1  1  0  0  0
  9 21  1  0  0  0  0
 10  3  1  0  0  0  0
 11  3  1  0  0  0  0
 12  8  1  0  0  0  0
 12  9  1  0  0  0  0
 13  8  1  0  0  0  0
 14  2  2  0  0  0  0
 14 20  1  0  0  0  0
 15  7  2  0  0  0  0
 16 15  1  0  0  0  0
 16 25  1  0  0  0  0
 17  6  1  0  0  0  0
 17  9  1  0  0  0  0
 18  2  1  0  0  0  0
 19 29  1  0  0  0  0
 20 28  2  0  0  0  0
 21 26  1  0  0  0  0
 22  5  1  0  0  0  0
 22 19  2  0  0  0  0
 24 11  1  0  0  0  0
 25 23  1  6  0  0  0
 25 10  1  0  0  0  0
 26 15  1  0  0  0  0
 27 30  1  1  0  0  0
 27 13  1  0  0  0  0
 27  8  1  0  0  0  0
 28 19  1  0  0  0  0
 29 23  1  0  0  0  0
 29 24  2  0  0  0  0
M  END
>  <MODEL>
1

>  <REMARK>
 VINA RESULT:      -9.3      0.000      0.000
  Name = 
  0 active torsions:
  status: ('A' for Active; 'I' for Inactive)
                            x       y       z     vdW  Elec       q    Type
                         _______ _______ _______ _____ _____    ______ ____

>  <TORSDO>
F 0

$$$$
=
 OpenBabel11052417123D

 30 34  0  0  1  0  0  0  0  0999 V2000
  189.2260  176.1470  142.4830 C   0  0  0  0  0  2  0  0  0  0  0  0
  189.0370  172.9550  141.7260 C   0  0  0  0  0  0  0  0  0  0  0  0
  193.2780  176.7910  145.0390 C   0  0  0  0  0  2  0  0  0  0  0  0
  188.5240  177.3660  143.0680 C   0  0  0  0  0  2  0  0  0  0  0  0
  188.9810  174.9000  143.3160 C   0  0  0  0  0  2  0  0  0  0  0  0
  184.8850  178.6890  144.8130 C   0  0  0  0  0  2  0  0  0  0  0  0
  189.9000  177.8650  147.4740 O   0  0  0  0  0  0  0  0  0  0  0  0
  186.9980  177.2690  142.9610 C   0  0  1  0  0  0  0  0  0  0  0  0
  186.0660  177.7620  145.0210 C   0  0  0  0  0  0  0  0  0  0  0  0
  191.7460  176.8520  145.0650 C   0  0  0  0  0  2  0  0  0  0  0  0
  193.8640  175.4230  144.6650 C   0  0  0  0  0  2  0  0  0  0  0  0
  186.2610  176.7530  144.0520 O   0  0  0  0  0  0  0  0  0  0  0  0
  186.3990  178.3860  142.3470 O   0  0  0  0  0  0  0  0  0  0  0  0
  189.7120  171.9710  141.0790 N   0  0  0  0  0  0  0  0  0  0  0  0
  189.1430  177.0770  146.8470 C   0  0  0  0  0  0  0  0  0  0  0  0
  189.6830  176.0070  146.0730 N   0  0  0  0  0  2  0  0  0  0  0  0
  184.7970  177.5540  145.8200 C   0  0  0  0  0  2  0  0  0  0  0  0
  187.6700  173.1920  141.4010 N   0  0  0  0  0  1  0  0  0  0  0  0
  191.0480  173.4600  142.9630 C   0  0  0  0  0  0  0  0  0  0  0  0
  191.0210  171.7280  141.3450 C   0  0  0  0  0  3  0  0  0  0  0  0
  187.2480  178.2800  145.8370 C   0  0  0  0  0  2  0  0  0  0  0  0
  189.6900  173.7350  142.6930 C   0  0  0  0  0  0  0  0  0  0  0  0
  191.2930  174.3220  145.3880 C   0  0  0  0  0  2  0  0  0  0  0  0
  193.0280  174.6850  143.6630 C   0  0  0  0  0  3  0  0  0  0  0  0
  191.1070  175.7530  145.9260 C   0  0  1  0  0  3  0  0  0  0  0  0
  187.6700  177.2670  146.8880 C   0  0  0  0  0  2  0  0  0  0  0  0
  186.3160  177.1660  141.6430 C   0  0  1  0  0  3  0  0  0  0  0  0
  191.6760  172.4700  142.2730 N   0  0  0  0  0  0  0  0  0  0  0  0
  191.8160  174.2120  143.9740 C   0  0  0  0  0  0  0  0  0  0  0  0
  187.2200  177.1910  140.5790 O   0  0  0  0  0  1  0  0  0  0  0  0
  1  4  1  0  0  0  0
  1  5  1  0  0  0  0
  2 22  1  0  0  0  0
  3 10  1  0  0  0  0
  6  9  1  0  0  0  0
  6 17  1  0  0  0  0
  8  4  1  1  0  0  0
  8 12  1  0  0  0  0
  9 17  1  0  0  0  0
  9 21  1  0  0  0  0
 11  3  1  0  0  0  0
 12  9  1  0  0  0  0
 13  8  1  0  0  0  0
 14 20  1  0  0  0  0
 14  2  2  0  0  0  0
 15 26  1  0  0  0  0
 15  7  2  0  0  0  0
 16 15  1  0  0  0  0
 18  2  1  0  0  0  0
 19 29  1  0  0  0  0
 20 28  2  0  0  0  0
 21 26  1  0  0  0  0
 22 19  2  0  0  0  0
 22  5  1  0  0  0  0
 23 25  1  0  0  0  0
 24 29  2  0  0  0  0
 24 11  1  0  0  0  0
 25 10  1  6  0  0  0
 25 16  1  0  0  0  0
 27 30  1  6  0  0  0
 27 13  1  0  0  0  0
 27  8  1  0  0  0  0
 28 19  1  0  0  0  0
 29 23  1  0  0  0  0
M  END
>  <MODEL>
2

>  <REMARK>
 VINA RESULT:      -8.6      2.671      6.184
  Name = 
  0 active torsions:
  status: ('A' for Active; 'I' for Inactive)
                            x       y       z     vdW  Elec       q    Type
                         _______ _______ _______ _____ _____    ______ ____

>  <TORSDO>
F 0

$$$$
=
 OpenBabel11052417123D

 30 34  0  0  1  0  0  0  0  0999 V2000
  188.0150  174.6570  142.2620 C   0  0  0  0  0  2  0  0  0  0  0  0
  186.5590  177.1950  140.7670 C   0  0  0  0  0  0  0  0  0  0  0  0
  188.1910  175.6660  146.9860 C   0  0  0  0  0  2  0  0  0  0  0  0
  189.2070  173.7080  142.3010 C   0  0  0  0  0  2  0  0  0  0  0  0
  188.4450  176.0930  142.0100 C   0  0  0  0  0  2  0  0  0  0  0  0
  192.8700  172.7610  140.3700 C   0  0  0  0  0  2  0  0  0  0  0  0
  192.2030  175.2610  145.4900 O   0  0  0  0  0  0  0  0  0  0  0  0
  189.8740  173.5520  140.9300 C   0  0  1  0  0  0  0  0  0  0  0  0
  192.1590  173.8370  141.1660 C   0  0  0  0  0  0  0  0  0  0  0  0
  189.0150  175.4200  145.7160 C   0  0  0  0  0  2  0  0  0  0  0  0
  187.1850  176.8200  146.8910 C   0  0  0  0  0  2  0  0  0  0  0  0
  190.9790  174.3710  140.6010 O   0  0  0  0  0  0  0  0  0  0  0  0
  190.0150  172.2130  140.5160 O   0  0  0  0  0  0  0  0  0  0  0  0
  185.4000  177.9030  140.7540 N   0  0  0  0  0  0  0  0  0  0  0  0
  191.8520  175.6130  144.3320 C   0  0  0  0  0  0  0  0  0  0  0  0
  190.6350  176.3280  144.1230 N   0  0  0  0  0  2  0  0  0  0  0  0
  193.3910  174.1890  140.3600 C   0  0  0  0  0  2  0  0  0  0  0  0
  187.0670  176.6670  139.5450 N   0  0  0  0  0  1  0  0  0  0  0  0
  186.6750  177.5150  143.1570 C   0  0  0  0  0  0  0  0  0  0  0  0
  184.8720  178.4030  141.9000 C   0  0  0  0  0  3  0  0  0  0  0  0
  192.3640  173.8630  142.6780 C   0  0  0  0  0  2  0  0  0  0  0  0
  187.2350  176.9770  141.9790 C   0  0  0  0  0  0  0  0  0  0  0  0
  188.7600  177.7740  144.6640 C   0  0  0  0  0  2  0  0  0  0  0  0
  186.5870  176.9610  145.5230 C   0  0  0  0  0  3  0  0  0  0  0  0
  189.7120  176.6820  145.1890 C   0  0  1  0  0  3  0  0  0  0  0  0
  192.6950  175.2660  143.1590 C   0  0  0  0  0  2  0  0  0  0  0  0
  189.1300  173.0100  139.7610 C   0  0  1  0  0  3  0  0  0  0  0  0
  185.5050  178.2050  143.0840 N   0  0  0  0  0  0  0  0  0  0  0  0
  187.3200  177.3570  144.4760 C   0  0  0  0  0  0  0  0  0  0  0  0
  187.8160  172.6650  140.0850 O   0  0  0  0  0  1  0  0  0  0  0  0
  1  4  1  0  0  0  0
  2 22  1  0  0  0  0
  5  1  1  0  0  0  0
  6  9  1  0  0  0  0
  8  4  1  1  0  0  0
  9 21  1  0  0  0  0
 10  3  1  0  0  0  0
 11  3  1  0  0  0  0
 12  8  1  0  0  0  0
 12  9  1  0  0  0  0
 13  8  1  0  0  0  0
 14  2  2  0  0  0  0
 14 20  1  0  0  0  0
 15  7  2  0  0  0  0
 16 15  1  0  0  0  0
 16 25  1  0  0  0  0
 17  6  1  0  0  0  0
 17  9  1  0  0  0  0
 18  2  1  0  0  0  0
 19 29  1  0  0  0  0
 20 28  2  0  0  0  0
 21 26  1  0  0  0  0
 22  5  1  0  0  0  0
 22 19  2  0  0  0  0
 24 11  1  0  0  0  0
 25 23  1  6  0  0  0
 25 10  1  0  0  0  0
 26 15  1  0  0  0  0
 27 30  1  1  0  0  0
 27 13  1  0  0  0  0
 27  8  1  0  0  0  0
 28 19  1  0  0  0  0
 29 23  1  0  0  0  0
 29 24  2  0  0  0  0
M  END
>  <MODEL>
3

>  <REMARK>
 VINA RESULT:      -8.5      1.527      2.084
  Name = 
  0 active torsions:
  status: ('A' for Active; 'I' for Inactive)
                            x       y       z     vdW  Elec       q    Type
                         _______ _______ _______ _____ _____    ______ ____

>  <TORSDO>
F 0

$$$$
=
 OpenBabel11052417123D

 30 34  0  0  1  0  0  0  0  0999 V2000
  189.0310  176.2110  143.0430 C   0  0  0  0  0  2  0  0  0  0  0  0
  188.6320  173.0180  142.3730 C   0  0  0  0  0  0  0  0  0  0  0  0
  192.2300  176.5430  146.6520 C   0  0  0  0  0  2  0  0  0  0  0  0
  188.3640  177.5440  143.3560 C   0  0  0  0  0  2  0  0  0  0  0  0
  188.3900  175.0660  143.8100 C   0  0  0  0  0  2  0  0  0  0  0  0
  184.5930  179.4180  143.9110 C   0  0  0  0  0  2  0  0  0  0  0  0
  188.4760  178.1900  147.9520 O   0  0  0  0  0  0  0  0  0  0  0  0
  186.9340  177.6240  142.8100 C   0  0  1  0  0  0  0  0  0  0  0  0
  185.5270  178.3740  144.4880 C   0  0  0  0  0  0  0  0  0  0  0  0
  190.7780  176.7910  146.2260 C   0  0  0  0  0  2  0  0  0  0  0  0
  192.7070  175.0910  146.5130 C   0  0  0  0  0  2  0  0  0  0  0  0
  185.8520  177.2800  143.6530 O   0  0  0  0  0  0  0  0  0  0  0  0
  186.6940  178.7580  142.0090 O   0  0  0  0  0  0  0  0  0  0  0  0
  189.3240  171.9160  141.9860 N   0  0  0  0  0  0  0  0  0  0  0  0
  187.8300  177.4560  147.1580 C   0  0  0  0  0  0  0  0  0  0  0  0
  188.4180  176.2750  146.6120 N   0  0  0  0  0  2  0  0  0  0  0  0
  184.0660  178.3780  144.8860 C   0  0  0  0  0  2  0  0  0  0  0  0
  187.4620  173.3940  141.6540 N   0  0  0  0  0  1  0  0  0  0  0  0
  190.2550  173.3650  144.1270 C   0  0  0  0  0  0  0  0  0  0  0  0
  190.4560  171.5370  142.6320 C   0  0  0  0  0  3  0  0  0  0  0  0
  186.4850  178.8020  145.5960 C   0  0  0  0  0  2  0  0  0  0  0  0
  189.0820  173.7820  143.4620 C   0  0  0  0  0  0  0  0  0  0  0  0
  189.9110  174.3630  146.4870 C   0  0  0  0  0  2  0  0  0  0  0  0
  192.1000  174.3890  145.3350 C   0  0  0  0  0  3  0  0  0  0  0  0
  189.7760  175.8420  146.8980 C   0  0  1  0  0  3  0  0  0  0  0  0
  186.4470  177.8240  146.7590 C   0  0  0  0  0  2  0  0  0  0  0  0
  186.6500  177.5090  141.3540 C   0  0  1  0  0  3  0  0  0  0  0  0
  190.9130  172.2590  143.6860 N   0  0  0  0  0  0  0  0  0  0  0  0
  190.7970  174.0900  145.2930 C   0  0  0  0  0  0  0  0  0  0  0  0
  187.8150  177.3490  140.6010 O   0  0  0  0  0  1  0  0  0  0  0  0
  1  4  1  0  0  0  0
  1  5  1  0  0  0  0
  2 22  1  0  0  0  0
  6  9  1  0  0  0  0
  6 17  1  0  0  0  0
  8  4  1  1  0  0  0
  8 12  1  0  0  0  0
  9 17  1  0  0  0  0
  9 21  1  0  0  0  0
 10  3  1  0  0  0  0
 11  3  1  0  0  0  0
 12  9  1  0  0  0  0
 13  8  1  0  0  0  0
 14  2  2  0  0  0  0
 14 20  1  0  0  0  0
 15  7  2  0  0  0  0
 16 25  1  0  0  0  0
 16 15  1  0  0  0  0
 18  2  1  0  0  0  0
 19 29  1  0  0  0  0
 20 28  2  0  0  0  0
 21 26  1  0  0  0  0
 22  5  1  0  0  0  0
 22 19  2  0  0  0  0
 23 25  1  0  0  0  0
 24 11  1  0  0  0  0
 25 10  1  6  0  0  0
 26 15  1  0  0  0  0
 27 30  1  6  0  0  0
 27 13  1  0  0  0  0
 27  8  1  0  0  0  0
 28 19  1  0  0  0  0
 29 24  2  0  0  0  0
 29 23  1  0  0  0  0
M  END
>  <MODEL>
4

>  <REMARK>
 VINA RESULT:      -8.4      2.787      6.050
  Name = 
  0 active torsions:
  status: ('A' for Active; 'I' for Inactive)
                            x       y       z     vdW  Elec       q    Type
                         _______ _______ _______ _____ _____    ______ ____

>  <TORSDO>
F 0

$$$$
=
 OpenBabel11052417123D

 30 34  0  0  1  0  0  0  0  0999 V2000
  188.2630  175.6950  145.6110 C   0  0  0  0  0  2  0  0  0  0  0  0
  191.1680  176.6400  146.8230 C   0  0  0  0  0  0  0  0  0  0  0  0
  189.1250  173.2450  141.5340 C   0  0  0  0  0  2  0  0  0  0  0  0
  186.8530  176.1050  145.2050 C   0  0  0  0  0  2  0  0  0  0  0  0
  189.3000  176.7020  145.1430 C   0  0  0  0  0  2  0  0  0  0  0  0
  184.2030  179.4160  144.9680 C   0  0  0  0  0  2  0  0  0  0  0  0
  186.7840  176.7310  140.6050 O   0  0  0  0  0  0  0  0  0  0  0  0
  186.3690  177.3530  145.9510 C   0  0  1  0  0  0  0  0  0  0  0  0
  185.5010  178.8560  144.4200 C   0  0  0  0  0  0  0  0  0  0  0  0
  188.4890  174.5010  142.1410 C   0  0  0  0  0  2  0  0  0  0  0  0
  190.6240  173.0760  141.8200 C   0  0  0  0  0  2  0  0  0  0  0  0
  186.5370  178.6240  145.3530 O   0  0  0  0  0  0  0  0  0  0  0  0
  185.1270  177.1850  146.5930 O   0  0  0  0  0  0  0  0  0  0  0  0
  192.3520  176.1430  147.2630 N   0  0  0  0  0  0  0  0  0  0  0  0
  187.2460  177.3570  141.5950 C   0  0  0  0  0  0  0  0  0  0  0  0
  188.4620  176.9460  142.2180 N   0  0  0  0  0  2  0  0  0  0  0  0
  185.1910  180.3300  144.2630 C   0  0  0  0  0  2  0  0  0  0  0  0
  190.4410  177.5430  147.6520 N   0  0  0  0  0  1  0  0  0  0  0  0
  191.4240  175.3450  144.8020 C   0  0  0  0  0  0  0  0  0  0  0  0
  193.0630  175.2630  146.5130 C   0  0  0  0  0  3  0  0  0  0  0  0
  185.4450  178.0570  143.1220 C   0  0  0  0  0  2  0  0  0  0  0  0
  190.6640  176.2510  145.5720 C   0  0  0  0  0  0  0  0  0  0  0  0
  190.6500  175.9060  142.4010 C   0  0  0  0  0  2  0  0  0  0  0  0
  191.0190  173.5860  143.1740 C   0  0  0  0  0  3  0  0  0  0  0  0
  189.2390  175.7930  141.7920 C   0  0  1  0  0  3  0  0  0  0  0  0
  186.5120  178.5260  142.1460 C   0  0  0  0  0  2  0  0  0  0  0  0
  186.2450  177.3730  147.4330 C   0  0  1  0  0  3  0  0  0  0  0  0
  192.5980  174.8700  145.3010 N   0  0  0  0  0  0  0  0  0  0  0  0
  190.9890  174.8900  143.4670 C   0  0  0  0  0  0  0  0  0  0  0  0
  186.5940  176.1490  148.0080 O   0  0  0  0  0  1  0  0  0  0  0  0
  2 14  1  0  0  0  0
  2 18  1  0  0  0  0
  3 11  1  0  0  0  0
  3 10  1  0  0  0  0
  4  1  1  0  0  0  0
  5 22  1  0  0  0  0
  5  1  1  0  0  0  0
  7 15  2  0  0  0  0
  8  4  1  6  0  0  0
  8 13  1  0  0  0  0
  8 27  1  0  0  0  0
  9  6  1  0  0  0  0
  9 12  1  0  0  0  0
 11 24  1  0  0  0  0
 12  8  1  0  0  0  0
 13 27  1  0  0  0  0
 15 26  1  0  0  0  0
 15 16  1  0  0  0  0
 17  9  1  0  0  0  0
 17  6  1  0  0  0  0
 19 28  2  0  0  0  0
 19 22  1  0  0  0  0
 20 14  2  0  0  0  0
 21  9  1  0  0  0  0
 22  2  2  0  0  0  0
 23 29  1  0  0  0  0
 24 29  2  0  0  0  0
 25 10  1  1  0  0  0
 25 16  1  0  0  0  0
 25 23  1  0  0  0  0
 26 21  1  0  0  0  0
 27 30  1  1  0  0  0
 28 20  1  0  0  0  0
 29 19  1  0  0  0  0
M  END
>  <MODEL>
5

>  <REMARK>
 VINA RESULT:      -8.2      2.411      7.204
  Name = 
  0 active torsions:
  status: ('A' for Active; 'I' for Inactive)
                            x       y       z     vdW  Elec       q    Type
                         _______ _______ _______ _____ _____    ______ ____

>  <TORSDO>
F 0

$$$$
=
 OpenBabel11052417123D

 30 34  0  0  1  0  0  0  0  0999 V2000
  190.0330  177.1900  143.8490 C   0  0  0  0  0  2  0  0  0  0  0  0
  188.5890  177.0910  146.8000 C   0  0  0  0  0  0  0  0  0  0  0  0
  186.5670  177.9530  140.5670 C   0  0  0  0  0  2  0  0  0  0  0  0
  190.9780  176.5120  142.8650 C   0  0  0  0  0  2  0  0  0  0  0  0
  189.0930  176.1930  144.5080 C   0  0  0  0  0  2  0  0  0  0  0  0
  193.4640  173.1110  142.3230 C   0  0  0  0  0  2  0  0  0  0  0  0
  188.4290  174.1570  139.7810 O   0  0  0  0  0  0  0  0  0  0  0  0
  191.9970  175.6050  143.5640 C   0  0  1  0  0  0  0  0  0  0  0  0
  192.0240  173.5470  142.5060 C   0  0  0  0  0  0  0  0  0  0  0  0
  187.6270  176.9700  141.0780 C   0  0  0  0  0  2  0  0  0  0  0  0
  185.5200  178.3730  141.6070 C   0  0  0  0  0  2  0  0  0  0  0  0
  191.7130  174.2270  143.7060 O   0  0  0  0  0  0  0  0  0  0  0  0
  193.3340  175.8780  143.2150 O   0  0  0  0  0  0  0  0  0  0  0  0
  187.8290  177.8390  147.6400 N   0  0  0  0  0  0  0  0  0  0  0  0
  188.7430  174.0130  140.9920 C   0  0  0  0  0  0  0  0  0  0  0  0
  188.0780  174.7550  142.0140 N   0  0  0  0  0  2  0  0  0  0  0  0
  192.4090  172.1020  142.7490 C   0  0  0  0  0  2  0  0  0  0  0  0
  189.7950  176.5080  147.2850 N   0  0  0  0  0  1  0  0  0  0  0  0
  186.9940  177.5260  145.0410 C   0  0  0  0  0  0  0  0  0  0  0  0
  186.6850  178.4300  147.2100 C   0  0  0  0  0  3  0  0  0  0  0  0
  191.1790  173.7730  141.2550 C   0  0  0  0  0  2  0  0  0  0  0  0
  188.1920  176.9130  145.4650 C   0  0  0  0  0  0  0  0  0  0  0  0
  186.2860  176.0050  143.0740 C   0  0  0  0  0  2  0  0  0  0  0  0
  186.0820  178.4690  142.9940 C   0  0  0  0  0  3  0  0  0  0  0  0
  187.0300  175.7280  141.7530 C   0  0  1  0  0  3  0  0  0  0  0  0
  189.8330  173.0770  141.3730 C   0  0  0  0  0  2  0  0  0  0  0  0
  192.9700  176.1450  144.5520 C   0  0  1  0  0  3  0  0  0  0  0  0
  186.2800  178.2750  145.9250 N   0  0  0  0  0  0  0  0  0  0  0  0
  186.4830  177.3830  143.6630 C   0  0  0  0  0  0  0  0  0  0  0  0
  192.8380  177.5250  144.7210 O   0  0  0  0  0  1  0  0  0  0  0  0
  1  5  1  0  0  0  0
  2 18  1  0  0  0  0
  2 14  1  0  0  0  0
  3 10  1  0  0  0  0
  3 11  1  0  0  0  0
  4  1  1  0  0  0  0
  5 22  1  0  0  0  0
  6  9  1  0  0  0  0
  6 17  1  0  0  0  0
  7 15  2  0  0  0  0
  8  4  1  6  0  0  0
  8 12  1  0  0  0  0
  8 27  1  0  0  0  0
  9 17  1  0  0  0  0
  9 12  1  0  0  0  0
 11 24  1  0  0  0  0
 13  8  1  0  0  0  0
 13 27  1  0  0  0  0
 15 26  1  0  0  0  0
 15 16  1  0  0  0  0
 19 22  1  0  0  0  0
 19 28  2  0  0  0  0
 20 14  2  0  0  0  0
 21 26  1  0  0  0  0
 21  9  1  0  0  0  0
 22  2  2  0  0  0  0
 23 29  1  0  0  0  0
 24 29  2  0  0  0  0
 25 10  1  1  0  0  0
 25 16  1  0  0  0  0
 25 23  1  0  0  0  0
 27 30  1  6  0  0  0
 28 20  1  0  0  0  0
 29 19  1  0  0  0  0
M  END
>  <MODEL>
6

>  <REMARK>
 VINA RESULT:      -7.9      2.144      4.960
  Name = 
  0 active torsions:
  status: ('A' for Active; 'I' for Inactive)
                            x       y       z     vdW  Elec       q    Type
                         _______ _______ _______ _____ _____    ______ ____

>  <TORSDO>
F 0

$$$$
=
 OpenBabel11052417123D

 30 34  0  0  1  0  0  0  0  0999 V2000
  189.0310  174.0770  143.9640 C   0  0  0  0  0  2  0  0  0  0  0  0
  188.4560  175.6100  141.1150 C   0  0  0  0  0  0  0  0  0  0  0  0
  186.9330  176.6790  147.4570 C   0  0  0  0  0  2  0  0  0  0  0  0
  190.0630  173.4470  144.8920 C   0  0  0  0  0  2  0  0  0  0  0  0
  189.5250  175.3900  143.3790 C   0  0  0  0  0  2  0  0  0  0  0  0
  194.2050  172.6050  145.3060 C   0  0  0  0  0  2  0  0  0  0  0  0
  191.1750  176.5530  148.1590 O   0  0  0  0  0  0  0  0  0  0  0  0
  191.3030  172.9540  144.1380 C   0  0  1  0  0  0  0  0  0  0  0  0
  193.1980  173.7340  145.2120 C   0  0  0  0  0  0  0  0  0  0  0  0
  188.2630  176.1690  146.8880 C   0  0  0  0  0  2  0  0  0  0  0  0
  186.0910  177.5140  146.4830 C   0  0  0  0  0  2  0  0  0  0  0  0
  192.4280  173.8030  144.0290 O   0  0  0  0  0  0  0  0  0  0  0  0
  191.6270  171.6080  144.3960 O   0  0  0  0  0  0  0  0  0  0  0  0
  187.4410  176.0340  140.3190 N   0  0  0  0  0  0  0  0  0  0  0  0
  191.4160  176.4060  146.9320 C   0  0  0  0  0  0  0  0  0  0  0  0
  190.4430  176.7580  145.9480 N   0  0  0  0  0  2  0  0  0  0  0  0
  194.6650  174.0120  144.9600 C   0  0  0  0  0  2  0  0  0  0  0  0
  189.4850  174.7980  140.5590 N   0  0  0  0  0  1  0  0  0  0  0  0
  187.4190  176.7570  142.9700 C   0  0  0  0  0  0  0  0  0  0  0  0
  186.4300  176.7910  140.8160 C   0  0  0  0  0  3  0  0  0  0  0  0
  192.6580  174.3230  146.5130 C   0  0  0  0  0  2  0  0  0  0  0  0
  188.4730  175.9600  142.4750 C   0  0  0  0  0  0  0  0  0  0  0  0
  188.5330  177.9160  144.9940 C   0  0  0  0  0  2  0  0  0  0  0  0
  186.2160  177.0530  145.0620 C   0  0  0  0  0  3  0  0  0  0  0  0
  189.1230  177.2770  146.2660 C   0  0  1  0  0  3  0  0  0  0  0  0
  192.7170  175.8410  146.4900 C   0  0  0  0  0  2  0  0  0  0  0  0
  191.2060  171.9090  143.0830 C   0  0  1  0  0  3  0  0  0  0  0  0
  186.4230  177.1410  142.1260 N   0  0  0  0  0  0  0  0  0  0  0  0
  187.3580  177.1920  144.3790 C   0  0  0  0  0  0  0  0  0  0  0  0
  189.8970  171.4550  142.9090 O   0  0  0  0  0  1  0  0  0  0  0  0
  1  4  1  0  0  0  0
  2 22  1  0  0  0  0
  5  1  1  0  0  0  0
  8 13  1  0  0  0  0
  8  4  1  1  0  0  0
  9  6  1  0  0  0  0
  9 21  1  0  0  0  0
 10  3  1  0  0  0  0
 11  3  1  0  0  0  0
 12  8  1  0  0  0  0
 12  9  1  0  0  0  0
 14 20  1  0  0  0  0
 14  2  2  0  0  0  0
 15  7  2  0  0  0  0
 16 25  1  0  0  0  0
 16 15  1  0  0  0  0
 17  9  1  0  0  0  0
 17  6  1  0  0  0  0
 18  2  1  0  0  0  0
 19 29  1  0  0  0  0
 20 28  2  0  0  0  0
 22 19  2  0  0  0  0
 22  5  1  0  0  0  0
 24 11  1  0  0  0  0
 25 23  1  6  0  0  0
 25 10  1  0  0  0  0
 26 21  1  0  0  0  0
 26 15  1  0  0  0  0
 27 30  1  1  0  0  0
 27  8  1  0  0  0  0
 27 13  1  0  0  0  0
 28 19  1  0  0  0  0
 29 23  1  0  0  0  0
 29 24  2  0  0  0  0
M  END
>  <MODEL>
7

>  <REMARK>
 VINA RESULT:      -7.9      2.220      2.741
  Name = 
  0 active torsions:
  status: ('A' for Active; 'I' for Inactive)
                            x       y       z     vdW  Elec       q    Type
                         _______ _______ _______ _____ _____    ______ ____

>  <TORSDO>
F 0

$$$$
=
 OpenBabel11052417123D

 30 34  0  0  1  0  0  0  0  0999 V2000
  188.5950  174.7380  142.6690 C   0  0  0  0  0  2  0  0  0  0  0  0
  186.9910  177.2740  141.3260 C   0  0  0  0  0  0  0  0  0  0  0  0
  190.0340  176.1070  147.0760 C   0  0  0  0  0  2  0  0  0  0  0  0
  189.6870  173.6880  142.5100 C   0  0  0  0  0  2  0  0  0  0  0  0
  189.0470  176.1020  142.1740 C   0  0  0  0  0  2  0  0  0  0  0  0
  192.6640  172.2450  139.8460 C   0  0  0  0  0  2  0  0  0  0  0  0
  193.4960  175.2050  144.6890 O   0  0  0  0  0  0  0  0  0  0  0  0
  189.9720  173.3580  141.0410 C   0  0  1  0  0  0  0  0  0  0  0  0
  192.2560  173.4450  140.6780 C   0  0  0  0  0  0  0  0  0  0  0  0
  190.4900  175.6820  145.6750 C   0  0  0  0  0  2  0  0  0  0  0  0
  189.1210  177.3400  147.1140 C   0  0  0  0  0  2  0  0  0  0  0  0
  191.0120  174.0410  140.3680 O   0  0  0  0  0  0  0  0  0  0  0  0
  189.9080  171.9830  140.7450 O   0  0  0  0  0  0  0  0  0  0  0  0
  185.9210  178.0840  141.5260 N   0  0  0  0  0  0  0  0  0  0  0  0
  192.8890  175.4930  143.6240 C   0  0  0  0  0  0  0  0  0  0  0  0
  191.7120  176.3000  143.6480 N   0  0  0  0  0  2  0  0  0  0  0  0
  193.2660  173.6120  139.5620 C   0  0  0  0  0  2  0  0  0  0  0  0
  187.1340  176.6030  140.0780 N   0  0  0  0  0  1  0  0  0  0  0  0
  187.7320  177.7740  143.5690 C   0  0  0  0  0  0  0  0  0  0  0  0
  185.7370  178.7230  142.7100 C   0  0  0  0  0  3  0  0  0  0  0  0
  192.8390  173.5740  142.0830 C   0  0  0  0  0  2  0  0  0  0  0  0
  187.9350  177.0920  142.3500 C   0  0  0  0  0  0  0  0  0  0  0  0
  190.1440  177.9560  144.4830 C   0  0  0  0  0  2  0  0  0  0  0  0
  188.2080  177.4240  145.9270 C   0  0  0  0  0  3  0  0  0  0  0  0
  191.1170  176.8260  144.8660 C   0  0  1  0  0  3  0  0  0  0  0  0
  193.3810  174.9740  142.3210 C   0  0  0  0  0  2  0  0  0  0  0  0
  188.9190  172.7960  140.1520 C   0  0  1  0  0  3  0  0  0  0  0  0
  186.6330  178.5630  143.7160 N   0  0  0  0  0  0  0  0  0  0  0  0
  188.6770  177.6630  144.6980 C   0  0  0  0  0  0  0  0  0  0  0  0
  187.7100  172.6050  140.8240 O   0  0  0  0  0  1  0  0  0  0  0  0
  2 14  2  0  0  0  0
  2 22  1  0  0  0  0
  3 11  1  0  0  0  0
  4  1  1  0  0  0  0
  5 22  1  0  0  0  0
  5  1  1  0  0  0  0
  6  9  1  0  0  0  0
  8  4  1  1  0  0  0
  9 21  1  0  0  0  0
 10  3  1  0  0  0  0
 12  9  1  0  0  0  0
 12  8  1  0  0  0  0
 13  8  1  0  0  0  0
 14 20  1  0  0  0  0
 15 16  1  0  0  0  0
 15  7  2  0  0  0  0
 16 25  1  0  0  0  0
 17  6  1  0  0  0  0
 17  9  1  0  0  0  0
 18  2  1  0  0  0  0
 19 28  1  0  0  0  0
 19 29  1  0  0  0  0
 20 28  2  0  0  0  0
 21 26  1  0  0  0  0
 22 19  2  0  0  0  0
 23 29  1  0  0  0  0
 24 11  1  0  0  0  0
 25 23  1  6  0  0  0
 25 10  1  0  0  0  0
 26 15  1  0  0  0  0
 27 13  1  0  0  0  0
 27 30  1  1  0  0  0
 27  8  1  0  0  0  0
 29 24  2  0  0  0  0
M  END
>  <MODEL>
8

>  <REMARK>
 VINA RESULT:      -7.9      1.879      2.992
  Name = 
  0 active torsions:
  status: ('A' for Active; 'I' for Inactive)
                            x       y       z     vdW  Elec       q    Type
                         _______ _______ _______ _____ _____    ______ ____

>  <TORSDO>
F 0

$$$$
=
 OpenBabel11052417123D

 30 34  0  0  1  0  0  0  0  0999 V2000
  191.5850  173.2700  144.1970 C   0  0  0  0  0  2  0  0  0  0  0  0
  190.6340  173.5160  141.0610 C   0  0  0  0  0  0  0  0  0  0  0  0
  189.8940  177.1500  146.5310 C   0  0  0  0  0  2  0  0  0  0  0  0
  192.7350  173.0410  145.1690 C   0  0  0  0  0  2  0  0  0  0  0  0
  191.9800  174.2070  143.0670 C   0  0  0  0  0  2  0  0  0  0  0  0
  196.9110  172.2960  145.3910 C   0  0  0  0  0  2  0  0  0  0  0  0
  194.1910  177.1730  146.7060 O   0  0  0  0  0  0  0  0  0  0  0  0
  193.8800  172.2370  144.5420 C   0  0  1  0  0  0  0  0  0  0  0  0
  195.8810  173.3220  144.9630 C   0  0  0  0  0  0  0  0  0  0  0  0
  191.1510  176.4050  146.0670 C   0  0  0  0  0  2  0  0  0  0  0  0
  188.9230  177.5410  145.4090 C   0  0  0  0  0  2  0  0  0  0  0  0
  194.9690  172.9250  143.9580 O   0  0  0  0  0  0  0  0  0  0  0  0
  194.2570  171.1060  145.2910 O   0  0  0  0  0  0  0  0  0  0  0  0
  189.5210  173.6110  140.2890 N   0  0  0  0  0  0  0  0  0  0  0  0
  194.2810  176.5260  145.6290 C   0  0  0  0  0  0  0  0  0  0  0  0
  193.1870  176.4770  144.7130 N   0  0  0  0  0  2  0  0  0  0  0  0
  197.3000  173.4190  144.4430 C   0  0  0  0  0  2  0  0  0  0  0  0
  191.6000  172.5100  140.7690 N   0  0  0  0  0  1  0  0  0  0  0  0
  189.8160  175.3600  142.3880 C   0  0  0  0  0  0  0  0  0  0  0  0
  188.5660  174.5400  140.5480 C   0  0  0  0  0  3  0  0  0  0  0  0
  195.4970  174.4120  145.9600 C   0  0  0  0  0  2  0  0  0  0  0  0
  190.8140  174.3930  142.1420 C   0  0  0  0  0  0  0  0  0  0  0  0
  191.1530  177.2080  143.6040 C   0  0  0  0  0  2  0  0  0  0  0  0
  188.8780  176.5320  144.3000 C   0  0  0  0  0  3  0  0  0  0  0  0
  191.9080  177.1280  144.9450 C   0  0  1  0  0  3  0  0  0  0  0  0
  195.5260  175.7830  145.3060 C   0  0  0  0  0  2  0  0  0  0  0  0
  193.6710  170.8550  144.0320 C   0  0  1  0  0  3  0  0  0  0  0  0
  188.7160  175.3980  141.5880 N   0  0  0  0  0  0  0  0  0  0  0  0
  189.9230  176.3380  143.4880 C   0  0  0  0  0  0  0  0  0  0  0  0
  192.3590  170.4160  144.2200 O   0  0  0  0  0  1  0  0  0  0  0  0
  1  4  1  0  0  0  0
  2 22  1  0  0  0  0
  5  1  1  0  0  0  0
  8  4  1  1  0  0  0
  8 13  1  0  0  0  0
  9  6  1  0  0  0  0
  9 21  1  0  0  0  0
 10  3  1  0  0  0  0
 11  3  1  0  0  0  0
 12  8  1  0  0  0  0
 12  9  1  0  0  0  0
 14 20  1  0  0  0  0
 14  2  2  0  0  0  0
 15  7  2  0  0  0  0
 16 25  1  0  0  0  0
 16 15  1  0  0  0  0
 17  9  1  0  0  0  0
 17  6  1  0  0  0  0
 18  2  1  0  0  0  0
 19 29  1  0  0  0  0
 20 28  2  0  0  0  0
 22 19  2  0  0  0  0
 22  5  1  0  0  0  0
 24 11  1  0  0  0  0
 25 23  1  6  0  0  0
 25 10  1  0  0  0  0
 26 15  1  0  0  0  0
 26 21  1  0  0  0  0
 27 30  1  1  0  0  0
 27  8  1  0  0  0  0
 27 13  1  0  0  0  0
 28 19  1  0  0  0  0
 29 23  1  0  0  0  0
 29 24  2  0  0  0  0
M  END
>  <MODEL>
9

>  <REMARK>
 VINA RESULT:      -7.7      3.555      5.241
  Name = 
  0 active torsions:
  status: ('A' for Active; 'I' for Inactive)
                            x       y       z     vdW  Elec       q    Type
                         _______ _______ _______ _____ _____    ______ ____

>  <TORSDO>
F 0

$$$$
