=
 OpenBabel11052419303D

 55 59  0  0  1  0  0  0  0  0999 V2000
  194.8120  173.1590  142.3970 C   0  0  0  0  0  3  0  0  0  0  0  0
  190.4460  171.6000  141.5930 C   0  0  0  0  0  2  0  0  0  0  0  0
  188.3440  173.6560  140.3890 C   0  0  0  0  0  1  0  0  0  0  0  0
  192.8220  170.3460  140.0870 C   0  0  0  0  0  2  0  0  0  0  0  0
  191.7690  168.2010  140.4250 O   0  0  0  0  0  0  0  0  0  0  0  0
  188.5430  174.7750  143.3380 O   0  0  0  0  0  1  0  0  0  0  0  0
  190.1710  169.8760  136.7030 C   0  0  0  0  0  2  0  0  0  0  0  0
  192.3040  172.1670  136.7350 C   0  0  2  0  0  3  0  0  0  0  0  0
  190.7660  174.4230  144.2300 C   0  0  2  0  0  3  0  0  0  0  0  0
  191.7050  175.1790  141.6120 C   0  0  0  0  0  2  0  0  0  0  0  0
  192.0280  168.9980  138.1380 C   0  0  1  0  0  3  0  0  0  0  0  0
  191.1590  168.2570  139.1540 C   0  0  0  0  0  2  0  0  0  0  0  0
  195.9450  170.2580  141.4380 S   0  0  0  0  0  0  0  0  0  0  0  0
  191.3540  168.9250  136.7750 C   0  0  0  0  0  2  0  0  0  0  0  0
  189.7860  174.2070  143.0450 C   0  0  2  0  0  3  0  0  0  0  0  0
  194.2210  170.2390  143.6460 C   0  0  2  0  0  3  0  0  0  0  0  0
  194.0430  174.3810  142.0190 C   0  0  2  0  0  3  0  0  0  0  0  0
  190.3610  170.8990  135.5920 C   0  0  0  0  0  2  0  0  0  0  0  0
  193.8150  169.6070  144.9700 C   0  0  0  0  0  1  0  0  0  0  0  0
  193.2090  174.9950  144.7360 C   0  0  2  0  0  3  0  0  0  0  0  0
  194.5560  175.6040  142.7260 C   0  0  0  0  0  3  0  0  0  0  0  0
  190.4830  170.1380  141.1660 C   0  0  0  0  0  2  0  0  0  0  0  0
  192.2490  174.1650  143.8540 C   0  0  2  0  0  3  0  0  0  0  0  0
  190.6040  172.5160  140.3860 C   0  0  0  0  0  2  0  0  0  0  0  0
  189.8490  173.8470  140.5010 C   0  0  2  0  0  3  0  0  0  0  0  0
  196.7240  171.6510  142.3120 C   0  0  0  0  0  2  0  0  0  0  0  0
  192.3140  170.4370  138.6410 C   0  0  2  0  0  3  0  0  0  0  0  0
  191.8870  169.5020  140.9790 C   0  0  2  0  0  0  0  0  0  0  0  0
  196.0370  172.9220  141.9350 C   0  0  0  0  0  3  0  0  0  0  0  0
  190.2440  174.7560  141.6790 C   0  0  2  0  0  3  0  0  0  0  0  0
  192.5630  174.1620  142.3380 C   0  0  1  0  0  3  0  0  0  0  0  0
  191.7960  171.4240  135.4880 C   0  0  0  0  0  2  0  0  0  0  0  0
  192.5380  169.3300  142.3560 C   0  0  0  0  0  2  0  0  0  0  0  0
  194.1510  175.8940  143.9670 C   0  0  0  0  0  3  0  0  0  0  0  0
  193.2050  171.3610  137.7270 C   0  0  1  0  0  0  0  0  0  0  0  0
  193.1040  170.5320  142.8270 O   0  0  0  0  0  0  0  0  0  0  0  0
  195.3400  169.4470  142.9580 C   0  0  0  0  0  2  0  0  0  0  0  0
  194.2820  170.5520  137.0210 C   0  0  0  0  0  0  0  0  0  0  0  0
  194.3940  170.5740  135.6330 O   0  0  0  0  0  0  0  0  0  0  0  0
  195.1430  169.9190  137.6940 O   0  0  0  0  0  1  0  0  0  0  0  0
  189.7040  172.2210  145.0260 C   0  0  0  0  0  1  0  0  0  0  0  0
  190.3910  173.5160  145.4300 C   0  0  2  0  0  3  0  0  0  0  0  0
  189.5360  174.1910  146.3040 O   0  0  0  0  0  1  0  0  0  0  0  0
  193.9190  172.4240  138.5980 C   0  0  0  0  0  2  0  0  0  0  0  0
  194.7500  173.4300  137.8080 C   0  0  0  0  0  1  0  0  0  0  0  0
  191.2720  172.8580  137.3940 O   0  0  0  0  0  0  0  0  0  0  0  0
  189.8600  174.4600  136.5600 O   0  0  0  0  0  1  0  0  0  0  0  0
  191.1950  174.1120  136.7820 C   0  0  0  0  0  2  0  0  0  0  0  0
  194.0050  174.0540  145.6330 C   0  0  0  0  0  2  0  0  0  0  0  0
  195.3530  174.6620  145.9750 C   0  0  0  0  0  2  0  0  0  0  0  0
  197.5620  174.0560  145.3280 O   0  0  0  0  0  0  0  0  0  0  0  0
  196.4260  173.6670  145.7190 C   0  0  0  0  0  0  0  0  0  0  0  0
  196.1670  172.2780  145.9130 N   0  0  0  0  0  2  0  0  0  0  0  0
  197.1950  171.2690  145.7190 C   0  0  0  0  0  2  0  0  0  0  0  0
  196.8600  170.0410  146.5410 C   0  0  0  0  0  1  0  0  0  0  0  0
  3 25  1  0  0  0  0
  4 28  1  0  0  0  0
  5 28  1  0  0  0  0
  7 14  1  0  0  0  0
  8 46  1  1  0  0  0
  8 35  1  0  0  0  0
  9 42  1  1  0  0  0
 10 30  1  0  0  0  0
 10 31  1  0  0  0  0
 11 14  1  6  0  0  0
 11 27  1  0  0  0  0
 11 12  1  0  0  0  0
 12  5  1  0  0  0  0
 13 26  1  0  0  0  0
 13 37  1  0  0  0  0
 15  6  1  1  0  0  0
 15  9  1  0  0  0  0
 16 19  1  1  0  0  0
 17 31  1  0  0  0  0
 17  1  1  1  0  0  0
 17 21  1  0  0  0  0
 18  7  1  0  0  0  0
 20 49  1  6  0  0  0
 21 34  2  0  0  0  0
 22  2  1  0  0  0  0
 23  9  1  0  0  0  0
 23 20  1  0  0  0  0
 24 25  1  0  0  0  0
 24  2  1  0  0  0  0
 25 30  1  0  0  0  0
 27  4  1  0  0  0  0
 28 22  1  0  0  0  0
 28 33  1  0  0  0  0
 29 26  1  0  0  0  0
 29  1  2  0  0  0  0
 30 15  1  0  0  0  0
 31 23  1  0  0  0  0
 32 18  1  0  0  0  0
 32  8  1  0  0  0  0
 33 36  1  0  0  0  0
 34 20  1  0  0  0  0
 35 44  1  0  0  0  0
 35 27  1  0  0  0  0
 36 16  1  0  0  0  0
 37 16  1  0  0  0  0
 38 40  1  0  0  0  0
 38 35  1  0  0  0  0
 39 38  2  0  0  0  0
 41 42  1  0  0  0  0
 42 43  1  0  0  0  0
 45 44  1  0  0  0  0
 47 48  1  0  0  0  0
 48 46  1  0  0  0  0
 49 50  1  0  0  0  0
 51 52  2  0  0  0  0
 52 53  1  0  0  0  0
 52 50  1  0  0  0  0
 54 53  1  0  0  0  0
 54 55  1  0  0  0  0
M  END
>  <MODEL>
1

>  <REMARK>
 VINA RESULT:      -5.9      0.000      0.000
  Name = 
  9 active torsions:
  status: ('A' for Active; 'I' for Inactive)
    1  A    between atoms: C_1  and  C_53
    2  A    between atoms: C_6  and  C_53
    3  A    between atoms: O_12  and  C_14
    4  A    between atoms: O_12  and  C_38
    5  A    between atoms: C_13  and  C_33
    6  A    between atoms: C_13  and  C_48
    7  A    between atoms: C_16  and  C_17
    8  A    between atoms: C_18  and  N_39
    9  A    between atoms: C_32  and  C_48
                            x       y       z     vdW  Elec       q    Type
                         _______ _______ _______ _____ _____    ______ ____

>  <TORSDO>
F 9

$$$$
=
 OpenBabel11052419303D

 55 59  0  0  1  0  0  0  0  0999 V2000
  193.6770  173.2780  139.4250 C   0  0  0  0  0  3  0  0  0  0  0  0
  193.5380  171.3750  143.7260 C   0  0  0  0  0  2  0  0  0  0  0  0
  195.8160  172.2050  145.7800 C   0  0  0  0  0  1  0  0  0  0  0  0
  191.2220  173.1630  142.7670 C   0  0  0  0  0  2  0  0  0  0  0  0
  189.7160  171.5900  143.8070 O   0  0  0  0  0  0  0  0  0  0  0  0
  197.4980  170.3490  143.8540 O   0  0  0  0  0  1  0  0  0  0  0  0
  190.8510  174.5290  146.8540 C   0  0  0  0  0  2  0  0  0  0  0  0
  192.2150  176.3420  144.6980 C   0  0  2  0  0  3  0  0  0  0  0  0
  196.6480  170.4840  141.5910 C   0  0  2  0  0  3  0  0  0  0  0  0
  196.3650  173.3080  142.0930 C   0  0  0  0  0  2  0  0  0  0  0  0
  189.7820  173.8600  144.6880 C   0  0  1  0  0  3  0  0  0  0  0  0
  189.6570  172.3650  144.9840 C   0  0  0  0  0  2  0  0  0  0  0  0
  190.4220  173.4330  139.4700 S   0  0  0  0  0  0  0  0  0  0  0  0
  189.6050  174.6300  145.9890 C   0  0  0  0  0  2  0  0  0  0  0  0
  196.4890  170.9200  143.0730 C   0  0  2  0  0  3  0  0  0  0  0  0
  191.5370  170.8750  139.7180 C   0  0  2  0  0  3  0  0  0  0  0  0
  194.9510  173.7140  140.0670 C   0  0  2  0  0  3  0  0  0  0  0  0
  191.4370  175.9060  147.1260 C   0  0  0  0  0  2  0  0  0  0  0  0
  191.4310  169.3810  139.4480 C   0  0  0  0  0  1  0  0  0  0  0  0
  196.4670  171.3870  139.2020 C   0  0  2  0  0  3  0  0  0  0  0  0
  196.0640  173.8460  139.0650 C   0  0  0  0  0  3  0  0  0  0  0  0
  192.0930  171.1690  144.1610 C   0  0  0  0  0  2  0  0  0  0  0  0
  195.8190  171.3490  140.6050 C   0  0  2  0  0  3  0  0  0  0  0  0
  194.0160  172.7740  144.0940 C   0  0  0  0  0  2  0  0  0  0  0  0
  195.5080  172.8610  144.4420 C   0  0  2  0  0  3  0  0  0  0  0  0
  191.6390  173.6150  138.1300 C   0  0  0  0  0  2  0  0  0  0  0  0
  191.1170  174.1390  143.9490 C   0  0  2  0  0  3  0  0  0  0  0  0
  190.9950  171.7000  143.2010 C   0  0  2  0  0  0  0  0  0  0  0  0
  192.9320  174.1060  138.6960 C   0  0  0  0  0  3  0  0  0  0  0  0
  196.4920  172.4380  143.3360 C   0  0  2  0  0  3  0  0  0  0  0  0
  195.3330  172.7110  141.1570 C   0  0  1  0  0  3  0  0  0  0  0  0
  191.4030  176.8340  145.9090 C   0  0  0  0  0  2  0  0  0  0  0  0
  190.9600  170.8120  141.9510 C   0  0  0  0  0  2  0  0  0  0  0  0
  196.7730  172.7760  138.6880 C   0  0  0  0  0  3  0  0  0  0  0  0
  191.4260  175.6310  143.5510 C   0  0  1  0  0  0  0  0  0  0  0  0
  191.9770  171.1520  141.0350 O   0  0  0  0  0  0  0  0  0  0  0  0
  190.2680  171.6230  139.2880 C   0  0  0  0  0  2  0  0  0  0  0  0
  190.1520  176.3680  143.1680 C   0  0  0  0  0  0  0  0  0  0  0  0
  189.3450  175.9040  142.1310 O   0  0  0  0  0  0  0  0  0  0  0  0
  189.7660  177.3610  143.8450 O   0  0  0  0  0  1  0  0  0  0  0  0
  195.1380  168.5420  142.3350 C   0  0  0  0  0  1  0  0  0  0  0  0
  196.2510  168.9980  141.4050 C   0  0  2  0  0  3  0  0  0  0  0  0
  197.3510  168.1660  141.6270 O   0  0  0  0  0  1  0  0  0  0  0  0
  192.3660  175.6590  142.3200 C   0  0  0  0  0  2  0  0  0  0  0  0
  193.0470  177.0030  142.0780 C   0  0  0  0  0  1  0  0  0  0  0  0
  193.3560  175.6190  145.0880 O   0  0  0  0  0  0  0  0  0  0  0  0
  195.4790  176.3170  144.5770 O   0  0  0  0  0  1  0  0  0  0  0  0
  194.3450  176.5690  145.3530 C   0  0  0  0  0  2  0  0  0  0  0  0
  195.5670  170.6550  138.2150 C   0  0  0  0  0  2  0  0  0  0  0  0
  195.7420  171.2210  136.8170 C   0  0  0  0  0  2  0  0  0  0  0  0
  194.2420  172.6580  135.6560 O   0  0  0  0  0  0  0  0  0  0  0  0
  194.4110  171.5550  136.2460 C   0  0  0  0  0  0  0  0  0  0  0  0
  193.3330  170.6300  136.3710 N   0  0  0  0  0  2  0  0  0  0  0  0
  192.0260  170.8900  135.7920 C   0  0  0  0  0  2  0  0  0  0  0  0
  191.2240  169.6050  135.7550 C   0  0  0  0  0  1  0  0  0  0  0  0
  1 17  1  0  0  0  0
  2 24  1  0  0  0  0
  2 22  1  0  0  0  0
  4 28  1  0  0  0  0
  4 27  1  0  0  0  0
  5 12  1  0  0  0  0
  7 18  1  0  0  0  0
  8 46  1  1  0  0  0
  8 32  1  0  0  0  0
  9 42  1  1  0  0  0
  9 15  1  0  0  0  0
 10 30  1  0  0  0  0
 11 12  1  1  0  0  0
 11 14  1  0  0  0  0
 14  7  1  0  0  0  0
 15 30  1  0  0  0  0
 15  6  1  1  0  0  0
 16 19  1  1  0  0  0
 16 36  1  0  0  0  0
 17 21  1  6  0  0  0
 17 31  1  0  0  0  0
 20 49  1  6  0  0  0
 20 23  1  0  0  0  0
 23 31  1  0  0  0  0
 23  9  1  0  0  0  0
 24 25  1  0  0  0  0
 25  3  1  0  0  0  0
 26 29  1  0  0  0  0
 26 13  1  0  0  0  0
 27 11  1  0  0  0  0
 28  5  1  0  0  0  0
 28 22  1  0  0  0  0
 29  1  2  0  0  0  0
 30 25  1  0  0  0  0
 31 10  1  0  0  0  0
 32 18  1  0  0  0  0
 33 28  1  0  0  0  0
 34 21  2  0  0  0  0
 34 20  1  0  0  0  0
 35 27  1  0  0  0  0
 35  8  1  0  0  0  0
 36 33  1  0  0  0  0
 37 13  1  0  0  0  0
 37 16  1  0  0  0  0
 38 35  1  0  0  0  0
 38 40  1  0  0  0  0
 39 38  2  0  0  0  0
 42 43  1  0  0  0  0
 42 41  1  0  0  0  0
 44 35  1  0  0  0  0
 45 44  1  0  0  0  0
 46 48  1  0  0  0  0
 47 48  1  0  0  0  0
 50 49  1  0  0  0  0
 51 52  2  0  0  0  0
 52 53  1  0  0  0  0
 52 50  1  0  0  0  0
 54 53  1  0  0  0  0
 55 54  1  0  0  0  0
M  END
>  <MODEL>
2

>  <REMARK>
 VINA RESULT:      -5.3      2.599      7.851
  Name = 
  9 active torsions:
  status: ('A' for Active; 'I' for Inactive)
    1  A    between atoms: C_1  and  C_53
    2  A    between atoms: C_6  and  C_53
    3  A    between atoms: O_12  and  C_14
    4  A    between atoms: O_12  and  C_38
    5  A    between atoms: C_13  and  C_33
    6  A    between atoms: C_13  and  C_48
    7  A    between atoms: C_16  and  C_17
    8  A    between atoms: C_18  and  N_39
    9  A    between atoms: C_32  and  C_48
                            x       y       z     vdW  Elec       q    Type
                         _______ _______ _______ _____ _____    ______ ____

>  <TORSDO>
F 9

$$$$
=
 OpenBabel11052419303D

 55 59  0  0  1  0  0  0  0  0999 V2000
  193.5800  171.4110  143.1970 C   0  0  0  0  0  3  0  0  0  0  0  0
  194.1520  174.0640  139.3540 C   0  0  0  0  0  2  0  0  0  0  0  0
  196.8700  173.7520  137.7380 C   0  0  0  0  0  1  0  0  0  0  0  0
  191.8640  172.0060  139.4680 C   0  0  0  0  0  2  0  0  0  0  0  0
  190.4640  173.6600  138.4040 O   0  0  0  0  0  0  0  0  0  0  0  0
  197.9410  175.3100  140.2700 O   0  0  0  0  0  1  0  0  0  0  0  0
  192.4680  171.3990  135.2290 C   0  0  0  0  0  2  0  0  0  0  0  0
  193.5230  169.2970  137.2930 C   0  0  2  0  0  3  0  0  0  0  0  0
  196.6610  174.7140  142.2360 C   0  0  2  0  0  3  0  0  0  0  0  0
  196.7500  172.0200  141.2150 C   0  0  0  0  0  2  0  0  0  0  0  0
  190.9210  171.5980  137.1890 C   0  0  1  0  0  3  0  0  0  0  0  0
  190.7200  173.1130  137.1290 C   0  0  0  0  0  2  0  0  0  0  0  0
  190.4320  171.0900  142.4160 S   0  0  0  0  0  0  0  0  0  0  0  0
  191.0860  171.0720  135.7700 C   0  0  0  0  0  2  0  0  0  0  0  0
  196.8510  174.5510  140.7030 C   0  0  2  0  0  3  0  0  0  0  0  0
  191.3330  173.7070  142.8520 C   0  0  2  0  0  3  0  0  0  0  0  0
  194.9940  171.1710  142.7860 C   0  0  2  0  0  3  0  0  0  0  0  0
  193.2230  170.1300  134.8630 C   0  0  0  0  0  2  0  0  0  0  0  0
  191.0350  175.1170  143.3410 C   0  0  0  0  0  1  0  0  0  0  0  0
  196.0770  173.3770  144.3400 C   0  0  2  0  0  3  0  0  0  0  0  0
  195.8840  170.9180  143.9700 C   0  0  0  0  0  3  0  0  0  0  0  0
  192.8140  174.2670  138.6540 C   0  0  0  0  0  2  0  0  0  0  0  0
  195.7300  173.6380  142.8560 C   0  0  2  0  0  3  0  0  0  0  0  0
  194.8230  172.7850  138.8690 C   0  0  0  0  0  2  0  0  0  0  0  0
  196.3560  172.8450  138.8460 C   0  0  2  0  0  3  0  0  0  0  0  0
  191.3600  170.7300  143.9390 C   0  0  0  0  0  2  0  0  0  0  0  0
  192.0950  171.2610  138.1440 C   0  0  2  0  0  3  0  0  0  0  0  0
  191.5960  173.5100  139.2470 C   0  0  2  0  0  0  0  0  0  0  0  0
  192.7810  170.4240  143.5960 C   0  0  0  0  0  3  0  0  0  0  0  0
  197.0480  173.1100  140.1950 C   0  0  2  0  0  3  0  0  0  0  0  0
  195.4970  172.3770  141.9900 C   0  0  1  0  0  3  0  0  0  0  0  0
  193.0260  168.9930  135.8700 C   0  0  0  0  0  2  0  0  0  0  0  0
  191.2240  174.1490  140.5900 C   0  0  0  0  0  2  0  0  0  0  0  0
  196.3980  171.9360  144.6670 C   0  0  0  0  0  3  0  0  0  0  0  0
  192.4530  169.7400  138.3430 C   0  0  1  0  0  0  0  0  0  0  0  0
  192.0580  173.7020  141.6360 O   0  0  0  0  0  0  0  0  0  0  0  0
  190.0780  172.8250  142.8620 C   0  0  0  0  0  2  0  0  0  0  0  0
  191.2010  168.8770  138.3090 C   0  0  0  0  0  0  0  0  0  0  0  0
  190.2810  168.9150  139.3540 O   0  0  0  0  0  1  0  0  0  0  0  0
  190.9390  168.1800  137.2890 O   0  0  0  0  0  0  0  0  0  0  0  0
  195.3940  176.7930  141.4130 C   0  0  0  0  0  1  0  0  0  0  0  0
  196.0980  176.1170  142.5780 C   0  0  2  0  0  3  0  0  0  0  0  0
  197.1240  176.9660  142.9990 O   0  0  0  0  0  1  0  0  0  0  0  0
  193.1180  169.5360  139.7270 C   0  0  0  0  0  2  0  0  0  0  0  0
  193.7630  168.1670  139.9210 C   0  0  0  0  0  1  0  0  0  0  0  0
  194.6470  170.1410  137.2900 O   0  0  0  0  0  0  0  0  0  0  0  0
  196.8630  170.0850  136.7050 O   0  0  0  0  0  1  0  0  0  0  0  0
  195.7500  169.3160  137.0500 C   0  0  0  0  0  2  0  0  0  0  0  0
  194.9300  173.8650  145.2160 C   0  0  0  0  0  2  0  0  0  0  0  0
  195.3220  175.1400  145.9420 C   0  0  0  0  0  2  0  0  0  0  0  0
  194.1490  177.1900  145.6540 O   0  0  0  0  0  0  0  0  0  0  0  0
  194.1270  176.0090  146.1000 C   0  0  0  0  0  0  0  0  0  0  0  0
  192.9650  175.5060  146.7560 N   0  0  0  0  0  2  0  0  0  0  0  0
  191.7570  176.3010  146.8970 C   0  0  0  0  0  2  0  0  0  0  0  0
  190.6140  175.4090  147.3360 C   0  0  0  0  0  1  0  0  0  0  0  0
  1 29  2  0  0  0  0
  3 25  1  0  0  0  0
  5 28  1  0  0  0  0
  7 14  1  0  0  0  0
  8 46  1  6  0  0  0
  8 35  1  0  0  0  0
  9 42  1  6  0  0  0
  9 23  1  0  0  0  0
 10 31  1  0  0  0  0
 11 14  1  6  0  0  0
 11 27  1  0  0  0  0
 12 11  1  0  0  0  0
 12  5  1  0  0  0  0
 13 37  1  0  0  0  0
 13 26  1  0  0  0  0
 15  6  1  1  0  0  0
 15  9  1  0  0  0  0
 16 37  1  0  0  0  0
 16 19  1  6  0  0  0
 17  1  1  1  0  0  0
 17 21  1  0  0  0  0
 18  7  1  0  0  0  0
 18 32  1  0  0  0  0
 20 34  1  0  0  0  0
 20 49  1  1  0  0  0
 21 34  2  0  0  0  0
 22 28  1  0  0  0  0
 22  2  1  0  0  0  0
 23 20  1  0  0  0  0
 24  2  1  0  0  0  0
 25 24  1  0  0  0  0
 25 30  1  0  0  0  0
 27 35  1  0  0  0  0
 27  4  1  0  0  0  0
 28  4  1  0  0  0  0
 28 33  1  0  0  0  0
 29 26  1  0  0  0  0
 30 15  1  0  0  0  0
 30 10  1  0  0  0  0
 31 17  1  0  0  0  0
 31 23  1  0  0  0  0
 32  8  1  0  0  0  0
 33 36  1  0  0  0  0
 35 44  1  0  0  0  0
 36 16  1  0  0  0  0
 38 35  1  0  0  0  0
 38 39  1  0  0  0  0
 40 38  2  0  0  0  0
 41 42  1  0  0  0  0
 42 43  1  0  0  0  0
 44 45  1  0  0  0  0
 47 48  1  0  0  0  0
 48 46  1  0  0  0  0
 49 50  1  0  0  0  0
 50 52  1  0  0  0  0
 51 52  2  0  0  0  0
 52 53  1  0  0  0  0
 53 54  1  0  0  0  0
 54 55  1  0  0  0  0
M  END
>  <MODEL>
3

>  <REMARK>
 VINA RESULT:      -5.3      2.218      5.324
  Name = 
  9 active torsions:
  status: ('A' for Active; 'I' for Inactive)
    1  A    between atoms: C_1  and  C_53
    2  A    between atoms: C_6  and  C_53
    3  A    between atoms: O_12  and  C_14
    4  A    between atoms: O_12  and  C_38
    5  A    between atoms: C_13  and  C_33
    6  A    between atoms: C_13  and  C_48
    7  A    between atoms: C_16  and  C_17
    8  A    between atoms: C_18  and  N_39
    9  A    between atoms: C_32  and  C_48
                            x       y       z     vdW  Elec       q    Type
                         _______ _______ _______ _____ _____    ______ ____

>  <TORSDO>
F 9

$$$$
=
 OpenBabel11052419303D

 55 59  0  0  1  0  0  0  0  0999 V2000
  193.7970  170.6800  143.5320 C   0  0  0  0  0  3  0  0  0  0  0  0
  193.1480  174.1890  140.4650 C   0  0  0  0  0  2  0  0  0  0  0  0
  190.8280  173.8610  138.3190 C   0  0  0  0  0  1  0  0  0  0  0  0
  192.7710  174.6990  143.4790 C   0  0  0  0  0  2  0  0  0  0  0  0
  193.8940  176.8100  143.1550 O   0  0  0  0  0  0  0  0  0  0  0  0
  192.9210  171.8030  137.1470 O   0  0  0  0  0  1  0  0  0  0  0  0
  189.6240  177.4670  142.4120 C   0  0  0  0  0  2  0  0  0  0  0  0
  188.9220  174.6250  143.5190 C   0  0  2  0  0  3  0  0  0  0  0  0
  194.2010  170.7870  138.9330 C   0  0  2  0  0  3  0  0  0  0  0  0
  191.7070  170.6800  140.3730 C   0  0  0  0  0  2  0  0  0  0  0  0
  191.5660  176.8530  143.8720 C   0  0  1  0  0  3  0  0  0  0  0  0
  192.6640  177.4880  143.0170 C   0  0  0  0  0  2  0  0  0  0  0  0
  194.4680  172.9020  145.8190 S   0  0  0  0  0  0  0  0  0  0  0  0
  190.3060  177.6980  143.7510 C   0  0  0  0  0  2  0  0  0  0  0  0
  193.1150  171.8220  138.5310 C   0  0  2  0  0  3  0  0  0  0  0  0
  196.1450  172.8990  143.5750 C   0  0  2  0  0  3  0  0  0  0  0  0
  192.7870  170.1520  142.5700 C   0  0  2  0  0  3  0  0  0  0  0  0
  188.2110  176.9370  142.6050 C   0  0  0  0  0  2  0  0  0  0  0  0
  197.5310  173.1280  142.9910 C   0  0  0  0  0  1  0  0  0  0  0  0
  194.7530  169.0510  140.7320 C   0  0  2  0  0  3  0  0  0  0  0  0
  192.9200  168.6660  142.3800 C   0  0  0  0  0  3  0  0  0  0  0  0
  193.4530  175.5260  141.1280 C   0  0  0  0  0  2  0  0  0  0  0  0
  194.2180  170.4740  140.4530 C   0  0  2  0  0  3  0  0  0  0  0  0
  191.6940  173.7940  140.6960 C   0  0  0  0  0  2  0  0  0  0  0  0
  191.0670  172.9940  139.5470 C   0  0  2  0  0  3  0  0  0  0  0  0
  194.7090  171.1000  145.7530 C   0  0  0  0  0  2  0  0  0  0  0  0
  191.3870  175.3640  143.4770 C   0  0  2  0  0  3  0  0  0  0  0  0
  193.7970  175.4910  142.6410 C   0  0  2  0  0  0  0  0  0  0  0  0
  193.6890  170.4950  144.8460 C   0  0  0  0  0  3  0  0  0  0  0  0
  191.7380  171.6530  139.2030 C   0  0  2  0  0  3  0  0  0  0  0  0
  192.9410  170.8760  141.2310 C   0  0  1  0  0  3  0  0  0  0  0  0
  188.0960  175.9050  143.7300 C   0  0  0  0  0  2  0  0  0  0  0  0
  195.1800  174.8540  142.8190 C   0  0  0  0  0  2  0  0  0  0  0  0
  193.8100  168.1670  141.5160 C   0  0  0  0  0  3  0  0  0  0  0  0
  190.2980  174.5340  144.2560 C   0  0  1  0  0  0  0  0  0  0  0  0
  195.1230  173.4460  142.7620 O   0  0  0  0  0  0  0  0  0  0  0  0
  196.0780  173.2970  145.0550 C   0  0  0  0  0  2  0  0  0  0  0  0
  190.2170  174.9710  145.7100 C   0  0  0  0  0  0  0  0  0  0  0  0
  189.0000  175.3490  146.2740 O   0  0  0  0  0  0  0  0  0  0  0  0
  191.2400  174.9140  146.4470 O   0  0  0  0  0  1  0  0  0  0  0  0
  195.8120  172.7720  138.6590 C   0  0  0  0  0  1  0  0  0  0  0  0
  195.6110  171.2720  138.5100 C   0  0  2  0  0  3  0  0  0  0  0  0
  195.8600  170.9450  137.1750 O   0  0  0  0  0  1  0  0  0  0  0  0
  190.6780  173.0330  144.2430 C   0  0  0  0  0  2  0  0  0  0  0  0
  189.6530  172.1180  144.9070 C   0  0  0  0  0  1  0  0  0  0  0  0
  189.0220  174.2800  142.1590 O   0  0  0  0  0  0  0  0  0  0  0  0
  188.3590  172.1390  141.6780 O   0  0  0  0  0  1  0  0  0  0  0  0
  187.9300  173.4520  141.8880 C   0  0  0  0  0  2  0  0  0  0  0  0
  196.0910  169.1520  141.4530 C   0  0  0  0  0  2  0  0  0  0  0  0
  196.1460  168.1680  142.6080 C   0  0  0  0  0  2  0  0  0  0  0  0
  197.7810  169.6760  143.4570 O   0  0  0  0  0  0  0  0  0  0  0  0
  196.9770  168.7340  143.7030 C   0  0  0  0  0  0  0  0  0  0  0  0
  196.8640  168.2080  145.0240 N   0  0  0  0  0  2  0  0  0  0  0  0
  197.6210  168.7550  146.1360 C   0  0  0  0  0  2  0  0  0  0  0  0
  196.9790  168.3310  147.4420 C   0  0  0  0  0  1  0  0  0  0  0  0
  1 29  2  0  0  0  0
  2 24  1  0  0  0  0
  2 22  1  0  0  0  0
  3 25  1  0  0  0  0
  7 18  1  0  0  0  0
  7 14  1  0  0  0  0
  8 46  1  6  0  0  0
  8 32  1  0  0  0  0
  8 35  1  0  0  0  0
  9 42  1  1  0  0  0
  9 23  1  0  0  0  0
 10 31  1  0  0  0  0
 11 12  1  6  0  0  0
 12  5  1  0  0  0  0
 14 11  1  0  0  0  0
 15  6  1  6  0  0  0
 15  9  1  0  0  0  0
 15 30  1  0  0  0  0
 16 19  1  6  0  0  0
 16 37  1  0  0  0  0
 17 21  1  6  0  0  0
 17  1  1  0  0  0  0
 18 32  1  0  0  0  0
 20 49  1  1  0  0  0
 20 34  1  0  0  0  0
 22 28  1  0  0  0  0
 23 20  1  0  0  0  0
 23 31  1  0  0  0  0
 25 24  1  0  0  0  0
 26 13  1  0  0  0  0
 27  4  1  0  0  0  0
 27 11  1  0  0  0  0
 27 35  1  0  0  0  0
 28 33  1  0  0  0  0
 28  5  1  0  0  0  0
 28  4  1  0  0  0  0
 29 26  1  0  0  0  0
 30 25  1  0  0  0  0
 30 10  1  0  0  0  0
 31 17  1  0  0  0  0
 34 21  2  0  0  0  0
 35 38  1  0  0  0  0
 36 33  1  0  0  0  0
 36 16  1  0  0  0  0
 37 13  1  0  0  0  0
 38 39  2  0  0  0  0
 38 40  1  0  0  0  0
 42 41  1  0  0  0  0
 43 42  1  0  0  0  0
 44 35  1  0  0  0  0
 44 45  1  0  0  0  0
 47 48  1  0  0  0  0
 48 46  1  0  0  0  0
 49 50  1  0  0  0  0
 50 52  1  0  0  0  0
 51 52  2  0  0  0  0
 52 53  1  0  0  0  0
 53 54  1  0  0  0  0
 54 55  1  0  0  0  0
M  END
>  <MODEL>
4

>  <REMARK>
 VINA RESULT:      -5.3      2.244      7.015
  Name = 
  9 active torsions:
  status: ('A' for Active; 'I' for Inactive)
    1  A    between atoms: C_1  and  C_53
    2  A    between atoms: C_6  and  C_53
    3  A    between atoms: O_12  and  C_14
    4  A    between atoms: O_12  and  C_38
    5  A    between atoms: C_13  and  C_33
    6  A    between atoms: C_13  and  C_48
    7  A    between atoms: C_16  and  C_17
    8  A    between atoms: C_18  and  N_39
    9  A    between atoms: C_32  and  C_48
                            x       y       z     vdW  Elec       q    Type
                         _______ _______ _______ _____ _____    ______ ____

>  <TORSDO>
F 9

$$$$
=
 OpenBabel11052419303D

 55 59  0  0  1  0  0  0  0  0999 V2000
  192.7690  171.4670  143.0220 C   0  0  0  0  0  3  0  0  0  0  0  0
  194.7690  174.5410  140.0750 C   0  0  0  0  0  2  0  0  0  0  0  0
  197.9410  174.7190  140.0590 C   0  0  0  0  0  1  0  0  0  0  0  0
  193.0770  172.2250  138.9550 C   0  0  0  0  0  2  0  0  0  0  0  0
  192.1610  173.7990  137.3720 O   0  0  0  0  0  0  0  0  0  0  0  0
  197.3510  176.1320  142.8230 O   0  0  0  0  0  1  0  0  0  0  0  0
  195.8030  172.1230  135.5990 C   0  0  0  0  0  2  0  0  0  0  0  0
  195.9940  169.9640  137.8570 C   0  0  2  0  0  3  0  0  0  0  0  0
  195.3690  175.1930  143.8490 C   0  0  2  0  0  3  0  0  0  0  0  0
  196.3690  172.6440  142.9460 C   0  0  0  0  0  2  0  0  0  0  0  0
  193.4740  171.9380  136.5040 C   0  0  1  0  0  3  0  0  0  0  0  0
  193.1000  173.4170  136.3900 C   0  0  0  0  0  2  0  0  0  0  0  0
  190.5250  170.8530  140.7400 S   0  0  0  0  0  0  0  0  0  0  0  0
  194.4040  171.5810  135.3530 C   0  0  0  0  0  2  0  0  0  0  0  0
  196.3210  175.2080  142.6220 C   0  0  2  0  0  3  0  0  0  0  0  0
  190.6730  173.5010  141.6420 C   0  0  2  0  0  3  0  0  0  0  0  0
  194.2170  171.4400  143.3810 C   0  0  2  0  0  3  0  0  0  0  0  0
  196.8240  170.9950  135.6360 C   0  0  0  0  0  2  0  0  0  0  0  0
  189.9590  174.8100  141.9480 C   0  0  0  0  0  1  0  0  0  0  0  0
  194.0260  173.5920  145.3280 C   0  0  2  0  0  3  0  0  0  0  0  0
  194.4240  171.1760  144.8470 C   0  0  0  0  0  3  0  0  0  0  0  0
  193.9460  174.6530  138.7980 C   0  0  0  0  0  2  0  0  0  0  0  0
  194.4310  173.9570  143.8810 C   0  0  2  0  0  3  0  0  0  0  0  0
  195.7790  173.4070  139.9660 C   0  0  0  0  0  2  0  0  0  0  0  0
  197.0890  173.6510  140.7280 C   0  0  2  0  0  3  0  0  0  0  0  0
  190.6110  170.4550  142.5140 C   0  0  0  0  0  2  0  0  0  0  0  0
  194.0490  171.6490  137.9150 C   0  0  2  0  0  3  0  0  0  0  0  0
  192.7280  173.7000  138.6690 C   0  0  2  0  0  0  0  0  0  0  0  0
  192.0400  170.3560  142.9330 C   0  0  0  0  0  3  0  0  0  0  0  0
  196.9650  173.8590  142.2480 C   0  0  2  0  0  3  0  0  0  0  0  0
  194.8580  172.7700  142.9840 C   0  0  1  0  0  3  0  0  0  0  0  0
  196.3270  169.7480  136.3710 C   0  0  0  0  0  2  0  0  0  0  0  0
  191.6420  174.1520  139.6520 C   0  0  0  0  0  2  0  0  0  0  0  0
  194.3580  172.1740  145.7350 C   0  0  0  0  0  3  0  0  0  0  0  0
  194.4890  170.1690  138.2280 C   0  0  1  0  0  0  0  0  0  0  0  0
  191.8990  173.7050  140.9640 O   0  0  0  0  0  0  0  0  0  0  0  0
  189.7330  172.4790  140.9890 C   0  0  0  0  0  2  0  0  0  0  0  0
  193.5710  169.1710  137.5390 C   0  0  0  0  0  0  0  0  0  0  0  0
  192.2010  169.1720  137.7900 O   0  0  0  0  0  1  0  0  0  0  0  0
  194.0320  168.3860  136.6640 O   0  0  0  0  0  0  0  0  0  0  0  0
  194.3890  177.0890  145.2800 C   0  0  0  0  0  1  0  0  0  0  0  0
  194.5030  176.4770  143.8940 C   0  0  2  0  0  3  0  0  0  0  0  0
  193.2070  176.2070  143.4450 O   0  0  0  0  0  1  0  0  0  0  0  0
  194.3960  169.9080  139.7520 C   0  0  0  0  0  2  0  0  0  0  0  0
  194.7650  168.4890  140.1720 C   0  0  0  0  0  1  0  0  0  0  0  0
  196.8250  170.9320  138.4490 O   0  0  0  0  0  0  0  0  0  0  0  0
  197.9310  170.3000  140.3540 O   0  0  0  0  0  1  0  0  0  0  0  0
  197.9250  170.2380  138.9590 C   0  0  0  0  0  2  0  0  0  0  0  0
  192.5350  173.8490  145.5100 C   0  0  0  0  0  2  0  0  0  0  0  0
  192.2910  174.7000  146.7440 C   0  0  0  0  0  2  0  0  0  0  0  0
  189.9770  174.9150  147.2550 O   0  0  0  0  0  0  0  0  0  0  0  0
  190.9720  175.3740  146.6290 C   0  0  0  0  0  0  0  0  0  0  0  0
  190.8380  176.5350  145.8110 N   0  0  0  0  0  2  0  0  0  0  0  0
  189.5810  177.2560  145.7010 C   0  0  0  0  0  2  0  0  0  0  0  0
  189.4090  177.7580  144.2810 C   0  0  0  0  0  1  0  0  0  0  0  0
  3 25  1  0  0  0  0
  5 28  1  0  0  0  0
  7 18  1  0  0  0  0
  8 35  1  0  0  0  0
  8 46  1  6  0  0  0
  9 23  1  0  0  0  0
  9 42  1  6  0  0  0
 10 31  1  0  0  0  0
 11 14  1  6  0  0  0
 11 27  1  0  0  0  0
 12 11  1  0  0  0  0
 12  5  1  0  0  0  0
 13 37  1  0  0  0  0
 13 26  1  0  0  0  0
 14  7  1  0  0  0  0
 15  6  1  1  0  0  0
 15  9  1  0  0  0  0
 16 19  1  6  0  0  0
 17  1  1  1  0  0  0
 17 21  1  0  0  0  0
 18 32  1  0  0  0  0
 20 49  1  6  0  0  0
 20 34  1  0  0  0  0
 21 34  2  0  0  0  0
 22  2  1  0  0  0  0
 23 20  1  0  0  0  0
 24  2  1  0  0  0  0
 24 25  1  0  0  0  0
 25 30  1  0  0  0  0
 26 29  1  0  0  0  0
 27 35  1  0  0  0  0
 27  4  1  0  0  0  0
 28 22  1  0  0  0  0
 28  4  1  0  0  0  0
 28 33  1  0  0  0  0
 29  1  2  0  0  0  0
 30 15  1  0  0  0  0
 30 10  1  0  0  0  0
 31 17  1  0  0  0  0
 31 23  1  0  0  0  0
 32  8  1  0  0  0  0
 33 36  1  0  0  0  0
 35 44  1  0  0  0  0
 36 16  1  0  0  0  0
 37 16  1  0  0  0  0
 38 39  1  0  0  0  0
 38 35  1  0  0  0  0
 40 38  2  0  0  0  0
 42 41  1  0  0  0  0
 43 42  1  0  0  0  0
 44 45  1  0  0  0  0
 46 48  1  0  0  0  0
 48 47  1  0  0  0  0
 49 50  1  0  0  0  0
 52 50  1  0  0  0  0
 52 51  2  0  0  0  0
 53 52  1  0  0  0  0
 54 53  1  0  0  0  0
 55 54  1  0  0  0  0
M  END
>  <MODEL>
5

>  <REMARK>
 VINA RESULT:      -5.2      2.435      5.708
  Name = 
  9 active torsions:
  status: ('A' for Active; 'I' for Inactive)
    1  A    between atoms: C_1  and  C_53
    2  A    between atoms: C_6  and  C_53
    3  A    between atoms: O_12  and  C_14
    4  A    between atoms: O_12  and  C_38
    5  A    between atoms: C_13  and  C_33
    6  A    between atoms: C_13  and  C_48
    7  A    between atoms: C_16  and  C_17
    8  A    between atoms: C_18  and  N_39
    9  A    between atoms: C_32  and  C_48
                            x       y       z     vdW  Elec       q    Type
                         _______ _______ _______ _____ _____    ______ ____

>  <TORSDO>
F 9

$$$$
=
 OpenBabel11052419303D

 55 59  0  0  1  0  0  0  0  0999 V2000
  194.6990  173.5630  142.0940 C   0  0  0  0  0  3  0  0  0  0  0  0
  190.5750  171.4350  141.3150 C   0  0  0  0  0  2  0  0  0  0  0  0
  188.2290  173.1770  140.0680 C   0  0  0  0  0  1  0  0  0  0  0  0
  193.1000  170.4710  139.8380 C   0  0  0  0  0  2  0  0  0  0  0  0
  192.3320  168.2140  140.2160 O   0  0  0  0  0  0  0  0  0  0  0  0
  188.2690  174.3690  142.9940 O   0  0  0  0  0  1  0  0  0  0  0  0
  190.5450  169.5960  136.4600 C   0  0  0  0  0  2  0  0  0  0  0  0
  192.3630  172.1430  136.4490 C   0  0  2  0  0  3  0  0  0  0  0  0
  190.5160  174.3260  143.8960 C   0  0  2  0  0  3  0  0  0  0  0  0
  191.3590  175.1470  141.2640 C   0  0  0  0  0  2  0  0  0  0  0  0
  192.4950  168.9940  137.9140 C   0  0  1  0  0  3  0  0  0  0  0  0
  191.7250  168.1660  138.9430 C   0  0  0  0  0  2  0  0  0  0  0  0
  196.2020  170.8160  141.1940 S   0  0  0  0  0  0  0  0  0  0  0  0
  191.8410  168.8070  136.5520 C   0  0  0  0  0  2  0  0  0  0  0  0
  189.5760  173.9620  142.7140 C   0  0  2  0  0  3  0  0  0  0  0  0
  194.4870  170.6160  143.4000 C   0  0  2  0  0  3  0  0  0  0  0  0
  193.7790  174.6670  141.6900 C   0  0  2  0  0  3  0  0  0  0  0  0
  190.6050  170.6120  135.3290 C   0  0  0  0  0  2  0  0  0  0  0  0
  194.1610  169.9630  144.7350 C   0  0  0  0  0  1  0  0  0  0  0  0
  192.8620  175.2200  144.3940 C   0  0  2  0  0  3  0  0  0  0  0  0
  194.1260  175.9600  142.3740 C   0  0  0  0  0  3  0  0  0  0  0  0
  190.8030  169.9820  140.9170 C   0  0  0  0  0  2  0  0  0  0  0  0
  192.0210  174.2550  143.5270 C   0  0  2  0  0  3  0  0  0  0  0  0
  190.6170  172.3400  140.0900 C   0  0  0  0  0  2  0  0  0  0  0  0
  189.6960  173.5640  140.1780 C   0  0  2  0  0  3  0  0  0  0  0  0
  196.7910  172.3140  142.0410 C   0  0  0  0  0  2  0  0  0  0  0  0
  192.5890  170.4670  138.3890 C   0  0  2  0  0  3  0  0  0  0  0  0
  192.2780  169.5300  140.7440 C   0  0  2  0  0  0  0  0  0  0  0  0
  195.9460  173.4780  141.6380 C   0  0  0  0  0  3  0  0  0  0  0  0
  189.9650  174.5390  141.3380 C   0  0  2  0  0  3  0  0  0  0  0  0
  192.3390  174.2650  142.0120 C   0  0  1  0  0  3  0  0  0  0  0  0
  191.9600  171.3170  135.2160 C   0  0  0  0  0  2  0  0  0  0  0  0
  192.9410  169.4710  142.1260 C   0  0  0  0  0  2  0  0  0  0  0  0
  193.6820  176.2190  143.6090 C   0  0  0  0  0  3  0  0  0  0  0  0
  193.3560  171.4810  137.4580 C   0  0  1  0  0  0  0  0  0  0  0  0
  193.3450  170.7450  142.5730 O   0  0  0  0  0  0  0  0  0  0  0  0
  195.7020  169.9630  142.7280 C   0  0  0  0  0  2  0  0  0  0  0  0
  194.5320  170.8050  136.7700 C   0  0  0  0  0  0  0  0  0  0  0  0
  195.5570  170.2270  137.5150 O   0  0  0  0  0  1  0  0  0  0  0  0
  194.5470  170.6850  135.5130 O   0  0  0  0  0  0  0  0  0  0  0  0
  189.7050  172.0370  144.7370 C   0  0  0  0  0  1  0  0  0  0  0  0
  190.2570  173.4020  145.1130 C   0  0  2  0  0  3  0  0  0  0  0  0
  189.3490  173.9950  145.9920 O   0  0  0  0  0  1  0  0  0  0  0  0
  193.9230  172.6450  138.3090 C   0  0  0  0  0  2  0  0  0  0  0  0
  194.6710  173.7050  137.5070 C   0  0  0  0  0  1  0  0  0  0  0  0
  191.2470  172.7080  137.0930 O   0  0  0  0  0  0  0  0  0  0  0  0
  189.7090  174.3360  136.6050 O   0  0  0  0  0  1  0  0  0  0  0  0
  191.0490  173.9580  136.5000 C   0  0  0  0  0  2  0  0  0  0  0  0
  193.7700  174.4090  145.3100 C   0  0  0  0  0  2  0  0  0  0  0  0
  194.5870  175.3290  146.1980 C   0  0  0  0  0  2  0  0  0  0  0  0
  194.0450  177.4450  147.1450 O   0  0  0  0  0  0  0  0  0  0  0  0
  193.6790  176.2570  146.9210 C   0  0  0  0  0  0  0  0  0  0  0  0
  192.4010  175.8010  147.3600 N   0  0  0  0  0  2  0  0  0  0  0  0
  191.4600  176.6810  148.0320 C   0  0  0  0  0  2  0  0  0  0  0  0
  190.3290  177.0290  147.0850 C   0  0  0  0  0  1  0  0  0  0  0  0
  3 25  1  0  0  0  0
  4 28  1  0  0  0  0
  5 28  1  0  0  0  0
  7 14  1  0  0  0  0
  8 46  1  1  0  0  0
  8 35  1  0  0  0  0
  9 42  1  1  0  0  0
 10 30  1  0  0  0  0
 10 31  1  0  0  0  0
 11 14  1  6  0  0  0
 11 27  1  0  0  0  0
 11 12  1  0  0  0  0
 12  5  1  0  0  0  0
 13 26  1  0  0  0  0
 13 37  1  0  0  0  0
 15  6  1  1  0  0  0
 15  9  1  0  0  0  0
 16 19  1  1  0  0  0
 17 31  1  0  0  0  0
 17  1  1  1  0  0  0
 17 21  1  0  0  0  0
 18  7  1  0  0  0  0
 20 49  1  6  0  0  0
 21 34  2  0  0  0  0
 22  2  1  0  0  0  0
 23  9  1  0  0  0  0
 23 20  1  0  0  0  0
 24 25  1  0  0  0  0
 24  2  1  0  0  0  0
 25 30  1  0  0  0  0
 27  4  1  0  0  0  0
 28 22  1  0  0  0  0
 28 33  1  0  0  0  0
 29 26  1  0  0  0  0
 29  1  2  0  0  0  0
 30 15  1  0  0  0  0
 31 23  1  0  0  0  0
 32 18  1  0  0  0  0
 32  8  1  0  0  0  0
 33 36  1  0  0  0  0
 34 20  1  0  0  0  0
 35 44  1  0  0  0  0
 35 27  1  0  0  0  0
 36 16  1  0  0  0  0
 37 16  1  0  0  0  0
 38 35  1  0  0  0  0
 38 39  1  0  0  0  0
 40 38  2  0  0  0  0
 41 42  1  0  0  0  0
 42 43  1  0  0  0  0
 45 44  1  0  0  0  0
 48 47  1  0  0  0  0
 48 46  1  0  0  0  0
 49 50  1  0  0  0  0
 50 52  1  0  0  0  0
 52 51  2  0  0  0  0
 52 53  1  0  0  0  0
 53 54  1  0  0  0  0
 55 54  1  0  0  0  0
M  END
>  <MODEL>
6

>  <REMARK>
 VINA RESULT:      -5.1      1.391      2.148
  Name = 
  9 active torsions:
  status: ('A' for Active; 'I' for Inactive)
    1  A    between atoms: C_1  and  C_53
    2  A    between atoms: C_6  and  C_53
    3  A    between atoms: O_12  and  C_14
    4  A    between atoms: O_12  and  C_38
    5  A    between atoms: C_13  and  C_33
    6  A    between atoms: C_13  and  C_48
    7  A    between atoms: C_16  and  C_17
    8  A    between atoms: C_18  and  N_39
    9  A    between atoms: C_32  and  C_48
                            x       y       z     vdW  Elec       q    Type
                         _______ _______ _______ _____ _____    ______ ____

>  <TORSDO>
F 9

$$$$
=
 OpenBabel11052419303D

 55 59  0  0  1  0  0  0  0  0999 V2000
  189.8550  173.1310  144.4300 C   0  0  0  0  0  3  0  0  0  0  0  0
  193.4840  175.4460  142.5300 C   0  0  0  0  0  2  0  0  0  0  0  0
  195.8370  176.3450  144.4660 C   0  0  0  0  0  1  0  0  0  0  0  0
  192.8710  172.5630  141.6380 C   0  0  0  0  0  2  0  0  0  0  0  0
  193.3520  173.2710  139.3810 O   0  0  0  0  0  0  0  0  0  0  0  0
  193.6130  178.4060  145.3530 O   0  0  0  0  0  1  0  0  0  0  0  0
  197.1360  172.0060  141.1960 C   0  0  0  0  0  2  0  0  0  0  0  0
  195.6340  170.8150  143.6700 C   0  0  2  0  0  3  0  0  0  0  0  0
  191.4120  177.4200  145.1450 C   0  0  2  0  0  3  0  0  0  0  0  0
  192.6180  175.0240  146.2000 C   0  0  0  0  0  2  0  0  0  0  0  0
  194.8020  171.5900  140.3850 C   0  0  1  0  0  3  0  0  0  0  0  0
  194.6850  172.8190  139.4830 C   0  0  0  0  0  2  0  0  0  0  0  0
  189.7130  171.2970  141.7400 S   0  0  0  0  0  0  0  0  0  0  0  0
  196.2440  171.1030  140.3600 C   0  0  0  0  0  2  0  0  0  0  0  0
  192.9410  177.2540  144.9340 C   0  0  2  0  0  3  0  0  0  0  0  0
  189.3570  174.0510  141.3740 C   0  0  2  0  0  3  0  0  0  0  0  0
  190.6760  173.5610  145.5990 C   0  0  2  0  0  3  0  0  0  0  0  0
  197.8010  171.2240  142.3190 C   0  0  0  0  0  2  0  0  0  0  0  0
  188.6960  175.1830  140.5990 C   0  0  0  0  0  1  0  0  0  0  0  0
  189.3380  176.1250  145.9050 C   0  0  2  0  0  3  0  0  0  0  0  0
  189.8240  173.8490  146.8040 C   0  0  0  0  0  3  0  0  0  0  0  0
  193.7480  174.9370  141.1180 C   0  0  0  0  0  2  0  0  0  0  0  0
  190.6330  176.0800  145.0620 C   0  0  2  0  0  3  0  0  0  0  0  0
  194.2390  174.6070  143.5530 C   0  0  0  0  0  2  0  0  0  0  0  0
  194.7010  175.3870  144.7920 C   0  0  2  0  0  3  0  0  0  0  0  0
  188.5570  171.5340  143.1240 C   0  0  0  0  0  2  0  0  0  0  0  0
  194.2570  171.9220  141.7990 C   0  0  2  0  0  3  0  0  0  0  0  0
  192.8870  173.7390  140.6380 C   0  0  2  0  0  0  0  0  0  0  0  0
  189.3200  171.9150  144.3500 C   0  0  0  0  0  3  0  0  0  0  0  0
  193.5940  176.0470  145.6340 C   0  0  2  0  0  3  0  0  0  0  0  0
  191.4890  174.7990  145.2140 C   0  0  1  0  0  3  0  0  0  0  0  0
  196.8710  170.2080  142.9870 C   0  0  0  0  0  2  0  0  0  0  0  0
  191.4490  174.2210  140.4160 C   0  0  0  0  0  2  0  0  0  0  0  0
  189.2300  175.0380  146.9500 C   0  0  0  0  0  3  0  0  0  0  0  0
  194.2880  170.7730  142.8760 C   0  0  1  0  0  0  0  0  0  0  0  0
  190.7270  174.3020  141.6250 O   0  0  0  0  0  0  0  0  0  0  0  0
  189.0510  172.6820  140.7520 C   0  0  0  0  0  2  0  0  0  0  0  0
  194.0240  169.4190  142.2350 C   0  0  0  0  0  0  0  0  0  0  0  0
  194.9330  168.3730  142.3800 O   0  0  0  0  0  1  0  0  0  0  0  0
  192.9350  169.2030  141.6350 O   0  0  0  0  0  0  0  0  0  0  0  0
  190.5110  177.7720  142.7630 C   0  0  0  0  0  1  0  0  0  0  0  0
  190.8140  178.4070  144.1100 C   0  0  2  0  0  3  0  0  0  0  0  0
  191.6930  179.4700  143.8860 O   0  0  0  0  0  1  0  0  0  0  0  0
  193.1770  171.0120  143.9270 C   0  0  0  0  0  2  0  0  0  0  0  0
  193.0860  169.9360  145.0040 C   0  0  0  0  0  1  0  0  0  0  0  0
  195.8980  172.0890  144.2030 O   0  0  0  0  0  0  0  0  0  0  0  0
  197.0800  172.9420  145.9720 O   0  0  0  0  0  1  0  0  0  0  0  0
  196.2870  171.8810  145.5290 C   0  0  0  0  0  2  0  0  0  0  0  0
  188.1320  176.0730  144.9750 C   0  0  0  0  0  2  0  0  0  0  0  0
  187.0280  176.9810  145.4850 C   0  0  0  0  0  2  0  0  0  0  0  0
  186.2740  179.1290  144.7920 O   0  0  0  0  0  0  0  0  0  0  0  0
  186.6940  177.9890  144.4470 C   0  0  0  0  0  0  0  0  0  0  0  0
  186.8480  177.6640  143.0660 N   0  0  0  0  0  2  0  0  0  0  0  0
  186.5770  178.6290  142.0150 C   0  0  0  0  0  2  0  0  0  0  0  0
  186.0220  177.9110  140.8010 C   0  0  0  0  0  1  0  0  0  0  0  0
  2 24  1  0  0  0  0
  3 25  1  0  0  0  0
  4 27  1  0  0  0  0
  5 12  1  0  0  0  0
  5 28  1  0  0  0  0
  7 18  1  0  0  0  0
  8 46  1  6  0  0  0
  9 42  1  6  0  0  0
 11 12  1  6  0  0  0
 11 27  1  0  0  0  0
 13 26  1  0  0  0  0
 14 11  1  0  0  0  0
 14  7  1  0  0  0  0
 15  9  1  0  0  0  0
 15  6  1  1  0  0  0
 15 30  1  0  0  0  0
 16 19  1  6  0  0  0
 16 36  1  0  0  0  0
 17  1  1  6  0  0  0
 17 21  1  0  0  0  0
 18 32  1  0  0  0  0
 20 49  1  6  0  0  0
 20 34  1  0  0  0  0
 21 34  2  0  0  0  0
 22  2  1  0  0  0  0
 23  9  1  0  0  0  0
 23 31  1  0  0  0  0
 23 20  1  0  0  0  0
 24 25  1  0  0  0  0
 25 30  1  0  0  0  0
 26 29  1  0  0  0  0
 27 35  1  0  0  0  0
 28 22  1  0  0  0  0
 28  4  1  0  0  0  0
 29  1  2  0  0  0  0
 30 10  1  0  0  0  0
 31 17  1  0  0  0  0
 31 10  1  0  0  0  0
 32  8  1  0  0  0  0
 33 28  1  0  0  0  0
 33 36  1  0  0  0  0
 35  8  1  0  0  0  0
 35 44  1  0  0  0  0
 37 16  1  0  0  0  0
 37 13  1  0  0  0  0
 38 39  1  0  0  0  0
 38 35  1  0  0  0  0
 40 38  2  0  0  0  0
 41 42  1  0  0  0  0
 43 42  1  0  0  0  0
 44 45  1  0  0  0  0
 46 48  1  0  0  0  0
 48 47  1  0  0  0  0
 49 50  1  0  0  0  0
 52 51  2  0  0  0  0
 52 50  1  0  0  0  0
 53 52  1  0  0  0  0
 54 53  1  0  0  0  0
 55 54  1  0  0  0  0
M  END
>  <MODEL>
7

>  <REMARK>
 VINA RESULT:      -4.8      3.205      7.280
  Name = 
  9 active torsions:
  status: ('A' for Active; 'I' for Inactive)
    1  A    between atoms: C_1  and  C_53
    2  A    between atoms: C_6  and  C_53
    3  A    between atoms: O_12  and  C_14
    4  A    between atoms: O_12  and  C_38
    5  A    between atoms: C_13  and  C_33
    6  A    between atoms: C_13  and  C_48
    7  A    between atoms: C_16  and  C_17
    8  A    between atoms: C_18  and  N_39
    9  A    between atoms: C_32  and  C_48
                            x       y       z     vdW  Elec       q    Type
                         _______ _______ _______ _____ _____    ______ ____

>  <TORSDO>
F 9

$$$$
=
 OpenBabel11052419303D

 55 59  0  0  1  0  0  0  0  0999 V2000
  194.9500  174.8940  142.2140 C   0  0  0  0  0  3  0  0  0  0  0  0
  192.6970  170.9650  140.9380 C   0  0  0  0  0  2  0  0  0  0  0  0
  189.9780  171.2820  139.3260 C   0  0  0  0  0  1  0  0  0  0  0  0
  195.5240  171.5310  139.8540 C   0  0  0  0  0  2  0  0  0  0  0  0
  196.0070  169.1900  140.1920 O   0  0  0  0  0  0  0  0  0  0  0  0
  188.9970  172.1830  142.1920 O   0  0  0  0  0  1  0  0  0  0  0  0
  194.2830  169.6090  136.1840 C   0  0  0  0  0  2  0  0  0  0  0  0
  194.4820  172.7280  136.3470 C   0  0  2  0  0  3  0  0  0  0  0  0
  190.7890  173.2770  143.3960 C   0  0  2  0  0  3  0  0  0  0  0  0
  191.4220  174.5380  140.8830 C   0  0  0  0  0  2  0  0  0  0  0  0
  196.0440  170.0470  137.9120 C   0  0  1  0  0  3  0  0  0  0  0  0
  195.6920  168.8920  138.8500 C   0  0  0  0  0  2  0  0  0  0  0  0
  197.7740  173.3810  141.6150 S   0  0  0  0  0  0  0  0  0  0  0  0
  195.7740  169.6100  136.4790 C   0  0  0  0  0  2  0  0  0  0  0  0
  190.3470  172.5320  142.1070 C   0  0  2  0  0  3  0  0  0  0  0  0
  196.1390  172.2120  143.5680 C   0  0  2  0  0  3  0  0  0  0  0  0
  193.6530  175.3730  141.6540 C   0  0  2  0  0  3  0  0  0  0  0  0
  193.9530  170.5590  135.0420 C   0  0  0  0  0  2  0  0  0  0  0  0
  196.0280  171.4240  144.8640 C   0  0  0  0  0  1  0  0  0  0  0  0
  192.2300  175.2400  144.1860 C   0  0  2  0  0  3  0  0  0  0  0  0
  193.1770  176.6240  142.3390 C   0  0  0  0  0  3  0  0  0  0  0  0
  193.7020  169.8660  140.6200 C   0  0  0  0  0  2  0  0  0  0  0  0
  192.1430  174.0200  143.2410 C   0  0  2  0  0  3  0  0  0  0  0  0
  192.4230  171.8150  139.7040 C   0  0  0  0  0  2  0  0  0  0  0  0
  190.9950  172.3730  139.6260 C   0  0  2  0  0  3  0  0  0  0  0  0
  197.3720  174.9250  142.4890 C   0  0  0  0  0  2  0  0  0  0  0  0
  195.2900  171.3290  138.3500 C   0  0  2  0  0  3  0  0  0  0  0  0
  195.2030  170.2590  140.6670 C   0  0  2  0  0  0  0  0  0  0  0  0
  196.1060  175.4940  141.9370 C   0  0  0  0  0  3  0  0  0  0  0  0
  190.5570  173.2890  140.7820 C   0  0  2  0  0  3  0  0  0  0  0  0
  192.6080  174.2640  141.7850 C   0  0  1  0  0  3  0  0  0  0  0  0
  194.7400  171.8710  135.0960 C   0  0  0  0  0  2  0  0  0  0  0  0
  195.6070  170.4890  142.1280 C   0  0  0  0  0  2  0  0  0  0  0  0
  192.5030  176.5550  143.4920 C   0  0  0  0  0  3  0  0  0  0  0  0
  195.5290  172.6360  137.5030 C   0  0  1  0  0  0  0  0  0  0  0  0
  195.2210  171.7650  142.5870 O   0  0  0  0  0  0  0  0  0  0  0  0
  197.5940  172.3220  143.0910 C   0  0  0  0  0  2  0  0  0  0  0  0
  196.9650  172.7060  137.0050 C   0  0  0  0  0  0  0  0  0  0  0  0
  197.2410  172.9540  135.6620 O   0  0  0  0  0  0  0  0  0  0  0  0
  197.9240  172.6260  137.8220 O   0  0  0  0  0  1  0  0  0  0  0  0
  191.6810  171.0360  144.2840 C   0  0  0  0  0  1  0  0  0  0  0  0
  190.8930  172.2990  144.5940 C   0  0  2  0  0  3  0  0  0  0  0  0
  189.6200  171.9070  145.0160 O   0  0  0  0  0  1  0  0  0  0  0  0
  195.2840  173.8830  138.3880 C   0  0  0  0  0  2  0  0  0  0  0  0
  195.6560  175.2070  137.7270 C   0  0  0  0  0  1  0  0  0  0  0  0
  193.1610  172.5970  136.8130 O   0  0  0  0  0  0  0  0  0  0  0  0
  192.0460  174.5690  137.1590 O   0  0  0  0  0  1  0  0  0  0  0  0
  192.4330  173.6240  136.2070 C   0  0  0  0  0  2  0  0  0  0  0  0
  193.2960  174.9800  145.2430 C   0  0  0  0  0  2  0  0  0  0  0  0
  192.6530  174.5700  146.5560 C   0  0  0  0  0  2  0  0  0  0  0  0
  191.8000  176.6900  147.2220 O   0  0  0  0  0  0  0  0  0  0  0  0
  191.5420  175.5030  146.8770 C   0  0  0  0  0  0  0  0  0  0  0  0
  190.1910  175.0520  146.7970 N   0  0  0  0  0  2  0  0  0  0  0  0
  189.0680  175.9360  147.0590 C   0  0  0  0  0  2  0  0  0  0  0  0
  188.2260  176.0680  145.8060 C   0  0  0  0  0  1  0  0  0  0  0  0
  3 25  1  0  0  0  0
  4 28  1  0  0  0  0
  5 28  1  0  0  0  0
  7 14  1  0  0  0  0
  8 46  1  1  0  0  0
  8 35  1  0  0  0  0
  9 42  1  1  0  0  0
 10 31  1  0  0  0  0
 11 14  1  6  0  0  0
 11 27  1  0  0  0  0
 11 12  1  0  0  0  0
 12  5  1  0  0  0  0
 13 26  1  0  0  0  0
 13 37  1  0  0  0  0
 15  6  1  1  0  0  0
 15  9  1  0  0  0  0
 16 19  1  1  0  0  0
 17 31  1  0  0  0  0
 17  1  1  1  0  0  0
 17 21  1  0  0  0  0
 18 32  1  0  0  0  0
 18  7  1  0  0  0  0
 20 49  1  1  0  0  0
 21 34  2  0  0  0  0
 22 28  1  0  0  0  0
 22  2  1  0  0  0  0
 23  9  1  0  0  0  0
 23 20  1  0  0  0  0
 24  2  1  0  0  0  0
 25 24  1  0  0  0  0
 25 30  1  0  0  0  0
 27  4  1  0  0  0  0
 28 33  1  0  0  0  0
 29  1  2  0  0  0  0
 29 26  1  0  0  0  0
 30 10  1  0  0  0  0
 30 15  1  0  0  0  0
 31 23  1  0  0  0  0
 32  8  1  0  0  0  0
 33 36  1  0  0  0  0
 34 20  1  0  0  0  0
 35 27  1  0  0  0  0
 35 44  1  0  0  0  0
 36 16  1  0  0  0  0
 37 16  1  0  0  0  0
 38 35  1  0  0  0  0
 38 40  1  0  0  0  0
 39 38  2  0  0  0  0
 41 42  1  0  0  0  0
 42 43  1  0  0  0  0
 45 44  1  0  0  0  0
 48 46  1  0  0  0  0
 48 47  1  0  0  0  0
 49 50  1  0  0  0  0
 50 52  1  0  0  0  0
 52 51  2  0  0  0  0
 53 52  1  0  0  0  0
 53 54  1  0  0  0  0
 55 54  1  0  0  0  0
M  END
>  <MODEL>
8

>  <REMARK>
 VINA RESULT:      -4.7      2.307      3.577
  Name = 
  9 active torsions:
  status: ('A' for Active; 'I' for Inactive)
    1  A    between atoms: C_1  and  C_53
    2  A    between atoms: C_6  and  C_53
    3  A    between atoms: O_12  and  C_14
    4  A    between atoms: O_12  and  C_38
    5  A    between atoms: C_13  and  C_33
    6  A    between atoms: C_13  and  C_48
    7  A    between atoms: C_16  and  C_17
    8  A    between atoms: C_18  and  N_39
    9  A    between atoms: C_32  and  C_48
                            x       y       z     vdW  Elec       q    Type
                         _______ _______ _______ _____ _____    ______ ____

>  <TORSDO>
F 9

$$$$
=
 OpenBabel11052419303D

 55 59  0  0  1  0  0  0  0  0999 V2000
  196.3850  172.9410  140.1430 C   0  0  0  0  0  3  0  0  0  0  0  0
  192.0850  171.6080  141.5120 C   0  0  0  0  0  2  0  0  0  0  0  0
  189.7840  173.7980  141.4850 C   0  0  0  0  0  1  0  0  0  0  0  0
  193.3780  170.3060  139.0380 C   0  0  0  0  0  2  0  0  0  0  0  0
  192.4940  168.1990  139.8160 O   0  0  0  0  0  0  0  0  0  0  0  0
  191.4300  174.7990  143.9890 O   0  0  0  0  0  1  0  0  0  0  0  0
  189.4100  170.0790  137.3340 C   0  0  0  0  0  2  0  0  0  0  0  0
  191.4250  172.2690  136.3640 C   0  0  2  0  0  3  0  0  0  0  0  0
  193.7850  174.3160  143.7040 C   0  0  2  0  0  3  0  0  0  0  0  0
  193.4000  175.1250  140.9640 C   0  0  0  0  0  2  0  0  0  0  0  0
  191.6740  169.0670  137.6930 C   0  0  1  0  0  3  0  0  0  0  0  0
  191.3550  168.3290  138.9930 C   0  0  0  0  0  2  0  0  0  0  0  0
  196.7560  170.0300  138.7260 S   0  0  0  0  0  0  0  0  0  0  0  0
  190.4270  169.0740  136.8190 C   0  0  0  0  0  2  0  0  0  0  0  0
  192.3480  174.1880  143.1300 C   0  0  2  0  0  3  0  0  0  0  0  0
  196.2980  170.0060  141.4900 C   0  0  2  0  0  3  0  0  0  0  0  0
  195.6000  174.2090  140.1920 C   0  0  2  0  0  3  0  0  0  0  0  0
  189.1040  171.1320  136.2780 C   0  0  0  0  0  2  0  0  0  0  0  0
  196.5390  169.3450  142.8400 C   0  0  0  0  0  1  0  0  0  0  0  0
  196.2020  174.7600  142.9840 C   0  0  2  0  0  3  0  0  0  0  0  0
  196.4570  175.3810  140.5810 C   0  0  0  0  0  3  0  0  0  0  0  0
  191.8310  170.1630  141.1030 C   0  0  0  0  0  2  0  0  0  0  0  0
  194.8910  174.0060  142.6600 C   0  0  2  0  0  3  0  0  0  0  0  0
  191.6990  172.5600  140.3870 C   0  0  0  0  0  2  0  0  0  0  0  0
  191.1680  173.9180  140.8640 C   0  0  2  0  0  3  0  0  0  0  0  0
  197.9350  171.3530  139.1350 C   0  0  0  0  0  2  0  0  0  0  0  0
  192.2460  170.4730  138.0130 C   0  0  2  0  0  3  0  0  0  0  0  0
  192.9360  169.4720  140.2600 C   0  0  2  0  0  0  0  0  0  0  0  0
  197.2250  172.6670  139.1470 C   0  0  0  0  0  3  0  0  0  0  0  0
  192.1280  174.7650  141.7180 C   0  0  2  0  0  3  0  0  0  0  0  0
  194.4420  174.0450  141.1790 C   0  0  1  0  0  3  0  0  0  0  0  0
  190.3410  171.5960  135.5050 C   0  0  0  0  0  2  0  0  0  0  0  0
  194.1550  169.2210  141.1550 C   0  0  0  0  0  2  0  0  0  0  0  0
  196.7110  175.6430  141.8670 C   0  0  0  0  0  3  0  0  0  0  0  0
  192.6430  171.3890  136.7950 C   0  0  1  0  0  0  0  0  0  0  0  0
  194.9440  170.3790  141.3090 O   0  0  0  0  0  0  0  0  0  0  0  0
  196.9060  169.1910  140.3410 C   0  0  0  0  0  2  0  0  0  0  0  0
  193.2040  170.5590  135.6500 C   0  0  0  0  0  0  0  0  0  0  0  0
  194.2640  169.6800  135.8600 O   0  0  0  0  0  1  0  0  0  0  0  0
  192.6560  170.5950  134.5130 O   0  0  0  0  0  0  0  0  0  0  0  0
  193.1830  172.0910  144.8410 C   0  0  0  0  0  1  0  0  0  0  0  0
  193.9790  173.3830  144.9260 C   0  0  2  0  0  3  0  0  0  0  0  0
  193.5990  174.0340  146.1020 O   0  0  0  0  0  1  0  0  0  0  0  0
  193.7450  172.3860  137.2280 C   0  0  0  0  0  2  0  0  0  0  0  0
  194.6240  172.8890  136.0870 C   0  0  0  0  0  1  0  0  0  0  0  0
  190.8740  172.9820  137.4440 O   0  0  0  0  0  0  0  0  0  0  0  0
  191.7220  174.9570  136.6470 O   0  0  0  0  0  1  0  0  0  0  0  0
  190.5560  174.2490  136.9500 C   0  0  0  0  0  2  0  0  0  0  0  0
  197.2740  173.7520  143.3790 C   0  0  0  0  0  2  0  0  0  0  0  0
  197.8730  174.1160  144.7250 C   0  0  0  0  0  2  0  0  0  0  0  0
  196.8890  173.7570  146.8630 O   0  0  0  0  0  0  0  0  0  0  0  0
  197.2910  173.2460  145.7800 C   0  0  0  0  0  0  0  0  0  0  0  0
  197.1910  171.8400  145.5640 N   0  0  0  0  0  2  0  0  0  0  0  0
  196.5900  170.9520  146.5450 C   0  0  0  0  0  2  0  0  0  0  0  0
  196.9950  169.5220  146.2480 C   0  0  0  0  0  1  0  0  0  0  0  0
  4 28  1  0  0  0  0
  5 28  1  0  0  0  0
  8 35  1  0  0  0  0
  8 46  1  1  0  0  0
  9 42  1  1  0  0  0
 10 31  1  0  0  0  0
 10 30  1  0  0  0  0
 11 14  1  6  0  0  0
 11 27  1  0  0  0  0
 11 12  1  0  0  0  0
 12  5  1  0  0  0  0
 13 26  1  0  0  0  0
 13 37  1  0  0  0  0
 14  7  1  0  0  0  0
 15  9  1  0  0  0  0
 15  6  1  1  0  0  0
 16 19  1  1  0  0  0
 17  1  1  1  0  0  0
 17 21  1  0  0  0  0
 17 31  1  0  0  0  0
 18  7  1  0  0  0  0
 20 49  1  6  0  0  0
 21 34  2  0  0  0  0
 22  2  1  0  0  0  0
 23 20  1  0  0  0  0
 23  9  1  0  0  0  0
 24 25  1  0  0  0  0
 24  2  1  0  0  0  0
 25  3  1  0  0  0  0
 25 30  1  0  0  0  0
 26 29  1  0  0  0  0
 27  4  1  0  0  0  0
 28 22  1  0  0  0  0
 28 33  1  0  0  0  0
 29  1  2  0  0  0  0
 30 15  1  0  0  0  0
 31 23  1  0  0  0  0
 32 18  1  0  0  0  0
 32  8  1  0  0  0  0
 33 36  1  0  0  0  0
 34 20  1  0  0  0  0
 35 44  1  0  0  0  0
 35 27  1  0  0  0  0
 36 16  1  0  0  0  0
 37 16  1  0  0  0  0
 38 39  1  0  0  0  0
 38 35  1  0  0  0  0
 40 38  2  0  0  0  0
 41 42  1  0  0  0  0
 42 43  1  0  0  0  0
 45 44  1  0  0  0  0
 47 48  1  0  0  0  0
 48 46  1  0  0  0  0
 49 50  1  0  0  0  0
 50 52  1  0  0  0  0
 52 51  2  0  0  0  0
 53 52  1  0  0  0  0
 53 54  1  0  0  0  0
 55 54  1  0  0  0  0
M  END
>  <MODEL>
9

>  <REMARK>
 VINA RESULT:      -4.7      1.723      2.278
  Name = 
  9 active torsions:
  status: ('A' for Active; 'I' for Inactive)
    1  A    between atoms: C_1  and  C_53
    2  A    between atoms: C_6  and  C_53
    3  A    between atoms: O_12  and  C_14
    4  A    between atoms: O_12  and  C_38
    5  A    between atoms: C_13  and  C_33
    6  A    between atoms: C_13  and  C_48
    7  A    between atoms: C_16  and  C_17
    8  A    between atoms: C_18  and  N_39
    9  A    between atoms: C_32  and  C_48
                            x       y       z     vdW  Elec       q    Type
                         _______ _______ _______ _____ _____    ______ ____

>  <TORSDO>
F 9

$$$$
