=
 OpenBabel11052418273D

 27 31  0  0  0  0  0  0  0  0999 V2000
  188.8140  176.4480  146.0280 N   0  0  0  0  0  0  0  0  0  0  0  0
  188.1970  176.0670  143.6810 C   0  0  0  0  0  0  0  0  0  0  0  0
  190.7100  176.0310  143.7790 N   0  0  0  0  0  0  0  0  0  0  0  0
  188.4080  173.9670  140.1110 C   0  0  0  0  0  2  0  0  0  0  0  0
  189.6460  172.6560  138.4210 O   0  0  0  0  0  1  0  0  0  0  0  0
  187.0860  175.8380  142.8470 C   0  0  0  0  0  3  0  0  0  0  0  0
  190.8850  174.3920  141.5110 C   0  0  0  0  0  3  0  0  0  0  0  0
  192.9050  176.1780  146.5190 N   0  0  0  0  0  0  0  0  0  0  0  0
  190.8080  173.5820  140.2460 C   0  0  0  0  0  3  0  0  0  0  0  0
  194.2350  176.7050  146.7560 C   0  0  0  0  0  1  0  0  0  0  0  0
  189.5370  174.8720  142.0150 C   0  0  0  0  0  0  0  0  0  0  0  0
  187.9820  176.6770  144.8800 C   0  0  0  0  0  0  0  0  0  0  0  0
  189.6610  173.3970  139.5940 C   0  0  0  0  0  0  0  0  0  0  0  0
  188.3710  174.6530  141.2570 C   0  0  0  0  0  0  0  0  0  0  0  0
  190.0910  176.2760  146.1260 C   0  0  0  0  0  0  0  0  0  0  0  0
  189.4600  175.5950  143.2240 C   0  0  0  0  0  0  0  0  0  0  0  0
  192.4310  176.7780  145.2730 C   0  0  0  0  0  2  0  0  0  0  0  0
  187.1890  175.1540  141.6830 N   0  0  0  0  0  0  0  0  0  0  0  0
  192.0600  176.6630  147.6080 C   0  0  0  0  0  2  0  0  0  0  0  0
  190.6650  176.0510  147.4940 C   0  0  0  0  0  2  0  0  0  0  0  0
  191.0180  176.3630  144.9890 C   0  0  0  0  0  0  0  0  0  0  0  0
  184.3310  178.6790  145.8370 C   0  0  0  0  0  3  0  0  0  0  0  0
  186.7000  177.3750  145.1730 C   0  0  0  0  0  0  0  0  0  0  0  0
  186.4230  178.6460  144.6480 C   0  0  0  0  0  3  0  0  0  0  0  0
  185.2340  179.2990  144.9720 C   0  0  0  0  0  3  0  0  0  0  0  0
  184.6150  177.4550  146.3560 N   0  0  0  0  0  0  0  0  0  0  0  0
  185.7680  176.8020  146.0510 C   0  0  0  0  0  3  0  0  0  0  0  0
  1 15  1  0  0  0  0
  2 12  1  0  0  0  0
  3 21  1  0  0  0  0
  4 14  1  0  0  0  0
  5 13  1  0  0  0  0
  6  2  2  0  0  0  0
  7 11  2  0  0  0  0
  8 10  1  0  0  0  0
  8 19  1  0  0  0  0
  9  7  1  0  0  0  0
 11 16  1  0  0  0  0
 12 23  1  0  0  0  0
 12  1  2  0  0  0  0
 13  4  1  0  0  0  0
 13  9  2  0  0  0  0
 14 18  2  0  0  0  0
 14 11  1  0  0  0  0
 15 20  1  0  0  0  0
 16  2  1  0  0  0  0
 16  3  2  0  0  0  0
 17  8  1  0  0  0  0
 18  6  1  0  0  0  0
 20 19  1  0  0  0  0
 21 17  1  0  0  0  0
 21 15  2  0  0  0  0
 22 26  1  0  0  0  0
 23 27  1  0  0  0  0
 24 25  1  0  0  0  0
 24 23  2  0  0  0  0
 25 22  2  0  0  0  0
 27 26  2  0  0  0  0
M  END
>  <MODEL>
1

>  <REMARK>
 VINA RESULT:      -8.0      0.000      0.000
  Name = 
  1 active torsions:
  status: ('A' for Active; 'I' for Inactive)
    1  A    between atoms: C_9  and  C_15
                            x       y       z     vdW  Elec       q    Type
                         _______ _______ _______ _____ _____    ______ ____

>  <TORSDO>
F 1

$$$$
=
 OpenBabel11052418273D

 27 31  0  0  0  0  0  0  0  0999 V2000
  190.6220  174.2010  143.4670 N   0  0  0  0  0  0  0  0  0  0  0  0
  189.5690  176.1650  144.4980 C   0  0  0  0  0  0  0  0  0  0  0  0
  188.2750  175.6740  142.3980 N   0  0  0  0  0  0  0  0  0  0  0  0
  186.2850  178.2690  145.9080 C   0  0  0  0  0  3  0  0  0  0  0  0
  183.9100  178.9420  145.7900 O   0  0  0  0  0  1  0  0  0  0  0  0
  189.5940  176.9580  145.6610 C   0  0  0  0  0  3  0  0  0  0  0  0
  185.9500  176.8630  143.4210 C   0  0  0  0  0  2  0  0  0  0  0  0
  188.5220  173.0140  140.1160 N   0  0  0  0  0  0  0  0  0  0  0  0
  184.8190  177.6010  144.0830 C   0  0  0  0  0  3  0  0  0  0  0  0
  188.3120  172.8470  138.6910 C   0  0  0  0  0  1  0  0  0  0  0  0
  187.2340  176.8550  144.2300 C   0  0  0  0  0  0  0  0  0  0  0  0
  190.6790  175.4360  144.1960 C   0  0  0  0  0  0  0  0  0  0  0  0
  184.9810  178.2610  145.2290 C   0  0  0  0  0  0  0  0  0  0  0  0
  187.3310  177.5950  145.4240 C   0  0  0  0  0  0  0  0  0  0  0  0
  189.8780  173.8380  142.4750 C   0  0  0  0  0  0  0  0  0  0  0  0
  188.3580  176.1490  143.7500 C   0  0  0  0  0  0  0  0  0  0  0  0
  188.6080  174.4530  140.3620 C   0  0  0  0  0  2  0  0  0  0  0  0
  188.5060  177.6390  146.0920 N   0  0  0  0  0  0  0  0  0  0  0  0
  189.8210  172.4200  140.4220 C   0  0  0  0  0  2  0  0  0  0  0  0
  190.0630  172.4520  141.9300 C   0  0  0  0  0  2  0  0  0  0  0  0
  188.9190  174.7260  141.8030 C   0  0  0  0  0  0  0  0  0  0  0  0
  194.3820  176.3120  146.1400 C   0  0  0  0  0  3  0  0  0  0  0  0
  191.9840  175.7040  144.8620 C   0  0  0  0  0  0  0  0  0  0  0  0
  192.4410  174.9050  145.9200 C   0  0  0  0  0  3  0  0  0  0  0  0
  193.6450  175.2030  146.5580 C   0  0  0  0  0  3  0  0  0  0  0  0
  193.9230  177.0910  145.1250 N   0  0  0  0  0  0  0  0  0  0  0  0
  192.7520  176.8170  144.4900 C   0  0  0  0  0  3  0  0  0  0  0  0
  1 12  1  0  0  0  0
  2  6  1  0  0  0  0
  3 16  1  0  0  0  0
  6 18  2  0  0  0  0
  7  9  1  0  0  0  0
  7 11  1  0  0  0  0
  8 17  1  0  0  0  0
  8 19  1  0  0  0  0
  9 13  2  0  0  0  0
 10  8  1  0  0  0  0
 11 14  1  0  0  0  0
 12  2  2  0  0  0  0
 12 23  1  0  0  0  0
 13  5  1  0  0  0  0
 13  4  1  0  0  0  0
 14  4  2  0  0  0  0
 14 18  1  0  0  0  0
 15  1  2  0  0  0  0
 16 11  2  0  0  0  0
 16  2  1  0  0  0  0
 17 21  1  0  0  0  0
 19 20  1  0  0  0  0
 20 15  1  0  0  0  0
 21  3  2  0  0  0  0
 21 15  1  0  0  0  0
 22 25  1  0  0  0  0
 23 24  1  0  0  0  0
 24 25  2  0  0  0  0
 26 22  2  0  0  0  0
 27 23  2  0  0  0  0
 27 26  1  0  0  0  0
M  END
>  <MODEL>
2

>  <REMARK>
 VINA RESULT:      -7.9      2.634      6.901
  Name = 
  1 active torsions:
  status: ('A' for Active; 'I' for Inactive)
    1  A    between atoms: C_9  and  C_15
                            x       y       z     vdW  Elec       q    Type
                         _______ _______ _______ _____ _____    ______ ____

>  <TORSDO>
F 1

$$$$
=
 OpenBabel11052418273D

 27 31  0  0  0  0  0  0  0  0999 V2000
  190.8850  174.1590  143.6480 N   0  0  0  0  0  0  0  0  0  0  0  0
  189.9010  176.0080  144.9300 C   0  0  0  0  0  0  0  0  0  0  0  0
  188.4190  175.6510  142.9290 N   0  0  0  0  0  0  0  0  0  0  0  0
  186.7310  177.9110  146.8100 C   0  0  0  0  0  3  0  0  0  0  0  0
  184.3440  178.5300  146.9710 O   0  0  0  0  0  1  0  0  0  0  0  0
  190.0240  176.7080  146.1460 C   0  0  0  0  0  3  0  0  0  0  0  0
  186.1840  176.6960  144.2600 C   0  0  0  0  0  2  0  0  0  0  0  0
  188.4920  173.1860  140.4270 N   0  0  0  0  0  0  0  0  0  0  0  0
  185.1090  177.3510  145.0840 C   0  0  0  0  0  3  0  0  0  0  0  0
  188.1490  173.1270  139.0190 C   0  0  0  0  0  1  0  0  0  0  0  0
  187.5390  176.6580  144.9410 C   0  0  0  0  0  0  0  0  0  0  0  0
  190.9900  175.3340  144.4660 C   0  0  0  0  0  0  0  0  0  0  0  0
  185.3680  177.9230  146.2590 C   0  0  0  0  0  0  0  0  0  0  0  0
  187.7380  177.3030  146.1760 C   0  0  0  0  0  0  0  0  0  0  0  0
  190.0550  173.8560  142.7050 C   0  0  0  0  0  0  0  0  0  0  0  0
  188.6240  176.0200  144.3010 C   0  0  0  0  0  0  0  0  0  0  0  0
  188.5760  174.6030  140.7780 C   0  0  0  0  0  2  0  0  0  0  0  0
  188.9710  177.3250  146.7310 N   0  0  0  0  0  0  0  0  0  0  0  0
  189.8260  172.6040  140.5590 C   0  0  0  0  0  2  0  0  0  0  0  0
  190.2110  172.5230  142.0350 C   0  0  0  0  0  2  0  0  0  0  0  0
  189.0200  174.7700  142.2010 C   0  0  0  0  0  0  0  0  0  0  0  0
  194.9250  175.9460  146.0140 C   0  0  0  0  0  3  0  0  0  0  0  0
  192.3480  175.5820  145.0250 C   0  0  0  0  0  0  0  0  0  0  0  0
  193.0630  176.7490  144.7180 C   0  0  0  0  0  3  0  0  0  0  0  0
  194.3510  176.9380  145.2180 C   0  0  0  0  0  3  0  0  0  0  0  0
  194.2320  174.8090  146.2920 N   0  0  0  0  0  0  0  0  0  0  0  0
  192.9750  174.6070  145.8150 C   0  0  0  0  0  3  0  0  0  0  0  0
  1 12  1  0  0  0  0
  2  6  1  0  0  0  0
  3 16  1  0  0  0  0
  6 18  2  0  0  0  0
  7 11  1  0  0  0  0
  7  9  1  0  0  0  0
  8 19  1  0  0  0  0
  8 17  1  0  0  0  0
  9 13  2  0  0  0  0
 10  8  1  0  0  0  0
 11 14  1  0  0  0  0
 12  2  2  0  0  0  0
 12 23  1  0  0  0  0
 13  4  1  0  0  0  0
 13  5  1  0  0  0  0
 14 18  1  0  0  0  0
 14  4  2  0  0  0  0
 15  1  2  0  0  0  0
 16  2  1  0  0  0  0
 16 11  2  0  0  0  0
 17 21  1  0  0  0  0
 19 20  1  0  0  0  0
 20 15  1  0  0  0  0
 21 15  1  0  0  0  0
 21  3  2  0  0  0  0
 22 26  1  0  0  0  0
 23 27  1  0  0  0  0
 24 23  2  0  0  0  0
 24 25  1  0  0  0  0
 25 22  2  0  0  0  0
 27 26  2  0  0  0  0
M  END
>  <MODEL>
3

>  <REMARK>
 VINA RESULT:      -7.8      2.755      7.033
  Name = 
  1 active torsions:
  status: ('A' for Active; 'I' for Inactive)
    1  A    between atoms: C_9  and  C_15
                            x       y       z     vdW  Elec       q    Type
                         _______ _______ _______ _____ _____    ______ ____

>  <TORSDO>
F 1

$$$$
=
 OpenBabel11052418273D

 27 31  0  0  0  0  0  0  0  0999 V2000
  190.1380  174.2200  143.4870 N   0  0  0  0  0  0  0  0  0  0  0  0
  189.0700  176.2940  144.2560 C   0  0  0  0  0  0  0  0  0  0  0  0
  188.0370  175.7340  142.0310 N   0  0  0  0  0  0  0  0  0  0  0  0
  185.7520  178.6380  145.0900 C   0  0  0  0  0  3  0  0  0  0  0  0
  183.4540  179.4160  144.6150 O   0  0  0  0  0  1  0  0  0  0  0  0
  188.9860  177.1570  145.3650 C   0  0  0  0  0  3  0  0  0  0  0  0
  185.6690  177.0950  142.6640 C   0  0  0  0  0  2  0  0  0  0  0  0
  188.4330  172.9270  139.9570 N   0  0  0  0  0  0  0  0  0  0  0  0
  184.5040  177.9280  143.1250 C   0  0  0  0  0  3  0  0  0  0  0  0
  188.4030  172.6800  138.5280 C   0  0  0  0  0  1  0  0  0  0  0  0
  186.8320  177.0770  143.6370 C   0  0  0  0  0  0  0  0  0  0  0  0
  190.1670  175.4950  144.1470 C   0  0  0  0  0  0  0  0  0  0  0  0
  184.5500  178.6500  144.2430 C   0  0  0  0  0  0  0  0  0  0  0  0
  186.8130  177.8850  144.7900 C   0  0  0  0  0  0  0  0  0  0  0  0
  189.5110  173.8320  142.4260 C   0  0  0  0  0  0  0  0  0  0  0  0
  187.9680  176.2890  143.3530 C   0  0  0  0  0  0  0  0  0  0  0  0
  188.5660  174.3720  140.1300 C   0  0  0  0  0  2  0  0  0  0  0  0
  187.8910  177.9150  145.6060 N   0  0  0  0  0  0  0  0  0  0  0  0
  189.6450  172.2910  140.4670 C   0  0  0  0  0  2  0  0  0  0  0  0
  189.6880  172.4070  141.9900 C   0  0  0  0  0  2  0  0  0  0  0  0
  188.7000  174.7200  141.5830 C   0  0  0  0  0  0  0  0  0  0  0  0
  193.6930  176.0860  146.4890 C   0  0  0  0  0  3  0  0  0  0  0  0
  191.3860  175.7410  144.9670 C   0  0  0  0  0  0  0  0  0  0  0  0
  192.3900  176.6230  144.5380 C   0  0  0  0  0  3  0  0  0  0  0  0
  193.5430  176.8030  145.3010 C   0  0  0  0  0  3  0  0  0  0  0  0
  192.7230  175.2190  146.8880 N   0  0  0  0  0  0  0  0  0  0  0  0
  191.5910  175.0310  146.1580 C   0  0  0  0  0  3  0  0  0  0  0  0
  1 12  1  0  0  0  0
  2  6  1  0  0  0  0
  3 16  1  0  0  0  0
  6 18  2  0  0  0  0
  7  9  1  0  0  0  0
  7 11  1  0  0  0  0
  8 17  1  0  0  0  0
  8 19  1  0  0  0  0
  9 13  2  0  0  0  0
 10  8  1  0  0  0  0
 11 14  1  0  0  0  0
 12  2  2  0  0  0  0
 12 23  1  0  0  0  0
 13  5  1  0  0  0  0
 13  4  1  0  0  0  0
 14  4  2  0  0  0  0
 14 18  1  0  0  0  0
 15  1  2  0  0  0  0
 16 11  2  0  0  0  0
 16  2  1  0  0  0  0
 17 21  1  0  0  0  0
 19 20  1  0  0  0  0
 20 15  1  0  0  0  0
 21  3  2  0  0  0  0
 21 15  1  0  0  0  0
 22 26  1  0  0  0  0
 23 27  1  0  0  0  0
 24 23  2  0  0  0  0
 24 25  1  0  0  0  0
 25 22  2  0  0  0  0
 27 26  2  0  0  0  0
M  END
>  <MODEL>
4

>  <REMARK>
 VINA RESULT:      -7.7      2.571      6.681
  Name = 
  1 active torsions:
  status: ('A' for Active; 'I' for Inactive)
    1  A    between atoms: C_9  and  C_15
                            x       y       z     vdW  Elec       q    Type
                         _______ _______ _______ _____ _____    ______ ____

>  <TORSDO>
F 1

$$$$
=
 OpenBabel11052418273D

 27 31  0  0  0  0  0  0  0  0999 V2000
  187.3840  177.0010  142.6260 N   0  0  0  0  0  0  0  0  0  0  0  0
  188.8170  176.7160  144.6000 C   0  0  0  0  0  0  0  0  0  0  0  0
  189.6020  175.0440  142.8930 N   0  0  0  0  0  0  0  0  0  0  0  0
  192.5130  176.4050  146.4560 C   0  0  0  0  0  3  0  0  0  0  0  0
  194.8700  175.6640  146.5130 O   0  0  0  0  0  1  0  0  0  0  0  0
  189.1070  177.2850  145.8550 C   0  0  0  0  0  3  0  0  0  0  0  0
  192.1930  175.0020  143.9650 C   0  0  0  0  0  2  0  0  0  0  0  0
  188.6320  174.5410  139.5550 N   0  0  0  0  0  0  0  0  0  0  0  0
  193.5030  175.0370  144.7030 C   0  0  0  0  0  3  0  0  0  0  0  0
  188.5310  173.4000  138.6640 C   0  0  0  0  0  1  0  0  0  0  0  0
  191.1060  175.8450  144.6050 C   0  0  0  0  0  0  0  0  0  0  0  0
  187.6010  176.9770  144.0450 C   0  0  0  0  0  0  0  0  0  0  0  0
  193.6450  175.6780  145.8620 C   0  0  0  0  0  0  0  0  0  0  0  0
  191.3280  176.4770  145.8440 C   0  0  0  0  0  0  0  0  0  0  0  0
  187.8710  176.2640  141.6840 C   0  0  0  0  0  0  0  0  0  0  0  0
  189.8430  175.9460  143.9830 C   0  0  0  0  0  0  0  0  0  0  0  0
  188.7420  174.0060  140.9110 C   0  0  0  0  0  2  0  0  0  0  0  0
  190.3230  177.1600  146.4380 N   0  0  0  0  0  0  0  0  0  0  0  0
  187.3680  175.2670  139.4520 C   0  0  0  0  0  2  0  0  0  0  0  0
  187.4410  176.5520  140.2750 C   0  0  0  0  0  2  0  0  0  0  0  0
  188.7590  175.1160  141.9180 C   0  0  0  0  0  0  0  0  0  0  0  0
  184.3580  178.6630  146.2590 C   0  0  0  0  0  3  0  0  0  0  0  0
  186.4910  177.5580  144.8520 C   0  0  0  0  0  0  0  0  0  0  0  0
  185.7990  176.7910  145.8010 C   0  0  0  0  0  3  0  0  0  0  0  0
  184.7350  177.3440  146.5130 C   0  0  0  0  0  3  0  0  0  0  0  0
  185.0230  179.3940  145.3240 N   0  0  0  0  0  0  0  0  0  0  0  0
  186.0640  178.8730  144.6210 C   0  0  0  0  0  3  0  0  0  0  0  0
  1 12  1  0  0  0  0
  2  6  1  0  0  0  0
  3 16  1  0  0  0  0
  6 18  2  0  0  0  0
  7 11  1  0  0  0  0
  7  9  1  0  0  0  0
  8 17  1  0  0  0  0
  9 13  2  0  0  0  0
 10  8  1  0  0  0  0
 11 14  1  0  0  0  0
 12  2  2  0  0  0  0
 12 23  1  0  0  0  0
 13  4  1  0  0  0  0
 13  5  1  0  0  0  0
 14 18  1  0  0  0  0
 14  4  2  0  0  0  0
 15 21  1  0  0  0  0
 15  1  2  0  0  0  0
 16  2  1  0  0  0  0
 16 11  2  0  0  0  0
 17 21  1  0  0  0  0
 19  8  1  0  0  0  0
 19 20  1  0  0  0  0
 20 15  1  0  0  0  0
 21  3  2  0  0  0  0
 22 25  1  0  0  0  0
 23 24  1  0  0  0  0
 24 25  2  0  0  0  0
 26 22  2  0  0  0  0
 27 23  2  0  0  0  0
 27 26  1  0  0  0  0
M  END
>  <MODEL>
5

>  <REMARK>
 VINA RESULT:      -7.6      2.426      5.490
  Name = 
  1 active torsions:
  status: ('A' for Active; 'I' for Inactive)
    1  A    between atoms: C_9  and  C_15
                            x       y       z     vdW  Elec       q    Type
                         _______ _______ _______ _____ _____    ______ ____

>  <TORSDO>
F 1

$$$$
=
 OpenBabel11052418273D

 27 31  0  0  1  0  0  0  0  0999 V2000
  190.6760  175.6220  142.4410 N   0  0  0  0  0  0  0  0  0  0  0  0
  188.3520  175.6610  143.2320 C   0  0  0  0  0  0  0  0  0  0  0  0
  189.8050  176.0630  145.2460 N   0  0  0  0  0  0  0  0  0  0  0  0
  185.1910  177.3790  145.2960 C   0  0  0  0  0  3  0  0  0  0  0  0
  184.2670  178.6660  147.1930 O   0  0  0  0  0  1  0  0  0  0  0  0
  187.0200  175.6400  142.7740 C   0  0  0  0  0  3  0  0  0  0  0  0
  187.7680  177.4600  146.5730 C   0  0  0  0  0  3  0  0  0  0  0  0
  193.2770  176.5200  145.5190 N   0  0  0  0  0  0  0  0  0  0  0  0
  186.5540  178.1120  147.1760 C   0  0  0  0  0  3  0  0  0  0  0  0
  194.2890  176.2140  146.5130 C   0  0  0  0  0  1  0  0  0  0  0  0
  187.5220  176.8500  145.2060 C   0  0  2  0  0  3  0  0  0  0  0  0
  189.3180  175.1570  142.4150 C   0  0  0  0  0  0  0  0  0  0  0  0
  185.3600  178.0630  146.5870 C   0  0  0  0  0  0  0  0  0  0  0  0
  186.2240  176.8200  144.6600 C   0  0  0  0  0  0  0  0  0  0  0  0
  191.4280  175.9830  143.4280 C   0  0  0  0  0  0  0  0  0  0  0  0
  188.5910  176.2560  144.5030 C   0  0  0  0  0  0  0  0  0  0  0  0
  192.0970  175.7300  145.8660 C   0  0  0  0  0  2  0  0  0  0  0  0
  186.0090  176.2050  143.4750 N   0  0  0  0  0  0  0  0  0  0  0  0
  193.7880  176.0380  144.2380 C   0  0  0  0  0  2  0  0  0  0  0  0
  192.8260  176.4300  143.1170 C   0  0  0  0  0  2  0  0  0  0  0  0
  191.0200  175.9080  144.8380 C   0  0  0  0  0  0  0  0  0  0  0  0
  188.4000  172.8170  138.9600 C   0  0  0  0  0  3  0  0  0  0  0  0
  188.9720  174.3190  141.2340 C   0  0  0  0  0  0  0  0  0  0  0  0
  189.2080  172.9370  141.2240 C   0  0  0  0  0  3  0  0  0  0  0  0
  188.9170  172.1800  140.0890 C   0  0  0  0  0  3  0  0  0  0  0  0
  188.1910  174.1610  138.9710 N   0  0  0  0  0  0  0  0  0  0  0  0
  188.4680  174.9160  140.0680 C   0  0  0  0  0  3  0  0  0  0  0  0
  1 15  1  0  0  0  0
  2 16  1  0  0  0  0
  4 13  2  0  0  0  0
  6  2  2  0  0  0  0
  6 18  1  0  0  0  0
  7  9  2  0  0  0  0
  8 17  1  0  0  0  0
  8 10  1  0  0  0  0
 11  7  1  1  0  0  0
 12  1  2  0  0  0  0
 12  2  1  0  0  0  0
 13  9  1  0  0  0  0
 13  5  1  0  0  0  0
 14 11  1  0  0  0  0
 14  4  1  0  0  0  0
 15 21  2  0  0  0  0
 16 11  1  0  0  0  0
 16  3  2  0  0  0  0
 18 14  2  0  0  0  0
 19  8  1  0  0  0  0
 20 15  1  0  0  0  0
 20 19  1  0  0  0  0
 21  3  1  0  0  0  0
 21 17  1  0  0  0  0
 22 26  2  0  0  0  0
 22 25  1  0  0  0  0
 23 12  1  0  0  0  0
 24 23  1  0  0  0  0
 25 24  2  0  0  0  0
 26 27  1  0  0  0  0
 27 23  2  0  0  0  0
M  END
>  <MODEL>
6

>  <REMARK>
 VINA RESULT:      -7.6      2.738      5.882
  Name = 
  1 active torsions:
  status: ('A' for Active; 'I' for Inactive)
    1  A    between atoms: C_9  and  C_15
                            x       y       z     vdW  Elec       q    Type
                         _______ _______ _______ _____ _____    ______ ____

>  <TORSDO>
F 1

$$$$
=
 OpenBabel11052418273D

 27 31  0  0  0  0  0  0  0  0999 V2000
  188.0010  175.6590  141.1890 N   0  0  0  0  0  0  0  0  0  0  0  0
  187.9830  176.5200  143.4890 C   0  0  0  0  0  0  0  0  0  0  0  0
  189.2000  174.3200  143.5530 N   0  0  0  0  0  0  0  0  0  0  0  0
  189.8360  177.5340  147.0570 C   0  0  0  0  0  3  0  0  0  0  0  0
  191.5290  177.1620  148.8190 O   0  0  0  0  0  1  0  0  0  0  0  0
  187.6380  177.6540  144.2490 C   0  0  0  0  0  3  0  0  0  0  0  0
  190.6660  175.0720  145.8220 C   0  0  0  0  0  2  0  0  0  0  0  0
  190.1790  172.1590  140.9620 N   0  0  0  0  0  0  0  0  0  0  0  0
  191.3100  175.5970  147.0760 C   0  0  0  0  0  3  0  0  0  0  0  0
  190.3470  170.7260  140.8130 C   0  0  0  0  0  1  0  0  0  0  0  0
  189.6220  176.0030  145.2340 C   0  0  0  0  0  0  0  0  0  0  0  0
  187.3760  176.3510  142.2810 C   0  0  0  0  0  0  0  0  0  0  0  0
  190.9150  176.7310  147.6520 C   0  0  0  0  0  0  0  0  0  0  0  0
  189.2450  177.1760  145.9140 C   0  0  0  0  0  0  0  0  0  0  0  0
  188.7570  174.6110  141.1730 C   0  0  0  0  0  0  0  0  0  0  0  0
  188.9810  175.6580  144.0250 C   0  0  0  0  0  0  0  0  0  0  0  0
  189.3930  172.3660  142.1770 C   0  0  0  0  0  2  0  0  0  0  0  0
  188.2580  177.9540  145.4150 N   0  0  0  0  0  0  0  0  0  0  0  0
  189.3840  172.6090  139.8220 C   0  0  0  0  0  2  0  0  0  0  0  0
  189.2630  174.1320  139.8440 C   0  0  0  0  0  2  0  0  0  0  0  0
  189.0860  173.8210  142.3670 C   0  0  0  0  0  0  0  0  0  0  0  0
  183.8710  178.5080  141.1330 C   0  0  0  0  0  3  0  0  0  0  0  0
  186.1640  177.1320  141.9080 C   0  0  0  0  0  0  0  0  0  0  0  0
  185.1610  177.4160  142.8460 C   0  0  0  0  0  3  0  0  0  0  0  0
  184.0140  178.1110  142.4630 C   0  0  0  0  0  3  0  0  0  0  0  0
  184.8400  178.2130  140.2260 N   0  0  0  0  0  0  0  0  0  0  0  0
  185.9660  177.5370  140.5810 C   0  0  0  0  0  3  0  0  0  0  0  0
  1 12  1  0  0  0  0
  2 16  1  0  0  0  0
  2  6  1  0  0  0  0
  3 16  1  0  0  0  0
  4 13  1  0  0  0  0
  6 18  2  0  0  0  0
  7  9  1  0  0  0  0
  8 17  1  0  0  0  0
  9 13  2  0  0  0  0
 10  8  1  0  0  0  0
 11  7  1  0  0  0  0
 11 14  1  0  0  0  0
 12  2  2  0  0  0  0
 13  5  1  0  0  0  0
 14  4  2  0  0  0  0
 15  1  2  0  0  0  0
 15 21  1  0  0  0  0
 16 11  2  0  0  0  0
 17 21  1  0  0  0  0
 18 14  1  0  0  0  0
 19 20  1  0  0  0  0
 19  8  1  0  0  0  0
 20 15  1  0  0  0  0
 21  3  2  0  0  0  0
 22 25  1  0  0  0  0
 23 12  1  0  0  0  0
 23 24  1  0  0  0  0
 25 24  2  0  0  0  0
 26 27  1  0  0  0  0
 26 22  2  0  0  0  0
 27 23  2  0  0  0  0
M  END
>  <MODEL>
7

>  <REMARK>
 VINA RESULT:      -7.3      3.054      5.904
  Name = 
  1 active torsions:
  status: ('A' for Active; 'I' for Inactive)
    1  A    between atoms: C_9  and  C_15
                            x       y       z     vdW  Elec       q    Type
                         _______ _______ _______ _____ _____    ______ ____

>  <TORSDO>
F 1

$$$$
=
 OpenBabel11052418273D

 27 31  0  0  0  0  0  0  0  0999 V2000
  189.9210  176.0550  145.6840 N   0  0  0  0  0  0  0  0  0  0  0  0
  188.8340  175.5660  143.5370 C   0  0  0  0  0  0  0  0  0  0  0  0
  191.3110  175.5970  143.0990 N   0  0  0  0  0  0  0  0  0  0  0  0
  188.3520  173.3320  140.0760 C   0  0  0  0  0  2  0  0  0  0  0  0
  189.2470  171.9870  138.2060 O   0  0  0  0  0  1  0  0  0  0  0  0
  187.5790  175.2770  142.9660 C   0  0  0  0  0  3  0  0  0  0  0  0
  191.0540  173.8740  140.9020 C   0  0  0  0  0  3  0  0  0  0  0  0
  194.0290  175.9060  145.3020 N   0  0  0  0  0  0  0  0  0  0  0  0
  190.7380  173.0130  139.7100 C   0  0  0  0  0  3  0  0  0  0  0  0
  195.3620  176.4750  145.2330 C   0  0  0  0  0  1  0  0  0  0  0  0
  189.8290  174.3390  141.6650 C   0  0  0  0  0  0  0  0  0  0  0  0
  188.8580  176.2170  144.7330 C   0  0  0  0  0  0  0  0  0  0  0  0
  189.4850  172.7730  139.3230 C   0  0  0  0  0  0  0  0  0  0  0  0
  188.5360  174.0620  141.1800 C   0  0  0  0  0  0  0  0  0  0  0  0
  191.1950  175.9190  145.5140 C   0  0  0  0  0  0  0  0  0  0  0  0
  189.9860  175.1080  142.8380 C   0  0  0  0  0  0  0  0  0  0  0  0
  193.2830  176.4440  144.1660 C   0  0  0  0  0  2  0  0  0  0  0  0
  187.4560  174.5500  141.8300 N   0  0  0  0  0  0  0  0  0  0  0  0
  193.4200  176.4130  146.5300 C   0  0  0  0  0  2  0  0  0  0  0  0
  192.0530  175.7630  146.7350 C   0  0  0  0  0  2  0  0  0  0  0  0
  191.8570  175.9830  144.2040 C   0  0  0  0  0  0  0  0  0  0  0  0
  185.4370  178.1880  146.3690 C   0  0  0  0  0  3  0  0  0  0  0  0
  187.6440  176.8940  145.2690 C   0  0  0  0  0  0  0  0  0  0  0  0
  187.0710  177.9930  144.6120 C   0  0  0  0  0  3  0  0  0  0  0  0
  185.9610  178.6390  145.1570 C   0  0  0  0  0  3  0  0  0  0  0  0
  186.0110  177.1330  147.0080 N   0  0  0  0  0  0  0  0  0  0  0  0
  187.0930  176.4900  146.4930 C   0  0  0  0  0  3  0  0  0  0  0  0
  2 12  1  0  0  0  0
  3 21  1  0  0  0  0
  4 14  1  0  0  0  0
  5 13  1  0  0  0  0
  6  2  2  0  0  0  0
  7 11  2  0  0  0  0
  8 19  1  0  0  0  0
  9  7  1  0  0  0  0
 10  8  1  0  0  0  0
 11 16  1  0  0  0  0
 12 23  1  0  0  0  0
 12  1  2  0  0  0  0
 13  9  2  0  0  0  0
 13  4  1  0  0  0  0
 14 11  1  0  0  0  0
 14 18  2  0  0  0  0
 15  1  1  0  0  0  0
 15 20  1  0  0  0  0
 16  3  2  0  0  0  0
 16  2  1  0  0  0  0
 17 21  1  0  0  0  0
 17  8  1  0  0  0  0
 18  6  1  0  0  0  0
 19 20  1  0  0  0  0
 21 15  2  0  0  0  0
 22 26  1  0  0  0  0
 23 27  1  0  0  0  0
 24 25  1  0  0  0  0
 24 23  2  0  0  0  0
 25 22  2  0  0  0  0
 27 26  2  0  0  0  0
M  END
>  <MODEL>
8

>  <REMARK>
 VINA RESULT:      -7.1      1.055      1.158
  Name = 
  1 active torsions:
  status: ('A' for Active; 'I' for Inactive)
    1  A    between atoms: C_9  and  C_15
                            x       y       z     vdW  Elec       q    Type
                         _______ _______ _______ _____ _____    ______ ____

>  <TORSDO>
F 1

$$$$
=
 OpenBabel11052418273D

 27 31  0  0  0  0  0  0  0  0999 V2000
  188.0380  175.8270  141.2890 N   0  0  0  0  0  0  0  0  0  0  0  0
  189.3630  176.3210  143.2960 C   0  0  0  0  0  0  0  0  0  0  0  0
  190.2390  174.1520  142.3720 N   0  0  0  0  0  0  0  0  0  0  0  0
  192.9560  176.7930  145.3150 C   0  0  0  0  0  3  0  0  0  0  0  0
  195.3060  176.1730  145.7590 O   0  0  0  0  0  1  0  0  0  0  0  0
  189.5870  177.3200  144.2640 C   0  0  0  0  0  3  0  0  0  0  0  0
  192.7690  174.5620  143.5090 C   0  0  0  0  0  2  0  0  0  0  0  0
  189.4480  172.4290  139.4140 N   0  0  0  0  0  0  0  0  0  0  0  0
  194.0380  174.8930  144.2460 C   0  0  0  0  0  3  0  0  0  0  0  0
  189.3940  171.0390  139.0060 C   0  0  0  0  0  1  0  0  0  0  0  0
  191.6490  175.5590  143.7370 C   0  0  0  0  0  0  0  0  0  0  0  0
  188.1790  176.3340  142.6250 C   0  0  0  0  0  0  0  0  0  0  0  0
  194.1170  175.9200  145.0900 C   0  0  0  0  0  0  0  0  0  0  0  0
  191.8050  176.6100  144.6620 C   0  0  0  0  0  0  0  0  0  0  0  0
  188.5750  174.8030  140.7120 C   0  0  0  0  0  0  0  0  0  0  0  0
  190.4210  175.3980  143.0600 C   0  0  0  0  0  0  0  0  0  0  0  0
  189.4850  172.4370  140.8760 C   0  0  0  0  0  2  0  0  0  0  0  0
  190.7700  177.4440  144.9110 N   0  0  0  0  0  0  0  0  0  0  0  0
  188.1910  173.0410  138.9870 C   0  0  0  0  0  2  0  0  0  0  0  0
  188.2210  174.5410  139.2780 C   0  0  0  0  0  2  0  0  0  0  0  0
  189.4480  173.8420  141.3990 C   0  0  0  0  0  0  0  0  0  0  0  0
  184.8220  178.6550  143.8930 C   0  0  0  0  0  3  0  0  0  0  0  0
  187.0280  177.1500  143.1030 C   0  0  0  0  0  0  0  0  0  0  0  0
  186.2920  176.7800  144.2380 C   0  0  0  0  0  3  0  0  0  0  0  0
  185.1900  177.5360  144.6400 C   0  0  0  0  0  3  0  0  0  0  0  0
  185.5310  178.9960  142.7840 N   0  0  0  0  0  0  0  0  0  0  0  0
  186.6080  178.2730  142.3760 C   0  0  0  0  0  3  0  0  0  0  0  0
  1 12  1  0  0  0  0
  2  6  1  0  0  0  0
  3 16  1  0  0  0  0
  6 18  2  0  0  0  0
  7 11  1  0  0  0  0
  7  9  1  0  0  0  0
  8 17  1  0  0  0  0
  9 13  2  0  0  0  0
 10  8  1  0  0  0  0
 11 14  1  0  0  0  0
 12 23  1  0  0  0  0
 12  2  2  0  0  0  0
 13  4  1  0  0  0  0
 13  5  1  0  0  0  0
 14 18  1  0  0  0  0
 14  4  2  0  0  0  0
 15  1  2  0  0  0  0
 15 21  1  0  0  0  0
 16  2  1  0  0  0  0
 16 11  2  0  0  0  0
 17 21  1  0  0  0  0
 19 20  1  0  0  0  0
 19  8  1  0  0  0  0
 20 15  1  0  0  0  0
 21  3  2  0  0  0  0
 22 25  1  0  0  0  0
 23 24  1  0  0  0  0
 24 25  2  0  0  0  0
 26 22  2  0  0  0  0
 27 26  1  0  0  0  0
 27 23  2  0  0  0  0
M  END
>  <MODEL>
9

>  <REMARK>
 VINA RESULT:      -7.0      2.699      5.701
  Name = 
  1 active torsions:
  status: ('A' for Active; 'I' for Inactive)
    1  A    between atoms: C_9  and  C_15
                            x       y       z     vdW  Elec       q    Type
                         _______ _______ _______ _____ _____    ______ ____

>  <TORSDO>
F 1

$$$$
