=
 OpenBabel11052418023D

 28 29  0  0  1  0  0  0  0  0999 V2000
  185.5040  179.6680  145.1820 C   0  0  0  0  0  1  0  0  0  0  0  0
  184.5540  178.6060  144.8860 N   0  0  0  0  0  0  0  0  0  0  0  0
  185.0410  177.8260  143.7430 C   0  0  0  0  0  2  0  0  0  0  0  0
  186.0650  178.5860  142.8870 C   0  0  0  0  0  2  0  0  0  0  0  0
  185.8600  178.3410  141.3980 C   0  0  2  0  0  3  0  0  0  0  0  0
  184.5660  177.8790  141.1480 O   0  0  0  0  0  1  0  0  0  0  0  0
  186.8850  177.3550  140.8640 C   0  0  0  0  0  2  0  0  0  0  0  0
  187.8270  177.0690  141.8520 O   0  0  0  0  0  0  0  0  0  0  0  0
  188.3360  175.8210  141.4980 C   0  0  0  0  0  2  0  0  0  0  0  0
  188.2360  174.8680  142.6790 C   0  0  0  0  0  2  0  0  0  0  0  0
  189.5350  174.1120  142.9620 C   0  0  2  0  0  3  0  0  0  0  0  0
  190.6320  174.4220  141.9530 C   0  0  0  0  0  1  0  0  0  0  0  0
  189.7270  172.2070  144.6410 C   0  0  0  0  0  1  0  0  0  0  0  0
  189.3540  172.6150  143.2240 C   0  0  0  0  0  2  0  0  0  0  0  0
  184.4930  177.7650  146.0100 N   0  0  0  0  0  2  0  0  0  0  0  0
  185.7050  177.9820  146.7920 C   0  0  0  0  0  2  0  0  0  0  0  0
  186.4300  176.7290  146.9650 N   0  0  0  0  0  2  0  0  0  0  0  0
  190.3060  177.9790  144.2540 C   0  0  0  0  0  3  0  0  0  0  0  0
  190.4310  176.0590  145.7430 C   0  0  0  0  0  0  0  0  0  0  0  0
  188.3860  177.3680  145.6000 C   0  0  0  0  0  3  0  0  0  0  0  0
  192.3490  176.6800  144.4030 C   0  0  0  0  0  0  0  0  0  0  0  0
  189.7040  177.1410  145.1960 C   0  0  0  0  0  0  0  0  0  0  0  0
  188.5030  175.4460  147.0720 C   0  0  0  0  0  3  0  0  0  0  0  0
  191.7520  175.8360  145.3450 C   0  0  0  0  0  3  0  0  0  0  0  0
  189.8250  175.2160  146.6770 C   0  0  0  0  0  3  0  0  0  0  0  0
  193.6600  176.4570  144.0070 O   0  0  0  0  0  1  0  0  0  0  0  0
  191.6280  177.7470  143.8580 C   0  0  0  0  0  3  0  0  0  0  0  0
  187.7790  176.5200  146.5400 C   0  0  0  0  0  0  0  0  0  0  0  0
  2  1  1  0  0  0  0
  2 15  1  0  0  0  0
  3  2  1  0  0  0  0
  4  3  1  0  0  0  0
  5  6  1  1  0  0  0
  5  4  1  0  0  0  0
  7  5  1  0  0  0  0
  7  8  1  0  0  0  0
  9  8  1  0  0  0  0
  9 10  1  0  0  0  0
 10 11  1  0  0  0  0
 11 12  1  6  0  0  0
 11 14  1  0  0  0  0
 14 13  1  0  0  0  0
 15 16  1  0  0  0  0
 16 17  1  0  0  0  0
 18 22  1  0  0  0  0
 19 25  1  0  0  0  0
 20 28  2  0  0  0  0
 21 24  2  0  0  0  0
 22 20  1  0  0  0  0
 22 19  2  0  0  0  0
 24 19  1  0  0  0  0
 25 23  2  0  0  0  0
 26 21  1  0  0  0  0
 27 18  2  0  0  0  0
 27 21  1  0  0  0  0
 28 17  1  0  0  0  0
 28 23  1  0  0  0  0
M  END
>  <MODEL>
1

>  <REMARK>
 VINA RESULT:      -5.9      0.000      0.000
  Name = 
  13 active torsions:
  status: ('A' for Active; 'I' for Inactive)
    1  A    between atoms: C_1  and  C_2
    2  A    between atoms: C_1  and  C_26
    3  A    between atoms: C_2  and  O_3
    4  A    between atoms: O_3  and  C_7
    5  A    between atoms: C_5  and  N_20
    6  A    between atoms: C_5  and  N_27
    7  A    between atoms: C_6  and  C_11
    8  A    between atoms: C_6  and  C_28
    9  A    between atoms: C_7  and  C_28
   10  A    between atoms: C_19  and  N_21
   11  A    between atoms: C_19  and  C_26
   12  A    between atoms: N_20  and  C_25
   13  A    between atoms: N_21  and  N_27
                            x       y       z     vdW  Elec       q    Type
                         _______ _______ _______ _____ _____    ______ ____

>  <TORSDO>
F 13

$$$$
=
 OpenBabel11052418023D

 28 29  0  0  1  0  0  0  0  0999 V2000
  185.5400  178.0150  140.9540 C   0  0  0  0  0  1  0  0  0  0  0  0
  186.4130  177.8030  142.1000 N   0  0  0  0  0  0  0  0  0  0  0  0
  186.0000  178.6890  143.1930 C   0  0  0  0  0  2  0  0  0  0  0  0
  184.6120  178.3480  143.7550 C   0  0  0  0  0  2  0  0  0  0  0  0
  184.6210  178.2380  145.2750 C   0  0  2  0  0  3  0  0  0  0  0  0
  183.5880  178.9950  145.8290 O   0  0  0  0  0  1  0  0  0  0  0  0
  185.9610  178.6770  145.8420 C   0  0  0  0  0  2  0  0  0  0  0  0
  186.0580  178.2940  147.1790 O   0  0  0  0  0  0  0  0  0  0  0  0
  187.3770  177.8660  147.3240 C   0  0  0  0  0  2  0  0  0  0  0  0
  187.5590  176.5160  146.6480 C   0  0  0  0  0  2  0  0  0  0  0  0
  189.0110  176.0300  146.6430 C   0  0  2  0  0  3  0  0  0  0  0  0
  189.1750  174.6540  147.2720 C   0  0  0  0  0  1  0  0  0  0  0  0
  191.1360  176.4390  147.9850 C   0  0  0  0  0  1  0  0  0  0  0  0
  190.0250  177.0570  147.1490 C   0  0  0  0  0  2  0  0  0  0  0  0
  186.2510  176.4700  142.5160 N   0  0  0  0  0  2  0  0  0  0  0  0
  187.4680  175.7470  142.1670 C   0  0  0  0  0  2  0  0  0  0  0  0
  188.5790  176.6750  141.9880 N   0  0  0  0  0  2  0  0  0  0  0  0
  191.9310  174.2640  144.6120 C   0  0  0  0  0  3  0  0  0  0  0  0
  192.1240  176.6700  144.3080 C   0  0  0  0  0  0  0  0  0  0  0  0
  190.2720  175.4530  143.3060 C   0  0  0  0  0  3  0  0  0  0  0  0
  193.7840  175.4750  145.6040 C   0  0  0  0  0  0  0  0  0  0  0  0
  191.4400  175.4560  144.0740 C   0  0  0  0  0  0  0  0  0  0  0  0
  190.4530  177.8510  143.0150 C   0  0  0  0  0  3  0  0  0  0  0  0
  193.2960  176.6730  145.0700 C   0  0  0  0  0  3  0  0  0  0  0  0
  191.6260  177.8620  143.7780 C   0  0  0  0  0  3  0  0  0  0  0  0
  194.9460  175.4790  146.3610 O   0  0  0  0  0  1  0  0  0  0  0  0
  193.1030  174.2750  145.3770 C   0  0  0  0  0  3  0  0  0  0  0  0
  189.7740  176.6510  142.7730 C   0  0  0  0  0  0  0  0  0  0  0  0
  1  2  1  0  0  0  0
  2 15  1  0  0  0  0
  2  3  1  0  0  0  0
  3  4  1  0  0  0  0
  4  5  1  0  0  0  0
  5  6  1  1  0  0  0
  5  7  1  0  0  0  0
  7  8  1  0  0  0  0
  8  9  1  0  0  0  0
 10  9  1  0  0  0  0
 11 10  1  0  0  0  0
 11 14  1  0  0  0  0
 11 12  1  1  0  0  0
 14 13  1  0  0  0  0
 16 15  1  0  0  0  0
 17 16  1  0  0  0  0
 17 28  1  0  0  0  0
 18 27  1  0  0  0  0
 19 24  2  0  0  0  0
 20 22  1  0  0  0  0
 21 26  1  0  0  0  0
 22 19  1  0  0  0  0
 22 18  2  0  0  0  0
 23 25  2  0  0  0  0
 24 21  1  0  0  0  0
 25 19  1  0  0  0  0
 27 21  2  0  0  0  0
 28 23  1  0  0  0  0
 28 20  2  0  0  0  0
M  END
>  <MODEL>
2

>  <REMARK>
 VINA RESULT:      -5.7      2.399      4.326
  Name = 
  13 active torsions:
  status: ('A' for Active; 'I' for Inactive)
    1  A    between atoms: C_1  and  C_2
    2  A    between atoms: C_1  and  C_26
    3  A    between atoms: C_2  and  O_3
    4  A    between atoms: O_3  and  C_7
    5  A    between atoms: C_5  and  N_20
    6  A    between atoms: C_5  and  N_27
    7  A    between atoms: C_6  and  C_11
    8  A    between atoms: C_6  and  C_28
    9  A    between atoms: C_7  and  C_28
   10  A    between atoms: C_19  and  N_21
   11  A    between atoms: C_19  and  C_26
   12  A    between atoms: N_20  and  C_25
   13  A    between atoms: N_21  and  N_27
                            x       y       z     vdW  Elec       q    Type
                         _______ _______ _______ _____ _____    ______ ____

>  <TORSDO>
F 13

$$$$
=
 OpenBabel11052418023D

 28 29  0  0  1  0  0  0  0  0999 V2000
  184.0670  178.5970  146.1170 C   0  0  0  0  0  1  0  0  0  0  0  0
  184.8890  177.4240  145.8540 N   0  0  0  0  0  0  0  0  0  0  0  0
  185.6430  177.6300  144.6130 C   0  0  0  0  0  2  0  0  0  0  0  0
  184.7540  178.0330  143.4270 C   0  0  0  0  0  2  0  0  0  0  0  0
  185.5690  178.5810  142.2620 C   0  0  2  0  0  3  0  0  0  0  0  0
  184.9550  178.2760  141.0460 O   0  0  0  0  0  1  0  0  0  0  0  0
  186.9870  178.0370  142.2890 C   0  0  0  0  0  2  0  0  0  0  0  0
  187.1120  176.9910  141.3760 O   0  0  0  0  0  0  0  0  0  0  0  0
  188.2450  176.2960  141.7940 C   0  0  0  0  0  2  0  0  0  0  0  0
  187.8330  175.0630  142.5820 C   0  0  0  0  0  2  0  0  0  0  0  0
  188.9490  174.0240  142.7130 C   0  0  2  0  0  3  0  0  0  0  0  0
  188.5240  172.6380  142.2480 C   0  0  0  0  0  1  0  0  0  0  0  0
  191.0360  173.3810  144.0230 C   0  0  0  0  0  1  0  0  0  0  0  0
  189.6570  174.0210  144.0700 C   0  0  0  0  0  2  0  0  0  0  0  0
  185.7990  177.2960  146.9170 N   0  0  0  0  0  2  0  0  0  0  0  0
  186.9800  176.6090  146.4090 C   0  0  0  0  0  2  0  0  0  0  0  0
  188.1920  177.3080  146.8210 N   0  0  0  0  0  2  0  0  0  0  0  0
  192.7640  175.5690  146.7790 C   0  0  0  0  0  3  0  0  0  0  0  0
  191.9370  176.8620  144.8910 C   0  0  0  0  0  0  0  0  0  0  0  0
  190.4980  176.4220  146.8010 C   0  0  0  0  0  3  0  0  0  0  0  0
  194.1990  175.9980  144.8710 C   0  0  0  0  0  0  0  0  0  0  0  0
  191.7320  176.2800  146.1630 C   0  0  0  0  0  0  0  0  0  0  0  0
  189.6760  177.7240  144.9300 C   0  0  0  0  0  3  0  0  0  0  0  0
  193.1700  176.7150  144.2500 C   0  0  0  0  0  3  0  0  0  0  0  0
  190.9080  177.5820  144.2820 C   0  0  0  0  0  3  0  0  0  0  0  0
  195.4230  175.8530  144.2340 O   0  0  0  0  0  1  0  0  0  0  0  0
  193.9970  175.4290  146.1320 C   0  0  0  0  0  3  0  0  0  0  0  0
  189.4640  177.1450  146.1860 C   0  0  0  0  0  0  0  0  0  0  0  0
  2  1  1  0  0  0  0
  2 15  1  0  0  0  0
  3  2  1  0  0  0  0
  4  3  1  0  0  0  0
  5  6  1  6  0  0  0
  5  7  1  0  0  0  0
  5  4  1  0  0  0  0
  8  9  1  0  0  0  0
  8  7  1  0  0  0  0
  9 10  1  0  0  0  0
 10 11  1  0  0  0  0
 11 12  1  1  0  0  0
 11 14  1  0  0  0  0
 13 14  1  0  0  0  0
 16 17  1  0  0  0  0
 16 15  1  0  0  0  0
 19 22  1  0  0  0  0
 21 27  1  0  0  0  0
 22 18  1  0  0  0  0
 22 20  2  0  0  0  0
 23 28  2  0  0  0  0
 24 21  2  0  0  0  0
 24 19  1  0  0  0  0
 25 19  2  0  0  0  0
 25 23  1  0  0  0  0
 26 21  1  0  0  0  0
 27 18  2  0  0  0  0
 28 20  1  0  0  0  0
 28 17  1  0  0  0  0
M  END
>  <MODEL>
3

>  <REMARK>
 VINA RESULT:      -5.4      1.231      2.142
  Name = 
  13 active torsions:
  status: ('A' for Active; 'I' for Inactive)
    1  A    between atoms: C_1  and  C_2
    2  A    between atoms: C_1  and  C_26
    3  A    between atoms: C_2  and  O_3
    4  A    between atoms: O_3  and  C_7
    5  A    between atoms: C_5  and  N_20
    6  A    between atoms: C_5  and  N_27
    7  A    between atoms: C_6  and  C_11
    8  A    between atoms: C_6  and  C_28
    9  A    between atoms: C_7  and  C_28
   10  A    between atoms: C_19  and  N_21
   11  A    between atoms: C_19  and  C_26
   12  A    between atoms: N_20  and  C_25
   13  A    between atoms: N_21  and  N_27
                            x       y       z     vdW  Elec       q    Type
                         _______ _______ _______ _____ _____    ______ ____

>  <TORSDO>
F 13

$$$$
=
 OpenBabel11052418023D

 28 29  0  0  1  0  0  0  0  0999 V2000
  183.4980  178.2830  142.5320 C   0  0  0  0  0  1  0  0  0  0  0  0
  184.8620  178.7010  142.2380 N   0  0  0  0  0  0  0  0  0  0  0  0
  185.5890  178.8980  143.4970 C   0  0  0  0  0  2  0  0  0  0  0  0
  184.6870  179.3670  144.6480 C   0  0  0  0  0  2  0  0  0  0  0  0
  184.8590  178.5110  145.8960 C   0  0  2  0  0  3  0  0  0  0  0  0
  183.6420  178.3640  146.5640 O   0  0  0  0  0  1  0  0  0  0  0  0
  185.9040  179.1090  146.8240 C   0  0  0  0  0  2  0  0  0  0  0  0
  186.7050  178.0970  147.3510 O   0  0  0  0  0  0  0  0  0  0  0  0
  187.5930  177.7850  146.3230 C   0  0  0  0  0  2  0  0  0  0  0  0
  187.7310  176.2750  146.2010 C   0  0  0  0  0  2  0  0  0  0  0  0
  189.1140  175.7560  146.6030 C   0  0  2  0  0  3  0  0  0  0  0  0
  189.0470  174.5170  147.4850 C   0  0  0  0  0  1  0  0  0  0  0  0
  191.2480  176.2580  147.8980 C   0  0  0  0  0  1  0  0  0  0  0  0
  190.0650  176.8310  147.1330 C   0  0  0  0  0  2  0  0  0  0  0  0
  185.4780  177.6630  141.5200 N   0  0  0  0  0  2  0  0  0  0  0  0
  186.3110  176.9120  142.4520 C   0  0  0  0  0  2  0  0  0  0  0  0
  187.4960  176.3970  141.7760 N   0  0  0  0  0  2  0  0  0  0  0  0
  191.8180  177.3170  143.8740 C   0  0  0  0  0  3  0  0  0  0  0  0
  190.9720  175.0380  143.7810 C   0  0  0  0  0  0  0  0  0  0  0  0
  189.6740  176.8670  142.8400 C   0  0  0  0  0  3  0  0  0  0  0  0
  193.1100  175.4950  144.8210 C   0  0  0  0  0  0  0  0  0  0  0  0
  190.8210  176.4150  143.4980 C   0  0  0  0  0  0  0  0  0  0  0  0
  188.8360  174.5960  142.7310 C   0  0  0  0  0  3  0  0  0  0  0  0
  192.1160  174.5860  144.4440 C   0  0  0  0  0  3  0  0  0  0  0  0
  189.9790  174.1360  143.3940 C   0  0  0  0  0  3  0  0  0  0  0  0
  194.2460  175.0450  145.4790 O   0  0  0  0  0  1  0  0  0  0  0  0
  192.9620  176.8560  144.5350 C   0  0  0  0  0  3  0  0  0  0  0  0
  188.6760  175.9590  142.4540 C   0  0  0  0  0  0  0  0  0  0  0  0
  2  1  1  0  0  0  0
  2  3  1  0  0  0  0
  3  4  1  0  0  0  0
  4  5  1  0  0  0  0
  5  6  1  1  0  0  0
  5  7  1  0  0  0  0
  7  8  1  0  0  0  0
  9  8  1  0  0  0  0
 10  9  1  0  0  0  0
 10 11  1  0  0  0  0
 11 14  1  0  0  0  0
 11 12  1  1  0  0  0
 14 13  1  0  0  0  0
 15  2  1  0  0  0  0
 15 16  1  0  0  0  0
 17 16  1  0  0  0  0
 17 28  1  0  0  0  0
 18 27  1  0  0  0  0
 19 24  2  0  0  0  0
 20 22  1  0  0  0  0
 21 26  1  0  0  0  0
 22 19  1  0  0  0  0
 22 18  2  0  0  0  0
 23 25  2  0  0  0  0
 24 21  1  0  0  0  0
 25 19  1  0  0  0  0
 27 21  2  0  0  0  0
 28 23  1  0  0  0  0
 28 20  2  0  0  0  0
M  END
>  <MODEL>
4

>  <REMARK>
 VINA RESULT:      -5.4      2.366      4.049
  Name = 
  13 active torsions:
  status: ('A' for Active; 'I' for Inactive)
    1  A    between atoms: C_1  and  C_2
    2  A    between atoms: C_1  and  C_26
    3  A    between atoms: C_2  and  O_3
    4  A    between atoms: O_3  and  C_7
    5  A    between atoms: C_5  and  N_20
    6  A    between atoms: C_5  and  N_27
    7  A    between atoms: C_6  and  C_11
    8  A    between atoms: C_6  and  C_28
    9  A    between atoms: C_7  and  C_28
   10  A    between atoms: C_19  and  N_21
   11  A    between atoms: C_19  and  C_26
   12  A    between atoms: N_20  and  C_25
   13  A    between atoms: N_21  and  N_27
                            x       y       z     vdW  Elec       q    Type
                         _______ _______ _______ _____ _____    ______ ____

>  <TORSDO>
F 13

$$$$
=
 OpenBabel11052418023D

 28 29  0  0  1  0  0  0  0  0999 V2000
  185.5340  180.0970  144.0370 C   0  0  0  0  0  1  0  0  0  0  0  0
  184.8760  178.8000  144.1010 N   0  0  0  0  0  0  0  0  0  0  0  0
  183.8130  178.8470  145.1110 C   0  0  0  0  0  2  0  0  0  0  0  0
  184.3220  178.5810  146.5350 C   0  0  0  0  0  2  0  0  0  0  0  0
  185.3780  177.4830  146.5700 C   0  0  2  0  0  3  0  0  0  0  0  0
  184.7810  176.2240  146.4930 O   0  0  0  0  0  1  0  0  0  0  0  0
  186.2280  177.5890  147.8250 C   0  0  0  0  0  2  0  0  0  0  0  0
  187.4880  178.0920  147.5030 O   0  0  0  0  0  0  0  0  0  0  0  0
  187.8620  177.3900  146.3580 C   0  0  0  0  0  2  0  0  0  0  0  0
  189.3730  177.2200  146.3270 C   0  0  0  0  0  2  0  0  0  0  0  0
  189.8210  175.7570  146.3510 C   0  0  2  0  0  3  0  0  0  0  0  0
  188.8850  174.8650  147.1530 C   0  0  0  0  0  1  0  0  0  0  0  0
  191.5570  175.4310  148.1860 C   0  0  0  0  0  1  0  0  0  0  0  0
  191.2990  175.5520  146.6920 C   0  0  0  0  0  2  0  0  0  0  0  0
  184.2940  178.5570  142.8460 N   0  0  0  0  0  2  0  0  0  0  0  0
  185.3500  178.1120  141.9460 C   0  0  0  0  0  2  0  0  0  0  0  0
  185.9680  176.8900  142.4500 N   0  0  0  0  0  2  0  0  0  0  0  0
  189.8570  173.9870  143.0650 C   0  0  0  0  0  3  0  0  0  0  0  0
  190.1590  176.3870  142.8010 C   0  0  0  0  0  0  0  0  0  0  0  0
  187.9290  175.4200  142.7540 C   0  0  0  0  0  3  0  0  0  0  0  0
  192.0840  174.9480  143.1030 C   0  0  0  0  0  0  0  0  0  0  0  0
  189.3110  175.2580  142.8730 C   0  0  0  0  0  0  0  0  0  0  0  0
  188.2250  177.8120  142.5070 C   0  0  0  0  0  3  0  0  0  0  0  0
  191.5430  176.2250  142.9140 C   0  0  0  0  0  3  0  0  0  0  0  0
  189.6110  177.6580  142.6200 C   0  0  0  0  0  3  0  0  0  0  0  0
  193.4570  174.7890  143.2160 O   0  0  0  0  0  1  0  0  0  0  0  0
  191.2430  173.8340  143.1800 C   0  0  0  0  0  3  0  0  0  0  0  0
  187.3800  176.6980  142.5700 C   0  0  0  0  0  0  0  0  0  0  0  0
  1  2  1  0  0  0  0
  2  3  1  0  0  0  0
  3  4  1  0  0  0  0
  4  5  1  0  0  0  0
  5  6  1  1  0  0  0
  5  7  1  0  0  0  0
  8  7  1  0  0  0  0
  9  8  1  0  0  0  0
 10 11  1  0  0  0  0
 10  9  1  0  0  0  0
 11 14  1  0  0  0  0
 11 12  1  1  0  0  0
 14 13  1  0  0  0  0
 15  2  1  0  0  0  0
 16 17  1  0  0  0  0
 16 15  1  0  0  0  0
 17 28  1  0  0  0  0
 18 27  1  0  0  0  0
 19 22  1  0  0  0  0
 19 24  2  0  0  0  0
 20 22  1  0  0  0  0
 21 27  2  0  0  0  0
 21 26  1  0  0  0  0
 22 18  2  0  0  0  0
 23 28  1  0  0  0  0
 23 25  2  0  0  0  0
 24 21  1  0  0  0  0
 25 19  1  0  0  0  0
 28 20  2  0  0  0  0
M  END
>  <MODEL>
5

>  <REMARK>
 VINA RESULT:      -5.3      2.157      4.241
  Name = 
  13 active torsions:
  status: ('A' for Active; 'I' for Inactive)
    1  A    between atoms: C_1  and  C_2
    2  A    between atoms: C_1  and  C_26
    3  A    between atoms: C_2  and  O_3
    4  A    between atoms: O_3  and  C_7
    5  A    between atoms: C_5  and  N_20
    6  A    between atoms: C_5  and  N_27
    7  A    between atoms: C_6  and  C_11
    8  A    between atoms: C_6  and  C_28
    9  A    between atoms: C_7  and  C_28
   10  A    between atoms: C_19  and  N_21
   11  A    between atoms: C_19  and  C_26
   12  A    between atoms: N_20  and  C_25
   13  A    between atoms: N_21  and  N_27
                            x       y       z     vdW  Elec       q    Type
                         _______ _______ _______ _____ _____    ______ ____

>  <TORSDO>
F 13

$$$$
=
 OpenBabel11052418023D

 28 29  0  0  1  0  0  0  0  0999 V2000
  193.3230  176.6550  144.9650 C   0  0  0  0  0  1  0  0  0  0  0  0
  193.2470  175.8700  146.1890 N   0  0  0  0  0  0  0  0  0  0  0  0
  192.1290  176.3550  147.0060 C   0  0  0  0  0  2  0  0  0  0  0  0
  191.3180  175.2220  147.6520 C   0  0  0  0  0  2  0  0  0  0  0  0
  189.8310  175.3340  147.3410 C   0  0  2  0  0  3  0  0  0  0  0  0
  189.3700  174.1740  146.7160 O   0  0  0  0  0  1  0  0  0  0  0  0
  189.5490  176.5500  146.4750 C   0  0  0  0  0  2  0  0  0  0  0  0
  188.5780  177.3480  147.0790 O   0  0  0  0  0  0  0  0  0  0  0  0
  187.3670  176.7880  146.6770 C   0  0  0  0  0  2  0  0  0  0  0  0
  186.9190  177.4140  145.3650 C   0  0  0  0  0  2  0  0  0  0  0  0
  185.9640  178.5960  145.5500 C   0  0  2  0  0  3  0  0  0  0  0  0
  184.7430  178.2440  146.3870 C   0  0  0  0  0  1  0  0  0  0  0  0
  184.3450  178.8490  143.6010 C   0  0  0  0  0  1  0  0  0  0  0  0
  185.6240  179.3440  144.2590 C   0  0  0  0  0  2  0  0  0  0  0  0
  192.9910  174.5370  145.8230 N   0  0  0  0  0  2  0  0  0  0  0  0
  192.7370  174.5130  144.3880 C   0  0  0  0  0  2  0  0  0  0  0  0
  191.4680  173.8520  144.1070 N   0  0  0  0  0  2  0  0  0  0  0  0
  189.2540  177.8350  142.3270 C   0  0  0  0  0  3  0  0  0  0  0  0
  188.1830  175.6590  142.1340 C   0  0  0  0  0  0  0  0  0  0  0  0
  190.3570  175.8650  143.2040 C   0  0  0  0  0  3  0  0  0  0  0  0
  187.0900  177.6310  141.2510 C   0  0  0  0  0  0  0  0  0  0  0  0
  189.2700  176.4580  142.5570 C   0  0  0  0  0  0  0  0  0  0  0  0
  189.2860  173.6990  143.0270 C   0  0  0  0  0  3  0  0  0  0  0  0
  187.0980  176.2510  141.4800 C   0  0  0  0  0  3  0  0  0  0  0  0
  188.1960  174.2840  142.3730 C   0  0  0  0  0  3  0  0  0  0  0  0
  186.0120  178.2180  140.6030 O   0  0  0  0  0  1  0  0  0  0  0  0
  188.1630  178.4210  141.6750 C   0  0  0  0  0  3  0  0  0  0  0  0
  190.3690  174.4820  143.4420 C   0  0  0  0  0  0  0  0  0  0  0  0
  1  2  1  0  0  0  0
  2  3  1  0  0  0  0
  3  4  1  0  0  0  0
  5  6  1  6  0  0  0
  5  4  1  0  0  0  0
  7  8  1  0  0  0  0
  7  5  1  0  0  0  0
  9  8  1  0  0  0  0
 10 11  1  0  0  0  0
 10  9  1  0  0  0  0
 11 12  1  6  0  0  0
 13 14  1  0  0  0  0
 14 11  1  0  0  0  0
 15  2  1  0  0  0  0
 16 15  1  0  0  0  0
 17 16  1  0  0  0  0
 18 22  1  0  0  0  0
 19 25  2  0  0  0  0
 19 22  1  0  0  0  0
 20 28  1  0  0  0  0
 21 24  2  0  0  0  0
 21 27  1  0  0  0  0
 22 20  2  0  0  0  0
 23 28  2  0  0  0  0
 24 19  1  0  0  0  0
 25 23  1  0  0  0  0
 26 21  1  0  0  0  0
 27 18  2  0  0  0  0
 28 17  1  0  0  0  0
M  END
>  <MODEL>
6

>  <REMARK>
 VINA RESULT:      -5.2      3.054      6.613
  Name = 
  13 active torsions:
  status: ('A' for Active; 'I' for Inactive)
    1  A    between atoms: C_1  and  C_2
    2  A    between atoms: C_1  and  C_26
    3  A    between atoms: C_2  and  O_3
    4  A    between atoms: O_3  and  C_7
    5  A    between atoms: C_5  and  N_20
    6  A    between atoms: C_5  and  N_27
    7  A    between atoms: C_6  and  C_11
    8  A    between atoms: C_6  and  C_28
    9  A    between atoms: C_7  and  C_28
   10  A    between atoms: C_19  and  N_21
   11  A    between atoms: C_19  and  C_26
   12  A    between atoms: N_20  and  C_25
   13  A    between atoms: N_21  and  N_27
                            x       y       z     vdW  Elec       q    Type
                         _______ _______ _______ _____ _____    ______ ____

>  <TORSDO>
F 13

$$$$
=
 OpenBabel11052418023D

 28 29  0  0  1  0  0  0  0  0999 V2000
  193.6690  176.7670  146.8720 C   0  0  0  0  0  1  0  0  0  0  0  0
  193.0760  175.7120  146.0640 N   0  0  0  0  0  0  0  0  0  0  0  0
  194.1420  174.9500  145.4050 C   0  0  0  0  0  2  0  0  0  0  0  0
  195.1190  175.8360  144.6190 C   0  0  0  0  0  2  0  0  0  0  0  0
  195.1590  175.4730  143.1400 C   0  0  2  0  0  3  0  0  0  0  0  0
  195.7050  176.5160  142.3910 O   0  0  0  0  0  1  0  0  0  0  0  0
  193.7700  175.1260  142.6300 C   0  0  0  0  0  2  0  0  0  0  0  0
  193.1230  176.2820  142.1930 O   0  0  0  0  0  0  0  0  0  0  0  0
  191.8320  176.1750  142.7070 C   0  0  0  0  0  2  0  0  0  0  0  0
  191.3150  174.7580  142.5120 C   0  0  0  0  0  2  0  0  0  0  0  0
  190.1270  174.4150  143.4140 C   0  0  2  0  0  3  0  0  0  0  0  0
  190.4010  173.2310  144.3290 C   0  0  0  0  0  1  0  0  0  0  0  0
  188.4030  175.6120  141.9710 C   0  0  0  0  0  1  0  0  0  0  0  0
  188.7840  174.3250  142.6850 C   0  0  0  0  0  2  0  0  0  0  0  0
  192.3800  174.8530  146.9320 N   0  0  0  0  0  2  0  0  0  0  0  0
  191.4250  175.6590  147.6810 C   0  0  0  0  0  2  0  0  0  0  0  0
  190.0590  175.2640  147.3550 N   0  0  0  0  0  2  0  0  0  0  0  0
  185.5150  176.9020  146.5800 C   0  0  0  0  0  3  0  0  0  0  0  0
  187.3600  177.7540  145.2420 C   0  0  0  0  0  0  0  0  0  0  0  0
  187.7640  176.0930  146.9720 C   0  0  0  0  0  3  0  0  0  0  0  0
  185.1100  178.5650  144.8610 C   0  0  0  0  0  0  0  0  0  0  0  0
  186.8760  176.9120  146.2700 C   0  0  0  0  0  0  0  0  0  0  0  0
  189.6010  176.9280  145.6310 C   0  0  0  0  0  3  0  0  0  0  0  0
  186.4730  178.5790  144.5440 C   0  0  0  0  0  3  0  0  0  0  0  0
  188.7200  177.7550  144.9270 C   0  0  0  0  0  3  0  0  0  0  0  0
  184.2310  179.3840  144.1670 O   0  0  0  0  0  1  0  0  0  0  0  0
  184.6320  177.7280  145.8740 C   0  0  0  0  0  3  0  0  0  0  0  0
  189.1310  176.0970  146.6550 C   0  0  0  0  0  0  0  0  0  0  0  0
  2  1  1  0  0  0  0
  2 15  1  0  0  0  0
  3  2  1  0  0  0  0
  4  3  1  0  0  0  0
  5  6  1  6  0  0  0
  5  4  1  0  0  0  0
  7  5  1  0  0  0  0
  8  7  1  0  0  0  0
  8  9  1  0  0  0  0
 10  9  1  0  0  0  0
 10 11  1  0  0  0  0
 11 12  1  6  0  0  0
 13 14  1  0  0  0  0
 14 11  1  0  0  0  0
 15 16  1  0  0  0  0
 17 16  1  0  0  0  0
 19 22  1  0  0  0  0
 21 27  1  0  0  0  0
 22 18  1  0  0  0  0
 22 20  2  0  0  0  0
 23 28  2  0  0  0  0
 24 21  2  0  0  0  0
 24 19  1  0  0  0  0
 25 19  2  0  0  0  0
 25 23  1  0  0  0  0
 26 21  1  0  0  0  0
 27 18  2  0  0  0  0
 28 20  1  0  0  0  0
 28 17  1  0  0  0  0
M  END
>  <MODEL>
7

>  <REMARK>
 VINA RESULT:      -5.0      2.624      6.418
  Name = 
  13 active torsions:
  status: ('A' for Active; 'I' for Inactive)
    1  A    between atoms: C_1  and  C_2
    2  A    between atoms: C_1  and  C_26
    3  A    between atoms: C_2  and  O_3
    4  A    between atoms: O_3  and  C_7
    5  A    between atoms: C_5  and  N_20
    6  A    between atoms: C_5  and  N_27
    7  A    between atoms: C_6  and  C_11
    8  A    between atoms: C_6  and  C_28
    9  A    between atoms: C_7  and  C_28
   10  A    between atoms: C_19  and  N_21
   11  A    between atoms: C_19  and  C_26
   12  A    between atoms: N_20  and  C_25
   13  A    between atoms: N_21  and  N_27
                            x       y       z     vdW  Elec       q    Type
                         _______ _______ _______ _____ _____    ______ ____

>  <TORSDO>
F 13

$$$$
=
 OpenBabel11052418023D

 28 29  0  0  1  0  0  0  0  0999 V2000
  185.0080  176.5840  146.4890 C   0  0  0  0  0  1  0  0  0  0  0  0
  185.3190  177.8990  145.9450 N   0  0  0  0  0  0  0  0  0  0  0  0
  184.0710  178.6330  145.7120 C   0  0  0  0  0  2  0  0  0  0  0  0
  183.8560  179.0010  144.2370 C   0  0  0  0  0  2  0  0  0  0  0  0
  185.0800  178.6910  143.3840 C   0  0  2  0  0  3  0  0  0  0  0  0
  185.8990  179.8150  143.2720 O   0  0  0  0  0  1  0  0  0  0  0  0
  184.6700  178.1950  142.0080 C   0  0  0  0  0  2  0  0  0  0  0  0
  185.6170  178.5850  141.0620 O   0  0  0  0  0  0  0  0  0  0  0  0
  186.3480  177.4270  140.8020 C   0  0  0  0  0  2  0  0  0  0  0  0
  187.7970  177.6270  141.2190 C   0  0  0  0  0  2  0  0  0  0  0  0
  188.1670  176.8880  142.5070 C   0  0  2  0  0  3  0  0  0  0  0  0
  189.6690  176.8360  142.7480 C   0  0  0  0  0  1  0  0  0  0  0  0
  188.2980  174.3680  142.1610 C   0  0  0  0  0  1  0  0  0  0  0  0
  187.4740  175.5350  142.6830 C   0  0  0  0  0  2  0  0  0  0  0  0
  186.0740  178.5890  146.9090 N   0  0  0  0  0  2  0  0  0  0  0  0
  186.9570  177.6250  147.5540 C   0  0  0  0  0  2  0  0  0  0  0  0
  188.3400  177.8520  147.1500 N   0  0  0  0  0  2  0  0  0  0  0  0
  192.8470  176.0830  146.4500 C   0  0  0  0  0  3  0  0  0  0  0  0
  190.9070  174.7530  145.8250 C   0  0  0  0  0  0  0  0  0  0  0  0
  190.6170  176.9600  146.8040 C   0  0  0  0  0  3  0  0  0  0  0  0
  193.1390  173.8780  145.4820 C   0  0  0  0  0  0  0  0  0  0  0  0
  191.4600  175.9380  146.3630 C   0  0  0  0  0  0  0  0  0  0  0  0
  188.6840  175.6450  146.1690 C   0  0  0  0  0  3  0  0  0  0  0  0
  191.7510  173.7270  145.3890 C   0  0  0  0  0  3  0  0  0  0  0  0
  189.5210  174.6140  145.7290 C   0  0  0  0  0  3  0  0  0  0  0  0
  193.9750  172.8590  145.0480 O   0  0  0  0  0  1  0  0  0  0  0  0
  193.6850  175.0530  146.0080 C   0  0  0  0  0  3  0  0  0  0  0  0
  189.2240  176.8180  146.7090 C   0  0  0  0  0  0  0  0  0  0  0  0
  2  1  1  0  0  0  0
  2 15  1  0  0  0  0
  3  2  1  0  0  0  0
  4  3  1  0  0  0  0
  5  6  1  6  0  0  0
  5  4  1  0  0  0  0
  7  5  1  0  0  0  0
  8  7  1  0  0  0  0
  9  8  1  0  0  0  0
  9 10  1  0  0  0  0
 10 11  1  0  0  0  0
 11 14  1  0  0  0  0
 11 12  1  6  0  0  0
 13 14  1  0  0  0  0
 15 16  1  0  0  0  0
 17 16  1  0  0  0  0
 19 22  1  0  0  0  0
 21 27  1  0  0  0  0
 22 18  1  0  0  0  0
 22 20  2  0  0  0  0
 23 28  2  0  0  0  0
 24 21  2  0  0  0  0
 24 19  1  0  0  0  0
 25 19  2  0  0  0  0
 25 23  1  0  0  0  0
 26 21  1  0  0  0  0
 27 18  2  0  0  0  0
 28 20  1  0  0  0  0
 28 17  1  0  0  0  0
M  END
>  <MODEL>
8

>  <REMARK>
 VINA RESULT:      -5.0      1.776      2.700
  Name = 
  13 active torsions:
  status: ('A' for Active; 'I' for Inactive)
    1  A    between atoms: C_1  and  C_2
    2  A    between atoms: C_1  and  C_26
    3  A    between atoms: C_2  and  O_3
    4  A    between atoms: O_3  and  C_7
    5  A    between atoms: C_5  and  N_20
    6  A    between atoms: C_5  and  N_27
    7  A    between atoms: C_6  and  C_11
    8  A    between atoms: C_6  and  C_28
    9  A    between atoms: C_7  and  C_28
   10  A    between atoms: C_19  and  N_21
   11  A    between atoms: C_19  and  C_26
   12  A    between atoms: N_20  and  C_25
   13  A    between atoms: N_21  and  N_27
                            x       y       z     vdW  Elec       q    Type
                         _______ _______ _______ _____ _____    ______ ____

>  <TORSDO>
F 13

$$$$
=
 OpenBabel11052418023D

 28 29  0  0  1  0  0  0  0  0999 V2000
  184.0600  178.8880  145.6700 C   0  0  0  0  0  1  0  0  0  0  0  0
  185.2730  178.3940  145.0340 N   0  0  0  0  0  0  0  0  0  0  0  0
  185.4650  179.0870  143.7560 C   0  0  0  0  0  2  0  0  0  0  0  0
  185.6870  178.1280  142.5770 C   0  0  0  0  0  2  0  0  0  0  0  0
  187.0560  177.4630  142.6300 C   0  0  2  0  0  3  0  0  0  0  0  0
  188.0690  178.4080  142.4580 O   0  0  0  0  0  1  0  0  0  0  0  0
  187.1690  176.3690  141.5820 C   0  0  0  0  0  2  0  0  0  0  0  0
  187.5850  175.1800  142.1790 O   0  0  0  0  0  0  0  0  0  0  0  0
  188.9700  175.3000  142.2680 C   0  0  0  0  0  2  0  0  0  0  0  0
  189.6310  174.0030  141.8270 C   0  0  0  0  0  2  0  0  0  0  0  0
  190.4620  173.3390  142.9270 C   0  0  2  0  0  3  0  0  0  0  0  0
  189.6930  173.1720  144.2300 C   0  0  0  0  0  1  0  0  0  0  0  0
  192.3290  174.7460  141.9160 C   0  0  0  0  0  1  0  0  0  0  0  0
  191.8580  173.9370  143.1150 C   0  0  0  0  0  2  0  0  0  0  0  0
  186.3520  178.7020  145.8800 N   0  0  0  0  0  2  0  0  0  0  0  0
  186.4920  177.6100  146.8350 C   0  0  0  0  0  2  0  0  0  0  0  0
  187.1440  176.4660  146.2080 N   0  0  0  0  0  2  0  0  0  0  0  0
  191.7900  177.1380  144.8330 C   0  0  0  0  0  3  0  0  0  0  0  0
  191.2630  175.5620  146.6100 C   0  0  0  0  0  0  0  0  0  0  0  0
  189.4880  176.8130  145.5150 C   0  0  0  0  0  3  0  0  0  0  0  0
  193.5630  175.8970  145.9290 C   0  0  0  0  0  0  0  0  0  0  0  0
  190.8450  176.5100  145.6470 C   0  0  0  0  0  0  0  0  0  0  0  0
  188.9590  175.2330  147.2730 C   0  0  0  0  0  3  0  0  0  0  0  0
  192.6210  175.2620  146.7470 C   0  0  0  0  0  3  0  0  0  0  0  0
  190.3170  174.9270  147.4160 C   0  0  0  0  0  3  0  0  0  0  0  0
  194.9110  175.5990  146.0660 O   0  0  0  0  0  1  0  0  0  0  0  0
  193.1480  176.8300  144.9740 C   0  0  0  0  0  3  0  0  0  0  0  0
  188.5390  176.1750  146.3280 C   0  0  0  0  0  0  0  0  0  0  0  0
  2  1  1  0  0  0  0
  2 15  1  0  0  0  0
  3  2  1  0  0  0  0
  4  5  1  0  0  0  0
  4  3  1  0  0  0  0
  5  6  1  6  0  0  0
  7  8  1  0  0  0  0
  7  5  1  0  0  0  0
  8  9  1  0  0  0  0
 10  9  1  0  0  0  0
 10 11  1  0  0  0  0
 11 14  1  0  0  0  0
 11 12  1  1  0  0  0
 13 14  1  0  0  0  0
 15 16  1  0  0  0  0
 17 28  1  0  0  0  0
 17 16  1  0  0  0  0
 18 27  2  0  0  0  0
 18 22  1  0  0  0  0
 19 24  1  0  0  0  0
 19 25  1  0  0  0  0
 20 22  1  0  0  0  0
 20 28  2  0  0  0  0
 21 26  1  0  0  0  0
 21 24  2  0  0  0  0
 22 19  2  0  0  0  0
 23 25  2  0  0  0  0
 27 21  1  0  0  0  0
 28 23  1  0  0  0  0
M  END
>  <MODEL>
9

>  <REMARK>
 VINA RESULT:      -4.9      1.376      1.949
  Name = 
  13 active torsions:
  status: ('A' for Active; 'I' for Inactive)
    1  A    between atoms: C_1  and  C_2
    2  A    between atoms: C_1  and  C_26
    3  A    between atoms: C_2  and  O_3
    4  A    between atoms: O_3  and  C_7
    5  A    between atoms: C_5  and  N_20
    6  A    between atoms: C_5  and  N_27
    7  A    between atoms: C_6  and  C_11
    8  A    between atoms: C_6  and  C_28
    9  A    between atoms: C_7  and  C_28
   10  A    between atoms: C_19  and  N_21
   11  A    between atoms: C_19  and  C_26
   12  A    between atoms: N_20  and  C_25
   13  A    between atoms: N_21  and  N_27
                            x       y       z     vdW  Elec       q    Type
                         _______ _______ _______ _____ _____    ______ ____

>  <TORSDO>
F 13

$$$$
