=
 OpenBabel11052418143D

 28 32  0  0  1  0  0  0  0  0999 V2000
  190.1470  176.4980  144.6660 C   0  0  0  0  0  0  0  0  0  0  0  0
  185.9650  177.2240  141.9710 C   0  0  0  0  0  2  0  0  0  0  0  0
  187.0960  178.4260  148.0790 C   0  0  0  0  0  1  0  0  0  0  0  0
  184.4410  178.2790  143.6680 C   0  0  0  0  0  0  0  0  0  0  0  0
  186.6850  177.6480  144.3650 C   0  0  0  0  0  0  0  0  0  0  0  0
  183.7400  178.2110  141.3310 C   0  0  0  0  0  0  0  0  0  0  0  0
  185.7100  177.7570  143.3580 C   0  0  0  0  0  0  0  0  0  0  0  0
  185.1190  178.5970  145.9680 C   0  0  0  0  0  3  0  0  0  0  0  0
  183.4210  178.4000  142.6140 C   0  0  0  0  0  3  0  0  0  0  0  0
  188.6430  177.4440  146.3440 C   0  0  0  0  0  0  0  0  0  0  0  0
  187.9090  177.1330  144.0790 N   0  0  0  0  0  0  0  0  0  0  0  0
  184.1500  178.6950  144.9680 C   0  0  0  0  0  3  0  0  0  0  0  0
  190.9060  176.8000  146.9500 C   0  0  0  0  0  3  0  0  0  0  0  0
  187.3820  177.9750  146.6770 C   0  0  0  0  0  0  0  0  0  0  0  0
  189.6610  177.3250  147.3010 C   0  0  0  0  0  3  0  0  0  0  0  0
  182.7380  178.3540  140.3310 N   0  0  0  0  0  1  0  0  0  0  0  0
  185.1730  178.0040  140.9170 C   0  0  0  0  0  2  0  0  0  0  0  0
  186.3930  178.0800  145.6800 C   0  0  0  0  0  0  0  0  0  0  0  0
  191.1470  176.3900  145.6380 C   0  0  0  0  0  3  0  0  0  0  0  0
  188.8880  177.0220  145.0150 C   0  0  0  0  0  0  0  0  0  0  0  0
  190.4530  176.0700  143.2590 C   0  0  0  0  0  2  0  0  0  0  0  0
  190.7340  174.5710  143.1330 C   0  0  2  0  0  3  0  0  0  0  0  0
  189.4150  172.7010  142.5730 N   0  0  0  0  0  0  0  0  0  0  0  0
  191.0380  174.2240  141.8120 O   0  0  0  0  0  0  0  0  0  0  0  0
  189.8270  173.1250  144.9240 C   0  0  0  0  0  1  0  0  0  0  0  0
  189.5540  173.7400  143.5660 C   0  0  1  0  0  3  0  0  0  0  0  0
  188.1740  172.9590  141.8600 C   0  0  0  0  0  1  0  0  0  0  0  0
  190.5020  172.9380  141.6310 C   0  0  0  0  0  2  0  0  0  0  0  0
  1 20  2  0  0  0  0
  1 19  1  0  0  0  0
  2  7  1  0  0  0  0
  4 12  1  0  0  0  0
  5 18  1  0  0  0  0
  6  9  2  0  0  0  0
  7  4  2  0  0  0  0
  7  5  1  0  0  0  0
  9  4  1  0  0  0  0
 10 14  1  0  0  0  0
 10 15  2  0  0  0  0
 11  5  2  0  0  0  0
 11 20  1  0  0  0  0
 12  8  2  0  0  0  0
 13 15  1  0  0  0  0
 14  3  1  0  0  0  0
 16  6  1  0  0  0  0
 17  6  1  0  0  0  0
 17  2  1  0  0  0  0
 18  8  1  0  0  0  0
 18 14  2  0  0  0  0
 19 13  2  0  0  0  0
 20 10  1  0  0  0  0
 21  1  1  0  0  0  0
 22 21  1  6  0  0  0
 22 26  1  0  0  0  0
 23 26  1  0  0  0  0
 24 22  1  0  0  0  0
 26 25  1  1  0  0  0
 27 23  1  0  0  0  0
 28 24  1  0  0  0  0
 28 23  1  0  0  0  0
M  END
>  <MODEL>
1

>  <REMARK>
 VINA RESULT:      -8.4      0.000      0.000
  Name = 
  2 active torsions:
  status: ('A' for Active; 'I' for Inactive)
    1  A    between atoms: C_1  and  C_2
    2  A    between atoms: C_2  and  C_3
                            x       y       z     vdW  Elec       q    Type
                         _______ _______ _______ _____ _____    ______ ____

>  <TORSDO>
F 2

$$$$
=
 OpenBabel11052418143D

 28 32  0  0  1  0  0  0  0  0999 V2000
  191.3330  174.1810  142.8720 C   0  0  0  0  0  0  0  0  0  0  0  0
  186.8150  176.3750  142.6490 C   0  0  0  0  0  2  0  0  0  0  0  0
  190.5470  175.3100  147.6460 C   0  0  0  0  0  1  0  0  0  0  0  0
  186.4440  177.0270  145.0470 C   0  0  0  0  0  0  0  0  0  0  0  0
  188.5060  175.8720  144.4690 C   0  0  0  0  0  0  0  0  0  0  0  0
  184.8910  177.8390  143.3490 C   0  0  0  0  0  0  0  0  0  0  0  0
  187.2870  176.4520  144.0780 C   0  0  0  0  0  0  0  0  0  0  0  0
  188.0330  176.4630  146.7820 C   0  0  0  0  0  3  0  0  0  0  0  0
  185.1700  177.6400  144.6400 C   0  0  0  0  0  3  0  0  0  0  0  0
  190.9420  174.7350  145.2200 C   0  0  0  0  0  0  0  0  0  0  0  0
  189.3210  175.3030  143.5430 N   0  0  0  0  0  0  0  0  0  0  0  0
  186.8180  177.0290  146.3920 C   0  0  0  0  0  3  0  0  0  0  0  0
  192.9810  173.5960  144.5530 C   0  0  0  0  0  3  0  0  0  0  0  0
  190.1190  175.3100  146.2080 C   0  0  0  0  0  0  0  0  0  0  0  0
  192.1770  174.1560  145.5470 C   0  0  0  0  0  3  0  0  0  0  0  0
  183.6610  178.4530  142.9840 N   0  0  0  0  0  1  0  0  0  0  0  0
  185.9250  177.5680  142.2870 C   0  0  0  0  0  2  0  0  0  0  0  0
  188.8900  175.8850  145.8310 C   0  0  0  0  0  0  0  0  0  0  0  0
  192.5620  173.6100  143.2220 C   0  0  0  0  0  3  0  0  0  0  0  0
  190.5150  174.7440  143.8710 C   0  0  0  0  0  0  0  0  0  0  0  0
  190.9270  174.2010  141.4260 C   0  0  0  0  0  2  0  0  0  0  0  0
  190.1350  172.9600  141.0060 C   0  0  2  0  0  3  0  0  0  0  0  0
  188.4290  172.5640  139.4310 N   0  0  0  0  0  0  0  0  0  0  0  0
  190.7220  172.3370  139.9010 O   0  0  0  0  0  0  0  0  0  0  0  0
  187.7760  172.8540  141.7490 C   0  0  0  0  0  1  0  0  0  0  0  0
  188.7130  173.2980  140.6420 C   0  0  1  0  0  3  0  0  0  0  0  0
  188.2720  173.5430  138.3680 C   0  0  0  0  0  1  0  0  0  0  0  0
  189.6520  171.8220  139.1500 C   0  0  0  0  0  2  0  0  0  0  0  0
  1 19  2  0  0  0  0
  1 20  1  0  0  0  0
  2  7  1  0  0  0  0
  4 12  1  0  0  0  0
  5 18  1  0  0  0  0
  6  9  2  0  0  0  0
  7  5  1  0  0  0  0
  7  4  2  0  0  0  0
  9  4  1  0  0  0  0
 10 15  1  0  0  0  0
 10 14  1  0  0  0  0
 11 20  1  0  0  0  0
 11  5  2  0  0  0  0
 12  8  2  0  0  0  0
 13 15  2  0  0  0  0
 14  3  1  0  0  0  0
 16  6  1  0  0  0  0
 17  2  1  0  0  0  0
 17  6  1  0  0  0  0
 18 14  2  0  0  0  0
 18  8  1  0  0  0  0
 19 13  1  0  0  0  0
 20 10  2  0  0  0  0
 21  1  1  0  0  0  0
 22 21  1  6  0  0  0
 23 26  1  0  0  0  0
 24 22  1  0  0  0  0
 26 22  1  0  0  0  0
 26 25  1  1  0  0  0
 27 23  1  0  0  0  0
 28 23  1  0  0  0  0
 28 24  1  0  0  0  0
M  END
>  <MODEL>
2

>  <REMARK>
 VINA RESULT:      -8.1      1.876      3.212
  Name = 
  2 active torsions:
  status: ('A' for Active; 'I' for Inactive)
    1  A    between atoms: C_1  and  C_2
    2  A    between atoms: C_2  and  C_3
                            x       y       z     vdW  Elec       q    Type
                         _______ _______ _______ _____ _____    ______ ____

>  <TORSDO>
F 2

$$$$
=
 OpenBabel11052418143D

 28 32  0  0  1  0  0  0  0  0999 V2000
  190.1440  176.5690  145.0320 C   0  0  0  0  0  0  0  0  0  0  0  0
  186.1020  177.1950  142.1080 C   0  0  0  0  0  2  0  0  0  0  0  0
  186.9170  178.5830  148.2270 C   0  0  0  0  0  1  0  0  0  0  0  0
  184.4900  178.2920  143.6930 C   0  0  0  0  0  0  0  0  0  0  0  0
  186.6970  177.6930  144.5220 C   0  0  0  0  0  0  0  0  0  0  0  0
  183.9090  178.1520  141.3270 C   0  0  0  0  0  0  0  0  0  0  0  0
  185.7750  177.7670  143.4640 C   0  0  0  0  0  0  0  0  0  0  0  0
  185.0490  178.6810  146.0140 C   0  0  0  0  0  3  0  0  0  0  0  0
  183.5240  178.3770  142.5860 C   0  0  0  0  0  3  0  0  0  0  0  0
  188.5530  177.5570  146.6030 C   0  0  0  0  0  0  0  0  0  0  0  0
  187.9360  177.1760  144.3140 N   0  0  0  0  0  0  0  0  0  0  0  0
  184.1310  178.7440  144.9640 C   0  0  0  0  0  3  0  0  0  0  0  0
  190.7840  176.9430  147.3420 C   0  0  0  0  0  3  0  0  0  0  0  0
  187.2750  178.0920  146.8550 C   0  0  0  0  0  0  0  0  0  0  0  0
  189.5220  177.4720  147.6140 C   0  0  0  0  0  3  0  0  0  0  0  0
  182.9590  178.2600  140.2740 N   0  0  0  0  0  1  0  0  0  0  0  0
  185.3620  177.9400  140.9920 C   0  0  0  0  0  2  0  0  0  0  0  0
  186.3370  178.1620  145.8070 C   0  0  0  0  0  0  0  0  0  0  0  0
  191.0940  176.4960  146.0570 C   0  0  0  0  0  3  0  0  0  0  0  0
  188.8670  177.0980  145.3010 C   0  0  0  0  0  0  0  0  0  0  0  0
  190.5230  176.1020  143.6560 C   0  0  0  0  0  2  0  0  0  0  0  0
  192.0060  175.7460  143.5280 C   0  0  2  0  0  3  0  0  0  0  0  0
  193.2370  174.3650  142.0710 N   0  0  0  0  0  0  0  0  0  0  0  0
  192.6460  176.5780  142.6030 O   0  0  0  0  0  0  0  0  0  0  0  0
  192.6610  173.4720  144.2510 C   0  0  0  0  0  1  0  0  0  0  0  0
  192.2060  174.3220  143.0800 C   0  0  1  0  0  3  0  0  0  0  0  0
  192.6090  174.0120  140.8080 C   0  0  0  0  0  1  0  0  0  0  0  0
  193.6130  175.7700  141.9820 C   0  0  0  0  0  2  0  0  0  0  0  0
  1 20  2  0  0  0  0
  1 19  1  0  0  0  0
  2  7  1  0  0  0  0
  4 12  1  0  0  0  0
  5 18  1  0  0  0  0
  6  9  2  0  0  0  0
  7  4  2  0  0  0  0
  7  5  1  0  0  0  0
  9  4  1  0  0  0  0
 10 14  1  0  0  0  0
 10 15  2  0  0  0  0
 11  5  2  0  0  0  0
 11 20  1  0  0  0  0
 12  8  2  0  0  0  0
 13 15  1  0  0  0  0
 14  3  1  0  0  0  0
 16  6  1  0  0  0  0
 17  6  1  0  0  0  0
 17  2  1  0  0  0  0
 18  8  1  0  0  0  0
 18 14  2  0  0  0  0
 19 13  2  0  0  0  0
 20 10  1  0  0  0  0
 21  1  1  0  0  0  0
 22 21  1  6  0  0  0
 23 26  1  0  0  0  0
 24 22  1  0  0  0  0
 26 22  1  0  0  0  0
 26 25  1  1  0  0  0
 27 23  1  0  0  0  0
 28 23  1  0  0  0  0
 28 24  1  0  0  0  0
M  END
>  <MODEL>
3

>  <REMARK>
 VINA RESULT:      -8.0      1.582      1.762
  Name = 
  2 active torsions:
  status: ('A' for Active; 'I' for Inactive)
    1  A    between atoms: C_1  and  C_2
    2  A    between atoms: C_2  and  C_3
                            x       y       z     vdW  Elec       q    Type
                         _______ _______ _______ _____ _____    ______ ____

>  <TORSDO>
F 2

$$$$
=
 OpenBabel11052418143D

 28 32  0  0  1  0  0  0  0  0999 V2000
  187.3440  176.7510  142.4480 C   0  0  0  0  0  0  0  0  0  0  0  0
  192.0440  175.8890  144.0110 C   0  0  0  0  0  2  0  0  0  0  0  0
  187.0120  177.9210  147.2640 C   0  0  0  0  0  1  0  0  0  0  0  0
  191.8670  176.3970  146.4660 C   0  0  0  0  0  0  0  0  0  0  0  0
  189.8770  176.6460  145.0890 C   0  0  0  0  0  0  0  0  0  0  0  0
  193.9180  175.3840  145.6140 C   0  0  0  0  0  0  0  0  0  0  0  0
  191.2310  176.2880  145.2160 C   0  0  0  0  0  0  0  0  0  0  0  0
  189.8110  177.1980  147.4570 C   0  0  0  0  0  3  0  0  0  0  0  0
  193.2820  176.0170  146.6040 C   0  0  0  0  0  3  0  0  0  0  0  0
  187.1850  177.3290  144.8170 C   0  0  0  0  0  0  0  0  0  0  0  0
  189.2570  176.5570  143.8830 N   0  0  0  0  0  0  0  0  0  0  0  0
  191.1580  176.8510  147.5790 C   0  0  0  0  0  3  0  0  0  0  0  0
  185.2420  177.5330  143.3720 C   0  0  0  0  0  3  0  0  0  0  0  0
  187.7980  177.4410  146.0800 C   0  0  0  0  0  0  0  0  0  0  0  0
  185.8330  177.6560  144.6310 C   0  0  0  0  0  3  0  0  0  0  0  0
  195.2800  175.0100  145.7820 N   0  0  0  0  0  1  0  0  0  0  0  0
  193.1700  174.9220  144.3910 C   0  0  0  0  0  2  0  0  0  0  0  0
  189.1560  177.0960  146.2200 C   0  0  0  0  0  0  0  0  0  0  0  0
  185.9940  177.0820  142.2870 C   0  0  0  0  0  3  0  0  0  0  0  0
  187.9470  176.8760  143.7140 C   0  0  0  0  0  0  0  0  0  0  0  0
  188.1140  176.2440  141.2620 C   0  0  0  0  0  2  0  0  0  0  0  0
  187.8240  174.7760  140.9390 C   0  0  2  0  0  3  0  0  0  0  0  0
  189.1790  172.9020  140.4890 N   0  0  0  0  0  0  0  0  0  0  0  0
  187.8520  173.9910  142.0970 O   0  0  0  0  0  0  0  0  0  0  0  0
  188.2010  174.0650  138.5990 C   0  0  0  0  0  1  0  0  0  0  0  0
  188.8290  174.2040  139.9730 C   0  0  1  0  0  3  0  0  0  0  0  0
  190.5670  172.9740  140.9140 C   0  0  0  0  0  1  0  0  0  0  0  0
  188.3720  172.7500  141.6940 C   0  0  0  0  0  2  0  0  0  0  0  0
  1 20  1  0  0  0  0
  2 17  1  0  0  0  0
  2  7  1  0  0  0  0
  4  9  1  0  0  0  0
  4 12  1  0  0  0  0
  5  7  1  0  0  0  0
  5 18  1  0  0  0  0
  6 16  1  0  0  0  0
  6  9  2  0  0  0  0
  7  4  2  0  0  0  0
  8 12  2  0  0  0  0
 10 14  1  0  0  0  0
 11  5  2  0  0  0  0
 13 15  2  0  0  0  0
 14 18  2  0  0  0  0
 14  3  1  0  0  0  0
 15 10  1  0  0  0  0
 17  6  1  0  0  0  0
 18  8  1  0  0  0  0
 19  1  2  0  0  0  0
 19 13  1  0  0  0  0
 20 11  1  0  0  0  0
 20 10  2  0  0  0  0
 21  1  1  0  0  0  0
 22 21  1  1  0  0  0
 22 24  1  0  0  0  0
 23 27  1  0  0  0  0
 23 28  1  0  0  0  0
 26 25  1  6  0  0  0
 26 23  1  0  0  0  0
 26 22  1  0  0  0  0
 28 24  1  0  0  0  0
M  END
>  <MODEL>
4

>  <REMARK>
 VINA RESULT:      -7.8      2.164      6.034
  Name = 
  2 active torsions:
  status: ('A' for Active; 'I' for Inactive)
    1  A    between atoms: C_1  and  C_2
    2  A    between atoms: C_2  and  C_3
                            x       y       z     vdW  Elec       q    Type
                         _______ _______ _______ _____ _____    ______ ____

>  <TORSDO>
F 2

$$$$
=
 OpenBabel11052418143D

 28 32  0  0  1  0  0  0  0  0999 V2000
  193.6690  176.2040  144.0200 C   0  0  0  0  0  0  0  0  0  0  0  0
  189.0400  177.3030  142.3970 C   0  0  0  0  0  2  0  0  0  0  0  0
  191.1910  176.6090  148.3060 C   0  0  0  0  0  1  0  0  0  0  0  0
  187.7960  177.5940  144.5610 C   0  0  0  0  0  0  0  0  0  0  0  0
  190.1570  177.0160  144.6550 C   0  0  0  0  0  0  0  0  0  0  0  0
  186.6890  178.2000  142.4710 C   0  0  0  0  0  0  0  0  0  0  0  0
  189.0130  177.3360  143.9040 C   0  0  0  0  0  0  0  0  0  0  0  0
  188.8610  177.2330  146.7030 C   0  0  0  0  0  3  0  0  0  0  0  0
  186.5970  177.9360  143.7780 C   0  0  0  0  0  3  0  0  0  0  0  0
  192.4470  176.4010  146.1270 C   0  0  0  0  0  0  0  0  0  0  0  0
  191.3330  176.7520  144.0300 N   0  0  0  0  0  0  0  0  0  0  0  0
  187.7230  177.5410  145.9530 C   0  0  0  0  0  3  0  0  0  0  0  0
  194.8110  175.8420  146.1300 C   0  0  0  0  0  3  0  0  0  0  0  0
  191.2420  176.6620  146.8080 C   0  0  0  0  0  0  0  0  0  0  0  0
  193.6260  176.0930  146.8220 C   0  0  0  0  0  3  0  0  0  0  0  0
  185.5180  178.5470  141.7430 N   0  0  0  0  0  1  0  0  0  0  0  0
  188.0330  178.2900  141.7970 C   0  0  0  0  0  2  0  0  0  0  0  0
  190.0850  176.9730  146.0670 C   0  0  0  0  0  0  0  0  0  0  0  0
  194.8330  175.9000  144.7360 C   0  0  0  0  0  3  0  0  0  0  0  0
  192.4700  176.4540  144.7130 C   0  0  0  0  0  0  0  0  0  0  0  0
  193.7380  176.2820  142.5220 C   0  0  0  0  0  2  0  0  0  0  0  0
  194.9500  175.5550  141.9360 C   0  0  2  0  0  3  0  0  0  0  0  0
  195.4000  174.5330  139.8620 N   0  0  0  0  0  0  0  0  0  0  0  0
  195.7590  176.4310  141.2040 O   0  0  0  0  0  0  0  0  0  0  0  0
  194.7580  173.0980  141.7080 C   0  0  0  0  0  1  0  0  0  0  0  0
  194.5420  174.4310  141.0190 C   0  0  1  0  0  3  0  0  0  0  0  0
  194.5570  174.9160  138.7410 C   0  0  0  0  0  1  0  0  0  0  0  0
  196.2730  175.6660  140.1440 C   0  0  0  0  0  2  0  0  0  0  0  0
  1 20  2  0  0  0  0
  1 19  1  0  0  0  0
  2  7  1  0  0  0  0
  4 12  1  0  0  0  0
  5 18  1  0  0  0  0
  6  9  2  0  0  0  0
  7  4  2  0  0  0  0
  7  5  1  0  0  0  0
  9  4  1  0  0  0  0
 10 14  1  0  0  0  0
 10 15  2  0  0  0  0
 11  5  2  0  0  0  0
 11 20  1  0  0  0  0
 12  8  2  0  0  0  0
 13 15  1  0  0  0  0
 14  3  1  0  0  0  0
 16  6  1  0  0  0  0
 17  2  1  0  0  0  0
 17  6  1  0  0  0  0
 18  8  1  0  0  0  0
 18 14  2  0  0  0  0
 19 13  2  0  0  0  0
 20 10  1  0  0  0  0
 21  1  1  0  0  0  0
 22 21  1  6  0  0  0
 23 28  1  0  0  0  0
 23 26  1  0  0  0  0
 24 22  1  0  0  0  0
 26 25  1  1  0  0  0
 26 22  1  0  0  0  0
 27 23  1  0  0  0  0
 28 24  1  0  0  0  0
M  END
>  <MODEL>
5

>  <REMARK>
 VINA RESULT:      -7.8      3.290      4.399
  Name = 
  2 active torsions:
  status: ('A' for Active; 'I' for Inactive)
    1  A    between atoms: C_1  and  C_2
    2  A    between atoms: C_2  and  C_3
                            x       y       z     vdW  Elec       q    Type
                         _______ _______ _______ _____ _____    ______ ____

>  <TORSDO>
F 2

$$$$
=
 OpenBabel11052418143D

 28 32  0  0  1  0  0  0  0  0999 V2000
  189.5610  173.9100  142.4480 C   0  0  0  0  0  0  0  0  0  0  0  0
  187.6170  177.0710  145.8400 C   0  0  0  0  0  2  0  0  0  0  0  0
  186.7000  176.7910  139.5860 C   0  0  0  0  0  1  0  0  0  0  0  0
  186.1010  178.4800  144.4140 C   0  0  0  0  0  0  0  0  0  0  0  0
  187.3890  176.7190  143.3390 C   0  0  0  0  0  0  0  0  0  0  0  0
  185.9960  178.7150  146.8420 C   0  0  0  0  0  0  0  0  0  0  0  0
  187.0020  177.4030  144.5050 C   0  0  0  0  0  0  0  0  0  0  0  0
  185.9630  178.1810  142.0180 C   0  0  0  0  0  3  0  0  0  0  0  0
  185.6880  179.1950  145.6330 C   0  0  0  0  0  3  0  0  0  0  0  0
  188.1550  175.3310  141.0420 C   0  0  0  0  0  0  0  0  0  0  0  0
  188.2680  175.6850  143.4130 N   0  0  0  0  0  0  0  0  0  0  0  0
  185.5870  178.8660  143.1760 C   0  0  0  0  0  3  0  0  0  0  0  0
  189.4630  173.5380  140.0530 C   0  0  0  0  0  3  0  0  0  0  0  0
  187.2480  176.4020  140.9270 C   0  0  0  0  0  0  0  0  0  0  0  0
  188.5670  174.5990  139.9180 C   0  0  0  0  0  3  0  0  0  0  0  0
  185.5660  179.4150  148.0030 N   0  0  0  0  0  1  0  0  0  0  0  0
  186.6500  177.3670  146.9910 C   0  0  0  0  0  2  0  0  0  0  0  0
  186.8590  177.1030  142.0850 C   0  0  0  0  0  0  0  0  0  0  0  0
  189.9560  173.1940  141.3120 C   0  0  0  0  0  3  0  0  0  0  0  0
  188.6610  174.9840  142.3180 C   0  0  0  0  0  0  0  0  0  0  0  0
  190.0930  173.4930  143.7900 C   0  0  0  0  0  2  0  0  0  0  0  0
  191.5200  173.9810  144.0490 C   0  0  2  0  0  3  0  0  0  0  0  0
  192.5360  175.2250  145.7720 N   0  0  0  0  0  0  0  0  0  0  0  0
  192.2210  173.0810  144.8580 O   0  0  0  0  0  0  0  0  0  0  0  0
  191.9320  176.4020  143.7400 C   0  0  0  0  0  1  0  0  0  0  0  0
  191.5400  175.3240  144.7320 C   0  0  1  0  0  3  0  0  0  0  0  0
  191.8320  175.2910  147.0420 C   0  0  0  0  0  1  0  0  0  0  0  0
  193.0690  173.8730  145.6510 C   0  0  0  0  0  2  0  0  0  0  0  0
  1 21  1  0  0  0  0
  2 17  1  0  0  0  0
  3 14  1  0  0  0  0
  4  7  1  0  0  0  0
  4  9  1  0  0  0  0
  5 11  1  0  0  0  0
  5  7  2  0  0  0  0
  6 17  1  0  0  0  0
  6 16  1  0  0  0  0
  7  2  1  0  0  0  0
  8 18  2  0  0  0  0
  8 12  1  0  0  0  0
  9  6  2  0  0  0  0
 10 20  1  0  0  0  0
 12  4  2  0  0  0  0
 13 19  1  0  0  0  0
 14 10  2  0  0  0  0
 14 18  1  0  0  0  0
 15 13  2  0  0  0  0
 15 10  1  0  0  0  0
 18  5  1  0  0  0  0
 19  1  2  0  0  0  0
 20  1  1  0  0  0  0
 20 11  2  0  0  0  0
 22 21  1  1  0  0  0
 22 26  1  0  0  0  0
 22 24  1  0  0  0  0
 23 27  1  0  0  0  0
 24 28  1  0  0  0  0
 26 25  1  6  0  0  0
 26 23  1  0  0  0  0
 28 23  1  0  0  0  0
M  END
>  <MODEL>
6

>  <REMARK>
 VINA RESULT:      -7.8      2.155      4.945
  Name = 
  2 active torsions:
  status: ('A' for Active; 'I' for Inactive)
    1  A    between atoms: C_1  and  C_2
    2  A    between atoms: C_2  and  C_3
                            x       y       z     vdW  Elec       q    Type
                         _______ _______ _______ _____ _____    ______ ____

>  <TORSDO>
F 2

$$$$
=
 OpenBabel11052418143D

 28 32  0  0  1  0  0  0  0  0999 V2000
  188.7710  176.7280  145.6520 C   0  0  0  0  0  0  0  0  0  0  0  0
  188.7850  174.6210  141.0870 C   0  0  0  0  0  2  0  0  0  0  0  0
  193.4760  175.1740  145.2960 C   0  0  0  0  0  1  0  0  0  0  0  0
  191.1390  173.7560  140.9300 C   0  0  0  0  0  0  0  0  0  0  0  0
  190.4730  174.9330  142.9530 C   0  0  0  0  0  0  0  0  0  0  0  0
  189.5310  173.1230  139.2070 C   0  0  0  0  0  0  0  0  0  0  0  0
  190.1490  174.4070  141.6900 C   0  0  0  0  0  0  0  0  0  0  0  0
  192.7570  174.1370  142.6880 C   0  0  0  0  0  3  0  0  0  0  0  0
  190.8020  173.1980  139.6110 C   0  0  0  0  0  3  0  0  0  0  0  0
  191.0860  175.9650  145.4720 C   0  0  0  0  0  0  0  0  0  0  0  0
  189.5280  175.5750  143.6880 N   0  0  0  0  0  0  0  0  0  0  0  0
  192.4360  173.6250  141.4290 C   0  0  0  0  0  3  0  0  0  0  0  0
  190.3320  177.1350  147.4630 C   0  0  0  0  0  3  0  0  0  0  0  0
  192.0920  175.3120  144.7340 C   0  0  0  0  0  0  0  0  0  0  0  0
  191.3430  176.4960  146.7450 C   0  0  0  0  0  3  0  0  0  0  0  0
  189.2320  172.5610  137.9350 N   0  0  0  0  0  1  0  0  0  0  0  0
  188.4040  173.4770  140.1410 C   0  0  0  0  0  2  0  0  0  0  0  0
  191.7850  174.7900  143.4630 C   0  0  0  0  0  0  0  0  0  0  0  0
  189.0520  177.2490  146.9200 C   0  0  0  0  0  3  0  0  0  0  0  0
  189.7890  176.0860  144.9200 C   0  0  0  0  0  0  0  0  0  0  0  0
  187.3750  176.8460  145.1100 C   0  0  0  0  0  2  0  0  0  0  0  0
  187.1320  178.1550  144.3540 C   0  0  2  0  0  3  0  0  0  0  0  0
  185.5550  178.8450  142.7460 N   0  0  0  0  0  0  0  0  0  0  0  0
  186.1850  178.9480  145.0100 O   0  0  0  0  0  0  0  0  0  0  0  0
  187.7480  178.1730  141.9570 C   0  0  0  0  0  1  0  0  0  0  0  0
  186.6350  177.9090  142.9530 C   0  0  1  0  0  3  0  0  0  0  0  0
  184.3320  178.0660  142.6430 C   0  0  0  0  0  1  0  0  0  0  0  0
  185.4750  179.6020  143.9890 C   0  0  0  0  0  2  0  0  0  0  0  0
  1 19  1  0  0  0  0
  2  7  1  0  0  0  0
  4 12  1  0  0  0  0
  4  7  2  0  0  0  0
  5 18  1  0  0  0  0
  5 11  2  0  0  0  0
  6  9  2  0  0  0  0
  6 17  1  0  0  0  0
  7  5  1  0  0  0  0
  8 18  1  0  0  0  0
  9  4  1  0  0  0  0
 10 15  2  0  0  0  0
 11 20  1  0  0  0  0
 12  8  2  0  0  0  0
 14  3  1  0  0  0  0
 14 10  1  0  0  0  0
 15 13  1  0  0  0  0
 16  6  1  0  0  0  0
 17  2  1  0  0  0  0
 18 14  2  0  0  0  0
 19 13  2  0  0  0  0
 20 10  1  0  0  0  0
 20  1  2  0  0  0  0
 21  1  1  0  0  0  0
 22 24  1  0  0  0  0
 22 21  1  1  0  0  0
 23 26  1  0  0  0  0
 23 28  1  0  0  0  0
 26 25  1  6  0  0  0
 26 22  1  0  0  0  0
 27 23  1  0  0  0  0
 28 24  1  0  0  0  0
M  END
>  <MODEL>
7

>  <REMARK>
 VINA RESULT:      -7.7      2.305      6.288
  Name = 
  2 active torsions:
  status: ('A' for Active; 'I' for Inactive)
    1  A    between atoms: C_1  and  C_2
    2  A    between atoms: C_2  and  C_3
                            x       y       z     vdW  Elec       q    Type
                         _______ _______ _______ _____ _____    ______ ____

>  <TORSDO>
F 2

$$$$
=
 OpenBabel11052418143D

 28 32  0  0  1  0  0  0  0  0999 V2000
  186.8920  176.6090  144.6520 C   0  0  0  0  0  0  0  0  0  0  0  0
  189.8120  173.8260  141.6500 C   0  0  0  0  0  2  0  0  0  0  0  0
  190.8190  175.7850  147.5810 C   0  0  0  0  0  1  0  0  0  0  0  0
  191.7650  173.3320  143.1520 C   0  0  0  0  0  0  0  0  0  0  0  0
  189.9510  174.6970  144.0270 C   0  0  0  0  0  0  0  0  0  0  0  0
  191.6060  172.1840  141.0040 C   0  0  0  0  0  0  0  0  0  0  0  0
  190.5020  173.9310  142.9850 C   0  0  0  0  0  0  0  0  0  0  0  0
  191.9160  174.2430  145.3880 C   0  0  0  0  0  3  0  0  0  0  0  0
  192.3420  172.5240  142.0660 C   0  0  0  0  0  3  0  0  0  0  0  0
  188.8270  176.2040  146.0900 C   0  0  0  0  0  0  0  0  0  0  0  0
  188.7390  175.2910  143.8710 N   0  0  0  0  0  0  0  0  0  0  0  0
  192.4660  173.4910  144.3480 C   0  0  0  0  0  3  0  0  0  0  0  0
  186.9640  177.5440  146.8890 C   0  0  0  0  0  3  0  0  0  0  0  0
  190.0890  175.6100  146.2820 C   0  0  0  0  0  0  0  0  0  0  0  0
  188.2180  176.9670  147.0970 C   0  0  0  0  0  3  0  0  0  0  0  0
  192.1830  171.3850  139.9780 N   0  0  0  0  0  1  0  0  0  0  0  0
  190.1340  172.5000  140.9540 C   0  0  0  0  0  2  0  0  0  0  0  0
  190.6580  174.8480  145.2430 C   0  0  0  0  0  0  0  0  0  0  0  0
  186.3040  177.3640  145.6730 C   0  0  0  0  0  3  0  0  0  0  0  0
  188.1580  176.0280  144.8550 C   0  0  0  0  0  0  0  0  0  0  0  0
  186.1400  176.4160  143.3660 C   0  0  0  0  0  2  0  0  0  0  0  0
  186.2240  177.6250  142.4320 C   0  0  2  0  0  3  0  0  0  0  0  0
  186.6740  177.8900  140.1350 N   0  0  0  0  0  0  0  0  0  0  0  0
  185.0030  177.8520  141.7900 O   0  0  0  0  0  0  0  0  0  0  0  0
  188.4900  178.2910  141.6910 C   0  0  0  0  0  1  0  0  0  0  0  0
  187.2760  177.4420  141.3680 C   0  0  1  0  0  3  0  0  0  0  0  0
  186.5120  176.7170  139.2910 C   0  0  0  0  0  1  0  0  0  0  0  0
  185.3370  178.3320  140.5120 C   0  0  0  0  0  2  0  0  0  0  0  0
  1 20  2  0  0  0  0
  1 19  1  0  0  0  0
  2  7  1  0  0  0  0
  4 12  1  0  0  0  0
  5 18  1  0  0  0  0
  6  9  2  0  0  0  0
  7  4  2  0  0  0  0
  7  5  1  0  0  0  0
  9  4  1  0  0  0  0
 10 14  1  0  0  0  0
 10 15  2  0  0  0  0
 11  5  2  0  0  0  0
 11 20  1  0  0  0  0
 12  8  2  0  0  0  0
 13 15  1  0  0  0  0
 14  3  1  0  0  0  0
 16  6  1  0  0  0  0
 17  6  1  0  0  0  0
 17  2  1  0  0  0  0
 18  8  1  0  0  0  0
 18 14  2  0  0  0  0
 19 13  2  0  0  0  0
 20 10  1  0  0  0  0
 21  1  1  0  0  0  0
 22 21  1  6  0  0  0
 23 28  1  0  0  0  0
 23 26  1  0  0  0  0
 24 22  1  0  0  0  0
 26 25  1  1  0  0  0
 26 22  1  0  0  0  0
 27 23  1  0  0  0  0
 28 24  1  0  0  0  0
M  END
>  <MODEL>
8

>  <REMARK>
 VINA RESULT:      -7.5      2.236      6.368
  Name = 
  2 active torsions:
  status: ('A' for Active; 'I' for Inactive)
    1  A    between atoms: C_1  and  C_2
    2  A    between atoms: C_2  and  C_3
                            x       y       z     vdW  Elec       q    Type
                         _______ _______ _______ _____ _____    ______ ____

>  <TORSDO>
F 2

$$$$
=
 OpenBabel11052418143D

 28 32  0  0  1  0  0  0  0  0999 V2000
  189.6020  176.9500  146.1480 C   0  0  0  0  0  0  0  0  0  0  0  0
  188.9450  175.2020  141.4800 C   0  0  0  0  0  2  0  0  0  0  0  0
  193.5390  173.9620  145.6500 C   0  0  0  0  0  1  0  0  0  0  0  0
  190.8860  173.6230  141.2480 C   0  0  0  0  0  0  0  0  0  0  0  0
  190.6330  174.8430  143.3370 C   0  0  0  0  0  0  0  0  0  0  0  0
  189.1670  173.6440  139.5150 C   0  0  0  0  0  0  0  0  0  0  0  0
  190.1610  174.5210  142.0530 C   0  0  0  0  0  0  0  0  0  0  0  0
  192.5320  173.3590  143.0010 C   0  0  0  0  0  3  0  0  0  0  0  0
  190.3910  173.2780  139.9060 C   0  0  0  0  0  3  0  0  0  0  0  0
  191.5400  175.4810  145.8990 C   0  0  0  0  0  0  0  0  0  0  0  0
  189.9480  175.7190  144.1170 N   0  0  0  0  0  0  0  0  0  0  0  0
  192.0660  173.0480  141.7220 C   0  0  0  0  0  3  0  0  0  0  0  0
  191.2020  176.7260  147.9570 C   0  0  0  0  0  3  0  0  0  0  0  0
  192.2790  174.5760  145.1140 C   0  0  0  0  0  0  0  0  0  0  0  0
  191.9510  175.8300  147.1940 C   0  0  0  0  0  3  0  0  0  0  0  0
  188.7060  173.2800  138.2200 N   0  0  0  0  0  1  0  0  0  0  0  0
  188.2140  174.2980  140.4810 C   0  0  0  0  0  2  0  0  0  0  0  0
  191.8230  174.2510  143.8210 C   0  0  0  0  0  0  0  0  0  0  0  0
  190.0320  177.2820  147.4370 C   0  0  0  0  0  3  0  0  0  0  0  0
  190.3560  176.0500  145.3710 C   0  0  0  0  0  0  0  0  0  0  0  0
  188.3250  177.5490  145.6320 C   0  0  0  0  0  2  0  0  0  0  0  0
  187.1330  177.3180  146.5640 C   0  0  2  0  0  3  0  0  0  0  0  0
  184.9840  178.2680  146.7380 N   0  0  0  0  0  0  0  0  0  0  0  0
  186.2270  176.4090  146.0080 O   0  0  0  0  0  0  0  0  0  0  0  0
  186.6980  179.0730  148.2540 C   0  0  0  0  0  1  0  0  0  0  0  0
  186.3860  178.5950  146.8490 C   0  0  1  0  0  3  0  0  0  0  0  0
  184.4760  178.9680  145.5700 C   0  0  0  0  0  1  0  0  0  0  0  0
  184.9580  176.8440  146.4260 C   0  0  0  0  0  2  0  0  0  0  0  0
  1 19  1  0  0  0  0
  2  7  1  0  0  0  0
  4 12  1  0  0  0  0
  4  7  2  0  0  0  0
  5 18  1  0  0  0  0
  5 11  2  0  0  0  0
  6  9  2  0  0  0  0
  6 17  1  0  0  0  0
  7  5  1  0  0  0  0
  8 18  1  0  0  0  0
  9  4  1  0  0  0  0
 10 15  2  0  0  0  0
 11 20  1  0  0  0  0
 12  8  2  0  0  0  0
 14  3  1  0  0  0  0
 14 10  1  0  0  0  0
 15 13  1  0  0  0  0
 16  6  1  0  0  0  0
 17  2  1  0  0  0  0
 18 14  2  0  0  0  0
 19 13  2  0  0  0  0
 20 10  1  0  0  0  0
 20  1  2  0  0  0  0
 21  1  1  0  0  0  0
 22 21  1  6  0  0  0
 22 26  1  0  0  0  0
 23 26  1  0  0  0  0
 24 28  1  0  0  0  0
 24 22  1  0  0  0  0
 26 25  1  1  0  0  0
 27 23  1  0  0  0  0
 28 23  1  0  0  0  0
M  END
>  <MODEL>
9

>  <REMARK>
 VINA RESULT:      -7.5      2.763      6.388
  Name = 
  2 active torsions:
  status: ('A' for Active; 'I' for Inactive)
    1  A    between atoms: C_1  and  C_2
    2  A    between atoms: C_2  and  C_3
                            x       y       z     vdW  Elec       q    Type
                         _______ _______ _______ _____ _____    ______ ____

>  <TORSDO>
F 2

$$$$
