=
 OpenBabel11052417203D

 30 36  0  0  1  0  0  0  0  0999 V2000
  188.3880  176.7720  144.5550 C   0  0  0  0  0  0  0  0  0  0  0  0
  189.7940  177.4460  147.9030 C   0  0  0  0  0  3  0  0  0  0  0  0
  192.7540  173.8110  145.0390 C   0  0  0  0  0  2  0  0  0  0  0  0
  188.6870  176.2050  143.2880 N   0  0  0  0  0  0  0  0  0  0  0  0
  187.0820  177.3030  144.6940 C   0  0  0  0  0  0  0  0  0  0  0  0
  184.9050  177.8140  143.7890 N   0  0  0  0  0  0  0  0  0  0  0  0
  188.7280  175.5460  141.3090 C   0  0  1  0  0  3  0  0  0  0  0  0
  186.1480  177.2940  143.6000 C   0  0  0  0  0  0  0  0  0  0  0  0
  186.6870  177.8580  145.9260 C   0  0  0  0  0  0  0  0  0  0  0  0
  191.0490  173.5090  143.1570 C   0  0  1  0  0  3  0  0  0  0  0  0
  191.2870  173.6720  144.6580 C   0  0  0  0  0  2  0  0  0  0  0  0
  187.5880  177.8930  146.9980 C   0  0  0  0  0  3  0  0  0  0  0  0
  186.5090  176.7290  142.2580 C   0  0  0  0  0  3  0  0  0  0  0  0
  191.0950  176.9700  147.7260 C   0  0  0  0  0  3  0  0  0  0  0  0
  189.6470  174.0180  142.8170 C   0  0  1  0  0  3  0  0  0  0  0  0
  188.2240  172.2610  142.2440 C   0  0  0  0  0  1  0  0  0  0  0  0
  185.4000  178.3750  146.0680 C   0  0  0  0  0  3  0  0  0  0  0  0
  188.8880  177.3920  146.8440 C   0  0  0  0  0  0  0  0  0  0  0  0
  193.1730  175.2740  144.9890 C   0  0  0  0  0  2  0  0  0  0  0  0
  192.8970  175.9810  146.3140 C   0  0  0  0  0  2  0  0  0  0  0  0
  184.5190  178.3430  144.9820 C   0  0  0  0  0  3  0  0  0  0  0  0
  189.3030  176.8410  145.6120 C   0  0  0  0  0  0  0  0  0  0  0  0
  187.7320  176.2350  142.1940 C   0  0  0  0  0  0  0  0  0  0  0  0
  192.0250  174.1520  142.3860 O   0  0  0  0  0  1  0  0  0  0  0  0
  189.6160  175.4870  142.4410 C   0  0  2  0  0  3  0  0  0  0  0  0
  189.0940  173.2870  141.6920 N   0  0  0  0  0  0  0  0  0  0  0  0
  188.5150  173.9880  139.5780 C   0  0  0  0  0  1  0  0  0  0  0  0
  191.4800  176.4440  146.4890 C   0  0  0  0  0  0  0  0  0  0  0  0
  190.5820  176.4030  145.4640 N   0  0  0  0  0  0  0  0  0  0  0  0
  188.2700  174.1920  140.9960 N   0  0  0  0  0  0  0  0  0  0  0  0
  1  5  2  0  0  0  0
  1 22  1  0  0  0  0
  4  1  1  0  0  0  0
  5  9  1  0  0  0  0
  6 21  1  0  0  0  0
  7 23  1  1  0  0  0
  7 25  1  0  0  0  0
  8  6  2  0  0  0  0
  8  5  1  0  0  0  0
  9 17  1  0  0  0  0
  9 12  2  0  0  0  0
 10 24  1  6  0  0  0
 10 11  1  0  0  0  0
 11  3  1  0  0  0  0
 13  8  1  0  0  0  0
 14  2  1  0  0  0  0
 15 26  1  6  0  0  0
 15 10  1  0  0  0  0
 18 12  1  0  0  0  0
 18  2  2  0  0  0  0
 19  3  1  0  0  0  0
 19 20  1  0  0  0  0
 20 28  1  0  0  0  0
 21 17  2  0  0  0  0
 22 18  1  0  0  0  0
 23 13  2  0  0  0  0
 23  4  1  0  0  0  0
 25 15  1  0  0  0  0
 25  4  1  1  0  0  0
 26 16  1  0  0  0  0
 27 30  1  0  0  0  0
 28 14  2  0  0  0  0
 29 22  2  0  0  0  0
 29 28  1  0  0  0  0
 30  7  1  0  0  0  0
 30 26  1  0  0  0  0
M  END
>  <MODEL>
1

>  <REMARK>
 VINA RESULT:      -8.6      0.000      0.000
  Name = 
  0 active torsions:
  status: ('A' for Active; 'I' for Inactive)
                            x       y       z     vdW  Elec       q    Type
                         _______ _______ _______ _____ _____    ______ ____

>  <TORSDO>
F 0

$$$$
=
 OpenBabel11052417203D

 30 36  0  0  1  0  0  0  0  0999 V2000
  189.5520  175.8910  144.3020 C   0  0  0  0  0  0  0  0  0  0  0  0
  190.5630  177.0800  147.6500 C   0  0  0  0  0  3  0  0  0  0  0  0
  194.1330  173.5090  145.4870 C   0  0  0  0  0  2  0  0  0  0  0  0
  190.0250  175.2270  143.1400 N   0  0  0  0  0  0  0  0  0  0  0  0
  188.1910  176.2850  144.2710 C   0  0  0  0  0  0  0  0  0  0  0  0
  186.0690  176.4470  143.1380 N   0  0  0  0  0  0  0  0  0  0  0  0
  190.3180  174.3640  141.2630 C   0  0  1  0  0  3  0  0  0  0  0  0
  187.3700  176.0520  143.1140 C   0  0  0  0  0  0  0  0  0  0  0  0
  187.6290  176.9220  145.3930 C   0  0  0  0  0  0  0  0  0  0  0  0
  192.6520  172.8140  143.5220 C   0  0  1  0  0  3  0  0  0  0  0  0
  192.7300  173.1650  145.0080 C   0  0  0  0  0  2  0  0  0  0  0  0
  188.4170  177.1750  146.5220 C   0  0  0  0  0  3  0  0  0  0  0  0
  187.9110  175.3880  141.8810 C   0  0  0  0  0  3  0  0  0  0  0  0
  191.9160  176.7350  147.6380 C   0  0  0  0  0  3  0  0  0  0  0  0
  191.2430  173.1230  143.0110 C   0  0  1  0  0  3  0  0  0  0  0  0
  190.0660  171.1660  142.5360 C   0  0  0  0  0  1  0  0  0  0  0  0
  186.2880  177.3050  145.3670 C   0  0  0  0  0  3  0  0  0  0  0  0
  189.7700  176.8090  146.5350 C   0  0  0  0  0  0  0  0  0  0  0  0
  194.4040  174.9950  145.2990 C   0  0  0  0  0  2  0  0  0  0  0  0
  193.9340  175.8070  146.5040 C   0  0  0  0  0  2  0  0  0  0  0  0
  185.5200  177.0560  144.2250 C   0  0  0  0  0  3  0  0  0  0  0  0
  190.3520  176.1780  145.4140 C   0  0  0  0  0  0  0  0  0  0  0  0
  189.1790  175.0300  141.9770 C   0  0  0  0  0  0  0  0  0  0  0  0
  193.6240  173.4750  142.7620 O   0  0  0  0  0  1  0  0  0  0  0  0
  191.0980  174.5290  142.4630 C   0  0  2  0  0  3  0  0  0  0  0  0
  190.8760  172.2170  141.9390 N   0  0  0  0  0  0  0  0  0  0  0  0
  190.4280  172.6130  139.7170 C   0  0  0  0  0  1  0  0  0  0  0  0
  192.4670  176.1250  146.5070 C   0  0  0  0  0  0  0  0  0  0  0  0
  191.6780  175.8720  145.4240 N   0  0  0  0  0  0  0  0  0  0  0  0
  190.0320  172.9420  141.0760 N   0  0  0  0  0  0  0  0  0  0  0  0
  1 22  1  0  0  0  0
  4  1  1  0  0  0  0
  5  1  2  0  0  0  0
  5  9  1  0  0  0  0
  6 21  1  0  0  0  0
  7 23  1  1  0  0  0
  7 25  1  0  0  0  0
  8  6  2  0  0  0  0
  8  5  1  0  0  0  0
  9 12  2  0  0  0  0
 10 24  1  6  0  0  0
 10 11  1  0  0  0  0
 11  3  1  0  0  0  0
 12 18  1  0  0  0  0
 13 23  2  0  0  0  0
 13  8  1  0  0  0  0
 14  2  1  0  0  0  0
 15 26  1  6  0  0  0
 15 10  1  0  0  0  0
 17  9  1  0  0  0  0
 18  2  2  0  0  0  0
 19  3  1  0  0  0  0
 19 20  1  0  0  0  0
 20 28  1  0  0  0  0
 21 17  2  0  0  0  0
 22 29  2  0  0  0  0
 22 18  1  0  0  0  0
 23  4  1  0  0  0  0
 25 15  1  0  0  0  0
 25  4  1  1  0  0  0
 26 16  1  0  0  0  0
 27 30  1  0  0  0  0
 28 14  2  0  0  0  0
 29 28  1  0  0  0  0
 30  7  1  0  0  0  0
 30 26  1  0  0  0  0
M  END
>  <MODEL>
2

>  <REMARK>
 VINA RESULT:      -8.6      1.320      1.647
  Name = 
  0 active torsions:
  status: ('A' for Active; 'I' for Inactive)
                            x       y       z     vdW  Elec       q    Type
                         _______ _______ _______ _____ _____    ______ ____

>  <TORSDO>
F 0

$$$$
=
 OpenBabel11052417203D

 30 36  0  0  1  0  0  0  0  0999 V2000
  187.0540  177.3530  143.6130 C   0  0  0  0  0  0  0  0  0  0  0  0
  185.9410  178.7290  146.8540 C   0  0  0  0  0  3  0  0  0  0  0  0
  190.1850  175.2750  147.3470 C   0  0  0  0  0  2  0  0  0  0  0  0
  188.1220  176.6690  142.9730 N   0  0  0  0  0  0  0  0  0  0  0  0
  185.9480  177.6700  142.7860 C   0  0  0  0  0  0  0  0  0  0  0  0
  184.8520  177.6700  140.6380 N   0  0  0  0  0  0  0  0  0  0  0  0
  189.4550  175.7500  141.6580 C   0  0  1  0  0  3  0  0  0  0  0  0
  185.9410  177.3460  141.3850 C   0  0  0  0  0  0  0  0  0  0  0  0
  184.8310  178.3200  143.3440 C   0  0  0  0  0  0  0  0  0  0  0  0
  190.1090  174.4220  144.9380 C   0  0  1  0  0  3  0  0  0  0  0  0
  189.3160  174.8360  146.1770 C   0  0  0  0  0  2  0  0  0  0  0  0
  184.8260  178.6610  144.7020 C   0  0  0  0  0  3  0  0  0  0  0  0
  187.1040  176.6640  140.7260 C   0  0  0  0  0  3  0  0  0  0  0  0
  187.0650  178.4590  147.6380 C   0  0  0  0  0  3  0  0  0  0  0  0
  189.2400  174.6320  143.6970 C   0  0  1  0  0  3  0  0  0  0  0  0
  188.5900  172.5960  142.7630 C   0  0  0  0  0  1  0  0  0  0  0  0
  183.7380  178.6270  142.5340 C   0  0  0  0  0  3  0  0  0  0  0  0
  185.9350  178.3710  145.5060 C   0  0  0  0  0  0  0  0  0  0  0  0
  190.4820  176.7660  147.2520 C   0  0  0  0  0  2  0  0  0  0  0  0
  189.3890  177.5980  147.9190 C   0  0  0  0  0  2  0  0  0  0  0  0
  183.7670  178.2910  141.1760 C   0  0  0  0  0  3  0  0  0  0  0  0
  187.0680  177.7270  144.9610 C   0  0  0  0  0  0  0  0  0  0  0  0
  188.0980  176.3800  141.5500 C   0  0  0  0  0  0  0  0  0  0  0  0
  191.3270  175.1040  144.8270 O   0  0  0  0  0  1  0  0  0  0  0  0
  189.4040  176.0050  143.0750 C   0  0  2  0  0  3  0  0  0  0  0  0
  189.5720  173.6650  142.6670 N   0  0  0  0  0  0  0  0  0  0  0  0
  190.4680  173.9460  140.5670 C   0  0  0  0  0  1  0  0  0  0  0  0
  188.1780  177.8350  147.0650 C   0  0  0  0  0  0  0  0  0  0  0  0
  188.1560  177.4960  145.7440 N   0  0  0  0  0  0  0  0  0  0  0  0
  189.3580  174.3080  141.4330 N   0  0  0  0  0  0  0  0  0  0  0  0
  1 22  1  0  0  0  0
  2 14  1  0  0  0  0
  4  1  1  0  0  0  0
  5  9  1  0  0  0  0
  5  1  2  0  0  0  0
  6 21  1  0  0  0  0
  6  8  2  0  0  0  0
  7 23  1  6  0  0  0
  7 25  1  0  0  0  0
  8  5  1  0  0  0  0
  9 12  2  0  0  0  0
 10 24  1  6  0  0  0
 10 11  1  0  0  0  0
 11  3  1  0  0  0  0
 12 18  1  0  0  0  0
 13  8  1  0  0  0  0
 13 23  2  0  0  0  0
 15 26  1  6  0  0  0
 15 10  1  0  0  0  0
 17  9  1  0  0  0  0
 18  2  2  0  0  0  0
 19  3  1  0  0  0  0
 19 20  1  0  0  0  0
 21 17  2  0  0  0  0
 22 18  1  0  0  0  0
 22 29  2  0  0  0  0
 23  4  1  0  0  0  0
 25  4  1  6  0  0  0
 25 15  1  0  0  0  0
 26 16  1  0  0  0  0
 27 30  1  0  0  0  0
 28 14  2  0  0  0  0
 28 20  1  0  0  0  0
 29 28  1  0  0  0  0
 30  7  1  0  0  0  0
 30 26  1  0  0  0  0
M  END
>  <MODEL>
3

>  <REMARK>
 VINA RESULT:      -8.5      1.662      2.780
  Name = 
  0 active torsions:
  status: ('A' for Active; 'I' for Inactive)
                            x       y       z     vdW  Elec       q    Type
                         _______ _______ _______ _____ _____    ______ ____

>  <TORSDO>
F 0

$$$$
=
 OpenBabel11052417203D

 30 36  0  0  1  0  0  0  0  0999 V2000
  188.0360  176.1980  143.3130 C   0  0  0  0  0  0  0  0  0  0  0  0
  187.4410  175.6970  139.7020 C   0  0  0  0  0  3  0  0  0  0  0  0
  191.8360  172.9610  141.5400 C   0  0  0  0  0  2  0  0  0  0  0  0
  188.7460  175.6860  144.4310 N   0  0  0  0  0  0  0  0  0  0  0  0
  187.2230  177.3290  143.5700 C   0  0  0  0  0  0  0  0  0  0  0  0
  186.3160  178.9750  145.0830 N   0  0  0  0  0  0  0  0  0  0  0  0
  189.5410  175.2310  146.3050 C   0  0  1  0  0  3  0  0  0  0  0  0
  187.1070  177.8850  144.8920 C   0  0  0  0  0  0  0  0  0  0  0  0
  186.5070  177.9220  142.5130 C   0  0  0  0  0  0  0  0  0  0  0  0
  191.8950  174.0740  143.8410 C   0  0  1  0  0  3  0  0  0  0  0  0
  191.6790  174.2470  142.3380 C   0  0  0  0  0  2  0  0  0  0  0  0
  186.5910  177.3850  141.2230 C   0  0  0  0  0  3  0  0  0  0  0  0
  187.8350  177.2940  146.0640 C   0  0  0  0  0  3  0  0  0  0  0  0
  188.2030  174.5480  139.4820 C   0  0  0  0  0  3  0  0  0  0  0  0
  191.1180  175.1620  144.5840 C   0  0  1  0  0  3  0  0  0  0  0  0
  192.5580  176.7260  145.5450 C   0  0  0  0  0  1  0  0  0  0  0  0
  185.7110  179.0410  142.7630 C   0  0  0  0  0  3  0  0  0  0  0  0
  187.3740  176.2480  140.9820 C   0  0  0  0  0  0  0  0  0  0  0  0
  190.5080  172.2190  141.4710 C   0  0  0  0  0  2  0  0  0  0  0  0
  189.6620  172.6940  140.2900 C   0  0  0  0  0  2  0  0  0  0  0  0
  185.6300  179.5550  144.0610 C   0  0  0  0  0  3  0  0  0  0  0  0
  188.0910  175.6350  142.0330 C   0  0  0  0  0  0  0  0  0  0  0  0
  188.5880  176.2520  145.7590 C   0  0  0  0  0  0  0  0  0  0  0  0
  191.5390  172.7980  144.2920 O   0  0  0  0  0  1  0  0  0  0  0  0
  189.7100  174.7440  144.9600 C   0  0  2  0  0  3  0  0  0  0  0  0
  191.7910  175.5210  145.8190 N   0  0  0  0  0  0  0  0  0  0  0  0
  191.1380  175.2910  148.0130 C   0  0  0  0  0  1  0  0  0  0  0  0
  188.8890  173.9550  140.5470 C   0  0  0  0  0  0  0  0  0  0  0  0
  188.8080  174.5040  141.7920 N   0  0  0  0  0  0  0  0  0  0  0  0
  190.7810  175.8790  146.7330 N   0  0  0  0  0  0  0  0  0  0  0  0
  1  5  1  0  0  0  0
  1  4  1  0  0  0  0
  2 18  1  0  0  0  0
  3 11  1  0  0  0  0
  4 23  1  0  0  0  0
  5  8  1  0  0  0  0
  7 23  1  6  0  0  0
  7 30  1  0  0  0  0
  8  6  2  0  0  0  0
  8 13  1  0  0  0  0
  9 17  1  0  0  0  0
  9  5  2  0  0  0  0
 10 24  1  1  0  0  0
 10 15  1  0  0  0  0
 11 10  1  0  0  0  0
 12  9  1  0  0  0  0
 14  2  2  0  0  0  0
 14 28  1  0  0  0  0
 15 25  1  0  0  0  0
 15 26  1  1  0  0  0
 16 26  1  0  0  0  0
 17 21  2  0  0  0  0
 18 12  2  0  0  0  0
 18 22  1  0  0  0  0
 19  3  1  0  0  0  0
 20 28  1  0  0  0  0
 20 19  1  0  0  0  0
 21  6  1  0  0  0  0
 22  1  2  0  0  0  0
 23 13  2  0  0  0  0
 25  4  1  6  0  0  0
 25  7  1  0  0  0  0
 26 30  1  0  0  0  0
 28 29  2  0  0  0  0
 29 22  1  0  0  0  0
 30 27  1  0  0  0  0
M  END
>  <MODEL>
4

>  <REMARK>
 VINA RESULT:      -8.0      1.527      4.958
  Name = 
  0 active torsions:
  status: ('A' for Active; 'I' for Inactive)
                            x       y       z     vdW  Elec       q    Type
                         _______ _______ _______ _____ _____    ______ ____

>  <TORSDO>
F 0

$$$$
=
 OpenBabel11052417203D

 30 36  0  0  1  0  0  0  0  0999 V2000
  188.5930  176.3010  143.0400 C   0  0  0  0  0  0  0  0  0  0  0  0
  185.6290  177.4650  141.1690 C   0  0  0  0  0  3  0  0  0  0  0  0
  185.3000  178.5120  146.5520 C   0  0  0  0  0  2  0  0  0  0  0  0
  189.2740  176.4190  144.2810 N   0  0  0  0  0  0  0  0  0  0  0  0
  189.1900  175.4310  142.0950 C   0  0  0  0  0  0  0  0  0  0  0  0
  190.9520  173.9210  141.4360 N   0  0  0  0  0  0  0  0  0  0  0  0
  190.5940  176.3490  145.8960 C   0  0  1  0  0  3  0  0  0  0  0  0
  190.4240  174.7490  142.3770 C   0  0  0  0  0  0  0  0  0  0  0  0
  188.5660  175.2300  140.8490 C   0  0  0  0  0  0  0  0  0  0  0  0
  187.3340  177.1110  147.2160 C   0  0  1  0  0  3  0  0  0  0  0  0
  186.0870  177.2260  146.3400 C   0  0  0  0  0  2  0  0  0  0  0  0
  187.3740  175.8990  140.5470 C   0  0  0  0  0  3  0  0  0  0  0  0
  191.1460  174.9290  143.6810 C   0  0  0  0  0  3  0  0  0  0  0  0
  185.0890  178.3630  142.0930 C   0  0  0  0  0  3  0  0  0  0  0  0
  188.3480  176.2020  146.5220 C   0  0  1  0  0  3  0  0  0  0  0  0
  188.5660  174.1660  147.6390 C   0  0  0  0  0  1  0  0  0  0  0  0
  189.1480  174.3680  139.9190 C   0  0  0  0  0  3  0  0  0  0  0  0
  186.8050  176.7810  141.4760 C   0  0  0  0  0  0  0  0  0  0  0  0
  185.8310  179.6090  145.6400 C   0  0  0  0  0  2  0  0  0  0  0  0
  185.1550  179.5760  144.2710 C   0  0  0  0  0  2  0  0  0  0  0  0
  190.3460  173.7190  140.2340 C   0  0  0  0  0  3  0  0  0  0  0  0
  187.4230  177.0010  142.7270 C   0  0  0  0  0  0  0  0  0  0  0  0
  190.5330  175.7390  144.5270 C   0  0  0  0  0  0  0  0  0  0  0  0
  187.8930  178.3580  147.5210 O   0  0  0  0  0  1  0  0  0  0  0  0
  189.3140  176.9530  145.6260 C   0  0  2  0  0  3  0  0  0  0  0  0
  189.1520  175.4890  147.4980 N   0  0  0  0  0  0  0  0  0  0  0  0
  191.4060  175.5830  147.9500 C   0  0  0  0  0  1  0  0  0  0  0  0
  185.7330  178.5720  143.3160 C   0  0  0  0  0  0  0  0  0  0  0  0
  186.8840  177.8970  143.5980 N   0  0  0  0  0  0  0  0  0  0  0  0
  190.4220  175.3140  146.9150 N   0  0  0  0  0  0  0  0  0  0  0  0
  1  4  1  0  0  0  0
  2 18  2  0  0  0  0
  2 14  1  0  0  0  0
  4 23  1  0  0  0  0
  5  8  1  0  0  0  0
  5  1  2  0  0  0  0
  6  8  2  0  0  0  0
  7 23  1  6  0  0  0
  7 30  1  0  0  0  0
  8 13  1  0  0  0  0
  9  5  1  0  0  0  0
 10 24  1  6  0  0  0
 11  3  1  0  0  0  0
 11 10  1  0  0  0  0
 12  9  2  0  0  0  0
 12 18  1  0  0  0  0
 13 23  2  0  0  0  0
 14 28  2  0  0  0  0
 15 10  1  0  0  0  0
 15 26  1  1  0  0  0
 17 21  2  0  0  0  0
 17  9  1  0  0  0  0
 18 22  1  0  0  0  0
 19  3  1  0  0  0  0
 20 19  1  0  0  0  0
 21  6  1  0  0  0  0
 22  1  1  0  0  0  0
 22 29  2  0  0  0  0
 25  4  1  6  0  0  0
 25  7  1  0  0  0  0
 25 15  1  0  0  0  0
 26 16  1  0  0  0  0
 28 29  1  0  0  0  0
 28 20  1  0  0  0  0
 30 26  1  0  0  0  0
 30 27  1  0  0  0  0
M  END
>  <MODEL>
5

>  <REMARK>
 VINA RESULT:      -7.8      2.160      6.437
  Name = 
  0 active torsions:
  status: ('A' for Active; 'I' for Inactive)
                            x       y       z     vdW  Elec       q    Type
                         _______ _______ _______ _____ _____    ______ ____

>  <TORSDO>
F 0

$$$$
=
 OpenBabel11052417203D

 30 36  0  0  1  0  0  0  0  0999 V2000
  188.9020  176.6880  145.5350 C   0  0  0  0  0  0  0  0  0  0  0  0
  188.1870  178.6720  148.5670 C   0  0  0  0  0  3  0  0  0  0  0  0
  184.5090  179.4880  144.5690 C   0  0  0  0  0  2  0  0  0  0  0  0
  188.3350  176.2270  144.3170 N   0  0  0  0  0  0  0  0  0  0  0  0
  190.2440  176.3000  145.7710 C   0  0  0  0  0  0  0  0  0  0  0  0
  192.2450  175.1230  145.1170 N   0  0  0  0  0  0  0  0  0  0  0  0
  187.8850  175.3110  142.4970 C   0  0  1  0  0  3  0  0  0  0  0  0
  190.9570  175.4620  144.8440 C   0  0  0  0  0  0  0  0  0  0  0  0
  190.8960  176.7380  146.9390 C   0  0  0  0  0  0  0  0  0  0  0  0
  185.8130  178.2420  142.7560 C   0  0  1  0  0  3  0  0  0  0  0  0
  185.8680  179.1980  143.9470 C   0  0  0  0  0  2  0  0  0  0  0  0
  190.2130  177.5380  147.8630 C   0  0  0  0  0  3  0  0  0  0  0  0
  190.3160  174.9520  143.5860 C   0  0  0  0  0  3  0  0  0  0  0  0
  186.8480  178.9940  148.3430 C   0  0  0  0  0  3  0  0  0  0  0  0
  187.1590  177.5270  142.6280 C   0  0  1  0  0  3  0  0  0  0  0  0
  188.3290  178.2510  140.7450 C   0  0  0  0  0  1  0  0  0  0  0  0
  192.2190  176.3630  147.1700 C   0  0  0  0  0  3  0  0  0  0  0  0
  188.8770  177.8930  147.6380 C   0  0  0  0  0  0  0  0  0  0  0  0
  184.1880  178.4510  145.6370 C   0  0  0  0  0  2  0  0  0  0  0  0
  184.7520  178.8560  146.9980 C   0  0  0  0  0  2  0  0  0  0  0  0
  192.8800  175.5520  146.2420 C   0  0  0  0  0  3  0  0  0  0  0  0
  188.2050  177.4550  146.4750 C   0  0  0  0  0  0  0  0  0  0  0  0
  189.0710  175.3600  143.4140 C   0  0  0  0  0  0  0  0  0  0  0  0
  184.7570  177.3270  142.8500 O   0  0  0  0  0  1  0  0  0  0  0  0
  187.2190  176.2200  143.3950 C   0  0  2  0  0  3  0  0  0  0  0  0
  187.4430  177.2100  141.2410 N   0  0  0  0  0  0  0  0  0  0  0  0
  187.6680  175.1850  140.1730 C   0  0  0  0  0  1  0  0  0  0  0  0
  186.2050  178.5320  147.1900 C   0  0  0  0  0  0  0  0  0  0  0  0
  186.8930  177.7680  146.2940 N   0  0  0  0  0  0  0  0  0  0  0  0
  188.1840  176.0130  141.2500 N   0  0  0  0  0  0  0  0  0  0  0  0
  1  5  2  0  0  0  0
  1 22  1  0  0  0  0
  3 19  1  0  0  0  0
  4  1  1  0  0  0  0
  5  9  1  0  0  0  0
  6 21  1  0  0  0  0
  7 25  1  0  0  0  0
  7 23  1  1  0  0  0
  8  6  2  0  0  0  0
  8  5  1  0  0  0  0
  9 17  1  0  0  0  0
  9 12  2  0  0  0  0
 10 24  1  1  0  0  0
 10 11  1  0  0  0  0
 11  3  1  0  0  0  0
 13  8  1  0  0  0  0
 14  2  1  0  0  0  0
 15 26  1  6  0  0  0
 15 10  1  0  0  0  0
 15 25  1  0  0  0  0
 16 26  1  0  0  0  0
 18 12  1  0  0  0  0
 18  2  2  0  0  0  0
 19 20  1  0  0  0  0
 20 28  1  0  0  0  0
 21 17  2  0  0  0  0
 22 18  1  0  0  0  0
 23 13  2  0  0  0  0
 23  4  1  0  0  0  0
 25  4  1  1  0  0  0
 26 30  1  0  0  0  0
 27 30  1  0  0  0  0
 28 14  2  0  0  0  0
 29 22  2  0  0  0  0
 29 28  1  0  0  0  0
 30  7  1  0  0  0  0
M  END
>  <MODEL>
6

>  <REMARK>
 VINA RESULT:      -7.8      2.132      5.469
  Name = 
  0 active torsions:
  status: ('A' for Active; 'I' for Inactive)
                            x       y       z     vdW  Elec       q    Type
                         _______ _______ _______ _____ _____    ______ ____

>  <TORSDO>
F 0

$$$$
=
 OpenBabel11052417203D

 30 36  0  0  1  0  0  0  0  0999 V2000
  190.2060  176.0290  144.5730 C   0  0  0  0  0  0  0  0  0  0  0  0
  192.4530  176.8130  147.3970 C   0  0  0  0  0  3  0  0  0  0  0  0
  194.7250  173.3900  143.7500 C   0  0  0  0  0  2  0  0  0  0  0  0
  190.1730  175.4810  143.2640 N   0  0  0  0  0  0  0  0  0  0  0  0
  188.9590  176.4660  145.0850 C   0  0  0  0  0  0  0  0  0  0  0  0
  186.5850  176.8170  144.8420 N   0  0  0  0  0  0  0  0  0  0  0  0
  189.6960  174.8210  141.3430 C   0  0  1  0  0  3  0  0  0  0  0  0
  187.7560  176.3870  144.3010 C   0  0  0  0  0  0  0  0  0  0  0  0
  188.8920  176.9940  146.3880 C   0  0  0  0  0  0  0  0  0  0  0  0
  192.5820  172.9610  142.4230 C   0  0  1  0  0  3  0  0  0  0  0  0
  193.2240  173.1450  143.7980 C   0  0  0  0  0  2  0  0  0  0  0  0
  190.0550  177.0970  147.1610 C   0  0  0  0  0  3  0  0  0  0  0  0
  187.7600  175.8450  142.9010 C   0  0  0  0  0  3  0  0  0  0  0  0
  193.6800  176.4300  146.8520 C   0  0  0  0  0  3  0  0  0  0  0  0
  191.1100  173.3670  142.5020 C   0  0  1  0  0  3  0  0  0  0  0  0
  189.7070  171.5110  142.3240 C   0  0  0  0  0  1  0  0  0  0  0  0
  187.6650  177.4190  146.8980 C   0  0  0  0  0  3  0  0  0  0  0  0
  191.2890  176.6910  146.6380 C   0  0  0  0  0  0  0  0  0  0  0  0
  195.0100  174.8790  143.6100 C   0  0  0  0  0  2  0  0  0  0  0  0
  195.0720  175.5690  144.9710 C   0  0  0  0  0  2  0  0  0  0  0  0
  186.5170  177.3200  146.1050 C   0  0  0  0  0  3  0  0  0  0  0  0
  191.3750  176.1670  145.3290 C   0  0  0  0  0  0  0  0  0  0  0  0
  188.9470  175.4390  142.4850 C   0  0  0  0  0  0  0  0  0  0  0  0
  193.2520  173.6700  141.4180 O   0  0  0  0  0  1  0  0  0  0  0  0
  190.8710  174.8290  142.1760 C   0  0  2  0  0  3  0  0  0  0  0  0
  190.3120  172.5960  141.5670 N   0  0  0  0  0  0  0  0  0  0  0  0
  189.1100  173.2460  139.7160 C   0  0  0  0  0  1  0  0  0  0  0  0
  193.7340  175.9300  145.5470 C   0  0  0  0  0  0  0  0  0  0  0  0
  192.5880  175.8210  144.8170 N   0  0  0  0  0  0  0  0  0  0  0  0
  189.2640  173.4370  141.1490 N   0  0  0  0  0  0  0  0  0  0  0  0
  1  5  2  0  0  0  0
  1 22  1  0  0  0  0
  3 11  1  0  0  0  0
  4  1  1  0  0  0  0
  5  9  1  0  0  0  0
  6 21  1  0  0  0  0
  7 25  1  0  0  0  0
  7 23  1  1  0  0  0
  8  6  2  0  0  0  0
  8  5  1  0  0  0  0
  9 17  1  0  0  0  0
  9 12  2  0  0  0  0
 10 24  1  6  0  0  0
 10 15  1  0  0  0  0
 10 11  1  0  0  0  0
 13  8  1  0  0  0  0
 14  2  1  0  0  0  0
 15 26  1  6  0  0  0
 18 12  1  0  0  0  0
 18  2  2  0  0  0  0
 19  3  1  0  0  0  0
 19 20  1  0  0  0  0
 20 28  1  0  0  0  0
 21 17  2  0  0  0  0
 22 18  1  0  0  0  0
 23 13  2  0  0  0  0
 23  4  1  0  0  0  0
 25 15  1  0  0  0  0
 25  4  1  1  0  0  0
 26 16  1  0  0  0  0
 27 30  1  0  0  0  0
 28 14  2  0  0  0  0
 29 22  2  0  0  0  0
 29 28  1  0  0  0  0
 30  7  1  0  0  0  0
 30 26  1  0  0  0  0
M  END
>  <MODEL>
7

>  <REMARK>
 VINA RESULT:      -7.7      1.384      2.081
  Name = 
  0 active torsions:
  status: ('A' for Active; 'I' for Inactive)
                            x       y       z     vdW  Elec       q    Type
                         _______ _______ _______ _____ _____    ______ ____

>  <TORSDO>
F 0

$$$$
=
 OpenBabel11052417203D

 30 36  0  0  1  0  0  0  0  0999 V2000
  190.4920  175.1320  142.8270 C   0  0  0  0  0  0  0  0  0  0  0  0
  187.1150  176.0890  143.9750 C   0  0  0  0  0  3  0  0  0  0  0  0
  190.8400  176.1570  148.0130 C   0  0  0  0  0  2  0  0  0  0  0  0
  191.8650  175.1510  143.1890 N   0  0  0  0  0  0  0  0  0  0  0  0
  190.1980  174.5410  141.5730 C   0  0  0  0  0  0  0  0  0  0  0  0
  190.9010  173.4710  139.5290 N   0  0  0  0  0  0  0  0  0  0  0  0
  193.9450  175.0300  143.2990 C   0  0  1  0  0  3  0  0  0  0  0  0
  191.2390  174.0330  140.7200 C   0  0  0  0  0  0  0  0  0  0  0  0
  188.8590  174.4500  141.1470 C   0  0  0  0  0  0  0  0  0  0  0  0
  192.6970  175.0180  146.6750 C   0  0  1  0  0  3  0  0  0  0  0  0
  191.2070  175.0710  147.0120 C   0  0  0  0  0  2  0  0  0  0  0  0
  187.8330  174.9560  141.9550 C   0  0  0  0  0  3  0  0  0  0  0  0
  192.6860  174.1090  141.1100 C   0  0  0  0  0  3  0  0  0  0  0  0
  187.4320  176.7200  145.1800 C   0  0  0  0  0  3  0  0  0  0  0  0
  192.8710  174.4150  145.2800 C   0  0  1  0  0  3  0  0  0  0  0  0
  193.8160  172.2850  145.3880 C   0  0  0  0  0  1  0  0  0  0  0  0
  188.5660  173.8620  139.9170 C   0  0  0  0  0  3  0  0  0  0  0  0
  188.1340  175.5650  143.1790 C   0  0  0  0  0  0  0  0  0  0  0  0
  190.5460  177.4630  147.2870 C   0  0  0  0  0  2  0  0  0  0  0  0
  189.0830  177.5470  146.8560 C   0  0  0  0  0  2  0  0  0  0  0  0
  189.6070  173.3750  139.1190 C   0  0  0  0  0  3  0  0  0  0  0  0
  189.4720  175.6730  143.6170 C   0  0  0  0  0  0  0  0  0  0  0  0
  192.8960  174.6550  142.2940 C   0  0  0  0  0  0  0  0  0  0  0  0
  193.3140  176.2710  146.7680 O   0  0  0  0  0  1  0  0  0  0  0  0
  192.8820  175.4530  144.1740 C   0  0  2  0  0  3  0  0  0  0  0  0
  194.1260  173.6920  145.1850 N   0  0  0  0  0  0  0  0  0  0  0  0
  195.9940  174.0770  143.8990 C   0  0  0  0  0  1  0  0  0  0  0  0
  188.7680  176.8250  145.5790 C   0  0  0  0  0  0  0  0  0  0  0  0
  189.7510  176.3110  144.7870 N   0  0  0  0  0  0  0  0  0  0  0  0
  194.5630  173.8270  143.8530 N   0  0  0  0  0  0  0  0  0  0  0  0
  1  4  1  0  0  0  0
  1 22  1  0  0  0  0
  2 14  1  0  0  0  0
  5  1  2  0  0  0  0
  6  8  2  0  0  0  0
  7 23  1  6  0  0  0
  7 30  1  0  0  0  0
  7 25  1  0  0  0  0
  8 13  1  0  0  0  0
  8  5  1  0  0  0  0
  9  5  1  0  0  0  0
  9 12  2  0  0  0  0
 10 24  1  6  0  0  0
 10 11  1  0  0  0  0
 11  3  1  0  0  0  0
 12 18  1  0  0  0  0
 13 23  2  0  0  0  0
 14 28  2  0  0  0  0
 15 26  1  1  0  0  0
 15 10  1  0  0  0  0
 17  9  1  0  0  0  0
 18 22  1  0  0  0  0
 18  2  2  0  0  0  0
 19  3  1  0  0  0  0
 20 19  1  0  0  0  0
 21  6  1  0  0  0  0
 21 17  2  0  0  0  0
 22 29  2  0  0  0  0
 23  4  1  0  0  0  0
 25  4  1  6  0  0  0
 25 15  1  0  0  0  0
 26 16  1  0  0  0  0
 28 20  1  0  0  0  0
 29 28  1  0  0  0  0
 30 27  1  0  0  0  0
 30 26  1  0  0  0  0
M  END
>  <MODEL>
8

>  <REMARK>
 VINA RESULT:      -7.4      2.194      5.509
  Name = 
  0 active torsions:
  status: ('A' for Active; 'I' for Inactive)
                            x       y       z     vdW  Elec       q    Type
                         _______ _______ _______ _____ _____    ______ ____

>  <TORSDO>
F 0

$$$$
=
 OpenBabel11052417203D

 30 36  0  0  1  0  0  0  0  0999 V2000
  190.9130  175.1430  144.2610 C   0  0  0  0  0  0  0  0  0  0  0  0
  188.2460  175.2280  141.7080 C   0  0  0  0  0  3  0  0  0  0  0  0
  193.0410  173.4240  139.7240 C   0  0  0  0  0  2  0  0  0  0  0  0
  192.2040  174.6230  144.5400 N   0  0  0  0  0  0  0  0  0  0  0  0
  190.3440  175.9490  145.2780 C   0  0  0  0  0  0  0  0  0  0  0  0
  190.4410  176.9690  147.4620 N   0  0  0  0  0  0  0  0  0  0  0  0
  194.0280  174.0310  145.3630 C   0  0  1  0  0  3  0  0  0  0  0  0
  191.0300  176.1840  146.5210 C   0  0  0  0  0  0  0  0  0  0  0  0
  189.0790  176.5320  145.0740 C   0  0  0  0  0  0  0  0  0  0  0  0
  194.4240  174.0380  141.7850 C   0  0  1  0  0  3  0  0  0  0  0  0
  193.3060  174.4420  140.8250 C   0  0  0  0  0  2  0  0  0  0  0  0
  188.3870  176.3010  143.8790 C   0  0  0  0  0  3  0  0  0  0  0  0
  192.3750  175.5830  146.8060 C   0  0  0  0  0  3  0  0  0  0  0  0
  188.7980  174.3840  140.7430 C   0  0  0  0  0  3  0  0  0  0  0  0
  194.1900  174.7170  143.1360 C   0  0  1  0  0  3  0  0  0  0  0  0
  195.7760  176.3800  143.5350 C   0  0  0  0  0  1  0  0  0  0  0  0
  188.5210  177.3320  146.0710 C   0  0  0  0  0  3  0  0  0  0  0  0
  188.9420  175.4780  142.8900 C   0  0  0  0  0  0  0  0  0  0  0  0
  192.0270  172.3910  140.1970 C   0  0  0  0  0  2  0  0  0  0  0  0
  190.5940  172.8530  139.9360 C   0  0  0  0  0  2  0  0  0  0  0  0
  189.2220  177.5410  147.2630 C   0  0  0  0  0  3  0  0  0  0  0  0
  190.2060  174.8780  143.0830 C   0  0  0  0  0  0  0  0  0  0  0  0
  192.8600  174.8550  145.8150 C   0  0  0  0  0  0  0  0  0  0  0  0
  194.5360  172.6490  141.9270 O   0  0  0  0  0  1  0  0  0  0  0  0
  193.3630  173.8800  144.0930 C   0  0  2  0  0  3  0  0  0  0  0  0
  195.4520  174.9870  143.8010 N   0  0  0  0  0  0  0  0  0  0  0  0
  196.3280  174.1660  145.7630 C   0  0  0  0  0  1  0  0  0  0  0  0
  190.0450  173.7920  140.9700 C   0  0  0  0  0  0  0  0  0  0  0  0
  190.7100  174.0440  142.1330 N   0  0  0  0  0  0  0  0  0  0  0  0
  195.2040  174.8810  145.1830 N   0  0  0  0  0  0  0  0  0  0  0  0
  1  4  1  0  0  0  0
  1  5  1  0  0  0  0
  2 18  1  0  0  0  0
  3 19  1  0  0  0  0
  3 11  1  0  0  0  0
  4 23  1  0  0  0  0
  5  8  1  0  0  0  0
  7 23  1  1  0  0  0
  8 13  1  0  0  0  0
  8  6  2  0  0  0  0
  9  5  2  0  0  0  0
  9 17  1  0  0  0  0
 10 24  1  1  0  0  0
 10 15  1  0  0  0  0
 11 10  1  0  0  0  0
 12  9  1  0  0  0  0
 14 28  1  0  0  0  0
 14  2  2  0  0  0  0
 15 26  1  1  0  0  0
 15 25  1  0  0  0  0
 16 26  1  0  0  0  0
 17 21  2  0  0  0  0
 18 22  1  0  0  0  0
 18 12  2  0  0  0  0
 20 19  1  0  0  0  0
 20 28  1  0  0  0  0
 21  6  1  0  0  0  0
 22  1  2  0  0  0  0
 23 13  2  0  0  0  0
 25  4  1  1  0  0  0
 25  7  1  0  0  0  0
 26 30  1  0  0  0  0
 28 29  2  0  0  0  0
 29 22  1  0  0  0  0
 30  7  1  0  0  0  0
 30 27  1  0  0  0  0
M  END
>  <MODEL>
9

>  <REMARK>
 VINA RESULT:      -7.3      2.438      5.780
  Name = 
  0 active torsions:
  status: ('A' for Active; 'I' for Inactive)
                            x       y       z     vdW  Elec       q    Type
                         _______ _______ _______ _____ _____    ______ ____

>  <TORSDO>
F 0

$$$$
