=
 OpenBabel11052418363D

 34 39  0  0  1  0  0  0  0  0999 V2000
  188.5230  174.6050  141.2650 C   0  0  0  0  0  0  0  0  0  0  0  0
  190.9470  174.3880  141.7430 C   0  0  0  0  0  3  0  0  0  0  0  0
  189.3090  175.4870  143.4120 C   0  0  0  0  0  0  0  0  0  0  0  0
  189.8990  176.0890  145.6780 C   0  0  0  0  0  0  0  0  0  0  0  0
  189.1770  172.5620  140.0330 C   0  0  0  0  0  3  0  0  0  0  0  0
  190.3870  172.2820  140.5120 C   0  0  0  0  0  3  0  0  0  0  0  0
  191.5050  174.8890  144.5160 C   0  0  0  0  0  3  0  0  0  0  0  0
  189.5660  174.8070  142.0990 C   0  0  0  0  0  0  0  0  0  0  0  0
  191.1310  175.9370  146.8040 S   0  0  0  0  0  0  0  0  0  0  0  0
  188.6700  173.9610  139.9230 C   0  0  0  0  0  2  0  0  0  0  0  0
  188.0540  176.1160  143.6360 C   0  0  0  0  0  0  0  0  0  0  0  0
  187.2460  175.0390  141.6270 O   0  0  0  0  0  0  0  0  0  0  0  0
  191.3080  173.2900  141.0660 C   0  0  0  0  0  3  0  0  0  0  0  0
  188.7130  176.7030  145.8770 N   0  0  0  0  0  0  0  0  0  0  0  0
  187.7780  176.7500  144.8850 C   0  0  0  0  0  0  0  0  0  0  0  0
  192.1250  175.0680  145.7480 C   0  0  0  0  0  0  0  0  0  0  0  0
  190.2320  175.4810  144.4800 C   0  0  0  0  0  0  0  0  0  0  0  0
  187.0480  176.1290  142.5210 C   0  0  0  0  0  2  0  0  0  0  0  0
  184.9840  179.3330  144.8730 C   0  0  0  0  0  0  0  0  0  0  0  0
  184.1240  178.8010  145.8360 C   0  0  0  0  0  3  0  0  0  0  0  0
  186.5060  177.4580  145.1780 C   0  0  0  0  0  0  0  0  0  0  0  0
  184.4520  177.6040  146.4780 C   0  0  0  0  0  3  0  0  0  0  0  0
  186.1710  178.6700  144.5520 C   0  0  0  0  0  3  0  0  0  0  0  0
  185.6390  176.9400  146.1540 C   0  0  0  0  0  3  0  0  0  0  0  0
  184.6700  180.4980  144.2540 F   0  0  0  0  0  0  0  0  0  0  0  0
  194.1720  174.0710  145.1650 N   0  0  0  0  0  0  0  0  0  0  0  0
  193.4240  174.5700  146.0620 N   0  0  0  0  0  0  0  0  0  0  0  0
  194.7970  171.1830  145.7800 C   0  0  0  0  0  1  0  0  0  0  0  0
  195.4930  173.5670  145.4990 C   0  0  1  0  0  3  0  0  0  0  0  0
  195.6580  172.1380  144.9750 C   0  0  1  0  0  3  0  0  0  0  0  0
  197.9410  172.5930  144.3640 O   0  0  0  0  0  0  0  0  0  0  0  0
  197.9340  173.8220  145.0500 C   0  0  0  0  0  2  0  0  0  0  0  0
  196.5650  174.4850  144.9050 C   0  0  0  0  0  2  0  0  0  0  0  0
  197.1220  171.7170  145.1000 C   0  0  0  0  0  2  0  0  0  0  0  0
  1 12  1  0  0  0  0
  1  8  2  0  0  0  0
  2  8  1  0  0  0  0
  3 11  2  0  0  0  0
  3 17  1  0  0  0  0
  4 14  1  0  0  0  0
  4  9  1  0  0  0  0
  5  6  2  0  0  0  0
  6 13  1  0  0  0  0
  7 16  2  0  0  0  0
  8  3  1  0  0  0  0
 10  5  1  0  0  0  0
 10  1  1  0  0  0  0
 11 15  1  0  0  0  0
 12 18  1  0  0  0  0
 13  2  2  0  0  0  0
 15 21  1  0  0  0  0
 15 14  2  0  0  0  0
 16 27  1  0  0  0  0
 16  9  1  0  0  0  0
 17  7  1  0  0  0  0
 17  4  2  0  0  0  0
 18 11  1  0  0  0  0
 19 20  1  0  0  0  0
 20 22  2  0  0  0  0
 21 24  2  0  0  0  0
 23 19  2  0  0  0  0
 23 21  1  0  0  0  0
 24 22  1  0  0  0  0
 25 19  1  0  0  0  0
 26 27  2  0  0  0  0
 29 26  1  6  0  0  0
 30 34  1  0  0  0  0
 30 29  1  0  0  0  0
 30 28  1  1  0  0  0
 31 32  1  0  0  0  0
 31 34  1  0  0  0  0
 33 32  1  0  0  0  0
 33 29  1  0  0  0  0
M  END
>  <MODEL>
1

>  <REMARK>
 VINA RESULT:      -9.1      0.000      0.000
  Name = 
  3 active torsions:
  status: ('A' for Active; 'I' for Inactive)
    1  A    between atoms: N_3  and  C_13
    2  A    between atoms: C_12  and  C_28
    3  A    between atoms: N_17  and  C_29
                            x       y       z     vdW  Elec       q    Type
                         _______ _______ _______ _____ _____    ______ ____

>  <TORSDO>
F 3

$$$$
=
 OpenBabel11052418363D

 34 39  0  0  1  0  0  0  0  0999 V2000
  191.3820  176.2260  146.4340 C   0  0  0  0  0  0  0  0  0  0  0  0
  192.1040  174.2290  145.1530 C   0  0  0  0  0  3  0  0  0  0  0  0
  189.8700  175.4370  144.6730 C   0  0  0  0  0  0  0  0  0  0  0  0
  188.4650  174.9610  142.7650 C   0  0  0  0  0  0  0  0  0  0  0  0
  193.8510  176.3650  146.4860 C   0  0  0  0  0  3  0  0  0  0  0  0
  194.2330  175.4750  145.5720 C   0  0  0  0  0  3  0  0  0  0  0  0
  190.5220  173.8950  142.7780 C   0  0  0  0  0  3  0  0  0  0  0  0
  191.1460  175.3250  145.4560 C   0  0  0  0  0  0  0  0  0  0  0  0
  188.4340  174.0850  141.3360 S   0  0  0  0  0  0  0  0  0  0  0  0
  192.6070  176.1920  147.2910 C   0  0  0  0  0  2  0  0  0  0  0  0
  188.8470  176.3110  145.1330 C   0  0  0  0  0  0  0  0  0  0  0  0
  190.4430  177.2240  146.7050 O   0  0  0  0  0  0  0  0  0  0  0  0
  193.4410  174.2930  145.1910 C   0  0  0  0  0  3  0  0  0  0  0  0
  187.4890  175.7770  143.2180 N   0  0  0  0  0  0  0  0  0  0  0  0
  187.6340  176.4520  144.3940 C   0  0  0  0  0  0  0  0  0  0  0  0
  189.9740  173.4340  141.5860 C   0  0  0  0  0  0  0  0  0  0  0  0
  189.6500  174.7650  143.4520 C   0  0  0  0  0  0  0  0  0  0  0  0
  189.0580  177.0490  146.4250 C   0  0  0  0  0  2  0  0  0  0  0  0
  185.2780  179.4160  144.7730 C   0  0  0  0  0  0  0  0  0  0  0  0
  184.4080  178.9420  145.7570 C   0  0  0  0  0  3  0  0  0  0  0  0
  186.5070  177.3160  144.8300 C   0  0  0  0  0  0  0  0  0  0  0  0
  184.5880  177.6620  146.2870 C   0  0  0  0  0  3  0  0  0  0  0  0
  186.3250  178.6110  144.3170 C   0  0  0  0  0  3  0  0  0  0  0  0
  185.6340  176.8560  145.8290 C   0  0  0  0  0  3  0  0  0  0  0  0
  185.1090  180.6600  144.2620 F   0  0  0  0  0  0  0  0  0  0  0  0
  190.0780  171.4740  140.2930 N   0  0  0  0  0  0  0  0  0  0  0  0
  190.6420  172.5370  140.7000 N   0  0  0  0  0  0  0  0  0  0  0  0
  191.7620  169.1300  141.1780 C   0  0  0  0  0  1  0  0  0  0  0  0
  190.7700  170.5690  139.3910 C   0  0  1  0  0  3  0  0  0  0  0  0
  190.8160  169.1620  139.9930 C   0  0  1  0  0  3  0  0  0  0  0  0
  190.4470  168.1890  137.8220 O   0  0  0  0  0  0  0  0  0  0  0  0
  190.6450  169.4240  137.1780 C   0  0  0  0  0  2  0  0  0  0  0  0
  190.0650  170.5500  138.0320 C   0  0  0  0  0  2  0  0  0  0  0  0
  191.3080  168.1730  138.9350 C   0  0  0  0  0  2  0  0  0  0  0  0
  1 12  1  0  0  0  0
  1 10  1  0  0  0  0
  2 13  2  0  0  0  0
  2  8  1  0  0  0  0
  3 11  1  0  0  0  0
  3  8  1  0  0  0  0
  4 14  2  0  0  0  0
  4 17  1  0  0  0  0
  5 10  1  0  0  0  0
  6  5  2  0  0  0  0
  7 17  1  0  0  0  0
  8  1  2  0  0  0  0
  9 16  1  0  0  0  0
  9  4  1  0  0  0  0
 11 18  1  0  0  0  0
 13  6  1  0  0  0  0
 14 15  1  0  0  0  0
 15 21  1  0  0  0  0
 15 11  2  0  0  0  0
 16  7  2  0  0  0  0
 17  3  2  0  0  0  0
 18 12  1  0  0  0  0
 19 20  1  0  0  0  0
 20 22  2  0  0  0  0
 21 24  2  0  0  0  0
 23 19  2  0  0  0  0
 23 21  1  0  0  0  0
 24 22  1  0  0  0  0
 25 19  1  0  0  0  0
 26 27  2  0  0  0  0
 27 16  1  0  0  0  0
 29 30  1  0  0  0  0
 29 26  1  1  0  0  0
 30 28  1  1  0  0  0
 31 34  1  0  0  0  0
 32 31  1  0  0  0  0
 32 33  1  0  0  0  0
 33 29  1  0  0  0  0
 34 30  1  0  0  0  0
M  END
>  <MODEL>
2

>  <REMARK>
 VINA RESULT:      -9.0      3.213      5.793
  Name = 
  3 active torsions:
  status: ('A' for Active; 'I' for Inactive)
    1  A    between atoms: N_3  and  C_13
    2  A    between atoms: C_12  and  C_28
    3  A    between atoms: N_17  and  C_29
                            x       y       z     vdW  Elec       q    Type
                         _______ _______ _______ _____ _____    ______ ____

>  <TORSDO>
F 3

$$$$
=
 OpenBabel11052418363D

 34 39  0  0  1  0  0  0  0  0999 V2000
  191.4020  176.1350  146.3840 C   0  0  0  0  0  0  0  0  0  0  0  0
  192.1000  174.1110  145.1320 C   0  0  0  0  0  3  0  0  0  0  0  0
  189.9030  175.3660  144.6030 C   0  0  0  0  0  0  0  0  0  0  0  0
  188.5210  174.9050  142.6750 C   0  0  0  0  0  0  0  0  0  0  0  0
  193.8720  176.2190  146.4780 C   0  0  0  0  0  3  0  0  0  0  0  0
  194.2500  175.3130  145.5770 C   0  0  0  0  0  3  0  0  0  0  0  0
  190.5530  173.7930  142.7330 C   0  0  0  0  0  3  0  0  0  0  0  0
  191.1630  175.2310  145.4090 C   0  0  0  0  0  0  0  0  0  0  0  0
  188.4950  174.0180  141.2530 S   0  0  0  0  0  0  0  0  0  0  0  0
  192.6110  176.0810  147.2620 C   0  0  0  0  0  2  0  0  0  0  0  0
  188.8930  176.2660  145.0380 C   0  0  0  0  0  0  0  0  0  0  0  0
  190.4810  177.1560  146.6300 O   0  0  0  0  0  0  0  0  0  0  0  0
  193.4380  174.1460  145.1920 C   0  0  0  0  0  3  0  0  0  0  0  0
  187.5560  175.7470  143.1030 N   0  0  0  0  0  0  0  0  0  0  0  0
  187.6960  176.4280  144.2760 C   0  0  0  0  0  0  0  0  0  0  0  0
  190.0160  173.3340  141.5350 C   0  0  0  0  0  0  0  0  0  0  0  0
  189.6890  174.6880  143.3840 C   0  0  0  0  0  0  0  0  0  0  0  0
  189.0980  177.0100  146.3270 C   0  0  0  0  0  2  0  0  0  0  0  0
  185.4260  179.4620  144.6240 C   0  0  0  0  0  0  0  0  0  0  0  0
  184.5020  178.9990  145.5630 C   0  0  0  0  0  3  0  0  0  0  0  0
  186.5820  177.3210  144.6850 C   0  0  0  0  0  0  0  0  0  0  0  0
  184.6170  177.7030  146.0720 C   0  0  0  0  0  3  0  0  0  0  0  0
  186.4630  178.6310  144.1930 C   0  0  0  0  0  3  0  0  0  0  0  0
  185.6540  176.8710  145.6390 C   0  0  0  0  0  3  0  0  0  0  0  0
  185.3190  180.7210  144.1340 F   0  0  0  0  0  0  0  0  0  0  0  0
  190.0470  171.4620  140.1150 N   0  0  0  0  0  0  0  0  0  0  0  0
  190.6780  172.4150  140.6680 N   0  0  0  0  0  0  0  0  0  0  0  0
  189.7890  171.4470  137.1080 C   0  0  0  0  0  1  0  0  0  0  0  0
  190.7340  170.5320  139.2340 C   0  0  1  0  0  3  0  0  0  0  0  0
  191.0600  171.2160  137.9030 C   0  0  1  0  0  3  0  0  0  0  0  0
  193.1870  170.0930  137.8130 O   0  0  0  0  0  0  0  0  0  0  0  0
  192.8460  169.2510  138.8880 C   0  0  0  0  0  2  0  0  0  0  0  0
  192.0130  170.0270  139.9060 C   0  0  0  0  0  2  0  0  0  0  0  0
  192.0020  170.3250  137.0920 C   0  0  0  0  0  2  0  0  0  0  0  0
  1 12  1  0  0  0  0
  1 10  1  0  0  0  0
  2 13  2  0  0  0  0
  2  8  1  0  0  0  0
  3 11  1  0  0  0  0
  3  8  1  0  0  0  0
  4 14  2  0  0  0  0
  4 17  1  0  0  0  0
  5 10  1  0  0  0  0
  6  5  2  0  0  0  0
  7 17  1  0  0  0  0
  8  1  2  0  0  0  0
  9 16  1  0  0  0  0
  9  4  1  0  0  0  0
 11 18  1  0  0  0  0
 13  6  1  0  0  0  0
 14 15  1  0  0  0  0
 15 21  1  0  0  0  0
 15 11  2  0  0  0  0
 16  7  2  0  0  0  0
 17  3  2  0  0  0  0
 18 12  1  0  0  0  0
 19 20  1  0  0  0  0
 20 22  2  0  0  0  0
 21 24  2  0  0  0  0
 23 19  2  0  0  0  0
 23 21  1  0  0  0  0
 24 22  1  0  0  0  0
 25 19  1  0  0  0  0
 26 27  2  0  0  0  0
 27 16  1  0  0  0  0
 29 33  1  0  0  0  0
 29 26  1  1  0  0  0
 30 28  1  6  0  0  0
 30 29  1  0  0  0  0
 31 32  1  0  0  0  0
 32 33  1  0  0  0  0
 34 31  1  0  0  0  0
 34 30  1  0  0  0  0
M  END
>  <MODEL>
3

>  <REMARK>
 VINA RESULT:      -8.8      3.195      5.682
  Name = 
  3 active torsions:
  status: ('A' for Active; 'I' for Inactive)
    1  A    between atoms: N_3  and  C_13
    2  A    between atoms: C_12  and  C_28
    3  A    between atoms: N_17  and  C_29
                            x       y       z     vdW  Elec       q    Type
                         _______ _______ _______ _____ _____    ______ ____

>  <TORSDO>
F 3

$$$$
=
 OpenBabel11052418363D

 34 39  0  0  1  0  0  0  0  0999 V2000
  191.3840  176.1750  146.3190 C   0  0  0  0  0  0  0  0  0  0  0  0
  192.1830  174.3530  144.8390 C   0  0  0  0  0  3  0  0  0  0  0  0
  189.9250  175.5490  144.4520 C   0  0  0  0  0  0  0  0  0  0  0  0
  188.5660  175.2520  142.4750 C   0  0  0  0  0  0  0  0  0  0  0  0
  193.8470  176.3720  146.4360 C   0  0  0  0  0  3  0  0  0  0  0  0
  194.2690  175.6000  145.4360 C   0  0  0  0  0  3  0  0  0  0  0  0
  190.6520  174.2450  142.4110 C   0  0  0  0  0  3  0  0  0  0  0  0
  191.1900  175.3830  145.2430 C   0  0  0  0  0  0  0  0  0  0  0  0
  188.5840  174.5400  140.9570 S   0  0  0  0  0  0  0  0  0  0  0  0
  192.5950  176.0780  147.1910 C   0  0  0  0  0  2  0  0  0  0  0  0
  188.8700  176.3390  144.9850 C   0  0  0  0  0  0  0  0  0  0  0  0
  190.4130  177.1120  146.6800 O   0  0  0  0  0  0  0  0  0  0  0  0
  193.5170  174.4470  144.9100 C   0  0  0  0  0  3  0  0  0  0  0  0
  187.5590  175.9860  142.9960 N   0  0  0  0  0  0  0  0  0  0  0  0
  187.6660  176.5290  144.2420 C   0  0  0  0  0  0  0  0  0  0  0  0
  190.1380  173.9050  141.1640 C   0  0  0  0  0  0  0  0  0  0  0  0
  189.7440  175.0110  143.1590 C   0  0  0  0  0  0  0  0  0  0  0  0
  189.0380  176.9330  146.3550 C   0  0  0  0  0  2  0  0  0  0  0  0
  185.1340  179.3190  144.7820 C   0  0  0  0  0  0  0  0  0  0  0  0
  184.3570  178.7790  145.8080 C   0  0  0  0  0  3  0  0  0  0  0  0
  186.5080  177.3100  144.7490 C   0  0  0  0  0  0  0  0  0  0  0  0
  184.6540  177.5110  146.3130 C   0  0  0  0  0  3  0  0  0  0  0  0
  186.2080  178.5920  144.2610 C   0  0  0  0  0  3  0  0  0  0  0  0
  185.7260  176.7840  145.7900 C   0  0  0  0  0  3  0  0  0  0  0  0
  184.8520  180.5520  144.2940 F   0  0  0  0  0  0  0  0  0  0  0  0
  190.3710  172.9390  139.0350 N   0  0  0  0  0  0  0  0  0  0  0  0
  190.8450  173.1310  140.1970 N   0  0  0  0  0  0  0  0  0  0  0  0
  189.6580  170.1150  138.2410 C   0  0  0  0  0  1  0  0  0  0  0  0
  191.1020  172.1470  138.0590 C   0  0  1  0  0  3  0  0  0  0  0  0
  190.1420  171.2140  137.3160 C   0  0  1  0  0  3  0  0  0  0  0  0
  191.3310  171.5860  135.2560 O   0  0  0  0  0  0  0  0  0  0  0  0
  192.3830  172.2420  135.9210 C   0  0  0  0  0  2  0  0  0  0  0  0
  191.8250  173.0720  137.0760 C   0  0  0  0  0  2  0  0  0  0  0  0
  190.8680  170.5830  136.1270 C   0  0  0  0  0  2  0  0  0  0  0  0
  1 12  1  0  0  0  0
  1 10  1  0  0  0  0
  2 13  2  0  0  0  0
  2  8  1  0  0  0  0
  3 11  1  0  0  0  0
  3  8  1  0  0  0  0
  4 14  2  0  0  0  0
  4 17  1  0  0  0  0
  5 10  1  0  0  0  0
  6  5  2  0  0  0  0
  7 17  1  0  0  0  0
  8  1  2  0  0  0  0
  9 16  1  0  0  0  0
  9  4  1  0  0  0  0
 11 18  1  0  0  0  0
 13  6  1  0  0  0  0
 14 15  1  0  0  0  0
 15 21  1  0  0  0  0
 15 11  2  0  0  0  0
 16  7  2  0  0  0  0
 17  3  2  0  0  0  0
 18 12  1  0  0  0  0
 19 20  1  0  0  0  0
 20 22  2  0  0  0  0
 21 24  2  0  0  0  0
 23 21  1  0  0  0  0
 23 19  2  0  0  0  0
 24 22  1  0  0  0  0
 25 19  1  0  0  0  0
 26 27  2  0  0  0  0
 27 16  1  0  0  0  0
 29 26  1  1  0  0  0
 30 29  1  0  0  0  0
 30 28  1  1  0  0  0
 31 32  1  0  0  0  0
 31 34  1  0  0  0  0
 32 33  1  0  0  0  0
 33 29  1  0  0  0  0
 34 30  1  0  0  0  0
M  END
>  <MODEL>
4

>  <REMARK>
 VINA RESULT:      -8.8      3.289      6.048
  Name = 
  3 active torsions:
  status: ('A' for Active; 'I' for Inactive)
    1  A    between atoms: N_3  and  C_13
    2  A    between atoms: C_12  and  C_28
    3  A    between atoms: N_17  and  C_29
                            x       y       z     vdW  Elec       q    Type
                         _______ _______ _______ _____ _____    ______ ____

>  <TORSDO>
F 3

$$$$
=
 OpenBabel11052418363D

 34 39  0  0  1  0  0  0  0  0999 V2000
  190.8440  172.5070  141.6030 C   0  0  0  0  0  0  0  0  0  0  0  0
  188.8720  173.6350  142.5980 C   0  0  0  0  0  3  0  0  0  0  0  0
  191.1350  173.4770  143.8350 C   0  0  0  0  0  0  0  0  0  0  0  0
  191.6390  174.6700  145.8770 C   0  0  0  0  0  0  0  0  0  0  0  0
  189.6050  173.3510  139.6360 C   0  0  0  0  0  3  0  0  0  0  0  0
  188.7180  174.1920  140.1630 C   0  0  0  0  0  3  0  0  0  0  0  0
  189.6230  175.2180  144.8750 C   0  0  0  0  0  3  0  0  0  0  0  0
  190.2890  173.1870  142.6300 C   0  0  0  0  0  0  0  0  0  0  0  0
  191.0250  175.8420  146.9050 S   0  0  0  0  0  0  0  0  0  0  0  0
  190.0860  172.1430  140.3670 C   0  0  0  0  0  2  0  0  0  0  0  0
  192.3920  172.8270  143.9760 C   0  0  0  0  0  0  0  0  0  0  0  0
  192.1710  172.0800  141.6860 O   0  0  0  0  0  0  0  0  0  0  0  0
  188.1920  174.0820  141.5350 C   0  0  0  0  0  3  0  0  0  0  0  0
  192.8230  174.0340  146.0150 N   0  0  0  0  0  0  0  0  0  0  0  0
  193.2250  173.1040  145.1020 C   0  0  0  0  0  0  0  0  0  0  0  0
  189.6210  176.0540  145.9860 C   0  0  0  0  0  0  0  0  0  0  0  0
  190.7800  174.4230  144.8210 C   0  0  0  0  0  0  0  0  0  0  0  0
  192.8020  171.8240  142.9360 C   0  0  0  0  0  2  0  0  0  0  0  0
  195.8600  170.5190  146.0270 C   0  0  0  0  0  0  0  0  0  0  0  0
  197.0320  171.2550  145.8430 C   0  0  0  0  0  3  0  0  0  0  0  0
  194.5320  172.4380  145.3350 C   0  0  0  0  0  0  0  0  0  0  0  0
  196.9610  172.5830  145.4140 C   0  0  0  0  0  3  0  0  0  0  0  0
  194.6170  171.1090  145.7810 C   0  0  0  0  0  3  0  0  0  0  0  0
  195.7180  173.1720  145.1670 C   0  0  0  0  0  3  0  0  0  0  0  0
  195.9270  169.2330  146.4490 F   0  0  0  0  0  0  0  0  0  0  0  0
  187.6690  177.2410  145.4360 N   0  0  0  0  0  0  0  0  0  0  0  0
  188.5690  176.9690  146.2890 N   0  0  0  0  0  0  0  0  0  0  0  0
  186.1290  178.8490  143.3980 C   0  0  0  0  0  1  0  0  0  0  0  0
  186.6030  178.1750  145.7580 C   0  0  1  0  0  3  0  0  0  0  0  0
  185.5600  178.1860  144.6370 C   0  0  1  0  0  3  0  0  0  0  0  0
  183.7840  178.3700  146.2520 O   0  0  0  0  0  0  0  0  0  0  0  0
  184.6910  178.6170  147.2980 C   0  0  0  0  0  2  0  0  0  0  0  0
  185.9570  177.7870  147.0910 C   0  0  0  0  0  2  0  0  0  0  0  0
  184.3270  178.9650  145.0990 C   0  0  0  0  0  2  0  0  0  0  0  0
  1 12  1  0  0  0  0
  1  8  2  0  0  0  0
  2  8  1  0  0  0  0
  3 11  2  0  0  0  0
  3 17  1  0  0  0  0
  4 14  1  0  0  0  0
  4  9  1  0  0  0  0
  5  6  2  0  0  0  0
  5 10  1  0  0  0  0
  6 13  1  0  0  0  0
  7 16  2  0  0  0  0
  8  3  1  0  0  0  0
 10  1  1  0  0  0  0
 11 15  1  0  0  0  0
 12 18  1  0  0  0  0
 13  2  2  0  0  0  0
 15 21  1  0  0  0  0
 15 14  2  0  0  0  0
 16 27  1  0  0  0  0
 16  9  1  0  0  0  0
 17  7  1  0  0  0  0
 17  4  2  0  0  0  0
 18 11  1  0  0  0  0
 19 25  1  0  0  0  0
 20 19  1  0  0  0  0
 21 23  1  0  0  0  0
 22 20  2  0  0  0  0
 23 19  2  0  0  0  0
 24 21  2  0  0  0  0
 24 22  1  0  0  0  0
 26 27  2  0  0  0  0
 29 26  1  6  0  0  0
 29 33  1  0  0  0  0
 30 28  1  6  0  0  0
 30 34  1  0  0  0  0
 30 29  1  0  0  0  0
 31 32  1  0  0  0  0
 33 32  1  0  0  0  0
 34 31  1  0  0  0  0
M  END
>  <MODEL>
5

>  <REMARK>
 VINA RESULT:      -8.5      3.349      8.901
  Name = 
  3 active torsions:
  status: ('A' for Active; 'I' for Inactive)
    1  A    between atoms: N_3  and  C_13
    2  A    between atoms: C_12  and  C_28
    3  A    between atoms: N_17  and  C_29
                            x       y       z     vdW  Elec       q    Type
                         _______ _______ _______ _____ _____    ______ ____

>  <TORSDO>
F 3

$$$$
=
 OpenBabel11052418363D

 34 39  0  0  1  0  0  0  0  0999 V2000
  188.3580  174.6520  140.6070 C   0  0  0  0  0  0  0  0  0  0  0  0
  190.7050  173.9560  141.0080 C   0  0  0  0  0  3  0  0  0  0  0  0
  189.2760  175.0930  142.8370 C   0  0  0  0  0  0  0  0  0  0  0  0
  189.9520  175.2790  145.1500 C   0  0  0  0  0  0  0  0  0  0  0  0
  188.6500  172.7070  139.1070 C   0  0  0  0  0  3  0  0  0  0  0  0
  189.7900  172.1600  139.5240 C   0  0  0  0  0  3  0  0  0  0  0  0
  191.3280  173.9820  143.8110 C   0  0  0  0  0  3  0  0  0  0  0  0
  189.4170  174.5570  141.4410 C   0  0  0  0  0  0  0  0  0  0  0  0
  191.1330  174.7680  146.2240 S   0  0  0  0  0  0  0  0  0  0  0  0
  188.3970  174.1740  139.1910 C   0  0  0  0  0  2  0  0  0  0  0  0
  188.1500  175.8960  143.1630 C   0  0  0  0  0  0  0  0  0  0  0  0
  187.1750  175.2500  141.0460 O   0  0  0  0  0  0  0  0  0  0  0  0
  190.8700  172.9100  140.1870 C   0  0  0  0  0  3  0  0  0  0  0  0
  188.8910  176.0590  145.4490 N   0  0  0  0  0  0  0  0  0  0  0  0
  187.9830  176.3990  144.4890 C   0  0  0  0  0  0  0  0  0  0  0  0
  191.9650  173.8870  145.0440 C   0  0  0  0  0  0  0  0  0  0  0  0
  190.1790  174.7860  143.8770 C   0  0  0  0  0  0  0  0  0  0  0  0
  187.1660  176.2300  142.0780 C   0  0  0  0  0  2  0  0  0  0  0  0
  185.6450  179.3840  144.8080 C   0  0  0  0  0  0  0  0  0  0  0  0
  184.7440  178.9170  145.7670 C   0  0  0  0  0  3  0  0  0  0  0  0
  186.8530  177.2730  144.8960 C   0  0  0  0  0  0  0  0  0  0  0  0
  184.8970  177.6340  146.2990 C   0  0  0  0  0  3  0  0  0  0  0  0
  186.6970  178.5700  144.3800 C   0  0  0  0  0  3  0  0  0  0  0  0
  185.9480  176.8200  145.8700 C   0  0  0  0  0  3  0  0  0  0  0  0
  185.5030  180.6300  144.2950 F   0  0  0  0  0  0  0  0  0  0  0  0
  193.6370  172.3830  144.3630 N   0  0  0  0  0  0  0  0  0  0  0  0
  193.1550  173.1330  145.2670 N   0  0  0  0  0  0  0  0  0  0  0  0
  196.4170  173.3290  143.6660 C   0  0  0  0  0  1  0  0  0  0  0  0
  194.8510  171.6210  144.6030 C   0  0  1  0  0  3  0  0  0  0  0  0
  196.0120  172.5700  144.9140 C   0  0  1  0  0  3  0  0  0  0  0  0
  196.8540  171.0420  146.5740 O   0  0  0  0  0  0  0  0  0  0  0  0
  195.9700  170.0280  146.1630 C   0  0  0  0  0  2  0  0  0  0  0  0
  194.6310  170.6430  145.7600 C   0  0  0  0  0  2  0  0  0  0  0  0
  197.2080  171.7600  145.4170 C   0  0  0  0  0  2  0  0  0  0  0  0
  1 12  1  0  0  0  0
  1  8  2  0  0  0  0
  2  8  1  0  0  0  0
  3 11  2  0  0  0  0
  3 17  1  0  0  0  0
  4 14  1  0  0  0  0
  4  9  1  0  0  0  0
  5 10  1  0  0  0  0
  5  6  2  0  0  0  0
  6 13  1  0  0  0  0
  7 17  1  0  0  0  0
  7 16  2  0  0  0  0
  8  3  1  0  0  0  0
 10  1  1  0  0  0  0
 11 15  1  0  0  0  0
 12 18  1  0  0  0  0
 13  2  2  0  0  0  0
 15 21  1  0  0  0  0
 15 14  2  0  0  0  0
 16 27  1  0  0  0  0
 16  9  1  0  0  0  0
 17  4  2  0  0  0  0
 18 11  1  0  0  0  0
 19 20  1  0  0  0  0
 20 22  2  0  0  0  0
 21 24  2  0  0  0  0
 23 19  2  0  0  0  0
 23 21  1  0  0  0  0
 24 22  1  0  0  0  0
 25 19  1  0  0  0  0
 26 27  2  0  0  0  0
 29 26  1  1  0  0  0
 29 30  1  0  0  0  0
 29 33  1  0  0  0  0
 30 28  1  6  0  0  0
 30 34  1  0  0  0  0
 32 31  1  0  0  0  0
 33 32  1  0  0  0  0
 34 31  1  0  0  0  0
M  END
>  <MODEL>
6

>  <REMARK>
 VINA RESULT:      -8.4      1.070      1.614
  Name = 
  3 active torsions:
  status: ('A' for Active; 'I' for Inactive)
    1  A    between atoms: N_3  and  C_13
    2  A    between atoms: C_12  and  C_28
    3  A    between atoms: N_17  and  C_29
                            x       y       z     vdW  Elec       q    Type
                         _______ _______ _______ _____ _____    ______ ____

>  <TORSDO>
F 3

$$$$
=
 OpenBabel11052418363D

 34 39  0  0  1  0  0  0  0  0999 V2000
  191.3180  172.1990  141.1040 C   0  0  0  0  0  0  0  0  0  0  0  0
  189.1200  173.0140  141.9140 C   0  0  0  0  0  3  0  0  0  0  0  0
  191.3520  173.8970  142.8710 C   0  0  0  0  0  0  0  0  0  0  0  0
  191.5210  175.7900  144.3640 C   0  0  0  0  0  0  0  0  0  0  0  0
  189.8500  171.9690  139.1270 C   0  0  0  0  0  3  0  0  0  0  0  0
  188.7640  172.6640  139.4620 C   0  0  0  0  0  3  0  0  0  0  0  0
  189.4150  175.4050  143.4790 C   0  0  0  0  0  3  0  0  0  0  0  0
  190.6060  173.0040  141.9220 C   0  0  0  0  0  0  0  0  0  0  0  0
  190.6070  177.0250  145.0370 S   0  0  0  0  0  0  0  0  0  0  0  0
  190.6780  171.2530  140.1400 C   0  0  0  0  0  2  0  0  0  0  0  0
  192.7470  173.6980  143.0630 C   0  0  0  0  0  0  0  0  0  0  0  0
  192.7130  172.2010  141.1630 O   0  0  0  0  0  0  0  0  0  0  0  0
  188.3190  172.8780  140.8500 C   0  0  0  0  0  3  0  0  0  0  0  0
  192.8410  175.5840  144.5580 N   0  0  0  0  0  0  0  0  0  0  0  0
  193.4820  174.5490  143.9430 C   0  0  0  0  0  0  0  0  0  0  0  0
  189.1870  176.5290  144.2650 C   0  0  0  0  0  0  0  0  0  0  0  0
  190.7520  174.9830  143.5450 C   0  0  0  0  0  0  0  0  0  0  0  0
  193.4150  172.5570  142.3500 C   0  0  0  0  0  2  0  0  0  0  0  0
  196.7630  173.6400  145.6430 C   0  0  0  0  0  0  0  0  0  0  0  0
  197.6870  174.1650  144.7390 C   0  0  0  0  0  3  0  0  0  0  0  0
  194.9310  174.3800  144.2210 C   0  0  0  0  0  0  0  0  0  0  0  0
  197.2410  174.8050  143.5790 C   0  0  0  0  0  3  0  0  0  0  0  0
  195.3930  173.7530  145.3890 C   0  0  0  0  0  3  0  0  0  0  0  0
  195.8710  174.9160  143.3250 C   0  0  0  0  0  3  0  0  0  0  0  0
  197.1930  173.0250  146.7720 F   0  0  0  0  0  0  0  0  0  0  0  0
  186.8450  176.4950  144.4560 N   0  0  0  0  0  0  0  0  0  0  0  0
  187.9180  177.1710  144.3840 N   0  0  0  0  0  0  0  0  0  0  0  0
  185.6200  177.3840  147.0670 C   0  0  0  0  0  1  0  0  0  0  0  0
  185.5590  177.1620  144.5780 C   0  0  1  0  0  3  0  0  0  0  0  0
  185.5870  178.1420  145.7540 C   0  0  1  0  0  3  0  0  0  0  0  0
  184.2800  179.7280  144.5010 O   0  0  0  0  0  0  0  0  0  0  0  0
  184.0050  178.7840  143.4940 C   0  0  0  0  0  2  0  0  0  0  0  0
  185.2270  177.8940  143.2750 C   0  0  0  0  0  2  0  0  0  0  0  0
  184.3340  179.0180  145.7140 C   0  0  0  0  0  2  0  0  0  0  0  0
  1 12  1  0  0  0  0
  1  8  2  0  0  0  0
  2  8  1  0  0  0  0
  3 11  2  0  0  0  0
  3 17  1  0  0  0  0
  4 14  1  0  0  0  0
  4  9  1  0  0  0  0
  5  6  2  0  0  0  0
  5 10  1  0  0  0  0
  6 13  1  0  0  0  0
  7 17  1  0  0  0  0
  7 16  2  0  0  0  0
  8  3  1  0  0  0  0
 10  1  1  0  0  0  0
 11 15  1  0  0  0  0
 12 18  1  0  0  0  0
 13  2  2  0  0  0  0
 15 21  1  0  0  0  0
 15 14  2  0  0  0  0
 16 27  1  0  0  0  0
 16  9  1  0  0  0  0
 17  4  2  0  0  0  0
 18 11  1  0  0  0  0
 19 25  1  0  0  0  0
 20 19  2  0  0  0  0
 21 23  2  0  0  0  0
 22 20  1  0  0  0  0
 23 19  1  0  0  0  0
 24 22  2  0  0  0  0
 24 21  1  0  0  0  0
 27 26  2  0  0  0  0
 29 26  1  6  0  0  0
 29 30  1  0  0  0  0
 30 28  1  1  0  0  0
 31 34  1  0  0  0  0
 32 31  1  0  0  0  0
 33 32  1  0  0  0  0
 33 29  1  0  0  0  0
 34 30  1  0  0  0  0
M  END
>  <MODEL>
7

>  <REMARK>
 VINA RESULT:      -8.2      3.278      8.815
  Name = 
  3 active torsions:
  status: ('A' for Active; 'I' for Inactive)
    1  A    between atoms: N_3  and  C_13
    2  A    between atoms: C_12  and  C_28
    3  A    between atoms: N_17  and  C_29
                            x       y       z     vdW  Elec       q    Type
                         _______ _______ _______ _____ _____    ______ ____

>  <TORSDO>
F 3

$$$$
=
 OpenBabel11052418363D

 34 39  0  0  1  0  0  0  0  0999 V2000
  189.1310  177.2810  146.7150 C   0  0  0  0  0  0  0  0  0  0  0  0
  190.1670  175.0670  147.1380 C   0  0  0  0  0  3  0  0  0  0  0  0
  188.9410  175.6120  144.9300 C   0  0  0  0  0  0  0  0  0  0  0  0
  188.9720  174.1790  142.9840 C   0  0  0  0  0  0  0  0  0  0  0  0
  191.0160  177.8020  148.2300 C   0  0  0  0  0  3  0  0  0  0  0  0
  191.7380  176.6830  148.2270 C   0  0  0  0  0  3  0  0  0  0  0  0
  190.3760  173.5410  144.7140 C   0  0  0  0  0  3  0  0  0  0  0  0
  189.4160  176.0300  146.2910 C   0  0  0  0  0  0  0  0  0  0  0  0
  189.6980  172.7950  142.3770 S   0  0  0  0  0  0  0  0  0  0  0  0
  189.5340  177.7920  148.0610 C   0  0  0  0  0  2  0  0  0  0  0  0
  188.0070  176.4310  144.2370 C   0  0  0  0  0  0  0  0  0  0  0  0
  188.3990  178.1450  145.8980 O   0  0  0  0  0  0  0  0  0  0  0  0
  191.1800  175.3440  147.9690 C   0  0  0  0  0  3  0  0  0  0  0  0
  188.0700  174.9500  142.3390 N   0  0  0  0  0  0  0  0  0  0  0  0
  187.5580  176.0650  142.9320 C   0  0  0  0  0  0  0  0  0  0  0  0
  190.6230  172.5490  143.7710 C   0  0  0  0  0  0  0  0  0  0  0  0
  189.4250  174.4680  144.2590 C   0  0  0  0  0  0  0  0  0  0  0  0
  187.4830  177.6610  144.9220 C   0  0  0  0  0  2  0  0  0  0  0  0
  184.3920  177.9420  141.9650 C   0  0  0  0  0  0  0  0  0  0  0  0
  184.6650  178.2590  140.6330 C   0  0  0  0  0  3  0  0  0  0  0  0
  186.5580  176.8500  142.1640 C   0  0  0  0  0  0  0  0  0  0  0  0
  185.8780  177.8690  140.0590 C   0  0  0  0  0  3  0  0  0  0  0  0
  185.3290  177.2360  142.7230 C   0  0  0  0  0  3  0  0  0  0  0  0
  186.8160  177.1640  140.8190 C   0  0  0  0  0  3  0  0  0  0  0  0
  183.2130  178.3140  142.5220 F   0  0  0  0  0  0  0  0  0  0  0  0
  192.7680  171.7040  144.2290 N   0  0  0  0  0  0  0  0  0  0  0  0
  191.5450  171.4780  143.9690 N   0  0  0  0  0  0  0  0  0  0  0  0
  195.4710  171.9630  145.5470 C   0  0  0  0  0  1  0  0  0  0  0  0
  193.6960  170.6030  144.4280 C   0  0  1  0  0  3  0  0  0  0  0  0
  194.4930  170.8170  145.7190 C   0  0  1  0  0  3  0  0  0  0  0  0
  194.3820  168.4630  146.2110 O   0  0  0  0  0  0  0  0  0  0  0  0
  193.8750  168.1670  144.9320 C   0  0  0  0  0  2  0  0  0  0  0  0
  192.9300  169.2790  144.4820 C   0  0  0  0  0  2  0  0  0  0  0  0
  195.2700  169.5420  146.0520 C   0  0  0  0  0  2  0  0  0  0  0  0
  1 10  1  0  0  0  0
  2 13  2  0  0  0  0
  3  8  1  0  0  0  0
  4 17  2  0  0  0  0
  6  5  2  0  0  0  0
  8  1  2  0  0  0  0
  8  2  1  0  0  0  0
  9  4  1  0  0  0  0
  9 16  1  0  0  0  0
 10  5  1  0  0  0  0
 11 18  1  0  0  0  0
 11  3  2  0  0  0  0
 12  1  1  0  0  0  0
 13  6  1  0  0  0  0
 14 15  2  0  0  0  0
 14  4  1  0  0  0  0
 15 11  1  0  0  0  0
 16 27  1  0  0  0  0
 16  7  2  0  0  0  0
 17  7  1  0  0  0  0
 17  3  1  0  0  0  0
 18 12  1  0  0  0  0
 19 25  1  0  0  0  0
 19 23  1  0  0  0  0
 20 19  2  0  0  0  0
 21 23  2  0  0  0  0
 21 15  1  0  0  0  0
 22 20  1  0  0  0  0
 22 24  2  0  0  0  0
 24 21  1  0  0  0  0
 27 26  2  0  0  0  0
 29 26  1  1  0  0  0
 29 33  1  0  0  0  0
 29 30  1  0  0  0  0
 30 28  1  6  0  0  0
 30 34  1  0  0  0  0
 32 31  1  0  0  0  0
 33 32  1  0  0  0  0
 34 31  1  0  0  0  0
M  END
>  <MODEL>
8

>  <REMARK>
 VINA RESULT:      -8.0      2.831      4.948
  Name = 
  3 active torsions:
  status: ('A' for Active; 'I' for Inactive)
    1  A    between atoms: N_3  and  C_13
    2  A    between atoms: C_12  and  C_28
    3  A    between atoms: N_17  and  C_29
                            x       y       z     vdW  Elec       q    Type
                         _______ _______ _______ _____ _____    ______ ____

>  <TORSDO>
F 3

$$$$
=
 OpenBabel11052418363D

 34 39  0  0  1  0  0  0  0  0999 V2000
  194.3830  175.0480  143.1880 C   0  0  0  0  0  0  0  0  0  0  0  0
  192.7810  176.5720  144.3130 C   0  0  0  0  0  3  0  0  0  0  0  0
  192.0550  174.9640  142.4240 C   0  0  0  0  0  0  0  0  0  0  0  0
  189.7520  174.5540  141.8160 C   0  0  0  0  0  0  0  0  0  0  0  0
  195.3160  175.2930  145.4660 C   0  0  0  0  0  3  0  0  0  0  0  0
  194.3260  175.8620  146.1500 C   0  0  0  0  0  3  0  0  0  0  0  0
  190.0670  175.8450  143.7140 C   0  0  0  0  0  3  0  0  0  0  0  0
  193.1240  175.5190  143.3210 C   0  0  0  0  0  0  0  0  0  0  0  0
  188.1820  174.8770  142.3060 S   0  0  0  0  0  0  0  0  0  0  0  0
  195.5270  175.5490  144.0120 C   0  0  0  0  0  2  0  0  0  0  0  0
  192.4290  174.1620  141.3110 C   0  0  0  0  0  0  0  0  0  0  0  0
  194.6680  174.0790  142.2240 O   0  0  0  0  0  0  0  0  0  0  0  0
  193.2910  176.7170  145.5430 C   0  0  0  0  0  3  0  0  0  0  0  0
  190.1140  173.8100  140.7490 N   0  0  0  0  0  0  0  0  0  0  0  0
  191.4300  173.6040  140.4570 C   0  0  0  0  0  0  0  0  0  0  0  0
  188.6790  175.7880  143.6400 C   0  0  0  0  0  0  0  0  0  0  0  0
  190.6760  175.1410  142.6630 C   0  0  0  0  0  0  0  0  0  0  0  0
  193.8910  173.9470  141.0390 C   0  0  0  0  0  2  0  0  0  0  0  0
  192.1470  172.5680  136.8660 C   0  0  0  0  0  0  0  0  0  0  0  0
  192.2540  171.1830  137.0040 C   0  0  0  0  0  3  0  0  0  0  0  0
  191.7450  172.7880  139.2570 C   0  0  0  0  0  0  0  0  0  0  0  0
  192.1000  170.5940  138.2620 C   0  0  0  0  0  3  0  0  0  0  0  0
  191.8870  173.3650  137.9850 C   0  0  0  0  0  3  0  0  0  0  0  0
  191.8420  171.3920  139.3800 C   0  0  0  0  0  3  0  0  0  0  0  0
  192.2890  173.1400  135.6460 F   0  0  0  0  0  0  0  0  0  0  0  0
  187.6360  177.6740  144.5780 N   0  0  0  0  0  0  0  0  0  0  0  0
  187.8080  176.4160  144.5790 N   0  0  0  0  0  0  0  0  0  0  0  0
  185.5660  179.7600  143.8880 C   0  0  0  0  0  1  0  0  0  0  0  0
  186.7450  178.3000  145.5400 C   0  0  1  0  0  3  0  0  0  0  0  0
  185.4030  178.6230  144.8780 C   0  0  1  0  0  3  0  0  0  0  0  0
  184.2300  177.9970  146.8850 O   0  0  0  0  0  0  0  0  0  0  0  0
  185.4250  177.9260  147.6230 C   0  0  0  0  0  2  0  0  0  0  0  0
  186.5440  177.3740  146.7420 C   0  0  0  0  0  2  0  0  0  0  0  0
  184.3940  179.0360  145.9510 C   0  0  0  0  0  2  0  0  0  0  0  0
  1  8  2  0  0  0  0
  1 10  1  0  0  0  0
  2 13  2  0  0  0  0
  3 17  1  0  0  0  0
  3  8  1  0  0  0  0
  4  9  1  0  0  0  0
  4 17  2  0  0  0  0
  5  6  2  0  0  0  0
  8  2  1  0  0  0  0
  9 16  1  0  0  0  0
 10  5  1  0  0  0  0
 11  3  2  0  0  0  0
 12  1  1  0  0  0  0
 13  6  1  0  0  0  0
 14  4  1  0  0  0  0
 15 14  2  0  0  0  0
 15 11  1  0  0  0  0
 16  7  2  0  0  0  0
 16 27  1  0  0  0  0
 17  7  1  0  0  0  0
 18 11  1  0  0  0  0
 18 12  1  0  0  0  0
 19 20  2  0  0  0  0
 19 23  1  0  0  0  0
 20 22  1  0  0  0  0
 21 24  1  0  0  0  0
 21 15  1  0  0  0  0
 22 24  2  0  0  0  0
 23 21  2  0  0  0  0
 25 19  1  0  0  0  0
 26 27  2  0  0  0  0
 29 26  1  6  0  0  0
 29 33  1  0  0  0  0
 30 28  1  6  0  0  0
 30 29  1  0  0  0  0
 30 34  1  0  0  0  0
 31 32  1  0  0  0  0
 33 32  1  0  0  0  0
 34 31  1  0  0  0  0
M  END
>  <MODEL>
9

>  <REMARK>
 VINA RESULT:      -7.9      3.673      9.179
  Name = 
  3 active torsions:
  status: ('A' for Active; 'I' for Inactive)
    1  A    between atoms: N_3  and  C_13
    2  A    between atoms: C_12  and  C_28
    3  A    between atoms: N_17  and  C_29
                            x       y       z     vdW  Elec       q    Type
                         _______ _______ _______ _____ _____    ______ ____

>  <TORSDO>
F 3

$$$$
