=
 OpenBabel11052418463D

 34 39  0  0  1  0  0  0  0  0999 V2000
  191.8020  176.5270  144.7660 C   0  0  0  0  0  0  0  0  0  0  0  0
  191.8530  174.0530  144.9550 C   0  0  0  0  0  0  0  0  0  0  0  0
  189.9440  175.1980  143.6550 C   0  0  0  0  0  0  0  0  0  0  0  0
  188.1640  174.2910  142.3310 N   0  0  0  0  0  0  0  0  0  0  0  0
  193.7050  175.4420  145.7860 C   0  0  0  0  0  3  0  0  0  0  0  0
  192.9820  174.1550  145.6720 C   0  0  0  0  0  3  0  0  0  0  0  0
  190.2700  173.1630  142.1910 C   0  0  0  0  0  2  0  0  0  0  0  0
  191.3910  175.2270  144.1110 C   0  0  1  0  0  3  0  0  0  0  0  0
  187.9170  173.2170  141.3980 C   0  0  0  0  0  2  0  0  0  0  0  0
  193.1390  176.5830  145.3730 C   0  0  0  0  0  3  0  0  0  0  0  0
  189.0330  176.3380  143.9760 C   0  0  0  0  0  0  0  0  0  0  0  0
  190.9510  177.5370  144.9480 C   0  0  0  0  0  3  0  0  0  0  0  0
  191.1650  172.8460  144.9520 O   0  0  0  0  0  1  0  0  0  0  0  0
  187.2200  175.2880  142.7240 C   0  0  0  0  0  3  0  0  0  0  0  0
  187.5990  176.2890  143.5340 C   0  0  0  0  0  0  0  0  0  0  0  0
  189.2450  172.4460  141.3000 C   0  0  1  0  0  3  0  0  0  0  0  0
  189.4910  174.2630  142.8060 C   0  0  0  0  0  0  0  0  0  0  0  0
  189.5420  177.4390  144.5400 C   0  0  0  0  0  3  0  0  0  0  0  0
  184.7760  178.0000  145.4220 C   0  0  0  0  0  0  0  0  0  0  0  0
  184.6360  179.1850  144.6950 C   0  0  0  0  0  3  0  0  0  0  0  0
  186.5840  177.2960  143.9500 C   0  0  0  0  0  0  0  0  0  0  0  0
  185.4590  179.4300  143.5950 C   0  0  0  0  0  3  0  0  0  0  0  0
  185.7410  177.0610  145.0490 C   0  0  0  0  0  3  0  0  0  0  0  0
  186.4250  178.4900  143.2230 C   0  0  0  0  0  3  0  0  0  0  0  0
  183.9740  177.7600  146.4870 F   0  0  0  0  0  0  0  0  0  0  0  0
  188.9020  172.1940  138.8840 C   0  0  0  0  0  3  0  0  0  0  0  0
  189.7360  172.4290  139.8930 C   0  0  0  0  0  3  0  0  0  0  0  0
  188.6990  174.4990  137.2230 O   0  0  0  0  0  1  0  0  0  0  0  0
  189.3380  172.1680  137.4770 C   0  0  0  0  0  0  0  0  0  0  0  0
  189.2230  173.3260  136.6890 C   0  0  0  0  0  0  0  0  0  0  0  0
  190.1650  172.1430  134.7950 C   0  0  0  0  0  3  0  0  0  0  0  0
  190.2840  170.9890  135.5710 C   0  0  0  0  0  3  0  0  0  0  0  0
  189.8730  171.0000  136.9070 C   0  0  0  0  0  3  0  0  0  0  0  0
  189.6360  173.3090  135.3530 C   0  0  0  0  0  3  0  0  0  0  0  0
  1 12  2  0  0  0  0
  1 10  1  0  0  0  0
  2  6  2  0  0  0  0
  3 11  1  0  0  0  0
  4 14  1  0  0  0  0
  4 17  1  0  0  0  0
  6  5  1  0  0  0  0
  7 17  1  0  0  0  0
  8  3  1  1  0  0  0
  8  1  1  0  0  0  0
  8  2  1  0  0  0  0
  9  4  1  0  0  0  0
 10  5  2  0  0  0  0
 11 18  2  0  0  0  0
 13  2  1  0  0  0  0
 14 15  2  0  0  0  0
 15 21  1  0  0  0  0
 15 11  1  0  0  0  0
 16 27  1  6  0  0  0
 16  9  1  0  0  0  0
 16  7  1  0  0  0  0
 17  3  2  0  0  0  0
 18 12  1  0  0  0  0
 19 25  1  0  0  0  0
 20 19  2  0  0  0  0
 21 23  2  0  0  0  0
 22 20  1  0  0  0  0
 23 19  1  0  0  0  0
 24 22  2  0  0  0  0
 24 21  1  0  0  0  0
 26 27  2  0  0  0  0
 29 26  1  0  0  0  0
 30 28  1  0  0  0  0
 30 29  2  0  0  0  0
 31 34  2  0  0  0  0
 31 32  1  0  0  0  0
 32 33  2  0  0  0  0
 33 29  1  0  0  0  0
 34 30  1  0  0  0  0
M  END
>  <MODEL>
1

>  <REMARK>
 VINA RESULT:      -9.0      0.000      0.000
  Name = 
  3 active torsions:
  status: ('A' for Active; 'I' for Inactive)
    1  A    between atoms: C_3  and  C_13
    2  A    between atoms: C_12  and  C_28
    3  A    between atoms: C_17  and  C_29
                            x       y       z     vdW  Elec       q    Type
                         _______ _______ _______ _____ _____    ______ ____

>  <TORSDO>
F 3

$$$$
=
 OpenBabel11052418463D

 34 39  0  0  1  0  0  0  0  0999 V2000
  191.7430  176.3240  145.2890 C   0  0  0  0  0  0  0  0  0  0  0  0
  191.8040  173.8680  144.9330 C   0  0  0  0  0  0  0  0  0  0  0  0
  189.9320  175.2720  143.8490 C   0  0  0  0  0  0  0  0  0  0  0  0
  188.2050  174.6790  142.2970 N   0  0  0  0  0  0  0  0  0  0  0  0
  193.6170  175.0400  146.1120 C   0  0  0  0  0  3  0  0  0  0  0  0
  192.9060  173.8100  145.6950 C   0  0  0  0  0  3  0  0  0  0  0  0
  190.3220  173.6070  141.9880 C   0  0  0  0  0  2  0  0  0  0  0  0
  191.3630  175.1990  144.3510 C   0  0  1  0  0  3  0  0  0  0  0  0
  187.9970  173.8360  141.1440 C   0  0  0  0  0  2  0  0  0  0  0  0
  193.0570  176.2430  145.9400 C   0  0  0  0  0  3  0  0  0  0  0  0
  189.0040  176.3150  144.3800 C   0  0  0  0  0  0  0  0  0  0  0  0
  190.8790  177.2700  145.6580 C   0  0  0  0  0  3  0  0  0  0  0  0
  191.1240  172.6920  144.6420 O   0  0  0  0  0  1  0  0  0  0  0  0
  187.2410  175.5670  142.8660 C   0  0  0  0  0  3  0  0  0  0  0  0
  187.5860  176.3660  143.8880 C   0  0  0  0  0  0  0  0  0  0  0  0
  189.3340  173.1030  140.9270 C   0  0  1  0  0  3  0  0  0  0  0  0
  189.5150  174.5470  142.8010 C   0  0  0  0  0  0  0  0  0  0  0  0
  189.4850  177.2660  145.1890 C   0  0  0  0  0  3  0  0  0  0  0  0
  185.4130  179.4100  144.5790 C   0  0  0  0  0  0  0  0  0  0  0  0
  184.6250  178.9520  145.6380 C   0  0  0  0  0  3  0  0  0  0  0  0
  186.5500  177.2580  144.4790 C   0  0  0  0  0  0  0  0  0  0  0  0
  184.7980  177.6560  146.1260 C   0  0  0  0  0  3  0  0  0  0  0  0
  186.3710  178.5690  144.0070 C   0  0  0  0  0  3  0  0  0  0  0  0
  185.7560  176.8150  145.5510 C   0  0  0  0  0  3  0  0  0  0  0  0
  185.2490  180.6690  144.1080 F   0  0  0  0  0  0  0  0  0  0  0  0
  189.0580  173.7200  138.5680 C   0  0  0  0  0  3  0  0  0  0  0  0
  189.8720  173.3940  139.5680 C   0  0  0  0  0  3  0  0  0  0  0  0
  187.5590  175.3550  136.7810 O   0  0  0  0  0  1  0  0  0  0  0  0
  189.5430  174.0180  137.2090 C   0  0  0  0  0  0  0  0  0  0  0  0
  188.7750  174.8300  136.3550 C   0  0  0  0  0  0  0  0  0  0  0  0
  190.4470  174.6000  134.6160 C   0  0  0  0  0  3  0  0  0  0  0  0
  191.2160  173.7940  135.4570 C   0  0  0  0  0  3  0  0  0  0  0  0
  190.7670  173.5040  136.7480 C   0  0  0  0  0  3  0  0  0  0  0  0
  189.2290  175.1170  135.0640 C   0  0  0  0  0  3  0  0  0  0  0  0
  1 12  2  0  0  0  0
  1 10  1  0  0  0  0
  2  6  2  0  0  0  0
  3 11  1  0  0  0  0
  4 17  1  0  0  0  0
  4 14  1  0  0  0  0
  6  5  1  0  0  0  0
  7 17  1  0  0  0  0
  8  3  1  1  0  0  0
  8  2  1  0  0  0  0
  8  1  1  0  0  0  0
  9  4  1  0  0  0  0
 10  5  2  0  0  0  0
 11 18  2  0  0  0  0
 13  2  1  0  0  0  0
 14 15  2  0  0  0  0
 15 11  1  0  0  0  0
 15 21  1  0  0  0  0
 16 27  1  6  0  0  0
 16  9  1  0  0  0  0
 16  7  1  0  0  0  0
 17  3  2  0  0  0  0
 18 12  1  0  0  0  0
 19 20  1  0  0  0  0
 20 22  2  0  0  0  0
 21 24  2  0  0  0  0
 23 21  1  0  0  0  0
 23 19  2  0  0  0  0
 24 22  1  0  0  0  0
 25 19  1  0  0  0  0
 26 27  2  0  0  0  0
 29 26  1  0  0  0  0
 30 28  1  0  0  0  0
 30 29  2  0  0  0  0
 31 34  2  0  0  0  0
 31 32  1  0  0  0  0
 32 33  2  0  0  0  0
 33 29  1  0  0  0  0
 34 30  1  0  0  0  0
M  END
>  <MODEL>
2

>  <REMARK>
 VINA RESULT:      -9.0      1.281      1.574
  Name = 
  3 active torsions:
  status: ('A' for Active; 'I' for Inactive)
    1  A    between atoms: C_3  and  C_13
    2  A    between atoms: C_12  and  C_28
    3  A    between atoms: C_17  and  C_29
                            x       y       z     vdW  Elec       q    Type
                         _______ _______ _______ _____ _____    ______ ____

>  <TORSDO>
F 3

$$$$
=
 OpenBabel11052418463D

 34 39  0  0  1  0  0  0  0  0999 V2000
  186.3600  176.9450  146.1680 C   0  0  0  0  0  0  0  0  0  0  0  0
  185.6320  179.2000  145.4290 C   0  0  0  0  0  0  0  0  0  0  0  0
  186.2230  177.4070  143.6730 C   0  0  0  0  0  0  0  0  0  0  0  0
  186.0280  177.4050  141.2850 N   0  0  0  0  0  0  0  0  0  0  0  0
  185.5890  178.5500  147.8010 C   0  0  0  0  0  3  0  0  0  0  0  0
  185.5080  179.5550  146.7160 C   0  0  0  0  0  3  0  0  0  0  0  0
  184.2810  178.5090  142.4900 C   0  0  0  0  0  2  0  0  0  0  0  0
  185.6940  177.7290  145.0580 C   0  0  1  0  0  3  0  0  0  0  0  0
  185.1380  177.8720  140.2480 C   0  0  0  0  0  2  0  0  0  0  0  0
  186.0160  177.3070  147.5500 C   0  0  0  0  0  3  0  0  0  0  0  0
  187.3880  176.4860  143.5110 C   0  0  0  0  0  0  0  0  0  0  0  0
  187.3440  176.0760  145.9380 C   0  0  0  0  0  3  0  0  0  0  0  0
  185.6360  180.1910  144.4550 O   0  0  0  0  0  1  0  0  0  0  0  0
  187.2170  176.6400  141.0810 C   0  0  0  0  0  3  0  0  0  0  0  0
  187.9140  176.1880  142.1360 C   0  0  0  0  0  0  0  0  0  0  0  0
  184.0090  178.6170  140.9830 C   0  0  1  0  0  3  0  0  0  0  0  0
  185.5650  177.7750  142.5640 C   0  0  0  0  0  0  0  0  0  0  0  0
  187.8630  175.8400  144.5820 C   0  0  0  0  0  3  0  0  0  0  0  0
  190.3300  173.5290  140.8890 C   0  0  0  0  0  0  0  0  0  0  0  0
  191.5260  173.9460  141.4770 C   0  0  0  0  0  3  0  0  0  0  0  0
  189.1650  175.4190  141.8910 C   0  0  0  0  0  0  0  0  0  0  0  0
  191.5490  175.0910  142.2750 C   0  0  0  0  0  3  0  0  0  0  0  0
  189.1570  174.2590  141.0980 C   0  0  0  0  0  3  0  0  0  0  0  0
  190.3750  175.8210  142.4830 C   0  0  0  0  0  3  0  0  0  0  0  0
  190.3060  172.4160  140.1180 F   0  0  0  0  0  0  0  0  0  0  0  0
  181.5570  178.6660  140.8870 C   0  0  0  0  0  3  0  0  0  0  0  0
  182.6890  178.0000  140.6710 C   0  0  0  0  0  3  0  0  0  0  0  0
  179.4830  178.6530  142.8380 O   0  0  0  0  0  1  0  0  0  0  0  0
  180.2300  178.1000  140.5920 C   0  0  0  0  0  0  0  0  0  0  0  0
  179.2300  178.1120  141.5810 C   0  0  0  0  0  0  0  0  0  0  0  0
  177.6910  177.0300  140.0540 C   0  0  0  0  0  3  0  0  0  0  0  0
  178.6780  177.0150  139.0660 C   0  0  0  0  0  3  0  0  0  0  0  0
  179.9420  177.5470  139.3330 C   0  0  0  0  0  3  0  0  0  0  0  0
  177.9670  177.5780  141.3080 C   0  0  0  0  0  3  0  0  0  0  0  0
  1 10  1  0  0  0  0
  2  6  2  0  0  0  0
  4 17  1  0  0  0  0
  6  5  1  0  0  0  0
  7 17  1  0  0  0  0
  8  3  1  6  0  0  0
  8  2  1  0  0  0  0
  8  1  1  0  0  0  0
  9 16  1  0  0  0  0
  9  4  1  0  0  0  0
 10  5  2  0  0  0  0
 11  3  1  0  0  0  0
 11 18  2  0  0  0  0
 12  1  2  0  0  0  0
 13  2  1  0  0  0  0
 14  4  1  0  0  0  0
 14 15  2  0  0  0  0
 15 11  1  0  0  0  0
 16 27  1  1  0  0  0
 16  7  1  0  0  0  0
 17  3  2  0  0  0  0
 18 12  1  0  0  0  0
 19 23  2  0  0  0  0
 19 20  1  0  0  0  0
 20 22  2  0  0  0  0
 21 15  1  0  0  0  0
 21 24  2  0  0  0  0
 22 24  1  0  0  0  0
 23 21  1  0  0  0  0
 25 19  1  0  0  0  0
 27 26  2  0  0  0  0
 29 26  1  0  0  0  0
 29 30  1  0  0  0  0
 30 28  1  0  0  0  0
 31 34  1  0  0  0  0
 32 33  1  0  0  0  0
 32 31  2  0  0  0  0
 33 29  2  0  0  0  0
 34 30  2  0  0  0  0
M  END
>  <MODEL>
3

>  <REMARK>
 VINA RESULT:      -8.8      4.829      8.420
  Name = 
  3 active torsions:
  status: ('A' for Active; 'I' for Inactive)
    1  A    between atoms: C_3  and  C_13
    2  A    between atoms: C_12  and  C_28
    3  A    between atoms: C_17  and  C_29
                            x       y       z     vdW  Elec       q    Type
                         _______ _______ _______ _____ _____    ______ ____

>  <TORSDO>
F 3

$$$$
=
 OpenBabel11052418463D

 34 39  0  0  1  0  0  0  0  0999 V2000
  189.4740  173.1460  141.2970 C   0  0  0  0  0  0  0  0  0  0  0  0
  191.7930  173.8560  140.7650 C   0  0  0  0  0  0  0  0  0  0  0  0
  190.8380  174.2650  143.1260 C   0  0  0  0  0  0  0  0  0  0  0  0
  191.8650  175.0880  145.1280 N   0  0  0  0  0  0  0  0  0  0  0  0
  190.4470  172.5630  139.1630 C   0  0  0  0  0  3  0  0  0  0  0  0
  191.6260  173.3840  139.5210 C   0  0  0  0  0  3  0  0  0  0  0  0
  193.2180  173.6810  143.7450 C   0  0  0  0  0  2  0  0  0  0  0  0
  190.8490  173.4130  141.8690 C   0  0  0  0  0  0  0  0  0  0  0  0
  193.1180  175.0080  145.8420 C   0  0  0  0  0  2  0  0  0  0  0  0
  189.4060  172.4620  139.9980 C   0  0  0  0  0  2  0  0  0  0  0  0
  189.5590  174.8580  143.6180 C   0  0  0  0  0  0  0  0  0  0  0  0
  188.3640  173.6460  141.8390 C   0  0  0  0  0  3  0  0  0  0  0  0
  192.8690  174.6940  141.0300 O   0  0  0  0  0  1  0  0  0  0  0  0
  190.6990  175.7870  145.5670 C   0  0  0  0  0  3  0  0  0  0  0  0
  189.5640  175.7130  144.8540 C   0  0  0  0  0  0  0  0  0  0  0  0
  194.0310  174.1300  144.9670 C   0  0  1  0  0  3  0  0  0  0  0  0
  191.9110  174.3550  143.9250 C   0  0  0  0  0  0  0  0  0  0  0  0
  188.4100  174.5140  143.0260 C   0  0  0  0  0  3  0  0  0  0  0  0
  186.7750  178.2910  145.0380 C   0  0  0  0  0  0  0  0  0  0  0  0
  186.1550  177.9430  146.2400 C   0  0  0  0  0  3  0  0  0  0  0  0
  188.3740  176.4760  145.3210 C   0  0  0  0  0  0  0  0  0  0  0  0
  186.6410  176.8700  146.9890 C   0  0  0  0  0  3  0  0  0  0  0  0
  187.8790  177.5650  144.5840 C   0  0  0  0  0  3  0  0  0  0  0  0
  187.7450  176.1430  146.5340 C   0  0  0  0  0  3  0  0  0  0  0  0
  186.3070  179.3350  144.3120 F   0  0  0  0  0  0  0  0  0  0  0  0
  195.0000  171.8790  145.0980 C   0  0  0  0  0  3  0  0  0  0  0  0
  194.4860  172.9320  145.7280 C   0  0  0  0  0  3  0  0  0  0  0  0
  197.7440  171.1180  145.0890 O   0  0  0  0  0  1  0  0  0  0  0  0
  195.4660  170.6740  145.8060 C   0  0  0  0  0  0  0  0  0  0  0  0
  196.8290  170.3310  145.7790 C   0  0  0  0  0  0  0  0  0  0  0  0
  196.3760  168.3830  147.1490 C   0  0  0  0  0  3  0  0  0  0  0  0
  195.0210  168.7170  147.1810 C   0  0  0  0  0  3  0  0  0  0  0  0
  194.5660  169.8570  146.5130 C   0  0  0  0  0  3  0  0  0  0  0  0
  197.2780  169.1890  146.4500 C   0  0  0  0  0  3  0  0  0  0  0  0
  1 12  2  0  0  0  0
  1  8  1  0  0  0  0
  2 13  1  0  0  0  0
  2  8  2  0  0  0  0
  3 11  1  0  0  0  0
  3 17  2  0  0  0  0
  4 14  1  0  0  0  0
  4  9  1  0  0  0  0
  5  6  2  0  0  0  0
  5 10  1  0  0  0  0
  6  2  1  0  0  0  0
  7 17  1  0  0  0  0
  7 16  1  0  0  0  0
  8  3  1  0  0  0  0
 10  1  1  0  0  0  0
 11 15  1  0  0  0  0
 12 18  1  0  0  0  0
 15 21  1  0  0  0  0
 15 14  2  0  0  0  0
 16 27  1  1  0  0  0
 16  9  1  0  0  0  0
 17  4  1  0  0  0  0
 18 11  2  0  0  0  0
 19 20  1  0  0  0  0
 20 22  2  0  0  0  0
 21 24  2  0  0  0  0
 23 19  2  0  0  0  0
 23 21  1  0  0  0  0
 24 22  1  0  0  0  0
 25 19  1  0  0  0  0
 26 27  2  0  0  0  0
 26 29  1  0  0  0  0
 28 30  1  0  0  0  0
 29 33  1  0  0  0  0
 30 29  2  0  0  0  0
 30 34  1  0  0  0  0
 31 32  1  0  0  0  0
 33 32  2  0  0  0  0
 34 31  2  0  0  0  0
M  END
>  <MODEL>
4

>  <REMARK>
 VINA RESULT:      -8.3      3.251      7.162
  Name = 
  3 active torsions:
  status: ('A' for Active; 'I' for Inactive)
    1  A    between atoms: C_3  and  C_13
    2  A    between atoms: C_12  and  C_28
    3  A    between atoms: C_17  and  C_29
                            x       y       z     vdW  Elec       q    Type
                         _______ _______ _______ _____ _____    ______ ____

>  <TORSDO>
F 3

$$$$
=
 OpenBabel11052418463D

 34 39  0  0  1  0  0  0  0  0999 V2000
  192.9060  174.0920  145.1260 C   0  0  0  0  0  0  0  0  0  0  0  0
  192.9560  176.3510  144.0980 C   0  0  0  0  0  0  0  0  0  0  0  0
  191.2180  174.6200  143.3030 C   0  0  0  0  0  0  0  0  0  0  0  0
  189.3740  174.8110  141.7830 N   0  0  0  0  0  0  0  0  0  0  0  0
  194.3780  175.7850  146.0230 C   0  0  0  0  0  3  0  0  0  0  0  0
  193.9800  176.6680  144.9030 C   0  0  0  0  0  3  0  0  0  0  0  0
  189.7990  176.7080  143.1780 C   0  0  0  0  0  2  0  0  0  0  0  0
  192.0830  175.1530  144.4290 C   0  0  1  0  0  3  0  0  0  0  0  0
  188.3490  175.7530  141.4020 C   0  0  0  0  0  2  0  0  0  0  0  0
  193.8850  174.5450  146.1240 C   0  0  0  0  0  3  0  0  0  0  0  0
  191.3210  173.1880  142.8910 C   0  0  0  0  0  0  0  0  0  0  0  0
  192.8870  172.8130  144.7530 C   0  0  0  0  0  3  0  0  0  0  0  0
  192.6770  177.1670  143.0090 O   0  0  0  0  0  1  0  0  0  0  0  0
  189.5280  173.4900  141.2620 C   0  0  0  0  0  3  0  0  0  0  0  0
  190.4710  172.6770  141.7630 C   0  0  0  0  0  0  0  0  0  0  0  0
  188.6040  177.0050  142.2610 C   0  0  1  0  0  3  0  0  0  0  0  0
  190.2190  175.3450  142.7770 C   0  0  0  0  0  0  0  0  0  0  0  0
  192.0740  172.3530  143.6170 C   0  0  0  0  0  3  0  0  0  0  0  0
  190.7950  169.8460  139.2440 C   0  0  0  0  0  0  0  0  0  0  0  0
  190.8690  168.7340  140.0860 C   0  0  0  0  0  3  0  0  0  0  0  0
  190.6260  171.3160  141.1790 C   0  0  0  0  0  0  0  0  0  0  0  0
  190.8170  168.9030  141.4700 C   0  0  0  0  0  3  0  0  0  0  0  0
  190.6710  171.1270  139.7870 C   0  0  0  0  0  3  0  0  0  0  0  0
  190.6930  170.1860  142.0130 C   0  0  0  0  0  3  0  0  0  0  0  0
  190.8410  169.6820  137.9000 F   0  0  0  0  0  0  0  0  0  0  0  0
  187.5360  177.6620  144.3700 C   0  0  0  0  0  3  0  0  0  0  0  0
  187.4080  177.3220  143.0900 C   0  0  0  0  0  3  0  0  0  0  0  0
  187.7230  177.5430  147.2090 O   0  0  0  0  0  1  0  0  0  0  0  0
  186.3850  177.9850  145.2300 C   0  0  0  0  0  0  0  0  0  0  0  0
  186.5150  177.9160  146.6280 C   0  0  0  0  0  0  0  0  0  0  0  0
  184.2050  178.5990  146.8880 C   0  0  0  0  0  3  0  0  0  0  0  0
  184.0660  178.6710  145.5000 C   0  0  0  0  0  3  0  0  0  0  0  0
  185.1510  178.3660  144.6740 C   0  0  0  0  0  3  0  0  0  0  0  0
  185.4260  178.2220  147.4500 C   0  0  0  0  0  3  0  0  0  0  0  0
  1 10  1  0  0  0  0
  2  8  1  0  0  0  0
  2  6  2  0  0  0  0
  4 17  1  0  0  0  0
  5 10  2  0  0  0  0
  6  5  1  0  0  0  0
  8  3  1  6  0  0  0
  8  1  1  0  0  0  0
  9  4  1  0  0  0  0
  9 16  1  0  0  0  0
 11  3  1  0  0  0  0
 11 18  2  0  0  0  0
 12  1  2  0  0  0  0
 13  2  1  0  0  0  0
 14 15  2  0  0  0  0
 14  4  1  0  0  0  0
 15 11  1  0  0  0  0
 16 27  1  1  0  0  0
 16  7  1  0  0  0  0
 17  7  1  0  0  0  0
 17  3  2  0  0  0  0
 18 12  1  0  0  0  0
 19 23  2  0  0  0  0
 19 20  1  0  0  0  0
 20 22  2  0  0  0  0
 21 15  1  0  0  0  0
 21 24  2  0  0  0  0
 22 24  1  0  0  0  0
 23 21  1  0  0  0  0
 25 19  1  0  0  0  0
 26 29  1  0  0  0  0
 27 26  2  0  0  0  0
 29 30  1  0  0  0  0
 30 28  1  0  0  0  0
 30 34  2  0  0  0  0
 31 34  1  0  0  0  0
 32 31  2  0  0  0  0
 33 29  2  0  0  0  0
 33 32  1  0  0  0  0
M  END
>  <MODEL>
5

>  <REMARK>
 VINA RESULT:      -8.3      3.473      8.179
  Name = 
  3 active torsions:
  status: ('A' for Active; 'I' for Inactive)
    1  A    between atoms: C_3  and  C_13
    2  A    between atoms: C_12  and  C_28
    3  A    between atoms: C_17  and  C_29
                            x       y       z     vdW  Elec       q    Type
                         _______ _______ _______ _____ _____    ______ ____

>  <TORSDO>
F 3

$$$$
=
 OpenBabel11052418463D

 34 39  0  0  1  0  0  0  0  0999 V2000
  191.0890  173.6870  140.3700 C   0  0  0  0  0  0  0  0  0  0  0  0
  189.8840  172.1620  141.9150 C   0  0  0  0  0  0  0  0  0  0  0  0
  191.4370  173.9870  142.8690 C   0  0  0  0  0  0  0  0  0  0  0  0
  191.8530  174.6930  145.1200 N   0  0  0  0  0  0  0  0  0  0  0  0
  189.4630  172.1290  139.4920 C   0  0  0  0  0  3  0  0  0  0  0  0
  189.3370  171.5560  140.8510 C   0  0  0  0  0  3  0  0  0  0  0  0
  189.6030  174.0660  144.6060 C   0  0  0  0  0  2  0  0  0  0  0  0
  190.5050  173.5390  141.7580 C   0  0  0  0  0  0  0  0  0  0  0  0
  191.1490  174.8930  146.3650 C   0  0  0  0  0  2  0  0  0  0  0  0
  190.3140  173.1330  139.2510 C   0  0  0  0  0  2  0  0  0  0  0  0
  192.8370  174.4010  142.5520 C   0  0  0  0  0  0  0  0  0  0  0  0
  192.3240  174.1410  140.1580 C   0  0  0  0  0  3  0  0  0  0  0  0
  189.8140  171.5400  143.1560 O   0  0  0  0  0  1  0  0  0  0  0  0
  193.2360  174.9700  144.8920 C   0  0  0  0  0  3  0  0  0  0  0  0
  193.7550  174.8260  143.6620 C   0  0  0  0  0  0  0  0  0  0  0  0
  189.6950  174.4710  146.0830 C   0  0  1  0  0  3  0  0  0  0  0  0
  190.9940  174.2050  144.1150 C   0  0  0  0  0  0  0  0  0  0  0  0
  193.2110  174.5090  141.2720 C   0  0  0  0  0  3  0  0  0  0  0  0
  197.0800  176.6450  143.3540 C   0  0  0  0  0  0  0  0  0  0  0  0
  197.9410  175.5930  143.0310 C   0  0  0  0  0  3  0  0  0  0  0  0
  195.2060  175.0930  143.4620 C   0  0  0  0  0  0  0  0  0  0  0  0
  197.4430  174.2940  142.9160 C   0  0  0  0  0  3  0  0  0  0  0  0
  195.7220  176.3960  143.5640 C   0  0  0  0  0  3  0  0  0  0  0  0
  196.0830  174.0470  143.1280 C   0  0  0  0  0  3  0  0  0  0  0  0
  197.5620  177.9060  143.4610 F   0  0  0  0  0  0  0  0  0  0  0  0
  188.0900  176.1780  145.3530 C   0  0  0  0  0  3  0  0  0  0  0  0
  188.7640  175.6040  146.3470 C   0  0  0  0  0  3  0  0  0  0  0  0
  187.3050  177.8790  143.2080 O   0  0  0  0  0  1  0  0  0  0  0  0
  187.1570  177.2980  145.5630 C   0  0  0  0  0  0  0  0  0  0  0  0
  186.7930  178.1170  144.4790 C   0  0  0  0  0  0  0  0  0  0  0  0
  185.3800  179.4380  145.9390 C   0  0  0  0  0  3  0  0  0  0  0  0
  185.7360  178.6300  147.0210 C   0  0  0  0  0  3  0  0  0  0  0  0
  186.6210  177.5650  146.8340 C   0  0  0  0  0  3  0  0  0  0  0  0
  185.9070  179.1820  144.6710 C   0  0  0  0  0  3  0  0  0  0  0  0
  1  8  1  0  0  0  0
  2 13  1  0  0  0  0
  3 17  2  0  0  0  0
  4  9  1  0  0  0  0
  5  6  2  0  0  0  0
  6  2  1  0  0  0  0
  7 16  1  0  0  0  0
  8  2  2  0  0  0  0
  8  3  1  0  0  0  0
 10  5  1  0  0  0  0
 10  1  1  0  0  0  0
 11  3  1  0  0  0  0
 11 15  1  0  0  0  0
 12  1  2  0  0  0  0
 12 18  1  0  0  0  0
 14  4  1  0  0  0  0
 15 14  2  0  0  0  0
 16 27  1  6  0  0  0
 16  9  1  0  0  0  0
 17  7  1  0  0  0  0
 17  4  1  0  0  0  0
 18 11  2  0  0  0  0
 19 25  1  0  0  0  0
 19 23  1  0  0  0  0
 20 19  2  0  0  0  0
 21 23  2  0  0  0  0
 21 15  1  0  0  0  0
 22 20  1  0  0  0  0
 22 24  2  0  0  0  0
 24 21  1  0  0  0  0
 26 29  1  0  0  0  0
 26 27  2  0  0  0  0
 28 30  1  0  0  0  0
 29 33  1  0  0  0  0
 30 34  1  0  0  0  0
 30 29  2  0  0  0  0
 31 32  1  0  0  0  0
 33 32  2  0  0  0  0
 34 31  2  0  0  0  0
M  END
>  <MODEL>
6

>  <REMARK>
 VINA RESULT:      -8.2      3.615      8.670
  Name = 
  3 active torsions:
  status: ('A' for Active; 'I' for Inactive)
    1  A    between atoms: C_3  and  C_13
    2  A    between atoms: C_12  and  C_28
    3  A    between atoms: C_17  and  C_29
                            x       y       z     vdW  Elec       q    Type
                         _______ _______ _______ _____ _____    ______ ____

>  <TORSDO>
F 3

$$$$
=
 OpenBabel11052418463D

 34 39  0  0  1  0  0  0  0  0999 V2000
  191.5020  173.7960  139.7980 C   0  0  0  0  0  0  0  0  0  0  0  0
  189.8620  172.4710  141.1090 C   0  0  0  0  0  0  0  0  0  0  0  0
  191.4220  174.1320  142.3150 C   0  0  0  0  0  0  0  0  0  0  0  0
  191.5020  174.8560  144.5980 N   0  0  0  0  0  0  0  0  0  0  0  0
  189.8890  172.4100  138.6500 C   0  0  0  0  0  3  0  0  0  0  0  0
  189.4490  171.8990  139.9680 C   0  0  0  0  0  3  0  0  0  0  0  0
  189.3240  174.4780  143.6820 C   0  0  0  0  0  2  0  0  0  0  0  0
  190.6610  173.7610  141.0560 C   0  0  0  0  0  0  0  0  0  0  0  0
  190.6110  175.1750  145.6890 C   0  0  0  0  0  2  0  0  0  0  0  0
  190.8840  173.3010  138.5600 C   0  0  0  0  0  2  0  0  0  0  0  0
  192.8960  174.3710  142.2580 C   0  0  0  0  0  0  0  0  0  0  0  0
  192.8000  174.0970  139.8140 C   0  0  0  0  0  3  0  0  0  0  0  0
  189.4920  171.9010  142.3210 O   0  0  0  0  0  1  0  0  0  0  0  0
  192.9270  174.9640  144.6260 C   0  0  0  0  0  3  0  0  0  0  0  0
  193.6400  174.7220  143.5150 C   0  0  0  0  0  0  0  0  0  0  0  0
  189.1940  174.9160  145.1480 C   0  0  1  0  0  3  0  0  0  0  0  0
  190.7880  174.4390  143.4560 C   0  0  0  0  0  0  0  0  0  0  0  0
  193.5070  174.3950  141.0690 C   0  0  0  0  0  3  0  0  0  0  0  0
  197.1750  176.1220  143.4760 C   0  0  0  0  0  0  0  0  0  0  0  0
  197.9330  174.9640  143.6650 C   0  0  0  0  0  3  0  0  0  0  0  0
  195.1240  174.8130  143.5840 C   0  0  0  0  0  0  0  0  0  0  0  0
  197.2970  173.7300  143.8080 C   0  0  0  0  0  3  0  0  0  0  0  0
  195.7810  176.0460  143.4320 C   0  0  0  0  0  3  0  0  0  0  0  0
  195.9010  173.6550  143.7650 C   0  0  0  0  0  3  0  0  0  0  0  0
  197.7920  177.3190  143.3330 F   0  0  0  0  0  0  0  0  0  0  0  0
  187.2690  176.2900  144.4920 C   0  0  0  0  0  3  0  0  0  0  0  0
  188.3720  176.1570  145.2230 C   0  0  0  0  0  3  0  0  0  0  0  0
  185.2820  176.6420  146.5010 O   0  0  0  0  0  1  0  0  0  0  0  0
  186.4240  177.4960  144.5340 C   0  0  0  0  0  0  0  0  0  0  0  0
  185.4530  177.6340  145.5410 C   0  0  0  0  0  0  0  0  0  0  0  0
  184.8030  179.7850  144.6340 C   0  0  0  0  0  3  0  0  0  0  0  0
  185.7640  179.6560  143.6300 C   0  0  0  0  0  3  0  0  0  0  0  0
  186.5720  178.5170  143.5790 C   0  0  0  0  0  3  0  0  0  0  0  0
  184.6480  178.7770  145.5870 C   0  0  0  0  0  3  0  0  0  0  0  0
  1 12  2  0  0  0  0
  1  8  1  0  0  0  0
  2 13  1  0  0  0  0
  3 17  2  0  0  0  0
  4 14  1  0  0  0  0
  4  9  1  0  0  0  0
  5  6  2  0  0  0  0
  6  2  1  0  0  0  0
  7 16  1  0  0  0  0
  8  2  2  0  0  0  0
  8  3  1  0  0  0  0
 10  5  1  0  0  0  0
 10  1  1  0  0  0  0
 11  3  1  0  0  0  0
 11 15  1  0  0  0  0
 12 18  1  0  0  0  0
 15 21  1  0  0  0  0
 15 14  2  0  0  0  0
 16 27  1  6  0  0  0
 16  9  1  0  0  0  0
 17  7  1  0  0  0  0
 17  4  1  0  0  0  0
 18 11  2  0  0  0  0
 19 20  1  0  0  0  0
 20 22  2  0  0  0  0
 21 24  2  0  0  0  0
 23 19  2  0  0  0  0
 23 21  1  0  0  0  0
 24 22  1  0  0  0  0
 25 19  1  0  0  0  0
 26 29  1  0  0  0  0
 26 27  2  0  0  0  0
 29 30  1  0  0  0  0
 30 34  2  0  0  0  0
 30 28  1  0  0  0  0
 31 34  1  0  0  0  0
 32 31  2  0  0  0  0
 33 32  1  0  0  0  0
 33 29  2  0  0  0  0
M  END
>  <MODEL>
7

>  <REMARK>
 VINA RESULT:      -8.0      3.584      8.672
  Name = 
  3 active torsions:
  status: ('A' for Active; 'I' for Inactive)
    1  A    between atoms: C_3  and  C_13
    2  A    between atoms: C_12  and  C_28
    3  A    between atoms: C_17  and  C_29
                            x       y       z     vdW  Elec       q    Type
                         _______ _______ _______ _____ _____    ______ ____

>  <TORSDO>
F 3

$$$$
=
 OpenBabel11052418463D

 34 39  0  0  1  0  0  0  0  0999 V2000
  193.3240  174.6670  145.6990 C   0  0  0  0  0  0  0  0  0  0  0  0
  193.1070  176.6400  144.2090 C   0  0  0  0  0  0  0  0  0  0  0  0
  191.6170  174.5710  143.8200 C   0  0  0  0  0  0  0  0  0  0  0  0
  189.7940  174.1940  142.3120 N   0  0  0  0  0  0  0  0  0  0  0  0
  194.5530  176.6880  146.1980 C   0  0  0  0  0  3  0  0  0  0  0  0
  194.0670  177.2510  144.9180 C   0  0  0  0  0  3  0  0  0  0  0  0
  189.9480  176.3840  143.2620 C   0  0  0  0  0  2  0  0  0  0  0  0
  192.3870  175.4400  144.7980 C   0  0  1  0  0  3  0  0  0  0  0  0
  188.6640  174.8930  141.7470 C   0  0  0  0  0  2  0  0  0  0  0  0
  194.2190  175.4460  146.5670 C   0  0  0  0  0  3  0  0  0  0  0  0
  191.9100  173.1090  143.7250 C   0  0  0  0  0  0  0  0  0  0  0  0
  193.4750  173.3460  145.6110 C   0  0  0  0  0  3  0  0  0  0  0  0
  192.7470  177.1610  142.9720 O   0  0  0  0  0  1  0  0  0  0  0  0
  190.1240  172.8220  142.0860 C   0  0  0  0  0  3  0  0  0  0  0  0
  191.1530  172.2630  142.7420 C   0  0  0  0  0  0  0  0  0  0  0  0
  188.7420  176.3220  142.3130 C   0  0  1  0  0  3  0  0  0  0  0  0
  190.5450  175.0330  143.1600 C   0  0  0  0  0  0  0  0  0  0  0  0
  192.7490  172.5530  144.6070 C   0  0  0  0  0  3  0  0  0  0  0  0
  192.8310  168.8540  142.9000 C   0  0  0  0  0  0  0  0  0  0  0  0
  192.1540  168.1660  141.8910 C   0  0  0  0  0  3  0  0  0  0  0  0
  191.4910  170.8400  142.4620 C   0  0  0  0  0  0  0  0  0  0  0  0
  191.1520  168.8070  141.1610 C   0  0  0  0  0  3  0  0  0  0  0  0
  192.5030  170.1830  143.1810 C   0  0  0  0  0  3  0  0  0  0  0  0
  190.8240  170.1370  141.4430 C   0  0  0  0  0  3  0  0  0  0  0  0
  193.8060  168.2340  143.6060 F   0  0  0  0  0  0  0  0  0  0  0  0
  187.5380  177.4580  144.1250 C   0  0  0  0  0  3  0  0  0  0  0  0
  187.5000  176.6530  143.0660 C   0  0  0  0  0  3  0  0  0  0  0  0
  185.7170  179.4470  143.2090 O   0  0  0  0  0  1  0  0  0  0  0  0
  186.3380  177.8160  144.9000 C   0  0  0  0  0  0  0  0  0  0  0  0
  185.4620  178.8030  144.4150 C   0  0  0  0  0  0  0  0  0  0  0  0
  184.0440  178.5140  146.3590 C   0  0  0  0  0  3  0  0  0  0  0  0
  184.9080  177.5320  146.8480 C   0  0  0  0  0  3  0  0  0  0  0  0
  186.0510  177.1840  146.1220 C   0  0  0  0  0  3  0  0  0  0  0  0
  184.3200  179.1470  145.1450 C   0  0  0  0  0  3  0  0  0  0  0  0
  1 10  1  0  0  0  0
  2  8  1  0  0  0  0
  2  6  2  0  0  0  0
  4 17  1  0  0  0  0
  5 10  2  0  0  0  0
  6  5  1  0  0  0  0
  8  3  1  6  0  0  0
  8  1  1  0  0  0  0
  9  4  1  0  0  0  0
  9 16  1  0  0  0  0
 11  3  1  0  0  0  0
 11 18  2  0  0  0  0
 12  1  2  0  0  0  0
 13  2  1  0  0  0  0
 14  4  1  0  0  0  0
 14 15  2  0  0  0  0
 15 11  1  0  0  0  0
 16 27  1  1  0  0  0
 16  7  1  0  0  0  0
 17  7  1  0  0  0  0
 17  3  2  0  0  0  0
 18 12  1  0  0  0  0
 19 23  1  0  0  0  0
 19 25  1  0  0  0  0
 20 19  2  0  0  0  0
 21 15  1  0  0  0  0
 21 23  2  0  0  0  0
 22 24  2  0  0  0  0
 22 20  1  0  0  0  0
 24 21  1  0  0  0  0
 26 29  1  0  0  0  0
 27 26  2  0  0  0  0
 28 30  1  0  0  0  0
 29 33  1  0  0  0  0
 30 29  2  0  0  0  0
 30 34  1  0  0  0  0
 31 32  1  0  0  0  0
 33 32  2  0  0  0  0
 34 31  2  0  0  0  0
M  END
>  <MODEL>
8

>  <REMARK>
 VINA RESULT:      -7.7      3.953      8.100
  Name = 
  3 active torsions:
  status: ('A' for Active; 'I' for Inactive)
    1  A    between atoms: C_3  and  C_13
    2  A    between atoms: C_12  and  C_28
    3  A    between atoms: C_17  and  C_29
                            x       y       z     vdW  Elec       q    Type
                         _______ _______ _______ _____ _____    ______ ____

>  <TORSDO>
F 3

$$$$
=
 OpenBabel11052418463D

 34 39  0  0  1  0  0  0  0  0999 V2000
  189.3850  174.5610  145.6740 C   0  0  0  0  0  0  0  0  0  0  0  0
  189.6590  177.0250  145.5450 C   0  0  0  0  0  0  0  0  0  0  0  0
  188.7040  175.7370  143.5260 C   0  0  0  0  0  0  0  0  0  0  0  0
  187.7830  176.5030  141.4510 N   0  0  0  0  0  0  0  0  0  0  0  0
  190.0630  175.7960  147.6370 C   0  0  0  0  0  3  0  0  0  0  0  0
  190.1420  177.0120  146.7960 C   0  0  0  0  0  3  0  0  0  0  0  0
  187.2880  177.8240  143.3830 C   0  0  0  0  0  2  0  0  0  0  0  0
  188.8730  175.8320  145.0310 C   0  0  1  0  0  3  0  0  0  0  0  0
  186.9590  177.5690  140.9340 C   0  0  0  0  0  2  0  0  0  0  0  0
  189.7220  174.6170  147.1030 C   0  0  0  0  0  3  0  0  0  0  0  0
  189.1490  174.5100  142.7980 C   0  0  0  0  0  0  0  0  0  0  0  0
  189.6860  173.4730  144.9660 C   0  0  0  0  0  3  0  0  0  0  0  0
  189.8360  178.1620  144.7670 O   0  0  0  0  0  1  0  0  0  0  0  0
  188.3100  175.4130  140.6910 C   0  0  0  0  0  3  0  0  0  0  0  0
  188.9920  174.4340  141.3060 C   0  0  0  0  0  0  0  0  0  0  0  0
  186.6390  178.4630  142.1460 C   0  0  1  0  0  3  0  0  0  0  0  0
  187.9960  176.6430  142.8370 C   0  0  0  0  0  0  0  0  0  0  0  0
  189.5600  173.4480  143.5000 C   0  0  0  0  0  3  0  0  0  0  0  0
  191.4600  172.0450  139.6740 C   0  0  0  0  0  0  0  0  0  0  0  0
  190.6110  171.2670  138.8850 C   0  0  0  0  0  3  0  0  0  0  0  0
  189.5540  173.3280  140.4830 C   0  0  0  0  0  0  0  0  0  0  0  0
  189.2370  171.5160  138.8840 C   0  0  0  0  0  3  0  0  0  0  0  0
  190.9360  173.0710  140.4650 C   0  0  0  0  0  3  0  0  0  0  0  0
  188.7130  172.5420  139.6770 C   0  0  0  0  0  3  0  0  0  0  0  0
  192.7940  171.8080  139.6720 F   0  0  0  0  0  0  0  0  0  0  0  0
  184.3230  178.3130  141.3510 C   0  0  0  0  0  3  0  0  0  0  0  0
  185.1660  178.5570  142.3500 C   0  0  0  0  0  3  0  0  0  0  0  0
  182.5640  177.2330  139.3880 O   0  0  0  0  0  1  0  0  0  0  0  0
  182.8600  178.3910  141.5030 C   0  0  0  0  0  0  0  0  0  0  0  0
  182.0240  177.8460  140.5130 C   0  0  0  0  0  0  0  0  0  0  0  0
  180.0690  178.5270  141.7740 C   0  0  0  0  0  3  0  0  0  0  0  0
  180.8920  179.0700  142.7620 C   0  0  0  0  0  3  0  0  0  0  0  0
  182.2810  179.0030  142.6290 C   0  0  0  0  0  3  0  0  0  0  0  0
  180.6340  177.9160  140.6520 C   0  0  0  0  0  3  0  0  0  0  0  0
  1 10  1  0  0  0  0
  2  6  2  0  0  0  0
  4 17  1  0  0  0  0
  6  5  1  0  0  0  0
  8  3  1  6  0  0  0
  8  2  1  0  0  0  0
  8  1  1  0  0  0  0
  9  4  1  0  0  0  0
  9 16  1  0  0  0  0
 10  5  2  0  0  0  0
 11 18  2  0  0  0  0
 11  3  1  0  0  0  0
 12  1  2  0  0  0  0
 13  2  1  0  0  0  0
 14 15  2  0  0  0  0
 14  4  1  0  0  0  0
 15 11  1  0  0  0  0
 16 27  1  1  0  0  0
 16  7  1  0  0  0  0
 17  7  1  0  0  0  0
 17  3  2  0  0  0  0
 18 12  1  0  0  0  0
 19 23  1  0  0  0  0
 20 19  2  0  0  0  0
 21 15  1  0  0  0  0
 22 20  1  0  0  0  0
 22 24  2  0  0  0  0
 23 21  2  0  0  0  0
 24 21  1  0  0  0  0
 25 19  1  0  0  0  0
 26 29  1  0  0  0  0
 26 27  2  0  0  0  0
 28 30  1  0  0  0  0
 29 33  1  0  0  0  0
 30 34  1  0  0  0  0
 30 29  2  0  0  0  0
 31 32  1  0  0  0  0
 33 32  2  0  0  0  0
 34 31  2  0  0  0  0
M  END
>  <MODEL>
9

>  <REMARK>
 VINA RESULT:      -7.7      3.638      7.638
  Name = 
  3 active torsions:
  status: ('A' for Active; 'I' for Inactive)
    1  A    between atoms: C_3  and  C_13
    2  A    between atoms: C_12  and  C_28
    3  A    between atoms: C_17  and  C_29
                            x       y       z     vdW  Elec       q    Type
                         _______ _______ _______ _____ _____    ______ ____

>  <TORSDO>
F 3

$$$$
