=
 OpenBabel11052421263D

 32 37  0  0  0  0  0  0  0  0999 V2000
  192.1560  175.0910  146.8970 C   0  0  0  0  0  3  0  0  0  0  0  0
  187.8770  176.0970  144.4240 C   0  0  0  0  0  0  0  0  0  0  0  0
  185.6060  178.6940  147.9910 N   0  0  0  0  0  2  0  0  0  0  0  0
  184.3710  178.7170  147.2140 C   0  0  0  0  0  2  0  0  0  0  0  0
  187.0510  176.7160  142.0570 C   0  0  0  0  0  0  0  0  0  0  0  0
  187.7980  176.0840  141.0520 C   0  0  0  0  0  0  0  0  0  0  0  0
  190.0780  175.1560  145.0220 C   0  0  0  0  0  0  0  0  0  0  0  0
  188.3990  175.6000  146.8430 C   0  0  0  0  0  2  0  0  0  0  0  0
  185.6530  177.8260  140.4090 C   0  0  0  0  0  0  0  0  0  0  0  0
  190.8450  175.3320  147.3180 C   0  0  0  0  0  3  0  0  0  0  0  0
  186.2730  177.4190  147.7360 C   0  0  0  0  0  2  0  0  0  0  0  0
  187.6270  176.3350  145.8360 N   0  0  0  0  0  0  0  0  0  0  0  0
  186.5690  177.2320  146.2650 C   0  0  0  0  0  0  0  0  0  0  0  0
  186.0620  177.5810  143.9660 N   0  0  0  0  0  0  0  0  0  0  0  0
  186.3890  177.2000  139.3930 C   0  0  0  0  0  3  0  0  0  0  0  0
  189.8060  175.3710  146.3850 C   0  0  0  0  0  0  0  0  0  0  0  0
  187.4540  176.3360  139.7130 C   0  0  0  0  0  3  0  0  0  0  0  0
  191.3880  174.9040  144.6060 C   0  0  0  0  0  3  0  0  0  0  0  0
  192.4290  174.8750  145.5400 C   0  0  0  0  0  0  0  0  0  0  0  0
  184.7060  178.8090  145.7270 C   0  0  0  0  0  2  0  0  0  0  0  0
  185.7840  177.8310  145.3430 C   0  0  0  0  0  0  0  0  0  0  0  0
  185.4050  178.0910  142.8730 O   0  0  0  0  0  0  0  0  0  0  0  0
  188.9700  175.1540  144.0160 C   0  0  0  0  0  2  0  0  0  0  0  0
  188.8290  175.2530  141.3260 F   0  0  0  0  0  0  0  0  0  0  0  0
  184.6270  178.6600  140.1080 F   0  0  0  0  0  0  0  0  0  0  0  0
  187.0970  176.7150  143.5300 C   0  0  0  0  0  0  0  0  0  0  0  0
  186.0030  177.5690  141.7310 C   0  0  0  0  0  0  0  0  0  0  0  0
  193.8300  174.6330  145.0880 C   0  0  0  0  0  2  0  0  0  0  0  0
  194.8230  175.4510  145.9050 C   0  0  0  0  0  2  0  0  0  0  0  0
  195.1420  176.7390  145.2240 C   0  0  0  0  0  0  0  0  0  0  0  0
  195.8190  176.7360  144.0130 O   0  0  0  0  0  0  0  0  0  0  0  0
  194.7750  177.8280  145.7370 O   0  0  0  0  0  1  0  0  0  0  0  0
  1 10  1  0  0  0  0
  2 12  1  0  0  0  0
  4  3  1  0  0  0  0
  5 26  1  0  0  0  0
  6 24  1  0  0  0  0
  6  5  2  0  0  0  0
  7 16  1  0  0  0  0
  9 27  2  0  0  0  0
 11  3  1  0  0  0  0
 12 13  1  0  0  0  0
 12  8  1  0  0  0  0
 13 11  1  0  0  0  0
 14 21  1  0  0  0  0
 15 17  2  0  0  0  0
 15  9  1  0  0  0  0
 16  8  1  0  0  0  0
 16 10  2  0  0  0  0
 17  6  1  0  0  0  0
 18  7  2  0  0  0  0
 18 19  1  0  0  0  0
 19  1  2  0  0  0  0
 20  4  1  0  0  0  0
 21 20  1  0  0  0  0
 21 13  2  0  0  0  0
 22 14  1  0  0  0  0
 23  2  1  0  0  0  0
 23  7  1  0  0  0  0
 25  9  1  0  0  0  0
 26 14  1  0  0  0  0
 26  2  2  0  0  0  0
 27  5  1  0  0  0  0
 27 22  1  0  0  0  0
 28 19  1  0  0  0  0
 28 29  1  0  0  0  0
 30 32  1  0  0  0  0
 30 29  1  0  0  0  0
 31 30  2  0  0  0  0
M  END
>  <MODEL>
1

>  <REMARK>
 VINA RESULT:      -8.9      0.000      0.000
  Name = 
  3 active torsions:
  status: ('A' for Active; 'I' for Inactive)
    1  A    between atoms: C_1  and  C_10
    2  A    between atoms: C_10  and  C_19
    3  A    between atoms: C_19  and  C_24
                            x       y       z     vdW  Elec       q    Type
                         _______ _______ _______ _____ _____    ______ ____

>  <TORSDO>
F 3

$$$$
=
 OpenBabel11052421263D

 32 37  0  0  0  0  0  0  0  0999 V2000
  185.7240  177.6880  142.9230 C   0  0  0  0  0  3  0  0  0  0  0  0
  190.1300  175.3050  143.5110 C   0  0  0  0  0  0  0  0  0  0  0  0
  190.5690  173.5070  138.9060 N   0  0  0  0  0  2  0  0  0  0  0  0
  191.7300  172.7170  139.3060 C   0  0  0  0  0  2  0  0  0  0  0  0
  192.4090  175.6070  144.6870 C   0  0  0  0  0  0  0  0  0  0  0  0
  192.2840  176.2490  145.9290 C   0  0  0  0  0  0  0  0  0  0  0  0
  188.0480  176.5410  143.9830 C   0  0  0  0  0  0  0  0  0  0  0  0
  188.0500  174.7870  142.1790 C   0  0  0  0  0  2  0  0  0  0  0  0
  194.8190  175.4370  144.9450 C   0  0  0  0  0  0  0  0  0  0  0  0
  186.2950  176.5720  142.3040 C   0  0  0  0  0  3  0  0  0  0  0  0
  189.6520  173.5640  140.0440 C   0  0  0  0  0  2  0  0  0  0  0  0
  189.5110  174.7780  142.3060 N   0  0  0  0  0  0  0  0  0  0  0  0
  190.3130  174.1700  141.2610 C   0  0  0  0  0  0  0  0  0  0  0  0
  192.2260  174.5960  142.6100 N   0  0  0  0  0  0  0  0  0  0  0  0
  194.7110  176.0760  146.1890 C   0  0  0  0  0  3  0  0  0  0  0  0
  187.4570  176.0000  142.8270 C   0  0  0  0  0  0  0  0  0  0  0  0
  193.4520  176.4790  146.6760 C   0  0  0  0  0  3  0  0  0  0  0  0
  187.4680  177.6500  144.6060 C   0  0  0  0  0  3  0  0  0  0  0  0
  186.3090  178.2280  144.0750 C   0  0  0  0  0  0  0  0  0  0  0  0
  192.5370  173.4880  140.3470 C   0  0  0  0  0  2  0  0  0  0  0  0
  191.6500  174.0620  141.4190 C   0  0  0  0  0  0  0  0  0  0  0  0
  193.5520  174.6070  142.9680 O   0  0  0  0  0  0  0  0  0  0  0  0
  189.2700  175.9150  144.5780 C   0  0  0  0  0  2  0  0  0  0  0  0
  191.0920  176.6530  146.4220 F   0  0  0  0  0  0  0  0  0  0  0  0
  196.0270  175.0480  144.4690 F   0  0  0  0  0  0  0  0  0  0  0  0
  191.4580  175.2010  143.6370 C   0  0  0  0  0  0  0  0  0  0  0  0
  193.6560  175.2160  144.2140 C   0  0  0  0  0  0  0  0  0  0  0  0
  185.7090  179.4280  144.7270 C   0  0  0  0  0  2  0  0  0  0  0  0
  184.4270  179.0710  145.4680 C   0  0  0  0  0  2  0  0  0  0  0  0
  184.7180  178.2350  146.6690 C   0  0  0  0  0  0  0  0  0  0  0  0
  184.5640  176.8570  146.6110 O   0  0  0  0  0  0  0  0  0  0  0  0
  185.1270  178.7780  147.7270 O   0  0  0  0  0  1  0  0  0  0  0  0
  1 19  1  0  0  0  0
  2 26  2  0  0  0  0
  2 23  1  0  0  0  0
  3  4  1  0  0  0  0
  3 11  1  0  0  0  0
  4 20  1  0  0  0  0
  5  6  1  0  0  0  0
  6 24  1  0  0  0  0
  6 17  2  0  0  0  0
  7 23  1  0  0  0  0
  7 18  1  0  0  0  0
  8 12  1  0  0  0  0
  8 16  1  0  0  0  0
  9 15  2  0  0  0  0
 10 16  1  0  0  0  0
 10  1  2  0  0  0  0
 11 13  1  0  0  0  0
 12  2  1  0  0  0  0
 13 21  2  0  0  0  0
 13 12  1  0  0  0  0
 14 22  1  0  0  0  0
 14 26  1  0  0  0  0
 15 17  1  0  0  0  0
 16  7  2  0  0  0  0
 19 18  2  0  0  0  0
 19 28  1  0  0  0  0
 20 21  1  0  0  0  0
 21 14  1  0  0  0  0
 22 27  1  0  0  0  0
 25  9  1  0  0  0  0
 26  5  1  0  0  0  0
 27  5  2  0  0  0  0
 27  9  1  0  0  0  0
 28 29  1  0  0  0  0
 29 30  1  0  0  0  0
 30 32  1  0  0  0  0
 31 30  2  0  0  0  0
M  END
>  <MODEL>
2

>  <REMARK>
 VINA RESULT:      -8.6      3.408      8.336
  Name = 
  3 active torsions:
  status: ('A' for Active; 'I' for Inactive)
    1  A    between atoms: C_1  and  C_10
    2  A    between atoms: C_10  and  C_19
    3  A    between atoms: C_19  and  C_24
                            x       y       z     vdW  Elec       q    Type
                         _______ _______ _______ _____ _____    ______ ____

>  <TORSDO>
F 3

$$$$
=
 OpenBabel11052421263D

 32 37  0  0  0  0  0  0  0  0999 V2000
  192.3430  175.2980  146.5680 C   0  0  0  0  0  3  0  0  0  0  0  0
  187.9220  176.1790  144.3060 C   0  0  0  0  0  0  0  0  0  0  0  0
  185.6920  178.5680  148.0410 N   0  0  0  0  0  2  0  0  0  0  0  0
  184.4260  178.5580  147.3160 C   0  0  0  0  0  2  0  0  0  0  0  0
  186.9680  176.8260  141.9950 C   0  0  0  0  0  0  0  0  0  0  0  0
  187.6990  176.2570  140.9420 C   0  0  0  0  0  0  0  0  0  0  0  0
  190.1850  175.3220  144.7830 C   0  0  0  0  0  0  0  0  0  0  0  0
  188.5670  175.6370  146.6850 C   0  0  0  0  0  2  0  0  0  0  0  0
  185.4530  177.9170  140.4400 C   0  0  0  0  0  0  0  0  0  0  0  0
  191.0410  175.4680  147.0510 C   0  0  0  0  0  3  0  0  0  0  0  0
  186.4040  177.3320  147.7200 C   0  0  0  0  0  2  0  0  0  0  0  0
  187.7220  176.3650  145.7340 N   0  0  0  0  0  0  0  0  0  0  0  0
  186.6440  177.2010  146.2330 C   0  0  0  0  0  0  0  0  0  0  0  0
  186.0240  177.5910  143.9690 N   0  0  0  0  0  0  0  0  0  0  0  0
  186.1720  177.3540  139.3760 C   0  0  0  0  0  3  0  0  0  0  0  0
  189.9620  175.4850  146.1630 C   0  0  0  0  0  0  0  0  0  0  0  0
  187.2870  176.5310  139.6260 C   0  0  0  0  0  3  0  0  0  0  0  0
  191.4860  175.1410  144.3060 C   0  0  0  0  0  3  0  0  0  0  0  0
  192.5660  175.1330  145.1960 C   0  0  0  0  0  0  0  0  0  0  0  0
  184.6930  178.7060  145.8200 C   0  0  0  0  0  2  0  0  0  0  0  0
  185.7950  177.7890  145.3630 C   0  0  0  0  0  0  0  0  0  0  0  0
  185.3000  178.1010  142.9190 O   0  0  0  0  0  0  0  0  0  0  0  0
  189.0360  175.2980  143.8250 C   0  0  0  0  0  2  0  0  0  0  0  0
  188.7760  175.4660  141.1470 F   0  0  0  0  0  0  0  0  0  0  0  0
  184.3800  178.7120  140.2080 F   0  0  0  0  0  0  0  0  0  0  0  0
  187.0770  176.7860  143.4640 C   0  0  0  0  0  0  0  0  0  0  0  0
  185.8710  177.6400  141.7380 C   0  0  0  0  0  0  0  0  0  0  0  0
  193.9560  174.9670  144.6790 C   0  0  0  0  0  2  0  0  0  0  0  0
  194.9760  175.0220  145.8090 C   0  0  0  0  0  2  0  0  0  0  0  0
  196.1140  174.0940  145.5480 C   0  0  0  0  0  0  0  0  0  0  0  0
  196.3650  173.6470  144.2580 O   0  0  0  0  0  0  0  0  0  0  0  0
  196.8640  173.7380  146.4930 O   0  0  0  0  0  1  0  0  0  0  0  0
  1 10  1  0  0  0  0
  2 12  1  0  0  0  0
  4  3  1  0  0  0  0
  5 26  1  0  0  0  0
  6 24  1  0  0  0  0
  6  5  2  0  0  0  0
  7 16  1  0  0  0  0
  9 27  2  0  0  0  0
 11  3  1  0  0  0  0
 12 13  1  0  0  0  0
 12  8  1  0  0  0  0
 13 11  1  0  0  0  0
 14 21  1  0  0  0  0
 15 17  2  0  0  0  0
 15  9  1  0  0  0  0
 16  8  1  0  0  0  0
 16 10  2  0  0  0  0
 17  6  1  0  0  0  0
 18  7  2  0  0  0  0
 18 19  1  0  0  0  0
 19  1  2  0  0  0  0
 20  4  1  0  0  0  0
 21 20  1  0  0  0  0
 21 13  2  0  0  0  0
 22 14  1  0  0  0  0
 23  2  1  0  0  0  0
 23  7  1  0  0  0  0
 25  9  1  0  0  0  0
 26 14  1  0  0  0  0
 26  2  2  0  0  0  0
 27  5  1  0  0  0  0
 27 22  1  0  0  0  0
 28 19  1  0  0  0  0
 28 29  1  0  0  0  0
 30 29  1  0  0  0  0
 30 32  1  0  0  0  0
 31 30  2  0  0  0  0
M  END
>  <MODEL>
3

>  <REMARK>
 VINA RESULT:      -8.6      1.075      1.142
  Name = 
  3 active torsions:
  status: ('A' for Active; 'I' for Inactive)
    1  A    between atoms: C_1  and  C_10
    2  A    between atoms: C_10  and  C_19
    3  A    between atoms: C_19  and  C_24
                            x       y       z     vdW  Elec       q    Type
                         _______ _______ _______ _____ _____    ______ ____

>  <TORSDO>
F 3

$$$$
=
 OpenBabel11052421263D

 32 37  0  0  0  0  0  0  0  0999 V2000
  187.1460  177.5800  146.9690 C   0  0  0  0  0  3  0  0  0  0  0  0
  190.1090  175.6870  143.3530 C   0  0  0  0  0  0  0  0  0  0  0  0
  194.1160  174.7820  146.1380 N   0  0  0  0  0  2  0  0  0  0  0  0
  194.8920  174.4540  144.9460 C   0  0  0  0  0  2  0  0  0  0  0  0
  189.9750  174.1660  141.2700 C   0  0  0  0  0  0  0  0  0  0  0  0
  188.7700  174.3290  140.5710 C   0  0  0  0  0  0  0  0  0  0  0  0
  188.2220  176.7740  144.5130 C   0  0  0  0  0  0  0  0  0  0  0  0
  190.5590  177.1210  145.3800 C   0  0  0  0  0  2  0  0  0  0  0  0
  190.7430  172.4930  139.6850 C   0  0  0  0  0  0  0  0  0  0  0  0
  188.5330  177.5410  146.7950 C   0  0  0  0  0  3  0  0  0  0  0  0
  193.1700  175.8380  145.7800 C   0  0  0  0  0  2  0  0  0  0  0  0
  190.9660  176.0460  144.4700 N   0  0  0  0  0  0  0  0  0  0  0  0
  192.2580  175.4090  144.6540 C   0  0  0  0  0  0  0  0  0  0  0  0
  191.8170  174.1590  142.6770 N   0  0  0  0  0  0  0  0  0  0  0  0
  189.5440  172.6460  138.9740 C   0  0  0  0  0  3  0  0  0  0  0  0
  189.0740  177.1340  145.5730 C   0  0  0  0  0  0  0  0  0  0  0  0
  188.5660  173.5570  139.4140 C   0  0  0  0  0  3  0  0  0  0  0  0
  186.8370  176.8250  144.6870 C   0  0  0  0  0  3  0  0  0  0  0  0
  186.2970  177.2240  145.9150 C   0  0  0  0  0  0  0  0  0  0  0  0
  193.9920  173.7630  143.9250 C   0  0  0  0  0  2  0  0  0  0  0  0
  192.6860  174.4930  143.7580 C   0  0  0  0  0  0  0  0  0  0  0  0
  192.0420  173.2540  141.6690 O   0  0  0  0  0  0  0  0  0  0  0  0
  188.7870  176.3750  143.1860 C   0  0  0  0  0  2  0  0  0  0  0  0
  187.8080  175.1920  140.9700 F   0  0  0  0  0  0  0  0  0  0  0  0
  191.6890  171.6160  139.2680 F   0  0  0  0  0  0  0  0  0  0  0  0
  190.5490  174.7650  142.4880 C   0  0  0  0  0  0  0  0  0  0  0  0
  190.9340  173.2620  140.8290 C   0  0  0  0  0  0  0  0  0  0  0  0
  184.8170  177.2510  146.1040 C   0  0  0  0  0  2  0  0  0  0  0  0
  184.2690  178.6660  145.9680 C   0  0  0  0  0  2  0  0  0  0  0  0
  184.4040  179.1590  144.5670 C   0  0  0  0  0  0  0  0  0  0  0  0
  185.3350  180.1430  144.2630 O   0  0  0  0  0  1  0  0  0  0  0  0
  183.6910  178.6660  143.6560 O   0  0  0  0  0  0  0  0  0  0  0  0
  2 12  1  0  0  0  0
  4  3  1  0  0  0  0
  5 26  1  0  0  0  0
  6 24  1  0  0  0  0
  6  5  2  0  0  0  0
  7 18  2  0  0  0  0
  7 16  1  0  0  0  0
  8 16  1  0  0  0  0
  9 27  2  0  0  0  0
 10  1  1  0  0  0  0
 11  3  1  0  0  0  0
 12 13  1  0  0  0  0
 12  8  1  0  0  0  0
 13 11  1  0  0  0  0
 14 21  1  0  0  0  0
 15 17  2  0  0  0  0
 15  9  1  0  0  0  0
 16 10  2  0  0  0  0
 17  6  1  0  0  0  0
 18 19  1  0  0  0  0
 19 28  1  0  0  0  0
 19  1  2  0  0  0  0
 20  4  1  0  0  0  0
 21 20  1  0  0  0  0
 21 13  2  0  0  0  0
 22 14  1  0  0  0  0
 23  2  1  0  0  0  0
 23  7  1  0  0  0  0
 25  9  1  0  0  0  0
 26 14  1  0  0  0  0
 26  2  2  0  0  0  0
 27  5  1  0  0  0  0
 27 22  1  0  0  0  0
 29 28  1  0  0  0  0
 30 29  1  0  0  0  0
 31 30  1  0  0  0  0
 32 30  2  0  0  0  0
M  END
>  <MODEL>
4

>  <REMARK>
 VINA RESULT:      -8.4      3.023      7.111
  Name = 
  3 active torsions:
  status: ('A' for Active; 'I' for Inactive)
    1  A    between atoms: C_1  and  C_10
    2  A    between atoms: C_10  and  C_19
    3  A    between atoms: C_19  and  C_24
                            x       y       z     vdW  Elec       q    Type
                         _______ _______ _______ _____ _____    ______ ____

>  <TORSDO>
F 3

$$$$
=
 OpenBabel11052421263D

 32 37  0  0  0  0  0  0  0  0999 V2000
  190.1330  173.4730  139.3310 C   0  0  0  0  0  3  0  0  0  0  0  0
  188.2590  175.3890  143.6030 C   0  0  0  0  0  0  0  0  0  0  0  0
  192.3990  175.1880  146.3320 N   0  0  0  0  0  2  0  0  0  0  0  0
  191.6510  175.5640  147.5280 C   0  0  0  0  0  2  0  0  0  0  0  0
  186.6180  177.2140  144.4090 C   0  0  0  0  0  0  0  0  0  0  0  0
  185.5210  177.3590  143.5460 C   0  0  0  0  0  0  0  0  0  0  0  0
  188.4330  174.4600  141.3240 C   0  0  0  0  0  0  0  0  0  0  0  0
  189.9780  173.6070  143.1180 C   0  0  0  0  0  2  0  0  0  0  0  0
  185.7810  178.9630  145.8720 C   0  0  0  0  0  0  0  0  0  0  0  0
  190.4720  173.3110  140.6780 C   0  0  0  0  0  3  0  0  0  0  0  0
  191.5240  174.3680  145.4950 C   0  0  0  0  0  2  0  0  0  0  0  0
  189.5090  174.7280  143.9380 N   0  0  0  0  0  0  0  0  0  0  0  0
  190.2610  175.1100  145.1200 C   0  0  0  0  0  0  0  0  0  0  0  0
  188.5540  176.7030  145.5760 N   0  0  0  0  0  0  0  0  0  0  0  0
  184.6780  179.1190  145.0210 C   0  0  0  0  0  3  0  0  0  0  0  0
  189.6280  173.8070  141.6760 C   0  0  0  0  0  0  0  0  0  0  0  0
  184.5500  178.3230  143.8670 C   0  0  0  0  0  3  0  0  0  0  0  0
  188.0930  174.6100  139.9770 C   0  0  0  0  0  3  0  0  0  0  0  0
  188.9430  174.1210  138.9790 C   0  0  0  0  0  0  0  0  0  0  0  0
  190.5410  176.5420  147.1480 C   0  0  0  0  0  2  0  0  0  0  0  0
  189.7800  176.0700  145.9380 C   0  0  0  0  0  0  0  0  0  0  0  0
  187.8960  177.7030  146.2500 O   0  0  0  0  0  0  0  0  0  0  0  0
  187.5010  174.9600  142.3820 C   0  0  0  0  0  2  0  0  0  0  0  0
  185.3720  176.6140  142.4280 F   0  0  0  0  0  0  0  0  0  0  0  0
  185.9120  179.7270  146.9840 F   0  0  0  0  0  0  0  0  0  0  0  0
  187.8110  176.3490  144.4210 C   0  0  0  0  0  0  0  0  0  0  0  0
  186.7370  178.0060  145.5440 C   0  0  0  0  0  0  0  0  0  0  0  0
  188.5900  174.3070  137.5410 C   0  0  0  0  0  2  0  0  0  0  0  0
  187.4150  175.2630  137.3810 C   0  0  0  0  0  2  0  0  0  0  0  0
  187.4440  175.9290  136.0470 C   0  0  0  0  0  0  0  0  0  0  0  0
  186.2760  176.4390  135.4980 O   0  0  0  0  0  1  0  0  0  0  0  0
  188.5340  176.0500  135.4290 O   0  0  0  0  0  0  0  0  0  0  0  0
  1 10  1  0  0  0  0
  2 12  1  0  0  0  0
  2 26  2  0  0  0  0
  3  4  1  0  0  0  0
  5 26  1  0  0  0  0
  5 27  1  0  0  0  0
  6 17  1  0  0  0  0
  6  5  2  0  0  0  0
  7 16  1  0  0  0  0
  7 23  1  0  0  0  0
  8 12  1  0  0  0  0
  9 25  1  0  0  0  0
 10 16  2  0  0  0  0
 11  3  1  0  0  0  0
 12 13  1  0  0  0  0
 13 11  1  0  0  0  0
 13 21  2  0  0  0  0
 14 21  1  0  0  0  0
 14 22  1  0  0  0  0
 15  9  1  0  0  0  0
 16  8  1  0  0  0  0
 17 15  2  0  0  0  0
 18  7  2  0  0  0  0
 19  1  2  0  0  0  0
 19 18  1  0  0  0  0
 20  4  1  0  0  0  0
 21 20  1  0  0  0  0
 23  2  1  0  0  0  0
 24  6  1  0  0  0  0
 26 14  1  0  0  0  0
 27  9  2  0  0  0  0
 27 22  1  0  0  0  0
 28 19  1  0  0  0  0
 29 28  1  0  0  0  0
 30 29  1  0  0  0  0
 31 30  1  0  0  0  0
 32 30  2  0  0  0  0
M  END
>  <MODEL>
5

>  <REMARK>
 VINA RESULT:      -8.1      3.287      6.661
  Name = 
  3 active torsions:
  status: ('A' for Active; 'I' for Inactive)
    1  A    between atoms: C_1  and  C_10
    2  A    between atoms: C_10  and  C_19
    3  A    between atoms: C_19  and  C_24
                            x       y       z     vdW  Elec       q    Type
                         _______ _______ _______ _____ _____    ______ ____

>  <TORSDO>
F 3

$$$$
=
 OpenBabel11052421263D

 32 37  0  0  0  0  0  0  0  0999 V2000
  183.5750  178.7630  142.9990 C   0  0  0  0  0  3  0  0  0  0  0  0
  187.8780  176.1730  142.5380 C   0  0  0  0  0  0  0  0  0  0  0  0
  188.8130  175.5090  147.3660 N   0  0  0  0  0  2  0  0  0  0  0  0
  190.1280  174.9580  147.0550 C   0  0  0  0  0  2  0  0  0  0  0  0
  188.9500  174.3530  141.0530 C   0  0  0  0  0  0  0  0  0  0  0  0
  188.5610  174.4670  139.7100 C   0  0  0  0  0  0  0  0  0  0  0  0
  185.8840  177.5260  142.0100 C   0  0  0  0  0  0  0  0  0  0  0  0
  187.0610  177.8830  144.2050 C   0  0  0  0  0  2  0  0  0  0  0  0
  190.3270  172.4130  140.5560 C   0  0  0  0  0  0  0  0  0  0  0  0
  184.6980  178.6250  143.8210 C   0  0  0  0  0  3  0  0  0  0  0  0
  188.5150  176.5440  146.3770 C   0  0  0  0  0  2  0  0  0  0  0  0
  187.8100  176.6580  143.9060 N   0  0  0  0  0  0  0  0  0  0  0  0
  188.5380  175.9910  144.9700 C   0  0  0  0  0  0  0  0  0  0  0  0
  189.3550  174.4710  143.3320 N   0  0  0  0  0  0  0  0  0  0  0  0
  189.9490  172.5150  139.2090 C   0  0  0  0  0  3  0  0  0  0  0  0
  185.8500  178.0030  143.3330 C   0  0  0  0  0  0  0  0  0  0  0  0
  189.0720  173.5340  138.7900 C   0  0  0  0  0  3  0  0  0  0  0  0
  184.7640  177.6760  141.1880 C   0  0  0  0  0  3  0  0  0  0  0  0
  183.6070  178.2910  141.6820 C   0  0  0  0  0  0  0  0  0  0  0  0
  190.0520  174.1630  145.7530 C   0  0  0  0  0  2  0  0  0  0  0  0
  189.3160  174.9240  144.6830 C   0  0  0  0  0  0  0  0  0  0  0  0
  190.0610  173.4080  142.8240 O   0  0  0  0  0  0  0  0  0  0  0  0
  187.1240  176.8950  141.4610 C   0  0  0  0  0  2  0  0  0  0  0  0
  187.7180  175.4310  139.2760 F   0  0  0  0  0  0  0  0  0  0  0  0
  191.1680  171.4330  140.9670 F   0  0  0  0  0  0  0  0  0  0  0  0
  188.6430  175.1050  142.2820 C   0  0  0  0  0  0  0  0  0  0  0  0
  189.8140  173.3420  141.4570 C   0  0  0  0  0  0  0  0  0  0  0  0
  182.4040  178.4240  140.8090 C   0  0  0  0  0  2  0  0  0  0  0  0
  181.1380  178.5970  141.6380 C   0  0  0  0  0  2  0  0  0  0  0  0
  180.0970  179.3470  140.8760 C   0  0  0  0  0  0  0  0  0  0  0  0
  178.8780  178.7490  140.5920 O   0  0  0  0  0  1  0  0  0  0  0  0
  180.3160  180.5310  140.5130 O   0  0  0  0  0  0  0  0  0  0  0  0
  1 10  1  0  0  0  0
  2 12  1  0  0  0  0
  4  3  1  0  0  0  0
  5 27  1  0  0  0  0
  5 26  1  0  0  0  0
  6  5  2  0  0  0  0
  7 16  1  0  0  0  0
  9 25  1  0  0  0  0
  9 27  2  0  0  0  0
 11  3  1  0  0  0  0
 12  8  1  0  0  0  0
 12 13  1  0  0  0  0
 13 11  1  0  0  0  0
 14 21  1  0  0  0  0
 15  9  1  0  0  0  0
 16 10  2  0  0  0  0
 16  8  1  0  0  0  0
 17 15  2  0  0  0  0
 17  6  1  0  0  0  0
 18 19  1  0  0  0  0
 18  7  2  0  0  0  0
 19  1  2  0  0  0  0
 20  4  1  0  0  0  0
 21 13  2  0  0  0  0
 21 20  1  0  0  0  0
 22 14  1  0  0  0  0
 23  7  1  0  0  0  0
 23  2  1  0  0  0  0
 24  6  1  0  0  0  0
 26  2  2  0  0  0  0
 26 14  1  0  0  0  0
 27 22  1  0  0  0  0
 28 29  1  0  0  0  0
 28 19  1  0  0  0  0
 30 29  1  0  0  0  0
 31 30  1  0  0  0  0
 32 30  2  0  0  0  0
M  END
>  <MODEL>
6

>  <REMARK>
 VINA RESULT:      -7.9      3.301      8.058
  Name = 
  3 active torsions:
  status: ('A' for Active; 'I' for Inactive)
    1  A    between atoms: C_1  and  C_10
    2  A    between atoms: C_10  and  C_19
    3  A    between atoms: C_19  and  C_24
                            x       y       z     vdW  Elec       q    Type
                         _______ _______ _______ _____ _____    ______ ____

>  <TORSDO>
F 3

$$$$
=
 OpenBabel11052421263D

 32 37  0  0  0  0  0  0  0  0999 V2000
  192.3280  176.4820  147.3040 C   0  0  0  0  0  3  0  0  0  0  0  0
  189.1030  175.2990  143.6110 C   0  0  0  0  0  0  0  0  0  0  0  0
  185.6370  178.7130  144.5920 N   0  0  0  0  0  2  0  0  0  0  0  0
  184.7410  178.1120  143.6100 C   0  0  0  0  0  2  0  0  0  0  0  0
  189.1030  174.5570  141.1370 C   0  0  0  0  0  0  0  0  0  0  0  0
  190.1760  173.7030  140.8400 C   0  0  0  0  0  0  0  0  0  0  0  0
  191.0100  175.2300  145.1750 C   0  0  0  0  0  0  0  0  0  0  0  0
  188.7930  176.1050  145.9830 C   0  0  0  0  0  2  0  0  0  0  0  0
  188.2990  174.4510  138.8470 C   0  0  0  0  0  0  0  0  0  0  0  0
  190.9420  176.6100  147.1700 C   0  0  0  0  0  3  0  0  0  0  0  0
  186.4100  177.6370  145.2120 C   0  0  0  0  0  2  0  0  0  0  0  0
  188.3770  176.1070  144.5770 N   0  0  0  0  0  0  0  0  0  0  0  0
  187.1960  176.8550  144.1850 C   0  0  0  0  0  0  0  0  0  0  0  0
  187.4850  175.9800  141.9910 N   0  0  0  0  0  0  0  0  0  0  0  0
  189.3650  173.5950  138.5340 C   0  0  0  0  0  3  0  0  0  0  0  0
  190.2810  175.9910  146.1060 C   0  0  0  0  0  0  0  0  0  0  0  0
  190.2960  173.2250  139.5240 C   0  0  0  0  0  3  0  0  0  0  0  0
  192.3940  175.0950  145.3180 C   0  0  0  0  0  3  0  0  0  0  0  0
  193.0550  175.7240  146.3790 C   0  0  0  0  0  0  0  0  0  0  0  0
  185.5570  177.5700  142.4390 C   0  0  0  0  0  2  0  0  0  0  0  0
  186.7450  176.7770  142.9140 C   0  0  0  0  0  0  0  0  0  0  0  0
  187.2170  175.7720  140.6600 O   0  0  0  0  0  0  0  0  0  0  0  0
  190.3110  174.5280  144.0540 C   0  0  0  0  0  2  0  0  0  0  0  0
  191.0890  173.3320  141.7660 F   0  0  0  0  0  0  0  0  0  0  0  0
  187.4000  174.8130  137.9000 F   0  0  0  0  0  0  0  0  0  0  0  0
  188.6450  175.2500  142.3550 C   0  0  0  0  0  0  0  0  0  0  0  0
  188.1910  174.9180  140.1530 C   0  0  0  0  0  0  0  0  0  0  0  0
  194.5360  175.6000  146.5120 C   0  0  0  0  0  2  0  0  0  0  0  0
  195.0950  174.5760  145.5320 C   0  0  0  0  0  2  0  0  0  0  0  0
  195.9770  175.2290  144.5220 C   0  0  0  0  0  0  0  0  0  0  0  0
  195.7180  176.5280  144.1090 O   0  0  0  0  0  1  0  0  0  0  0  0
  196.9710  174.6100  144.0630 O   0  0  0  0  0  0  0  0  0  0  0  0
  2 23  1  0  0  0  0
  2 12  1  0  0  0  0
  3 11  1  0  0  0  0
  4  3  1  0  0  0  0
  5 26  1  0  0  0  0
  6  5  1  0  0  0  0
  6 24  1  0  0  0  0
  7 18  2  0  0  0  0
  7 16  1  0  0  0  0
  8 16  1  0  0  0  0
  9 27  1  0  0  0  0
 10  1  1  0  0  0  0
 12  8  1  0  0  0  0
 13 12  1  0  0  0  0
 13 11  1  0  0  0  0
 14 26  1  0  0  0  0
 14 21  1  0  0  0  0
 15  9  2  0  0  0  0
 15 17  1  0  0  0  0
 16 10  2  0  0  0  0
 17  6  2  0  0  0  0
 18 19  1  0  0  0  0
 19 28  1  0  0  0  0
 19  1  2  0  0  0  0
 20 21  1  0  0  0  0
 20  4  1  0  0  0  0
 21 13  2  0  0  0  0
 22 14  1  0  0  0  0
 23  7  1  0  0  0  0
 25  9  1  0  0  0  0
 26  2  2  0  0  0  0
 27 22  1  0  0  0  0
 27  5  2  0  0  0  0
 29 28  1  0  0  0  0
 30 29  1  0  0  0  0
 31 30  1  0  0  0  0
 32 30  2  0  0  0  0
M  END
>  <MODEL>
7

>  <REMARK>
 VINA RESULT:      -7.8      2.018      2.858
  Name = 
  3 active torsions:
  status: ('A' for Active; 'I' for Inactive)
    1  A    between atoms: C_1  and  C_10
    2  A    between atoms: C_10  and  C_19
    3  A    between atoms: C_19  and  C_24
                            x       y       z     vdW  Elec       q    Type
                         _______ _______ _______ _____ _____    ______ ____

>  <TORSDO>
F 3

$$$$
=
 OpenBabel11052421263D

 32 37  0  0  0  0  0  0  0  0999 V2000
  190.5890  173.2220  139.6110 C   0  0  0  0  0  3  0  0  0  0  0  0
  188.4180  175.3520  143.6350 C   0  0  0  0  0  0  0  0  0  0  0  0
  192.3930  175.4380  146.6060 N   0  0  0  0  0  2  0  0  0  0  0  0
  191.5660  175.8680  147.7300 C   0  0  0  0  0  2  0  0  0  0  0  0
  186.6900  177.1780  144.2250 C   0  0  0  0  0  0  0  0  0  0  0  0
  185.6430  177.2380  143.2930 C   0  0  0  0  0  0  0  0  0  0  0  0
  188.7500  174.2860  141.4350 C   0  0  0  0  0  0  0  0  0  0  0  0
  190.2050  173.5900  143.3660 C   0  0  0  0  0  2  0  0  0  0  0  0
  185.7250  178.9910  145.5220 C   0  0  0  0  0  0  0  0  0  0  0  0
  190.8500  173.1550  140.9840 C   0  0  0  0  0  3  0  0  0  0  0  0
  191.5890  174.5430  145.7750 C   0  0  0  0  0  2  0  0  0  0  0  0
  189.6620  174.7480  144.0840 N   0  0  0  0  0  0  0  0  0  0  0  0
  190.3330  175.2240  145.2800 C   0  0  0  0  0  0  0  0  0  0  0  0
  188.5640  176.7950  145.5330 N   0  0  0  0  0  0  0  0  0  0  0  0
  184.6710  179.0630  144.6000 C   0  0  0  0  0  3  0  0  0  0  0  0
  189.9370  173.6900  141.8960 C   0  0  0  0  0  0  0  0  0  0  0  0
  184.6310  178.1920  143.4940 C   0  0  0  0  0  3  0  0  0  0  0  0
  188.4870  174.3410  140.0640 C   0  0  0  0  0  3  0  0  0  0  0  0
  189.4060  173.8140  139.1500 C   0  0  0  0  0  0  0  0  0  0  0  0
  190.4580  176.7890  147.2250 C   0  0  0  0  0  2  0  0  0  0  0  0
  189.7810  176.2200  146.0060 C   0  0  0  0  0  0  0  0  0  0  0  0
  187.8440  177.8180  146.1020 O   0  0  0  0  0  0  0  0  0  0  0  0
  187.7440  174.8260  142.4030 C   0  0  0  0  0  2  0  0  0  0  0  0
  185.5780  176.4190  142.2180 F   0  0  0  0  0  0  0  0  0  0  0  0
  185.7710  179.8280  146.5880 F   0  0  0  0  0  0  0  0  0  0  0  0
  187.9000  176.3480  144.3630 C   0  0  0  0  0  0  0  0  0  0  0  0
  186.7220  178.0430  145.3120 C   0  0  0  0  0  0  0  0  0  0  0  0
  189.1340  173.8990  137.6850 C   0  0  0  0  0  2  0  0  0  0  0  0
  190.3370  173.4370  136.8730 C   0  0  0  0  0  2  0  0  0  0  0  0
  190.8440  174.5330  135.9970 C   0  0  0  0  0  0  0  0  0  0  0  0
  191.9390  175.2880  136.3930 O   0  0  0  0  0  1  0  0  0  0  0  0
  190.2950  174.7550  134.8880 O   0  0  0  0  0  0  0  0  0  0  0  0
  1 10  1  0  0  0  0
  2 12  1  0  0  0  0
  2 26  2  0  0  0  0
  3  4  1  0  0  0  0
  5 26  1  0  0  0  0
  5 27  1  0  0  0  0
  6 17  1  0  0  0  0
  6  5  2  0  0  0  0
  7 16  1  0  0  0  0
  7 23  1  0  0  0  0
  8 12  1  0  0  0  0
  9 25  1  0  0  0  0
 10 16  2  0  0  0  0
 11  3  1  0  0  0  0
 12 13  1  0  0  0  0
 13 11  1  0  0  0  0
 13 21  2  0  0  0  0
 14 21  1  0  0  0  0
 14 22  1  0  0  0  0
 15  9  1  0  0  0  0
 16  8  1  0  0  0  0
 17 15  2  0  0  0  0
 18  7  2  0  0  0  0
 19  1  2  0  0  0  0
 19 18  1  0  0  0  0
 20  4  1  0  0  0  0
 21 20  1  0  0  0  0
 23  2  1  0  0  0  0
 24  6  1  0  0  0  0
 26 14  1  0  0  0  0
 27  9  2  0  0  0  0
 27 22  1  0  0  0  0
 28 19  1  0  0  0  0
 29 28  1  0  0  0  0
 30 31  1  0  0  0  0
 30 29  1  0  0  0  0
 32 30  2  0  0  0  0
M  END
>  <MODEL>
8

>  <REMARK>
 VINA RESULT:      -7.7      3.679      6.147
  Name = 
  3 active torsions:
  status: ('A' for Active; 'I' for Inactive)
    1  A    between atoms: C_1  and  C_10
    2  A    between atoms: C_10  and  C_19
    3  A    between atoms: C_19  and  C_24
                            x       y       z     vdW  Elec       q    Type
                         _______ _______ _______ _____ _____    ______ ____

>  <TORSDO>
F 3

$$$$
=
 OpenBabel11052421263D

 32 37  0  0  0  0  0  0  0  0999 V2000
  185.6470  178.5530  144.3570 C   0  0  0  0  0  3  0  0  0  0  0  0
  189.2540  175.6170  142.4070 C   0  0  0  0  0  0  0  0  0  0  0  0
  191.9010  174.9220  146.5480 N   0  0  0  0  0  2  0  0  0  0  0  0
  192.9560  174.2620  145.7840 C   0  0  0  0  0  2  0  0  0  0  0  0
  189.5480  173.7010  140.7000 C   0  0  0  0  0  0  0  0  0  0  0  0
  188.6880  173.8350  139.6000 C   0  0  0  0  0  0  0  0  0  0  0  0
  187.3120  177.1230  142.6190 C   0  0  0  0  0  0  0  0  0  0  0  0
  189.2570  177.4020  144.1910 C   0  0  0  0  0  2  0  0  0  0  0  0
  190.4900  171.6510  139.7970 C   0  0  0  0  0  0  0  0  0  0  0  0
  186.9850  178.3310  144.6990 C   0  0  0  0  0  3  0  0  0  0  0  0
  191.3250  175.9690  145.7050 C   0  0  0  0  0  2  0  0  0  0  0  0
  189.7460  176.1170  143.6800 N   0  0  0  0  0  0  0  0  0  0  0  0
  190.7730  175.4030  144.4160 C   0  0  0  0  0  0  0  0  0  0  0  0
  190.7950  173.8070  142.6520 N   0  0  0  0  0  0  0  0  0  0  0  0
  189.6370  171.7720  138.6900 C   0  0  0  0  0  3  0  0  0  0  0  0
  187.8170  177.6130  143.8360 C   0  0  0  0  0  0  0  0  0  0  0  0
  188.7430  172.8550  138.5940 C   0  0  0  0  0  3  0  0  0  0  0  0
  185.9780  177.3570  142.2760 C   0  0  0  0  0  3  0  0  0  0  0  0
  185.1430  178.0680  143.1450 C   0  0  0  0  0  0  0  0  0  0  0  0
  192.3350  173.4650  144.6400 C   0  0  0  0  0  2  0  0  0  0  0  0
  191.3050  174.2740  143.8990 C   0  0  0  0  0  0  0  0  0  0  0  0
  191.1770  172.6850  141.9570 O   0  0  0  0  0  0  0  0  0  0  0  0
  188.2020  176.3870  141.6670 C   0  0  0  0  0  2  0  0  0  0  0  0
  187.8150  174.8600  139.4790 F   0  0  0  0  0  0  0  0  0  0  0  0
  191.3520  170.6100  139.8990 F   0  0  0  0  0  0  0  0  0  0  0  0
  189.7850  174.4880  141.9240 C   0  0  0  0  0  0  0  0  0  0  0  0
  190.4250  172.6270  140.7880 C   0  0  0  0  0  0  0  0  0  0  0  0
  183.7110  178.2910  142.7870 C   0  0  0  0  0  2  0  0  0  0  0  0
  183.5130  178.2890  141.2770 C   0  0  0  0  0  2  0  0  0  0  0  0
  182.0640  178.2520  140.9270 C   0  0  0  0  0  0  0  0  0  0  0  0
  181.6350  177.5470  139.8110 O   0  0  0  0  0  0  0  0  0  0  0  0
  181.2260  178.8390  141.6590 O   0  0  0  0  0  1  0  0  0  0  0  0
  1 10  1  0  0  0  0
  2 12  1  0  0  0  0
  4  3  1  0  0  0  0
  5 27  1  0  0  0  0
  5 26  1  0  0  0  0
  6  5  2  0  0  0  0
  7 16  1  0  0  0  0
  9 25  1  0  0  0  0
  9 27  2  0  0  0  0
 11  3  1  0  0  0  0
 12  8  1  0  0  0  0
 12 13  1  0  0  0  0
 13 11  1  0  0  0  0
 14 21  1  0  0  0  0
 15  9  1  0  0  0  0
 16  8  1  0  0  0  0
 16 10  2  0  0  0  0
 17 15  2  0  0  0  0
 17  6  1  0  0  0  0
 18  7  2  0  0  0  0
 18 19  1  0  0  0  0
 19  1  2  0  0  0  0
 20  4  1  0  0  0  0
 21 13  2  0  0  0  0
 21 20  1  0  0  0  0
 22 14  1  0  0  0  0
 23  2  1  0  0  0  0
 23  7  1  0  0  0  0
 24  6  1  0  0  0  0
 26  2  2  0  0  0  0
 26 14  1  0  0  0  0
 27 22  1  0  0  0  0
 28 19  1  0  0  0  0
 29 28  1  0  0  0  0
 30 29  1  0  0  0  0
 30 32  1  0  0  0  0
 31 30  2  0  0  0  0
M  END
>  <MODEL>
9

>  <REMARK>
 VINA RESULT:      -7.6      3.246      7.743
  Name = 
  3 active torsions:
  status: ('A' for Active; 'I' for Inactive)
    1  A    between atoms: C_1  and  C_10
    2  A    between atoms: C_10  and  C_19
    3  A    between atoms: C_19  and  C_24
                            x       y       z     vdW  Elec       q    Type
                         _______ _______ _______ _____ _____    ______ ____

>  <TORSDO>
F 3

$$$$
