=
 OpenBabel11052419103D

 32 38  0  0  1  0  0  0  0  0999 V2000
  190.0820  176.0400  142.7030 C   0  0  0  0  0  0  0  0  0  0  0  0
  188.0580  176.8670  143.8020 C   0  0  1  0  0  3  0  0  0  0  0  0
  190.0850  174.8290  142.1320 C   0  0  0  0  0  3  0  0  0  0  0  0
  188.9090  176.9520  142.5530 C   0  0  2  0  0  3  0  0  0  0  0  0
  185.5670  177.2210  144.3000 C   0  0  2  0  0  3  0  0  0  0  0  0
  188.3800  178.5040  148.6450 C   0  0  0  0  0  2  0  0  0  0  0  0
  188.9070  177.4390  144.9740 C   0  0  2  0  0  3  0  0  0  0  0  0
  186.3170  178.2210  147.8040 C   0  0  0  0  0  2  0  0  0  0  0  0
  186.7790  177.9870  146.3640 C   0  0  2  0  0  3  0  0  0  0  0  0
  188.0530  176.7090  141.3210 C   0  0  2  0  0  3  0  0  0  0  0  0
  185.8850  176.9230  145.7580 C   0  0  0  0  0  2  0  0  0  0  0  0
  186.3900  177.3290  141.6930 S   0  0  0  0  0  0  0  0  0  0  0  0
  188.0120  175.2630  140.9020 C   0  0  0  0  0  3  0  0  0  0  0  0
  190.2020  176.6020  145.1330 C   0  0  0  0  0  2  0  0  0  0  0  0
  191.0040  176.4340  143.8200 C   0  0  1  0  0  3  0  0  0  0  0  0
  188.2300  177.4820  146.3590 C   0  0  2  0  0  3  0  0  0  0  0  0
  186.7830  177.6390  143.4590 C   0  0  2  0  0  3  0  0  0  0  0  0
  188.9840  174.4130  141.2440 C   0  0  0  0  0  3  0  0  0  0  0  0
  187.1520  179.1540  148.4390 O   0  0  0  0  0  0  0  0  0  0  0  0
  189.0920  178.3270  147.3070 C   0  0  0  0  0  2  0  0  0  0  0  0
  193.9270  175.9860  145.4710 C   0  0  1  0  0  0  0  0  0  0  0  0
  194.1640  176.8800  146.6150 C   0  0  0  0  0  2  0  0  0  0  0  0
  194.5170  176.3660  144.1550 C   0  0  2  0  0  3  0  0  0  0  0  0
  192.1930  175.5700  143.9400 N   0  0  1  0  0  0  0  0  0  0  0  0
  194.7740  175.6030  146.5240 O   0  0  0  0  0  0  0  0  0  0  0  0
  193.3050  176.2410  143.2360 C   0  0  0  0  0  2  0  0  0  0  0  0
  192.5760  175.3560  145.3430 C   0  0  1  0  0  3  0  0  0  0  0  0
  192.6560  173.8630  145.6170 C   0  0  0  0  0  1  0  0  0  0  0  0
  196.7440  175.6670  143.7970 O   0  0  0  0  0  0  0  0  0  0  0  0
  195.5600  175.3760  143.7410 C   0  0  0  0  0  3  0  0  0  0  0  0
  184.4790  178.2830  144.2300 C   0  0  0  0  0  2  0  0  0  0  0  0
  185.1010  179.6640  144.1710 C   0  0  0  0  0  1  0  0  0  0  0  0
  1 15  1  0  0  0  0
  2  7  1  0  0  0  0
  3  1  2  0  0  0  0
  4  1  1  0  0  0  0
  4  2  1  0  0  0  0
  5 11  1  0  0  0  0
  7 14  1  0  0  0  0
  7 16  1  0  0  0  0
  8 19  1  0  0  0  0
  9  8  1  0  0  0  0
 10 12  1  0  0  0  0
 10  4  1  0  0  0  0
 11  9  1  0  0  0  0
 12 17  1  0  0  0  0
 13 18  2  0  0  0  0
 13 10  1  0  0  0  0
 15 24  1  0  0  0  0
 15 14  1  0  0  0  0
 16  9  1  0  0  0  0
 16 20  1  0  0  0  0
 17  2  1  0  0  0  0
 17  5  1  0  0  0  0
 18  3  1  0  0  0  0
 19  6  1  0  0  0  0
 20  6  1  0  0  0  0
 21 25  1  0  0  0  0
 21 22  1  0  0  0  0
 23 21  1  0  0  0  0
 24 27  1  0  0  0  0
 25 22  1  0  0  0  0
 26 24  1  0  0  0  0
 26 23  1  0  0  0  0
 27 21  1  0  0  0  0
 27 28  1  0  0  0  0
 30 29  2  0  0  0  0
 30 23  1  0  0  0  0
 31  5  1  0  0  0  0
 32 31  1  0  0  0  0
M  END
>  <MODEL>
1

>  <REMARK>
 VINA RESULT:      -8.0      0.000      0.000
  Name = 
  3 active torsions:
  status: ('A' for Active; 'I' for Inactive)
    1  A    between atoms: C_6  and  C_13
    2  A    between atoms: C_15  and  C_26
    3  A    between atoms: N_16  and  C_27
                            x       y       z     vdW  Elec       q    Type
                         _______ _______ _______ _____ _____    ______ ____

>  <TORSDO>
F 3

$$$$
=
 OpenBabel11052419103D

 32 38  0  0  1  0  0  0  0  0999 V2000
  190.9900  174.5190  144.9090 C   0  0  0  0  0  0  0  0  0  0  0  0
  188.9890  175.9270  144.8570 C   0  0  1  0  0  3  0  0  0  0  0  0
  192.0740  174.9220  145.5840 C   0  0  0  0  0  3  0  0  0  0  0  0
  189.6230  174.7020  145.4820 C   0  0  2  0  0  3  0  0  0  0  0  0
  187.2190  177.6160  145.6240 C   0  0  2  0  0  3  0  0  0  0  0  0
  186.9720  177.1700  140.3160 C   0  0  0  0  0  2  0  0  0  0  0  0
  188.7920  175.6190  143.3440 C   0  0  2  0  0  3  0  0  0  0  0  0
  186.1970  178.2790  142.1080 C   0  0  0  0  0  2  0  0  0  0  0  0
  186.9050  177.3980  143.1410 C   0  0  2  0  0  3  0  0  0  0  0  0
  189.5620  174.7990  146.9970 C   0  0  2  0  0  3  0  0  0  0  0  0
  187.3740  178.2930  144.2700 C   0  0  0  0  0  2  0  0  0  0  0  0
  188.0620  175.7280  147.4150 S   0  0  0  0  0  0  0  0  0  0  0  0
  190.7840  175.4390  147.6010 C   0  0  0  0  0  3  0  0  0  0  0  0
  190.1650  175.3170  142.6920 C   0  0  0  0  0  2  0  0  0  0  0  0
  190.9860  174.2370  143.4350 C   0  0  1  0  0  3  0  0  0  0  0  0
  188.1270  176.7240  142.4970 C   0  0  2  0  0  3  0  0  0  0  0  0
  187.7130  176.1620  145.6660 C   0  0  2  0  0  3  0  0  0  0  0  0
  191.9540  175.4480  146.9560 C   0  0  0  0  0  3  0  0  0  0  0  0
  185.7960  177.5110  141.0040 O   0  0  0  0  0  0  0  0  0  0  0  0
  187.7560  176.1420  141.1260 C   0  0  0  0  0  2  0  0  0  0  0  0
  192.7050  173.5790  140.5920 C   0  0  1  0  0  0  0  0  0  0  0  0
  191.9290  173.6320  139.3440 C   0  0  0  0  0  2  0  0  0  0  0  0
  192.9010  172.2480  141.2360 C   0  0  2  0  0  3  0  0  0  0  0  0
  192.3290  174.0000  142.8740 N   0  0  1  0  0  0  0  0  0  0  0  0
  193.3290  173.8520  139.3640 O   0  0  0  0  0  0  0  0  0  0  0  0
  192.4790  172.5450  142.6720 C   0  0  0  0  0  2  0  0  0  0  0  0
  192.5120  174.6830  141.5840 C   0  0  1  0  0  3  0  0  0  0  0  0
  193.7510  175.5600  141.6530 C   0  0  0  0  0  1  0  0  0  0  0  0
  195.1070  172.2620  142.0760 O   0  0  0  0  0  0  0  0  0  0  0  0
  194.3460  171.8600  141.2110 C   0  0  0  0  0  3  0  0  0  0  0  0
  185.7630  177.6980  146.0620 C   0  0  0  0  0  2  0  0  0  0  0  0
  185.5360  178.9500  146.8870 C   0  0  0  0  0  1  0  0  0  0  0  0
  1  4  1  0  0  0  0
  1  3  2  0  0  0  0
  2  4  1  0  0  0  0
  2 17  1  0  0  0  0
  3 18  1  0  0  0  0
  4 10  1  0  0  0  0
  5 17  1  0  0  0  0
  5 31  1  0  0  0  0
  6 19  1  0  0  0  0
  6 20  1  0  0  0  0
  7  2  1  0  0  0  0
  8  9  1  0  0  0  0
  9 11  1  0  0  0  0
 10 12  1  0  0  0  0
 10 13  1  0  0  0  0
 11  5  1  0  0  0  0
 14  7  1  0  0  0  0
 14 15  1  0  0  0  0
 15  1  1  0  0  0  0
 16  9  1  0  0  0  0
 16  7  1  0  0  0  0
 17 12  1  0  0  0  0
 18 13  2  0  0  0  0
 19  8  1  0  0  0  0
 20 16  1  0  0  0  0
 21 23  1  0  0  0  0
 21 27  1  0  0  0  0
 22 25  1  0  0  0  0
 22 21  1  0  0  0  0
 23 26  1  0  0  0  0
 24 15  1  0  0  0  0
 25 21  1  0  0  0  0
 26 24  1  0  0  0  0
 27 28  1  0  0  0  0
 27 24  1  0  0  0  0
 30 23  1  0  0  0  0
 30 29  2  0  0  0  0
 31 32  1  0  0  0  0
M  END
>  <MODEL>
2

>  <REMARK>
 VINA RESULT:      -7.7      2.953      4.917
  Name = 
  3 active torsions:
  status: ('A' for Active; 'I' for Inactive)
    1  A    between atoms: C_6  and  C_13
    2  A    between atoms: C_15  and  C_26
    3  A    between atoms: N_16  and  C_27
                            x       y       z     vdW  Elec       q    Type
                         _______ _______ _______ _____ _____    ______ ____

>  <TORSDO>
F 3

$$$$
=
 OpenBabel11052419103D

 32 38  0  0  1  0  0  0  0  0999 V2000
  193.7120  175.4270  144.6820 C   0  0  0  0  0  0  0  0  0  0  0  0
  191.3370  175.9610  144.9320 C   0  0  1  0  0  3  0  0  0  0  0  0
  194.6370  176.3580  144.9430 C   0  0  0  0  0  3  0  0  0  0  0  0
  192.5210  175.2650  145.5680 C   0  0  2  0  0  3  0  0  0  0  0  0
  189.2020  177.0540  145.8390 C   0  0  2  0  0  3  0  0  0  0  0  0
  188.1910  175.0990  140.9820 C   0  0  0  0  0  2  0  0  0  0  0  0
  191.0090  175.1970  143.6160 C   0  0  2  0  0  3  0  0  0  0  0  0
  187.3720  176.3110  142.6850 C   0  0  0  0  0  2  0  0  0  0  0  0
  188.5560  176.0610  143.6230 C   0  0  2  0  0  3  0  0  0  0  0  0
  192.7050  175.7490  146.9960 C   0  0  2  0  0  3  0  0  0  0  0  0
  188.8140  177.3390  144.3950 C   0  0  0  0  0  2  0  0  0  0  0  0
  191.0600  176.1630  147.6380 S   0  0  0  0  0  0  0  0  0  0  0  0
  193.6440  176.9210  147.1100 C   0  0  0  0  0  3  0  0  0  0  0  0
  192.2400  175.2340  142.6740 C   0  0  0  0  0  2  0  0  0  0  0  0
  193.5540  174.7650  143.3430 C   0  0  1  0  0  3  0  0  0  0  0  0
  189.8070  175.7140  142.8000 C   0  0  2  0  0  3  0  0  0  0  0  0
  190.2490  175.9430  146.0060 C   0  0  2  0  0  3  0  0  0  0  0  0
  194.5660  177.1660  146.1760 C   0  0  0  0  0  3  0  0  0  0  0  0
  187.1280  175.1770  141.8950 O   0  0  0  0  0  0  0  0  0  0  0  0
  189.4630  174.6830  141.7160 C   0  0  0  0  0  2  0  0  0  0  0  0
  194.6670  174.6320  140.1480 C   0  0  1  0  0  0  0  0  0  0  0  0
  193.6300  174.5410  139.1080 C   0  0  0  0  0  2  0  0  0  0  0  0
  195.3010  173.3660  140.6150 C   0  0  2  0  0  3  0  0  0  0  0  0
  194.7480  174.8750  142.4840 N   0  0  1  0  0  0  0  0  0  0  0  0
  194.9110  175.0870  138.8420 O   0  0  0  0  0  0  0  0  0  0  0  0
  195.1690  173.5050  142.1280 C   0  0  0  0  0  2  0  0  0  0  0  0
  194.4670  175.6240  141.2510 C   0  0  1  0  0  3  0  0  0  0  0  0
  195.4590  176.7690  141.1240 C   0  0  0  0  0  1  0  0  0  0  0  0
  197.5800  173.8880  140.9450 O   0  0  0  0  0  0  0  0  0  0  0  0
  196.7500  173.3340  140.2410 C   0  0  0  0  0  3  0  0  0  0  0  0
  187.9490  176.7330  146.6420 C   0  0  0  0  0  2  0  0  0  0  0  0
  186.8990  177.8030  146.4200 C   0  0  0  0  0  1  0  0  0  0  0  0
  1  3  2  0  0  0  0
  1  4  1  0  0  0  0
  2  4  1  0  0  0  0
  2 17  1  0  0  0  0
  3 18  1  0  0  0  0
  4 10  1  0  0  0  0
  5 17  1  0  0  0  0
  5 31  1  0  0  0  0
  6 20  1  0  0  0  0
  6 19  1  0  0  0  0
  7  2  1  0  0  0  0
  8  9  1  0  0  0  0
  9 11  1  0  0  0  0
 10 13  1  0  0  0  0
 10 12  1  0  0  0  0
 11  5  1  0  0  0  0
 14 15  1  0  0  0  0
 14  7  1  0  0  0  0
 15  1  1  0  0  0  0
 16  7  1  0  0  0  0
 16  9  1  0  0  0  0
 17 12  1  0  0  0  0
 18 13  2  0  0  0  0
 19  8  1  0  0  0  0
 20 16  1  0  0  0  0
 21 23  1  0  0  0  0
 21 27  1  0  0  0  0
 22 21  1  0  0  0  0
 23 26  1  0  0  0  0
 24 15  1  0  0  0  0
 25 22  1  0  0  0  0
 25 21  1  0  0  0  0
 26 24  1  0  0  0  0
 27 24  1  0  0  0  0
 28 27  1  0  0  0  0
 30 23  1  0  0  0  0
 30 29  2  0  0  0  0
 32 31  1  0  0  0  0
M  END
>  <MODEL>
3

>  <REMARK>
 VINA RESULT:      -7.4      2.923      5.499
  Name = 
  3 active torsions:
  status: ('A' for Active; 'I' for Inactive)
    1  A    between atoms: C_6  and  C_13
    2  A    between atoms: C_15  and  C_26
    3  A    between atoms: N_16  and  C_27
                            x       y       z     vdW  Elec       q    Type
                         _______ _______ _______ _____ _____    ______ ____

>  <TORSDO>
F 3

$$$$
=
 OpenBabel11052419103D

 32 38  0  0  1  0  0  0  0  0999 V2000
  192.0150  174.7360  146.1790 C   0  0  0  0  0  0  0  0  0  0  0  0
  190.0710  175.3310  144.8170 C   0  0  1  0  0  3  0  0  0  0  0  0
  192.7460  175.6980  146.7570 C   0  0  0  0  0  3  0  0  0  0  0  0
  190.5250  174.8140  146.1670 C   0  0  2  0  0  3  0  0  0  0  0  0
  188.0210  176.6340  143.9950 C   0  0  2  0  0  3  0  0  0  0  0  0
  189.7570  173.5030  140.0430 C   0  0  0  0  0  2  0  0  0  0  0  0
  190.4610  174.2570  143.7610 C   0  0  2  0  0  3  0  0  0  0  0  0
  188.3030  175.1170  140.6090 C   0  0  0  0  0  2  0  0  0  0  0  0
  188.6500  175.1080  142.1000 C   0  0  2  0  0  3  0  0  0  0  0  0
  189.9090  175.6480  147.2780 C   0  0  2  0  0  3  0  0  0  0  0  0
  188.6080  176.5410  142.5930 C   0  0  0  0  0  2  0  0  0  0  0  0
  188.2940  176.2230  146.6850 S   0  0  0  0  0  0  0  0  0  0  0  0
  190.7760  176.8050  147.7020 C   0  0  0  0  0  3  0  0  0  0  0  0
  191.9960  174.0430  143.7810 C   0  0  0  0  0  2  0  0  0  0  0  0
  192.5700  173.7540  145.1880 C   0  0  1  0  0  3  0  0  0  0  0  0
  190.0700  174.5540  142.2990 C   0  0  2  0  0  3  0  0  0  0  0  0
  188.5740  175.5960  144.9830 C   0  0  2  0  0  3  0  0  0  0  0  0
  192.0960  176.7950  147.4980 C   0  0  0  0  0  3  0  0  0  0  0  0
  188.3900  173.8190  140.0800 O   0  0  0  0  0  0  0  0  0  0  0  0
  190.2680  173.2810  141.4640 C   0  0  0  0  0  2  0  0  0  0  0  0
  195.3080  172.8060  143.4370 C   0  0  1  0  0  0  0  0  0  0  0  0
  195.0830  172.4630  142.0240 C   0  0  0  0  0  2  0  0  0  0  0  0
  195.3330  171.6930  144.4300 C   0  0  2  0  0  3  0  0  0  0  0  0
  194.0390  173.6320  145.2340 N   0  0  1  0  0  0  0  0  0  0  0  0
  196.3430  172.9130  142.4930 O   0  0  0  0  0  0  0  0  0  0  0  0
  194.3610  172.2130  145.4850 C   0  0  0  0  0  2  0  0  0  0  0  0
  194.6620  174.0460  143.9690 C   0  0  1  0  0  3  0  0  0  0  0  0
  195.7070  175.1130  144.2510 C   0  0  0  0  0  1  0  0  0  0  0  0
  196.8800  171.8220  146.2080 O   0  0  0  0  0  0  0  0  0  0  0  0
  196.6960  171.5560  145.0320 C   0  0  0  0  0  3  0  0  0  0  0  0
  186.5040  176.5370  143.9120 C   0  0  0  0  0  2  0  0  0  0  0  0
  185.8810  177.8980  144.1530 C   0  0  0  0  0  1  0  0  0  0  0  0
  1  3  2  0  0  0  0
  2 17  1  0  0  0  0
  2  4  1  0  0  0  0
  3 18  1  0  0  0  0
  4  1  1  0  0  0  0
  4 10  1  0  0  0  0
  5 17  1  0  0  0  0
  6 19  1  0  0  0  0
  6 20  1  0  0  0  0
  7 14  1  0  0  0  0
  7  2  1  0  0  0  0
  8  9  1  0  0  0  0
  9 16  1  0  0  0  0
  9 11  1  0  0  0  0
 10 13  1  0  0  0  0
 11  5  1  0  0  0  0
 12 10  1  0  0  0  0
 14 15  1  0  0  0  0
 15 24  1  0  0  0  0
 15  1  1  0  0  0  0
 16  7  1  0  0  0  0
 17 12  1  0  0  0  0
 18 13  2  0  0  0  0
 19  8  1  0  0  0  0
 20 16  1  0  0  0  0
 21 27  1  0  0  0  0
 21 23  1  0  0  0  0
 22 25  1  0  0  0  0
 22 21  1  0  0  0  0
 23 30  1  0  0  0  0
 23 26  1  0  0  0  0
 24 26  1  0  0  0  0
 25 21  1  0  0  0  0
 27 28  1  0  0  0  0
 27 24  1  0  0  0  0
 30 29  2  0  0  0  0
 31  5  1  0  0  0  0
 31 32  1  0  0  0  0
M  END
>  <MODEL>
4

>  <REMARK>
 VINA RESULT:      -7.4      2.829      5.358
  Name = 
  3 active torsions:
  status: ('A' for Active; 'I' for Inactive)
    1  A    between atoms: C_6  and  C_13
    2  A    between atoms: C_15  and  C_26
    3  A    between atoms: N_16  and  C_27
                            x       y       z     vdW  Elec       q    Type
                         _______ _______ _______ _____ _____    ______ ____

>  <TORSDO>
F 3

$$$$
=
 OpenBabel11052419103D

 32 38  0  0  1  0  0  0  0  0999 V2000
  192.4440  176.0980  144.5950 C   0  0  0  0  0  0  0  0  0  0  0  0
  193.4860  173.8850  144.5280 C   0  0  1  0  0  3  0  0  0  0  0  0
  192.2150  176.6930  145.7720 C   0  0  0  0  0  3  0  0  0  0  0  0
  193.7230  175.3690  144.3450 C   0  0  2  0  0  3  0  0  0  0  0  0
  194.9670  171.9040  145.2060 C   0  0  2  0  0  3  0  0  0  0  0  0
  191.1440  170.1410  141.9330 C   0  0  0  0  0  2  0  0  0  0  0  0
  192.5010  173.4370  143.4090 C   0  0  2  0  0  3  0  0  0  0  0  0
  192.8500  169.5400  143.2620 C   0  0  0  0  0  2  0  0  0  0  0  0
  193.3050  170.9690  143.5690 C   0  0  2  0  0  3  0  0  0  0  0  0
  194.9020  175.8170  145.1930 C   0  0  2  0  0  3  0  0  0  0  0  0
  193.7460  171.0140  145.0180 C   0  0  0  0  0  2  0  0  0  0  0  0
  196.0470  174.4150  145.3010 S   0  0  0  0  0  0  0  0  0  0  0  0
  194.5000  176.2970  146.5630 C   0  0  0  0  0  3  0  0  0  0  0  0
  191.1740  174.2270  143.5380 C   0  0  0  0  0  2  0  0  0  0  0  0
  191.3620  175.7610  143.6110 C   0  0  1  0  0  3  0  0  0  0  0  0
  192.1300  171.9410  143.3750 C   0  0  2  0  0  3  0  0  0  0  0  0
  194.8800  173.2580  144.4850 C   0  0  2  0  0  3  0  0  0  0  0  0
  193.2650  176.7460  146.8070 C   0  0  0  0  0  3  0  0  0  0  0  0
  192.3670  169.4530  141.9460 O   0  0  0  0  0  0  0  0  0  0  0  0
  191.4000  171.6400  142.0580 C   0  0  0  0  0  2  0  0  0  0  0  0
  188.0630  175.8910  142.8580 C   0  0  1  0  0  0  0  0  0  0  0  0
  187.5220  174.7320  142.1330 C   0  0  0  0  0  2  0  0  0  0  0  0
  188.4790  177.0810  142.0620 C   0  0  2  0  0  3  0  0  0  0  0  0
  190.1150  176.5180  143.8190 N   0  0  1  0  0  0  0  0  0  0  0  0
  186.7020  175.5570  142.9430 O   0  0  0  0  0  0  0  0  0  0  0  0
  189.8810  177.3340  142.6100 C   0  0  0  0  0  2  0  0  0  0  0  0
  188.9620  175.6290  144.0260 C   0  0  1  0  0  3  0  0  0  0  0  0
  188.2690  176.0020  145.3260 C   0  0  0  0  0  1  0  0  0  0  0  0
  186.6440  178.5120  141.6640 O   0  0  0  0  0  0  0  0  0  0  0  0
  187.6030  178.2540  142.3720 C   0  0  0  0  0  3  0  0  0  0  0  0
  196.2130  171.1460  144.7700 C   0  0  0  0  0  2  0  0  0  0  0  0
  196.8370  170.4420  145.9580 C   0  0  0  0  0  1  0  0  0  0  0  0
  1  3  2  0  0  0  0
  3 18  1  0  0  0  0
  4  2  1  0  0  0  0
  4  1  1  0  0  0  0
  4 10  1  0  0  0  0
  6 19  1  0  0  0  0
  6 20  1  0  0  0  0
  7 14  1  0  0  0  0
  7  2  1  0  0  0  0
  8  9  1  0  0  0  0
  9 11  1  0  0  0  0
 10 12  1  0  0  0  0
 10 13  1  0  0  0  0
 11  5  1  0  0  0  0
 13 18  2  0  0  0  0
 14 15  1  0  0  0  0
 15 24  1  0  0  0  0
 15  1  1  0  0  0  0
 16  7  1  0  0  0  0
 16  9  1  0  0  0  0
 17  2  1  0  0  0  0
 17  5  1  0  0  0  0
 17 12  1  0  0  0  0
 19  8  1  0  0  0  0
 20 16  1  0  0  0  0
 21 25  1  0  0  0  0
 21 27  1  0  0  0  0
 22 21  1  0  0  0  0
 22 25  1  0  0  0  0
 23 30  1  0  0  0  0
 23 26  1  0  0  0  0
 23 21  1  0  0  0  0
 24 27  1  0  0  0  0
 26 24  1  0  0  0  0
 27 28  1  0  0  0  0
 29 30  2  0  0  0  0
 31  5  1  0  0  0  0
 31 32  1  0  0  0  0
M  END
>  <MODEL>
5

>  <REMARK>
 VINA RESULT:      -7.0      3.778      8.467
  Name = 
  3 active torsions:
  status: ('A' for Active; 'I' for Inactive)
    1  A    between atoms: C_6  and  C_13
    2  A    between atoms: C_15  and  C_26
    3  A    between atoms: N_16  and  C_27
                            x       y       z     vdW  Elec       q    Type
                         _______ _______ _______ _____ _____    ______ ____

>  <TORSDO>
F 3

$$$$
=
 OpenBabel11052419103D

 32 38  0  0  1  0  0  0  0  0999 V2000
  187.4700  175.8370  142.9220 C   0  0  0  0  0  0  0  0  0  0  0  0
  189.8900  175.4710  142.9670 C   0  0  1  0  0  3  0  0  0  0  0  0
  186.9210  176.5490  141.9300 C   0  0  0  0  0  3  0  0  0  0  0  0
  188.5500  174.8450  142.6410 C   0  0  2  0  0  3  0  0  0  0  0  0
  192.2840  175.1220  142.1170 C   0  0  2  0  0  3  0  0  0  0  0  0
  192.4880  176.7100  147.2040 C   0  0  0  0  0  2  0  0  0  0  0  0
  189.9160  175.7220  144.5030 C   0  0  2  0  0  3  0  0  0  0  0  0
  193.6990  176.2390  145.3720 C   0  0  0  0  0  2  0  0  0  0  0  0
  192.5160  175.7290  144.5450 C   0  0  2  0  0  3  0  0  0  0  0  0
  188.5650  174.2860  141.2280 C   0  0  2  0  0  3  0  0  0  0  0  0
  192.7210  176.1860  143.1140 C   0  0  0  0  0  2  0  0  0  0  0  0
  190.2640  173.7520  140.8820 S   0  0  0  0  0  0  0  0  0  0  0  0
  188.0840  175.2690  140.1950 C   0  0  0  0  0  3  0  0  0  0  0  0
  188.7550  176.6720  144.8930 C   0  0  0  0  0  2  0  0  0  0  0  0
  187.3710  176.2180  144.3710 C   0  0  1  0  0  3  0  0  0  0  0  0
  191.2090  176.3350  145.0790 C   0  0  2  0  0  3  0  0  0  0  0  0
  190.9240  174.4800  142.4320 C   0  0  2  0  0  3  0  0  0  0  0  0
  187.2830  176.2870  140.5240 C   0  0  0  0  0  3  0  0  0  0  0  0
  193.5300  175.9000  146.7240 O   0  0  0  0  0  0  0  0  0  0  0  0
  191.1630  176.2390  146.6110 C   0  0  0  0  0  2  0  0  0  0  0  0
  186.1630  178.4190  146.6420 C   0  0  1  0  0  0  0  0  0  0  0  0
  187.0470  178.7250  147.7770 C   0  0  0  0  0  2  0  0  0  0  0  0
  185.1200  177.3700  146.8320 C   0  0  2  0  0  3  0  0  0  0  0  0
  186.2720  177.1560  144.6630 N   0  0  1  0  0  0  0  0  0  0  0  0
  186.0540  179.6360  147.3360 O   0  0  0  0  0  0  0  0  0  0  0  0
  185.3550  176.4890  145.6090 C   0  0  0  0  0  2  0  0  0  0  0  0
  186.7630  178.4020  145.2710 C   0  0  1  0  0  3  0  0  0  0  0  0
  186.2670  179.5860  144.4570 C   0  0  0  0  0  1  0  0  0  0  0  0
  183.4680  178.7520  145.8660 O   0  0  0  0  0  0  0  0  0  0  0  0
  183.7510  177.9690  146.7590 C   0  0  0  0  0  3  0  0  0  0  0  0
  193.3660  174.0560  142.0130 C   0  0  0  0  0  2  0  0  0  0  0  0
  194.7020  174.6990  141.6950 C   0  0  0  0  0  1  0  0  0  0  0  0
  1 15  1  0  0  0  0
  2  7  1  0  0  0  0
  3  1  2  0  0  0  0
  4  1  1  0  0  0  0
  4  2  1  0  0  0  0
  5 17  1  0  0  0  0
  5 11  1  0  0  0  0
  7 14  1  0  0  0  0
  7 16  1  0  0  0  0
  8 19  1  0  0  0  0
  9 16  1  0  0  0  0
  9  8  1  0  0  0  0
 10  4  1  0  0  0  0
 11  9  1  0  0  0  0
 12 10  1  0  0  0  0
 12 17  1  0  0  0  0
 13 18  2  0  0  0  0
 13 10  1  0  0  0  0
 15 24  1  0  0  0  0
 15 14  1  0  0  0  0
 16 20  1  0  0  0  0
 17  2  1  0  0  0  0
 18  3  1  0  0  0  0
 19  6  1  0  0  0  0
 20  6  1  0  0  0  0
 21 23  1  0  0  0  0
 21 25  1  0  0  0  0
 21 22  1  0  0  0  0
 24 27  1  0  0  0  0
 24 26  1  0  0  0  0
 25 22  1  0  0  0  0
 26 23  1  0  0  0  0
 27 21  1  0  0  0  0
 28 27  1  0  0  0  0
 29 30  2  0  0  0  0
 30 23  1  0  0  0  0
 31  5  1  0  0  0  0
 32 31  1  0  0  0  0
M  END
>  <MODEL>
6

>  <REMARK>
 VINA RESULT:      -6.8      2.101      6.936
  Name = 
  3 active torsions:
  status: ('A' for Active; 'I' for Inactive)
    1  A    between atoms: C_6  and  C_13
    2  A    between atoms: C_15  and  C_26
    3  A    between atoms: N_16  and  C_27
                            x       y       z     vdW  Elec       q    Type
                         _______ _______ _______ _____ _____    ______ ____

>  <TORSDO>
F 3

$$$$
=
 OpenBabel11052419103D

 32 38  0  0  1  0  0  0  0  0999 V2000
  189.1940  173.8460  142.3360 C   0  0  0  0  0  0  0  0  0  0  0  0
  191.4050  173.3580  143.2660 C   0  0  1  0  0  3  0  0  0  0  0  0
  189.0070  173.8210  141.0110 C   0  0  0  0  0  3  0  0  0  0  0  0
  190.0200  172.8010  143.0100 C   0  0  2  0  0  3  0  0  0  0  0  0
  193.7380  172.3200  143.4980 C   0  0  2  0  0  3  0  0  0  0  0  0
  193.5240  176.7330  146.4830 C   0  0  0  0  0  2  0  0  0  0  0  0
  191.2490  174.5180  144.2910 C   0  0  2  0  0  3  0  0  0  0  0  0
  194.8520  175.0970  145.7100 C   0  0  0  0  0  2  0  0  0  0  0  0
  193.7270  174.2970  145.0490 C   0  0  2  0  0  3  0  0  0  0  0  0
  190.1190  171.4770  142.2700 C   0  0  2  0  0  3  0  0  0  0  0  0
  194.2650  173.7250  143.7530 C   0  0  0  0  0  2  0  0  0  0  0  0
  191.6620  170.6820  142.7980 S   0  0  0  0  0  0  0  0  0  0  0  0
  190.0710  171.6280  140.7720 C   0  0  0  0  0  3  0  0  0  0  0  0
  190.3170  175.6090  143.7030 C   0  0  0  0  0  2  0  0  0  0  0  0
  188.9650  175.0640  143.1840 C   0  0  1  0  0  3  0  0  0  0  0  0
  192.5450  175.2280  144.7320 C   0  0  2  0  0  3  0  0  0  0  0  0
  192.2290  172.1570  143.7320 C   0  0  2  0  0  3  0  0  0  0  0  0
  189.5100  172.6970  140.2000 C   0  0  0  0  0  3  0  0  0  0  0  0
  194.3910  175.7070  146.8880 O   0  0  0  0  0  0  0  0  0  0  0  0
  192.2350  176.1260  145.9370 C   0  0  0  0  0  2  0  0  0  0  0  0
  187.0000  177.7610  143.7580 C   0  0  1  0  0  0  0  0  0  0  0  0
  187.0170  178.2900  145.1300 C   0  0  0  0  0  2  0  0  0  0  0  0
  185.9080  176.8150  143.3880 C   0  0  2  0  0  3  0  0  0  0  0  0
  188.1050  176.0770  142.5460 N   0  0  1  0  0  0  0  0  0  0  0  0
  186.6910  179.1060  144.0170 O   0  0  0  0  0  0  0  0  0  0  0  0
  186.7010  175.6710  142.7630 C   0  0  0  0  0  2  0  0  0  0  0  0
  188.3110  177.4130  143.1250 C   0  0  1  0  0  3  0  0  0  0  0  0
  188.6430  178.3940  142.0130 C   0  0  0  0  0  1  0  0  0  0  0  0
  183.9540  177.9360  142.6810 O   0  0  0  0  0  0  0  0  0  0  0  0
  185.0130  177.4240  142.3550 C   0  0  0  0  0  3  0  0  0  0  0  0
  194.5200  171.3290  144.3490 C   0  0  0  0  0  2  0  0  0  0  0  0
  196.0080  171.5020  144.1160 C   0  0  0  0  0  1  0  0  0  0  0  0
  1  4  1  0  0  0  0
  1 15  1  0  0  0  0
  2 17  1  0  0  0  0
  2  7  1  0  0  0  0
  3  1  2  0  0  0  0
  4  2  1  0  0  0  0
  5 17  1  0  0  0  0
  5 11  1  0  0  0  0
  5 31  1  0  0  0  0
  6 19  1  0  0  0  0
  7 16  1  0  0  0  0
  8 19  1  0  0  0  0
  9  8  1  0  0  0  0
 10 12  1  0  0  0  0
 10  4  1  0  0  0  0
 11  9  1  0  0  0  0
 12 17  1  0  0  0  0
 13 10  1  0  0  0  0
 14  7  1  0  0  0  0
 15 14  1  0  0  0  0
 16  9  1  0  0  0  0
 16 20  1  0  0  0  0
 18 13  2  0  0  0  0
 18  3  1  0  0  0  0
 20  6  1  0  0  0  0
 21 25  1  0  0  0  0
 21 22  1  0  0  0  0
 23 21  1  0  0  0  0
 24 26  1  0  0  0  0
 24 27  1  0  0  0  0
 24 15  1  0  0  0  0
 25 22  1  0  0  0  0
 26 23  1  0  0  0  0
 27 21  1  0  0  0  0
 28 27  1  0  0  0  0
 30 29  2  0  0  0  0
 30 23  1  0  0  0  0
 32 31  1  0  0  0  0
M  END
>  <MODEL>
7

>  <REMARK>
 VINA RESULT:      -6.7      2.886      7.424
  Name = 
  3 active torsions:
  status: ('A' for Active; 'I' for Inactive)
    1  A    between atoms: C_6  and  C_13
    2  A    between atoms: C_15  and  C_26
    3  A    between atoms: N_16  and  C_27
                            x       y       z     vdW  Elec       q    Type
                         _______ _______ _______ _____ _____    ______ ____

>  <TORSDO>
F 3

$$$$
=
 OpenBabel11052419103D

 32 38  0  0  1  0  0  0  0  0999 V2000
  189.9700  176.8310  145.4160 C   0  0  0  0  0  0  0  0  0  0  0  0
  191.0390  174.7960  144.5760 C   0  0  1  0  0  3  0  0  0  0  0  0
  189.6870  176.9490  146.7190 C   0  0  0  0  0  3  0  0  0  0  0  0
  191.2660  176.2410  144.9660 C   0  0  2  0  0  3  0  0  0  0  0  0
  192.5150  172.6990  144.5330 C   0  0  2  0  0  3  0  0  0  0  0  0
  188.8460  172.2890  140.6840 C   0  0  0  0  0  2  0  0  0  0  0  0
  190.1050  174.7990  143.3310 C   0  0  2  0  0  3  0  0  0  0  0  0
  190.5050  171.2320  141.7660 C   0  0  0  0  0  2  0  0  0  0  0  0
  190.9300  172.4440  142.5990 C   0  0  2  0  0  3  0  0  0  0  0  0
  192.4040  176.3380  145.9680 C   0  0  2  0  0  3  0  0  0  0  0  0
  191.3130  171.9470  143.9780 C   0  0  0  0  0  2  0  0  0  0  0  0
  193.5610  174.9910  145.5960 S   0  0  0  0  0  0  0  0  0  0  0  0
  191.9430  176.2780  147.4000 C   0  0  0  0  0  3  0  0  0  0  0  0
  188.7640  175.4890  143.6890 C   0  0  0  0  0  2  0  0  0  0  0  0
  188.9320  176.8870  144.3320 C   0  0  1  0  0  3  0  0  0  0  0  0
  189.7530  173.4230  142.7300 C   0  0  2  0  0  3  0  0  0  0  0  0
  192.4400  174.2240  144.3620 C   0  0  2  0  0  3  0  0  0  0  0  0
  190.6940  176.6090  147.7420 C   0  0  0  0  0  3  0  0  0  0  0  0
  190.0760  171.6410  140.4930 O   0  0  0  0  0  0  0  0  0  0  0  0
  189.0800  173.6340  141.3670 C   0  0  0  0  0  2  0  0  0  0  0  0
  185.7970  177.6990  143.3440 C   0  0  1  0  0  0  0  0  0  0  0  0
  185.3770  177.1740  142.0360 C   0  0  0  0  0  2  0  0  0  0  0  0
  186.3370  179.0890  143.3980 C   0  0  2  0  0  3  0  0  0  0  0  0
  187.6680  177.5180  144.7550 N   0  0  1  0  0  0  0  0  0  0  0  0
  184.4390  177.4970  143.0490 O   0  0  0  0  0  0  0  0  0  0  0  0
  187.6330  178.8760  144.1750 C   0  0  0  0  0  2  0  0  0  0  0  0
  186.4960  176.7670  144.2830 C   0  0  1  0  0  3  0  0  0  0  0  0
  185.6040  176.4340  145.4670 C   0  0  0  0  0  1  0  0  0  0  0  0
  185.2760  179.8050  145.3810 O   0  0  0  0  0  0  0  0  0  0  0  0
  185.4250  179.9780  144.1820 C   0  0  0  0  0  3  0  0  0  0  0  0
  193.7860  172.1520  143.8990 C   0  0  0  0  0  2  0  0  0  0  0  0
  194.5420  171.3000  144.9000 C   0  0  0  0  0  1  0  0  0  0  0  0
  1  3  2  0  0  0  0
  2  4  1  0  0  0  0
  3 18  1  0  0  0  0
  4  1  1  0  0  0  0
  4 10  1  0  0  0  0
  6 20  1  0  0  0  0
  7 14  1  0  0  0  0
  7  2  1  0  0  0  0
  8  9  1  0  0  0  0
  9 16  1  0  0  0  0
  9 11  1  0  0  0  0
 10 13  1  0  0  0  0
 11  5  1  0  0  0  0
 12 10  1  0  0  0  0
 13 18  2  0  0  0  0
 14 15  1  0  0  0  0
 15 24  1  0  0  0  0
 15  1  1  0  0  0  0
 16  7  1  0  0  0  0
 17  5  1  0  0  0  0
 17  2  1  0  0  0  0
 17 12  1  0  0  0  0
 19  6  1  0  0  0  0
 19  8  1  0  0  0  0
 20 16  1  0  0  0  0
 21 23  1  0  0  0  0
 21 27  1  0  0  0  0
 22 25  1  0  0  0  0
 22 21  1  0  0  0  0
 23 26  1  0  0  0  0
 23 30  1  0  0  0  0
 25 21  1  0  0  0  0
 26 24  1  0  0  0  0
 27 24  1  0  0  0  0
 27 28  1  0  0  0  0
 30 29  2  0  0  0  0
 31  5  1  0  0  0  0
 31 32  1  0  0  0  0
M  END
>  <MODEL>
8

>  <REMARK>
 VINA RESULT:      -6.7      3.285      7.998
  Name = 
  3 active torsions:
  status: ('A' for Active; 'I' for Inactive)
    1  A    between atoms: C_6  and  C_13
    2  A    between atoms: C_15  and  C_26
    3  A    between atoms: N_16  and  C_27
                            x       y       z     vdW  Elec       q    Type
                         _______ _______ _______ _____ _____    ______ ____

>  <TORSDO>
F 3

$$$$
=
 OpenBabel11052419103D

 32 38  0  0  1  0  0  0  0  0999 V2000
  190.5840  176.2850  145.2010 C   0  0  0  0  0  0  0  0  0  0  0  0
  192.6930  175.2320  144.5420 C   0  0  1  0  0  3  0  0  0  0  0  0
  189.9240  175.8420  146.2780 C   0  0  0  0  0  3  0  0  0  0  0  0
  192.0700  176.4320  145.2240 C   0  0  2  0  0  3  0  0  0  0  0  0
  194.9430  174.0200  144.7540 C   0  0  2  0  0  3  0  0  0  0  0  0
  193.1960  173.5210  139.7410 C   0  0  0  0  0  2  0  0  0  0  0  0
  192.2720  175.2850  143.0450 C   0  0  2  0  0  3  0  0  0  0  0  0
  194.7750  172.8980  141.2100 C   0  0  0  0  0  2  0  0  0  0  0  0
  194.3030  173.8270  142.3310 C   0  0  2  0  0  3  0  0  0  0  0  0
  192.6810  176.6250  146.6010 C   0  0  2  0  0  3  0  0  0  0  0  0
  194.4700  173.0900  143.6450 C   0  0  0  0  0  2  0  0  0  0  0  0
  194.3960  176.0420  146.5130 S   0  0  0  0  0  0  0  0  0  0  0  0
  191.9220  175.9170  147.6930 C   0  0  0  0  0  3  0  0  0  0  0  0
  190.7260  175.2380  142.9380 C   0  0  0  0  0  2  0  0  0  0  0  0
  190.0050  176.2890  143.8150 C   0  0  1  0  0  3  0  0  0  0  0  0
  192.8170  174.1660  142.1350 C   0  0  2  0  0  3  0  0  0  0  0  0
  194.1910  175.3570  144.8220 C   0  0  2  0  0  3  0  0  0  0  0  0
  190.6320  175.6020  147.5490 C   0  0  0  0  0  3  0  0  0  0  0  0
  194.5830  173.5060  139.9590 O   0  0  0  0  0  0  0  0  0  0  0  0
  192.5450  174.5400  140.6710 C   0  0  0  0  0  2  0  0  0  0  0  0
  187.2210  177.2330  142.1350 C   0  0  1  0  0  0  0  0  0  0  0  0
  187.4440  177.9150  140.8510 C   0  0  0  0  0  2  0  0  0  0  0  0
  186.9990  178.0780  143.3450 C   0  0  2  0  0  3  0  0  0  0  0  0
  188.5340  176.1990  143.7880 N   0  0  1  0  0  0  0  0  0  0  0  0
  186.2470  177.2060  141.1240 O   0  0  0  0  0  0  0  0  0  0  0  0
  187.9990  177.4680  144.3230 C   0  0  0  0  0  2  0  0  0  0  0  0
  188.0230  176.0030  142.4240 C   0  0  1  0  0  3  0  0  0  0  0  0
  187.1350  174.7700  142.3940 C   0  0  0  0  0  1  0  0  0  0  0  0
  185.3680  177.0000  144.6690 O   0  0  0  0  0  0  0  0  0  0  0  0
  185.6110  177.8910  143.8690 C   0  0  0  0  0  3  0  0  0  0  0  0
  196.4390  174.2550  144.6090 C   0  0  0  0  0  2  0  0  0  0  0  0
  197.1910  173.5200  145.7010 C   0  0  0  0  0  1  0  0  0  0  0  0
  1  4  1  0  0  0  0
  1  3  2  0  0  0  0
  2 17  1  0  0  0  0
  2  4  1  0  0  0  0
  3 18  1  0  0  0  0
  4 10  1  0  0  0  0
  5 17  1  0  0  0  0
  6 19  1  0  0  0  0
  6 20  1  0  0  0  0
  7  2  1  0  0  0  0
  8  9  1  0  0  0  0
  9 11  1  0  0  0  0
 10 13  1  0  0  0  0
 11  5  1  0  0  0  0
 12 10  1  0  0  0  0
 14  7  1  0  0  0  0
 14 15  1  0  0  0  0
 15  1  1  0  0  0  0
 16  9  1  0  0  0  0
 16  7  1  0  0  0  0
 17 12  1  0  0  0  0
 18 13  2  0  0  0  0
 19  8  1  0  0  0  0
 20 16  1  0  0  0  0
 21 27  1  0  0  0  0
 21 23  1  0  0  0  0
 22 25  1  0  0  0  0
 22 21  1  0  0  0  0
 23 30  1  0  0  0  0
 23 26  1  0  0  0  0
 24 15  1  0  0  0  0
 24 26  1  0  0  0  0
 25 21  1  0  0  0  0
 27 24  1  0  0  0  0
 28 27  1  0  0  0  0
 30 29  2  0  0  0  0
 31  5  1  0  0  0  0
 31 32  1  0  0  0  0
M  END
>  <MODEL>
9

>  <REMARK>
 VINA RESULT:      -6.6      3.136      8.352
  Name = 
  3 active torsions:
  status: ('A' for Active; 'I' for Inactive)
    1  A    between atoms: C_6  and  C_13
    2  A    between atoms: C_15  and  C_26
    3  A    between atoms: N_16  and  C_27
                            x       y       z     vdW  Elec       q    Type
                         _______ _______ _______ _____ _____    ______ ____

>  <TORSDO>
F 3

$$$$
