=
 OpenBabel11052417533D

 31 35  0  0  1  0  0  0  0  0999 V2000
  185.1590  178.0140  141.0270 C   0  0  0  0  0  0  0  0  0  0  0  0
  187.3320  177.6050  144.1450 C   0  0  0  0  0  0  0  0  0  0  0  0
  186.6050  178.1690  145.2340 C   0  0  0  0  0  0  0  0  0  0  0  0
  184.1860  178.5660  145.5650 C   0  0  0  0  0  3  0  0  0  0  0  0
  186.8880  177.7020  142.7160 C   0  0  0  0  0  0  0  0  0  0  0  0
  186.0860  177.7560  140.0150 C   0  0  0  0  0  3  0  0  0  0  0  0
  185.4550  179.0990  144.9920 C   0  0  0  0  0  2  0  0  0  0  0  0
  189.3360  176.2920  143.2840 C   0  0  2  0  0  3  0  0  0  0  0  0
  183.8080  178.3160  140.6940 N   0  0  0  0  0  1  0  0  0  0  0  0
  188.2410  177.2720  146.7880 C   0  0  0  0  0  3  0  0  0  0  0  0
  184.0020  178.4060  146.8720 C   0  0  0  0  0  3  0  0  0  0  0  0
  189.2380  177.1270  142.0100 C   0  0  0  0  0  2  0  0  0  0  0  0
  188.5510  176.9300  144.4120 C   0  0  0  0  0  0  0  0  0  0  0  0
  185.5560  177.9780  142.3650 C   0  0  0  0  0  3  0  0  0  0  0  0
  185.0310  178.6480  147.9000 C   0  0  0  0  0  3  0  0  0  0  0  0
  187.8090  177.4180  141.6830 C   0  0  0  0  0  0  0  0  0  0  0  0
  187.4100  177.4590  140.3440 C   0  0  0  0  0  3  0  0  0  0  0  0
  188.9770  176.7570  145.7310 C   0  0  0  0  0  3  0  0  0  0  0  0
  187.0590  177.9720  146.5590 C   0  0  0  0  0  0  0  0  0  0  0  0
  186.3490  178.4660  147.7600 C   0  0  0  0  0  3  0  0  0  0  0  0
  190.6170  173.8020  143.7540 O   0  0  0  0  0  0  0  0  0  0  0  0
  191.3300  174.8380  143.8500 C   0  0  0  0  0  0  0  0  0  0  0  0
  190.7410  176.1260  143.6400 N   0  0  0  0  0  2  0  0  0  0  0  0
  195.5270  174.5320  144.6890 C   0  0  0  0  0  0  0  0  0  0  0  0
  193.6820  174.5160  143.1290 C   0  0  0  0  0  3  0  0  0  0  0  0
  192.4060  175.1000  146.5620 O   0  0  0  0  0  1  0  0  0  0  0  0
  196.9210  174.4200  144.9520 N   0  0  0  0  0  1  0  0  0  0  0  0
  195.0520  174.4130  143.3840 C   0  0  0  0  0  3  0  0  0  0  0  0
  193.2610  174.8620  145.4920 C   0  0  0  0  0  0  0  0  0  0  0  0
  192.7710  174.7350  144.1730 C   0  0  0  0  0  0  0  0  0  0  0  0
  194.6350  174.7580  145.7400 C   0  0  0  0  0  3  0  0  0  0  0  0
  1 14  1  0  0  0  0
  2 13  2  0  0  0  0
  2  3  1  0  0  0  0
  3 19  2  0  0  0  0
  4 11  2  0  0  0  0
  5  2  1  0  0  0  0
  6 17  1  0  0  0  0
  6  1  2  0  0  0  0
  7  3  1  0  0  0  0
  7  4  1  0  0  0  0
  8 23  1  1  0  0  0
  8 13  1  0  0  0  0
  9  1  1  0  0  0  0
 11 15  1  0  0  0  0
 12  8  1  0  0  0  0
 13 18  1  0  0  0  0
 14  5  2  0  0  0  0
 16 12  1  0  0  0  0
 16  5  1  0  0  0  0
 17 16  2  0  0  0  0
 18 10  2  0  0  0  0
 19 10  1  0  0  0  0
 19 20  1  0  0  0  0
 20 15  2  0  0  0  0
 21 22  2  0  0  0  0
 22 30  1  0  0  0  0
 23 22  1  0  0  0  0
 24 27  1  0  0  0  0
 24 31  1  0  0  0  0
 25 28  1  0  0  0  0
 25 30  2  0  0  0  0
 28 24  2  0  0  0  0
 29 31  2  0  0  0  0
 29 26  1  0  0  0  0
 30 29  1  0  0  0  0
M  END
>  <MODEL>
1

>  <REMARK>
 VINA RESULT:      -9.5      0.000      0.000
  Name = 
  2 active torsions:
  status: ('A' for Active; 'I' for Inactive)
    1  A    between atoms: C_9  and  C_22
    2  A    between atoms: C_15  and  N_23
                            x       y       z     vdW  Elec       q    Type
                         _______ _______ _______ _____ _____    ______ ____

>  <TORSDO>
F 2

$$$$
=
 OpenBabel11052417533D

 31 35  0  0  1  0  0  0  0  0999 V2000
  184.9860  178.0200  141.0110 C   0  0  0  0  0  0  0  0  0  0  0  0
  187.1820  177.3220  144.0610 C   0  0  0  0  0  0  0  0  0  0  0  0
  186.5670  177.9690  145.1720 C   0  0  0  0  0  0  0  0  0  0  0  0
  184.2300  178.6710  145.5770 C   0  0  0  0  0  3  0  0  0  0  0  0
  186.7110  177.4820  142.6470 C   0  0  0  0  0  0  0  0  0  0  0  0
  185.8420  177.6500  139.9720 C   0  0  0  0  0  3  0  0  0  0  0  0
  185.5390  179.0400  144.9670 C   0  0  0  0  0  2  0  0  0  0  0  0
  188.9750  175.7670  143.1400 C   0  0  2  0  0  3  0  0  0  0  0  0
  183.6770  178.4940  140.7200 N   0  0  0  0  0  1  0  0  0  0  0  0
  188.1200  176.8640  146.6760 C   0  0  0  0  0  3  0  0  0  0  0  0
  184.0660  178.5300  146.8900 C   0  0  0  0  0  3  0  0  0  0  0  0
  188.9470  176.6140  141.8700 C   0  0  0  0  0  2  0  0  0  0  0  0
  188.3120  176.4950  144.2910 C   0  0  0  0  0  0  0  0  0  0  0  0
  185.4160  177.9270  142.3370 C   0  0  0  0  0  3  0  0  0  0  0  0
  185.1480  178.6340  147.8860 C   0  0  0  0  0  3  0  0  0  0  0  0
  187.5570  177.0860  141.5870 C   0  0  0  0  0  0  0  0  0  0  0  0
  187.1260  177.1840  140.2610 C   0  0  0  0  0  3  0  0  0  0  0  0
  188.7520  176.2620  145.5960 C   0  0  0  0  0  3  0  0  0  0  0  0
  187.0310  177.7090  146.4840 C   0  0  0  0  0  0  0  0  0  0  0  0
  186.4270  178.2850  147.7050 C   0  0  0  0  0  3  0  0  0  0  0  0
  189.8880  173.1720  143.8460 O   0  0  0  0  0  0  0  0  0  0  0  0
  190.7540  174.0870  143.7880 C   0  0  0  0  0  0  0  0  0  0  0  0
  190.3570  175.4210  143.4530 N   0  0  0  0  0  2  0  0  0  0  0  0
  194.8670  173.2370  144.6710 C   0  0  0  0  0  0  0  0  0  0  0  0
  192.6220  173.7690  145.3910 C   0  0  0  0  0  3  0  0  0  0  0  0
  192.7190  173.5130  141.6920 O   0  0  0  0  0  1  0  0  0  0  0  0
  196.2290  172.9650  144.9810 N   0  0  0  0  0  1  0  0  0  0  0  0
  193.9570  173.4950  145.6960 C   0  0  0  0  0  3  0  0  0  0  0  0
  193.1060  173.5240  143.0270 C   0  0  0  0  0  0  0  0  0  0  0  0
  192.1800  173.7930  144.0590 C   0  0  0  0  0  0  0  0  0  0  0  0
  194.4420  173.2490  143.3410 C   0  0  0  0  0  3  0  0  0  0  0  0
  1 14  1  0  0  0  0
  2 13  2  0  0  0  0
  2  3  1  0  0  0  0
  3 19  2  0  0  0  0
  4 11  2  0  0  0  0
  5  2  1  0  0  0  0
  6 17  1  0  0  0  0
  6  1  2  0  0  0  0
  7  3  1  0  0  0  0
  7  4  1  0  0  0  0
  8 23  1  1  0  0  0
  8 13  1  0  0  0  0
  9  1  1  0  0  0  0
 11 15  1  0  0  0  0
 12  8  1  0  0  0  0
 13 18  1  0  0  0  0
 14  5  2  0  0  0  0
 16 12  1  0  0  0  0
 16  5  1  0  0  0  0
 17 16  2  0  0  0  0
 18 10  2  0  0  0  0
 19 10  1  0  0  0  0
 19 20  1  0  0  0  0
 20 15  2  0  0  0  0
 22 21  2  0  0  0  0
 22 30  1  0  0  0  0
 23 22  1  0  0  0  0
 24 27  1  0  0  0  0
 24 28  1  0  0  0  0
 25 28  2  0  0  0  0
 26 29  1  0  0  0  0
 29 31  1  0  0  0  0
 29 30  2  0  0  0  0
 30 25  1  0  0  0  0
 31 24  2  0  0  0  0
M  END
>  <MODEL>
2

>  <REMARK>
 VINA RESULT:      -9.1      1.065      1.475
  Name = 
  2 active torsions:
  status: ('A' for Active; 'I' for Inactive)
    1  A    between atoms: C_9  and  C_22
    2  A    between atoms: C_15  and  N_23
                            x       y       z     vdW  Elec       q    Type
                         _______ _______ _______ _____ _____    ______ ____

>  <TORSDO>
F 2

$$$$
=
 OpenBabel11052417533D

 31 35  0  0  1  0  0  0  0  0999 V2000
  191.0880  177.0780  148.0260 C   0  0  0  0  0  0  0  0  0  0  0  0
  188.4660  176.3180  145.3500 C   0  0  0  0  0  0  0  0  0  0  0  0
  187.2320  176.8610  145.8130 C   0  0  0  0  0  0  0  0  0  0  0  0
  186.7340  178.6670  147.4270 C   0  0  0  0  0  3  0  0  0  0  0  0
  189.7130  176.2720  146.1820 C   0  0  0  0  0  0  0  0  0  0  0  0
  192.1250  176.2270  147.6380 C   0  0  0  0  0  3  0  0  0  0  0  0
  187.0410  177.2180  147.2560 C   0  0  0  0  0  2  0  0  0  0  0  0
  189.8280  175.2140  143.5040 C   0  0  2  0  0  3  0  0  0  0  0  0
  191.2450  177.9160  149.1650 N   0  0  0  0  0  1  0  0  0  0  0  0
  186.2260  176.4160  143.6480 C   0  0  0  0  0  3  0  0  0  0  0  0
  185.6160  179.2210  146.9670 C   0  0  0  0  0  3  0  0  0  0  0  0
  190.6250  174.5260  144.6090 C   0  0  0  0  0  2  0  0  0  0  0  0
  188.5270  175.7730  144.0410 C   0  0  0  0  0  0  0  0  0  0  0  0
  189.8970  177.1060  147.2970 C   0  0  0  0  0  3  0  0  0  0  0  0
  184.5950  178.5150  146.1710 C   0  0  0  0  0  3  0  0  0  0  0  0
  190.7800  175.4360  145.7850 C   0  0  0  0  0  0  0  0  0  0  0  0
  191.9700  175.4060  146.5180 C   0  0  0  0  0  3  0  0  0  0  0  0
  187.4110  175.8470  143.2030 C   0  0  0  0  0  3  0  0  0  0  0  0
  186.1210  176.9280  144.9390 C   0  0  0  0  0  0  0  0  0  0  0  0
  184.8160  177.5220  145.3020 C   0  0  0  0  0  3  0  0  0  0  0  0
  191.6630  174.6330  141.4160 O   0  0  0  0  0  0  0  0  0  0  0  0
  190.5680  174.0060  141.4060 C   0  0  0  0  0  0  0  0  0  0  0  0
  189.5930  174.2630  142.4220 N   0  0  0  0  0  2  0  0  0  0  0  0
  189.8090  171.0330  138.4050 C   0  0  0  0  0  0  0  0  0  0  0  0
  190.9960  171.7920  140.3690 C   0  0  0  0  0  3  0  0  0  0  0  0
  188.5660  174.3830  139.3010 O   0  0  0  0  0  1  0  0  0  0  0  0
  189.5750  170.0410  137.4130 N   0  0  0  0  0  1  0  0  0  0  0  0
  190.7630  170.8140  139.3990 C   0  0  0  0  0  3  0  0  0  0  0  0
  189.3150  173.2130  139.3500 C   0  0  0  0  0  0  0  0  0  0  0  0
  190.2850  173.0020  140.3550 C   0  0  0  0  0  0  0  0  0  0  0  0
  189.0860  172.2280  138.3820 C   0  0  0  0  0  3  0  0  0  0  0  0
  1  9  1  0  0  0  0
  2  3  1  0  0  0  0
  2  5  1  0  0  0  0
  3  7  1  0  0  0  0
  5 14  1  0  0  0  0
  6  1  1  0  0  0  0
  7  4  1  0  0  0  0
  8 23  1  6  0  0  0
  8 13  1  0  0  0  0
  8 12  1  0  0  0  0
 10 19  1  0  0  0  0
 11  4  2  0  0  0  0
 12 16  1  0  0  0  0
 13  2  2  0  0  0  0
 14  1  2  0  0  0  0
 15 11  1  0  0  0  0
 16  5  2  0  0  0  0
 16 17  1  0  0  0  0
 17  6  2  0  0  0  0
 18 10  2  0  0  0  0
 18 13  1  0  0  0  0
 19 20  1  0  0  0  0
 19  3  2  0  0  0  0
 20 15  2  0  0  0  0
 22 21  2  0  0  0  0
 22 23  1  0  0  0  0
 24 28  1  0  0  0  0
 26 29  1  0  0  0  0
 27 24  1  0  0  0  0
 28 25  2  0  0  0  0
 29 30  2  0  0  0  0
 30 25  1  0  0  0  0
 30 22  1  0  0  0  0
 31 24  2  0  0  0  0
 31 29  1  0  0  0  0
M  END
>  <MODEL>
3

>  <REMARK>
 VINA RESULT:      -8.7      3.513      5.964
  Name = 
  2 active torsions:
  status: ('A' for Active; 'I' for Inactive)
    1  A    between atoms: C_9  and  C_22
    2  A    between atoms: C_15  and  N_23
                            x       y       z     vdW  Elec       q    Type
                         _______ _______ _______ _____ _____    ______ ____

>  <TORSDO>
F 2

$$$$
=
 OpenBabel11052417533D

 31 35  0  0  1  0  0  0  0  0999 V2000
  184.9650  178.0150  146.7770 C   0  0  0  0  0  0  0  0  0  0  0  0
  187.4710  177.0400  144.0610 C   0  0  0  0  0  0  0  0  0  0  0  0
  186.7830  177.1150  142.8150 C   0  0  0  0  0  0  0  0  0  0  0  0
  184.7740  178.3790  142.1220 C   0  0  0  0  0  3  0  0  0  0  0  0
  186.7960  177.2010  145.3900 C   0  0  0  0  0  0  0  0  0  0  0  0
  185.6280  177.5800  147.9260 C   0  0  0  0  0  3  0  0  0  0  0  0
  185.2850  177.1340  142.7630 C   0  0  0  0  0  2  0  0  0  0  0  0
  189.6380  176.7240  145.3600 C   0  0  2  0  0  3  0  0  0  0  0  0
  183.6910  178.6410  146.8850 N   0  0  0  0  0  1  0  0  0  0  0  0
  188.8830  176.8030  141.6370 C   0  0  0  0  0  3  0  0  0  0  0  0
  184.9900  178.6660  140.8410 C   0  0  0  0  0  3  0  0  0  0  0  0
  188.7920  176.1030  146.4690 C   0  0  0  0  0  2  0  0  0  0  0  0
  188.8670  176.7820  144.0580 C   0  0  0  0  0  0  0  0  0  0  0  0
  185.5490  177.8350  145.5220 C   0  0  0  0  0  3  0  0  0  0  0  0
  185.8160  177.8550  139.9280 C   0  0  0  0  0  3  0  0  0  0  0  0
  187.4670  176.7890  146.5620 C   0  0  0  0  0  0  0  0  0  0  0  0
  186.8780  176.9680  147.8180 C   0  0  0  0  0  3  0  0  0  0  0  0
  189.5550  176.6860  142.8460 C   0  0  0  0  0  3  0  0  0  0  0  0
  187.5080  177.0210  141.6040 C   0  0  0  0  0  0  0  0  0  0  0  0
  186.8990  177.1420  140.2620 C   0  0  0  0  0  3  0  0  0  0  0  0
  191.8200  176.7910  147.1760 O   0  0  0  0  0  0  0  0  0  0  0  0
  191.9300  176.0280  146.1770 C   0  0  0  0  0  0  0  0  0  0  0  0
  190.8720  175.9600  145.2160 N   0  0  0  0  0  2  0  0  0  0  0  0
  195.3870  173.5470  145.6230 C   0  0  0  0  0  0  0  0  0  0  0  0
  192.9910  173.8230  145.7630 C   0  0  0  0  0  3  0  0  0  0  0  0
  194.6540  177.1050  146.2280 O   0  0  0  0  0  1  0  0  0  0  0  0
  196.5240  172.7080  145.4460 N   0  0  0  0  0  1  0  0  0  0  0  0
  194.1050  173.0000  145.5820 C   0  0  0  0  0  3  0  0  0  0  0  0
  194.4450  175.7460  146.0260 C   0  0  0  0  0  0  0  0  0  0  0  0
  193.1430  175.1990  145.9920 C   0  0  0  0  0  0  0  0  0  0  0  0
  195.5570  174.9160  145.8420 C   0  0  0  0  0  3  0  0  0  0  0  0
  1  9  1  0  0  0  0
  1  6  1  0  0  0  0
  2  5  1  0  0  0  0
  3  2  2  0  0  0  0
  4  7  1  0  0  0  0
  5 14  1  0  0  0  0
  5 16  2  0  0  0  0
  7  3  1  0  0  0  0
  8 23  1  6  0  0  0
  8 12  1  0  0  0  0
 10 18  1  0  0  0  0
 11  4  2  0  0  0  0
 12 16  1  0  0  0  0
 13  2  1  0  0  0  0
 13  8  1  0  0  0  0
 14  1  2  0  0  0  0
 15 20  2  0  0  0  0
 15 11  1  0  0  0  0
 16 17  1  0  0  0  0
 17  6  2  0  0  0  0
 18 13  2  0  0  0  0
 19 10  2  0  0  0  0
 19  3  1  0  0  0  0
 20 19  1  0  0  0  0
 22 21  2  0  0  0  0
 23 22  1  0  0  0  0
 24 31  1  0  0  0  0
 25 30  2  0  0  0  0
 27 24  1  0  0  0  0
 28 24  2  0  0  0  0
 28 25  1  0  0  0  0
 29 26  1  0  0  0  0
 30 29  1  0  0  0  0
 30 22  1  0  0  0  0
 31 29  2  0  0  0  0
M  END
>  <MODEL>
4

>  <REMARK>
 VINA RESULT:      -8.5      1.910      4.317
  Name = 
  2 active torsions:
  status: ('A' for Active; 'I' for Inactive)
    1  A    between atoms: C_9  and  C_22
    2  A    between atoms: C_15  and  N_23
                            x       y       z     vdW  Elec       q    Type
                         _______ _______ _______ _____ _____    ______ ____

>  <TORSDO>
F 2

$$$$
=
 OpenBabel11052417533D

 31 35  0  0  1  0  0  0  0  0999 V2000
  191.7480  172.7220  142.1240 C   0  0  0  0  0  0  0  0  0  0  0  0
  189.6190  175.2540  144.0400 C   0  0  0  0  0  0  0  0  0  0  0  0
  190.2590  175.4680  145.2950 C   0  0  0  0  0  0  0  0  0  0  0  0
  192.6040  175.1610  146.0170 C   0  0  0  0  0  3  0  0  0  0  0  0
  190.0590  174.2120  143.0550 C   0  0  0  0  0  0  0  0  0  0  0  0
  190.8690  172.3450  141.1060 C   0  0  0  0  0  3  0  0  0  0  0  0
  191.2830  174.5030  145.8120 C   0  0  0  0  0  2  0  0  0  0  0  0
  187.8060  175.8710  142.3630 C   0  0  2  0  0  3  0  0  0  0  0  0
  193.0510  172.1540  142.1850 N   0  0  0  0  0  1  0  0  0  0  0  0
  188.7380  177.3040  145.7560 C   0  0  0  0  0  3  0  0  0  0  0  0
  192.7970  176.1130  146.9260 C   0  0  0  0  0  3  0  0  0  0  0  0
  187.8070  174.4050  141.9390 C   0  0  0  0  0  2  0  0  0  0  0  0
  188.4940  176.0490  143.7000 C   0  0  0  0  0  0  0  0  0  0  0  0
  191.3480  173.6540  143.0830 C   0  0  0  0  0  3  0  0  0  0  0  0
  191.7370  176.6920  147.7720 C   0  0  0  0  0  3  0  0  0  0  0  0
  189.1900  173.8420  142.0040 C   0  0  0  0  0  0  0  0  0  0  0  0
  189.5910  172.9050  141.0470 C   0  0  0  0  0  3  0  0  0  0  0  0
  188.0820  177.0750  144.5540 C   0  0  0  0  0  3  0  0  0  0  0  0
  189.8230  176.5190  146.1370 C   0  0  0  0  0  0  0  0  0  0  0  0
  190.4540  176.8600  147.4300 C   0  0  0  0  0  3  0  0  0  0  0  0
  186.8600  178.2000  141.0420 O   0  0  0  0  0  0  0  0  0  0  0  0
  186.0150  177.5330  141.7000 C   0  0  0  0  0  0  0  0  0  0  0  0
  186.4300  176.3560  142.4010 N   0  0  0  0  0  2  0  0  0  0  0  0
  181.8940  178.7270  141.7470 C   0  0  0  0  0  0  0  0  0  0  0  0
  183.8510  177.9540  140.5600 C   0  0  0  0  0  3  0  0  0  0  0  0
  184.6460  178.3350  144.1630 O   0  0  0  0  0  1  0  0  0  0  0  0
  180.5280  179.1290  141.7430 N   0  0  0  0  0  1  0  0  0  0  0  0
  182.5090  178.3410  140.5560 C   0  0  0  0  0  3  0  0  0  0  0  0
  183.9630  178.3380  142.9520 C   0  0  0  0  0  0  0  0  0  0  0  0
  184.5960  177.9530  141.7490 C   0  0  0  0  0  0  0  0  0  0  0  0
  182.6180  178.7240  142.9410 C   0  0  0  0  0  3  0  0  0  0  0  0
  1  9  1  0  0  0  0
  1 14  1  0  0  0  0
  2  3  1  0  0  0  0
  3  7  1  0  0  0  0
  3 19  2  0  0  0  0
  4 11  2  0  0  0  0
  5 14  2  0  0  0  0
  5  2  1  0  0  0  0
  6  1  2  0  0  0  0
  7  4  1  0  0  0  0
  8 23  1  1  0  0  0
  8 13  1  0  0  0  0
 10 19  1  0  0  0  0
 11 15  1  0  0  0  0
 12 16  1  0  0  0  0
 12  8  1  0  0  0  0
 13  2  2  0  0  0  0
 13 18  1  0  0  0  0
 16  5  1  0  0  0  0
 17  6  1  0  0  0  0
 17 16  2  0  0  0  0
 18 10  2  0  0  0  0
 19 20  1  0  0  0  0
 20 15  2  0  0  0  0
 21 22  2  0  0  0  0
 22 30  1  0  0  0  0
 22 23  1  0  0  0  0
 24 31  1  0  0  0  0
 25 30  2  0  0  0  0
 27 24  1  0  0  0  0
 28 25  1  0  0  0  0
 28 24  2  0  0  0  0
 29 26  1  0  0  0  0
 30 29  1  0  0  0  0
 31 29  2  0  0  0  0
M  END
>  <MODEL>
5

>  <REMARK>
 VINA RESULT:      -8.1      3.122      8.149
  Name = 
  2 active torsions:
  status: ('A' for Active; 'I' for Inactive)
    1  A    between atoms: C_9  and  C_22
    2  A    between atoms: C_15  and  N_23
                            x       y       z     vdW  Elec       q    Type
                         _______ _______ _______ _____ _____    ______ ____

>  <TORSDO>
F 2

$$$$
=
 OpenBabel11052417533D

 31 35  0  0  1  0  0  0  0  0999 V2000
  185.8330  177.9520  145.8270 C   0  0  0  0  0  0  0  0  0  0  0  0
  188.9390  176.3680  144.2600 C   0  0  0  0  0  0  0  0  0  0  0  0
  190.0200  176.5950  145.1620 C   0  0  0  0  0  0  0  0  0  0  0  0
  190.0650  177.0470  147.5930 C   0  0  0  0  0  3  0  0  0  0  0  0
  187.5760  176.9660  144.4370 C   0  0  0  0  0  0  0  0  0  0  0  0
  184.9610  177.9720  144.7370 C   0  0  0  0  0  3  0  0  0  0  0  0
  189.9230  177.6400  146.2320 C   0  0  0  0  0  2  0  0  0  0  0  0
  188.0260  175.2610  142.1580 C   0  0  2  0  0  3  0  0  0  0  0  0
  185.4060  178.4510  147.0890 N   0  0  0  0  0  1  0  0  0  0  0  0
  191.4240  175.1110  143.8500 C   0  0  0  0  0  3  0  0  0  0  0  0
  191.1920  176.4800  148.0130 C   0  0  0  0  0  3  0  0  0  0  0  0
  187.1130  176.4750  142.0090 C   0  0  0  0  0  2  0  0  0  0  0  0
  189.1570  175.5490  143.1220 C   0  0  0  0  0  0  0  0  0  0  0  0
  187.1260  177.4450  145.6790 C   0  0  0  0  0  3  0  0  0  0  0  0
  192.3950  176.2880  147.1820 C   0  0  0  0  0  3  0  0  0  0  0  0
  186.6740  176.9680  143.3500 C   0  0  0  0  0  0  0  0  0  0  0  0
  185.3820  177.4800  143.5000 C   0  0  0  0  0  3  0  0  0  0  0  0
  190.3910  174.9170  142.9440 C   0  0  0  0  0  3  0  0  0  0  0  0
  191.2560  175.9360  144.9590 C   0  0  0  0  0  0  0  0  0  0  0  0
  192.4190  176.0590  145.8640 C   0  0  0  0  0  3  0  0  0  0  0  0
  187.8220  172.6650  141.0250 O   0  0  0  0  0  0  0  0  0  0  0  0
  188.3810  173.5520  140.3240 C   0  0  0  0  0  0  0  0  0  0  0  0
  188.5290  174.8780  140.8430 N   0  0  0  0  0  2  0  0  0  0  0  0
  189.8830  172.5590  136.4290 C   0  0  0  0  0  0  0  0  0  0  0  0
  189.8200  172.2040  138.8180 C   0  0  0  0  0  3  0  0  0  0  0  0
  187.4930  174.9430  137.9040 O   0  0  0  0  0  1  0  0  0  0  0  0
  190.3970  172.2230  135.1450 N   0  0  0  0  0  1  0  0  0  0  0  0
  190.3210  171.8680  137.5580 C   0  0  0  0  0  3  0  0  0  0  0  0
  188.4380  173.9270  137.8180 C   0  0  0  0  0  0  0  0  0  0  0  0
  188.8820  173.2360  138.9670 C   0  0  0  0  0  0  0  0  0  0  0  0
  188.9430  173.5840  136.5580 C   0  0  0  0  0  3  0  0  0  0  0  0
  1  9  1  0  0  0  0
  2  5  1  0  0  0  0
  2  3  1  0  0  0  0
  3  7  1  0  0  0  0
  4 11  2  0  0  0  0
  5 14  2  0  0  0  0
  6  1  2  0  0  0  0
  7  4  1  0  0  0  0
  8 23  1  6  0  0  0
  8 13  1  0  0  0  0
 10 19  1  0  0  0  0
 12  8  1  0  0  0  0
 12 16  1  0  0  0  0
 13  2  2  0  0  0  0
 14  1  1  0  0  0  0
 15 11  1  0  0  0  0
 16 17  2  0  0  0  0
 16  5  1  0  0  0  0
 17  6  1  0  0  0  0
 18 13  1  0  0  0  0
 18 10  2  0  0  0  0
 19  3  2  0  0  0  0
 19 20  1  0  0  0  0
 20 15  2  0  0  0  0
 22 23  1  0  0  0  0
 22 21  2  0  0  0  0
 24 31  2  0  0  0  0
 24 28  1  0  0  0  0
 25 30  1  0  0  0  0
 27 24  1  0  0  0  0
 28 25  2  0  0  0  0
 29 26  1  0  0  0  0
 29 30  2  0  0  0  0
 30 22  1  0  0  0  0
 31 29  1  0  0  0  0
M  END
>  <MODEL>
6

>  <REMARK>
 VINA RESULT:      -8.1      3.883      6.206
  Name = 
  2 active torsions:
  status: ('A' for Active; 'I' for Inactive)
    1  A    between atoms: C_9  and  C_22
    2  A    between atoms: C_15  and  N_23
                            x       y       z     vdW  Elec       q    Type
                         _______ _______ _______ _____ _____    ______ ____

>  <TORSDO>
F 2

$$$$
=
 OpenBabel11052417533D

 31 35  0  0  1  0  0  0  0  0999 V2000
  195.7110  173.6390  145.5700 C   0  0  0  0  0  0  0  0  0  0  0  0
  192.1250  173.2190  144.3140 C   0  0  0  0  0  0  0  0  0  0  0  0
  192.1270  172.1120  143.4160 C   0  0  0  0  0  0  0  0  0  0  0  0
  193.6540  170.1790  143.1960 C   0  0  0  0  0  3  0  0  0  0  0  0
  193.3720  173.8050  144.9060 C   0  0  0  0  0  0  0  0  0  0  0  0
  195.6510  174.9130  146.1380 C   0  0  0  0  0  3  0  0  0  0  0  0
  193.4070  171.6020  142.8260 C   0  0  0  0  0  2  0  0  0  0  0  0
  190.8410  174.9790  145.6310 C   0  0  2  0  0  3  0  0  0  0  0  0
  196.9280  172.9020  145.6030 N   0  0  0  0  0  1  0  0  0  0  0  0
  189.7010  172.1670  143.3430 C   0  0  0  0  0  3  0  0  0  0  0  0
  192.8710  169.1850  142.7840 C   0  0  0  0  0  3  0  0  0  0  0  0
  192.0580  175.8840  145.4590 C   0  0  0  0  0  2  0  0  0  0  0  0
  190.8860  173.8190  144.6580 C   0  0  0  0  0  0  0  0  0  0  0  0
  194.5780  173.0880  144.9680 C   0  0  0  0  0  3  0  0  0  0  0  0
  191.6360  169.3610  141.9980 C   0  0  0  0  0  3  0  0  0  0  0  0
  193.3180  175.0820  145.5080 C   0  0  0  0  0  0  0  0  0  0  0  0
  194.4550  175.6330  146.1060 C   0  0  0  0  0  3  0  0  0  0  0  0
  189.6910  173.2730  144.1830 C   0  0  0  0  0  3  0  0  0  0  0  0
  190.9010  171.5760  142.9570 C   0  0  0  0  0  0  0  0  0  0  0  0
  190.7920  170.3970  142.0710 C   0  0  0  0  0  3  0  0  0  0  0  0
  188.5940  174.9160  147.3660 O   0  0  0  0  0  0  0  0  0  0  0  0
  188.5350  175.7030  146.3820 C   0  0  0  0  0  0  0  0  0  0  0  0
  189.6280  175.7710  145.4610 N   0  0  0  0  0  2  0  0  0  0  0  0
  185.0910  178.2120  145.8750 C   0  0  0  0  0  0  0  0  0  0  0  0
  186.7600  177.1830  147.2870 C   0  0  0  0  0  3  0  0  0  0  0  0
  187.3420  176.2110  143.7550 O   0  0  0  0  0  1  0  0  0  0  0  0
  183.9430  179.0410  145.7250 N   0  0  0  0  0  1  0  0  0  0  0  0
  185.6380  178.0020  147.1400 C   0  0  0  0  0  3  0  0  0  0  0  0
  186.7900  176.7840  144.8950 C   0  0  0  0  0  0  0  0  0  0  0  0
  187.3460  176.5610  146.1740 C   0  0  0  0  0  0  0  0  0  0  0  0
  185.6660  177.6070  144.7550 C   0  0  0  0  0  3  0  0  0  0  0  0
  1  9  1  0  0  0  0
  1  6  1  0  0  0  0
  2 13  1  0  0  0  0
  2  5  1  0  0  0  0
  3  2  2  0  0  0  0
  5 14  1  0  0  0  0
  5 16  2  0  0  0  0
  7  4  1  0  0  0  0
  7  3  1  0  0  0  0
  8 23  1  6  0  0  0
 10 18  1  0  0  0  0
 11  4  2  0  0  0  0
 12 16  1  0  0  0  0
 12  8  1  0  0  0  0
 13  8  1  0  0  0  0
 14  1  2  0  0  0  0
 15 20  2  0  0  0  0
 15 11  1  0  0  0  0
 16 17  1  0  0  0  0
 17  6  2  0  0  0  0
 18 13  2  0  0  0  0
 19 10  2  0  0  0  0
 19  3  1  0  0  0  0
 20 19  1  0  0  0  0
 22 21  2  0  0  0  0
 23 22  1  0  0  0  0
 24 28  1  0  0  0  0
 26 29  1  0  0  0  0
 27 24  1  0  0  0  0
 28 25  2  0  0  0  0
 29 30  2  0  0  0  0
 30 22  1  0  0  0  0
 30 25  1  0  0  0  0
 31 29  1  0  0  0  0
 31 24  2  0  0  0  0
M  END
>  <MODEL>
7

>  <REMARK>
 VINA RESULT:      -7.8      2.784      9.169
  Name = 
  2 active torsions:
  status: ('A' for Active; 'I' for Inactive)
    1  A    between atoms: C_9  and  C_22
    2  A    between atoms: C_15  and  N_23
                            x       y       z     vdW  Elec       q    Type
                         _______ _______ _______ _____ _____    ______ ____

>  <TORSDO>
F 2

$$$$
=
 OpenBabel11052417533D

 31 35  0  0  1  0  0  0  0  0999 V2000
  190.6040  176.8270  147.4860 C   0  0  0  0  0  0  0  0  0  0  0  0
  188.6250  175.7860  144.3860 C   0  0  0  0  0  0  0  0  0  0  0  0
  187.3890  176.4950  144.4260 C   0  0  0  0  0  0  0  0  0  0  0  0
  186.7360  178.5990  145.5510 C   0  0  0  0  0  3  0  0  0  0  0  0
  189.6230  175.8020  145.5040 C   0  0  0  0  0  0  0  0  0  0  0  0
  191.5960  175.8450  147.5150 C   0  0  0  0  0  3  0  0  0  0  0  0
  186.9030  177.1240  145.6970 C   0  0  0  0  0  2  0  0  0  0  0  0
  190.2470  174.2640  143.1480 C   0  0  2  0  0  3  0  0  0  0  0  0
  190.5820  177.8460  148.4790 N   0  0  0  0  0  1  0  0  0  0  0  0
  186.8820  175.7370  142.1760 C   0  0  0  0  0  3  0  0  0  0  0  0
  185.8330  179.1410  144.7390 C   0  0  0  0  0  3  0  0  0  0  0  0
  190.6710  173.7340  144.5150 C   0  0  0  0  0  2  0  0  0  0  0  0
  188.9310  175.0070  143.2400 C   0  0  0  0  0  0  0  0  0  0  0  0
  189.6330  176.8100  146.4830 C   0  0  0  0  0  3  0  0  0  0  0  0
  184.9560  178.3780  143.8320 C   0  0  0  0  0  3  0  0  0  0  0  0
  190.6470  174.8300  145.5320 C   0  0  0  0  0  0  0  0  0  0  0  0
  191.6170  174.8470  146.5390 C   0  0  0  0  0  3  0  0  0  0  0  0
  188.0640  175.0090  142.1440 C   0  0  0  0  0  3  0  0  0  0  0  0
  186.5340  176.4830  143.2980 C   0  0  0  0  0  0  0  0  0  0  0  0
  185.2590  177.2290  143.2170 C   0  0  0  0  0  3  0  0  0  0  0  0
  191.7890  174.0180  140.7760 O   0  0  0  0  0  0  0  0  0  0  0  0
  190.9850  173.0810  141.0350 C   0  0  0  0  0  0  0  0  0  0  0  0
  190.1670  173.1510  142.2080 N   0  0  0  0  0  2  0  0  0  0  0  0
  190.6110  169.7200  138.3940 C   0  0  0  0  0  0  0  0  0  0  0  0
  189.8160  171.8440  139.2290 C   0  0  0  0  0  3  0  0  0  0  0  0
  192.9140  170.8770  141.0250 O   0  0  0  0  0  1  0  0  0  0  0  0
  190.4670  168.6080  137.5170 N   0  0  0  0  0  1  0  0  0  0  0  0
  189.6780  170.7560  138.3630 C   0  0  0  0  0  3  0  0  0  0  0  0
  191.8270  170.8560  140.1600 C   0  0  0  0  0  0  0  0  0  0  0  0
  190.8830  171.9070  140.1390 C   0  0  0  0  0  0  0  0  0  0  0  0
  191.6830  169.7700  139.2880 C   0  0  0  0  0  3  0  0  0  0  0  0
  1  6  1  0  0  0  0
  1  9  1  0  0  0  0
  2  3  1  0  0  0  0
  2  5  1  0  0  0  0
  3  7  1  0  0  0  0
  4  7  1  0  0  0  0
  5 16  2  0  0  0  0
  5 14  1  0  0  0  0
  8 23  1  6  0  0  0
  8 13  1  0  0  0  0
  8 12  1  0  0  0  0
 10 19  1  0  0  0  0
 11  4  2  0  0  0  0
 12 16  1  0  0  0  0
 13  2  2  0  0  0  0
 14  1  2  0  0  0  0
 15 11  1  0  0  0  0
 16 17  1  0  0  0  0
 17  6  2  0  0  0  0
 18 10  2  0  0  0  0
 18 13  1  0  0  0  0
 19  3  2  0  0  0  0
 20 19  1  0  0  0  0
 20 15  2  0  0  0  0
 21 22  2  0  0  0  0
 22 23  1  0  0  0  0
 24 31  1  0  0  0  0
 25 30  2  0  0  0  0
 27 24  1  0  0  0  0
 28 24  2  0  0  0  0
 28 25  1  0  0  0  0
 29 26  1  0  0  0  0
 30 29  1  0  0  0  0
 30 22  1  0  0  0  0
 31 29  2  0  0  0  0
M  END
>  <MODEL>
8

>  <REMARK>
 VINA RESULT:      -7.8      3.803      6.025
  Name = 
  2 active torsions:
  status: ('A' for Active; 'I' for Inactive)
    1  A    between atoms: C_9  and  C_22
    2  A    between atoms: C_15  and  N_23
                            x       y       z     vdW  Elec       q    Type
                         _______ _______ _______ _____ _____    ______ ____

>  <TORSDO>
F 2

$$$$
=
 OpenBabel11052417533D

 31 35  0  0  1  0  0  0  0  0999 V2000
  192.7240  170.1990  141.7070 C   0  0  0  0  0  0  0  0  0  0  0  0
  192.6440  173.1040  144.1900 C   0  0  0  0  0  0  0  0  0  0  0  0
  193.9480  173.1990  144.7580 C   0  0  0  0  0  0  0  0  0  0  0  0
  196.1580  172.4530  143.9350 C   0  0  0  0  0  3  0  0  0  0  0  0
  192.2190  171.9910  143.2790 C   0  0  0  0  0  0  0  0  0  0  0  0
  191.3600  169.9910  141.4900 C   0  0  0  0  0  3  0  0  0  0  0  0
  194.9160  172.0590  144.6600 C   0  0  0  0  0  2  0  0  0  0  0  0
  190.2970  174.0460  143.9020 C   0  0  2  0  0  3  0  0  0  0  0  0
  193.6820  169.3920  141.0320 N   0  0  0  0  0  1  0  0  0  0  0  0
  193.3320  175.2960  145.8170 C   0  0  0  0  0  3  0  0  0  0  0  0
  197.0100  173.3570  144.4130 C   0  0  0  0  0  3  0  0  0  0  0  0
  189.8200  172.6040  143.7510 C   0  0  0  0  0  2  0  0  0  0  0  0
  191.6830  174.0980  144.5090 C   0  0  0  0  0  0  0  0  0  0  0  0
  193.1480  171.1960  142.5870 C   0  0  0  0  0  3  0  0  0  0  0  0
  196.8030  174.1330  145.6490 C   0  0  0  0  0  3  0  0  0  0  0  0
  190.8440  171.7870  143.0300 C   0  0  0  0  0  0  0  0  0  0  0  0
  190.4210  170.7850  142.1520 C   0  0  0  0  0  3  0  0  0  0  0  0
  192.0470  175.1890  145.3020 C   0  0  0  0  0  3  0  0  0  0  0  0
  194.2890  174.3200  145.5520 C   0  0  0  0  0  0  0  0  0  0  0  0
  195.6270  174.5420  146.1410 C   0  0  0  0  0  3  0  0  0  0  0  0
  189.0160  176.4550  143.1120 O   0  0  0  0  0  0  0  0  0  0  0  0
  188.7110  175.9890  144.2450 C   0  0  0  0  0  0  0  0  0  0  0  0
  189.3330  174.7870  144.7090 N   0  0  0  0  0  2  0  0  0  0  0  0
  185.8890  177.9940  146.7810 C   0  0  0  0  0  0  0  0  0  0  0  0
  188.1170  177.1650  146.3480 C   0  0  0  0  0  3  0  0  0  0  0  0
  185.9230  176.4150  143.4530 O   0  0  0  0  0  1  0  0  0  0  0  0
  184.9630  178.6540  147.6370 N   0  0  0  0  0  1  0  0  0  0  0  0
  187.2120  177.8190  147.1870 C   0  0  0  0  0  3  0  0  0  0  0  0
  186.3730  176.8620  144.6900 C   0  0  0  0  0  0  0  0  0  0  0  0
  187.7130  176.6740  145.0970 C   0  0  0  0  0  0  0  0  0  0  0  0
  185.4710  177.5190  145.5350 C   0  0  0  0  0  3  0  0  0  0  0  0
  1 14  1  0  0  0  0
  2 13  2  0  0  0  0
  2  3  1  0  0  0  0
  3 19  2  0  0  0  0
  4 11  2  0  0  0  0
  4  7  1  0  0  0  0
  5  2  1  0  0  0  0
  6  1  2  0  0  0  0
  6 17  1  0  0  0  0
  7  3  1  0  0  0  0
  8 13  1  0  0  0  0
  8 23  1  1  0  0  0
  9  1  1  0  0  0  0
 11 15  1  0  0  0  0
 12  8  1  0  0  0  0
 13 18  1  0  0  0  0
 14  5  2  0  0  0  0
 15 20  2  0  0  0  0
 16  5  1  0  0  0  0
 16 12  1  0  0  0  0
 17 16  2  0  0  0  0
 18 10  2  0  0  0  0
 19 10  1  0  0  0  0
 19 20  1  0  0  0  0
 21 22  2  0  0  0  0
 22 23  1  0  0  0  0
 22 30  1  0  0  0  0
 24 28  1  0  0  0  0
 24 27  1  0  0  0  0
 25 28  2  0  0  0  0
 26 29  1  0  0  0  0
 29 30  2  0  0  0  0
 29 31  1  0  0  0  0
 30 25  1  0  0  0  0
 31 24  2  0  0  0  0
M  END
>  <MODEL>
9

>  <REMARK>
 VINA RESULT:      -7.4      3.065      8.782
  Name = 
  2 active torsions:
  status: ('A' for Active; 'I' for Inactive)
    1  A    between atoms: C_9  and  C_22
    2  A    between atoms: C_15  and  N_23
                            x       y       z     vdW  Elec       q    Type
                         _______ _______ _______ _____ _____    ______ ____

>  <TORSDO>
F 2

$$$$
