=
 OpenBabel11052418293D

 27 31  0  0  1  0  0  0  0  0999 V2000
  188.7190  176.3380  146.0750 N   0  0  0  0  0  0  0  0  0  0  0  0
  188.2730  176.0100  143.6940 C   0  0  0  0  0  0  0  0  0  0  0  0
  190.7250  175.9710  143.8760 N   0  0  0  0  0  0  0  0  0  0  0  0
  188.4740  173.3040  140.4090 C   0  0  0  0  0  3  0  0  0  0  0  0
  189.7830  172.1410  138.7920 F   0  0  0  0  0  0  0  0  0  0  0  0
  187.0060  175.6880  142.9230 C   0  0  0  0  0  2  0  0  0  0  0  0
  190.8120  174.4210  141.4610 C   0  0  0  0  0  3  0  0  0  0  0  0
  192.6970  176.4540  146.8560 C   0  0  0  0  0  0  0  0  0  0  0  0
  190.8820  173.5510  140.3700 C   0  0  0  0  0  3  0  0  0  0  0  0
  193.9930  176.6660  147.1910 F   0  0  0  0  0  0  0  0  0  0  0  0
  189.5710  174.7460  142.0280 C   0  0  0  0  0  0  0  0  0  0  0  0
  188.1990  176.9580  144.8650 C   0  0  1  0  0  3  0  0  0  0  0  0
  189.7140  172.9910  139.8450 C   0  0  0  0  0  0  0  0  0  0  0  0
  188.4040  174.1880  141.4890 C   0  0  0  0  0  0  0  0  0  0  0  0
  189.9570  175.9810  146.2100 C   0  0  0  0  0  0  0  0  0  0  0  0
  189.4840  175.6040  143.2350 C   0  0  0  0  0  0  0  0  0  0  0  0
  192.3600  176.3900  145.5620 C   0  0  0  0  0  3  0  0  0  0  0  0
  187.1470  174.5100  142.0740 N   0  0  0  0  0  2  0  0  0  0  0  0
  191.6590  176.3840  147.9490 C   0  0  0  0  0  2  0  0  0  0  0  0
  190.4510  175.5340  147.5450 C   0  0  0  0  0  2  0  0  0  0  0  0
  190.9680  176.1620  145.1410 C   0  0  0  0  0  0  0  0  0  0  0  0
  184.3080  178.6220  145.6500 C   0  0  0  0  0  3  0  0  0  0  0  0
  186.8380  177.5430  145.1170 C   0  0  0  0  0  0  0  0  0  0  0  0
  185.9930  176.9280  146.0480 C   0  0  0  0  0  3  0  0  0  0  0  0
  184.7300  177.4650  146.3120 C   0  0  0  0  0  3  0  0  0  0  0  0
  185.1500  179.2430  144.7230 C   0  0  0  0  0  3  0  0  0  0  0  0
  186.4140  178.7070  144.4580 C   0  0  0  0  0  3  0  0  0  0  0  0
  1 15  2  0  0  0  0
  2 12  1  0  0  0  0
  3 21  2  0  0  0  0
  4 14  1  0  0  0  0
  5 13  1  0  0  0  0
  6  2  1  0  0  0  0
  7 11  1  0  0  0  0
  8 10  1  0  0  0  0
  8 19  1  0  0  0  0
  9  7  2  0  0  0  0
 11 16  1  0  0  0  0
 12 23  1  1  0  0  0
 12  1  1  0  0  0  0
 13  9  1  0  0  0  0
 13  4  2  0  0  0  0
 14 11  2  0  0  0  0
 14 18  1  0  0  0  0
 15 20  1  0  0  0  0
 16  2  2  0  0  0  0
 16  3  1  0  0  0  0
 17  8  2  0  0  0  0
 18  6  1  0  0  0  0
 20 19  1  0  0  0  0
 21 17  1  0  0  0  0
 21 15  1  0  0  0  0
 22 25  1  0  0  0  0
 23 24  1  0  0  0  0
 24 25  2  0  0  0  0
 26 22  2  0  0  0  0
 27 26  1  0  0  0  0
 27 23  2  0  0  0  0
M  END
>  <MODEL>
1

>  <REMARK>
 VINA RESULT:      -8.7      0.000      0.000
  Name = 
  1 active torsions:
  status: ('A' for Active; 'I' for Inactive)
    1  A    between atoms: C_9  and  C_15
                            x       y       z     vdW  Elec       q    Type
                         _______ _______ _______ _____ _____    ______ ____

>  <TORSDO>
F 1

$$$$
=
 OpenBabel11052418293D

 27 31  0  0  1  0  0  0  0  0999 V2000
  190.3110  174.2860  143.8130 N   0  0  0  0  0  0  0  0  0  0  0  0
  189.3320  176.3560  144.6690 C   0  0  0  0  0  0  0  0  0  0  0  0
  188.0760  175.8830  142.6100 N   0  0  0  0  0  0  0  0  0  0  0  0
  185.8770  178.1890  146.3570 C   0  0  0  0  0  3  0  0  0  0  0  0
  183.6570  179.0150  146.0830 F   0  0  0  0  0  0  0  0  0  0  0  0
  189.4520  177.0710  146.0020 C   0  0  0  0  0  2  0  0  0  0  0  0
  185.8930  177.4170  143.6690 C   0  0  0  0  0  3  0  0  0  0  0  0
  188.6030  173.1530  140.3130 C   0  0  0  0  0  0  0  0  0  0  0  0
  184.7650  178.0380  144.2110 C   0  0  0  0  0  3  0  0  0  0  0  0
  188.2090  172.7820  139.0710 F   0  0  0  0  0  0  0  0  0  0  0  0
  187.0250  177.1870  144.4640 C   0  0  0  0  0  0  0  0  0  0  0  0
  190.5540  175.6970  144.0780 C   0  0  1  0  0  3  0  0  0  0  0  0
  184.7550  178.4210  145.5550 C   0  0  0  0  0  0  0  0  0  0  0  0
  187.0110  177.5840  145.8080 C   0  0  0  0  0  0  0  0  0  0  0  0
  189.4430  173.8700  142.9450 C   0  0  0  0  0  0  0  0  0  0  0  0
  188.2010  176.4590  143.9270 C   0  0  0  0  0  0  0  0  0  0  0  0
  188.2060  174.3360  140.7970 C   0  0  0  0  0  3  0  0  0  0  0  0
  188.1560  177.3380  146.6170 N   0  0  0  0  0  2  0  0  0  0  0  0
  189.5480  172.2600  141.0790 C   0  0  0  0  0  2  0  0  0  0  0  0
  189.3940  172.4200  142.5940 C   0  0  0  0  0  2  0  0  0  0  0  0
  188.6050  174.7890  142.1400 C   0  0  0  0  0  0  0  0  0  0  0  0
  194.1730  176.1350  146.3640 C   0  0  0  0  0  3  0  0  0  0  0  0
  191.8140  175.8720  144.8780 C   0  0  0  0  0  0  0  0  0  0  0  0
  192.1440  174.9190  145.8480 C   0  0  0  0  0  3  0  0  0  0  0  0
  193.3200  175.0510  146.5920 C   0  0  0  0  0  3  0  0  0  0  0  0
  193.8520  177.0860  145.3930 C   0  0  0  0  0  3  0  0  0  0  0  0
  192.6750  176.9550  144.6490 C   0  0  0  0  0  3  0  0  0  0  0  0
  1 12  1  0  0  0  0
  2  6  1  0  0  0  0
  3 16  1  0  0  0  0
  6 18  1  0  0  0  0
  7  9  2  0  0  0  0
  7 11  1  0  0  0  0
  8 17  2  0  0  0  0
  8 19  1  0  0  0  0
  9 13  1  0  0  0  0
 10  8  1  0  0  0  0
 11 14  2  0  0  0  0
 12  2  1  0  0  0  0
 12 23  1  1  0  0  0
 13  5  1  0  0  0  0
 13  4  2  0  0  0  0
 14  4  1  0  0  0  0
 14 18  1  0  0  0  0
 15  1  2  0  0  0  0
 16 11  1  0  0  0  0
 16  2  2  0  0  0  0
 17 21  1  0  0  0  0
 19 20  1  0  0  0  0
 20 15  1  0  0  0  0
 21  3  2  0  0  0  0
 21 15  1  0  0  0  0
 22 25  1  0  0  0  0
 23 24  1  0  0  0  0
 24 25  2  0  0  0  0
 26 22  2  0  0  0  0
 27 23  2  0  0  0  0
 27 26  1  0  0  0  0
M  END
>  <MODEL>
2

>  <REMARK>
 VINA RESULT:      -8.5      2.491      6.867
  Name = 
  1 active torsions:
  status: ('A' for Active; 'I' for Inactive)
    1  A    between atoms: C_9  and  C_15
                            x       y       z     vdW  Elec       q    Type
                         _______ _______ _______ _____ _____    ______ ____

>  <TORSDO>
F 1

$$$$
=
 OpenBabel11052418293D

 27 31  0  0  1  0  0  0  0  0999 V2000
  190.6500  174.0610  143.5400 N   0  0  0  0  0  0  0  0  0  0  0  0
  189.7140  175.9740  144.7400 C   0  0  0  0  0  0  0  0  0  0  0  0
  188.2680  175.7130  142.7690 N   0  0  0  0  0  0  0  0  0  0  0  0
  186.4030  177.4600  146.9720 C   0  0  0  0  0  3  0  0  0  0  0  0
  184.1490  178.2330  147.0200 F   0  0  0  0  0  0  0  0  0  0  0  0
  189.9510  176.5250  146.1350 C   0  0  0  0  0  2  0  0  0  0  0  0
  186.1680  177.0260  144.2190 C   0  0  0  0  0  3  0  0  0  0  0  0
  188.6260  173.3060  140.1080 C   0  0  0  0  0  0  0  0  0  0  0  0
  185.0850  177.5340  144.9420 C   0  0  0  0  0  3  0  0  0  0  0  0
  188.1180  173.0760  138.8730 F   0  0  0  0  0  0  0  0  0  0  0  0
  187.3790  176.7400  144.8660 C   0  0  0  0  0  0  0  0  0  0  0  0
  190.8850  175.4370  143.9560 C   0  0  1  0  0  3  0  0  0  0  0  0
  185.2010  177.7490  146.3180 C   0  0  0  0  0  0  0  0  0  0  0  0
  187.4900  176.9690  146.2440 C   0  0  0  0  0  0  0  0  0  0  0  0
  189.7100  173.7240  142.7150 C   0  0  0  0  0  0  0  0  0  0  0  0
  188.5110  176.1270  144.1310 C   0  0  0  0  0  0  0  0  0  0  0  0
  188.2520  174.4050  140.7730 C   0  0  0  0  0  3  0  0  0  0  0  0
  188.7170  176.6670  146.9010 N   0  0  0  0  0  2  0  0  0  0  0  0
  189.6640  172.3600  140.6600 C   0  0  0  0  0  2  0  0  0  0  0  0
  189.6600  172.3270  142.1910 C   0  0  0  0  0  2  0  0  0  0  0  0
  188.7730  174.7040  142.1170 C   0  0  0  0  0  0  0  0  0  0  0  0
  194.6900  175.8450  145.9250 C   0  0  0  0  0  3  0  0  0  0  0  0
  192.2150  175.5580  144.6450 C   0  0  0  0  0  0  0  0  0  0  0  0
  193.1350  176.5090  144.1910 C   0  0  0  0  0  3  0  0  0  0  0  0
  194.3710  176.6510  144.8280 C   0  0  0  0  0  3  0  0  0  0  0  0
  193.7730  174.8970  146.3850 C   0  0  0  0  0  3  0  0  0  0  0  0
  192.5360  174.7530  145.7490 C   0  0  0  0  0  3  0  0  0  0  0  0
  1 12  1  0  0  0  0
  2  6  1  0  0  0  0
  3 16  1  0  0  0  0
  6 18  1  0  0  0  0
  7 11  2  0  0  0  0
  7  9  1  0  0  0  0
  8 19  1  0  0  0  0
  8 17  2  0  0  0  0
  9 13  2  0  0  0  0
 10  8  1  0  0  0  0
 11 14  1  0  0  0  0
 12 23  1  1  0  0  0
 12  2  1  0  0  0  0
 13  4  1  0  0  0  0
 13  5  1  0  0  0  0
 14 18  1  0  0  0  0
 14  4  2  0  0  0  0
 15  1  2  0  0  0  0
 16  2  2  0  0  0  0
 16 11  1  0  0  0  0
 17 21  1  0  0  0  0
 19 20  1  0  0  0  0
 20 15  1  0  0  0  0
 21 15  1  0  0  0  0
 21  3  2  0  0  0  0
 22 26  1  0  0  0  0
 23 27  1  0  0  0  0
 24 23  2  0  0  0  0
 24 25  1  0  0  0  0
 25 22  2  0  0  0  0
 27 26  2  0  0  0  0
M  END
>  <MODEL>
3

>  <REMARK>
 VINA RESULT:      -8.0      2.387      7.090
  Name = 
  1 active torsions:
  status: ('A' for Active; 'I' for Inactive)
    1  A    between atoms: C_9  and  C_15
                            x       y       z     vdW  Elec       q    Type
                         _______ _______ _______ _____ _____    ______ ____

>  <TORSDO>
F 1

$$$$
=
 OpenBabel11052418293D

 27 31  0  0  1  0  0  0  0  0999 V2000
  189.3470  174.1430  143.7820 N   0  0  0  0  0  0  0  0  0  0  0  0
  188.2180  176.2650  144.2220 C   0  0  0  0  0  0  0  0  0  0  0  0
  187.8490  175.8540  141.8270 N   0  0  0  0  0  0  0  0  0  0  0  0
  184.4750  178.2880  144.4510 C   0  0  0  0  0  3  0  0  0  0  0  0
  182.5870  179.2320  143.3430 F   0  0  0  0  0  0  0  0  0  0  0  0
  187.8410  176.9790  145.5080 C   0  0  0  0  0  2  0  0  0  0  0  0
  185.5070  177.5080  141.9720 C   0  0  0  0  0  3  0  0  0  0  0  0
  189.0960  173.0910  139.8730 C   0  0  0  0  0  0  0  0  0  0  0  0
  184.2890  178.1900  142.0390 C   0  0  0  0  0  3  0  0  0  0  0  0
  189.2040  172.7380  138.5700 F   0  0  0  0  0  0  0  0  0  0  0  0
  186.2220  177.2190  143.1430 C   0  0  0  0  0  0  0  0  0  0  0  0
  189.5380  175.5400  144.1470 C   0  0  1  0  0  3  0  0  0  0  0  0
  183.7720  178.5780  143.2780 C   0  0  0  0  0  0  0  0  0  0  0  0
  185.7010  177.6210  144.3810 C   0  0  0  0  0  0  0  0  0  0  0  0
  188.8700  173.7710  142.6360 C   0  0  0  0  0  0  0  0  0  0  0  0
  187.4750  176.4270  143.0980 C   0  0  0  0  0  0  0  0  0  0  0  0
  188.6020  174.2960  140.1840 C   0  0  0  0  0  3  0  0  0  0  0  0
  186.4220  177.3170  145.5690 N   0  0  0  0  0  2  0  0  0  0  0  0
  189.6170  172.1510  140.9330 C   0  0  0  0  0  2  0  0  0  0  0  0
  188.8890  172.3250  142.2680 C   0  0  0  0  0  2  0  0  0  0  0  0
  188.4640  174.7310  141.5830 C   0  0  0  0  0  0  0  0  0  0  0  0
  191.9870  175.9140  147.6660 C   0  0  0  0  0  3  0  0  0  0  0  0
  190.3900  175.6490  145.3800 C   0  0  0  0  0  0  0  0  0  0  0  0
  191.5560  176.4220  145.3380 C   0  0  0  0  0  3  0  0  0  0  0  0
  192.3540  176.5520  146.4770 C   0  0  0  0  0  3  0  0  0  0  0  0
  190.8210  175.1450  147.7150 C   0  0  0  0  0  3  0  0  0  0  0  0
  190.0220  175.0130  146.5750 C   0  0  0  0  0  3  0  0  0  0  0  0
  1 12  1  0  0  0  0
  2  6  1  0  0  0  0
  3 16  1  0  0  0  0
  6 18  1  0  0  0  0
  7  9  2  0  0  0  0
  7 11  1  0  0  0  0
  8 17  2  0  0  0  0
  8 19  1  0  0  0  0
  9 13  1  0  0  0  0
 10  8  1  0  0  0  0
 11 14  2  0  0  0  0
 12  2  1  0  0  0  0
 12 23  1  1  0  0  0
 13  5  1  0  0  0  0
 13  4  2  0  0  0  0
 14  4  1  0  0  0  0
 14 18  1  0  0  0  0
 15  1  2  0  0  0  0
 16 11  1  0  0  0  0
 16  2  2  0  0  0  0
 17 21  1  0  0  0  0
 19 20  1  0  0  0  0
 20 15  1  0  0  0  0
 21  3  2  0  0  0  0
 21 15  1  0  0  0  0
 22 26  1  0  0  0  0
 23 27  1  0  0  0  0
 24 23  2  0  0  0  0
 24 25  1  0  0  0  0
 25 22  2  0  0  0  0
 27 26  2  0  0  0  0
M  END
>  <MODEL>
4

>  <REMARK>
 VINA RESULT:      -8.0      2.575      6.450
  Name = 
  1 active torsions:
  status: ('A' for Active; 'I' for Inactive)
    1  A    between atoms: C_9  and  C_15
                            x       y       z     vdW  Elec       q    Type
                         _______ _______ _______ _____ _____    ______ ____

>  <TORSDO>
F 1

$$$$
=
 OpenBabel11052418293D

 27 31  0  0  1  0  0  0  0  0999 V2000
  190.5380  175.8160  142.8280 N   0  0  0  0  0  0  0  0  0  0  0  0
  188.2350  175.6330  143.6250 C   0  0  0  0  0  0  0  0  0  0  0  0
  189.5730  175.9370  145.6650 N   0  0  0  0  0  0  0  0  0  0  0  0
  184.9690  177.6560  145.4660 C   0  0  0  0  0  3  0  0  0  0  0  0
  183.9870  178.6020  147.4220 F   0  0  0  0  0  0  0  0  0  0  0  0
  186.8970  175.6780  142.9110 C   0  0  0  0  0  2  0  0  0  0  0  0
  187.2380  176.9900  146.9590 C   0  0  0  0  0  3  0  0  0  0  0  0
  193.1610  176.2280  145.8950 C   0  0  0  0  0  0  0  0  0  0  0  0
  186.1610  177.6350  147.5740 C   0  0  0  0  0  3  0  0  0  0  0  0
  194.1200  176.2090  146.8500 F   0  0  0  0  0  0  0  0  0  0  0  0
  187.1840  176.6660  145.5960 C   0  0  0  0  0  0  0  0  0  0  0  0
  189.3940  174.9260  142.9670 C   0  0  1  0  0  3  0  0  0  0  0  0
  185.0280  177.9700  146.8280 C   0  0  0  0  0  0  0  0  0  0  0  0
  186.0400  176.9960  144.8570 C   0  0  0  0  0  0  0  0  0  0  0  0
  191.1780  176.3070  143.8420 C   0  0  0  0  0  0  0  0  0  0  0  0
  188.3480  176.0540  144.9100 C   0  0  0  0  0  0  0  0  0  0  0  0
  191.8870  176.0090  146.2440 C   0  0  0  0  0  3  0  0  0  0  0  0
  185.9930  176.6770  143.4710 N   0  0  0  0  0  2  0  0  0  0  0  0
  193.5660  176.4120  144.4520 C   0  0  0  0  0  2  0  0  0  0  0  0
  192.4540  177.0490  143.6160 C   0  0  0  0  0  2  0  0  0  0  0  0
  190.8050  176.0180  145.2470 C   0  0  0  0  0  0  0  0  0  0  0  0
  188.4450  173.0150  139.2290 C   0  0  0  0  0  3  0  0  0  0  0  0
  189.0720  174.2760  141.6510 C   0  0  0  0  0  0  0  0  0  0  0  0
  189.2450  172.8940  141.5120 C   0  0  0  0  0  3  0  0  0  0  0  0
  188.9340  172.2650  140.3030 C   0  0  0  0  0  3  0  0  0  0  0  0
  188.2660  174.3940  139.3640 C   0  0  0  0  0  3  0  0  0  0  0  0
  188.5760  175.0250  140.5730 C   0  0  0  0  0  3  0  0  0  0  0  0
  1 12  1  0  0  0  0
  1 15  2  0  0  0  0
  2 16  2  0  0  0  0
  4 13  1  0  0  0  0
  6 18  1  0  0  0  0
  6  2  1  0  0  0  0
  7  9  1  0  0  0  0
  8 17  2  0  0  0  0
  8 10  1  0  0  0  0
 11  7  2  0  0  0  0
 12 23  1  6  0  0  0
 12  2  1  0  0  0  0
 13  5  1  0  0  0  0
 13  9  2  0  0  0  0
 14  4  2  0  0  0  0
 14 11  1  0  0  0  0
 15 21  1  0  0  0  0
 16 11  1  0  0  0  0
 16  3  1  0  0  0  0
 18 14  1  0  0  0  0
 19  8  1  0  0  0  0
 20 15  1  0  0  0  0
 20 19  1  0  0  0  0
 21  3  2  0  0  0  0
 21 17  1  0  0  0  0
 22 26  2  0  0  0  0
 22 25  1  0  0  0  0
 24 23  1  0  0  0  0
 25 24  2  0  0  0  0
 26 27  1  0  0  0  0
 27 23  2  0  0  0  0
M  END
>  <MODEL>
5

>  <REMARK>
 VINA RESULT:      -7.8      2.318      5.831
  Name = 
  1 active torsions:
  status: ('A' for Active; 'I' for Inactive)
    1  A    between atoms: C_9  and  C_15
                            x       y       z     vdW  Elec       q    Type
                         _______ _______ _______ _____ _____    ______ ____

>  <TORSDO>
F 1

$$$$
=
 OpenBabel11052418293D

 27 31  0  0  1  0  0  0  0  0999 V2000
  187.1050  177.2430  142.8300 N   0  0  0  0  0  0  0  0  0  0  0  0
  188.4170  176.5600  144.7760 C   0  0  0  0  0  0  0  0  0  0  0  0
  189.1360  175.0420  142.9810 N   0  0  0  0  0  0  0  0  0  0  0  0
  192.3010  176.3480  146.5130 C   0  0  0  0  0  3  0  0  0  0  0  0
  194.4630  175.3440  146.5770 F   0  0  0  0  0  0  0  0  0  0  0  0
  188.6580  177.2070  146.1280 C   0  0  0  0  0  2  0  0  0  0  0  0
  191.6190  174.6780  144.3750 C   0  0  0  0  0  3  0  0  0  0  0  0
  187.8850  174.9160  139.6010 C   0  0  0  0  0  0  0  0  0  0  0  0
  192.8880  174.5890  144.9550 C   0  0  0  0  0  3  0  0  0  0  0  0
  187.9590  174.1000  138.5220 F   0  0  0  0  0  0  0  0  0  0  0  0
  190.6800  175.5970  144.8660 C   0  0  0  0  0  0  0  0  0  0  0  0
  187.0440  176.6460  144.1570 C   0  0  1  0  0  3  0  0  0  0  0  0
  193.2300  175.4250  146.0210 C   0  0  0  0  0  0  0  0  0  0  0  0
  191.0280  176.4240  145.9430 C   0  0  0  0  0  0  0  0  0  0  0  0
  187.7190  176.6870  141.8330 C   0  0  0  0  0  0  0  0  0  0  0  0
  189.3580  175.7600  144.2140 C   0  0  0  0  0  0  0  0  0  0  0  0
  188.4760  174.5430  140.7430 C   0  0  0  0  0  3  0  0  0  0  0  0
  190.0770  177.3630  146.4320 N   0  0  0  0  0  2  0  0  0  0  0  0
  187.0660  176.1800  139.5090 C   0  0  0  0  0  2  0  0  0  0  0  0
  187.5690  177.2660  140.4650 C   0  0  0  0  0  2  0  0  0  0  0  0
  188.4270  175.3910  141.9450 C   0  0  0  0  0  0  0  0  0  0  0  0
  184.0670  178.6650  146.5190 C   0  0  0  0  0  3  0  0  0  0  0  0
  186.0140  177.3440  145.0000 C   0  0  0  0  0  0  0  0  0  0  0  0
  185.5870  178.6250  144.6340 C   0  0  0  0  0  3  0  0  0  0  0  0
  184.6170  179.2860  145.3930 C   0  0  0  0  0  3  0  0  0  0  0  0
  184.4860  177.3840  146.8860 C   0  0  0  0  0  3  0  0  0  0  0  0
  185.4570  176.7220  146.1280 C   0  0  0  0  0  3  0  0  0  0  0  0
  1 12  1  0  0  0  0
  2  6  1  0  0  0  0
  3 16  1  0  0  0  0
  6 18  1  0  0  0  0
  7 11  2  0  0  0  0
  7  9  1  0  0  0  0
  8 17  2  0  0  0  0
  9 13  2  0  0  0  0
 10  8  1  0  0  0  0
 11 14  1  0  0  0  0
 12  2  1  0  0  0  0
 12 23  1  1  0  0  0
 13  4  1  0  0  0  0
 13  5  1  0  0  0  0
 14 18  1  0  0  0  0
 14  4  2  0  0  0  0
 15 21  1  0  0  0  0
 15  1  2  0  0  0  0
 16  2  2  0  0  0  0
 16 11  1  0  0  0  0
 17 21  1  0  0  0  0
 19  8  1  0  0  0  0
 19 20  1  0  0  0  0
 20 15  1  0  0  0  0
 21  3  2  0  0  0  0
 22 26  1  0  0  0  0
 23 27  1  0  0  0  0
 24 23  2  0  0  0  0
 24 25  1  0  0  0  0
 25 22  2  0  0  0  0
 27 26  2  0  0  0  0
M  END
>  <MODEL>
6

>  <REMARK>
 VINA RESULT:      -7.8      1.619      5.517
  Name = 
  1 active torsions:
  status: ('A' for Active; 'I' for Inactive)
    1  A    between atoms: C_9  and  C_15
                            x       y       z     vdW  Elec       q    Type
                         _______ _______ _______ _____ _____    ______ ____

>  <TORSDO>
F 1

$$$$
=
 OpenBabel11052418293D

 27 31  0  0  1  0  0  0  0  0999 V2000
  190.8780  175.4290  143.7950 N   0  0  0  0  0  0  0  0  0  0  0  0
  188.5230  175.4030  143.1430 C   0  0  0  0  0  0  0  0  0  0  0  0
  188.5030  176.0900  145.5030 N   0  0  0  0  0  0  0  0  0  0  0  0
  185.0330  177.7410  142.4330 C   0  0  0  0  0  3  0  0  0  0  0  0
  183.2310  179.0430  143.2940 F   0  0  0  0  0  0  0  0  0  0  0  0
  187.8340  175.3110  141.7940 C   0  0  0  0  0  2  0  0  0  0  0  0
  185.9770  177.3720  145.0400 C   0  0  0  0  0  3  0  0  0  0  0  0
  191.3440  176.4190  147.7010 C   0  0  0  0  0  0  0  0  0  0  0  0
  184.8200  178.1220  144.8150 C   0  0  0  0  0  3  0  0  0  0  0  0
  191.5890  176.5820  149.0230 F   0  0  0  0  0  0  0  0  0  0  0  0
  186.6650  176.7940  143.9630 C   0  0  0  0  0  0  0  0  0  0  0  0
  189.7650  174.5830  143.3890 C   0  0  1  0  0  3  0  0  0  0  0  0
  184.3490  178.3090  143.5120 C   0  0  0  0  0  0  0  0  0  0  0  0
  186.1810  176.9770  142.6610 C   0  0  0  0  0  0  0  0  0  0  0  0
  190.8850  176.1040  144.9010 C   0  0  0  0  0  0  0  0  0  0  0  0
  187.9380  176.0610  144.1750 C   0  0  0  0  0  0  0  0  0  0  0  0
  190.0800  176.2700  147.2850 C   0  0  0  0  0  3  0  0  0  0  0  0
  186.8870  176.3990  141.5700 N   0  0  0  0  0  2  0  0  0  0  0  0
  192.5080  176.3230  146.7450 C   0  0  0  0  0  2  0  0  0  0  0  0
  192.1380  176.7900  145.3350 C   0  0  0  0  0  2  0  0  0  0  0  0
  189.7560  176.0900  145.8610 C   0  0  0  0  0  0  0  0  0  0  0  0
  190.9860  172.0560  140.1270 C   0  0  0  0  0  3  0  0  0  0  0  0
  190.1700  173.6940  142.2480 C   0  0  0  0  0  0  0  0  0  0  0  0
  191.0940  174.1660  141.3090 C   0  0  0  0  0  3  0  0  0  0  0  0
  191.5000  173.3500  140.2490 C   0  0  0  0  0  3  0  0  0  0  0  0
  190.0670  171.5770  141.0640 C   0  0  0  0  0  3  0  0  0  0  0  0
  189.6600  172.3920  142.1250 C   0  0  0  0  0  3  0  0  0  0  0  0
  1 15  2  0  0  0  0
  2 12  1  0  0  0  0
  2 16  2  0  0  0  0
  3 21  2  0  0  0  0
  4 14  2  0  0  0  0
  4 13  1  0  0  0  0
  5 13  1  0  0  0  0
  6  2  1  0  0  0  0
  8 10  1  0  0  0  0
  9  7  1  0  0  0  0
 11 16  1  0  0  0  0
 11  7  2  0  0  0  0
 12 23  1  6  0  0  0
 12  1  1  0  0  0  0
 13  9  2  0  0  0  0
 14 11  1  0  0  0  0
 15 20  1  0  0  0  0
 15 21  1  0  0  0  0
 16  3  1  0  0  0  0
 17  8  2  0  0  0  0
 18  6  1  0  0  0  0
 18 14  1  0  0  0  0
 19  8  1  0  0  0  0
 20 19  1  0  0  0  0
 21 17  1  0  0  0  0
 22 25  2  0  0  0  0
 22 26  1  0  0  0  0
 24 23  2  0  0  0  0
 25 24  1  0  0  0  0
 26 27  2  0  0  0  0
 27 23  1  0  0  0  0
M  END
>  <MODEL>
7

>  <REMARK>
 VINA RESULT:      -7.8      2.430      5.788
  Name = 
  1 active torsions:
  status: ('A' for Active; 'I' for Inactive)
    1  A    between atoms: C_9  and  C_15
                            x       y       z     vdW  Elec       q    Type
                         _______ _______ _______ _____ _____    ______ ____

>  <TORSDO>
F 1

$$$$
=
 OpenBabel11052418293D

 27 31  0  0  1  0  0  0  0  0999 V2000
  190.1870  175.9710  145.3860 N   0  0  0  0  0  0  0  0  0  0  0  0
  189.2060  175.4890  143.2000 C   0  0  0  0  0  0  0  0  0  0  0  0
  191.6320  175.4930  142.8020 N   0  0  0  0  0  0  0  0  0  0  0  0
  188.7070  172.5870  140.1210 C   0  0  0  0  0  3  0  0  0  0  0  0
  189.6340  171.3410  138.3120 F   0  0  0  0  0  0  0  0  0  0  0  0
  187.8030  175.1040  142.7690 C   0  0  0  0  0  2  0  0  0  0  0  0
  191.1950  173.7970  140.5290 C   0  0  0  0  0  3  0  0  0  0  0  0
  194.2330  176.1870  145.2030 C   0  0  0  0  0  0  0  0  0  0  0  0
  191.0320  172.8610  139.5030 C   0  0  0  0  0  3  0  0  0  0  0  0
  195.5640  176.4360  145.2120 F   0  0  0  0  0  0  0  0  0  0  0  0
  190.1130  174.1400  141.3520 C   0  0  0  0  0  0  0  0  0  0  0  0
  189.3810  176.5080  144.2980 C   0  0  1  0  0  3  0  0  0  0  0  0
  189.7890  172.2540  139.3010 C   0  0  0  0  0  0  0  0  0  0  0  0
  188.8680  173.5350  141.1350 C   0  0  0  0  0  0  0  0  0  0  0  0
  191.4320  175.6400  145.2460 C   0  0  0  0  0  0  0  0  0  0  0  0
  190.2870  175.0710  142.4940 C   0  0  0  0  0  0  0  0  0  0  0  0
  193.6050  176.0380  144.0300 C   0  0  0  0  0  3  0  0  0  0  0  0
  187.7740  173.8760  141.9790 N   0  0  0  0  0  2  0  0  0  0  0  0
  193.4820  176.1720  146.5120 C   0  0  0  0  0  2  0  0  0  0  0  0
  192.2360  175.2830  146.4530 C   0  0  0  0  0  2  0  0  0  0  0  0
  192.1600  175.7660  143.9620 C   0  0  0  0  0  0  0  0  0  0  0  0
  185.7410  178.1720  145.8780 C   0  0  0  0  0  3  0  0  0  0  0  0
  188.1020  177.0900  144.8300 C   0  0  0  0  0  0  0  0  0  0  0  0
  187.5780  176.6020  146.0320 C   0  0  0  0  0  3  0  0  0  0  0  0
  186.3990  177.1410  146.5550 C   0  0  0  0  0  3  0  0  0  0  0  0
  186.2620  178.6660  144.6790 C   0  0  0  0  0  3  0  0  0  0  0  0
  187.4420  178.1280  144.1550 C   0  0  0  0  0  3  0  0  0  0  0  0
  2 12  1  0  0  0  0
  3 21  2  0  0  0  0
  4 14  1  0  0  0  0
  5 13  1  0  0  0  0
  6  2  1  0  0  0  0
  7 11  1  0  0  0  0
  8 10  1  0  0  0  0
  8 19  1  0  0  0  0
  9  7  2  0  0  0  0
 11 16  1  0  0  0  0
 12 23  1  1  0  0  0
 12  1  1  0  0  0  0
 13  9  1  0  0  0  0
 13  4  2  0  0  0  0
 14 11  2  0  0  0  0
 14 18  1  0  0  0  0
 15  1  2  0  0  0  0
 15 20  1  0  0  0  0
 16  3  1  0  0  0  0
 16  2  2  0  0  0  0
 17  8  2  0  0  0  0
 18  6  1  0  0  0  0
 20 19  1  0  0  0  0
 21 17  1  0  0  0  0
 21 15  1  0  0  0  0
 22 25  1  0  0  0  0
 23 24  1  0  0  0  0
 24 25  2  0  0  0  0
 26 22  2  0  0  0  0
 27 26  1  0  0  0  0
 27 23  2  0  0  0  0
M  END
>  <MODEL>
8

>  <REMARK>
 VINA RESULT:      -7.8      1.240      1.527
  Name = 
  1 active torsions:
  status: ('A' for Active; 'I' for Inactive)
    1  A    between atoms: C_9  and  C_15
                            x       y       z     vdW  Elec       q    Type
                         _______ _______ _______ _____ _____    ______ ____

>  <TORSDO>
F 1

$$$$
=
 OpenBabel11052418293D

 27 31  0  0  1  0  0  0  0  0999 V2000
  188.7090  175.0780  141.7130 N   0  0  0  0  0  0  0  0  0  0  0  0
  188.4740  176.1100  143.9150 C   0  0  0  0  0  0  0  0  0  0  0  0
  189.4020  173.8800  144.3730 N   0  0  0  0  0  0  0  0  0  0  0  0
  190.5140  177.6570  147.3210 C   0  0  0  0  0  3  0  0  0  0  0  0
  191.7900  177.2640  149.2960 F   0  0  0  0  0  0  0  0  0  0  0  0
  188.2010  177.5370  144.3550 C   0  0  0  0  0  2  0  0  0  0  0  0
  190.4760  174.9040  146.8300 C   0  0  0  0  0  3  0  0  0  0  0  0
  190.1270  171.2870  141.9730 C   0  0  0  0  0  0  0  0  0  0  0  0
  191.1280  175.4040  147.9600 C   0  0  0  0  0  3  0  0  0  0  0  0
  190.4420  169.9700  141.9680 F   0  0  0  0  0  0  0  0  0  0  0  0
  189.8300  175.7770  145.9420 C   0  0  0  0  0  0  0  0  0  0  0  0
  187.7600  175.5680  142.7030 C   0  0  1  0  0  3  0  0  0  0  0  0
  191.1500  176.7800  148.2050 C   0  0  0  0  0  0  0  0  0  0  0  0
  189.8480  177.1540  146.2000 C   0  0  0  0  0  0  0  0  0  0  0  0
  189.4950  174.0710  141.9250 C   0  0  0  0  0  0  0  0  0  0  0  0
  189.2020  175.2730  144.6970 C   0  0  0  0  0  0  0  0  0  0  0  0
  189.8610  171.8900  143.1390 C   0  0  0  0  0  3  0  0  0  0  0  0
  189.2020  178.0390  145.2920 N   0  0  0  0  0  2  0  0  0  0  0  0
  190.0020  172.0160  140.6580 C   0  0  0  0  0  2  0  0  0  0  0  0
  190.2960  173.5120  140.7950 C   0  0  0  0  0  2  0  0  0  0  0  0
  189.5140  173.3190  143.2020 C   0  0  0  0  0  0  0  0  0  0  0  0
  184.9660  178.2540  140.8340 C   0  0  0  0  0  3  0  0  0  0  0  0
  186.7820  176.5160  142.0690 C   0  0  0  0  0  0  0  0  0  0  0  0
  187.0180  176.9700  140.7660 C   0  0  0  0  0  3  0  0  0  0  0  0
  186.1130  177.8390  140.1500 C   0  0  0  0  0  3  0  0  0  0  0  0
  184.7230  177.8000  142.1330 C   0  0  0  0  0  3  0  0  0  0  0  0
  185.6280  176.9310  142.7500 C   0  0  0  0  0  3  0  0  0  0  0  0
  1 15  2  0  0  0  0
  1 12  1  0  0  0  0
  2  6  1  0  0  0  0
  2 16  2  0  0  0  0
  3 16  1  0  0  0  0
  4 13  1  0  0  0  0
  6 18  1  0  0  0  0
  7  9  1  0  0  0  0
  8 17  2  0  0  0  0
  9 13  2  0  0  0  0
 10  8  1  0  0  0  0
 11 14  1  0  0  0  0
 11  7  2  0  0  0  0
 12 23  1  6  0  0  0
 12  2  1  0  0  0  0
 13  5  1  0  0  0  0
 14  4  2  0  0  0  0
 15 21  1  0  0  0  0
 16 11  1  0  0  0  0
 17 21  1  0  0  0  0
 18 14  1  0  0  0  0
 19 20  1  0  0  0  0
 19  8  1  0  0  0  0
 20 15  1  0  0  0  0
 21  3  2  0  0  0  0
 22 26  1  0  0  0  0
 23 27  1  0  0  0  0
 24 23  2  0  0  0  0
 25 24  1  0  0  0  0
 25 22  2  0  0  0  0
 26 27  2  0  0  0  0
M  END
>  <MODEL>
9

>  <REMARK>
 VINA RESULT:      -7.6      2.108      5.968
  Name = 
  1 active torsions:
  status: ('A' for Active; 'I' for Inactive)
    1  A    between atoms: C_9  and  C_15
                            x       y       z     vdW  Elec       q    Type
                         _______ _______ _______ _____ _____    ______ ____

>  <TORSDO>
F 1

$$$$
