=
 OpenBabel11052418313D

 27 31  0  0  1  0  0  0  0  0999 V2000
  187.5270  176.1760  142.2190 N   0  0  0  0  0  2  0  0  0  0  0  0
  189.1600  176.5830  144.0880 C   0  0  0  0  0  0  0  0  0  0  0  0
  189.5400  174.3210  143.2370 N   0  0  0  0  0  2  0  0  0  0  0  0
  192.7610  176.5040  146.1770 C   0  0  0  0  0  3  0  0  0  0  0  0
  194.7280  175.3460  146.8650 F   0  0  0  0  0  0  0  0  0  0  0  0
  189.6210  177.6540  144.7970 N   0  0  0  0  0  0  0  0  0  0  0  0
  193.1550  174.2190  145.4730 C   0  0  0  0  0  3  0  0  0  0  0  0
  190.1320  172.2060  138.5020 Cl  0  0  0  0  0  0  0  0  0  0  0  0
  191.9500  174.2250  144.7650 C   0  0  0  0  0  3  0  0  0  0  0  0
  189.3570  173.3020  139.6260 C   0  0  0  0  0  0  0  0  0  0  0  0
  191.1400  175.3710  144.7620 C   0  0  0  0  0  0  0  0  0  0  0  0
  187.8320  176.6300  143.5210 N   0  0  0  0  0  0  0  0  0  0  0  0
  193.5590  175.3560  146.1790 C   0  0  0  0  0  0  0  0  0  0  0  0
  191.5550  176.5140  145.4700 C   0  0  0  0  0  0  0  0  0  0  0  0
  188.2480  175.2680  141.3750 C   0  0  0  0  0  0  0  0  0  0  0  0
  189.9350  175.4170  144.0500 C   0  0  0  0  0  0  0  0  0  0  0  0
  189.6130  173.1640  141.0990 C   0  0  0  0  0  2  0  0  0  0  0  0
  190.7810  177.6250  145.4570 N   0  0  0  0  0  0  0  0  0  0  0  0
  188.4690  174.1920  139.1790 C   0  0  0  0  0  3  0  0  0  0  0  0
  187.8180  175.1280  140.1150 C   0  0  0  0  0  3  0  0  0  0  0  0
  189.4910  174.5190  141.8050 C   0  0  2  0  0  3  0  0  0  0  0  0
  184.6740  178.5820  145.6010 C   0  0  0  0  0  3  0  0  0  0  0  0
  186.7740  177.2960  144.2440 C   0  0  0  0  0  0  0  0  0  0  0  0
  186.1670  176.6930  145.3590 C   0  0  0  0  0  3  0  0  0  0  0  0
  185.1250  177.3340  146.0350 C   0  0  0  0  0  3  0  0  0  0  0  0
  185.2610  179.1880  144.4880 C   0  0  0  0  0  3  0  0  0  0  0  0
  186.3020  178.5470  143.8110 C   0  0  0  0  0  3  0  0  0  0  0  0
  1 12  1  0  0  0  0
  2  6  1  0  0  0  0
  3 16  1  0  0  0  0
  4 13  1  0  0  0  0
  6 18  2  0  0  0  0
  7 13  2  0  0  0  0
  8 10  1  0  0  0  0
  9  7  1  0  0  0  0
 10 17  1  0  0  0  0
 11  9  2  0  0  0  0
 11 14  1  0  0  0  0
 12  2  1  0  0  0  0
 12 23  1  0  0  0  0
 13  5  1  0  0  0  0
 14  4  2  0  0  0  0
 15 21  1  0  0  0  0
 15  1  1  0  0  0  0
 16  2  2  0  0  0  0
 16 11  1  0  0  0  0
 18 14  1  0  0  0  0
 19 10  2  0  0  0  0
 19 20  1  0  0  0  0
 20 15  2  0  0  0  0
 21 17  1  6  0  0  0
 21  3  1  0  0  0  0
 22 25  1  0  0  0  0
 23 24  1  0  0  0  0
 24 25  2  0  0  0  0
 26 22  2  0  0  0  0
 27 23  2  0  0  0  0
 27 26  1  0  0  0  0
M  END
>  <MODEL>
1

>  <REMARK>
 VINA RESULT:      -7.9      0.000      0.000
  Name = 
  1 active torsions:
  status: ('A' for Active; 'I' for Inactive)
    1  A    between atoms: C_9  and  N_15
                            x       y       z     vdW  Elec       q    Type
                         _______ _______ _______ _____ _____    ______ ____

>  <TORSDO>
F 1

$$$$
=
 OpenBabel11052418313D

 27 31  0  0  1  0  0  0  0  0999 V2000
  189.5010  176.9960  145.2740 N   0  0  0  0  0  2  0  0  0  0  0  0
  188.6570  175.7340  143.2690 C   0  0  0  0  0  0  0  0  0  0  0  0
  191.0820  175.9660  143.0450 N   0  0  0  0  0  2  0  0  0  0  0  0
  188.5580  172.8660  140.2520 C   0  0  0  0  0  3  0  0  0  0  0  0
  189.6730  171.5790  138.5840 F   0  0  0  0  0  0  0  0  0  0  0  0
  187.5090  175.0960  142.9000 N   0  0  0  0  0  0  0  0  0  0  0  0
  190.9400  173.1220  139.8870 C   0  0  0  0  0  3  0  0  0  0  0  0
  195.1750  175.1680  146.1850 Cl  0  0  0  0  0  0  0  0  0  0  0  0
  190.9950  174.0870  140.8970 C   0  0  0  0  0  3  0  0  0  0  0  0
  193.5530  175.7440  145.8660 C   0  0  0  0  0  0  0  0  0  0  0  0
  189.8290  174.4510  141.5890 C   0  0  0  0  0  0  0  0  0  0  0  0
  188.5870  176.8270  144.2110 N   0  0  0  0  0  0  0  0  0  0  0  0
  189.7230  172.5140  139.5640 C   0  0  0  0  0  0  0  0  0  0  0  0
  188.6090  173.8310  141.2620 C   0  0  0  0  0  0  0  0  0  0  0  0
  190.8230  176.4640  145.4360 C   0  0  0  0  0  0  0  0  0  0  0  0
  189.8520  175.4010  142.6170 C   0  0  0  0  0  0  0  0  0  0  0  0
  193.0640  175.8510  144.4510 C   0  0  0  0  0  2  0  0  0  0  0  0
  187.4850  174.1710  141.9380 N   0  0  0  0  0  0  0  0  0  0  0  0
  192.7920  176.1750  146.8740 C   0  0  0  0  0  3  0  0  0  0  0  0
  191.4200  176.6520  146.6200 C   0  0  0  0  0  3  0  0  0  0  0  0
  191.5450  175.6550  144.3790 C   0  0  2  0  0  3  0  0  0  0  0  0
  185.2930  179.5210  144.1300 C   0  0  0  0  0  3  0  0  0  0  0  0
  187.4570  177.7250  144.1740 C   0  0  0  0  0  0  0  0  0  0  0  0
  187.0250  178.2970  142.9640 C   0  0  0  0  0  3  0  0  0  0  0  0
  185.9480  179.1870  142.9420 C   0  0  0  0  0  3  0  0  0  0  0  0
  185.7190  178.9690  145.3400 C   0  0  0  0  0  3  0  0  0  0  0  0
  186.7970  178.0800  145.3620 C   0  0  0  0  0  3  0  0  0  0  0  0
  1 15  1  0  0  0  0
  2 12  1  0  0  0  0
  3 21  1  0  0  0  0
  4 14  1  0  0  0  0
  5 13  1  0  0  0  0
  6  2  1  0  0  0  0
  7  9  2  0  0  0  0
  9 11  1  0  0  0  0
 10  8  1  0  0  0  0
 10 19  2  0  0  0  0
 11 16  1  0  0  0  0
 12  1  1  0  0  0  0
 13  7  1  0  0  0  0
 13  4  2  0  0  0  0
 14 11  2  0  0  0  0
 14 18  1  0  0  0  0
 15 20  2  0  0  0  0
 16  3  1  0  0  0  0
 16  2  2  0  0  0  0
 17 10  1  0  0  0  0
 18  6  2  0  0  0  0
 20 19  1  0  0  0  0
 21 17  1  6  0  0  0
 21 15  1  0  0  0  0
 22 26  1  0  0  0  0
 23 12  1  0  0  0  0
 23 27  1  0  0  0  0
 24 23  2  0  0  0  0
 25 24  1  0  0  0  0
 25 22  2  0  0  0  0
 26 27  2  0  0  0  0
M  END
>  <MODEL>
2

>  <REMARK>
 VINA RESULT:      -7.8      2.999      5.466
  Name = 
  1 active torsions:
  status: ('A' for Active; 'I' for Inactive)
    1  A    between atoms: C_9  and  N_15
                            x       y       z     vdW  Elec       q    Type
                         _______ _______ _______ _____ _____    ______ ____

>  <TORSDO>
F 1

$$$$
=
 OpenBabel11052418313D

 27 31  0  0  1  0  0  0  0  0999 V2000
  191.3360  174.3700  143.0670 N   0  0  0  0  0  2  0  0  0  0  0  0
  189.8400  175.4930  144.7470 C   0  0  0  0  0  0  0  0  0  0  0  0
  188.9570  175.9710  142.5160 N   0  0  0  0  0  2  0  0  0  0  0  0
  186.3170  176.8170  146.5290 C   0  0  0  0  0  3  0  0  0  0  0  0
  184.1400  177.7710  146.3490 F   0  0  0  0  0  0  0  0  0  0  0  0
  189.6340  175.4410  146.0950 N   0  0  0  0  0  0  0  0  0  0  0  0
  185.4150  177.4280  144.3650 C   0  0  0  0  0  3  0  0  0  0  0  0
  187.8950  173.1210  138.2750 Cl  0  0  0  0  0  0  0  0  0  0  0  0
  186.5890  176.9880  143.7470 C   0  0  0  0  0  3  0  0  0  0  0  0
  188.8990  173.5540  139.6420 C   0  0  0  0  0  0  0  0  0  0  0  0
  187.6380  176.4640  144.5180 C   0  0  0  0  0  0  0  0  0  0  0  0
  191.1440  175.1640  144.2180 N   0  0  0  0  0  0  0  0  0  0  0  0
  185.2790  177.3440  145.7540 C   0  0  0  0  0  0  0  0  0  0  0  0
  187.4930  176.3770  145.9150 C   0  0  0  0  0  0  0  0  0  0  0  0
  190.4270  174.0740  141.9970 C   0  0  0  0  0  0  0  0  0  0  0  0
  188.8210  175.9990  143.9300 C   0  0  0  0  0  0  0  0  0  0  0  0
  188.6200  174.8190  140.4010 C   0  0  0  0  0  2  0  0  0  0  0  0
  188.4990  175.8590  146.6590 N   0  0  0  0  0  0  0  0  0  0  0  0
  189.9660  172.8100  139.9440 C   0  0  0  0  0  3  0  0  0  0  0  0
  190.8120  173.1590  141.1000 C   0  0  0  0  0  3  0  0  0  0  0  0
  189.0470  174.6820  141.8670 C   0  0  2  0  0  3  0  0  0  0  0  0
  194.6640  176.2220  146.3620 C   0  0  0  0  0  3  0  0  0  0  0  0
  192.3250  175.5340  144.9610 C   0  0  0  0  0  0  0  0  0  0  0  0
  192.8030  176.8570  144.9520 C   0  0  0  0  0  3  0  0  0  0  0  0
  193.9630  177.1990  145.6520 C   0  0  0  0  0  3  0  0  0  0  0  0
  194.2080  174.9020  146.3700 C   0  0  0  0  0  3  0  0  0  0  0  0
  193.0470  174.5600  145.6700 C   0  0  0  0  0  3  0  0  0  0  0  0
  1 12  1  0  0  0  0
  2  6  1  0  0  0  0
  3 16  1  0  0  0  0
  6 18  2  0  0  0  0
  7 13  1  0  0  0  0
  8 10  1  0  0  0  0
  9  7  2  0  0  0  0
  9 11  1  0  0  0  0
 10 19  2  0  0  0  0
 10 17  1  0  0  0  0
 11 14  2  0  0  0  0
 12  2  1  0  0  0  0
 12 23  1  0  0  0  0
 13  5  1  0  0  0  0
 13  4  2  0  0  0  0
 14  4  1  0  0  0  0
 14 18  1  0  0  0  0
 15  1  1  0  0  0  0
 16 11  1  0  0  0  0
 16  2  2  0  0  0  0
 19 20  1  0  0  0  0
 20 15  2  0  0  0  0
 21 17  1  6  0  0  0
 21 15  1  0  0  0  0
 21  3  1  0  0  0  0
 22 26  1  0  0  0  0
 23 27  1  0  0  0  0
 24 23  2  0  0  0  0
 24 25  1  0  0  0  0
 25 22  2  0  0  0  0
 27 26  2  0  0  0  0
M  END
>  <MODEL>
3

>  <REMARK>
 VINA RESULT:      -7.7      2.505      5.751
  Name = 
  1 active torsions:
  status: ('A' for Active; 'I' for Inactive)
    1  A    between atoms: C_9  and  N_15
                            x       y       z     vdW  Elec       q    Type
                         _______ _______ _______ _____ _____    ______ ____

>  <TORSDO>
F 1

$$$$
=
 OpenBabel11052418313D

 27 31  0  0  1  0  0  0  0  0999 V2000
  191.0390  175.2410  144.1380 N   0  0  0  0  0  2  0  0  0  0  0  0
  188.7980  175.9190  143.2210 C   0  0  0  0  0  0  0  0  0  0  0  0
  188.6500  175.9450  145.6620 N   0  0  0  0  0  2  0  0  0  0  0  0
  185.2200  178.0230  142.8870 C   0  0  0  0  0  3  0  0  0  0  0  0
  183.3170  179.0400  143.9000 F   0  0  0  0  0  0  0  0  0  0  0  0
  188.2880  176.3150  142.0180 N   0  0  0  0  0  0  0  0  0  0  0  0
  184.9390  177.9880  145.2940 C   0  0  0  0  0  3  0  0  0  0  0  0
  191.5660  177.9080  149.5200 Cl  0  0  0  0  0  0  0  0  0  0  0  0
  186.1380  177.2820  145.4280 C   0  0  0  0  0  3  0  0  0  0  0  0
  191.3700  177.0810  147.9900 C   0  0  0  0  0  0  0  0  0  0  0  0
  186.8840  176.9380  144.2900 C   0  0  0  0  0  0  0  0  0  0  0  0
  189.9580  175.0590  143.2470 N   0  0  0  0  0  0  0  0  0  0  0  0
  184.4790  178.3570  144.0260 C   0  0  0  0  0  0  0  0  0  0  0  0
  186.4190  177.3160  143.0170 C   0  0  0  0  0  0  0  0  0  0  0  0
  191.0890  175.9540  145.3810 C   0  0  0  0  0  0  0  0  0  0  0  0
  188.0970  176.2460  144.3890 C   0  0  0  0  0  0  0  0  0  0  0  0
  190.0100  176.6070  147.5670 C   0  0  0  0  0  2  0  0  0  0  0  0
  187.1450  176.9970  141.9190 N   0  0  0  0  0  0  0  0  0  0  0  0
  192.4430  176.7910  147.2500 C   0  0  0  0  0  3  0  0  0  0  0  0
  192.2900  176.1050  145.9540 C   0  0  0  0  0  3  0  0  0  0  0  0
  189.8850  176.5950  146.0390 C   0  0  2  0  0  3  0  0  0  0  0  0
  190.4670  172.0430  140.2890 C   0  0  0  0  0  3  0  0  0  0  0  0
  190.1120  174.0420  142.2340 C   0  0  0  0  0  0  0  0  0  0  0  0
  189.2830  172.9070  142.2140 C   0  0  0  0  0  3  0  0  0  0  0  0
  189.4580  171.9150  141.2450 C   0  0  0  0  0  3  0  0  0  0  0  0
  191.3050  173.1600  140.3030 C   0  0  0  0  0  3  0  0  0  0  0  0
  191.1310  174.1520  141.2730 C   0  0  0  0  0  3  0  0  0  0  0  0
  1 15  1  0  0  0  0
  2 12  1  0  0  0  0
  2 16  1  0  0  0  0
  3 21  1  0  0  0  0
  4 14  1  0  0  0  0
  4 13  2  0  0  0  0
  5 13  1  0  0  0  0
  6  2  2  0  0  0  0
  7  9  2  0  0  0  0
 10  8  1  0  0  0  0
 11 16  2  0  0  0  0
 11  9  1  0  0  0  0
 12  1  1  0  0  0  0
 13  7  1  0  0  0  0
 14 11  1  0  0  0  0
 15 20  2  0  0  0  0
 15 21  1  0  0  0  0
 16  3  1  0  0  0  0
 17 10  1  0  0  0  0
 18  6  1  0  0  0  0
 18 14  2  0  0  0  0
 19 10  2  0  0  0  0
 20 19  1  0  0  0  0
 21 17  1  1  0  0  0
 22 26  2  0  0  0  0
 22 25  1  0  0  0  0
 23 12  1  0  0  0  0
 24 23  1  0  0  0  0
 25 24  2  0  0  0  0
 26 27  1  0  0  0  0
 27 23  2  0  0  0  0
M  END
>  <MODEL>
4

>  <REMARK>
 VINA RESULT:      -7.7      3.736      7.295
  Name = 
  1 active torsions:
  status: ('A' for Active; 'I' for Inactive)
    1  A    between atoms: C_9  and  N_15
                            x       y       z     vdW  Elec       q    Type
                         _______ _______ _______ _____ _____    ______ ____

>  <TORSDO>
F 1

$$$$
=
 OpenBabel11052418313D

 27 31  0  0  1  0  0  0  0  0999 V2000
  186.8580  176.8770  142.3010 N   0  0  0  0  0  2  0  0  0  0  0  0
  188.6000  176.6540  144.1020 C   0  0  0  0  0  0  0  0  0  0  0  0
  188.6840  174.6370  142.7200 N   0  0  0  0  0  2  0  0  0  0  0  0
  192.2480  175.7090  145.8720 C   0  0  0  0  0  3  0  0  0  0  0  0
  194.0950  174.2260  146.1380 F   0  0  0  0  0  0  0  0  0  0  0  0
  189.2080  177.4700  145.0110 N   0  0  0  0  0  0  0  0  0  0  0  0
  192.3500  173.6330  144.6270 C   0  0  0  0  0  3  0  0  0  0  0  0
  188.8430  173.6760  137.5920 Cl  0  0  0  0  0  0  0  0  0  0  0  0
  191.1260  173.9310  144.0210 C   0  0  0  0  0  3  0  0  0  0  0  0
  188.2440  174.5410  138.9910 C   0  0  0  0  0  0  0  0  0  0  0  0
  190.4530  175.1200  144.3400 C   0  0  0  0  0  0  0  0  0  0  0  0
  187.2640  176.9710  143.6510 N   0  0  0  0  0  0  0  0  0  0  0  0
  192.9090  174.5190  145.5520 C   0  0  0  0  0  0  0  0  0  0  0  0
  191.0240  176.0110  145.2690 C   0  0  0  0  0  0  0  0  0  0  0  0
  187.4370  176.1300  141.2220 C   0  0  0  0  0  0  0  0  0  0  0  0
  189.2340  175.4590  143.7400 C   0  0  0  0  0  0  0  0  0  0  0  0
  188.5400  174.0270  140.3700 C   0  0  0  0  0  2  0  0  0  0  0  0
  190.3820  177.1650  145.5680 N   0  0  0  0  0  0  0  0  0  0  0  0
  187.4460  175.5980  138.8250 C   0  0  0  0  0  3  0  0  0  0  0  0
  186.9440  176.3420  139.9950 C   0  0  0  0  0  3  0  0  0  0  0  0
  188.6020  175.1770  141.3810 C   0  0  2  0  0  3  0  0  0  0  0  0
  184.4330  178.6680  146.3360 C   0  0  0  0  0  3  0  0  0  0  0  0
  186.3190  177.5470  144.5780 C   0  0  0  0  0  0  0  0  0  0  0  0
  185.7910  176.7900  145.6380 C   0  0  0  0  0  3  0  0  0  0  0  0
  184.8570  177.3490  146.5140 C   0  0  0  0  0  3  0  0  0  0  0  0
  184.9410  179.4270  145.2790 C   0  0  0  0  0  3  0  0  0  0  0  0
  185.8750  178.8680  144.4030 C   0  0  0  0  0  3  0  0  0  0  0  0
  1 12  1  0  0  0  0
  2  6  1  0  0  0  0
  3 16  1  0  0  0  0
  6 18  2  0  0  0  0
  7 13  2  0  0  0  0
  8 10  1  0  0  0  0
  9 11  2  0  0  0  0
  9  7  1  0  0  0  0
 10 17  1  0  0  0  0
 11 14  1  0  0  0  0
 12  2  1  0  0  0  0
 12 23  1  0  0  0  0
 13  4  1  0  0  0  0
 13  5  1  0  0  0  0
 14 18  1  0  0  0  0
 14  4  2  0  0  0  0
 15 21  1  0  0  0  0
 15  1  1  0  0  0  0
 16  2  2  0  0  0  0
 16 11  1  0  0  0  0
 19 10  2  0  0  0  0
 19 20  1  0  0  0  0
 20 15  2  0  0  0  0
 21 17  1  6  0  0  0
 21  3  1  0  0  0  0
 22 25  1  0  0  0  0
 23 24  1  0  0  0  0
 24 25  2  0  0  0  0
 26 22  2  0  0  0  0
 27 23  2  0  0  0  0
 27 26  1  0  0  0  0
M  END
>  <MODEL>
5

>  <REMARK>
 VINA RESULT:      -7.6      0.972      1.130
  Name = 
  1 active torsions:
  status: ('A' for Active; 'I' for Inactive)
    1  A    between atoms: C_9  and  N_15
                            x       y       z     vdW  Elec       q    Type
                         _______ _______ _______ _____ _____    ______ ____

>  <TORSDO>
F 1

$$$$
=
 OpenBabel11052418313D

 27 31  0  0  1  0  0  0  0  0999 V2000
  188.1840  175.2990  140.9760 N   0  0  0  0  0  2  0  0  0  0  0  0
  188.5270  176.4030  143.2090 C   0  0  0  0  0  0  0  0  0  0  0  0
  189.0580  174.0280  143.4560 N   0  0  0  0  0  2  0  0  0  0  0  0
  190.3080  177.2790  146.8700 C   0  0  0  0  0  3  0  0  0  0  0  0
  191.4070  176.5610  148.8590 F   0  0  0  0  0  0  0  0  0  0  0  0
  188.6310  177.6760  143.6900 N   0  0  0  0  0  0  0  0  0  0  0  0
  190.7650  174.9290  147.2450 C   0  0  0  0  0  3  0  0  0  0  0  0
  191.9520  170.5940  140.7960 Cl  0  0  0  0  0  0  0  0  0  0  0  0
  190.1720  174.6140  146.0190 C   0  0  0  0  0  3  0  0  0  0  0  0
  190.8110  171.9180  140.8900 C   0  0  0  0  0  0  0  0  0  0  0  0
  189.6380  175.6300  145.2120 C   0  0  0  0  0  0  0  0  0  0  0  0
  187.7580  176.1610  142.0100 N   0  0  0  0  0  0  0  0  0  0  0  0
  190.8310  176.2590  147.6700 C   0  0  0  0  0  0  0  0  0  0  0  0
  189.7130  176.9680  145.6440 C   0  0  0  0  0  0  0  0  0  0  0  0
  189.1450  174.2340  141.0100 C   0  0  0  0  0  0  0  0  0  0  0  0
  189.0520  175.3510  143.9710 C   0  0  0  0  0  0  0  0  0  0  0  0
  190.1830  172.2700  142.2070 C   0  0  0  0  0  2  0  0  0  0  0  0
  189.2100  177.9510  144.8600 N   0  0  0  0  0  0  0  0  0  0  0  0
  190.4320  172.5480  139.7750 C   0  0  0  0  0  3  0  0  0  0  0  0
  189.4810  173.6720  139.8420 C   0  0  0  0  0  3  0  0  0  0  0  0
  189.8410  173.7630  142.2700 C   0  0  2  0  0  3  0  0  0  0  0  0
  184.2060  178.3790  141.2540 C   0  0  0  0  0  3  0  0  0  0  0  0
  186.5610  176.9300  141.7660 C   0  0  0  0  0  0  0  0  0  0  0  0
  185.5980  177.1120  142.7750 C   0  0  0  0  0  3  0  0  0  0  0  0
  184.4300  177.8360  142.5200 C   0  0  0  0  0  3  0  0  0  0  0  0
  185.1490  178.1960  140.2390 C   0  0  0  0  0  3  0  0  0  0  0  0
  186.3170  177.4730  140.4930 C   0  0  0  0  0  3  0  0  0  0  0  0
  1 15  1  0  0  0  0
  1 12  1  0  0  0  0
  2  6  2  0  0  0  0
  2 16  1  0  0  0  0
  3 16  1  0  0  0  0
  4 13  2  0  0  0  0
  6 18  1  0  0  0  0
  7 13  1  0  0  0  0
  8 10  1  0  0  0  0
  9  7  2  0  0  0  0
 10 17  1  0  0  0  0
 11 14  1  0  0  0  0
 11  9  1  0  0  0  0
 12  2  1  0  0  0  0
 13  5  1  0  0  0  0
 14  4  1  0  0  0  0
 15 21  1  0  0  0  0
 16 11  2  0  0  0  0
 18 14  2  0  0  0  0
 19 20  1  0  0  0  0
 19 10  2  0  0  0  0
 20 15  2  0  0  0  0
 21 17  1  6  0  0  0
 21  3  1  0  0  0  0
 22 25  1  0  0  0  0
 23 12  1  0  0  0  0
 23 24  1  0  0  0  0
 25 24  2  0  0  0  0
 26 27  1  0  0  0  0
 26 22  2  0  0  0  0
 27 23  2  0  0  0  0
M  END
>  <MODEL>
6

>  <REMARK>
 VINA RESULT:      -7.6      2.125      2.568
  Name = 
  1 active torsions:
  status: ('A' for Active; 'I' for Inactive)
    1  A    between atoms: C_9  and  N_15
                            x       y       z     vdW  Elec       q    Type
                         _______ _______ _______ _____ _____    ______ ____

>  <TORSDO>
F 1

$$$$
=
 OpenBabel11052418313D

 27 31  0  0  1  0  0  0  0  0999 V2000
  189.6010  174.4990  144.4470 N   0  0  0  0  0  2  0  0  0  0  0  0
  187.8110  176.1760  145.0040 C   0  0  0  0  0  0  0  0  0  0  0  0
  188.0760  176.1400  142.5730 N   0  0  0  0  0  2  0  0  0  0  0  0
  184.2350  178.2840  144.6780 C   0  0  0  0  0  3  0  0  0  0  0  0
  182.5950  179.3790  143.3400 F   0  0  0  0  0  0  0  0  0  0  0  0
  187.0490  176.5020  146.0880 N   0  0  0  0  0  0  0  0  0  0  0  0
  184.4840  178.3940  142.2700 C   0  0  0  0  0  3  0  0  0  0  0  0
  188.3270  172.4000  138.9390 Cl  0  0  0  0  0  0  0  0  0  0  0  0
  185.6860  177.6870  142.3580 C   0  0  0  0  0  3  0  0  0  0  0  0
  188.7270  173.0710  140.5070 C   0  0  0  0  0  0  0  0  0  0  0  0
  186.1740  177.2770  143.6090 C   0  0  0  0  0  0  0  0  0  0  0  0
  189.1140  175.5850  145.2080 N   0  0  0  0  0  0  0  0  0  0  0  0
  183.7600  178.6940  143.4280 C   0  0  0  0  0  0  0  0  0  0  0  0
  185.4380  177.5770  144.7700 C   0  0  0  0  0  0  0  0  0  0  0  0
  189.1890  174.0290  143.1560 C   0  0  0  0  0  0  0  0  0  0  0  0
  187.3660  176.5530  143.7310 C   0  0  0  0  0  0  0  0  0  0  0  0
  188.4280  174.5130  140.7990 C   0  0  0  0  0  2  0  0  0  0  0  0
  185.9000  177.1700  145.9760 N   0  0  0  0  0  0  0  0  0  0  0  0
  189.3810  172.3250  141.4000 C   0  0  0  0  0  3  0  0  0  0  0  0
  189.7130  172.8750  142.7270 C   0  0  0  0  0  3  0  0  0  0  0  0
  188.1560  174.7230  142.2930 C   0  0  2  0  0  3  0  0  0  0  0  0
  191.4360  176.8450  148.5440 C   0  0  0  0  0  3  0  0  0  0  0  0
  189.9200  176.0110  146.3270 C   0  0  0  0  0  0  0  0  0  0  0  0
  190.7490  175.1030  147.0110 C   0  0  0  0  0  3  0  0  0  0  0  0
  191.5050  175.5200  148.1100 C   0  0  0  0  0  3  0  0  0  0  0  0
  190.6080  177.7550  147.8810 C   0  0  0  0  0  3  0  0  0  0  0  0
  189.8520  177.3380  146.7820 C   0  0  0  0  0  3  0  0  0  0  0  0
  1 12  1  0  0  0  0
  2 12  1  0  0  0  0
  2  6  1  0  0  0  0
  3 16  1  0  0  0  0
  4 14  1  0  0  0  0
  5 13  1  0  0  0  0
  7  9  2  0  0  0  0
  7 13  1  0  0  0  0
  8 10  1  0  0  0  0
  9 11  1  0  0  0  0
 10 17  1  0  0  0  0
 10 19  2  0  0  0  0
 11 16  1  0  0  0  0
 11 14  2  0  0  0  0
 12 23  1  0  0  0  0
 13  4  2  0  0  0  0
 14 18  1  0  0  0  0
 15  1  1  0  0  0  0
 16  2  2  0  0  0  0
 18  6  2  0  0  0  0
 19 20  1  0  0  0  0
 20 15  2  0  0  0  0
 21 17  1  6  0  0  0
 21  3  1  0  0  0  0
 21 15  1  0  0  0  0
 23 27  2  0  0  0  0
 23 24  1  0  0  0  0
 24 25  2  0  0  0  0
 25 22  1  0  0  0  0
 26 22  2  0  0  0  0
 27 26  1  0  0  0  0
M  END
>  <MODEL>
7

>  <REMARK>
 VINA RESULT:      -7.5      3.153      5.834
  Name = 
  1 active torsions:
  status: ('A' for Active; 'I' for Inactive)
    1  A    between atoms: C_9  and  N_15
                            x       y       z     vdW  Elec       q    Type
                         _______ _______ _______ _____ _____    ______ ____

>  <TORSDO>
F 1

$$$$
=
 OpenBabel11052418313D

 27 31  0  0  1  0  0  0  0  0999 V2000
  191.0090  175.0990  142.2010 N   0  0  0  0  0  2  0  0  0  0  0  0
  188.6000  175.6440  142.6770 C   0  0  0  0  0  0  0  0  0  0  0  0
  189.7470  175.3720  144.8210 N   0  0  0  0  0  2  0  0  0  0  0  0
  185.3170  177.3930  144.5470 C   0  0  0  0  0  3  0  0  0  0  0  0
  184.1940  178.0850  146.5320 F   0  0  0  0  0  0  0  0  0  0  0  0
  187.5270  176.1220  141.9820 N   0  0  0  0  0  0  0  0  0  0  0  0
  186.3330  177.0520  146.7200 C   0  0  0  0  0  3  0  0  0  0  0  0
  194.1910  177.1660  146.8870 Cl  0  0  0  0  0  0  0  0  0  0  0  0
  187.4450  176.4620  146.1120 C   0  0  0  0  0  3  0  0  0  0  0  0
  193.2490  176.5060  145.5680 C   0  0  0  0  0  0  0  0  0  0  0  0
  187.4980  176.3300  144.7150 C   0  0  0  0  0  0  0  0  0  0  0  0
  189.6280  174.9100  141.9740 N   0  0  0  0  0  0  0  0  0  0  0  0
  185.2700  177.5150  145.9390 C   0  0  0  0  0  0  0  0  0  0  0  0
  186.4260  176.8030  143.9350 C   0  0  0  0  0  0  0  0  0  0  0  0
  191.6810  175.6650  143.3350 C   0  0  0  0  0  0  0  0  0  0  0  0
  188.6030  175.7600  144.0730 C   0  0  0  0  0  0  0  0  0  0  0  0
  191.8820  175.9460  145.8350 C   0  0  0  0  0  2  0  0  0  0  0  0
  186.4820  176.6890  142.5860 N   0  0  0  0  0  0  0  0  0  0  0  0
  193.7860  176.4150  144.3490 C   0  0  0  0  0  3  0  0  0  0  0  0
  192.9990  175.8710  143.2280 C   0  0  0  0  0  3  0  0  0  0  0  0
  190.9790  176.0980  144.6050 C   0  0  2  0  0  3  0  0  0  0  0  0
  188.5830  172.3730  138.7210 C   0  0  0  0  0  3  0  0  0  0  0  0
  189.2590  174.0390  140.8840 C   0  0  0  0  0  0  0  0  0  0  0  0
  189.6530  172.6900  140.8690 C   0  0  0  0  0  3  0  0  0  0  0  0
  189.3130  171.8610  139.7960 C   0  0  0  0  0  3  0  0  0  0  0  0
  188.1950  173.7150  138.7170 C   0  0  0  0  0  3  0  0  0  0  0  0
  188.5350  174.5430  139.7900 C   0  0  0  0  0  3  0  0  0  0  0  0
  1 15  1  0  0  0  0
  2 16  1  0  0  0  0
  4 13  2  0  0  0  0
  6 18  1  0  0  0  0
  6  2  2  0  0  0  0
  9  7  2  0  0  0  0
 10 17  1  0  0  0  0
 10  8  1  0  0  0  0
 11  9  1  0  0  0  0
 12  1  1  0  0  0  0
 12  2  1  0  0  0  0
 13  5  1  0  0  0  0
 13  7  1  0  0  0  0
 14  4  1  0  0  0  0
 14 11  1  0  0  0  0
 15 21  1  0  0  0  0
 16 11  2  0  0  0  0
 16  3  1  0  0  0  0
 18 14  2  0  0  0  0
 19 10  2  0  0  0  0
 20 15  2  0  0  0  0
 20 19  1  0  0  0  0
 21  3  1  0  0  0  0
 21 17  1  1  0  0  0
 22 25  1  0  0  0  0
 23 12  1  0  0  0  0
 24 23  1  0  0  0  0
 25 24  2  0  0  0  0
 26 22  2  0  0  0  0
 26 27  1  0  0  0  0
 27 23  2  0  0  0  0
M  END
>  <MODEL>
8

>  <REMARK>
 VINA RESULT:      -7.3      3.212      6.543
  Name = 
  1 active torsions:
  status: ('A' for Active; 'I' for Inactive)
    1  A    between atoms: C_9  and  N_15
                            x       y       z     vdW  Elec       q    Type
                         _______ _______ _______ _____ _____    ______ ____

>  <TORSDO>
F 1

$$$$
=
 OpenBabel11052418313D

 27 31  0  0  1  0  0  0  0  0999 V2000
  189.5120  176.5090  144.9810 N   0  0  0  0  0  2  0  0  0  0  0  0
  188.9070  175.2410  142.8950 C   0  0  0  0  0  0  0  0  0  0  0  0
  191.3140  175.6760  142.8390 N   0  0  0  0  0  2  0  0  0  0  0  0
  189.2410  172.4620  139.8120 C   0  0  0  0  0  3  0  0  0  0  0  0
  190.5650  171.3190  138.1930 F   0  0  0  0  0  0  0  0  0  0  0  0
  187.8420  174.5220  142.4360 N   0  0  0  0  0  0  0  0  0  0  0  0
  191.6120  172.9220  139.6130 C   0  0  0  0  0  3  0  0  0  0  0  0
  195.2470  175.1230  146.2260 Cl  0  0  0  0  0  0  0  0  0  0  0  0
  191.5210  173.8580  140.6470 C   0  0  0  0  0  3  0  0  0  0  0  0
  193.6060  175.5740  145.8130 C   0  0  0  0  0  0  0  0  0  0  0  0
  190.2870  174.1060  141.2670 C   0  0  0  0  0  0  0  0  0  0  0  0
  188.6850  176.2970  143.8560 N   0  0  0  0  0  0  0  0  0  0  0  0
  190.4740  172.2260  139.1950 C   0  0  0  0  0  0  0  0  0  0  0  0
  189.1460  173.3990  140.8450 C   0  0  0  0  0  0  0  0  0  0  0  0
  190.8600  176.0820  145.2190 C   0  0  0  0  0  0  0  0  0  0  0  0
  190.1640  175.0250  142.3170 C   0  0  0  0  0  0  0  0  0  0  0  0
  193.2030  175.6820  144.3710 C   0  0  0  0  0  2  0  0  0  0  0  0
  187.9570  173.6270  141.4530 N   0  0  0  0  0  0  0  0  0  0  0  0
  192.7490  175.9130  146.7780 C   0  0  0  0  0  3  0  0  0  0  0  0
  191.3610  176.2830  146.4440 C   0  0  0  0  0  3  0  0  0  0  0  0
  191.7140  175.3650  144.1940 C   0  0  2  0  0  3  0  0  0  0  0  0
  185.1440  178.6350  143.5300 C   0  0  0  0  0  3  0  0  0  0  0  0
  187.4890  177.1010  143.7640 C   0  0  0  0  0  0  0  0  0  0  0  0
  186.4040  176.8860  144.6320 C   0  0  0  0  0  3  0  0  0  0  0  0
  185.2400  177.6520  144.5170 C   0  0  0  0  0  3  0  0  0  0  0  0
  186.2110  178.8510  142.6540 C   0  0  0  0  0  3  0  0  0  0  0  0
  187.3750  178.0850  142.7690 C   0  0  0  0  0  3  0  0  0  0  0  0
  1 15  1  0  0  0  0
  2 12  1  0  0  0  0
  3 21  1  0  0  0  0
  4 14  1  0  0  0  0
  5 13  1  0  0  0  0
  6  2  1  0  0  0  0
  7  9  2  0  0  0  0
  9 11  1  0  0  0  0
 10  8  1  0  0  0  0
 10 19  2  0  0  0  0
 11 16  1  0  0  0  0
 12  1  1  0  0  0  0
 13  7  1  0  0  0  0
 13  4  2  0  0  0  0
 14 11  2  0  0  0  0
 14 18  1  0  0  0  0
 15 20  2  0  0  0  0
 16  3  1  0  0  0  0
 16  2  2  0  0  0  0
 17 10  1  0  0  0  0
 18  6  2  0  0  0  0
 20 19  1  0  0  0  0
 21 17  1  6  0  0  0
 21 15  1  0  0  0  0
 22 25  1  0  0  0  0
 23 12  1  0  0  0  0
 23 24  1  0  0  0  0
 25 24  2  0  0  0  0
 26 27  1  0  0  0  0
 26 22  2  0  0  0  0
 27 23  2  0  0  0  0
M  END
>  <MODEL>
9

>  <REMARK>
 VINA RESULT:      -7.3      3.057      5.455
  Name = 
  1 active torsions:
  status: ('A' for Active; 'I' for Inactive)
    1  A    between atoms: C_9  and  N_15
                            x       y       z     vdW  Elec       q    Type
                         _______ _______ _______ _____ _____    ______ ____

>  <TORSDO>
F 1

$$$$
