=
 OpenBabel11052417253D

 25 29  0  0  1  0  0  0  0  0999 V2000
  187.2200  178.0290  144.5010 C   0  0  0  0  0  0  0  0  0  0  0  0
  188.5490  177.3620  144.4480 C   0  0  0  0  0  0  0  0  0  0  0  0
  187.0810  177.8330  142.0100 C   0  0  0  0  0  3  0  0  0  0  0  0
  186.4780  178.1500  145.6140 C   0  0  0  0  0  0  0  0  0  0  0  0
  184.6010  178.6040  146.7870 C   0  0  0  0  0  3  0  0  0  0  0  0
  188.1660  177.0520  142.0330 C   0  0  0  0  0  3  0  0  0  0  0  0
  184.4930  179.0530  144.3280 C   0  0  0  0  0  3  0  0  0  0  0  0
  185.1420  178.6810  145.5860 C   0  0  0  0  0  0  0  0  0  0  0  0
  190.3540  176.2240  143.1430 C   0  0  2  0  0  3  0  0  0  0  0  0
  190.3420  175.0640  142.1620 C   0  0  0  0  0  1  0  0  0  0  0  0
  189.3670  177.1810  145.7020 C   0  0  0  0  0  2  0  0  0  0  0  0
  185.6200  178.0130  147.6730 C   0  0  0  0  0  3  0  0  0  0  0  0
  186.6940  178.6440  143.2090 C   0  0  0  0  0  0  0  0  0  0  0  0
  185.2170  178.9960  143.2030 C   0  0  0  0  0  3  0  0  0  0  0  0
  190.8470  175.7430  144.4330 N   0  0  0  0  0  2  0  0  0  0  0  0
  186.7260  177.7280  146.9840 C   0  0  0  0  0  2  0  0  0  0  0  0
  190.8170  176.8500  145.3800 C   0  0  2  0  0  3  0  0  0  0  0  0
  188.9830  176.8710  143.2610 C   0  0  0  0  0  0  0  0  0  0  0  0
  191.5430  176.4640  146.6570 C   0  0  0  0  0  2  0  0  0  0  0  0
  192.6980  175.6300  146.3510 N   0  0  0  0  0  2  0  0  0  0  0  0
  194.0430  176.1100  146.4400 C   0  0  0  0  0  0  0  0  0  0  0  0
  194.2770  177.2760  146.8580 O   0  0  0  0  0  0  0  0  0  0  0  0
  195.1760  175.2080  146.0770 C   0  0  2  0  0  3  0  0  0  0  0  0
  195.5600  175.4390  144.6740 N   0  0  0  0  0  2  0  0  0  0  0  0
  194.7590  174.2650  145.0420 C   0  0  0  0  0  2  0  0  0  0  0  0
  1  4  1  0  0  0  0
  2  1  1  0  0  0  0
  2 11  1  0  0  0  0
  3  6  2  0  0  0  0
  3 13  1  0  0  0  0
  4 16  1  0  0  0  0
  5 12  2  0  0  0  0
  6 18  1  0  0  0  0
  7  8  1  0  0  0  0
  8  4  2  0  0  0  0
  8  5  1  0  0  0  0
  9 10  1  6  0  0  0
  9 18  1  0  0  0  0
  9 15  1  0  0  0  0
 13  1  2  0  0  0  0
 14 13  1  0  0  0  0
 14  7  2  0  0  0  0
 15 17  1  0  0  0  0
 16 12  1  0  0  0  0
 17 11  1  0  0  0  0
 17 19  1  1  0  0  0
 18  2  2  0  0  0  0
 20 21  1  0  0  0  0
 20 19  1  0  0  0  0
 21 22  2  0  0  0  0
 23 21  1  6  0  0  0
 24 25  1  0  0  0  0
 24 23  1  0  0  0  0
 25 23  1  0  0  0  0
M  END
>  <MODEL>
1

>  <REMARK>
 VINA RESULT:      -8.4      0.000      0.000
  Name = 
  3 active torsions:
  status: ('A' for Active; 'I' for Inactive)
    1  A    between atoms: C_2  and  C_21
    2  A    between atoms: C_6  and  N_15
    3  A    between atoms: C_6  and  C_23
                            x       y       z     vdW  Elec       q    Type
                         _______ _______ _______ _____ _____    ______ ____

>  <TORSDO>
F 3

$$$$
=
 OpenBabel11052417253D

 25 29  0  0  1  0  0  0  0  0999 V2000
  187.1460  177.6640  144.3470 C   0  0  0  0  0  0  0  0  0  0  0  0
  188.1730  176.6560  143.9690 C   0  0  0  0  0  0  0  0  0  0  0  0
  186.6870  178.0290  141.9140 C   0  0  0  0  0  3  0  0  0  0  0  0
  186.6070  177.7730  145.5710 C   0  0  0  0  0  0  0  0  0  0  0  0
  185.1160  178.5200  147.0960 C   0  0  0  0  0  3  0  0  0  0  0  0
  187.4540  176.9710  141.6330 C   0  0  0  0  0  3  0  0  0  0  0  0
  184.8980  179.4700  144.7920 C   0  0  0  0  0  3  0  0  0  0  0  0
  185.5210  178.6740  145.8500 C   0  0  0  0  0  0  0  0  0  0  0  0
  189.3600  175.3200  142.2190 C   0  0  2  0  0  3  0  0  0  0  0  0
  188.8670  174.4400  141.0820 C   0  0  0  0  0  1  0  0  0  0  0  0
  189.0170  175.9870  145.0260 C   0  0  0  0  0  2  0  0  0  0  0  0
  185.9760  177.4850  147.6960 C   0  0  0  0  0  3  0  0  0  0  0  0
  186.7140  178.6580  143.2730 C   0  0  0  0  0  0  0  0  0  0  0  0
  185.4400  179.4300  143.5680 C   0  0  0  0  0  3  0  0  0  0  0  0
  189.8040  174.4610  143.3170 N   0  0  0  0  0  2  0  0  0  0  0  0
  186.8490  177.0270  146.7970 C   0  0  0  0  0  2  0  0  0  0  0  0
  190.2370  175.3100  144.4190 C   0  0  2  0  0  3  0  0  0  0  0  0
  188.2940  176.3090  142.6640 C   0  0  0  0  0  0  0  0  0  0  0  0
  190.9300  174.4730  145.4810 C   0  0  0  0  0  2  0  0  0  0  0  0
  192.3450  174.8120  145.5500 N   0  0  0  0  0  2  0  0  0  0  0  0
  192.8630  175.7870  146.4590 C   0  0  0  0  0  0  0  0  0  0  0  0
  192.1020  176.3490  147.2920 O   0  0  0  0  0  0  0  0  0  0  0  0
  194.3210  176.1080  146.4490 C   0  0  2  0  0  3  0  0  0  0  0  0
  194.5450  177.3600  145.7060 N   0  0  0  0  0  2  0  0  0  0  0  0
  194.8380  176.0630  145.0840 C   0  0  0  0  0  2  0  0  0  0  0  0
  1  4  1  0  0  0  0
  2  1  1  0  0  0  0
  2 11  1  0  0  0  0
  3 13  1  0  0  0  0
  4  8  2  0  0  0  0
  4 16  1  0  0  0  0
  5 12  2  0  0  0  0
  6  3  2  0  0  0  0
  6 18  1  0  0  0  0
  7  8  1  0  0  0  0
  8  5  1  0  0  0  0
  9 10  1  6  0  0  0
  9 18  1  0  0  0  0
  9 15  1  0  0  0  0
 13 14  1  0  0  0  0
 13  1  2  0  0  0  0
 14  7  2  0  0  0  0
 15 17  1  0  0  0  0
 16 12  1  0  0  0  0
 17 11  1  0  0  0  0
 17 19  1  1  0  0  0
 18  2  2  0  0  0  0
 19 20  1  0  0  0  0
 20 21  1  0  0  0  0
 21 22  2  0  0  0  0
 23 21  1  6  0  0  0
 24 23  1  0  0  0  0
 25 24  1  0  0  0  0
 25 23  1  0  0  0  0
M  END
>  <MODEL>
2

>  <REMARK>
 VINA RESULT:      -8.3      1.277      1.368
  Name = 
  3 active torsions:
  status: ('A' for Active; 'I' for Inactive)
    1  A    between atoms: C_2  and  C_21
    2  A    between atoms: C_6  and  N_15
    3  A    between atoms: C_6  and  C_23
                            x       y       z     vdW  Elec       q    Type
                         _______ _______ _______ _____ _____    ______ ____

>  <TORSDO>
F 3

$$$$
=
 OpenBabel11052417253D

 25 29  0  0  1  0  0  0  0  0999 V2000
  186.5430  178.1200  144.4660 C   0  0  0  0  0  0  0  0  0  0  0  0
  187.7000  177.5750  143.7050 C   0  0  0  0  0  0  0  0  0  0  0  0
  185.0870  177.6510  142.4860 C   0  0  0  0  0  3  0  0  0  0  0  0
  186.5270  178.2900  145.7980 C   0  0  0  0  0  0  0  0  0  0  0  0
  185.5610  178.6920  147.8010 C   0  0  0  0  0  3  0  0  0  0  0  0
  186.0990  176.9780  141.9290 C   0  0  0  0  0  3  0  0  0  0  0  0
  184.0620  178.8680  145.8070 C   0  0  0  0  0  3  0  0  0  0  0  0
  185.3380  178.6910  146.5010 C   0  0  0  0  0  0  0  0  0  0  0  0
  188.6240  176.4750  141.6580 C   0  0  2  0  0  3  0  0  0  0  0  0
  188.2310  175.2210  140.8950 C   0  0  0  0  0  1  0  0  0  0  0  0
  189.0880  177.6020  144.2950 C   0  0  0  0  0  2  0  0  0  0  0  0
  186.9680  178.2940  147.9900 C   0  0  0  0  0  3  0  0  0  0  0  0
  185.3170  178.5450  143.6660 C   0  0  0  0  0  0  0  0  0  0  0  0
  184.0480  178.7590  144.4720 C   0  0  0  0  0  3  0  0  0  0  0  0
  189.8040  176.1790  142.4700 N   0  0  0  0  0  2  0  0  0  0  0  0
  187.5400  178.0390  146.8110 C   0  0  0  0  0  2  0  0  0  0  0  0
  190.1510  177.3730  143.2310 C   0  0  2  0  0  3  0  0  0  0  0  0
  187.4710  177.0030  142.4970 C   0  0  0  0  0  0  0  0  0  0  0  0
  191.5030  177.1910  143.8980 C   0  0  0  0  0  2  0  0  0  0  0  0
  191.3340  176.8580  145.3060 N   0  0  0  0  0  2  0  0  0  0  0  0
  191.8330  175.6460  145.8790 C   0  0  0  0  0  0  0  0  0  0  0  0
  192.5070  174.8410  145.1810 O   0  0  0  0  0  0  0  0  0  0  0  0
  191.5900  175.3560  147.3240 C   0  0  2  0  0  3  0  0  0  0  0  0
  190.1470  175.1800  147.5550 N   0  0  0  0  0  2  0  0  0  0  0  0
  190.8140  176.4330  147.9320 C   0  0  0  0  0  2  0  0  0  0  0  0
  1  4  1  0  0  0  0
  2 11  1  0  0  0  0
  2  1  1  0  0  0  0
  3 13  1  0  0  0  0
  4  8  2  0  0  0  0
  4 16  1  0  0  0  0
  5 12  2  0  0  0  0
  6  3  2  0  0  0  0
  6 18  1  0  0  0  0
  7  8  1  0  0  0  0
  8  5  1  0  0  0  0
  9 10  1  1  0  0  0
  9 15  1  0  0  0  0
  9 18  1  0  0  0  0
 13  1  2  0  0  0  0
 13 14  1  0  0  0  0
 14  7  2  0  0  0  0
 15 17  1  0  0  0  0
 16 12  1  0  0  0  0
 17 19  1  1  0  0  0
 17 11  1  0  0  0  0
 18  2  2  0  0  0  0
 19 20  1  0  0  0  0
 20 21  1  0  0  0  0
 22 21  2  0  0  0  0
 23 21  1  6  0  0  0
 23 24  1  0  0  0  0
 23 25  1  0  0  0  0
 24 25  1  0  0  0  0
M  END
>  <MODEL>
3

>  <REMARK>
 VINA RESULT:      -8.1      1.891      2.538
  Name = 
  3 active torsions:
  status: ('A' for Active; 'I' for Inactive)
    1  A    between atoms: C_2  and  C_21
    2  A    between atoms: C_6  and  N_15
    3  A    between atoms: C_6  and  C_23
                            x       y       z     vdW  Elec       q    Type
                         _______ _______ _______ _____ _____    ______ ____

>  <TORSDO>
F 3

$$$$
=
 OpenBabel11052417253D

 25 29  0  0  1  0  0  0  0  0999 V2000
  185.7920  177.5360  143.5610 C   0  0  0  0  0  0  0  0  0  0  0  0
  186.4280  177.3560  144.8940 C   0  0  0  0  0  0  0  0  0  0  0  0
  184.1060  179.0460  144.6290 C   0  0  0  0  0  3  0  0  0  0  0  0
  186.3860  177.2420  142.3940 C   0  0  0  0  0  0  0  0  0  0  0  0
  186.6070  177.2570  140.1450 C   0  0  0  0  0  3  0  0  0  0  0  0
  184.8320  179.0270  145.7510 C   0  0  0  0  0  3  0  0  0  0  0  0
  184.5160  178.2900  141.0480 C   0  0  0  0  0  3  0  0  0  0  0  0
  185.7820  177.5620  141.1280 C   0  0  0  0  0  0  0  0  0  0  0  0
  186.5590  177.9170  147.3280 C   0  0  2  0  0  3  0  0  0  0  0  0
  186.6310  179.2360  148.0800 C   0  0  0  0  0  1  0  0  0  0  0  0
  187.5920  176.4130  145.0680 C   0  0  0  0  0  2  0  0  0  0  0  0
  187.8160  176.6880  140.7670 C   0  0  0  0  0  3  0  0  0  0  0  0
  184.3580  178.0540  143.5350 C   0  0  0  0  0  0  0  0  0  0  0  0
  183.8660  178.5560  142.1880 C   0  0  0  0  0  3  0  0  0  0  0  0
  187.8960  177.3250  147.2910 N   0  0  0  0  0  2  0  0  0  0  0  0
  187.7000  176.6900  142.0960 C   0  0  0  0  0  2  0  0  0  0  0  0
  187.8280  176.0820  146.5340 C   0  0  2  0  0  3  0  0  0  0  0  0
  185.9770  178.0980  145.9350 C   0  0  0  0  0  0  0  0  0  0  0  0
  189.1310  175.3140  146.6750 C   0  0  0  0  0  2  0  0  0  0  0  0
  190.0210  175.6140  145.5610 N   0  0  0  0  0  2  0  0  0  0  0  0
  191.2150  176.3880  145.7120 C   0  0  0  0  0  0  0  0  0  0  0  0
  191.5760  176.7860  146.8520 O   0  0  0  0  0  0  0  0  0  0  0  0
  192.0600  176.6850  144.5170 C   0  0  2  0  0  3  0  0  0  0  0  0
  191.5850  177.9220  143.8740 N   0  0  0  0  0  2  0  0  0  0  0  0
  191.2560  176.6110  143.3000 C   0  0  0  0  0  2  0  0  0  0  0  0
  1  2  2  0  0  0  0
  2 11  1  0  0  0  0
  2 18  1  0  0  0  0
  3  6  1  0  0  0  0
  4  1  1  0  0  0  0
  5 12  2  0  0  0  0
  5  8  1  0  0  0  0
  6 18  2  0  0  0  0
  7  8  1  0  0  0  0
  7 14  2  0  0  0  0
  8  4  2  0  0  0  0
  9 10  1  6  0  0  0
 11 17  1  0  0  0  0
 12 16  1  0  0  0  0
 13  1  1  0  0  0  0
 13  3  2  0  0  0  0
 14 13  1  0  0  0  0
 15  9  1  0  0  0  0
 16  4  1  0  0  0  0
 17 19  1  6  0  0  0
 17 15  1  0  0  0  0
 18  9  1  0  0  0  0
 20 21  1  0  0  0  0
 20 19  1  0  0  0  0
 21 22  2  0  0  0  0
 23 21  1  1  0  0  0
 24 23  1  0  0  0  0
 25 24  1  0  0  0  0
 25 23  1  0  0  0  0
M  END
>  <MODEL>
4

>  <REMARK>
 VINA RESULT:      -7.8      2.017      4.377
  Name = 
  3 active torsions:
  status: ('A' for Active; 'I' for Inactive)
    1  A    between atoms: C_2  and  C_21
    2  A    between atoms: C_6  and  N_15
    3  A    between atoms: C_6  and  C_23
                            x       y       z     vdW  Elec       q    Type
                         _______ _______ _______ _____ _____    ______ ____

>  <TORSDO>
F 3

$$$$
=
 OpenBabel11052417253D

 25 29  0  0  1  0  0  0  0  0999 V2000
  186.7540  177.9600  144.4790 C   0  0  0  0  0  0  0  0  0  0  0  0
  188.0420  177.2990  144.1330 C   0  0  0  0  0  0  0  0  0  0  0  0
  185.9810  177.5620  142.1320 C   0  0  0  0  0  3  0  0  0  0  0  0
  186.3230  178.1660  145.7340 C   0  0  0  0  0  0  0  0  0  0  0  0
  184.8010  178.7020  147.3160 C   0  0  0  0  0  3  0  0  0  0  0  0
  187.0550  176.7920  141.9320 C   0  0  0  0  0  3  0  0  0  0  0  0
  184.0490  178.9500  144.9440 C   0  0  0  0  0  3  0  0  0  0  0  0
  185.0110  178.6850  146.0130 C   0  0  0  0  0  0  0  0  0  0  0  0
  189.4770  176.0700  142.4950 C   0  0  2  0  0  3  0  0  0  0  0  0
  189.2430  174.8340  141.6430 C   0  0  0  0  0  1  0  0  0  0  0  0
  189.1610  177.2250  145.1420 C   0  0  0  0  0  2  0  0  0  0  0  0
  186.0300  178.1920  147.9500 C   0  0  0  0  0  3  0  0  0  0  0  0
  185.8950  178.4650  143.3250 C   0  0  0  0  0  0  0  0  0  0  0  0
  184.4580  178.8070  143.6760 C   0  0  0  0  0  3  0  0  0  0  0  0
  190.3000  175.6980  143.6450 N   0  0  0  0  0  2  0  0  0  0  0  0
  186.9280  177.8580  147.0210 C   0  0  0  0  0  2  0  0  0  0  0  0
  190.4860  176.8780  144.4790 C   0  0  2  0  0  3  0  0  0  0  0  0
  188.1670  176.7160  142.9160 C   0  0  0  0  0  0  0  0  0  0  0  0
  191.5280  176.6000  145.5490 C   0  0  0  0  0  2  0  0  0  0  0  0
  191.9010  175.1920  145.5420 N   0  0  0  0  0  2  0  0  0  0  0  0
  193.2520  174.7490  145.7040 C   0  0  0  0  0  0  0  0  0  0  0  0
  194.1720  175.5810  145.9300 O   0  0  0  0  0  0  0  0  0  0  0  0
  193.5630  173.2900  145.6500 C   0  0  2  0  0  3  0  0  0  0  0  0
  194.1970  172.9690  144.3600 N   0  0  0  0  0  2  0  0  0  0  0  0
  192.7840  172.6460  144.5970 C   0  0  0  0  0  2  0  0  0  0  0  0
  1  4  1  0  0  0  0
  2  1  1  0  0  0  0
  2 11  1  0  0  0  0
  3 13  1  0  0  0  0
  4  8  2  0  0  0  0
  4 16  1  0  0  0  0
  5 12  2  0  0  0  0
  6  3  2  0  0  0  0
  6 18  1  0  0  0  0
  7  8  1  0  0  0  0
  8  5  1  0  0  0  0
  9 10  1  1  0  0  0
  9 18  1  0  0  0  0
  9 15  1  0  0  0  0
 13 14  1  0  0  0  0
 13  1  2  0  0  0  0
 14  7  2  0  0  0  0
 15 17  1  0  0  0  0
 16 12  1  0  0  0  0
 17 11  1  0  0  0  0
 17 19  1  1  0  0  0
 18  2  2  0  0  0  0
 20 19  1  0  0  0  0
 20 21  1  0  0  0  0
 21 22  2  0  0  0  0
 23 21  1  6  0  0  0
 24 25  1  0  0  0  0
 24 23  1  0  0  0  0
 25 23  1  0  0  0  0
M  END
>  <MODEL>
5

>  <REMARK>
 VINA RESULT:      -7.8      1.228      1.307
  Name = 
  3 active torsions:
  status: ('A' for Active; 'I' for Inactive)
    1  A    between atoms: C_2  and  C_21
    2  A    between atoms: C_6  and  N_15
    3  A    between atoms: C_6  and  C_23
                            x       y       z     vdW  Elec       q    Type
                         _______ _______ _______ _____ _____    ______ ____

>  <TORSDO>
F 3

$$$$
=
 OpenBabel11052417253D

 25 29  0  0  1  0  0  0  0  0999 V2000
  186.1640  177.3590  144.7230 C   0  0  0  0  0  0  0  0  0  0  0  0
  187.4760  176.7650  145.0960 C   0  0  0  0  0  0  0  0  0  0  0  0
  185.9810  178.2820  147.0420 C   0  0  0  0  0  3  0  0  0  0  0  0
  185.7450  177.5330  143.4590 C   0  0  0  0  0  0  0  0  0  0  0  0
  184.3960  178.3510  141.8410 C   0  0  0  0  0  3  0  0  0  0  0  0
  187.2490  177.9190  147.2620 C   0  0  0  0  0  3  0  0  0  0  0  0
  183.7180  178.8590  144.1940 C   0  0  0  0  0  3  0  0  0  0  0  0
  184.5290  178.2350  143.1490 C   0  0  2  0  0  3  0  0  0  0  0  0
  189.3170  176.4450  146.7590 C   0  0  2  0  0  3  0  0  0  0  0  0
  190.1380  177.4180  147.5890 C   0  0  0  0  0  1  0  0  0  0  0  0
  188.2340  175.9020  144.1190 C   0  0  0  0  0  2  0  0  0  0  0  0
  185.5620  177.6820  141.2360 C   0  0  0  0  0  3  0  0  0  0  0  0
  185.2270  177.7560  145.8580 C   0  0  0  0  0  0  0  0  0  0  0  0
  184.0740  178.6640  145.4710 C   0  0  0  0  0  3  0  0  0  0  0  0
  190.1270  175.9940  145.6280 N   0  0  0  0  0  2  0  0  0  0  0  0
  186.3720  177.2100  142.1860 C   0  0  0  0  0  3  0  0  0  0  0  0
  189.3200  175.0940  144.8140 C   0  0  2  0  0  3  0  0  0  0  0  0
  188.0020  177.0630  146.3100 C   0  0  0  0  0  0  0  0  0  0  0  0
  190.1900  174.4140  143.7710 C   0  0  0  0  0  2  0  0  0  0  0  0
  189.4710  174.2940  142.5100 N   0  0  0  0  0  2  0  0  0  0  0  0
  188.8910  173.0640  142.0660 C   0  0  0  0  0  0  0  0  0  0  0  0
  188.9290  172.0390  142.8000 O   0  0  0  0  0  0  0  0  0  0  0  0
  188.1980  173.0070  140.7440 C   0  0  2  0  0  3  0  0  0  0  0  0
  189.1960  172.8640  139.6710 N   0  0  0  0  0  2  0  0  0  0  0  0
  188.5640  174.1640  139.9320 C   0  0  0  0  0  2  0  0  0  0  0  0
  1  2  2  0  0  0  0
  1 13  1  0  0  0  0
  2 18  1  0  0  0  0
  3  6  1  0  0  0  0
  4  1  1  0  0  0  0
  7 14  2  0  0  0  0
  8  5  1  6  0  0  0
  8  4  1  0  0  0  0
  8  7  1  0  0  0  0
  9 10  1  6  0  0  0
 11 17  1  0  0  0  0
 11  2  1  0  0  0  0
 12  5  2  0  0  0  0
 12 16  1  0  0  0  0
 13  3  2  0  0  0  0
 14 13  1  0  0  0  0
 15  9  1  0  0  0  0
 16  4  2  0  0  0  0
 17 19  1  6  0  0  0
 17 15  1  0  0  0  0
 18  9  1  0  0  0  0
 18  6  2  0  0  0  0
 20 19  1  0  0  0  0
 21 20  1  0  0  0  0
 21 22  2  0  0  0  0
 23 21  1  1  0  0  0
 24 25  1  0  0  0  0
 24 23  1  0  0  0  0
 25 23  1  0  0  0  0
M  END
>  <MODEL>
6

>  <REMARK>
 VINA RESULT:      -7.8      2.966      5.052
  Name = 
  3 active torsions:
  status: ('A' for Active; 'I' for Inactive)
    1  A    between atoms: C_2  and  C_21
    2  A    between atoms: C_6  and  N_15
    3  A    between atoms: C_6  and  C_23
                            x       y       z     vdW  Elec       q    Type
                         _______ _______ _______ _____ _____    ______ ____

>  <TORSDO>
F 3

$$$$
=
 OpenBabel11052417253D

 25 29  0  0  1  0  0  0  0  0999 V2000
  187.0650  177.5850  144.3810 C   0  0  0  0  0  0  0  0  0  0  0  0
  187.9900  176.4900  143.9830 C   0  0  0  0  0  0  0  0  0  0  0  0
  186.6010  178.0030  141.9570 C   0  0  0  0  0  3  0  0  0  0  0  0
  186.5580  177.7360  145.6150 C   0  0  0  0  0  0  0  0  0  0  0  0
  185.1640  178.6060  147.1660 C   0  0  0  0  0  3  0  0  0  0  0  0
  187.2660  176.8820  141.6600 C   0  0  0  0  0  3  0  0  0  0  0  0
  184.9960  179.5840  144.8700 C   0  0  0  0  0  3  0  0  0  0  0  0
  185.5620  178.7290  145.9140 C   0  0  0  0  0  0  0  0  0  0  0  0
  189.0240  175.0620  142.2090 C   0  0  2  0  0  3  0  0  0  0  0  0
  188.4360  174.2360  141.0770 C   0  0  0  0  0  1  0  0  0  0  0  0
  188.7870  175.7430  145.0230 C   0  0  0  0  0  2  0  0  0  0  0  0
  185.9370  177.4950  147.7490 C   0  0  0  0  0  3  0  0  0  0  0  0
  186.7070  178.6190  143.3180 C   0  0  0  0  0  0  0  0  0  0  0  0
  185.5130  179.5010  143.6370 C   0  0  0  0  0  3  0  0  0  0  0  0
  189.4070  174.1620  143.2960 N   0  0  0  0  0  2  0  0  0  0  0  0
  186.7510  176.9650  146.8340 C   0  0  0  0  0  2  0  0  0  0  0  0
  189.9320  174.9620  144.3940 C   0  0  2  0  0  3  0  0  0  0  0  0
  188.0590  176.1410  142.6750 C   0  0  0  0  0  0  0  0  0  0  0  0
  190.5640  174.0610  145.4410 C   0  0  0  0  0  2  0  0  0  0  0  0
  191.9790  173.8670  145.1560 N   0  0  0  0  0  2  0  0  0  0  0  0
  192.5000  172.6430  144.6300 C   0  0  0  0  0  0  0  0  0  0  0  0
  191.7240  171.6970  144.3270 O   0  0  0  0  0  0  0  0  0  0  0  0
  193.9690  172.5040  144.3970 C   0  0  2  0  0  3  0  0  0  0  0  0
  194.6020  171.9040  145.5830 N   0  0  0  0  0  2  0  0  0  0  0  0
  194.7100  173.3460  145.3310 C   0  0  0  0  0  2  0  0  0  0  0  0
  1  4  1  0  0  0  0
  2  1  1  0  0  0  0
  2 11  1  0  0  0  0
  3 13  1  0  0  0  0
  4  8  2  0  0  0  0
  4 16  1  0  0  0  0
  5 12  2  0  0  0  0
  6  3  2  0  0  0  0
  6 18  1  0  0  0  0
  7  8  1  0  0  0  0
  8  5  1  0  0  0  0
  9 10  1  6  0  0  0
  9 18  1  0  0  0  0
  9 15  1  0  0  0  0
 13 14  1  0  0  0  0
 13  1  2  0  0  0  0
 14  7  2  0  0  0  0
 15 17  1  0  0  0  0
 16 12  1  0  0  0  0
 17 11  1  0  0  0  0
 17 19  1  1  0  0  0
 18  2  2  0  0  0  0
 20 19  1  0  0  0  0
 21 20  1  0  0  0  0
 22 21  2  0  0  0  0
 23 21  1  1  0  0  0
 23 25  1  0  0  0  0
 23 24  1  0  0  0  0
 25 24  1  0  0  0  0
M  END
>  <MODEL>
7

>  <REMARK>
 VINA RESULT:      -7.6      2.120      2.307
  Name = 
  3 active torsions:
  status: ('A' for Active; 'I' for Inactive)
    1  A    between atoms: C_2  and  C_21
    2  A    between atoms: C_6  and  N_15
    3  A    between atoms: C_6  and  C_23
                            x       y       z     vdW  Elec       q    Type
                         _______ _______ _______ _____ _____    ______ ____

>  <TORSDO>
F 3

$$$$
=
 OpenBabel11052417253D

 25 29  0  0  1  0  0  0  0  0999 V2000
  188.2060  176.0890  144.4540 C   0  0  0  0  0  0  0  0  0  0  0  0
  186.9790  176.9210  144.3310 C   0  0  0  0  0  0  0  0  0  0  0  0
  188.3340  176.7300  146.8690 C   0  0  0  0  0  3  0  0  0  0  0  0
  188.5740  175.1480  143.5690 C   0  0  0  0  0  0  0  0  0  0  0  0
  189.7850  173.3880  142.8340 C   0  0  0  0  0  3  0  0  0  0  0  0
  187.1220  177.2830  146.7640 C   0  0  0  0  0  3  0  0  0  0  0  0
  190.4530  174.3270  145.0530 C   0  0  0  0  0  3  0  0  0  0  0  0
  189.6950  174.2780  143.8030 C   0  0  2  0  0  3  0  0  0  0  0  0
  185.2250  178.3660  145.3750 C   0  0  2  0  0  3  0  0  0  0  0  0
  184.3170  178.1790  146.5790 C   0  0  0  0  0  1  0  0  0  0  0  0
  186.3030  177.0980  142.9940 C   0  0  0  0  0  2  0  0  0  0  0  0
  188.6900  173.6770  141.8900 C   0  0  0  0  0  3  0  0  0  0  0  0
  189.1170  176.3580  145.6470 C   0  0  0  0  0  0  0  0  0  0  0  0
  190.1510  175.2850  145.9390 C   0  0  0  0  0  3  0  0  0  0  0  0
  184.4460  178.1290  144.1590 N   0  0  0  0  0  2  0  0  0  0  0  0
  187.9600  174.7060  142.3260 C   0  0  0  0  0  3  0  0  0  0  0  0
  185.3310  178.2700  143.0110 C   0  0  2  0  0  3  0  0  0  0  0  0
  186.4490  177.4680  145.4520 C   0  0  0  0  0  0  0  0  0  0  0  0
  184.5210  178.2730  141.7260 C   0  0  0  0  0  2  0  0  0  0  0  0
  183.0990  178.3810  142.0220 N   0  0  0  0  0  2  0  0  0  0  0  0
  182.0840  178.0960  141.0550 C   0  0  0  0  0  0  0  0  0  0  0  0
  182.3960  177.6680  139.9110 O   0  0  0  0  0  0  0  0  0  0  0  0
  180.6460  178.2630  141.4210 C   0  0  2  0  0  3  0  0  0  0  0  0
  179.8420  178.4190  140.1970 N   0  0  0  0  0  2  0  0  0  0  0  0
  180.1750  179.5870  141.0220 C   0  0  0  0  0  2  0  0  0  0  0  0
  1 13  1  0  0  0  0
  2  1  2  0  0  0  0
  2 18  1  0  0  0  0
  4  8  1  0  0  0  0
  4  1  1  0  0  0  0
  6  3  1  0  0  0  0
  7 14  2  0  0  0  0
  8  5  1  1  0  0  0
  8  7  1  0  0  0  0
  9 18  1  0  0  0  0
  9 10  1  1  0  0  0
 11 17  1  0  0  0  0
 11  2  1  0  0  0  0
 12 16  1  0  0  0  0
 12  5  2  0  0  0  0
 13 14  1  0  0  0  0
 13  3  2  0  0  0  0
 15  9  1  0  0  0  0
 16  4  2  0  0  0  0
 17 19  1  6  0  0  0
 17 15  1  0  0  0  0
 18  6  2  0  0  0  0
 19 20  1  0  0  0  0
 21 20  1  0  0  0  0
 22 21  2  0  0  0  0
 23 21  1  6  0  0  0
 24 25  1  0  0  0  0
 24 23  1  0  0  0  0
 25 23  1  0  0  0  0
M  END
>  <MODEL>
8

>  <REMARK>
 VINA RESULT:      -7.6      4.769      8.839
  Name = 
  3 active torsions:
  status: ('A' for Active; 'I' for Inactive)
    1  A    between atoms: C_2  and  C_21
    2  A    between atoms: C_6  and  N_15
    3  A    between atoms: C_6  and  C_23
                            x       y       z     vdW  Elec       q    Type
                         _______ _______ _______ _____ _____    ______ ____

>  <TORSDO>
F 3

$$$$
=
 OpenBabel11052417253D

 25 29  0  0  1  0  0  0  0  0999 V2000
  187.0250  177.3470  145.2940 C   0  0  0  0  0  0  0  0  0  0  0  0
  188.0010  176.7590  144.3380 C   0  0  0  0  0  0  0  0  0  0  0  0
  188.8620  177.5120  146.9860 C   0  0  0  0  0  3  0  0  0  0  0  0
  185.8390  177.8660  144.9400 C   0  0  0  0  0  0  0  0  0  0  0  0
  183.9360  179.0410  145.2670 C   0  0  0  0  0  3  0  0  0  0  0  0
  189.7400  177.1860  146.0310 C   0  0  0  0  0  3  0  0  0  0  0  0
  185.4120  178.7670  147.2670 C   0  0  0  0  0  3  0  0  0  0  0  0
  184.9910  178.5450  145.8840 C   0  0  0  0  0  0  0  0  0  0  0  0
  190.3400  176.0770  143.7700 C   0  0  2  0  0  3  0  0  0  0  0  0
  191.6710  176.8060  143.8330 C   0  0  0  0  0  1  0  0  0  0  0  0
  187.5530  176.2840  142.9780 C   0  0  0  0  0  2  0  0  0  0  0  0
  184.0610  178.6660  143.8470 C   0  0  0  0  0  3  0  0  0  0  0  0
  187.3920  177.3180  146.7740 C   0  0  1  0  0  3  0  0  0  0  0  0
  186.5650  178.2200  147.6730 C   0  0  0  0  0  3  0  0  0  0  0  0
  189.8880  176.0440  142.3800 N   0  0  0  0  0  2  0  0  0  0  0  0
  185.1900  177.9860  143.6430 C   0  0  0  0  0  3  0  0  0  0  0  0
  188.5920  175.3800  142.3320 C   0  0  2  0  0  3  0  0  0  0  0  0
  189.3090  176.7110  144.6910 C   0  0  0  0  0  0  0  0  0  0  0  0
  188.1990  175.1080  140.8900 C   0  0  0  0  0  2  0  0  0  0  0  0
  188.7870  173.8570  140.4300 N   0  0  0  0  0  2  0  0  0  0  0  0
  188.7100  173.4210  139.0700 C   0  0  0  0  0  0  0  0  0  0  0  0
  188.1760  174.1540  138.1950 O   0  0  0  0  0  0  0  0  0  0  0  0
  189.3060  172.1080  138.6790 C   0  0  2  0  0  3  0  0  0  0  0  0
  190.7180  172.2990  138.3070 N   0  0  0  0  0  2  0  0  0  0  0  0
  189.6910  172.1290  137.2710 C   0  0  0  0  0  2  0  0  0  0  0  0
  1 13  1  0  0  0  0
  2 18  2  0  0  0  0
  2  1  1  0  0  0  0
  4  1  2  0  0  0  0
  4  8  1  0  0  0  0
  5  8  2  0  0  0  0
  6  3  2  0  0  0  0
  7 14  2  0  0  0  0
  8  7  1  0  0  0  0
  9 10  1  6  0  0  0
  9 18  1  0  0  0  0
 11  2  1  0  0  0  0
 12  5  1  0  0  0  0
 13  3  1  6  0  0  0
 13 14  1  0  0  0  0
 15  9  1  0  0  0  0
 16 12  2  0  0  0  0
 16  4  1  0  0  0  0
 17 19  1  6  0  0  0
 17 15  1  0  0  0  0
 17 11  1  0  0  0  0
 18  6  1  0  0  0  0
 20 19  1  0  0  0  0
 21 20  1  0  0  0  0
 22 21  2  0  0  0  0
 23 21  1  6  0  0  0
 24 23  1  0  0  0  0
 25 24  1  0  0  0  0
 25 23  1  0  0  0  0
M  END
>  <MODEL>
9

>  <REMARK>
 VINA RESULT:      -7.5      3.432      5.473
  Name = 
  3 active torsions:
  status: ('A' for Active; 'I' for Inactive)
    1  A    between atoms: C_2  and  C_21
    2  A    between atoms: C_6  and  N_15
    3  A    between atoms: C_6  and  C_23
                            x       y       z     vdW  Elec       q    Type
                         _______ _______ _______ _____ _____    ______ ____

>  <TORSDO>
F 3

$$$$
