=
 OpenBabel11052417223D

 30 30  0  0  1  0  0  0  0  0999 V2000
  191.3640  175.3670  144.4320 C   0  0  0  0  0  0  0  0  0  0  0  0
  192.6610  176.7590  147.4030 C   0  0  0  0  0  2  0  0  0  0  0  0
  191.2420  176.4310  147.8660 C   0  0  1  0  0  3  0  0  0  0  0  0
  192.3020  176.3600  144.7090 O   0  0  0  0  0  0  0  0  0  0  0  0
  191.7340  174.1900  144.1740 O   0  0  0  0  0  0  0  0  0  0  0  0
  193.2630  175.6780  146.7270 O   0  0  0  0  0  0  0  0  0  0  0  0
  193.5130  176.0490  145.3860 C   0  0  2  0  0  3  0  0  0  0  0  0
  189.9070  175.6660  144.5760 C   0  0  1  0  0  3  0  0  0  0  0  0
  190.1850  176.8410  146.8310 C   0  0  1  0  0  3  0  0  0  0  0  0
  191.1220  175.0960  148.2660 O   0  0  0  0  0  1  0  0  0  0  0  0
  194.5230  177.1840  145.2610 C   0  0  0  0  0  1  0  0  0  0  0  0
  189.5420  175.6770  146.0660 C   0  0  0  0  0  2  0  0  0  0  0  0
  189.4970  176.9540  143.8430 C   0  0  1  0  0  3  0  0  0  0  0  0
  190.4710  177.2650  142.7100 C   0  0  0  0  0  1  0  0  0  0  0  0
  188.0490  176.8790  143.3340 C   0  0  1  0  0  3  0  0  0  0  0  0
  187.2760  178.1790  143.5560 C   0  0  0  0  0  2  0  0  0  0  0  0
  186.4850  178.6020  142.3300 C   0  0  0  0  0  2  0  0  0  0  0  0
  184.5770  177.7010  142.7030 O   0  0  0  0  0  1  0  0  0  0  0  0
  185.1680  178.8760  142.6970 O   0  0  0  0  0  0  0  0  0  0  0  0
  187.9740  176.4530  141.9990 O   0  0  0  0  0  0  0  0  0  0  0  0
  187.3990  175.2260  142.0530 N   0  0  0  0  0  2  0  0  0  0  0  0
  189.3300  174.1180  141.3550 O   0  0  0  0  0  0  0  0  0  0  0  0
  187.5320  172.8000  141.8860 O   0  0  0  0  0  1  0  0  0  0  0  0
  188.1360  174.0430  141.7510 C   0  0  0  0  0  0  0  0  0  0  0  0
  189.1330  177.7780  147.4300 C   0  0  0  0  0  2  0  0  0  0  0  0
  186.7040  178.2210  147.3250 C   0  0  0  0  0  3  0  0  0  0  0  0
  187.7280  177.4080  147.0550 C   0  0  0  0  0  3  0  0  0  0  0  0
  185.2890  177.8700  146.9690 C   0  0  0  0  0  3  0  0  0  0  0  0
  185.2270  176.5650  146.1960 C   0  0  0  0  0  1  0  0  0  0  0  0
  184.6310  178.9820  146.1730 C   0  0  0  0  0  1  0  0  0  0  0  0
  1  8  1  0  0  0  0
  1  4  1  0  0  0  0
  2  3  1  0  0  0  0
  3 10  1  6  0  0  0
  4  7  1  0  0  0  0
  5  1  2  0  0  0  0
  6  2  1  0  0  0  0
  7 11  1  1  0  0  0
  7  6  1  0  0  0  0
  8 13  1  1  0  0  0
  8 12  1  0  0  0  0
  9 25  1  1  0  0  0
  9  3  1  0  0  0  0
 12  9  1  0  0  0  0
 13 14  1  6  0  0  0
 15 16  1  6  0  0  0
 15 13  1  0  0  0  0
 17 19  1  0  0  0  0
 17 16  1  0  0  0  0
 19 18  1  0  0  0  0
 20 21  1  0  0  0  0
 20 15  1  0  0  0  0
 22 24  2  0  0  0  0
 24 23  1  0  0  0  0
 24 21  1  0  0  0  0
 27 26  2  0  0  0  0
 27 25  1  0  0  0  0
 28 26  1  0  0  0  0
 29 28  1  0  0  0  0
 30 28  1  0  0  0  0
M  END
>  <MODEL>
1

>  <REMARK>
 VINA RESULT:      -6.3      0.000      0.000
  Name = 
  10 active torsions:
  status: ('A' for Active; 'I' for Inactive)
    1  A    between atoms: C_1  and  C_4
    2  A    between atoms: C_1  and  C_22
    3  A    between atoms: C_4  and  C_9
    4  A    between atoms: C_4  and  O_12
    5  A    between atoms: C_7  and  C_23
    6  A    between atoms: C_7  and  C_25
    7  A    between atoms: N_8  and  O_12
    8  A    between atoms: C_9  and  C_21
    9  A    between atoms: C_10  and  C_15
   10  A    between atoms: O_17  and  C_21
                            x       y       z     vdW  Elec       q    Type
                         _______ _______ _______ _____ _____    ______ ____

>  <TORSDO>
F 10

$$$$
=
 OpenBabel11052417223D

 30 30  0  0  1  0  0  0  0  0999 V2000
  191.2180  176.1030  146.4180 C   0  0  0  0  0  0  0  0  0  0  0  0
  192.5380  175.3400  143.2360 C   0  0  0  0  0  2  0  0  0  0  0  0
  191.7680  176.6160  142.9000 C   0  0  1  0  0  3  0  0  0  0  0  0
  191.5260  174.9160  145.7540 O   0  0  0  0  0  0  0  0  0  0  0  0
  192.0300  176.6070  147.2380 O   0  0  0  0  0  0  0  0  0  0  0  0
  193.3350  175.4890  144.3890 O   0  0  0  0  0  0  0  0  0  0  0  0
  192.8670  174.6110  145.3930 C   0  0  2  0  0  3  0  0  0  0  0  0
  189.9790  176.8530  146.0520 C   0  0  1  0  0  3  0  0  0  0  0  0
  190.3690  176.6330  143.5330 C   0  0  1  0  0  3  0  0  0  0  0  0
  192.5110  177.7640  143.1920 O   0  0  0  0  0  1  0  0  0  0  0  0
  193.0170  173.1420  145.0160 C   0  0  0  0  0  1  0  0  0  0  0  0
  190.2100  177.5870  144.7250 C   0  0  0  0  0  2  0  0  0  0  0  0
  188.7310  175.9540  146.0380 C   0  0  1  0  0  3  0  0  0  0  0  0
  188.7230  175.0220  147.2460 C   0  0  0  0  0  1  0  0  0  0  0  0
  187.4380  176.7810  145.9580 C   0  0  1  0  0  3  0  0  0  0  0  0
  186.5090  176.3180  144.8370 C   0  0  0  0  0  2  0  0  0  0  0  0
  185.8320  177.4780  144.1250 C   0  0  0  0  0  2  0  0  0  0  0  0
  185.7960  179.6200  144.1810 O   0  0  0  0  0  1  0  0  0  0  0  0
  186.6390  178.6110  144.2100 O   0  0  0  0  0  0  0  0  0  0  0  0
  186.7720  176.8490  147.1900 O   0  0  0  0  0  0  0  0  0  0  0  0
  186.9720  178.1150  147.6310 N   0  0  0  0  0  2  0  0  0  0  0  0
  184.7610  178.7610  147.2630 O   0  0  0  0  0  0  0  0  0  0  0  0
  186.1360  180.3270  148.2150 O   0  0  0  0  0  1  0  0  0  0  0  0
  185.9070  179.0620  147.6900 C   0  0  0  0  0  0  0  0  0  0  0  0
  189.2710  176.8400  142.4870 C   0  0  0  0  0  2  0  0  0  0  0  0
  188.8400  174.4100  142.6210 C   0  0  0  0  0  3  0  0  0  0  0  0
  188.7200  175.5550  141.9440 C   0  0  0  0  0  3  0  0  0  0  0  0
  188.3070  173.1110  142.0950 C   0  0  0  0  0  3  0  0  0  0  0  0
  189.0710  171.9320  142.6710 C   0  0  0  0  0  1  0  0  0  0  0  0
  188.3510  173.0720  140.5790 C   0  0  0  0  0  1  0  0  0  0  0  0
  1  5  2  0  0  0  0
  2  6  1  0  0  0  0
  3 10  1  1  0  0  0
  3  2  1  0  0  0  0
  3  9  1  0  0  0  0
  4  1  1  0  0  0  0
  6  7  1  0  0  0  0
  7 11  1  6  0  0  0
  7  4  1  0  0  0  0
  8 13  1  6  0  0  0
  8  1  1  0  0  0  0
  9 25  1  6  0  0  0
  9 12  1  0  0  0  0
 12  8  1  0  0  0  0
 13 14  1  1  0  0  0
 15 16  1  6  0  0  0
 15 13  1  0  0  0  0
 15 20  1  0  0  0  0
 17 19  1  0  0  0  0
 17 16  1  0  0  0  0
 18 19  1  0  0  0  0
 20 21  1  0  0  0  0
 21 24  1  0  0  0  0
 22 24  2  0  0  0  0
 24 23  1  0  0  0  0
 27 25  1  0  0  0  0
 27 26  2  0  0  0  0
 28 26  1  0  0  0  0
 28 29  1  0  0  0  0
 30 28  1  0  0  0  0
M  END
>  <MODEL>
2

>  <REMARK>
 VINA RESULT:      -6.2      2.497      5.182
  Name = 
  10 active torsions:
  status: ('A' for Active; 'I' for Inactive)
    1  A    between atoms: C_1  and  C_4
    2  A    between atoms: C_1  and  C_22
    3  A    between atoms: C_4  and  C_9
    4  A    between atoms: C_4  and  O_12
    5  A    between atoms: C_7  and  C_23
    6  A    between atoms: C_7  and  C_25
    7  A    between atoms: N_8  and  O_12
    8  A    between atoms: C_9  and  C_21
    9  A    between atoms: C_10  and  C_15
   10  A    between atoms: O_17  and  C_21
                            x       y       z     vdW  Elec       q    Type
                         _______ _______ _______ _____ _____    ______ ____

>  <TORSDO>
F 10

$$$$
=
 OpenBabel11052417223D

 30 30  0  0  1  0  0  0  0  0999 V2000
  190.9980  174.8890  142.6010 C   0  0  0  0  0  0  0  0  0  0  0  0
  187.6080  175.6830  142.0320 C   0  0  0  0  0  2  0  0  0  0  0  0
  188.0790  176.9910  142.6660 C   0  0  1  0  0  3  0  0  0  0  0  0
  189.8160  174.1490  142.5950 O   0  0  0  0  0  0  0  0  0  0  0  0
  191.7430  174.9160  141.5850 O   0  0  0  0  0  0  0  0  0  0  0  0
  188.4800  175.2390  141.0170 O   0  0  0  0  0  0  0  0  0  0  0  0
  189.0530  174.0070  141.4030 C   0  0  2  0  0  3  0  0  0  0  0  0
  191.3150  175.7640  143.7700 C   0  0  1  0  0  3  0  0  0  0  0  0
  188.9590  176.7520  143.9020 C   0  0  1  0  0  3  0  0  0  0  0  0
  188.6780  177.8370  141.7270 O   0  0  0  0  0  1  0  0  0  0  0  0
  188.0270  172.8880  141.5360 C   0  0  0  0  0  1  0  0  0  0  0  0
  190.4540  177.0310  143.6960 C   0  0  0  0  0  2  0  0  0  0  0  0
  191.1870  175.0220  145.1110 C   0  0  1  0  0  3  0  0  0  0  0  0
  191.7640  173.6140  145.0070 C   0  0  0  0  0  1  0  0  0  0  0  0
  191.8350  175.8120  146.2590 C   0  0  1  0  0  3  0  0  0  0  0  0
  190.9900  175.8040  147.5320 C   0  0  0  0  0  2  0  0  0  0  0  0
  190.7420  177.2020  148.0750 C   0  0  0  0  0  2  0  0  0  0  0  0
  191.2320  178.4900  149.7160 O   0  0  0  0  0  1  0  0  0  0  0  0
  191.7540  177.5390  148.9720 O   0  0  0  0  0  0  0  0  0  0  0  0
  193.1540  175.4030  146.5090 O   0  0  0  0  0  0  0  0  0  0  0  0
  193.8670  176.5520  146.6020 N   0  0  0  0  0  2  0  0  0  0  0  0
  194.6930  176.4000  144.4250 O   0  0  0  0  0  0  0  0  0  0  0  0
  195.2780  178.2730  145.6100 O   0  0  0  0  0  1  0  0  0  0  0  0
  194.6180  177.0550  145.4990 C   0  0  0  0  0  0  0  0  0  0  0  0
  188.4120  177.4670  145.1400 C   0  0  0  0  0  2  0  0  0  0  0  0
  186.3880  178.6780  145.8800 C   0  0  0  0  0  3  0  0  0  0  0  0
  186.9610  177.8310  145.0200 C   0  0  0  0  0  3  0  0  0  0  0  0
  184.9380  179.0500  145.7880 C   0  0  0  0  0  3  0  0  0  0  0  0
  184.0920  178.1880  146.7090 C   0  0  0  0  0  1  0  0  0  0  0  0
  184.4320  178.9440  144.3610 C   0  0  0  0  0  1  0  0  0  0  0  0
  1  8  1  0  0  0  0
  2  3  1  0  0  0  0
  3 10  1  6  0  0  0
  3  9  1  0  0  0  0
  4  1  1  0  0  0  0
  5  1  2  0  0  0  0
  6  7  1  0  0  0  0
  6  2  1  0  0  0  0
  7 11  1  1  0  0  0
  7  4  1  0  0  0  0
  8 13  1  1  0  0  0
  9 25  1  1  0  0  0
 12  8  1  0  0  0  0
 12  9  1  0  0  0  0
 13 14  1  6  0  0  0
 13 15  1  0  0  0  0
 15 20  1  0  0  0  0
 15 16  1  1  0  0  0
 16 17  1  0  0  0  0
 17 19  1  0  0  0  0
 19 18  1  0  0  0  0
 20 21  1  0  0  0  0
 22 24  2  0  0  0  0
 24 23  1  0  0  0  0
 24 21  1  0  0  0  0
 27 25  1  0  0  0  0
 27 26  2  0  0  0  0
 28 26  1  0  0  0  0
 28 29  1  0  0  0  0
 30 28  1  0  0  0  0
M  END
>  <MODEL>
3

>  <REMARK>
 VINA RESULT:      -6.1      2.362      5.873
  Name = 
  10 active torsions:
  status: ('A' for Active; 'I' for Inactive)
    1  A    between atoms: C_1  and  C_4
    2  A    between atoms: C_1  and  C_22
    3  A    between atoms: C_4  and  C_9
    4  A    between atoms: C_4  and  O_12
    5  A    between atoms: C_7  and  C_23
    6  A    between atoms: C_7  and  C_25
    7  A    between atoms: N_8  and  O_12
    8  A    between atoms: C_9  and  C_21
    9  A    between atoms: C_10  and  C_15
   10  A    between atoms: O_17  and  C_21
                            x       y       z     vdW  Elec       q    Type
                         _______ _______ _______ _____ _____    ______ ____

>  <TORSDO>
F 10

$$$$
=
 OpenBabel11052417223D

 30 30  0  0  1  0  0  0  0  0999 V2000
  191.0310  176.4160  146.9330 C   0  0  0  0  0  0  0  0  0  0  0  0
  192.7820  175.9230  143.9100 C   0  0  0  0  0  2  0  0  0  0  0  0
  191.8340  177.0430  143.4830 C   0  0  1  0  0  3  0  0  0  0  0  0
  191.6120  175.3080  146.3180 O   0  0  0  0  0  0  0  0  0  0  0  0
  191.6520  177.0530  147.8260 O   0  0  0  0  0  0  0  0  0  0  0  0
  193.4190  176.2050  145.1370 O   0  0  0  0  0  0  0  0  0  0  0  0
  193.0160  175.2510  146.0980 C   0  0  2  0  0  3  0  0  0  0  0  0
  189.7210  176.9340  146.4350 C   0  0  1  0  0  3  0  0  0  0  0  0
  190.3980  176.8040  143.9720 C   0  0  1  0  0  3  0  0  0  0  0  0
  192.3260  178.3040  143.8350 O   0  0  0  0  0  1  0  0  0  0  0  0
  193.4640  173.8350  145.7560 C   0  0  0  0  0  1  0  0  0  0  0  0
  189.9500  177.7060  145.1300 C   0  0  0  0  0  2  0  0  0  0  0  0
  188.6620  175.8260  146.3060 C   0  0  1  0  0  3  0  0  0  0  0  0
  188.8920  174.7350  147.3470 C   0  0  0  0  0  1  0  0  0  0  0  0
  187.2360  176.3920  146.3910 C   0  0  1  0  0  3  0  0  0  0  0  0
  187.1890  177.7830  147.0230 C   0  0  0  0  0  2  0  0  0  0  0  0
  186.0300  177.9430  147.9930 C   0  0  0  0  0  2  0  0  0  0  0  0
  184.1900  178.2580  146.9400 O   0  0  0  0  0  1  0  0  0  0  0  0
  185.1620  178.9260  147.5230 O   0  0  0  0  0  0  0  0  0  0  0  0
  186.5770  176.3620  145.1530 O   0  0  0  0  0  0  0  0  0  0  0  0
  186.6170  177.6400  144.7000 N   0  0  0  0  0  2  0  0  0  0  0  0
  185.3460  177.1730  142.8010 O   0  0  0  0  0  0  0  0  0  0  0  0
  185.9460  179.3620  143.1140 O   0  0  0  0  0  1  0  0  0  0  0  0
  185.9410  178.0300  143.5060 C   0  0  0  0  0  0  0  0  0  0  0  0
  189.3920  176.8180  142.8180 C   0  0  0  0  0  2  0  0  0  0  0  0
  189.4540  174.3500  142.9550 C   0  0  0  0  0  3  0  0  0  0  0  0
  189.0660  175.4480  142.3000 C   0  0  0  0  0  3  0  0  0  0  0  0
  189.1490  172.9700  142.4530 C   0  0  0  0  0  3  0  0  0  0  0  0
  187.7590  172.9020  141.8470 C   0  0  0  0  0  1  0  0  0  0  0  0
  189.2890  171.9400  143.5590 C   0  0  0  0  0  1  0  0  0  0  0  0
  1  5  2  0  0  0  0
  2  6  1  0  0  0  0
  3 10  1  1  0  0  0
  3  2  1  0  0  0  0
  3  9  1  0  0  0  0
  4  1  1  0  0  0  0
  6  7  1  0  0  0  0
  7 11  1  6  0  0  0
  7  4  1  0  0  0  0
  8 13  1  6  0  0  0
  8  1  1  0  0  0  0
  9 25  1  6  0  0  0
  9 12  1  0  0  0  0
 12  8  1  0  0  0  0
 13 15  1  0  0  0  0
 13 14  1  1  0  0  0
 15 16  1  6  0  0  0
 16 17  1  0  0  0  0
 18 19  1  0  0  0  0
 19 17  1  0  0  0  0
 20 15  1  0  0  0  0
 21 20  1  0  0  0  0
 22 24  2  0  0  0  0
 23 24  1  0  0  0  0
 24 21  1  0  0  0  0
 27 25  1  0  0  0  0
 27 26  2  0  0  0  0
 28 26  1  0  0  0  0
 28 30  1  0  0  0  0
 29 28  1  0  0  0  0
M  END
>  <MODEL>
4

>  <REMARK>
 VINA RESULT:      -6.1      2.090      4.690
  Name = 
  10 active torsions:
  status: ('A' for Active; 'I' for Inactive)
    1  A    between atoms: C_1  and  C_4
    2  A    between atoms: C_1  and  C_22
    3  A    between atoms: C_4  and  C_9
    4  A    between atoms: C_4  and  O_12
    5  A    between atoms: C_7  and  C_23
    6  A    between atoms: C_7  and  C_25
    7  A    between atoms: N_8  and  O_12
    8  A    between atoms: C_9  and  C_21
    9  A    between atoms: C_10  and  C_15
   10  A    between atoms: O_17  and  C_21
                            x       y       z     vdW  Elec       q    Type
                         _______ _______ _______ _____ _____    ______ ____

>  <TORSDO>
F 10

$$$$
=
 OpenBabel11052417223D

 30 30  0  0  1  0  0  0  0  0999 V2000
  191.5220  173.8430  144.4340 C   0  0  0  0  0  0  0  0  0  0  0  0
  192.1430  176.1920  146.9920 C   0  0  0  0  0  2  0  0  0  0  0  0
  190.6160  176.2420  146.9570 C   0  0  1  0  0  3  0  0  0  0  0  0
  192.5480  174.7540  144.6870 O   0  0  0  0  0  0  0  0  0  0  0  0
  191.6430  172.6330  144.7630 O   0  0  0  0  0  0  0  0  0  0  0  0
  192.6310  174.8700  147.0200 O   0  0  0  0  0  0  0  0  0  0  0  0
  193.3690  174.6220  145.8410 C   0  0  2  0  0  3  0  0  0  0  0  0
  190.2180  174.3330  143.8930 C   0  0  1  0  0  3  0  0  0  0  0  0
  190.0710  176.3000  145.5230 C   0  0  1  0  0  3  0  0  0  0  0  0
  190.0450  175.2160  147.7160 O   0  0  0  0  0  1  0  0  0  0  0  0
  194.6200  175.4850  145.7290 C   0  0  0  0  0  1  0  0  0  0  0  0
  189.4250  175.0000  145.0240 C   0  0  0  0  0  2  0  0  0  0  0  0
  190.3940  175.2370  142.6620 C   0  0  1  0  0  3  0  0  0  0  0  0
  191.5920  174.7880  141.8290 C   0  0  0  0  0  1  0  0  0  0  0  0
  189.1130  175.2980  141.8160 C   0  0  1  0  0  3  0  0  0  0  0  0
  188.2590  174.0370  141.9450 C   0  0  0  0  0  2  0  0  0  0  0  0
  188.4590  173.0770  140.7840 C   0  0  0  0  0  2  0  0  0  0  0  0
  188.1060  173.6020  138.7360 O   0  0  0  0  0  1  0  0  0  0  0  0
  188.9900  173.7670  139.6960 O   0  0  0  0  0  0  0  0  0  0  0  0
  188.3660  176.4590  142.0640 O   0  0  0  0  0  0  0  0  0  0  0  0
  187.4140  176.4790  141.0990 N   0  0  0  0  0  2  0  0  0  0  0  0
  186.5670  178.5500  141.7580 O   0  0  0  0  0  1  0  0  0  0  0  0
  185.6150  177.6030  139.9010 O   0  0  0  0  0  0  0  0  0  0  0  0
  186.5290  177.5880  140.9470 C   0  0  0  0  0  0  0  0  0  0  0  0
  189.1580  177.5090  145.3060 C   0  0  0  0  0  2  0  0  0  0  0  0
  186.7580  178.0570  145.0860 C   0  0  0  0  0  3  0  0  0  0  0  0
  187.7010  177.1840  145.4510 C   0  0  0  0  0  3  0  0  0  0  0  0
  185.2950  177.7610  145.2290 C   0  0  0  0  0  3  0  0  0  0  0  0
  184.4820  179.0410  145.3050 C   0  0  0  0  0  1  0  0  0  0  0  0
  185.0260  176.8970  146.4480 C   0  0  0  0  0  1  0  0  0  0  0  0
  1  4  1  0  0  0  0
  1  5  2  0  0  0  0
  2  6  1  0  0  0  0
  3  2  1  0  0  0  0
  3 10  1  6  0  0  0
  4  7  1  0  0  0  0
  7 11  1  6  0  0  0
  7  6  1  0  0  0  0
  8 13  1  6  0  0  0
  8  1  1  0  0  0  0
  8 12  1  0  0  0  0
  9 25  1  1  0  0  0
  9  3  1  0  0  0  0
 12  9  1  0  0  0  0
 13 14  1  6  0  0  0
 15 16  1  1  0  0  0
 15 20  1  0  0  0  0
 15 13  1  0  0  0  0
 17 16  1  0  0  0  0
 18 19  1  0  0  0  0
 19 17  1  0  0  0  0
 21 20  1  0  0  0  0
 23 24  2  0  0  0  0
 24 21  1  0  0  0  0
 24 22  1  0  0  0  0
 25 27  1  0  0  0  0
 26 28  1  0  0  0  0
 26 27  2  0  0  0  0
 28 29  1  0  0  0  0
 28 30  1  0  0  0  0
M  END
>  <MODEL>
5

>  <REMARK>
 VINA RESULT:      -6.1      1.575      3.158
  Name = 
  10 active torsions:
  status: ('A' for Active; 'I' for Inactive)
    1  A    between atoms: C_1  and  C_4
    2  A    between atoms: C_1  and  C_22
    3  A    between atoms: C_4  and  C_9
    4  A    between atoms: C_4  and  O_12
    5  A    between atoms: C_7  and  C_23
    6  A    between atoms: C_7  and  C_25
    7  A    between atoms: N_8  and  O_12
    8  A    between atoms: C_9  and  C_21
    9  A    between atoms: C_10  and  C_15
   10  A    between atoms: O_17  and  C_21
                            x       y       z     vdW  Elec       q    Type
                         _______ _______ _______ _____ _____    ______ ____

>  <TORSDO>
F 10

$$$$
=
 OpenBabel11052417223D

 30 30  0  0  1  0  0  0  0  0999 V2000
  191.3940  174.1830  144.4940 C   0  0  0  0  0  0  0  0  0  0  0  0
  192.7610  176.4920  146.7850 C   0  0  0  0  0  2  0  0  0  0  0  0
  191.3520  176.3590  147.3590 C   0  0  1  0  0  3  0  0  0  0  0  0
  192.3430  175.2010  144.3970 O   0  0  0  0  0  0  0  0  0  0  0  0
  191.7520  172.9850  144.6480 O   0  0  0  0  0  0  0  0  0  0  0  0
  193.3440  175.2380  146.5090 O   0  0  0  0  0  0  0  0  0  0  0  0
  193.5660  175.1250  145.1180 C   0  0  2  0  0  3  0  0  0  0  0  0
  189.9420  174.5320  144.5540 C   0  0  1  0  0  3  0  0  0  0  0  0
  190.2740  176.4040  146.2660 C   0  0  1  0  0  3  0  0  0  0  0  0
  191.2340  175.2430  148.1940 O   0  0  0  0  0  1  0  0  0  0  0  0
  194.5790  176.1370  144.5930 C   0  0  0  0  0  1  0  0  0  0  0  0
  189.6090  175.0550  145.9570 C   0  0  0  0  0  2  0  0  0  0  0  0
  189.5220  175.4960  143.4330 C   0  0  1  0  0  3  0  0  0  0  0  0
  190.7250  175.8880  142.5790 C   0  0  0  0  0  1  0  0  0  0  0  0
  188.3910  174.9090  142.5740 C   0  0  1  0  0  3  0  0  0  0  0  0
  187.2930  175.9260  142.2680 C   0  0  0  0  0  2  0  0  0  0  0  0
  187.4360  176.5370  140.8830 C   0  0  0  0  0  2  0  0  0  0  0  0
  187.8420  178.2870  142.0530 O   0  0  0  0  0  1  0  0  0  0  0  0
  187.2190  177.9120  140.9570 O   0  0  0  0  0  0  0  0  0  0  0  0
  188.8720  174.2960  141.4070 O   0  0  0  0  0  0  0  0  0  0  0  0
  188.8930  172.9690  141.6890 N   0  0  0  0  0  2  0  0  0  0  0  0
  191.1540  172.7350  141.1620 O   0  0  0  0  0  0  0  0  0  0  0  0
  190.0920  170.8660  141.9540 O   0  0  0  0  0  1  0  0  0  0  0  0
  190.0930  172.2050  141.5870 C   0  0  0  0  0  0  0  0  0  0  0  0
  189.2400  177.5010  146.5280 C   0  0  0  0  0  2  0  0  0  0  0  0
  186.9990  177.7750  145.5210 C   0  0  0  0  0  3  0  0  0  0  0  0
  187.8280  177.0560  146.2830 C   0  0  0  0  0  3  0  0  0  0  0  0
  185.5820  177.3570  145.2680 C   0  0  0  0  0  3  0  0  0  0  0  0
  184.9740  178.1450  144.1220 C   0  0  0  0  0  1  0  0  0  0  0  0
  184.7320  177.5100  146.5170 C   0  0  0  0  0  1  0  0  0  0  0  0
  1  8  1  0  0  0  0
  1  5  2  0  0  0  0
  2  3  1  0  0  0  0
  3 10  1  6  0  0  0
  4  1  1  0  0  0  0
  4  7  1  0  0  0  0
  6  2  1  0  0  0  0
  7 11  1  6  0  0  0
  7  6  1  0  0  0  0
  8 13  1  6  0  0  0
  8 12  1  0  0  0  0
  9 25  1  1  0  0  0
  9  3  1  0  0  0  0
 12  9  1  0  0  0  0
 13 14  1  6  0  0  0
 15 16  1  6  0  0  0
 15 13  1  0  0  0  0
 17 19  1  0  0  0  0
 17 16  1  0  0  0  0
 19 18  1  0  0  0  0
 20 21  1  0  0  0  0
 20 15  1  0  0  0  0
 22 24  2  0  0  0  0
 24 21  1  0  0  0  0
 24 23  1  0  0  0  0
 26 27  2  0  0  0  0
 27 25  1  0  0  0  0
 28 26  1  0  0  0  0
 28 30  1  0  0  0  0
 29 28  1  0  0  0  0
M  END
>  <MODEL>
6

>  <REMARK>
 VINA RESULT:      -5.8      1.570      1.883
  Name = 
  10 active torsions:
  status: ('A' for Active; 'I' for Inactive)
    1  A    between atoms: C_1  and  C_4
    2  A    between atoms: C_1  and  C_22
    3  A    between atoms: C_4  and  C_9
    4  A    between atoms: C_4  and  O_12
    5  A    between atoms: C_7  and  C_23
    6  A    between atoms: C_7  and  C_25
    7  A    between atoms: N_8  and  O_12
    8  A    between atoms: C_9  and  C_21
    9  A    between atoms: C_10  and  C_15
   10  A    between atoms: O_17  and  C_21
                            x       y       z     vdW  Elec       q    Type
                         _______ _______ _______ _____ _____    ______ ____

>  <TORSDO>
F 10

$$$$
=
 OpenBabel11052417223D

 30 30  0  0  1  0  0  0  0  0999 V2000
  188.1030  173.8800  141.7870 C   0  0  0  0  0  0  0  0  0  0  0  0
  191.1750  173.6530  140.0670 C   0  0  0  0  0  2  0  0  0  0  0  0
  191.6890  173.8470  141.4930 C   0  0  1  0  0  3  0  0  0  0  0  0
  188.5300  174.2470  140.5120 O   0  0  0  0  0  0  0  0  0  0  0  0
  187.5000  172.7900  141.9730 O   0  0  0  0  0  0  0  0  0  0  0  0
  190.1710  172.6650  139.9930 O   0  0  0  0  0  0  0  0  0  0  0  0
  188.9600  173.2640  139.5780 C   0  0  2  0  0  3  0  0  0  0  0  0
  188.4840  174.7200  142.9630 C   0  0  1  0  0  3  0  0  0  0  0  0
  190.9270  174.9520  142.2380 C   0  0  1  0  0  3  0  0  0  0  0  0
  191.7270  172.6410  142.2000 O   0  0  0  0  0  1  0  0  0  0  0  0
  189.0320  173.8370  138.1680 C   0  0  0  0  0  1  0  0  0  0  0  0
  189.9530  174.4540  143.3150 C   0  0  0  0  0  2  0  0  0  0  0  0
  188.1740  176.2100  142.7450 C   0  0  1  0  0  3  0  0  0  0  0  0
  187.1820  176.3940  141.6010 C   0  0  0  0  0  1  0  0  0  0  0  0
  187.6740  176.8790  144.0350 C   0  0  1  0  0  3  0  0  0  0  0  0
  188.7970  177.5450  144.8300 C   0  0  0  0  0  2  0  0  0  0  0  0
  188.9210  176.9900  146.2390 C   0  0  0  0  0  2  0  0  0  0  0  0
  188.7100  175.0000  147.0070 O   0  0  0  0  0  1  0  0  0  0  0  0
  188.0160  175.9440  146.4090 O   0  0  0  0  0  0  0  0  0  0  0  0
  186.6100  177.7630  143.8000 O   0  0  0  0  0  0  0  0  0  0  0  0
  185.6280  177.3680  144.6480 N   0  0  0  0  0  2  0  0  0  0  0  0
  185.7480  179.3090  145.9380 O   0  0  0  0  0  0  0  0  0  0  0  0
  184.1280  177.7960  146.5180 O   0  0  0  0  0  1  0  0  0  0  0  0
  185.1840  178.2050  145.7150 C   0  0  0  0  0  0  0  0  0  0  0  0
  191.8680  176.0320  142.7770 C   0  0  0  0  0  2  0  0  0  0  0  0
  192.4440  176.6260  145.1060 C   0  0  0  0  0  3  0  0  0  0  0  0
  192.4220  175.7100  144.1340 C   0  0  0  0  0  3  0  0  0  0  0  0
  193.0010  176.3330  146.4670 C   0  0  0  0  0  3  0  0  0  0  0  0
  194.4440  175.8680  146.3800 C   0  0  0  0  0  1  0  0  0  0  0  0
  192.1610  175.2990  147.1940 C   0  0  0  0  0  1  0  0  0  0  0  0
  1  5  2  0  0  0  0
  1  8  1  0  0  0  0
  2  3  1  0  0  0  0
  3 10  1  1  0  0  0
  3  9  1  0  0  0  0
  4  1  1  0  0  0  0
  6  2  1  0  0  0  0
  7 11  1  6  0  0  0
  7  6  1  0  0  0  0
  7  4  1  0  0  0  0
  8 13  1  6  0  0  0
  8 12  1  0  0  0  0
  9 25  1  1  0  0  0
  9 12  1  0  0  0  0
 13 14  1  6  0  0  0
 13 15  1  0  0  0  0
 15 16  1  6  0  0  0
 16 17  1  0  0  0  0
 17 19  1  0  0  0  0
 19 18  1  0  0  0  0
 20 15  1  0  0  0  0
 20 21  1  0  0  0  0
 21 24  1  0  0  0  0
 24 22  2  0  0  0  0
 24 23  1  0  0  0  0
 25 27  1  0  0  0  0
 26 28  1  0  0  0  0
 27 26  2  0  0  0  0
 28 30  1  0  0  0  0
 29 28  1  0  0  0  0
M  END
>  <MODEL>
7

>  <REMARK>
 VINA RESULT:      -5.8      2.264      6.111
  Name = 
  10 active torsions:
  status: ('A' for Active; 'I' for Inactive)
    1  A    between atoms: C_1  and  C_4
    2  A    between atoms: C_1  and  C_22
    3  A    between atoms: C_4  and  C_9
    4  A    between atoms: C_4  and  O_12
    5  A    between atoms: C_7  and  C_23
    6  A    between atoms: C_7  and  C_25
    7  A    between atoms: N_8  and  O_12
    8  A    between atoms: C_9  and  C_21
    9  A    between atoms: C_10  and  C_15
   10  A    between atoms: O_17  and  C_21
                            x       y       z     vdW  Elec       q    Type
                         _______ _______ _______ _____ _____    ______ ____

>  <TORSDO>
F 10

$$$$
=
 OpenBabel11052417223D

 30 30  0  0  1  0  0  0  0  0999 V2000
  190.3430  177.7090  144.2370 C   0  0  0  0  0  0  0  0  0  0  0  0
  191.7890  174.4920  144.3100 C   0  0  0  0  0  2  0  0  0  0  0  0
  190.9890  174.3890  143.0120 C   0  0  1  0  0  3  0  0  0  0  0  0
  190.7100  176.8340  145.2580 O   0  0  0  0  0  0  0  0  0  0  0  0
  191.1100  178.6450  143.8870 O   0  0  0  0  0  0  0  0  0  0  0  0
  192.5430  175.6820  144.3770 O   0  0  0  0  0  0  0  0  0  0  0  0
  192.0710  176.4710  145.4500 C   0  0  2  0  0  3  0  0  0  0  0  0
  189.0920  177.4540  143.4600 C   0  0  1  0  0  3  0  0  0  0  0  0
  189.5710  174.9590  143.1590 C   0  0  1  0  0  3  0  0  0  0  0  0
  191.6850  174.9340  141.9280 O   0  0  0  0  0  1  0  0  0  0  0  0
  192.2800  175.8130  146.8090 C   0  0  0  0  0  1  0  0  0  0  0  0
  189.3420  176.3110  142.4680 C   0  0  0  0  0  2  0  0  0  0  0  0
  187.8750  177.2130  144.3680 C   0  0  1  0  0  3  0  0  0  0  0  0
  188.2010  177.5710  145.8150 C   0  0  0  0  0  1  0  0  0  0  0  0
  186.6350  177.9700  143.8680 C   0  0  1  0  0  3  0  0  0  0  0  0
  186.0080  178.8540  144.9450 C   0  0  0  0  0  2  0  0  0  0  0  0
  184.6600  178.3320  145.4140 C   0  0  0  0  0  2  0  0  0  0  0  0
  184.8180  176.4990  146.5130 O   0  0  0  0  0  1  0  0  0  0  0  0
  184.7860  177.8010  146.6960 O   0  0  0  0  0  0  0  0  0  0  0  0
  186.8900  178.6880  142.6900 O   0  0  0  0  0  0  0  0  0  0  0  0
  185.7180  178.6710  142.0060 N   0  0  0  0  0  2  0  0  0  0  0  0
  186.5840  177.4050  140.2480 O   0  0  0  0  0  1  0  0  0  0  0  0
  184.3520  177.9150  140.1370 O   0  0  0  0  0  0  0  0  0  0  0  0
  185.5870  177.9700  140.7710 C   0  0  0  0  0  0  0  0  0  0  0  0
  188.5010  173.9350  142.7730 C   0  0  0  0  0  2  0  0  0  0  0  0
  188.5550  172.8840  140.5360 C   0  0  0  0  0  3  0  0  0  0  0  0
  188.1990  173.9180  141.3030 C   0  0  0  0  0  3  0  0  0  0  0  0
  188.2750  172.8470  139.0640 C   0  0  0  0  0  3  0  0  0  0  0  0
  189.3250  172.0350  138.3260 C   0  0  0  0  0  1  0  0  0  0  0  0
  188.1940  174.2470  138.4840 C   0  0  0  0  0  1  0  0  0  0  0  0
  1  4  1  0  0  0  0
  2  6  1  0  0  0  0
  3 10  1  6  0  0  0
  3  9  1  0  0  0  0
  3  2  1  0  0  0  0
  4  7  1  0  0  0  0
  5  1  2  0  0  0  0
  6  7  1  0  0  0  0
  7 11  1  1  0  0  0
  8  1  1  0  0  0  0
  8 13  1  1  0  0  0
  9 25  1  6  0  0  0
 12  9  1  0  0  0  0
 12  8  1  0  0  0  0
 13 14  1  1  0  0  0
 15 13  1  0  0  0  0
 15 16  1  1  0  0  0
 16 17  1  0  0  0  0
 17 19  1  0  0  0  0
 18 19  1  0  0  0  0
 20 15  1  0  0  0  0
 21 20  1  0  0  0  0
 22 24  1  0  0  0  0
 23 24  2  0  0  0  0
 24 21  1  0  0  0  0
 26 27  2  0  0  0  0
 27 25  1  0  0  0  0
 28 26  1  0  0  0  0
 29 28  1  0  0  0  0
 30 28  1  0  0  0  0
M  END
>  <MODEL>
8

>  <REMARK>
 VINA RESULT:      -5.7      2.206      5.139
  Name = 
  10 active torsions:
  status: ('A' for Active; 'I' for Inactive)
    1  A    between atoms: C_1  and  C_4
    2  A    between atoms: C_1  and  C_22
    3  A    between atoms: C_4  and  C_9
    4  A    between atoms: C_4  and  O_12
    5  A    between atoms: C_7  and  C_23
    6  A    between atoms: C_7  and  C_25
    7  A    between atoms: N_8  and  O_12
    8  A    between atoms: C_9  and  C_21
    9  A    between atoms: C_10  and  C_15
   10  A    between atoms: O_17  and  C_21
                            x       y       z     vdW  Elec       q    Type
                         _______ _______ _______ _____ _____    ______ ____

>  <TORSDO>
F 10

$$$$
=
 OpenBabel11052417223D

 30 30  0  0  1  0  0  0  0  0999 V2000
  189.1780  175.1180  142.2580 C   0  0  0  0  0  0  0  0  0  0  0  0
  191.9020  173.3290  143.6110 C   0  0  0  0  0  2  0  0  0  0  0  0
  190.9380  173.2720  144.7950 C   0  0  1  0  0  3  0  0  0  0  0  0
  190.5610  175.1880  142.0960 O   0  0  0  0  0  0  0  0  0  0  0  0
  188.4670  174.4870  141.4320 O   0  0  0  0  0  0  0  0  0  0  0  0
  191.2730  172.9820  142.3970 O   0  0  0  0  0  0  0  0  0  0  0  0
  191.2830  174.1000  141.5330 C   0  0  2  0  0  3  0  0  0  0  0  0
  188.5510  175.6800  143.4930 C   0  0  1  0  0  3  0  0  0  0  0  0
  190.2730  174.6290  145.0670 C   0  0  1  0  0  3  0  0  0  0  0  0
  190.0150  172.2300  144.6650 O   0  0  0  0  0  1  0  0  0  0  0  0
  192.6890  174.5230  141.1240 C   0  0  0  0  0  1  0  0  0  0  0  0
  188.7950  174.7170  144.6620 C   0  0  0  0  0  2  0  0  0  0  0  0
  189.0130  177.1170  143.7850 C   0  0  1  0  0  3  0  0  0  0  0  0
  189.4430  177.8180  142.5000 C   0  0  0  0  0  1  0  0  0  0  0  0
  187.9340  177.9190  144.5290 C   0  0  1  0  0  3  0  0  0  0  0  0
  186.5490  177.7710  143.9000 C   0  0  0  0  0  2  0  0  0  0  0  0
  186.1410  178.9940  143.0960 C   0  0  0  0  0  2  0  0  0  0  0  0
  184.2640  178.3190  143.8810 O   0  0  0  0  0  1  0  0  0  0  0  0
  184.7710  178.9510  142.8440 O   0  0  0  0  0  0  0  0  0  0  0  0
  187.9130  177.6370  145.9030 O   0  0  0  0  0  0  0  0  0  0  0  0
  186.5980  177.5650  146.2280 N   0  0  0  0  0  2  0  0  0  0  0  0
  186.7930  179.0710  147.9990 O   0  0  0  0  0  1  0  0  0  0  0  0
  184.6850  178.2970  147.5450 O   0  0  0  0  0  0  0  0  0  0  0  0
  186.0490  178.3440  147.2890 C   0  0  0  0  0  0  0  0  0  0  0  0
  190.4970  175.0980  146.5060 C   0  0  0  0  0  2  0  0  0  0  0  0
  192.7210  176.1260  146.1780 C   0  0  0  0  0  3  0  0  0  0  0  0
  191.9470  175.2720  146.8530 C   0  0  0  0  0  3  0  0  0  0  0  0
  194.1740  176.3110  146.4990 C   0  0  0  0  0  3  0  0  0  0  0  0
  194.7220  177.5690  145.8510 C   0  0  0  0  0  1  0  0  0  0  0  0
  194.9900  175.1040  146.0710 C   0  0  0  0  0  1  0  0  0  0  0  0
  1  8  1  0  0  0  0
  2  3  1  0  0  0  0
  3 10  1  6  0  0  0
  3  9  1  0  0  0  0
  4  1  1  0  0  0  0
  5  1  2  0  0  0  0
  6  2  1  0  0  0  0
  7 11  1  1  0  0  0
  7  4  1  0  0  0  0
  7  6  1  0  0  0  0
  8 13  1  1  0  0  0
  8 12  1  0  0  0  0
  9 25  1  1  0  0  0
 12  9  1  0  0  0  0
 13 14  1  6  0  0  0
 13 15  1  0  0  0  0
 15 16  1  6  0  0  0
 15 20  1  0  0  0  0
 17 16  1  0  0  0  0
 19 17  1  0  0  0  0
 19 18  1  0  0  0  0
 20 21  1  0  0  0  0
 21 24  1  0  0  0  0
 24 23  2  0  0  0  0
 24 22  1  0  0  0  0
 25 27  1  0  0  0  0
 26 28  1  0  0  0  0
 26 27  2  0  0  0  0
 29 28  1  0  0  0  0
 30 28  1  0  0  0  0
M  END
>  <MODEL>
9

>  <REMARK>
 VINA RESULT:      -5.5      2.383      5.228
  Name = 
  10 active torsions:
  status: ('A' for Active; 'I' for Inactive)
    1  A    between atoms: C_1  and  C_4
    2  A    between atoms: C_1  and  C_22
    3  A    between atoms: C_4  and  C_9
    4  A    between atoms: C_4  and  O_12
    5  A    between atoms: C_7  and  C_23
    6  A    between atoms: C_7  and  C_25
    7  A    between atoms: N_8  and  O_12
    8  A    between atoms: C_9  and  C_21
    9  A    between atoms: C_10  and  C_15
   10  A    between atoms: O_17  and  C_21
                            x       y       z     vdW  Elec       q    Type
                         _______ _______ _______ _____ _____    ______ ____

>  <TORSDO>
F 10

$$$$
