=
 OpenBabel11052418193D

 27 30  0  0  1  0  0  0  0  0999 V2000
  190.4950  175.3190  143.0070 N   0  0  0  0  0  0  0  0  0  0  0  0
  189.4930  175.9650  145.1210 C   0  0  0  0  0  0  0  0  0  0  0  0
  188.6660  177.5640  143.3310 C   0  0  0  0  0  2  0  0  0  0  0  0
  186.2580  176.9830  147.4090 N   0  0  0  0  0  0  0  0  0  0  0  0
  184.4410  178.5960  146.8260 C   0  0  0  0  0  1  0  0  0  0  0  0
  189.3640  175.3890  146.3600 N   0  0  0  0  0  0  0  0  0  0  0  0
  186.4050  177.9910  145.3810 N   0  0  0  0  0  0  0  0  0  0  0  0
  186.0840  178.8570  144.2560 C   0  0  0  0  0  1  0  0  0  0  0  0
  187.4530  177.1630  145.5300 C   0  0  0  0  0  0  0  0  0  0  0  0
  190.6590  175.6090  144.2690 C   0  0  0  0  0  0  0  0  0  0  0  0
  185.7020  177.8570  146.5320 C   0  0  0  0  0  0  0  0  0  0  0  0
  187.3550  176.5640  146.7510 C   0  0  0  0  0  0  0  0  0  0  0  0
  189.1990  175.2240  142.3330 C   0  0  1  0  0  3  0  0  0  0  0  0
  188.5190  176.8870  144.6630 C   0  0  0  0  0  0  0  0  0  0  0  0
  188.3160  175.6650  147.1900 C   0  0  0  0  0  3  0  0  0  0  0  0
  188.5260  176.6000  142.1460 C   0  0  1  0  0  3  0  0  0  0  0  0
  194.5850  175.5870  145.9180 N   0  0  0  0  0  0  0  0  0  0  0  0
  192.0290  175.5940  144.8350 C   0  0  0  0  0  0  0  0  0  0  0  0
  192.6390  174.3920  145.2210 C   0  0  0  0  0  3  0  0  0  0  0  0
  193.9260  174.4090  145.7630 C   0  0  0  0  0  3  0  0  0  0  0  0
  194.0190  176.7700  145.5570 C   0  0  0  0  0  3  0  0  0  0  0  0
  192.7340  176.7940  145.0120 C   0  0  0  0  0  3  0  0  0  0  0  0
  189.3660  174.5080  140.9990 C   0  0  0  0  0  2  0  0  0  0  0  0
  188.6090  173.3350  140.9700 O   0  0  0  0  0  1  0  0  0  0  0  0
  187.0700  176.4790  141.6860 C   0  0  0  0  0  2  0  0  0  0  0  0
  186.7560  177.3860  140.5060 C   0  0  0  0  0  2  0  0  0  0  0  0
  185.6320  178.1560  140.8000 O   0  0  0  0  0  1  0  0  0  0  0  0
  1 10  2  0  0  0  0
  2  6  1  0  0  0  0
  3 14  1  0  0  0  0
  6 15  2  0  0  0  0
  7  9  1  0  0  0  0
  7 11  1  0  0  0  0
  8  7  1  0  0  0  0
  9 12  2  0  0  0  0
 10 18  1  0  0  0  0
 10  2  1  0  0  0  0
 11  5  1  0  0  0  0
 11  4  2  0  0  0  0
 12 15  1  0  0  0  0
 12  4  1  0  0  0  0
 13 23  1  6  0  0  0
 13  1  1  0  0  0  0
 14  2  2  0  0  0  0
 14  9  1  0  0  0  0
 16 25  1  1  0  0  0
 16 13  1  0  0  0  0
 16  3  1  0  0  0  0
 18 22  2  0  0  0  0
 18 19  1  0  0  0  0
 19 20  2  0  0  0  0
 20 17  1  0  0  0  0
 21 17  2  0  0  0  0
 22 21  1  0  0  0  0
 24 23  1  0  0  0  0
 26 27  1  0  0  0  0
 26 25  1  0  0  0  0
M  END
>  <MODEL>
1

>  <REMARK>
 VINA RESULT:      -7.1      0.000      0.000
  Name = 
  4 active torsions:
  status: ('A' for Active; 'I' for Inactive)
    1  A    between atoms: C_9  and  C_15
    2  A    between atoms: C_10  and  C_20
    3  A    between atoms: CA_18  and  C_22
    4  A    between atoms: C_20  and  C_26
                            x       y       z     vdW  Elec       q    Type
                         _______ _______ _______ _____ _____    ______ ____

>  <TORSDO>
F 4

$$$$
=
 OpenBabel11052418193D

 27 30  0  0  1  0  0  0  0  0999 V2000
  186.3650  177.2190  144.7210 N   0  0  0  0  0  0  0  0  0  0  0  0
  187.7660  176.2090  143.0160 C   0  0  0  0  0  0  0  0  0  0  0  0
  189.2470  177.6070  144.5320 C   0  0  0  0  0  2  0  0  0  0  0  0
  191.0780  174.1030  141.8610 N   0  0  0  0  0  0  0  0  0  0  0  0
  193.4290  174.4350  142.6410 C   0  0  0  0  0  1  0  0  0  0  0  0
  187.6130  175.2110  142.0860 N   0  0  0  0  0  0  0  0  0  0  0  0
  191.4210  175.7460  143.3890 N   0  0  0  0  0  0  0  0  0  0  0  0
  192.1120  176.6420  144.3050 C   0  0  0  0  0  1  0  0  0  0  0  0
  190.1120  175.7050  143.0830 C   0  0  0  0  0  0  0  0  0  0  0  0
  186.5770  176.9880  143.4540 C   0  0  0  0  0  0  0  0  0  0  0  0
  191.9750  174.7650  142.6360 C   0  0  0  0  0  0  0  0  0  0  0  0
  189.9190  174.7160  142.1650 C   0  0  0  0  0  0  0  0  0  0  0  0
  187.1810  176.6890  145.8140 C   0  0  1  0  0  3  0  0  0  0  0  0
  189.0490  176.4880  143.5500 C   0  0  0  0  0  0  0  0  0  0  0  0
  188.6590  174.4530  141.6460 C   0  0  0  0  0  3  0  0  0  0  0  0
  188.5750  177.3460  145.8870 C   0  0  1  0  0  3  0  0  0  0  0  0
  183.8390  178.5140  140.5720 N   0  0  0  0  0  0  0  0  0  0  0  0
  185.6220  177.5280  142.4570 C   0  0  0  0  0  0  0  0  0  0  0  0
  184.2920  177.8040  142.8070 C   0  0  0  0  0  3  0  0  0  0  0  0
  183.4100  178.3010  141.8450 C   0  0  0  0  0  3  0  0  0  0  0  0
  185.1210  178.2530  140.2020 C   0  0  0  0  0  3  0  0  0  0  0  0
  186.0320  177.7550  141.1360 C   0  0  0  0  0  3  0  0  0  0  0  0
  186.4320  176.8420  147.1330 C   0  0  0  0  0  2  0  0  0  0  0  0
  186.3580  178.1860  147.5050 O   0  0  0  0  0  1  0  0  0  0  0  0
  189.5140  176.6170  146.8510 C   0  0  0  0  0  2  0  0  0  0  0  0
  189.5280  175.1130  146.6250 C   0  0  0  0  0  2  0  0  0  0  0  0
  188.9730  174.4730  147.7320 O   0  0  0  0  0  1  0  0  0  0  0  0
  1 13  1  0  0  0  0
  2 10  1  0  0  0  0
  2 14  1  0  0  0  0
  3 16  1  0  0  0  0
  4 12  1  0  0  0  0
  4 11  2  0  0  0  0
  6  2  2  0  0  0  0
  7  8  1  0  0  0  0
  9  7  1  0  0  0  0
  9 14  2  0  0  0  0
 10  1  2  0  0  0  0
 11  5  1  0  0  0  0
 11  7  1  0  0  0  0
 12  9  1  0  0  0  0
 13 16  1  0  0  0  0
 13 23  1  1  0  0  0
 14  3  1  0  0  0  0
 15  6  1  0  0  0  0
 15 12  2  0  0  0  0
 16 25  1  1  0  0  0
 17 20  1  0  0  0  0
 18 19  1  0  0  0  0
 18 10  1  0  0  0  0
 20 19  2  0  0  0  0
 21 17  2  0  0  0  0
 21 22  1  0  0  0  0
 22 18  2  0  0  0  0
 23 24  1  0  0  0  0
 26 25  1  0  0  0  0
 26 27  1  0  0  0  0
M  END
>  <MODEL>
2

>  <REMARK>
 VINA RESULT:      -6.9      2.700      7.162
  Name = 
  4 active torsions:
  status: ('A' for Active; 'I' for Inactive)
    1  A    between atoms: C_9  and  C_15
    2  A    between atoms: C_10  and  C_20
    3  A    between atoms: CA_18  and  C_22
    4  A    between atoms: C_20  and  C_26
                            x       y       z     vdW  Elec       q    Type
                         _______ _______ _______ _____ _____    ______ ____

>  <TORSDO>
F 4

$$$$
=
 OpenBabel11052418193D

 27 30  0  0  1  0  0  0  0  0999 V2000
  186.9300  176.6210  142.4350 N   0  0  0  0  0  0  0  0  0  0  0  0
  188.5330  176.5800  144.2570 C   0  0  0  0  0  0  0  0  0  0  0  0
  188.4670  174.2690  143.2090 C   0  0  0  0  0  2  0  0  0  0  0  0
  192.2200  175.6890  145.7880 N   0  0  0  0  0  0  0  0  0  0  0  0
  193.4990  173.5600  145.5100 C   0  0  0  0  0  1  0  0  0  0  0  0
  189.1640  177.5240  145.0280 N   0  0  0  0  0  0  0  0  0  0  0  0
  191.2390  174.0690  144.5390 N   0  0  0  0  0  0  0  0  0  0  0  0
  191.0300  172.7910  143.8720 C   0  0  0  0  0  1  0  0  0  0  0  0
  190.4220  175.1350  144.5840 C   0  0  0  0  0  0  0  0  0  0  0  0
  187.1930  176.8800  143.6860 C   0  0  0  0  0  0  0  0  0  0  0  0
  192.3160  174.4360  145.2740 C   0  0  0  0  0  0  0  0  0  0  0  0
  191.0210  176.1000  145.3370 C   0  0  0  0  0  0  0  0  0  0  0  0
  187.9030  176.1120  141.4660 C   0  0  1  0  0  3  0  0  0  0  0  0
  189.1600  175.3330  144.0090 C   0  0  0  0  0  0  0  0  0  0  0  0
  190.3970  177.3170  145.5760 C   0  0  0  0  0  3  0  0  0  0  0  0
  188.2920  174.6430  141.7310 C   0  0  1  0  0  3  0  0  0  0  0  0
  184.1120  178.5610  146.0980 N   0  0  0  0  0  0  0  0  0  0  0  0
  186.1270  177.4650  144.5350 C   0  0  0  0  0  0  0  0  0  0  0  0
  185.7000  176.8220  145.7060 C   0  0  0  0  0  3  0  0  0  0  0  0
  184.6860  177.3900  146.4800 C   0  0  0  0  0  3  0  0  0  0  0  0
  184.5000  179.2070  144.9660 C   0  0  0  0  0  3  0  0  0  0  0  0
  185.5110  178.6700  144.1660 C   0  0  0  0  0  3  0  0  0  0  0  0
  187.3600  176.2900  140.0530 C   0  0  0  0  0  2  0  0  0  0  0  0
  186.6260  177.4730  139.9520 O   0  0  0  0  0  1  0  0  0  0  0  0
  189.4910  174.1960  140.8900 C   0  0  0  0  0  2  0  0  0  0  0  0
  189.3110  172.7990  140.3160 C   0  0  0  0  0  2  0  0  0  0  0  0
  188.0670  172.7100  139.6940 O   0  0  0  0  0  1  0  0  0  0  0  0
  1 10  2  0  0  0  0
  2  6  1  0  0  0  0
  3 14  1  0  0  0  0
  6 15  2  0  0  0  0
  7  9  1  0  0  0  0
  7 11  1  0  0  0  0
  8  7  1  0  0  0  0
  9 12  2  0  0  0  0
 10  2  1  0  0  0  0
 10 18  1  0  0  0  0
 11  5  1  0  0  0  0
 11  4  2  0  0  0  0
 12 15  1  0  0  0  0
 12  4  1  0  0  0  0
 13 23  1  6  0  0  0
 13 16  1  0  0  0  0
 13  1  1  0  0  0  0
 14  2  2  0  0  0  0
 14  9  1  0  0  0  0
 16 25  1  6  0  0  0
 16  3  1  0  0  0  0
 17 20  1  0  0  0  0
 18 19  1  0  0  0  0
 19 20  2  0  0  0  0
 21 17  2  0  0  0  0
 22 18  2  0  0  0  0
 22 21  1  0  0  0  0
 24 23  1  0  0  0  0
 26 25  1  0  0  0  0
 27 26  1  0  0  0  0
M  END
>  <MODEL>
3

>  <REMARK>
 VINA RESULT:      -6.8      1.716      5.995
  Name = 
  4 active torsions:
  status: ('A' for Active; 'I' for Inactive)
    1  A    between atoms: C_9  and  C_15
    2  A    between atoms: C_10  and  C_20
    3  A    between atoms: CA_18  and  C_22
    4  A    between atoms: C_20  and  C_26
                            x       y       z     vdW  Elec       q    Type
                         _______ _______ _______ _____ _____    ______ ____

>  <TORSDO>
F 4

$$$$
=
 OpenBabel11052418193D

 27 30  0  0  1  0  0  0  0  0999 V2000
  189.5830  176.4890  146.3620 N   0  0  0  0  0  0  0  0  0  0  0  0
  189.3960  175.6590  144.0900 C   0  0  0  0  0  0  0  0  0  0  0  0
  191.6390  176.8230  144.3240 C   0  0  0  0  0  2  0  0  0  0  0  0
  190.8830  173.6260  140.8660 N   0  0  0  0  0  0  0  0  0  0  0  0
  193.1790  173.8000  139.8960 C   0  0  0  0  0  1  0  0  0  0  0  0
  188.5670  174.7850  143.4310 N   0  0  0  0  0  0  0  0  0  0  0  0
  192.3120  175.0610  141.8880 N   0  0  0  0  0  0  0  0  0  0  0  0
  193.5220  175.8210  142.1700 C   0  0  0  0  0  1  0  0  0  0  0  0
  191.1340  175.0910  142.5340 C   0  0  0  0  0  0  0  0  0  0  0  0
  188.8800  176.4090  145.2660 C   0  0  0  0  0  0  0  0  0  0  0  0
  192.1280  174.1650  140.8880 C   0  0  0  0  0  0  0  0  0  0  0  0
  190.2840  174.2270  141.9110 C   0  0  0  0  0  0  0  0  0  0  0  0
  190.8600  175.8100  146.5870 C   0  0  1  0  0  3  0  0  0  0  0  0
  190.7310  175.8380  143.6480 C   0  0  0  0  0  0  0  0  0  0  0  0
  188.9770  174.0600  142.3490 C   0  0  0  0  0  3  0  0  0  0  0  0
  192.0100  176.4180  145.7570 C   0  0  1  0  0  3  0  0  0  0  0  0
  185.1060  178.3760  145.1270 N   0  0  0  0  0  0  0  0  0  0  0  0
  187.5640  177.0900  145.2070 C   0  0  0  0  0  0  0  0  0  0  0  0
  187.2940  178.0560  144.2270 C   0  0  0  0  0  3  0  0  0  0  0  0
  186.0500  178.6910  144.2020 C   0  0  0  0  0  3  0  0  0  0  0  0
  185.3390  177.4460  146.0920 C   0  0  0  0  0  3  0  0  0  0  0  0
  186.5700  176.7900  146.1490 C   0  0  0  0  0  3  0  0  0  0  0  0
  191.1910  175.8200  148.0750 C   0  0  0  0  0  2  0  0  0  0  0  0
  191.5070  177.1120  148.5010 O   0  0  0  0  0  1  0  0  0  0  0  0
  193.2730  175.5530  145.7890 C   0  0  0  0  0  2  0  0  0  0  0  0
  194.5450  176.3840  145.8670 C   0  0  0  0  0  2  0  0  0  0  0  0
  194.4190  177.3300  146.8820 O   0  0  0  0  0  1  0  0  0  0  0  0
  1 13  1  0  0  0  0
  2 10  1  0  0  0  0
  3 16  1  0  0  0  0
  4 11  2  0  0  0  0
  4 12  1  0  0  0  0
  5 11  1  0  0  0  0
  6  2  2  0  0  0  0
  7  8  1  0  0  0  0
  7  9  1  0  0  0  0
  9 14  2  0  0  0  0
 10  1  2  0  0  0  0
 11  7  1  0  0  0  0
 12 15  2  0  0  0  0
 12  9  1  0  0  0  0
 13 23  1  1  0  0  0
 14  2  1  0  0  0  0
 14  3  1  0  0  0  0
 15  6  1  0  0  0  0
 16 25  1  6  0  0  0
 16 13  1  0  0  0  0
 17 21  1  0  0  0  0
 18 10  1  0  0  0  0
 18 22  1  0  0  0  0
 19 18  2  0  0  0  0
 20 19  1  0  0  0  0
 20 17  2  0  0  0  0
 21 22  2  0  0  0  0
 23 24  1  0  0  0  0
 25 26  1  0  0  0  0
 26 27  1  0  0  0  0
M  END
>  <MODEL>
4

>  <REMARK>
 VINA RESULT:      -6.7      3.131      7.137
  Name = 
  4 active torsions:
  status: ('A' for Active; 'I' for Inactive)
    1  A    between atoms: C_9  and  C_15
    2  A    between atoms: C_10  and  C_20
    3  A    between atoms: CA_18  and  C_22
    4  A    between atoms: C_20  and  C_26
                            x       y       z     vdW  Elec       q    Type
                         _______ _______ _______ _____ _____    ______ ____

>  <TORSDO>
F 4

$$$$
=
 OpenBabel11052418193D

 27 30  0  0  1  0  0  0  0  0999 V2000
  188.1380  174.9200  140.7500 N   0  0  0  0  0  0  0  0  0  0  0  0
  189.2760  176.2540  142.4260 C   0  0  0  0  0  0  0  0  0  0  0  0
  189.4660  173.8130  143.0950 C   0  0  0  0  0  2  0  0  0  0  0  0
  192.5150  177.0670  144.7890 N   0  0  0  0  0  0  0  0  0  0  0  0
  193.8350  175.4450  146.1570 C   0  0  0  0  0  1  0  0  0  0  0  0
  189.7080  177.5540  142.5170 N   0  0  0  0  0  0  0  0  0  0  0  0
  191.8580  174.8970  144.7080 N   0  0  0  0  0  0  0  0  0  0  0  0
  191.8140  173.4680  144.9820 C   0  0  0  0  0  1  0  0  0  0  0  0
  191.0460  175.6250  143.9210 C   0  0  0  0  0  0  0  0  0  0  0  0
  188.1020  175.9320  141.5720 C   0  0  0  0  0  0  0  0  0  0  0  0
  192.7340  175.7970  145.2150 C   0  0  0  0  0  0  0  0  0  0  0  0
  191.4500  176.9260  143.9790 C   0  0  0  0  0  0  0  0  0  0  0  0
  189.3100  174.0750  140.5150 C   0  0  1  0  0  3  0  0  0  0  0  0
  189.9500  175.2330  143.1420 C   0  0  0  0  0  0  0  0  0  0  0  0
  190.7820  177.9190  143.2760 C   0  0  0  0  0  3  0  0  0  0  0  0
  189.6350  173.1630  141.7160 C   0  0  1  0  0  3  0  0  0  0  0  0
  184.5650  178.2880  141.8270 N   0  0  0  0  0  0  0  0  0  0  0  0
  186.8660  176.7470  141.6520 C   0  0  0  0  0  0  0  0  0  0  0  0
  186.4240  177.4980  140.5540 C   0  0  0  0  0  3  0  0  0  0  0  0
  185.2620  178.2670  140.6610 C   0  0  0  0  0  3  0  0  0  0  0  0
  184.9700  177.5740  142.9110 C   0  0  0  0  0  3  0  0  0  0  0  0
  186.1260  176.7940  142.8420 C   0  0  0  0  0  3  0  0  0  0  0  0
  189.1070  173.2580  139.2440 C   0  0  0  0  0  2  0  0  0  0  0  0
  187.9420  172.4940  139.3290 O   0  0  0  0  0  1  0  0  0  0  0  0
  190.9980  172.4790  141.5780 C   0  0  0  0  0  2  0  0  0  0  0  0
  190.9000  170.9640  141.6620 C   0  0  0  0  0  2  0  0  0  0  0  0
  190.9910  170.4210  140.3810 O   0  0  0  0  0  1  0  0  0  0  0  0
  1 10  2  0  0  0  0
  2  6  2  0  0  0  0
  2 14  1  0  0  0  0
  3 14  1  0  0  0  0
  4 11  2  0  0  0  0
  6 15  1  0  0  0  0
  7  8  1  0  0  0  0
  7 11  1  0  0  0  0
  9 12  1  0  0  0  0
  9  7  1  0  0  0  0
 10 18  1  0  0  0  0
 10  2  1  0  0  0  0
 11  5  1  0  0  0  0
 12  4  1  0  0  0  0
 13 23  1  6  0  0  0
 13  1  1  0  0  0  0
 13 16  1  0  0  0  0
 14  9  2  0  0  0  0
 15 12  2  0  0  0  0
 16 25  1  6  0  0  0
 16  3  1  0  0  0  0
 17 21  1  0  0  0  0
 18 22  1  0  0  0  0
 19 20  1  0  0  0  0
 19 18  2  0  0  0  0
 20 17  2  0  0  0  0
 22 21  2  0  0  0  0
 23 24  1  0  0  0  0
 25 26  1  0  0  0  0
 27 26  1  0  0  0  0
M  END
>  <MODEL>
5

>  <REMARK>
 VINA RESULT:      -6.5      2.846      6.491
  Name = 
  4 active torsions:
  status: ('A' for Active; 'I' for Inactive)
    1  A    between atoms: C_9  and  C_15
    2  A    between atoms: C_10  and  C_20
    3  A    between atoms: CA_18  and  C_22
    4  A    between atoms: C_20  and  C_26
                            x       y       z     vdW  Elec       q    Type
                         _______ _______ _______ _____ _____    ______ ____

>  <TORSDO>
F 4

$$$$
=
 OpenBabel11052418193D

 27 30  0  0  1  0  0  0  0  0999 V2000
  187.7690  174.8900  142.1100 N   0  0  0  0  0  0  0  0  0  0  0  0
  189.2670  176.2800  143.4190 C   0  0  0  0  0  0  0  0  0  0  0  0
  189.7060  173.8550  144.0270 C   0  0  0  0  0  2  0  0  0  0  0  0
  192.9880  177.2210  144.8370 N   0  0  0  0  0  0  0  0  0  0  0  0
  194.6740  175.6560  145.8150 C   0  0  0  0  0  1  0  0  0  0  0  0
  189.6660  177.5940  143.3850 N   0  0  0  0  0  0  0  0  0  0  0  0
  192.4020  175.0310  144.9430 N   0  0  0  0  0  0  0  0  0  0  0  0
  192.4780  173.6050  145.2260 C   0  0  0  0  0  1  0  0  0  0  0  0
  191.3890  175.7240  144.3950 C   0  0  0  0  0  0  0  0  0  0  0  0
  187.9210  175.9120  142.9080 C   0  0  0  0  0  0  0  0  0  0  0  0
  193.3520  175.9630  145.1960 C   0  0  0  0  0  0  0  0  0  0  0  0
  191.7520  177.0360  144.3370 C   0  0  0  0  0  0  0  0  0  0  0  0
  188.8640  174.0780  141.5780 C   0  0  1  0  0  3  0  0  0  0  0  0
  190.1390  175.2890  143.9360 C   0  0  0  0  0  0  0  0  0  0  0  0
  190.8900  178.0000  143.8310 C   0  0  0  0  0  3  0  0  0  0  0  0
  189.5240  173.1920  142.6550 C   0  0  1  0  0  3  0  0  0  0  0  0
  184.4660  178.1300  144.0380 N   0  0  0  0  0  0  0  0  0  0  0  0
  186.7240  176.6910  143.3080 C   0  0  0  0  0  0  0  0  0  0  0  0
  186.4060  176.8840  144.6600 C   0  0  0  0  0  3  0  0  0  0  0  0
  185.2660  177.6130  145.0080 C   0  0  0  0  0  3  0  0  0  0  0  0
  184.7450  177.9570  142.7190 C   0  0  0  0  0  3  0  0  0  0  0  0
  185.8760  177.2350  142.3320 C   0  0  0  0  0  3  0  0  0  0  0  0
  188.3590  173.2380  140.4100 C   0  0  0  0  0  2  0  0  0  0  0  0
  188.3030  174.0010  139.2420 O   0  0  0  0  0  1  0  0  0  0  0  0
  190.8240  172.5470  142.1640 C   0  0  0  0  0  2  0  0  0  0  0  0
  191.0060  171.1320  142.6910 C   0  0  0  0  0  2  0  0  0  0  0  0
  190.4990  170.2230  141.7640 O   0  0  0  0  0  1  0  0  0  0  0  0
  1 10  2  0  0  0  0
  2 14  1  0  0  0  0
  4 11  2  0  0  0  0
  6  2  2  0  0  0  0
  6 15  1  0  0  0  0
  7 11  1  0  0  0  0
  7  8  1  0  0  0  0
  9  7  1  0  0  0  0
 10 18  1  0  0  0  0
 10  2  1  0  0  0  0
 11  5  1  0  0  0  0
 12  9  1  0  0  0  0
 12  4  1  0  0  0  0
 13 23  1  6  0  0  0
 13  1  1  0  0  0  0
 13 16  1  0  0  0  0
 14  3  1  0  0  0  0
 14  9  2  0  0  0  0
 15 12  2  0  0  0  0
 16 25  1  6  0  0  0
 16  3  1  0  0  0  0
 17 20  1  0  0  0  0
 18 19  1  0  0  0  0
 19 20  2  0  0  0  0
 21 17  2  0  0  0  0
 22 21  1  0  0  0  0
 22 18  2  0  0  0  0
 24 23  1  0  0  0  0
 25 26  1  0  0  0  0
 27 26  1  0  0  0  0
M  END
>  <MODEL>
6

>  <REMARK>
 VINA RESULT:      -6.5      2.178      6.365
  Name = 
  4 active torsions:
  status: ('A' for Active; 'I' for Inactive)
    1  A    between atoms: C_9  and  C_15
    2  A    between atoms: C_10  and  C_20
    3  A    between atoms: CA_18  and  C_22
    4  A    between atoms: C_20  and  C_26
                            x       y       z     vdW  Elec       q    Type
                         _______ _______ _______ _____ _____    ______ ____

>  <TORSDO>
F 4

$$$$
=
 OpenBabel11052418193D

 27 30  0  0  1  0  0  0  0  0999 V2000
  190.6210  175.3420  142.9910 N   0  0  0  0  0  0  0  0  0  0  0  0
  188.2970  175.9820  142.7100 C   0  0  0  0  0  0  0  0  0  0  0  0
  188.6800  175.4480  145.1620 C   0  0  0  0  0  2  0  0  0  0  0  0
  185.0090  178.1660  143.7840 N   0  0  0  0  0  0  0  0  0  0  0  0
  184.1310  178.5410  146.0940 C   0  0  0  0  0  1  0  0  0  0  0  0
  187.5580  176.5780  141.7190 N   0  0  0  0  0  0  0  0  0  0  0  0
  186.1660  177.2010  145.4810 N   0  0  0  0  0  0  0  0  0  0  0  0
  186.5350  176.7930  146.8290 C   0  0  0  0  0  1  0  0  0  0  0  0
  186.7700  176.9000  144.3190 C   0  0  0  0  0  0  0  0  0  0  0  0
  189.4980  175.1840  142.3460 C   0  0  0  0  0  0  0  0  0  0  0  0
  185.1070  177.9680  145.1230 C   0  0  0  0  0  0  0  0  0  0  0  0
  186.0670  177.4840  143.3080 C   0  0  0  0  0  0  0  0  0  0  0  0
  190.8480  176.3380  144.0400 C   0  0  1  0  0  3  0  0  0  0  0  0
  187.9140  176.1310  144.0660 C   0  0  0  0  0  0  0  0  0  0  0  0
  186.4500  177.3300  141.9830 C   0  0  0  0  0  3  0  0  0  0  0  0
  190.0970  176.0060  145.3460 C   0  0  1  0  0  3  0  0  0  0  0  0
  189.3390  172.2950  139.2210 N   0  0  0  0  0  0  0  0  0  0  0  0
  189.4350  174.1840  141.2520 C   0  0  0  0  0  0  0  0  0  0  0  0
  188.2180  173.5970  140.8790 C   0  0  0  0  0  3  0  0  0  0  0  0
  188.1900  172.6500  139.8530 C   0  0  0  0  0  3  0  0  0  0  0  0
  190.5360  172.8430  139.5630 C   0  0  0  0  0  3  0  0  0  0  0  0
  190.6040  173.7940  140.5830 C   0  0  0  0  0  3  0  0  0  0  0  0
  192.3440  176.4870  144.2900 C   0  0  0  0  0  2  0  0  0  0  0  0
  192.8700  175.3210  144.8500 O   0  0  0  0  0  1  0  0  0  0  0  0
  190.1200  177.1680  146.3430 C   0  0  0  0  0  2  0  0  0  0  0  0
  190.8150  176.8020  147.6460 C   0  0  0  0  0  2  0  0  0  0  0  0
  191.0550  175.4290  147.6740 O   0  0  0  0  0  1  0  0  0  0  0  0
  1 13  1  0  0  0  0
  2 14  1  0  0  0  0
  3 16  1  0  0  0  0
  4 11  2  0  0  0  0
  6 15  1  0  0  0  0
  6  2  2  0  0  0  0
  7  8  1  0  0  0  0
  9  7  1  0  0  0  0
 10  2  1  0  0  0  0
 10  1  2  0  0  0  0
 11  7  1  0  0  0  0
 11  5  1  0  0  0  0
 12  4  1  0  0  0  0
 12  9  1  0  0  0  0
 13 23  1  1  0  0  0
 13 16  1  0  0  0  0
 14  9  2  0  0  0  0
 14  3  1  0  0  0  0
 15 12  2  0  0  0  0
 16 25  1  1  0  0  0
 17 21  2  0  0  0  0
 17 20  1  0  0  0  0
 18 10  1  0  0  0  0
 19 18  1  0  0  0  0
 20 19  2  0  0  0  0
 21 22  1  0  0  0  0
 22 18  2  0  0  0  0
 23 24  1  0  0  0  0
 25 26  1  0  0  0  0
 26 27  1  0  0  0  0
M  END
>  <MODEL>
7

>  <REMARK>
 VINA RESULT:      -6.4      2.711      5.106
  Name = 
  4 active torsions:
  status: ('A' for Active; 'I' for Inactive)
    1  A    between atoms: C_9  and  C_15
    2  A    between atoms: C_10  and  C_20
    3  A    between atoms: CA_18  and  C_22
    4  A    between atoms: C_20  and  C_26
                            x       y       z     vdW  Elec       q    Type
                         _______ _______ _______ _____ _____    ______ ____

>  <TORSDO>
F 4

$$$$
=
 OpenBabel11052418193D

 27 30  0  0  1  0  0  0  0  0999 V2000
  187.2380  176.7240  144.5250 N   0  0  0  0  0  0  0  0  0  0  0  0
  188.0290  174.9010  143.1330 C   0  0  0  0  0  0  0  0  0  0  0  0
  189.9960  175.7840  144.4730 C   0  0  0  0  0  2  0  0  0  0  0  0
  190.0670  171.3920  142.6110 N   0  0  0  0  0  0  0  0  0  0  0  0
  192.3380  170.8180  143.4810 C   0  0  0  0  0  1  0  0  0  0  0  0
  187.4400  173.9090  142.3900 N   0  0  0  0  0  0  0  0  0  0  0  0
  191.1180  172.9850  143.8380 N   0  0  0  0  0  0  0  0  0  0  0  0
  192.1460  173.6520  144.6240 C   0  0  0  0  0  1  0  0  0  0  0  0
  189.9190  173.4560  143.4540 C   0  0  0  0  0  0  0  0  0  0  0  0
  187.3080  176.1850  143.3390 C   0  0  0  0  0  0  0  0  0  0  0  0
  191.1760  171.7370  143.3150 C   0  0  0  0  0  0  0  0  0  0  0  0
  189.2980  172.4920  142.7170 C   0  0  0  0  0  0  0  0  0  0  0  0
  187.7580  176.1160  145.7510 C   0  0  1  0  0  3  0  0  0  0  0  0
  189.3130  174.6950  143.6970 C   0  0  0  0  0  0  0  0  0  0  0  0
  188.0420  172.7040  142.1670 C   0  0  0  0  0  3  0  0  0  0  0  0
  189.3000  176.1060  145.8010 C   0  0  1  0  0  3  0  0  0  0  0  0
  185.4740  178.2150  140.0760 N   0  0  0  0  0  0  0  0  0  0  0  0
  186.6690  176.8820  142.1970 C   0  0  0  0  0  0  0  0  0  0  0  0
  187.2540  176.8660  140.9220 C   0  0  0  0  0  3  0  0  0  0  0  0
  186.6360  177.5420  139.8670 C   0  0  0  0  0  3  0  0  0  0  0  0
  184.8850  178.2520  141.3010 C   0  0  0  0  0  3  0  0  0  0  0  0
  185.4720  177.5890  142.3800 C   0  0  0  0  0  3  0  0  0  0  0  0
  187.1730  176.8270  146.9650 C   0  0  0  0  0  2  0  0  0  0  0  0
  185.7780  176.7640  146.9490 O   0  0  0  0  0  1  0  0  0  0  0  0
  189.8410  175.2430  146.9450 C   0  0  0  0  0  2  0  0  0  0  0  0
  191.0780  175.8460  147.5940 C   0  0  0  0  0  2  0  0  0  0  0  0
  190.8180  177.1690  147.9460 O   0  0  0  0  0  1  0  0  0  0  0  0
  1 13  1  0  0  0  0
  2 10  1  0  0  0  0
  2 14  1  0  0  0  0
  3 16  1  0  0  0  0
  4 12  1  0  0  0  0
  4 11  2  0  0  0  0
  6  2  2  0  0  0  0
  7  8  1  0  0  0  0
  9 14  2  0  0  0  0
  9  7  1  0  0  0  0
 10  1  2  0  0  0  0
 11  5  1  0  0  0  0
 11  7  1  0  0  0  0
 12  9  1  0  0  0  0
 13 16  1  0  0  0  0
 13 23  1  1  0  0  0
 14  3  1  0  0  0  0
 15  6  1  0  0  0  0
 15 12  2  0  0  0  0
 16 25  1  1  0  0  0
 17 21  1  0  0  0  0
 18 22  1  0  0  0  0
 18 10  1  0  0  0  0
 19 18  2  0  0  0  0
 20 17  2  0  0  0  0
 20 19  1  0  0  0  0
 21 22  2  0  0  0  0
 24 23  1  0  0  0  0
 25 26  1  0  0  0  0
 26 27  1  0  0  0  0
M  END
>  <MODEL>
8

>  <REMARK>
 VINA RESULT:      -6.2      3.062      7.076
  Name = 
  4 active torsions:
  status: ('A' for Active; 'I' for Inactive)
    1  A    between atoms: C_9  and  C_15
    2  A    between atoms: C_10  and  C_20
    3  A    between atoms: CA_18  and  C_22
    4  A    between atoms: C_20  and  C_26
                            x       y       z     vdW  Elec       q    Type
                         _______ _______ _______ _____ _____    ______ ____

>  <TORSDO>
F 4

$$$$
=
 OpenBabel11052418193D

 27 30  0  0  1  0  0  0  0  0999 V2000
  188.2800  177.0630  144.2570 N   0  0  0  0  0  0  0  0  0  0  0  0
  188.4510  175.3380  142.5590 C   0  0  0  0  0  0  0  0  0  0  0  0
  190.7260  176.4390  142.8010 C   0  0  0  0  0  2  0  0  0  0  0  0
  190.2960  172.0800  140.9110 N   0  0  0  0  0  0  0  0  0  0  0  0
  192.7440  171.7660  140.5160 C   0  0  0  0  0  1  0  0  0  0  0  0
  187.6720  174.2850  142.1500 N   0  0  0  0  0  0  0  0  0  0  0  0
  191.6550  173.7830  141.5450 N   0  0  0  0  0  0  0  0  0  0  0  0
  192.8660  174.5620  141.7570 C   0  0  0  0  0  1  0  0  0  0  0  0
  190.3830  174.1150  141.8280 C   0  0  0  0  0  0  0  0  0  0  0  0
  187.8060  176.5330  143.1630 C   0  0  0  0  0  0  0  0  0  0  0  0
  191.5680  172.5480  140.9950 C   0  0  0  0  0  0  0  0  0  0  0  0
  189.5770  173.0860  141.4420 C   0  0  0  0  0  0  0  0  0  0  0  0
  189.3960  176.5190  145.0320 C   0  0  1  0  0  3  0  0  0  0  0  0
  189.8590  175.2790  142.4050 C   0  0  0  0  0  0  0  0  0  0  0  0
  188.1990  173.1550  141.5950 C   0  0  0  0  0  3  0  0  0  0  0  0
  190.7530  176.6820  144.3160 C   0  0  1  0  0  3  0  0  0  0  0  0
  184.4000  178.2890  141.3050 N   0  0  0  0  0  0  0  0  0  0  0  0
  186.6190  177.1530  142.5240 C   0  0  0  0  0  0  0  0  0  0  0  0
  185.4320  177.3520  143.2440 C   0  0  0  0  0  3  0  0  0  0  0  0
  184.3270  177.9270  142.6130 C   0  0  0  0  0  3  0  0  0  0  0  0
  185.5350  178.1050  140.5790 C   0  0  0  0  0  3  0  0  0  0  0  0
  186.6620  177.5340  141.1750 C   0  0  0  0  0  3  0  0  0  0  0  0
  189.4240  177.1620  146.4140 C   0  0  0  0  0  2  0  0  0  0  0  0
  188.1260  177.3930  146.8760 O   0  0  0  0  0  1  0  0  0  0  0  0
  191.8710  175.8880  144.9950 C   0  0  0  0  0  2  0  0  0  0  0  0
  193.1200  176.7240  145.2300 C   0  0  0  0  0  2  0  0  0  0  0  0
  193.3830  176.7920  146.5970 O   0  0  0  0  0  1  0  0  0  0  0  0
  1 13  1  0  0  0  0
  2 10  1  0  0  0  0
  3 16  1  0  0  0  0
  4 11  2  0  0  0  0
  4 12  1  0  0  0  0
  5 11  1  0  0  0  0
  6  2  2  0  0  0  0
  7  8  1  0  0  0  0
  7  9  1  0  0  0  0
  9 14  2  0  0  0  0
 10  1  2  0  0  0  0
 11  7  1  0  0  0  0
 12 15  2  0  0  0  0
 12  9  1  0  0  0  0
 13 23  1  1  0  0  0
 14  2  1  0  0  0  0
 14  3  1  0  0  0  0
 15  6  1  0  0  0  0
 16 25  1  1  0  0  0
 16 13  1  0  0  0  0
 17 20  1  0  0  0  0
 18 10  1  0  0  0  0
 18 19  1  0  0  0  0
 20 19  2  0  0  0  0
 21 22  1  0  0  0  0
 21 17  2  0  0  0  0
 22 18  2  0  0  0  0
 23 24  1  0  0  0  0
 25 26  1  0  0  0  0
 26 27  1  0  0  0  0
M  END
>  <MODEL>
9

>  <REMARK>
 VINA RESULT:      -6.2      2.972      7.303
  Name = 
  4 active torsions:
  status: ('A' for Active; 'I' for Inactive)
    1  A    between atoms: C_9  and  C_15
    2  A    between atoms: C_10  and  C_20
    3  A    between atoms: CA_18  and  C_22
    4  A    between atoms: C_20  and  C_26
                            x       y       z     vdW  Elec       q    Type
                         _______ _______ _______ _____ _____    ______ ____

>  <TORSDO>
F 4

$$$$
