=
 OpenBabel11052418113D

 28 30  0  0  1  0  0  0  0  0999 V2000
  187.4340  177.9770  144.9080 C   0  0  1  0  0  3  0  0  0  0  0  0
  192.0950  176.1840  143.0000 C   0  0  0  0  0  3  0  0  0  0  0  0
  188.6530  174.6200  147.9510 O   0  0  0  0  0  1  0  0  0  0  0  0
  192.9060  176.0050  145.2880 C   0  0  0  0  0  0  0  0  0  0  0  0
  190.4010  176.1320  144.8410 C   0  0  2  0  0  3  0  0  0  0  0  0
  194.4730  176.1240  143.4390 C   0  0  0  0  0  0  0  0  0  0  0  0
  191.8290  176.0760  144.3710 C   0  0  0  0  0  0  0  0  0  0  0  0
  191.2560  176.0940  147.2110 C   0  0  0  0  0  2  0  0  0  0  0  0
  194.2200  176.0170  144.8100 C   0  0  0  0  0  3  0  0  0  0  0  0
  187.8860  176.0260  146.2670 C   0  0  0  0  0  0  0  0  0  0  0  0
  189.9340  177.5930  144.8290 C   0  0  0  0  0  2  0  0  0  0  0  0
  192.6850  175.7890  146.7620 C   0  0  0  0  0  2  0  0  0  0  0  0
  188.8800  175.3890  146.8170 C   0  0  0  0  0  0  0  0  0  0  0  0
  186.9860  176.7250  145.6360 C   0  0  0  0  0  0  0  0  0  0  0  0
  196.1230  176.1450  142.8550 Cl  0  0  0  0  0  0  0  0  0  0  0  0
  193.4120  176.2040  142.5360 C   0  0  0  0  0  3  0  0  0  0  0  0
  190.2690  175.4670  146.2340 C   0  0  1  0  0  3  0  0  0  0  0  0
  188.6570  177.7400  144.0070 C   0  0  0  0  0  2  0  0  0  0  0  0
  186.3060  178.6940  144.1550 C   0  0  1  0  0  3  0  0  0  0  0  0
  185.8890  179.8150  144.8760 O   0  0  0  0  0  1  0  0  0  0  0  0
  186.7190  179.1030  142.7440 C   0  0  0  0  0  2  0  0  0  0  0  0
  185.0650  177.4380  142.3450 O   0  0  0  0  0  1  0  0  0  0  0  0
  185.9510  178.3050  141.7000 C   0  0  2  0  0  3  0  0  0  0  0  0
  186.9140  177.5060  140.8270 C   0  0  2  0  0  3  0  0  0  0  0  0
  186.3510  177.3440  139.4260 C   0  0  0  0  0  1  0  0  0  0  0  0
  187.1210  176.2410  141.3790 O   0  0  0  0  0  1  0  0  0  0  0  0
  185.5670  176.2550  145.6640 C   0  0  0  0  0  2  0  0  0  0  0  0
  184.8730  176.8920  146.6930 O   0  0  0  0  0  1  0  0  0  0  0  0
  1 19  1  6  0  0  0
  1 14  1  0  0  0  0
  2  7  1  0  0  0  0
  4 12  1  0  0  0  0
  5 11  1  1  0  0  0
  5 17  1  0  0  0  0
  6  9  2  0  0  0  0
  7  5  1  0  0  0  0
  7  4  2  0  0  0  0
  9  4  1  0  0  0  0
 10 13  2  0  0  0  0
 12  8  1  0  0  0  0
 13  3  1  0  0  0  0
 14 27  1  0  0  0  0
 14 10  2  0  0  0  0
 15  6  1  0  0  0  0
 16  2  2  0  0  0  0
 16  6  1  0  0  0  0
 17 13  1  0  0  0  0
 17  8  1  1  0  0  0
 18 11  1  0  0  0  0
 18  1  1  0  0  0  0
 19 20  1  1  0  0  0
 21 19  1  0  0  0  0
 23 22  1  1  0  0  0
 23 21  1  0  0  0  0
 24 25  1  6  0  0  0
 24 26  1  0  0  0  0
 24 23  1  0  0  0  0
 27 28  1  0  0  0  0
M  END
>  <MODEL>
1

>  <REMARK>
 VINA RESULT:      -7.4      0.000      0.000
  Name = 
  5 active torsions:
  status: ('A' for Active; 'I' for Inactive)
    1  A    between atoms: C_1  and  C_2
    2  A    between atoms: C_2  and  C_3
    3  A    between atoms: C_3  and  C_11
    4  A    between atoms: C_6  and  C_11
    5  A    between atoms: C_19  and  C_21
                            x       y       z     vdW  Elec       q    Type
                         _______ _______ _______ _____ _____    ______ ____

>  <TORSDO>
F 5

$$$$
=
 OpenBabel11052418113D

 28 30  0  0  1  0  0  0  0  0999 V2000
  186.5930  177.4940  142.8070 C   0  0  1  0  0  3  0  0  0  0  0  0
  191.7180  177.1460  144.2900 C   0  0  0  0  0  3  0  0  0  0  0  0
  188.3350  174.1740  139.9860 O   0  0  0  0  0  1  0  0  0  0  0  0
  191.5820  174.7320  144.0180 C   0  0  0  0  0  0  0  0  0  0  0  0
  189.8500  176.2300  142.9000 C   0  0  2  0  0  3  0  0  0  0  0  0
  193.3210  175.7120  145.3960 C   0  0  0  0  0  0  0  0  0  0  0  0
  191.0910  176.0280  143.7270 C   0  0  0  0  0  0  0  0  0  0  0  0
  189.6340  173.7240  142.7440 C   0  0  0  0  0  2  0  0  0  0  0  0
  192.7030  174.5880  144.8410 C   0  0  0  0  0  3  0  0  0  0  0  0
  187.5680  176.0440  141.1320 C   0  0  0  0  0  0  0  0  0  0  0  0
  188.6620  176.4670  143.8410 C   0  0  0  0  0  2  0  0  0  0  0  0
  191.0130  173.4990  143.3650 C   0  0  0  0  0  2  0  0  0  0  0  0
  188.4630  175.1060  141.0080 C   0  0  0  0  0  0  0  0  0  0  0  0
  186.7350  177.0150  141.3760 C   0  0  0  0  0  0  0  0  0  0  0  0
  194.7190  175.5170  146.4320 Cl  0  0  0  0  0  0  0  0  0  0  0  0
  192.8310  176.9890  145.1200 C   0  0  0  0  0  3  0  0  0  0  0  0
  189.6380  175.0240  141.9500 C   0  0  1  0  0  3  0  0  0  0  0  0
  187.9470  177.7660  143.4840 C   0  0  0  0  0  2  0  0  0  0  0  0
  185.6280  178.6750  142.9740 C   0  0  1  0  0  3  0  0  0  0  0  0
  184.3190  178.2580  142.7260 O   0  0  0  0  0  1  0  0  0  0  0  0
  185.7220  179.3090  144.3590 C   0  0  0  0  0  2  0  0  0  0  0  0
  183.8430  179.0220  145.7910 O   0  0  0  0  0  1  0  0  0  0  0  0
  185.0490  178.4320  145.4050 C   0  0  2  0  0  3  0  0  0  0  0  0
  185.9550  178.2640  146.6210 C   0  0  2  0  0  3  0  0  0  0  0  0
  186.3760  176.8130  146.7740 C   0  0  0  0  0  1  0  0  0  0  0  0
  185.2820  178.6620  147.7770 O   0  0  0  0  0  1  0  0  0  0  0  0
  185.9680  177.6030  140.2340 C   0  0  0  0  0  2  0  0  0  0  0  0
  186.5500  177.2280  139.0240 O   0  0  0  0  0  1  0  0  0  0  0  0
  1 19  1  6  0  0  0
  1 18  1  0  0  0  0
  2 16  1  0  0  0  0
  3 13  1  0  0  0  0
  4  9  2  0  0  0  0
  5  7  1  0  0  0  0
  5 11  1  1  0  0  0
  6 15  1  0  0  0  0
  7  4  1  0  0  0  0
  7  2  2  0  0  0  0
  8 12  1  0  0  0  0
  9  6  1  0  0  0  0
 10 14  2  0  0  0  0
 12  4  1  0  0  0  0
 13 10  2  0  0  0  0
 13 17  1  0  0  0  0
 14  1  1  0  0  0  0
 16  6  2  0  0  0  0
 17  8  1  1  0  0  0
 17  5  1  0  0  0  0
 18 11  1  0  0  0  0
 19 20  1  1  0  0  0
 19 21  1  0  0  0  0
 21 23  1  0  0  0  0
 23 22  1  1  0  0  0
 23 24  1  0  0  0  0
 24 25  1  1  0  0  0
 24 26  1  0  0  0  0
 27 14  1  0  0  0  0
 28 27  1  0  0  0  0
M  END
>  <MODEL>
2

>  <REMARK>
 VINA RESULT:      -7.3      2.103      4.402
  Name = 
  5 active torsions:
  status: ('A' for Active; 'I' for Inactive)
    1  A    between atoms: C_1  and  C_2
    2  A    between atoms: C_2  and  C_3
    3  A    between atoms: C_3  and  C_11
    4  A    between atoms: C_6  and  C_11
    5  A    between atoms: C_19  and  C_21
                            x       y       z     vdW  Elec       q    Type
                         _______ _______ _______ _____ _____    ______ ____

>  <TORSDO>
F 5

$$$$
=
 OpenBabel11052418113D

 28 30  0  0  1  0  0  0  0  0999 V2000
  192.3050  175.0090  144.3900 C   0  0  1  0  0  3  0  0  0  0  0  0
  187.9260  177.7730  143.0600 C   0  0  0  0  0  3  0  0  0  0  0  0
  190.9670  176.9700  148.4370 O   0  0  0  0  0  1  0  0  0  0  0  0
  186.9170  177.0930  145.1670 C   0  0  0  0  0  0  0  0  0  0  0  0
  189.4440  176.9570  144.8740 C   0  0  2  0  0  3  0  0  0  0  0  0
  185.5230  177.8410  143.3280 C   0  0  0  0  0  0  0  0  0  0  0  0
  188.0700  177.3070  144.3730 C   0  0  0  0  0  0  0  0  0  0  0  0
  188.3780  176.1200  146.9970 C   0  0  0  0  0  2  0  0  0  0  0  0
  185.6540  177.3760  144.6390 C   0  0  0  0  0  3  0  0  0  0  0  0
  191.8190  176.2900  146.3850 C   0  0  0  0  0  0  0  0  0  0  0  0
  189.8430  175.5890  144.3070 C   0  0  0  0  0  2  0  0  0  0  0  0
  187.0110  176.6890  146.6150 C   0  0  0  0  0  2  0  0  0  0  0  0
  190.8090  176.7330  147.0770 C   0  0  0  0  0  0  0  0  0  0  0  0
  192.7400  175.8310  145.5870 C   0  0  0  0  0  0  0  0  0  0  0  0
  183.9350  178.1830  142.6770 Cl  0  0  0  0  0  0  0  0  0  0  0  0
  186.6580  178.0420  142.5400 C   0  0  0  0  0  3  0  0  0  0  0  0
  189.4780  177.0030  146.4220 C   0  0  1  0  0  3  0  0  0  0  0  0
  191.1820  175.6800  143.5810 C   0  0  0  0  0  2  0  0  0  0  0  0
  193.4640  174.5630  143.4880 C   0  0  1  0  0  3  0  0  0  0  0  0
  193.4600  173.1720  143.3610 O   0  0  0  0  0  1  0  0  0  0  0  0
  193.4100  175.2150  142.1100 C   0  0  0  0  0  2  0  0  0  0  0  0
  194.9020  176.1760  140.5230 O   0  0  0  0  0  1  0  0  0  0  0  0
  194.6140  176.1200  141.8890 C   0  0  2  0  0  3  0  0  0  0  0  0
  195.8240  175.5900  142.6520 C   0  0  2  0  0  3  0  0  0  0  0  0
  196.7010  176.7380  143.1210 C   0  0  0  0  0  1  0  0  0  0  0  0
  196.5790  174.7530  141.8290 O   0  0  0  0  0  1  0  0  0  0  0  0
  194.1720  176.1370  145.8950 C   0  0  0  0  0  2  0  0  0  0  0  0
  194.2480  177.1370  146.8640 O   0  0  0  0  0  1  0  0  0  0  0  0
  1 19  1  6  0  0  0
  1 14  1  0  0  0  0
  2  7  1  0  0  0  0
  4 12  1  0  0  0  0
  5 11  1  1  0  0  0
  5 17  1  0  0  0  0
  6  9  2  0  0  0  0
  7  5  1  0  0  0  0
  7  4  2  0  0  0  0
  9  4  1  0  0  0  0
 10 13  2  0  0  0  0
 12  8  1  0  0  0  0
 13  3  1  0  0  0  0
 14 27  1  0  0  0  0
 14 10  2  0  0  0  0
 15  6  1  0  0  0  0
 16  2  2  0  0  0  0
 16  6  1  0  0  0  0
 17  8  1  1  0  0  0
 17 13  1  0  0  0  0
 18 11  1  0  0  0  0
 18  1  1  0  0  0  0
 19 20  1  6  0  0  0
 21 19  1  0  0  0  0
 23 22  1  6  0  0  0
 23 21  1  0  0  0  0
 23 24  1  0  0  0  0
 24 25  1  6  0  0  0
 26 24  1  0  0  0  0
 27 28  1  0  0  0  0
M  END
>  <MODEL>
3

>  <REMARK>
 VINA RESULT:      -7.2      3.949      7.242
  Name = 
  5 active torsions:
  status: ('A' for Active; 'I' for Inactive)
    1  A    between atoms: C_1  and  C_2
    2  A    between atoms: C_2  and  C_3
    3  A    between atoms: C_3  and  C_11
    4  A    between atoms: C_6  and  C_11
    5  A    between atoms: C_19  and  C_21
                            x       y       z     vdW  Elec       q    Type
                         _______ _______ _______ _____ _____    ______ ____

>  <TORSDO>
F 5

$$$$
=
 OpenBabel11052418113D

 28 30  0  0  1  0  0  0  0  0999 V2000
  187.8790  177.2430  144.9440 C   0  0  1  0  0  3  0  0  0  0  0  0
  190.5550  172.6320  144.5440 C   0  0  0  0  0  3  0  0  0  0  0  0
  190.9220  177.4220  148.5100 O   0  0  0  0  0  1  0  0  0  0  0  0
  192.5930  173.8210  145.1420 C   0  0  0  0  0  0  0  0  0  0  0  0
  190.3250  174.8560  145.6690 C   0  0  2  0  0  3  0  0  0  0  0  0
  192.7130  171.6870  143.9940 C   0  0  0  0  0  0  0  0  0  0  0  0
  191.1790  173.7370  145.1360 C   0  0  0  0  0  0  0  0  0  0  0  0
  192.4380  176.1420  146.1520 C   0  0  0  0  0  2  0  0  0  0  0  0
  193.3470  172.7850  144.5810 C   0  0  0  0  0  3  0  0  0  0  0  0
  189.1970  177.1790  146.9720 C   0  0  0  0  0  0  0  0  0  0  0  0
  189.8430  175.7130  144.4930 C   0  0  0  0  0  2  0  0  0  0  0  0
  193.3230  174.9330  145.8490 C   0  0  0  0  0  2  0  0  0  0  0  0
  190.3640  176.7930  147.4050 C   0  0  0  0  0  0  0  0  0  0  0  0
  188.0520  177.4810  146.4310 C   0  0  0  0  0  0  0  0  0  0  0  0
  193.6680  170.4010  143.2880 Cl  0  0  0  0  0  0  0  0  0  0  0  0
  191.3190  171.6090  143.9780 C   0  0  0  0  0  3  0  0  0  0  0  0
  191.1090  175.6690  146.7290 C   0  0  1  0  0  3  0  0  0  0  0  0
  188.3230  175.8360  144.5080 C   0  0  0  0  0  2  0  0  0  0  0  0
  186.4770  177.5820  144.4200 C   0  0  1  0  0  3  0  0  0  0  0  0
  186.3350  178.9670  144.3040 O   0  0  0  0  0  1  0  0  0  0  0  0
  186.1800  176.9110  143.0820 C   0  0  0  0  0  2  0  0  0  0  0  0
  185.1080  177.8350  141.1680 O   0  0  0  0  0  1  0  0  0  0  0  0
  186.2700  177.9140  141.9400 C   0  0  2  0  0  3  0  0  0  0  0  0
  187.4890  177.6210  141.0710 C   0  0  2  0  0  3  0  0  0  0  0  0
  187.7130  176.1240  140.9570 C   0  0  0  0  0  1  0  0  0  0  0  0
  188.6260  178.2060  141.6320 O   0  0  0  0  0  1  0  0  0  0  0  0
  186.9750  178.0450  147.3030 C   0  0  0  0  0  2  0  0  0  0  0  0
  186.2000  177.0130  147.8310 O   0  0  0  0  0  1  0  0  0  0  0  0
  1 19  1  1  0  0  0
  1 14  1  0  0  0  0
  2  7  1  0  0  0  0
  4 12  1  0  0  0  0
  5 11  1  6  0  0  0
  5 17  1  0  0  0  0
  6  9  2  0  0  0  0
  7  4  2  0  0  0  0
  7  5  1  0  0  0  0
  9  4  1  0  0  0  0
 10 13  2  0  0  0  0
 11 18  1  0  0  0  0
 12  8  1  0  0  0  0
 13  3  1  0  0  0  0
 14 10  2  0  0  0  0
 14 27  1  0  0  0  0
 15  6  1  0  0  0  0
 16  6  1  0  0  0  0
 16  2  2  0  0  0  0
 17  8  1  6  0  0  0
 17 13  1  0  0  0  0
 18  1  1  0  0  0  0
 19 20  1  6  0  0  0
 21 19  1  0  0  0  0
 23 22  1  6  0  0  0
 23 21  1  0  0  0  0
 24 25  1  1  0  0  0
 24 26  1  0  0  0  0
 24 23  1  0  0  0  0
 27 28  1  0  0  0  0
M  END
>  <MODEL>
4

>  <REMARK>
 VINA RESULT:      -7.1      2.427      2.690
  Name = 
  5 active torsions:
  status: ('A' for Active; 'I' for Inactive)
    1  A    between atoms: C_1  and  C_2
    2  A    between atoms: C_2  and  C_3
    3  A    between atoms: C_3  and  C_11
    4  A    between atoms: C_6  and  C_11
    5  A    between atoms: C_19  and  C_21
                            x       y       z     vdW  Elec       q    Type
                         _______ _______ _______ _____ _____    ______ ____

>  <TORSDO>
F 5

$$$$
=
 OpenBabel11052418113D

 28 30  0  0  1  0  0  0  0  0999 V2000
  189.4150  175.1760  145.6900 C   0  0  1  0  0  3  0  0  0  0  0  0
  186.3090  177.8050  142.2220 C   0  0  0  0  0  3  0  0  0  0  0  0
  187.6160  178.6720  148.2510 O   0  0  0  0  0  1  0  0  0  0  0  0
  184.6710  178.1070  143.9960 C   0  0  0  0  0  0  0  0  0  0  0  0
  187.0810  177.5300  144.5870 C   0  0  2  0  0  3  0  0  0  0  0  0
  184.0050  178.2920  141.6700 C   0  0  0  0  0  0  0  0  0  0  0  0
  186.0020  177.8500  143.5880 C   0  0  0  0  0  0  0  0  0  0  0  0
  185.3460  177.7030  146.4060 C   0  0  0  0  0  2  0  0  0  0  0  0
  183.6860  178.3390  143.0300 C   0  0  0  0  0  3  0  0  0  0  0  0
  188.7680  177.1640  146.9080 C   0  0  0  0  0  0  0  0  0  0  0  0
  187.2680  176.0100  144.6430 C   0  0  0  0  0  2  0  0  0  0  0  0
  184.2980  178.2660  145.4470 C   0  0  0  0  0  2  0  0  0  0  0  0
  187.7530  177.9670  147.0620 C   0  0  0  0  0  0  0  0  0  0  0  0
  189.7210  176.3200  146.6380 C   0  0  0  0  0  0  0  0  0  0  0  0
  182.7620  178.5770  140.4710 Cl  0  0  0  0  0  0  0  0  0  0  0  0
  185.3150  178.0280  141.2670 C   0  0  0  0  0  3  0  0  0  0  0  0
  186.7340  178.1490  145.9650 C   0  0  1  0  0  3  0  0  0  0  0  0
  188.7270  175.6400  144.3950 C   0  0  0  0  0  2  0  0  0  0  0  0
  190.6210  174.2730  145.3980 C   0  0  1  0  0  3  0  0  0  0  0  0
  190.1970  172.9520  145.2350 O   0  0  0  0  0  1  0  0  0  0  0  0
  191.4030  174.7280  144.1700 C   0  0  0  0  0  2  0  0  0  0  0  0
  193.1300  174.2800  145.7460 O   0  0  0  0  0  1  0  0  0  0  0  0
  192.8940  174.7980  144.4700 C   0  0  2  0  0  3  0  0  0  0  0  0
  193.3830  176.2410  144.3970 C   0  0  2  0  0  3  0  0  0  0  0  0
  192.3060  177.1390  143.8150 C   0  0  0  0  0  1  0  0  0  0  0  0
  194.5200  176.3200  143.5920 O   0  0  0  0  0  1  0  0  0  0  0  0
  191.0590  176.5230  147.2740 C   0  0  0  0  0  2  0  0  0  0  0  0
  191.1890  175.6940  148.3880 O   0  0  0  0  0  1  0  0  0  0  0  0
  1 19  1  6  0  0  0
  1 14  1  0  0  0  0
  2  7  1  0  0  0  0
  4 12  1  0  0  0  0
  5 11  1  1  0  0  0
  5 17  1  0  0  0  0
  6  9  2  0  0  0  0
  7  4  2  0  0  0  0
  7  5  1  0  0  0  0
  9  4  1  0  0  0  0
 10 13  2  0  0  0  0
 12  8  1  0  0  0  0
 13  3  1  0  0  0  0
 14 10  2  0  0  0  0
 14 27  1  0  0  0  0
 15  6  1  0  0  0  0
 16  6  1  0  0  0  0
 16  2  2  0  0  0  0
 17  8  1  1  0  0  0
 17 13  1  0  0  0  0
 18 11  1  0  0  0  0
 18  1  1  0  0  0  0
 19 20  1  6  0  0  0
 21 23  1  0  0  0  0
 21 19  1  0  0  0  0
 23 22  1  1  0  0  0
 24 25  1  6  0  0  0
 24 23  1  0  0  0  0
 26 24  1  0  0  0  0
 27 28  1  0  0  0  0
M  END
>  <MODEL>
5

>  <REMARK>
 VINA RESULT:      -7.0      3.558      7.095
  Name = 
  5 active torsions:
  status: ('A' for Active; 'I' for Inactive)
    1  A    between atoms: C_1  and  C_2
    2  A    between atoms: C_2  and  C_3
    3  A    between atoms: C_3  and  C_11
    4  A    between atoms: C_6  and  C_11
    5  A    between atoms: C_19  and  C_21
                            x       y       z     vdW  Elec       q    Type
                         _______ _______ _______ _____ _____    ______ ____

>  <TORSDO>
F 5

$$$$
=
 OpenBabel11052418113D

 28 30  0  0  1  0  0  0  0  0999 V2000
  187.1110  177.8910  144.9280 C   0  0  1  0  0  3  0  0  0  0  0  0
  188.9700  173.3300  142.8480 C   0  0  0  0  0  3  0  0  0  0  0  0
  190.6420  176.7310  147.7910 O   0  0  0  0  0  1  0  0  0  0  0  0
  191.2290  174.0810  143.3490 C   0  0  0  0  0  0  0  0  0  0  0  0
  189.2480  175.1540  144.5380 C   0  0  2  0  0  3  0  0  0  0  0  0
  190.8530  172.3600  141.6810 C   0  0  0  0  0  0  0  0  0  0  0  0
  189.8350  174.1500  143.5830 C   0  0  0  0  0  0  0  0  0  0  0  0
  191.5790  176.0220  144.9420 C   0  0  0  0  0  2  0  0  0  0  0  0
  191.7260  173.1740  142.4070 C   0  0  0  0  0  3  0  0  0  0  0  0
  188.6910  177.1160  146.5890 C   0  0  0  0  0  0  0  0  0  0  0  0
  188.7320  176.3550  143.7370 C   0  0  0  0  0  2  0  0  0  0  0  0
  192.2160  174.8640  144.1750 C   0  0  0  0  0  2  0  0  0  0  0  0
  189.8370  176.5040  146.6820 C   0  0  0  0  0  0  0  0  0  0  0  0
  187.5370  177.6780  146.3670 C   0  0  0  0  0  0  0  0  0  0  0  0
  191.4880  171.2360  140.4990 Cl  0  0  0  0  0  0  0  0  0  0  0  0
  189.4770  172.4360  141.9020 C   0  0  0  0  0  3  0  0  0  0  0  0
  190.2950  175.5470  145.6110 C   0  0  1  0  0  3  0  0  0  0  0  0
  187.2670  176.6270  144.0650 C   0  0  0  0  0  2  0  0  0  0  0  0
  185.7140  178.5090  144.7790 C   0  0  1  0  0  3  0  0  0  0  0  0
  185.8220  179.8210  144.3120 O   0  0  0  0  0  1  0  0  0  0  0  0
  184.8150  177.6960  143.8530 C   0  0  0  0  0  2  0  0  0  0  0  0
  182.9250  178.6650  142.7780 O   0  0  0  0  0  1  0  0  0  0  0  0
  184.3150  178.5490  142.6950 C   0  0  2  0  0  3  0  0  0  0  0  0
  184.7030  177.9160  141.3620 C   0  0  2  0  0  3  0  0  0  0  0  0
  186.1680  178.1750  141.0570 C   0  0  0  0  0  1  0  0  0  0  0  0
  183.9260  178.4520  140.3340 O   0  0  0  0  0  1  0  0  0  0  0  0
  186.7000  178.0800  147.5390 C   0  0  0  0  0  2  0  0  0  0  0  0
  185.9520  176.9910  147.9870 O   0  0  0  0  0  1  0  0  0  0  0  0
  1 19  1  1  0  0  0
  1 14  1  0  0  0  0
  2  7  1  0  0  0  0
  4  7  2  0  0  0  0
  4 12  1  0  0  0  0
  5 11  1  6  0  0  0
  5 17  1  0  0  0  0
  6 16  1  0  0  0  0
  6  9  2  0  0  0  0
  7  5  1  0  0  0  0
  9  4  1  0  0  0  0
 10 13  2  0  0  0  0
 11 18  1  0  0  0  0
 12  8  1  0  0  0  0
 13  3  1  0  0  0  0
 14 10  2  0  0  0  0
 14 27  1  0  0  0  0
 15  6  1  0  0  0  0
 16  2  2  0  0  0  0
 17  8  1  6  0  0  0
 17 13  1  0  0  0  0
 18  1  1  0  0  0  0
 19 20  1  6  0  0  0
 21 19  1  0  0  0  0
 23 22  1  6  0  0  0
 23 21  1  0  0  0  0
 24 25  1  6  0  0  0
 24 23  1  0  0  0  0
 26 24  1  0  0  0  0
 27 28  1  0  0  0  0
M  END
>  <MODEL>
6

>  <REMARK>
 VINA RESULT:      -6.9      2.537      3.045
  Name = 
  5 active torsions:
  status: ('A' for Active; 'I' for Inactive)
    1  A    between atoms: C_1  and  C_2
    2  A    between atoms: C_2  and  C_3
    3  A    between atoms: C_3  and  C_11
    4  A    between atoms: C_6  and  C_11
    5  A    between atoms: C_19  and  C_21
                            x       y       z     vdW  Elec       q    Type
                         _______ _______ _______ _____ _____    ______ ____

>  <TORSDO>
F 5

$$$$
=
 OpenBabel11052418113D

 28 30  0  0  1  0  0  0  0  0999 V2000
  191.1950  174.8460  143.7220 C   0  0  1  0  0  3  0  0  0  0  0  0
  187.0030  178.0990  143.0710 C   0  0  0  0  0  3  0  0  0  0  0  0
  190.7820  176.9600  147.8900 O   0  0  0  0  0  1  0  0  0  0  0  0
  186.2870  177.5470  145.3300 C   0  0  0  0  0  0  0  0  0  0  0  0
  188.6980  177.1160  144.6280 C   0  0  2  0  0  3  0  0  0  0  0  0
  184.7020  178.4480  143.7300 C   0  0  0  0  0  0  0  0  0  0  0  0
  187.3080  177.6230  144.3520 C   0  0  0  0  0  0  0  0  0  0  0  0
  187.9100  176.4150  146.9160 C   0  0  0  0  0  2  0  0  0  0  0  0
  184.9940  177.9740  145.0120 C   0  0  0  0  0  3  0  0  0  0  0  0
  191.1980  176.1800  145.7410 C   0  0  0  0  0  0  0  0  0  0  0  0
  188.8370  175.7100  144.0330 C   0  0  0  0  0  2  0  0  0  0  0  0
  186.5730  177.1390  146.7520 C   0  0  0  0  0  2  0  0  0  0  0  0
  190.3750  176.7400  146.5800 C   0  0  0  0  0  0  0  0  0  0  0  0
  191.9150  175.6140  144.8130 C   0  0  0  0  0  0  0  0  0  0  0  0
  183.0770  178.9720  143.3420 Cl  0  0  0  0  0  0  0  0  0  0  0  0
  185.7050  178.5130  142.7620 C   0  0  0  0  0  3  0  0  0  0  0  0
  188.9930  177.1620  146.1480 C   0  0  1  0  0  3  0  0  0  0  0  0
  190.0380  175.6410  143.0950 C   0  0  0  0  0  2  0  0  0  0  0  0
  192.1290  174.2650  142.6520 C   0  0  1  0  0  3  0  0  0  0  0  0
  192.5850  173.0070  143.0500 O   0  0  0  0  0  1  0  0  0  0  0  0
  191.4560  174.1700  141.2850 C   0  0  0  0  0  2  0  0  0  0  0  0
  191.7530  172.4610  139.6550 O   0  0  0  0  0  1  0  0  0  0  0  0
  191.1940  172.7180  140.9090 C   0  0  2  0  0  3  0  0  0  0  0  0
  189.6940  172.4410  140.8740 C   0  0  2  0  0  3  0  0  0  0  0  0
  188.9530  173.6070  140.2430 C   0  0  0  0  0  1  0  0  0  0  0  0
  189.2130  172.2510  142.1710 O   0  0  0  0  0  1  0  0  0  0  0  0
  193.4030  175.7520  144.8740 C   0  0  0  0  0  2  0  0  0  0  0  0
  193.7510  177.0880  145.0730 O   0  0  0  0  0  1  0  0  0  0  0  0
  1 19  1  6  0  0  0
  1 14  1  0  0  0  0
  2  7  1  0  0  0  0
  4 12  1  0  0  0  0
  5 11  1  1  0  0  0
  5 17  1  0  0  0  0
  6  9  2  0  0  0  0
  7  5  1  0  0  0  0
  7  4  2  0  0  0  0
  9  4  1  0  0  0  0
 10 13  2  0  0  0  0
 12  8  1  0  0  0  0
 13  3  1  0  0  0  0
 14 27  1  0  0  0  0
 14 10  2  0  0  0  0
 15  6  1  0  0  0  0
 16  2  2  0  0  0  0
 16  6  1  0  0  0  0
 17 13  1  0  0  0  0
 17  8  1  1  0  0  0
 18  1  1  0  0  0  0
 18 11  1  0  0  0  0
 19 20  1  1  0  0  0
 21 19  1  0  0  0  0
 23 22  1  6  0  0  0
 23 21  1  0  0  0  0
 24 25  1  1  0  0  0
 24 23  1  0  0  0  0
 24 26  1  0  0  0  0
 27 28  1  0  0  0  0
M  END
>  <MODEL>
7

>  <REMARK>
 VINA RESULT:      -6.9      3.925      6.641
  Name = 
  5 active torsions:
  status: ('A' for Active; 'I' for Inactive)
    1  A    between atoms: C_1  and  C_2
    2  A    between atoms: C_2  and  C_3
    3  A    between atoms: C_3  and  C_11
    4  A    between atoms: C_6  and  C_11
    5  A    between atoms: C_19  and  C_21
                            x       y       z     vdW  Elec       q    Type
                         _______ _______ _______ _____ _____    ______ ____

>  <TORSDO>
F 5

$$$$
=
 OpenBabel11052418113D

 28 30  0  0  1  0  0  0  0  0999 V2000
  191.8350  175.5050  142.8060 C   0  0  1  0  0  3  0  0  0  0  0  0
  187.6190  176.4090  145.9670 C   0  0  0  0  0  3  0  0  0  0  0  0
  188.1920  174.0600  140.2260 O   0  0  0  0  0  1  0  0  0  0  0  0
  186.3700  177.1380  144.0100 C   0  0  0  0  0  0  0  0  0  0  0  0
  188.4680  175.7220  143.7150 C   0  0  2  0  0  3  0  0  0  0  0  0
  185.6610  177.8040  146.2320 C   0  0  0  0  0  0  0  0  0  0  0  0
  187.4460  176.4130  144.5770 C   0  0  0  0  0  0  0  0  0  0  0  0
  187.2500  176.6020  141.6930 C   0  0  0  0  0  2  0  0  0  0  0  0
  185.4780  177.8160  144.8460 C   0  0  0  0  0  3  0  0  0  0  0  0
  190.0070  174.4460  141.6250 C   0  0  0  0  0  0  0  0  0  0  0  0
  189.7060  176.6190  143.6000 C   0  0  0  0  0  2  0  0  0  0  0  0
  186.0740  177.0990  142.5330 C   0  0  0  0  0  2  0  0  0  0  0  0
  188.7370  174.6050  141.3810 C   0  0  0  0  0  0  0  0  0  0  0  0
  191.2600  174.3770  141.9730 C   0  0  0  0  0  0  0  0  0  0  0  0
  184.5420  178.6650  147.2670 Cl  0  0  0  0  0  0  0  0  0  0  0  0
  186.7280  177.1000  146.7920 C   0  0  0  0  0  3  0  0  0  0  0  0
  187.8520  175.3610  142.3400 C   0  0  1  0  0  3  0  0  0  0  0  0
  190.9590  175.8580  144.0200 C   0  0  0  0  0  2  0  0  0  0  0  0
  193.3010  175.2980  143.2050 C   0  0  1  0  0  3  0  0  0  0  0  0
  194.0560  176.4160  142.8440 O   0  0  0  0  0  1  0  0  0  0  0  0
  193.4620  175.0170  144.6970 C   0  0  0  0  0  2  0  0  0  0  0  0
  195.5680  174.4830  145.6680 O   0  0  0  0  0  1  0  0  0  0  0  0
  194.7930  175.5500  145.2090 C   0  0  2  0  0  3  0  0  0  0  0  0
  194.5650  176.5480  146.3400 C   0  0  2  0  0  3  0  0  0  0  0  0
  193.1530  176.4200  146.8860 C   0  0  0  0  0  1  0  0  0  0  0  0
  194.7510  177.8510  145.8730 O   0  0  0  0  0  1  0  0  0  0  0  0
  192.0590  173.1910  141.5340 C   0  0  0  0  0  2  0  0  0  0  0  0
  191.7940  172.1020  142.3640 O   0  0  0  0  0  1  0  0  0  0  0  0
  1 19  1  1  0  0  0
  1 18  1  0  0  0  0
  2 16  1  0  0  0  0
  3 13  1  0  0  0  0
  4  7  1  0  0  0  0
  4  9  2  0  0  0  0
  5 11  1  6  0  0  0
  5  7  1  0  0  0  0
  6 16  2  0  0  0  0
  6 15  1  0  0  0  0
  7  2  2  0  0  0  0
  8 12  1  0  0  0  0
  9  6  1  0  0  0  0
 10 14  2  0  0  0  0
 11 18  1  0  0  0  0
 12  4  1  0  0  0  0
 13 10  2  0  0  0  0
 13 17  1  0  0  0  0
 14  1  1  0  0  0  0
 17  8  1  6  0  0  0
 17  5  1  0  0  0  0
 19 20  1  1  0  0  0
 19 21  1  0  0  0  0
 21 23  1  0  0  0  0
 23 22  1  1  0  0  0
 23 24  1  0  0  0  0
 24 25  1  6  0  0  0
 26 24  1  0  0  0  0
 27 14  1  0  0  0  0
 27 28  1  0  0  0  0
M  END
>  <MODEL>
8

>  <REMARK>
 VINA RESULT:      -6.9      3.949      7.766
  Name = 
  5 active torsions:
  status: ('A' for Active; 'I' for Inactive)
    1  A    between atoms: C_1  and  C_2
    2  A    between atoms: C_2  and  C_3
    3  A    between atoms: C_3  and  C_11
    4  A    between atoms: C_6  and  C_11
    5  A    between atoms: C_19  and  C_21
                            x       y       z     vdW  Elec       q    Type
                         _______ _______ _______ _____ _____    ______ ____

>  <TORSDO>
F 5

$$$$
=
 OpenBabel11052418113D

 28 30  0  0  1  0  0  0  0  0999 V2000
  189.3000  177.4650  144.6720 C   0  0  1  0  0  3  0  0  0  0  0  0
  192.4750  173.2080  144.0560 C   0  0  0  0  0  3  0  0  0  0  0  0
  191.5510  177.1650  148.7780 O   0  0  0  0  0  1  0  0  0  0  0  0
  194.2190  174.3950  145.2680 C   0  0  0  0  0  0  0  0  0  0  0  0
  191.7960  175.1550  145.4740 C   0  0  2  0  0  3  0  0  0  0  0  0
  194.7860  172.5340  143.8200 C   0  0  0  0  0  0  0  0  0  0  0  0
  192.8510  174.2190  144.9490 C   0  0  0  0  0  0  0  0  0  0  0  0
  193.6250  176.4640  146.6090 C   0  0  0  0  0  2  0  0  0  0  0  0
  195.1730  173.5400  144.7090 C   0  0  0  0  0  3  0  0  0  0  0  0
  190.1950  177.1040  146.8910 C   0  0  0  0  0  0  0  0  0  0  0  0
  191.4650  176.1860  144.3890 C   0  0  0  0  0  2  0  0  0  0  0  0
  194.6750  175.3990  146.2950 C   0  0  0  0  0  2  0  0  0  0  0  0
  191.2890  176.7230  147.4870 C   0  0  0  0  0  0  0  0  0  0  0  0
  189.1530  177.4260  146.1810 C   0  0  0  0  0  0  0  0  0  0  0  0
  195.9910  171.4750  143.1200 Cl  0  0  0  0  0  0  0  0  0  0  0  0
  193.4380  172.3660  143.4960 C   0  0  0  0  0  3  0  0  0  0  0  0
  192.2670  175.8020  146.8010 C   0  0  1  0  0  3  0  0  0  0  0  0
  189.9670  176.2010  144.1040 C   0  0  0  0  0  2  0  0  0  0  0  0
  188.0000  177.8030  143.9310 C   0  0  1  0  0  3  0  0  0  0  0  0
  188.2930  178.2840  142.6530 O   0  0  0  0  0  1  0  0  0  0  0  0
  187.0580  176.6060  143.8360 C   0  0  0  0  0  2  0  0  0  0  0  0
  185.1940  177.1670  142.4660 O   0  0  0  0  0  1  0  0  0  0  0  0
  185.6050  177.0590  143.7970 C   0  0  2  0  0  3  0  0  0  0  0  0
  185.4500  178.4050  144.4980 C   0  0  2  0  0  3  0  0  0  0  0  0
  184.4410  178.3020  145.6290 C   0  0  0  0  0  1  0  0  0  0  0  0
  185.0110  179.3690  143.5890 O   0  0  0  0  0  1  0  0  0  0  0  0
  187.8730  177.7380  146.8890 C   0  0  0  0  0  2  0  0  0  0  0  0
  187.2330  176.5560  147.2620 O   0  0  0  0  0  1  0  0  0  0  0  0
  1 19  1  6  0  0  0
  1 14  1  0  0  0  0
  2  7  1  0  0  0  0
  4 12  1  0  0  0  0
  5 11  1  6  0  0  0
  5 17  1  0  0  0  0
  6  9  2  0  0  0  0
  7  4  2  0  0  0  0
  7  5  1  0  0  0  0
  9  4  1  0  0  0  0
 10 13  2  0  0  0  0
 12  8  1  0  0  0  0
 13  3  1  0  0  0  0
 14 27  1  0  0  0  0
 14 10  2  0  0  0  0
 15  6  1  0  0  0  0
 16  6  1  0  0  0  0
 16  2  2  0  0  0  0
 17  8  1  6  0  0  0
 17 13  1  0  0  0  0
 18 11  1  0  0  0  0
 18  1  1  0  0  0  0
 19 20  1  6  0  0  0
 21 19  1  0  0  0  0
 23 22  1  6  0  0  0
 23 21  1  0  0  0  0
 23 24  1  0  0  0  0
 24 25  1  1  0  0  0
 26 24  1  0  0  0  0
 27 28  1  0  0  0  0
M  END
>  <MODEL>
9

>  <REMARK>
 VINA RESULT:      -6.8      2.180      3.092
  Name = 
  5 active torsions:
  status: ('A' for Active; 'I' for Inactive)
    1  A    between atoms: C_1  and  C_2
    2  A    between atoms: C_2  and  C_3
    3  A    between atoms: C_3  and  C_11
    4  A    between atoms: C_6  and  C_11
    5  A    between atoms: C_19  and  C_21
                            x       y       z     vdW  Elec       q    Type
                         _______ _______ _______ _____ _____    ______ ____

>  <TORSDO>
F 5

$$$$
