=
 OpenBabel11052418383D

 34 39  0  0  1  0  0  0  0  0999 V2000
  191.5240  176.2570  145.6830 C   0  0  0  0  0  0  0  0  0  0  0  0
  191.7700  173.9520  144.9960 C   0  0  0  0  0  0  0  0  0  0  0  0
  189.8140  175.3520  144.1070 C   0  0  0  0  0  0  0  0  0  0  0  0
  188.2880  174.8380  142.2980 C   0  0  0  0  0  0  0  0  0  0  0  0
  193.4150  174.9870  146.3900 N   0  0  0  0  0  0  0  0  0  0  0  0
  192.9590  173.8930  145.7280 C   0  0  0  0  0  3  0  0  0  0  0  0
  190.7040  173.8450  141.8490 S   0  0  0  0  0  0  0  0  0  0  0  0
  191.0850  175.1820  144.8810 C   0  0  0  0  0  0  0  0  0  0  0  0
  188.1300  174.1770  140.9850 C   0  0  0  0  0  2  0  0  0  0  0  0
  192.7160  176.1500  146.4010 C   0  0  0  0  0  3  0  0  0  0  0  0
  188.8710  176.2820  144.6030 C   0  0  0  0  0  0  0  0  0  0  0  0
  190.7120  177.5110  145.7900 C   0  0  0  0  0  2  0  0  0  0  0  0
  191.2590  172.7750  144.4650 O   0  0  0  0  0  1  0  0  0  0  0  0
  187.3060  175.6450  142.8640 C   0  0  0  0  0  3  0  0  0  0  0  0
  187.5760  176.3750  144.0320 C   0  0  0  0  0  0  0  0  0  0  0  0
  189.5410  173.9880  140.4430 C   0  0  2  0  0  3  0  0  0  0  0  0
  189.5220  174.6840  142.8980 C   0  0  0  0  0  0  0  0  0  0  0  0
  189.2940  177.2060  145.6150 N   0  0  0  0  0  2  0  0  0  0  0  0
  185.3390  179.3870  144.6540 C   0  0  0  0  0  0  0  0  0  0  0  0
  184.5270  178.9170  145.6880 C   0  0  0  0  0  3  0  0  0  0  0  0
  186.5120  177.2540  144.5870 C   0  0  0  0  0  0  0  0  0  0  0  0
  184.7040  177.6220  146.1800 C   0  0  0  0  0  3  0  0  0  0  0  0
  186.3280  178.5620  144.1110 C   0  0  0  0  0  3  0  0  0  0  0  0
  185.6920  176.7970  145.6340 C   0  0  0  0  0  3  0  0  0  0  0  0
  185.1710  180.6450  144.1790 F   0  0  0  0  0  0  0  0  0  0  0  0
  189.5960  172.7660  139.5910 C   0  0  0  0  0  3  0  0  0  0  0  0
  190.1090  172.8170  138.4150 N   0  0  0  0  0  0  0  0  0  0  0  0
  191.5060  171.5830  136.8440 C   0  0  0  0  0  2  0  0  0  0  0  0
  190.1670  171.6410  137.5870 C   0  0  1  0  0  3  0  0  0  0  0  0
  191.6130  170.3150  135.9950 C   0  0  1  0  0  3  0  0  0  0  0  0
  191.3810  169.0670  136.8490 C   0  0  0  0  0  2  0  0  0  0  0  0
  190.0490  169.1450  137.5940 C   0  0  0  0  0  2  0  0  0  0  0  0
  190.0000  170.4000  138.4580 C   0  0  0  0  0  2  0  0  0  0  0  0
  190.6980  170.3570  134.9410 O   0  0  0  0  0  1  0  0  0  0  0  0
  1 12  1  0  0  0  0
  1 10  1  0  0  0  0
  2  6  2  0  0  0  0
  3 11  1  0  0  0  0
  3  8  1  0  0  0  0
  4 14  2  0  0  0  0
  4 17  1  0  0  0  0
  5 10  2  0  0  0  0
  6  5  1  0  0  0  0
  7 17  1  0  0  0  0
  8  2  1  0  0  0  0
  8  1  2  0  0  0  0
  9  4  1  0  0  0  0
 11 18  1  0  0  0  0
 13  2  1  0  0  0  0
 14 15  1  0  0  0  0
 15 21  1  0  0  0  0
 15 11  2  0  0  0  0
 16 26  1  1  0  0  0
 16  9  1  0  0  0  0
 16  7  1  0  0  0  0
 17  3  2  0  0  0  0
 18 12  1  0  0  0  0
 19 20  1  0  0  0  0
 20 22  2  0  0  0  0
 21 24  2  0  0  0  0
 23 21  1  0  0  0  0
 23 19  2  0  0  0  0
 24 22  1  0  0  0  0
 25 19  1  0  0  0  0
 27 26  2  0  0  0  0
 28 29  1  0  0  0  0
 29 27  1  1  0  0  0
 29 33  1  0  0  0  0
 30 34  1  6  0  0  0
 30 28  1  0  0  0  0
 30 31  1  0  0  0  0
 31 32  1  0  0  0  0
 32 33  1  0  0  0  0
M  END
>  <MODEL>
1

>  <REMARK>
 VINA RESULT:      -8.6      0.000      0.000
  Name = 
  3 active torsions:
  status: ('A' for Active; 'I' for Inactive)
    1  A    between atoms: C_3  and  C_29
    2  A    between atoms: C_12  and  C_28
    3  A    between atoms: C_13  and  N_17
                            x       y       z     vdW  Elec       q    Type
                         _______ _______ _______ _____ _____    ______ ____

>  <TORSDO>
F 3

$$$$
=
 OpenBabel11052418383D

 34 39  0  0  1  0  0  0  0  0999 V2000
  191.9070  172.3750  140.6180 C   0  0  0  0  0  0  0  0  0  0  0  0
  189.6530  172.9010  141.3170 C   0  0  0  0  0  0  0  0  0  0  0  0
  191.6240  173.3630  142.8910 C   0  0  0  0  0  0  0  0  0  0  0  0
  191.6510  174.6580  144.9380 C   0  0  0  0  0  0  0  0  0  0  0  0
  190.0800  172.0820  139.1110 N   0  0  0  0  0  0  0  0  0  0  0  0
  189.2020  172.5050  140.0560 C   0  0  0  0  0  3  0  0  0  0  0  0
  189.9200  175.6370  143.1860 S   0  0  0  0  0  0  0  0  0  0  0  0
  191.0410  172.9380  141.5790 C   0  0  0  0  0  0  0  0  0  0  0  0
  191.0860  175.8220  145.6540 C   0  0  0  0  0  2  0  0  0  0  0  0
  191.4090  171.9890  139.3720 C   0  0  0  0  0  3  0  0  0  0  0  0
  192.8110  172.7190  143.3140 C   0  0  0  0  0  0  0  0  0  0  0  0
  193.3570  172.1670  140.9260 C   0  0  0  0  0  2  0  0  0  0  0  0
  188.7130  173.1760  142.3020 O   0  0  0  0  0  1  0  0  0  0  0  0
  192.7340  173.9260  145.4160 C   0  0  0  0  0  3  0  0  0  0  0  0
  193.3280  172.9370  144.6160 C   0  0  0  0  0  0  0  0  0  0  0  0
  190.4460  176.6960  144.5840 C   0  0  2  0  0  3  0  0  0  0  0  0
  191.0960  174.3920  143.7030 C   0  0  0  0  0  0  0  0  0  0  0  0
  193.5380  171.9370  142.3560 N   0  0  0  0  0  2  0  0  0  0  0  0
  195.5050  170.1900  146.0930 C   0  0  0  0  0  0  0  0  0  0  0  0
  196.7340  170.8430  146.2030 C   0  0  0  0  0  3  0  0  0  0  0  0
  194.5050  172.2000  145.1490 C   0  0  0  0  0  0  0  0  0  0  0  0
  196.8550  172.1740  145.7950 C   0  0  0  0  0  3  0  0  0  0  0  0
  194.3970  170.8660  145.5730 C   0  0  0  0  0  3  0  0  0  0  0  0
  195.7470  172.8480  145.2740 C   0  0  0  0  0  3  0  0  0  0  0  0
  195.3850  168.9010  146.4930 F   0  0  0  0  0  0  0  0  0  0  0  0
  189.2790  177.4250  145.1580 C   0  0  0  0  0  3  0  0  0  0  0  0
  188.1250  177.3450  144.6010 N   0  0  0  0  0  0  0  0  0  0  0  0
  185.6980  177.5490  144.4990 C   0  0  0  0  0  2  0  0  0  0  0  0
  186.9940  178.0440  145.1510 C   0  0  1  0  0  3  0  0  0  0  0  0
  184.4750  178.2410  145.1030 C   0  0  1  0  0  3  0  0  0  0  0  0
  184.4490  178.0710  146.6230 C   0  0  0  0  0  2  0  0  0  0  0  0
  185.7510  178.5570  147.2570 C   0  0  0  0  0  2  0  0  0  0  0  0
  186.9390  177.8140  146.6570 C   0  0  0  0  0  2  0  0  0  0  0  0
  184.4690  179.5960  144.7660 O   0  0  0  0  0  1  0  0  0  0  0  0
  1 12  1  0  0  0  0
  1  8  1  0  0  0  0
  2  8  2  0  0  0  0
  2 13  1  0  0  0  0
  3 11  2  0  0  0  0
  3 17  1  0  0  0  0
  4 14  1  0  0  0  0
  4  9  1  0  0  0  0
  5 10  1  0  0  0  0
  5  6  2  0  0  0  0
  6  2  1  0  0  0  0
  7 17  1  0  0  0  0
  7 16  1  0  0  0  0
  8  3  1  0  0  0  0
 10  1  2  0  0  0  0
 11 15  1  0  0  0  0
 12 18  1  0  0  0  0
 15 21  1  0  0  0  0
 15 14  2  0  0  0  0
 16 26  1  1  0  0  0
 16  9  1  0  0  0  0
 17  4  2  0  0  0  0
 18 11  1  0  0  0  0
 19 20  1  0  0  0  0
 19 25  1  0  0  0  0
 21 24  2  0  0  0  0
 21 23  1  0  0  0  0
 22 20  2  0  0  0  0
 23 19  2  0  0  0  0
 24 22  1  0  0  0  0
 27 26  2  0  0  0  0
 28 30  1  0  0  0  0
 28 29  1  0  0  0  0
 29 27  1  6  0  0  0
 29 33  1  0  0  0  0
 30 34  1  1  0  0  0
 30 31  1  0  0  0  0
 31 32  1  0  0  0  0
 33 32  1  0  0  0  0
M  END
>  <MODEL>
2

>  <REMARK>
 VINA RESULT:      -8.2      3.977      9.532
  Name = 
  3 active torsions:
  status: ('A' for Active; 'I' for Inactive)
    1  A    between atoms: C_3  and  C_29
    2  A    between atoms: C_12  and  C_28
    3  A    between atoms: C_13  and  N_17
                            x       y       z     vdW  Elec       q    Type
                         _______ _______ _______ _____ _____    ______ ____

>  <TORSDO>
F 3

$$$$
=
 OpenBabel11052418383D

 34 39  0  0  1  0  0  0  0  0999 V2000
  191.1410  172.1550  140.1210 C   0  0  0  0  0  0  0  0  0  0  0  0
  188.9550  172.9620  140.7680 C   0  0  0  0  0  0  0  0  0  0  0  0
  190.9370  173.2060  142.3750 C   0  0  0  0  0  0  0  0  0  0  0  0
  191.0830  174.5200  144.4050 C   0  0  0  0  0  0  0  0  0  0  0  0
  189.3200  172.0620  138.5820 N   0  0  0  0  0  0  0  0  0  0  0  0
  188.4820  172.6030  139.5030 C   0  0  0  0  0  3  0  0  0  0  0  0
  189.5180  175.6740  142.6050 S   0  0  0  0  0  0  0  0  0  0  0  0
  190.3310  172.8330  141.0570 C   0  0  0  0  0  0  0  0  0  0  0  0
  190.6510  175.7550  145.0930 C   0  0  0  0  0  2  0  0  0  0  0  0
  190.6230  171.8120  138.8710 C   0  0  0  0  0  3  0  0  0  0  0  0
  192.0290  172.4300  142.8300 C   0  0  0  0  0  0  0  0  0  0  0  0
  192.5490  171.7780  140.4620 C   0  0  0  0  0  2  0  0  0  0  0  0
  188.0370  173.3640  141.7290 O   0  0  0  0  0  1  0  0  0  0  0  0
  192.0600  173.6700  144.9140 C   0  0  0  0  0  3  0  0  0  0  0  0
  192.5440  172.6030  144.1400 C   0  0  0  0  0  0  0  0  0  0  0  0
  190.1410  176.6830  143.9990 C   0  0  2  0  0  3  0  0  0  0  0  0
  190.5230  174.3040  143.1620 C   0  0  0  0  0  0  0  0  0  0  0  0
  192.6730  171.5500  141.8990 N   0  0  0  0  0  2  0  0  0  0  0  0
  195.8040  171.4660  145.7360 C   0  0  0  0  0  0  0  0  0  0  0  0
  195.6450  170.0790  145.7250 C   0  0  0  0  0  3  0  0  0  0  0  0
  193.6130  171.7380  144.7070 C   0  0  0  0  0  0  0  0  0  0  0  0
  194.4790  169.5140  145.2020 C   0  0  0  0  0  3  0  0  0  0  0  0
  194.7960  172.2890  145.2260 C   0  0  0  0  0  3  0  0  0  0  0  0
  193.4710  170.3390  144.6950 C   0  0  0  0  0  3  0  0  0  0  0  0
  196.9370  172.0140  146.2370 F   0  0  0  0  0  0  0  0  0  0  0  0
  189.0610  177.5570  144.5390 C   0  0  0  0  0  3  0  0  0  0  0  0
  187.8310  177.3110  144.2700 N   0  0  0  0  0  0  0  0  0  0  0  0
  185.4380  177.7640  144.1620 C   0  0  0  0  0  2  0  0  0  0  0  0
  186.7830  178.1490  144.7890 C   0  0  1  0  0  3  0  0  0  0  0  0
  184.2980  178.6070  144.7360 C   0  0  1  0  0  3  0  0  0  0  0  0
  184.2630  178.5090  146.2630 C   0  0  0  0  0  2  0  0  0  0  0  0
  185.6140  178.8830  146.8720 C   0  0  0  0  0  2  0  0  0  0  0  0
  186.7140  177.9930  146.3050 C   0  0  0  0  0  2  0  0  0  0  0  0
  184.4320  179.9390  144.3390 O   0  0  0  0  0  1  0  0  0  0  0  0
  1 12  1  0  0  0  0
  1  8  1  0  0  0  0
  2  8  2  0  0  0  0
  2 13  1  0  0  0  0
  3 11  2  0  0  0  0
  3 17  1  0  0  0  0
  4 14  1  0  0  0  0
  4  9  1  0  0  0  0
  5 10  1  0  0  0  0
  5  6  2  0  0  0  0
  6  2  1  0  0  0  0
  7 17  1  0  0  0  0
  7 16  1  0  0  0  0
  8  3  1  0  0  0  0
 10  1  2  0  0  0  0
 11 15  1  0  0  0  0
 12 18  1  0  0  0  0
 15 21  1  0  0  0  0
 15 14  2  0  0  0  0
 16 26  1  1  0  0  0
 16  9  1  0  0  0  0
 17  4  2  0  0  0  0
 18 11  1  0  0  0  0
 19 25  1  0  0  0  0
 20 19  1  0  0  0  0
 21 23  1  0  0  0  0
 22 20  2  0  0  0  0
 23 19  2  0  0  0  0
 24 21  2  0  0  0  0
 24 22  1  0  0  0  0
 27 26  2  0  0  0  0
 28 30  1  0  0  0  0
 28 29  1  0  0  0  0
 29 27  1  6  0  0  0
 29 33  1  0  0  0  0
 30 34  1  1  0  0  0
 30 31  1  0  0  0  0
 31 32  1  0  0  0  0
 33 32  1  0  0  0  0
M  END
>  <MODEL>
3

>  <REMARK>
 VINA RESULT:      -7.9      3.830      9.398
  Name = 
  3 active torsions:
  status: ('A' for Active; 'I' for Inactive)
    1  A    between atoms: C_3  and  C_29
    2  A    between atoms: C_12  and  C_28
    3  A    between atoms: C_13  and  N_17
                            x       y       z     vdW  Elec       q    Type
                         _______ _______ _______ _____ _____    ______ ____

>  <TORSDO>
F 3

$$$$
=
 OpenBabel11052418383D

 34 39  0  0  1  0  0  0  0  0999 V2000
  185.6700  177.1680  143.0290 C   0  0  0  0  0  0  0  0  0  0  0  0
  186.3750  177.5510  140.7480 C   0  0  0  0  0  0  0  0  0  0  0  0
  187.7860  176.0690  142.2930 C   0  0  0  0  0  0  0  0  0  0  0  0
  189.6210  174.5980  141.7140 C   0  0  0  0  0  0  0  0  0  0  0  0
  184.2960  178.4280  141.5400 N   0  0  0  0  0  0  0  0  0  0  0  0
  185.2040  178.2830  140.5410 C   0  0  0  0  0  3  0  0  0  0  0  0
  187.8150  174.7160  139.7770 S   0  0  0  0  0  0  0  0  0  0  0  0
  186.5740  176.8910  141.9810 C   0  0  0  0  0  0  0  0  0  0  0  0
  190.1820  173.6910  140.6890 C   0  0  0  0  0  2  0  0  0  0  0  0
  184.5150  177.9090  142.7750 C   0  0  0  0  0  3  0  0  0  0  0  0
  188.2500  176.0780  143.6300 C   0  0  0  0  0  0  0  0  0  0  0  0
  185.9470  176.6930  144.4220 C   0  0  0  0  0  2  0  0  0  0  0  0
  187.3460  177.5580  139.7550 O   0  0  0  0  0  1  0  0  0  0  0  0
  190.1560  174.7210  142.9920 C   0  0  0  0  0  3  0  0  0  0  0  0
  189.4850  175.4710  143.9710 C   0  0  0  0  0  0  0  0  0  0  0  0
  189.0230  173.3410  139.7660 C   0  0  2  0  0  3  0  0  0  0  0  0
  188.4600  175.2540  141.3570 C   0  0  0  0  0  0  0  0  0  0  0  0
  187.3880  176.6100  144.6450 N   0  0  0  0  0  2  0  0  0  0  0  0
  191.8280  176.2880  146.8540 C   0  0  0  0  0  0  0  0  0  0  0  0
  191.1920  175.6430  147.9160 C   0  0  0  0  0  3  0  0  0  0  0  0
  190.0720  175.5510  145.3360 C   0  0  0  0  0  0  0  0  0  0  0  0
  190.0010  174.9460  147.6960 C   0  0  0  0  0  3  0  0  0  0  0  0
  191.2740  176.2380  145.5720 C   0  0  0  0  0  3  0  0  0  0  0  0
  189.4470  174.8980  146.4140 C   0  0  0  0  0  3  0  0  0  0  0  0
  192.9850  176.9600  147.0660 F   0  0  0  0  0  0  0  0  0  0  0  0
  189.5310  173.1000  138.3850 C   0  0  0  0  0  3  0  0  0  0  0  0
  190.3330  172.1260  138.1490 N   0  0  0  0  0  0  0  0  0  0  0  0
  191.9320  170.8250  136.8470 C   0  0  0  0  0  2  0  0  0  0  0  0
  190.8270  171.8860  136.8190 C   0  0  1  0  0  3  0  0  0  0  0  0
  192.4390  170.5160  135.4380 C   0  0  1  0  0  3  0  0  0  0  0  0
  191.2830  170.1080  134.5210 C   0  0  0  0  0  2  0  0  0  0  0  0
  190.1830  171.1700  134.5130 C   0  0  0  0  0  2  0  0  0  0  0  0
  189.6790  171.4180  135.9300 C   0  0  0  0  0  2  0  0  0  0  0  0
  193.1100  171.6200  134.9090 O   0  0  0  0  0  1  0  0  0  0  0  0
  1 12  1  0  0  0  0
  2  8  1  0  0  0  0
  3 11  1  0  0  0  0
  4 14  2  0  0  0  0
  5 10  2  0  0  0  0
  6  2  2  0  0  0  0
  6  5  1  0  0  0  0
  7 17  1  0  0  0  0
  8  3  1  0  0  0  0
  8  1  2  0  0  0  0
  9  4  1  0  0  0  0
 10  1  1  0  0  0  0
 11 15  2  0  0  0  0
 11 18  1  0  0  0  0
 12 18  1  0  0  0  0
 13  2  1  0  0  0  0
 14 15  1  0  0  0  0
 15 21  1  0  0  0  0
 16 26  1  6  0  0  0
 16  7  1  0  0  0  0
 16  9  1  0  0  0  0
 17  4  1  0  0  0  0
 17  3  2  0  0  0  0
 19 25  1  0  0  0  0
 19 20  1  0  0  0  0
 21 23  1  0  0  0  0
 21 24  2  0  0  0  0
 22 20  2  0  0  0  0
 23 19  2  0  0  0  0
 24 22  1  0  0  0  0
 27 26  2  0  0  0  0
 29 28  1  0  0  0  0
 29 27  1  1  0  0  0
 30 34  1  6  0  0  0
 30 28  1  0  0  0  0
 31 30  1  0  0  0  0
 32 31  1  0  0  0  0
 32 33  1  0  0  0  0
 33 29  1  0  0  0  0
M  END
>  <MODEL>
4

>  <REMARK>
 VINA RESULT:      -7.8      2.913      5.214
  Name = 
  3 active torsions:
  status: ('A' for Active; 'I' for Inactive)
    1  A    between atoms: C_3  and  C_29
    2  A    between atoms: C_12  and  C_28
    3  A    between atoms: C_13  and  N_17
                            x       y       z     vdW  Elec       q    Type
                         _______ _______ _______ _____ _____    ______ ____

>  <TORSDO>
F 3

$$$$
=
 OpenBabel11052418383D

 34 39  0  0  1  0  0  0  0  0999 V2000
  185.6160  177.2800  143.4950 C   0  0  0  0  0  0  0  0  0  0  0  0
  186.2880  177.5730  141.1900 C   0  0  0  0  0  0  0  0  0  0  0  0
  187.8240  176.3310  142.8250 C   0  0  0  0  0  0  0  0  0  0  0  0
  189.7870  174.9980  142.3380 C   0  0  0  0  0  0  0  0  0  0  0  0
  184.1360  178.3070  141.9310 N   0  0  0  0  0  0  0  0  0  0  0  0
  185.0550  178.1800  140.9400 C   0  0  0  0  0  3  0  0  0  0  0  0
  187.9830  174.8230  140.4040 S   0  0  0  0  0  0  0  0  0  0  0  0
  186.5430  177.0170  142.4640 C   0  0  0  0  0  0  0  0  0  0  0  0
  190.4310  174.0810  141.3730 C   0  0  0  0  0  2  0  0  0  0  0  0
  184.3980  177.8940  143.1970 C   0  0  0  0  0  3  0  0  0  0  0  0
  188.2830  176.4710  144.1560 C   0  0  0  0  0  0  0  0  0  0  0  0
  185.9320  176.9250  144.9140 C   0  0  0  0  0  2  0  0  0  0  0  0
  187.2560  177.6020  140.1960 O   0  0  0  0  0  1  0  0  0  0  0  0
  190.3060  175.2540  143.6030 C   0  0  0  0  0  3  0  0  0  0  0  0
  189.5680  176.0040  144.5330 C   0  0  0  0  0  0  0  0  0  0  0  0
  189.3110  173.5650  140.4800 C   0  0  2  0  0  3  0  0  0  0  0  0
  188.5720  175.5210  141.9430 C   0  0  0  0  0  0  0  0  0  0  0  0
  187.3740  176.9890  145.1380 N   0  0  0  0  0  2  0  0  0  0  0  0
  190.4180  177.6030  147.8770 C   0  0  0  0  0  0  0  0  0  0  0  0
  191.2810  176.6520  148.4240 C   0  0  0  0  0  3  0  0  0  0  0  0
  190.1420  176.2270  145.8870 C   0  0  0  0  0  0  0  0  0  0  0  0
  191.5840  175.4920  147.7080 C   0  0  0  0  0  3  0  0  0  0  0  0
  189.8560  177.3930  146.6150 C   0  0  0  0  0  3  0  0  0  0  0  0
  191.0200  175.2820  146.4470 C   0  0  0  0  0  3  0  0  0  0  0  0
  190.1270  178.7310  148.5690 F   0  0  0  0  0  0  0  0  0  0  0  0
  189.8420  173.2810  139.1160 C   0  0  0  0  0  3  0  0  0  0  0  0
  189.4700  172.2290  138.4800 N   0  0  0  0  0  0  0  0  0  0  0  0
  191.2430  172.7710  136.8980 C   0  0  0  0  0  2  0  0  0  0  0  0
  189.9770  171.9490  137.1630 C   0  0  1  0  0  3  0  0  0  0  0  0
  191.8310  172.4530  135.5220 C   0  0  1  0  0  3  0  0  0  0  0  0
  192.0860  170.9510  135.3730 C   0  0  0  0  0  2  0  0  0  0  0  0
  190.8180  170.1450  135.6530 C   0  0  0  0  0  2  0  0  0  0  0  0
  190.2890  170.4610  137.0470 C   0  0  0  0  0  2  0  0  0  0  0  0
  190.9770  172.9020  134.5130 O   0  0  0  0  0  1  0  0  0  0  0  0
  1 12  1  0  0  0  0
  2  8  1  0  0  0  0
  3 11  1  0  0  0  0
  4 14  2  0  0  0  0
  5 10  2  0  0  0  0
  6  2  2  0  0  0  0
  6  5  1  0  0  0  0
  7 16  1  0  0  0  0
  7 17  1  0  0  0  0
  8  3  1  0  0  0  0
  8  1  2  0  0  0  0
  9  4  1  0  0  0  0
 10  1  1  0  0  0  0
 11 15  2  0  0  0  0
 11 18  1  0  0  0  0
 12 18  1  0  0  0  0
 13  2  1  0  0  0  0
 14 15  1  0  0  0  0
 15 21  1  0  0  0  0
 16 26  1  6  0  0  0
 16  9  1  0  0  0  0
 17  4  1  0  0  0  0
 17  3  2  0  0  0  0
 19 20  1  0  0  0  0
 19 25  1  0  0  0  0
 21 24  2  0  0  0  0
 21 23  1  0  0  0  0
 22 20  2  0  0  0  0
 23 19  2  0  0  0  0
 24 22  1  0  0  0  0
 27 26  2  0  0  0  0
 28 29  1  0  0  0  0
 29 27  1  1  0  0  0
 30 34  1  6  0  0  0
 30 28  1  0  0  0  0
 31 30  1  0  0  0  0
 31 32  1  0  0  0  0
 32 33  1  0  0  0  0
 33 29  1  0  0  0  0
M  END
>  <MODEL>
5

>  <REMARK>
 VINA RESULT:      -7.7      2.608      5.012
  Name = 
  3 active torsions:
  status: ('A' for Active; 'I' for Inactive)
    1  A    between atoms: C_3  and  C_29
    2  A    between atoms: C_12  and  C_28
    3  A    between atoms: C_13  and  N_17
                            x       y       z     vdW  Elec       q    Type
                         _______ _______ _______ _____ _____    ______ ____

>  <TORSDO>
F 3

$$$$
=
 OpenBabel11052418383D

 34 39  0  0  1  0  0  0  0  0999 V2000
  194.4550  173.5060  141.7990 C   0  0  0  0  0  0  0  0  0  0  0  0
  193.8050  175.7160  142.5350 C   0  0  0  0  0  0  0  0  0  0  0  0
  192.0460  174.1160  141.5760 C   0  0  0  0  0  0  0  0  0  0  0  0
  189.6330  174.3190  141.6270 C   0  0  0  0  0  0  0  0  0  0  0  0
  196.0530  174.9520  142.8230 N   0  0  0  0  0  0  0  0  0  0  0  0
  195.1200  175.9280  142.9590 C   0  0  0  0  0  3  0  0  0  0  0  0
  190.7470  175.3700  143.7900 S   0  0  0  0  0  0  0  0  0  0  0  0
  193.4310  174.4480  142.0380 C   0  0  0  0  0  0  0  0  0  0  0  0
  188.4640  174.8000  142.3950 C   0  0  0  0  0  2  0  0  0  0  0  0
  195.7550  173.7650  142.2370 C   0  0  0  0  0  3  0  0  0  0  0  0
  191.9210  173.2090  140.4980 C   0  0  0  0  0  0  0  0  0  0  0  0
  194.1670  172.2360  141.0610 C   0  0  0  0  0  2  0  0  0  0  0  0
  192.9240  176.7890  142.5480 O   0  0  0  0  0  1  0  0  0  0  0  0
  189.5190  173.5400  140.4800 C   0  0  0  0  0  3  0  0  0  0  0  0
  190.6610  172.9780  139.8890 C   0  0  0  0  0  0  0  0  0  0  0  0
  188.9560  174.9910  143.8230 C   0  0  2  0  0  3  0  0  0  0  0  0
  190.8660  174.6100  142.1750 C   0  0  0  0  0  0  0  0  0  0  0  0
  193.0720  172.4430  140.1170 N   0  0  0  0  0  2  0  0  0  0  0  0
  190.5520  171.8210  136.2670 C   0  0  0  0  0  0  0  0  0  0  0  0
  190.1200  170.5020  136.4130 C   0  0  0  0  0  3  0  0  0  0  0  0
  190.4940  172.1230  138.6830 C   0  0  0  0  0  0  0  0  0  0  0  0
  189.8680  169.9880  137.6880 C   0  0  0  0  0  3  0  0  0  0  0  0
  190.7330  172.6270  137.3950 C   0  0  0  0  0  3  0  0  0  0  0  0
  190.0510  170.7940  138.8150 C   0  0  0  0  0  3  0  0  0  0  0  0
  190.7920  172.3220  135.0310 F   0  0  0  0  0  0  0  0  0  0  0  0
  188.1980  176.0960  144.4750 C   0  0  0  0  0  3  0  0  0  0  0  0
  187.1920  176.6320  143.8840 N   0  0  0  0  0  0  0  0  0  0  0  0
  185.1010  177.8820  143.8130 C   0  0  0  0  0  2  0  0  0  0  0  0
  186.4540  177.6980  144.5080 C   0  0  1  0  0  3  0  0  0  0  0  0
  184.2750  178.9770  144.4910 C   0  0  1  0  0  3  0  0  0  0  0  0
  184.1130  178.6910  145.9850 C   0  0  0  0  0  2  0  0  0  0  0  0
  185.4700  178.4970  146.6610 C   0  0  0  0  0  2  0  0  0  0  0  0
  186.2420  177.3710  145.9830 C   0  0  0  0  0  2  0  0  0  0  0  0
  184.8720  180.2250  144.2990 O   0  0  0  0  0  1  0  0  0  0  0  0
  1  8  2  0  0  0  0
  1 10  1  0  0  0  0
  2 13  1  0  0  0  0
  2  6  2  0  0  0  0
  3  8  1  0  0  0  0
  3 17  1  0  0  0  0
  4 17  2  0  0  0  0
  4  9  1  0  0  0  0
  5  6  1  0  0  0  0
  7 16  1  0  0  0  0
  8  2  1  0  0  0  0
  9 16  1  0  0  0  0
 10  5  2  0  0  0  0
 11  3  2  0  0  0  0
 12  1  1  0  0  0  0
 14  4  1  0  0  0  0
 15 14  2  0  0  0  0
 15 11  1  0  0  0  0
 16 26  1  6  0  0  0
 17  7  1  0  0  0  0
 18 11  1  0  0  0  0
 18 12  1  0  0  0  0
 19 20  2  0  0  0  0
 19 23  1  0  0  0  0
 20 22  1  0  0  0  0
 21 24  1  0  0  0  0
 21 15  1  0  0  0  0
 22 24  2  0  0  0  0
 23 21  2  0  0  0  0
 25 19  1  0  0  0  0
 27 26  2  0  0  0  0
 28 30  1  0  0  0  0
 28 29  1  0  0  0  0
 29 27  1  6  0  0  0
 29 33  1  0  0  0  0
 30 34  1  1  0  0  0
 30 31  1  0  0  0  0
 31 32  1  0  0  0  0
 33 32  1  0  0  0  0
M  END
>  <MODEL>
6

>  <REMARK>
 VINA RESULT:      -7.4      3.780      8.822
  Name = 
  3 active torsions:
  status: ('A' for Active; 'I' for Inactive)
    1  A    between atoms: C_3  and  C_29
    2  A    between atoms: C_12  and  C_28
    3  A    between atoms: C_13  and  N_17
                            x       y       z     vdW  Elec       q    Type
                         _______ _______ _______ _____ _____    ______ ____

>  <TORSDO>
F 3

$$$$
=
 OpenBabel11052418383D

 34 39  0  0  1  0  0  0  0  0999 V2000
  195.1530  173.4970  143.8660 C   0  0  0  0  0  0  0  0  0  0  0  0
  194.2890  175.7550  143.9430 C   0  0  0  0  0  0  0  0  0  0  0  0
  192.6910  173.7830  143.5730 C   0  0  0  0  0  0  0  0  0  0  0  0
  190.2710  173.7640  143.6620 C   0  0  0  0  0  0  0  0  0  0  0  0
  196.6070  175.3260  144.3500 N   0  0  0  0  0  0  0  0  0  0  0  0
  195.5800  176.2060  144.2290 C   0  0  0  0  0  3  0  0  0  0  0  0
  191.2970  175.5120  145.3700 S   0  0  0  0  0  0  0  0  0  0  0  0
  194.0410  174.3660  143.8580 C   0  0  0  0  0  0  0  0  0  0  0  0
  189.0680  174.3390  144.3020 C   0  0  0  0  0  2  0  0  0  0  0  0
  196.4250  173.9950  144.1530 C   0  0  0  0  0  3  0  0  0  0  0  0
  192.6470  172.5880  142.8180 C   0  0  0  0  0  0  0  0  0  0  0  0
  194.9870  172.0440  143.5480 C   0  0  0  0  0  2  0  0  0  0  0  0
  193.3030  176.6940  143.6740 O   0  0  0  0  0  1  0  0  0  0  0  0
  190.2230  172.6710  142.8020 C   0  0  0  0  0  3  0  0  0  0  0  0
  191.4100  172.0690  142.3570 C   0  0  0  0  0  0  0  0  0  0  0  0
  189.5550  174.9930  145.5880 C   0  0  2  0  0  3  0  0  0  0  0  0
  191.4740  174.3200  144.0480 C   0  0  0  0  0  0  0  0  0  0  0  0
  193.8660  171.8550  142.6320 N   0  0  0  0  0  2  0  0  0  0  0  0
  191.2870  169.8910  139.2410 C   0  0  0  0  0  0  0  0  0  0  0  0
  191.0860  168.6260  139.7980 C   0  0  0  0  0  3  0  0  0  0  0  0
  191.3170  170.8810  141.4660 C   0  0  0  0  0  0  0  0  0  0  0  0
  190.9940  168.4820  141.1840 C   0  0  0  0  0  3  0  0  0  0  0  0
  191.3970  171.0110  140.0700 C   0  0  0  0  0  3  0  0  0  0  0  0
  191.1060  169.6020  142.0120 C   0  0  0  0  0  3  0  0  0  0  0  0
  191.3710  170.0330  137.8960 F   0  0  0  0  0  0  0  0  0  0  0  0
  188.6950  176.1660  145.9150 C   0  0  0  0  0  3  0  0  0  0  0  0
  187.6420  176.4140  145.2240 N   0  0  0  0  0  0  0  0  0  0  0  0
  185.7610  177.7470  144.4340 C   0  0  0  0  0  2  0  0  0  0  0  0
  186.8070  177.5430  145.5350 C   0  0  1  0  0  3  0  0  0  0  0  0
  184.8270  178.9120  144.7660 C   0  0  1  0  0  3  0  0  0  0  0  0
  184.1780  178.7150  146.1380 C   0  0  0  0  0  2  0  0  0  0  0  0
  185.2320  178.5000  147.2230 C   0  0  0  0  0  2  0  0  0  0  0  0
  186.1140  177.3070  146.8730 C   0  0  0  0  0  2  0  0  0  0  0  0
  185.5250  180.1200  144.7290 O   0  0  0  0  0  1  0  0  0  0  0  0
  1 10  1  0  0  0  0
  2  6  2  0  0  0  0
  3  8  1  0  0  0  0
  3 17  1  0  0  0  0
  4 17  2  0  0  0  0
  4  9  1  0  0  0  0
  6  5  1  0  0  0  0
  7 16  1  0  0  0  0
  8  1  2  0  0  0  0
  8  2  1  0  0  0  0
  9 16  1  0  0  0  0
 10  5  2  0  0  0  0
 11  3  2  0  0  0  0
 12  1  1  0  0  0  0
 13  2  1  0  0  0  0
 14  4  1  0  0  0  0
 15 14  2  0  0  0  0
 15 11  1  0  0  0  0
 16 26  1  6  0  0  0
 17  7  1  0  0  0  0
 18 11  1  0  0  0  0
 18 12  1  0  0  0  0
 19 20  2  0  0  0  0
 19 23  1  0  0  0  0
 20 22  1  0  0  0  0
 21 24  1  0  0  0  0
 21 15  1  0  0  0  0
 22 24  2  0  0  0  0
 23 21  2  0  0  0  0
 25 19  1  0  0  0  0
 27 26  2  0  0  0  0
 28 30  1  0  0  0  0
 28 29  1  0  0  0  0
 29 27  1  6  0  0  0
 29 33  1  0  0  0  0
 30 34  1  1  0  0  0
 30 31  1  0  0  0  0
 31 32  1  0  0  0  0
 33 32  1  0  0  0  0
M  END
>  <MODEL>
7

>  <REMARK>
 VINA RESULT:      -7.3      3.909      8.869
  Name = 
  3 active torsions:
  status: ('A' for Active; 'I' for Inactive)
    1  A    between atoms: C_3  and  C_29
    2  A    between atoms: C_12  and  C_28
    3  A    between atoms: C_13  and  N_17
                            x       y       z     vdW  Elec       q    Type
                         _______ _______ _______ _____ _____    ______ ____

>  <TORSDO>
F 3

$$$$
=
 OpenBabel11052418383D

 34 39  0  0  1  0  0  0  0  0999 V2000
  185.4950  177.6600  144.9650 C   0  0  0  0  0  0  0  0  0  0  0  0
  185.8650  177.8750  142.5850 C   0  0  0  0  0  0  0  0  0  0  0  0
  187.5310  176.5660  144.0280 C   0  0  0  0  0  0  0  0  0  0  0  0
  189.3270  175.1060  143.3130 C   0  0  0  0  0  0  0  0  0  0  0  0
  183.8800  178.7540  143.5900 N   0  0  0  0  0  0  0  0  0  0  0  0
  184.6480  178.5550  142.4880 C   0  0  0  0  0  3  0  0  0  0  0  0
  187.2700  175.0130  141.6440 S   0  0  0  0  0  0  0  0  0  0  0  0
  186.2560  177.3240  143.8260 C   0  0  0  0  0  0  0  0  0  0  0  0
  189.7780  174.1350  142.2930 C   0  0  0  0  0  2  0  0  0  0  0  0
  184.2870  178.3450  144.8190 C   0  0  0  0  0  3  0  0  0  0  0  0
  188.1740  176.6980  145.2820 C   0  0  0  0  0  0  0  0  0  0  0  0
  185.9780  177.3090  146.3370 C   0  0  0  0  0  2  0  0  0  0  0  0
  186.6890  177.8290  141.4690 O   0  0  0  0  0  1  0  0  0  0  0  0
  190.0270  175.3480  144.4910 C   0  0  0  0  0  3  0  0  0  0  0  0
  189.4670  176.1570  145.4930 C   0  0  0  0  0  0  0  0  0  0  0  0
  188.5190  173.6770  141.5700 C   0  0  2  0  0  3  0  0  0  0  0  0
  188.1030  175.6970  143.0720 C   0  0  0  0  0  0  0  0  0  0  0  0
  187.4380  177.2860  146.3640 N   0  0  0  0  0  2  0  0  0  0  0  0
  190.9080  177.7750  148.6190 C   0  0  0  0  0  0  0  0  0  0  0  0
  191.7280  176.7540  149.1040 C   0  0  0  0  0  3  0  0  0  0  0  0
  190.2320  176.3640  146.7520 C   0  0  0  0  0  0  0  0  0  0  0  0
  191.8090  175.5400  148.4170 C   0  0  0  0  0  3  0  0  0  0  0  0
  190.1690  177.5820  147.4480 C   0  0  0  0  0  3  0  0  0  0  0  0
  191.0680  175.3480  147.2480 C   0  0  0  0  0  3  0  0  0  0  0  0
  190.8330  178.9540  149.2810 F   0  0  0  0  0  0  0  0  0  0  0  0
  188.8420  173.3380  140.1550 C   0  0  0  0  0  3  0  0  0  0  0  0
  189.9040  172.6740  139.8720 N   0  0  0  0  0  0  0  0  0  0  0  0
  189.6980  170.9430  138.1680 C   0  0  0  0  0  2  0  0  0  0  0  0
  190.2210  172.3430  138.5080 C   0  0  1  0  0  3  0  0  0  0  0  0
  189.9790  170.5870  136.7080 C   0  0  1  0  0  3  0  0  0  0  0  0
  189.4080  171.6510  135.7680 C   0  0  0  0  0  2  0  0  0  0  0  0
  189.9290  173.0420  136.1270 C   0  0  0  0  0  2  0  0  0  0  0  0
  189.5920  173.3740  137.5770 C   0  0  0  0  0  2  0  0  0  0  0  0
  191.3520  170.4420  136.4980 O   0  0  0  0  0  1  0  0  0  0  0  0
  1 12  1  0  0  0  0
  2  8  1  0  0  0  0
  3 11  1  0  0  0  0
  4 14  2  0  0  0  0
  5 10  2  0  0  0  0
  6  2  2  0  0  0  0
  6  5  1  0  0  0  0
  7 17  1  0  0  0  0
  8  3  1  0  0  0  0
  8  1  2  0  0  0  0
  9  4  1  0  0  0  0
 10  1  1  0  0  0  0
 11 15  2  0  0  0  0
 11 18  1  0  0  0  0
 12 18  1  0  0  0  0
 13  2  1  0  0  0  0
 14 15  1  0  0  0  0
 15 21  1  0  0  0  0
 16 26  1  6  0  0  0
 16  7  1  0  0  0  0
 16  9  1  0  0  0  0
 17  4  1  0  0  0  0
 17  3  2  0  0  0  0
 19 20  1  0  0  0  0
 19 25  1  0  0  0  0
 21 24  2  0  0  0  0
 21 23  1  0  0  0  0
 22 20  2  0  0  0  0
 23 19  2  0  0  0  0
 24 22  1  0  0  0  0
 27 26  2  0  0  0  0
 28 29  1  0  0  0  0
 29 27  1  1  0  0  0
 30 34  1  1  0  0  0
 30 28  1  0  0  0  0
 31 32  1  0  0  0  0
 31 30  1  0  0  0  0
 32 33  1  0  0  0  0
 33 29  1  0  0  0  0
M  END
>  <MODEL>
8

>  <REMARK>
 VINA RESULT:      -7.1      2.651      5.205
  Name = 
  3 active torsions:
  status: ('A' for Active; 'I' for Inactive)
    1  A    between atoms: C_3  and  C_29
    2  A    between atoms: C_12  and  C_28
    3  A    between atoms: C_13  and  N_17
                            x       y       z     vdW  Elec       q    Type
                         _______ _______ _______ _____ _____    ______ ____

>  <TORSDO>
F 3

$$$$
=
 OpenBabel11052418383D

 34 39  0  0  1  0  0  0  0  0999 V2000
  186.4720  178.2610  145.1870 C   0  0  0  0  0  0  0  0  0  0  0  0
  187.4340  176.6380  146.7000 C   0  0  0  0  0  0  0  0  0  0  0  0
  188.1970  176.7190  144.2530 C   0  0  0  0  0  0  0  0  0  0  0  0
  190.0980  175.6250  143.2270 C   0  0  0  0  0  0  0  0  0  0  0  0
  185.8760  178.2680  147.4980 N   0  0  0  0  0  0  0  0  0  0  0  0
  186.6820  177.2010  147.7340 C   0  0  0  0  0  3  0  0  0  0  0  0
  190.5990  176.2990  145.7410 S   0  0  0  0  0  0  0  0  0  0  0  0
  187.4140  177.2360  145.4200 C   0  0  0  0  0  0  0  0  0  0  0  0
  191.4880  175.1580  143.4190 C   0  0  0  0  0  2  0  0  0  0  0  0
  185.7400  178.7890  146.2520 C   0  0  0  0  0  3  0  0  0  0  0  0
  187.6150  176.8530  142.9700 C   0  0  0  0  0  0  0  0  0  0  0  0
  186.2320  178.7770  143.8030 C   0  0  0  0  0  2  0  0  0  0  0  0
  188.1220  175.4580  146.9470 O   0  0  0  0  0  1  0  0  0  0  0  0
  189.4650  175.6300  141.9880 C   0  0  0  0  0  3  0  0  0  0  0  0
  188.2070  176.2360  141.8390 C   0  0  0  0  0  0  0  0  0  0  0  0
  192.0090  175.8970  144.6450 C   0  0  2  0  0  3  0  0  0  0  0  0
  189.4880  176.1550  144.3460 C   0  0  0  0  0  0  0  0  0  0  0  0
  186.4840  177.7230  142.8240 N   0  0  0  0  0  2  0  0  0  0  0  0
  187.3330  175.3300  138.2500 C   0  0  0  0  0  0  0  0  0  0  0  0
  186.4130  176.3310  137.9300 C   0  0  0  0  0  3  0  0  0  0  0  0
  187.5780  176.2510  140.4910 C   0  0  0  0  0  0  0  0  0  0  0  0
  186.0760  177.2970  138.8810 C   0  0  0  0  0  3  0  0  0  0  0  0
  187.9140  175.2940  139.5210 C   0  0  0  0  0  3  0  0  0  0  0  0
  186.6560  177.2590  140.1530 C   0  0  0  0  0  3  0  0  0  0  0  0
  187.6650  174.3960  137.3270 F   0  0  0  0  0  0  0  0  0  0  0  0
  193.0050  175.0500  145.3600 C   0  0  0  0  0  3  0  0  0  0  0  0
  193.6690  174.1520  144.7270 N   0  0  0  0  0  0  0  0  0  0  0  0
  194.9520  172.0850  144.5800 C   0  0  0  0  0  2  0  0  0  0  0  0
  194.6330  173.3320  145.4110 C   0  0  1  0  0  3  0  0  0  0  0  0
  196.0140  171.2210  145.2630 C   0  0  1  0  0  3  0  0  0  0  0  0
  197.2710  172.0410  145.5640 C   0  0  0  0  0  2  0  0  0  0  0  0
  196.9360  173.2870  146.3820 C   0  0  0  0  0  2  0  0  0  0  0  0
  195.9060  174.1390  145.6480 C   0  0  0  0  0  2  0  0  0  0  0  0
  195.5060  170.6640  146.4380 O   0  0  0  0  0  1  0  0  0  0  0  0
  1  8  2  0  0  0  0
  1 10  1  0  0  0  0
  2 13  1  0  0  0  0
  2  6  2  0  0  0  0
  3 17  1  0  0  0  0
  3  8  1  0  0  0  0
  4  9  1  0  0  0  0
  4 17  2  0  0  0  0
  5  6  1  0  0  0  0
  8  2  1  0  0  0  0
  9 16  1  0  0  0  0
 10  5  2  0  0  0  0
 11  3  2  0  0  0  0
 12  1  1  0  0  0  0
 14  4  1  0  0  0  0
 15 14  2  0  0  0  0
 15 11  1  0  0  0  0
 16 26  1  1  0  0  0
 16  7  1  0  0  0  0
 17  7  1  0  0  0  0
 18 11  1  0  0  0  0
 18 12  1  0  0  0  0
 19 23  1  0  0  0  0
 20 19  2  0  0  0  0
 20 22  1  0  0  0  0
 21 15  1  0  0  0  0
 22 24  2  0  0  0  0
 23 21  2  0  0  0  0
 24 21  1  0  0  0  0
 25 19  1  0  0  0  0
 27 26  2  0  0  0  0
 28 30  1  0  0  0  0
 28 29  1  0  0  0  0
 29 27  1  6  0  0  0
 29 33  1  0  0  0  0
 30 31  1  0  0  0  0
 30 34  1  1  0  0  0
 31 32  1  0  0  0  0
 33 32  1  0  0  0  0
M  END
>  <MODEL>
9

>  <REMARK>
 VINA RESULT:      -6.9      4.383      6.994
  Name = 
  3 active torsions:
  status: ('A' for Active; 'I' for Inactive)
    1  A    between atoms: C_3  and  C_29
    2  A    between atoms: C_12  and  C_28
    3  A    between atoms: C_13  and  N_17
                            x       y       z     vdW  Elec       q    Type
                         _______ _______ _______ _____ _____    ______ ____

>  <TORSDO>
F 3

$$$$
