=
 OpenBabel11052421313D

 32 36  0  0  1  0  0  0  0  0999 V2000
  188.5870  176.0220  142.8890 C   0  0  0  0  0  0  0  0  0  0  0  0
  190.3740  176.8690  147.3330 C   0  0  0  0  0  3  0  0  0  0  0  0
  191.3630  175.9060  147.1300 C   0  0  0  0  0  3  0  0  0  0  0  0
  189.6520  174.3100  141.4200 C   0  0  0  0  0  0  0  0  0  0  0  0
  190.6500  173.3480  141.2460 C   0  0  0  0  0  0  0  0  0  0  0  0
  187.0640  177.7310  142.0000 N   0  0  0  0  0  0  0  0  0  0  0  0
  187.5710  177.6880  144.3210 O   0  0  0  0  0  0  0  0  0  0  0  0
  192.4980  172.1150  141.9310 C   0  0  0  0  0  0  0  0  0  0  0  0
  189.4410  177.1310  146.3290 C   0  0  0  0  0  3  0  0  0  0  0  0
  188.5470  176.7060  144.1140 C   0  0  0  0  0  0  0  0  0  0  0  0
  189.4870  176.4350  145.1120 C   0  0  0  0  0  0  0  0  0  0  0  0
  190.5370  174.7570  143.6760 C   0  0  0  0  0  0  0  0  0  0  0  0
  192.1030  171.6280  140.3880 S   0  0  0  0  0  0  0  0  0  0  0  0
  186.5510  177.9630  143.3590 C   0  0  1  0  0  3  0  0  0  0  0  0
  190.7880  172.6160  140.1060 N   0  0  0  0  0  2  0  0  0  0  0  0
  191.4200  175.2060  145.9230 C   0  0  0  0  0  3  0  0  0  0  0  0
  190.4870  175.4590  144.8990 C   0  0  0  0  0  0  0  0  0  0  0  0
  191.5330  173.7840  143.4700 C   0  0  0  0  0  3  0  0  0  0  0  0
  187.4870  176.3320  141.9120 C   0  0  0  0  0  2  0  0  0  0  0  0
  188.7610  174.5340  140.3760 O   0  0  0  0  0  1  0  0  0  0  0  0
  193.4430  171.6780  142.6390 O   0  0  0  0  0  0  0  0  0  0  0  0
  189.5780  175.0330  142.6480 C   0  0  0  0  0  0  0  0  0  0  0  0
  191.5810  173.0920  142.2690 C   0  0  0  0  0  0  0  0  0  0  0  0
  185.0020  179.7220  144.0990 N   0  0  0  0  0  0  0  0  0  0  0  0
  186.1150  179.3930  143.5390 C   0  0  0  0  0  3  0  0  0  0  0  0
  184.0720  178.7520  144.6190 C   0  0  0  0  0  2  0  0  0  0  0  0
  184.0490  178.8330  146.1330 C   0  0  0  0  0  2  0  0  0  0  0  0
  185.0190  177.8600  146.7170 C   0  0  0  0  0  0  0  0  0  0  0  0
  186.1210  178.3480  147.5910 C   0  0  0  0  0  1  0  0  0  0  0  0
  184.9260  176.6690  146.4640 O   0  0  0  0  0  0  0  0  0  0  0  0
  186.4110  177.4130  139.6780 C   0  0  0  0  0  1  0  0  0  0  0  0
  185.9630  177.8640  141.0540 C   0  0  0  0  0  2  0  0  0  0  0  0
  1 10  1  0  0  0  0
  3  2  1  0  0  0  0
  4 22  1  0  0  0  0
  5  4  2  0  0  0  0
  5 23  1  0  0  0  0
  6 14  1  0  0  0  0
  8 23  1  0  0  0  0
  8 21  2  0  0  0  0
  9  2  2  0  0  0  0
 10  7  1  0  0  0  0
 10 11  2  0  0  0  0
 11  9  1  0  0  0  0
 12 17  2  0  0  0  0
 13  8  1  0  0  0  0
 14 25  1  6  0  0  0
 14  7  1  0  0  0  0
 15 13  1  0  0  0  0
 15  5  1  0  0  0  0
 16  3  2  0  0  0  0
 17 11  1  0  0  0  0
 17 16  1  0  0  0  0
 18 12  1  0  0  0  0
 19  6  1  0  0  0  0
 19  1  1  0  0  0  0
 20  4  1  0  0  0  0
 22  1  2  0  0  0  0
 22 12  1  0  0  0  0
 23 18  2  0  0  0  0
 24 26  1  0  0  0  0
 25 24  2  0  0  0  0
 26 27  1  0  0  0  0
 27 28  1  0  0  0  0
 28 29  1  0  0  0  0
 30 28  2  0  0  0  0
 31 32  1  0  0  0  0
 32  6  1  0  0  0  0
M  END
>  <MODEL>
1

>  <REMARK>
 VINA RESULT:      -7.8      0.000      0.000
  Name = 
  5 active torsions:
  status: ('A' for Active; 'I' for Inactive)
    1  A    between atoms: C_1  and  C_10
    2  A    between atoms: N_2  and  C_24
    3  A    between atoms: N_8  and  C_23
    4  A    between atoms: C_10  and  C_24
    5  A    between atoms: C_12  and  C_21
                            x       y       z     vdW  Elec       q    Type
                         _______ _______ _______ _____ _____    ______ ____

>  <TORSDO>
F 5

$$$$
=
 OpenBabel11052421313D

 32 36  0  0  1  0  0  0  0  0999 V2000
  187.1490  176.8560  143.1050 C   0  0  0  0  0  0  0  0  0  0  0  0
  184.3560  178.6200  146.6740 C   0  0  0  0  0  3  0  0  0  0  0  0
  185.3020  178.2290  147.6220 C   0  0  0  0  0  3  0  0  0  0  0  0
  189.3400  175.7910  143.6440 C   0  0  0  0  0  0  0  0  0  0  0  0
  190.2670  175.4060  144.6150 C   0  0  0  0  0  0  0  0  0  0  0  0
  186.5950  177.6100  140.8340 N   0  0  0  0  0  0  0  0  0  0  0  0
  185.0270  177.9030  142.5960 O   0  0  0  0  0  0  0  0  0  0  0  0
  191.0410  175.2170  146.7990 C   0  0  0  0  0  0  0  0  0  0  0  0
  184.5830  178.3720  145.3200 C   0  0  0  0  0  3  0  0  0  0  0  0
  185.9740  177.4890  143.5400 C   0  0  0  0  0  0  0  0  0  0  0  0
  185.7570  177.7320  144.8990 C   0  0  0  0  0  0  0  0  0  0  0  0
  187.9050  176.6910  145.4340 C   0  0  0  0  0  0  0  0  0  0  0  0
  192.1830  174.5400  145.7930 S   0  0  0  0  0  0  0  0  0  0  0  0
  185.1700  177.6270  141.2020 C   0  0  1  0  0  3  0  0  0  0  0  0
  191.4400  174.7800  144.3180 N   0  0  0  0  0  2  0  0  0  0  0  0
  186.4750  177.5910  147.2160 C   0  0  0  0  0  3  0  0  0  0  0  0
  186.7210  177.3340  145.8540 C   0  0  0  0  0  0  0  0  0  0  0  0
  188.8600  176.2930  146.3880 C   0  0  0  0  0  3  0  0  0  0  0  0
  187.2520  176.5720  141.6310 C   0  0  0  0  0  2  0  0  0  0  0  0
  189.6320  175.5270  142.3100 O   0  0  0  0  0  1  0  0  0  0  0  0
  191.1010  175.3050  148.0540 O   0  0  0  0  0  0  0  0  0  0  0  0
  188.1340  176.4410  144.0410 C   0  0  0  0  0  0  0  0  0  0  0  0
  190.0220  175.6590  145.9770 C   0  0  0  0  0  0  0  0  0  0  0  0
  183.1380  178.7690  140.4220 N   0  0  0  0  0  0  0  0  0  0  0  0
  184.4240  178.6890  140.4380 C   0  0  0  0  0  3  0  0  0  0  0  0
  182.2890  177.8570  141.1460 C   0  0  0  0  0  2  0  0  0  0  0  0
  181.1550  178.6260  141.7940 C   0  0  0  0  0  2  0  0  0  0  0  0
  180.2180  179.1410  140.7530 C   0  0  0  0  0  0  0  0  0  0  0  0
  179.3150  178.1960  140.0380 C   0  0  0  0  0  1  0  0  0  0  0  0
  180.2030  180.3280  140.4690 O   0  0  0  0  0  0  0  0  0  0  0  0
  187.3750  175.8050  139.4010 C   0  0  0  0  0  1  0  0  0  0  0  0
  186.7170  177.1710  139.4500 C   0  0  0  0  0  2  0  0  0  0  0  0
  1 10  2  0  0  0  0
  1 22  1  0  0  0  0
  2  3  1  0  0  0  0
  4 22  2  0  0  0  0
  4  5  1  0  0  0  0
  5 23  2  0  0  0  0
  6 14  1  0  0  0  0
  6 19  1  0  0  0  0
  7 10  1  0  0  0  0
  8 21  2  0  0  0  0
  9  2  2  0  0  0  0
 10 11  1  0  0  0  0
 11  9  1  0  0  0  0
 11 17  2  0  0  0  0
 12 17  1  0  0  0  0
 12 18  2  0  0  0  0
 13  8  1  0  0  0  0
 14 25  1  6  0  0  0
 14  7  1  0  0  0  0
 15  5  1  0  0  0  0
 15 13  1  0  0  0  0
 16  3  2  0  0  0  0
 17 16  1  0  0  0  0
 19  1  1  0  0  0  0
 20  4  1  0  0  0  0
 22 12  1  0  0  0  0
 23 18  1  0  0  0  0
 23  8  1  0  0  0  0
 24 25  2  0  0  0  0
 24 26  1  0  0  0  0
 26 27  1  0  0  0  0
 28 27  1  0  0  0  0
 29 28  1  0  0  0  0
 30 28  2  0  0  0  0
 31 32  1  0  0  0  0
 32  6  1  0  0  0  0
M  END
>  <MODEL>
2

>  <REMARK>
 VINA RESULT:      -7.7      3.210      4.861
  Name = 
  5 active torsions:
  status: ('A' for Active; 'I' for Inactive)
    1  A    between atoms: C_1  and  C_10
    2  A    between atoms: N_2  and  C_24
    3  A    between atoms: N_8  and  C_23
    4  A    between atoms: C_10  and  C_24
    5  A    between atoms: C_12  and  C_21
                            x       y       z     vdW  Elec       q    Type
                         _______ _______ _______ _____ _____    ______ ____

>  <TORSDO>
F 5

$$$$
=
 OpenBabel11052421313D

 32 36  0  0  1  0  0  0  0  0999 V2000
  189.0170  175.5890  143.2520 C   0  0  0  0  0  0  0  0  0  0  0  0
  192.1700  175.2380  146.9380 C   0  0  0  0  0  3  0  0  0  0  0  0
  191.3020  175.9530  147.7630 C   0  0  0  0  0  3  0  0  0  0  0  0
  186.8530  176.7880  143.5690 C   0  0  0  0  0  0  0  0  0  0  0  0
  186.0050  177.5060  144.4160 C   0  0  0  0  0  0  0  0  0  0  0  0
  189.3890  174.0540  141.3710 N   0  0  0  0  0  0  0  0  0  0  0  0
  191.1150  174.4170  142.9620 O   0  0  0  0  0  0  0  0  0  0  0  0
  185.4240  178.4850  146.4430 C   0  0  0  0  0  0  0  0  0  0  0  0
  191.8160  174.9750  145.6140 C   0  0  0  0  0  3  0  0  0  0  0  0
  190.2450  175.1530  143.7750 C   0  0  0  0  0  0  0  0  0  0  0  0
  190.5900  175.4230  145.1020 C   0  0  0  0  0  0  0  0  0  0  0  0
  188.4680  176.5980  145.4200 C   0  0  0  0  0  0  0  0  0  0  0  0
  184.1770  178.7520  145.3720 S   0  0  0  0  0  0  0  0  0  0  0  0
  190.8400  174.1650  141.5830 C   0  0  1  0  0  3  0  0  0  0  0  0
  184.7920  177.9850  144.0230 N   0  0  0  0  0  2  0  0  0  0  0  0
  190.0780  176.4050  147.2650 C   0  0  0  0  0  3  0  0  0  0  0  0
  189.7040  176.1470  145.9320 C   0  0  0  0  0  0  0  0  0  0  0  0
  187.5910  177.3220  146.2500 C   0  0  0  0  0  3  0  0  0  0  0  0
  188.7740  175.3140  141.7930 C   0  0  0  0  0  2  0  0  0  0  0  0
  186.4350  176.5470  142.2650 O   0  0  0  0  0  1  0  0  0  0  0  0
  185.4800  178.8620  147.6430 O   0  0  0  0  0  0  0  0  0  0  0  0
  188.1090  176.3220  144.0610 C   0  0  0  0  0  0  0  0  0  0  0  0
  186.3780  177.7670  145.7470 C   0  0  0  0  0  0  0  0  0  0  0  0
  192.7700  172.8660  140.7890 N   0  0  0  0  0  0  0  0  0  0  0  0
  191.5460  172.8940  141.1930 C   0  0  0  0  0  3  0  0  0  0  0  0
  193.5860  174.0500  140.6840 C   0  0  0  0  0  2  0  0  0  0  0  0
  194.5030  174.1410  141.8870 C   0  0  0  0  0  2  0  0  0  0  0  0
  194.3560  175.4700  142.5500 C   0  0  0  0  0  0  0  0  0  0  0  0
  195.0520  175.7340  143.8400 C   0  0  0  0  0  1  0  0  0  0  0  0
  193.6510  176.3330  142.0520 O   0  0  0  0  0  0  0  0  0  0  0  0
  188.1930  172.7970  139.6650 C   0  0  0  0  0  1  0  0  0  0  0  0
  189.1300  173.9570  139.9400 C   0  0  0  0  0  2  0  0  0  0  0  0
  1 10  2  0  0  0  0
  1 22  1  0  0  0  0
  2  3  1  0  0  0  0
  4 22  2  0  0  0  0
  4  5  1  0  0  0  0
  5 23  2  0  0  0  0
  6 14  1  0  0  0  0
  6 19  1  0  0  0  0
  7 10  1  0  0  0  0
  8 21  2  0  0  0  0
  9  2  2  0  0  0  0
 10 11  1  0  0  0  0
 11  9  1  0  0  0  0
 11 17  2  0  0  0  0
 12 17  1  0  0  0  0
 12 18  2  0  0  0  0
 13  8  1  0  0  0  0
 14 25  1  1  0  0  0
 14  7  1  0  0  0  0
 15  5  1  0  0  0  0
 15 13  1  0  0  0  0
 16  3  2  0  0  0  0
 17 16  1  0  0  0  0
 19  1  1  0  0  0  0
 20  4  1  0  0  0  0
 22 12  1  0  0  0  0
 23 18  1  0  0  0  0
 23  8  1  0  0  0  0
 24 25  2  0  0  0  0
 26 24  1  0  0  0  0
 26 27  1  0  0  0  0
 27 28  1  0  0  0  0
 28 29  1  0  0  0  0
 30 28  2  0  0  0  0
 31 32  1  0  0  0  0
 32  6  1  0  0  0  0
M  END
>  <MODEL>
3

>  <REMARK>
 VINA RESULT:      -7.4      2.907      7.093
  Name = 
  5 active torsions:
  status: ('A' for Active; 'I' for Inactive)
    1  A    between atoms: C_1  and  C_10
    2  A    between atoms: N_2  and  C_24
    3  A    between atoms: N_8  and  C_23
    4  A    between atoms: C_10  and  C_24
    5  A    between atoms: C_12  and  C_21
                            x       y       z     vdW  Elec       q    Type
                         _______ _______ _______ _____ _____    ______ ____

>  <TORSDO>
F 5

$$$$
=
 OpenBabel11052421313D

 32 36  0  0  1  0  0  0  0  0999 V2000
  187.6410  177.0680  143.6430 C   0  0  0  0  0  0  0  0  0  0  0  0
  186.5500  178.3680  148.2010 C   0  0  0  0  0  3  0  0  0  0  0  0
  185.2780  178.7690  147.7930 C   0  0  0  0  0  3  0  0  0  0  0  0
  185.9550  177.3520  141.8260 C   0  0  0  0  0  0  0  0  0  0  0  0
  184.6770  177.7660  141.4450 C   0  0  0  0  0  0  0  0  0  0  0  0
  189.6010  175.6110  143.3810 N   0  0  0  0  0  0  0  0  0  0  0  0
  189.2620  176.7860  145.4180 O   0  0  0  0  0  0  0  0  0  0  0  0
  182.5640  178.6480  141.8510 C   0  0  0  0  0  0  0  0  0  0  0  0
  187.4490  177.8490  147.2680 C   0  0  0  0  0  3  0  0  0  0  0  0
  187.9950  177.2040  144.9940 C   0  0  0  0  0  0  0  0  0  0  0  0
  187.0860  177.7250  145.9190 C   0  0  0  0  0  0  0  0  0  0  0  0
  185.4290  178.0040  144.1430 C   0  0  0  0  0  0  0  0  0  0  0  0
  182.6650  178.2920  140.2270 S   0  0  0  0  0  0  0  0  0  0  0  0
  190.2490  176.3030  144.5060 C   0  0  1  0  0  3  0  0  0  0  0  0
  184.2200  177.6890  140.1640 N   0  0  0  0  0  2  0  0  0  0  0  0
  184.9040  178.6510  146.4540 C   0  0  0  0  0  3  0  0  0  0  0  0
  185.7980  178.1290  145.4990 C   0  0  0  0  0  0  0  0  0  0  0  0
  184.1460  178.4100  143.7290 C   0  0  0  0  0  3  0  0  0  0  0  0
  188.7140  176.5680  142.7150 C   0  0  0  0  0  2  0  0  0  0  0  0
  186.7990  176.8310  140.8500 O   0  0  0  0  0  1  0  0  0  0  0  0
  181.5740  179.1410  142.4530 O   0  0  0  0  0  0  0  0  0  0  0  0
  186.3550  177.4690  143.1900 C   0  0  0  0  0  0  0  0  0  0  0  0
  183.7820  178.2910  142.3960 C   0  0  0  0  0  0  0  0  0  0  0  0
  192.4130  175.6270  145.4540 N   0  0  0  0  0  0  0  0  0  0  0  0
  191.1650  175.3750  145.2600 C   0  0  0  0  0  3  0  0  0  0  0  0
  193.0520  176.8280  144.9790 C   0  0  0  0  0  2  0  0  0  0  0  0
  194.4310  176.9470  145.5970 C   0  0  0  0  0  2  0  0  0  0  0  0
  195.3330  175.8880  145.0570 C   0  0  0  0  0  0  0  0  0  0  0  0
  195.8400  175.9910  143.6600 C   0  0  0  0  0  1  0  0  0  0  0  0
  195.6390  174.9280  145.7450 O   0  0  0  0  0  0  0  0  0  0  0  0
  190.0620  174.2480  141.4190 C   0  0  0  0  0  1  0  0  0  0  0  0
  190.6160  175.2710  142.3910 C   0  0  0  0  0  2  0  0  0  0  0  0
  1 10  1  0  0  0  0
  3  2  1  0  0  0  0
  4 22  1  0  0  0  0
  5  4  2  0  0  0  0
  5 23  1  0  0  0  0
  6 14  1  0  0  0  0
  8 23  1  0  0  0  0
  8 21  2  0  0  0  0
  9  2  2  0  0  0  0
 10  7  1  0  0  0  0
 10 11  2  0  0  0  0
 11  9  1  0  0  0  0
 12 17  2  0  0  0  0
 13  8  1  0  0  0  0
 14 25  1  1  0  0  0
 14  7  1  0  0  0  0
 15 13  1  0  0  0  0
 15  5  1  0  0  0  0
 16  3  2  0  0  0  0
 17 11  1  0  0  0  0
 17 16  1  0  0  0  0
 18 12  1  0  0  0  0
 19  6  1  0  0  0  0
 19  1  1  0  0  0  0
 20  4  1  0  0  0  0
 22  1  2  0  0  0  0
 22 12  1  0  0  0  0
 23 18  2  0  0  0  0
 25 24  2  0  0  0  0
 26 24  1  0  0  0  0
 26 27  1  0  0  0  0
 28 27  1  0  0  0  0
 28 30  2  0  0  0  0
 29 28  1  0  0  0  0
 31 32  1  0  0  0  0
 32  6  1  0  0  0  0
M  END
>  <MODEL>
4

>  <REMARK>
 VINA RESULT:      -7.4      3.384      7.428
  Name = 
  5 active torsions:
  status: ('A' for Active; 'I' for Inactive)
    1  A    between atoms: C_1  and  C_10
    2  A    between atoms: N_2  and  C_24
    3  A    between atoms: N_8  and  C_23
    4  A    between atoms: C_10  and  C_24
    5  A    between atoms: C_12  and  C_21
                            x       y       z     vdW  Elec       q    Type
                         _______ _______ _______ _____ _____    ______ ____

>  <TORSDO>
F 5

$$$$
=
 OpenBabel11052421313D

 32 36  0  0  1  0  0  0  0  0999 V2000
  188.8700  175.1840  143.5830 C   0  0  0  0  0  0  0  0  0  0  0  0
  192.4290  175.3920  146.8900 C   0  0  0  0  0  3  0  0  0  0  0  0
  191.6850  176.2940  147.6510 C   0  0  0  0  0  3  0  0  0  0  0  0
  186.7910  176.5280  143.8980 C   0  0  0  0  0  0  0  0  0  0  0  0
  186.0700  177.4350  144.6770 C   0  0  0  0  0  0  0  0  0  0  0  0
  188.9730  173.3000  142.0100 N   0  0  0  0  0  0  0  0  0  0  0  0
  190.8860  173.8760  143.2960 O   0  0  0  0  0  0  0  0  0  0  0  0
  185.7620  178.8130  146.5240 C   0  0  0  0  0  0  0  0  0  0  0  0
  191.9120  174.8970  145.6920 C   0  0  0  0  0  3  0  0  0  0  0  0
  190.1390  174.7960  144.0400 C   0  0  0  0  0  0  0  0  0  0  0  0
  190.6460  175.2980  145.2420 C   0  0  0  0  0  0  0  0  0  0  0  0
  188.6100  176.6160  145.5580 C   0  0  0  0  0  0  0  0  0  0  0  0
  184.4040  178.9310  145.5670 S   0  0  0  0  0  0  0  0  0  0  0  0
  190.4420  173.3780  142.0330 C   0  0  1  0  0  3  0  0  0  0  0  0
  184.8330  177.8900  144.3360 N   0  0  0  0  0  2  0  0  0  0  0  0
  190.4230  176.7010  147.2140 C   0  0  0  0  0  3  0  0  0  0  0  0
  189.8860  176.2120  146.0070 C   0  0  0  0  0  0  0  0  0  0  0  0
  187.8580  177.5280  146.3220 C   0  0  0  0  0  3  0  0  0  0  0  0
  188.4470  174.6470  142.2420 C   0  0  0  0  0  2  0  0  0  0  0  0
  186.2150  176.0620  142.7210 O   0  0  0  0  0  1  0  0  0  0  0  0
  185.9700  179.4100  147.6130 O   0  0  0  0  0  0  0  0  0  0  0  0
  188.0840  176.1030  144.3280 C   0  0  0  0  0  0  0  0  0  0  0  0
  186.6060  177.9290  145.8810 C   0  0  0  0  0  0  0  0  0  0  0  0
  191.7910  171.7350  140.8000 N   0  0  0  0  0  0  0  0  0  0  0  0
  191.0620  172.0220  141.8230 C   0  0  0  0  0  3  0  0  0  0  0  0
  192.0950  172.6890  139.7630 C   0  0  0  0  0  2  0  0  0  0  0  0
  192.1540  171.9800  138.4250 C   0  0  0  0  0  2  0  0  0  0  0  0
  190.8390  172.0800  137.7280 C   0  0  0  0  0  0  0  0  0  0  0  0
  189.8940  170.9290  137.7620 C   0  0  0  0  0  1  0  0  0  0  0  0
  190.5420  173.0910  137.1110 O   0  0  0  0  0  0  0  0  0  0  0  0
  188.5620  174.1730  139.7760 C   0  0  0  0  0  1  0  0  0  0  0  0
  188.5430  172.9430  140.6640 C   0  0  0  0  0  2  0  0  0  0  0  0
  1 10  2  0  0  0  0
  1 22  1  0  0  0  0
  2  3  1  0  0  0  0
  4 22  2  0  0  0  0
  4  5  1  0  0  0  0
  5 23  2  0  0  0  0
  6 14  1  0  0  0  0
  6 19  1  0  0  0  0
  7 10  1  0  0  0  0
  8 21  2  0  0  0  0
  9  2  2  0  0  0  0
 10 11  1  0  0  0  0
 11  9  1  0  0  0  0
 11 17  2  0  0  0  0
 12 17  1  0  0  0  0
 12 18  2  0  0  0  0
 13  8  1  0  0  0  0
 14 25  1  1  0  0  0
 14  7  1  0  0  0  0
 15  5  1  0  0  0  0
 15 13  1  0  0  0  0
 16  3  2  0  0  0  0
 17 16  1  0  0  0  0
 19  1  1  0  0  0  0
 20  4  1  0  0  0  0
 22 12  1  0  0  0  0
 23 18  1  0  0  0  0
 23  8  1  0  0  0  0
 24 25  2  0  0  0  0
 26 24  1  0  0  0  0
 27 26  1  0  0  0  0
 28 29  1  0  0  0  0
 28 27  1  0  0  0  0
 30 28  2  0  0  0  0
 31 32  1  0  0  0  0
 32  6  1  0  0  0  0
M  END
>  <MODEL>
5

>  <REMARK>
 VINA RESULT:      -7.2      2.941      7.474
  Name = 
  5 active torsions:
  status: ('A' for Active; 'I' for Inactive)
    1  A    between atoms: C_1  and  C_10
    2  A    between atoms: N_2  and  C_24
    3  A    between atoms: N_8  and  C_23
    4  A    between atoms: C_10  and  C_24
    5  A    between atoms: C_12  and  C_21
                            x       y       z     vdW  Elec       q    Type
                         _______ _______ _______ _____ _____    ______ ____

>  <TORSDO>
F 5

$$$$
=
 OpenBabel11052421313D

 32 36  0  0  1  0  0  0  0  0999 V2000
  188.6130  175.8670  143.1690 C   0  0  0  0  0  0  0  0  0  0  0  0
  187.7260  176.0610  147.9470 C   0  0  0  0  0  3  0  0  0  0  0  0
  186.4970  176.6760  147.7050 C   0  0  0  0  0  3  0  0  0  0  0  0
  186.9420  176.7690  141.5510 C   0  0  0  0  0  0  0  0  0  0  0  0
  185.7090  177.3890  141.3380 C   0  0  0  0  0  0  0  0  0  0  0  0
  190.4060  174.3410  142.4700 N   0  0  0  0  0  0  0  0  0  0  0  0
  190.2200  174.9850  144.7500 O   0  0  0  0  0  0  0  0  0  0  0  0
  183.7060  178.3400  142.0360 C   0  0  0  0  0  0  0  0  0  0  0  0
  188.5540  175.7120  146.8790 C   0  0  0  0  0  3  0  0  0  0  0  0
  188.9980  175.6190  144.4960 C   0  0  0  0  0  0  0  0  0  0  0  0
  188.1610  175.9730  145.5580 C   0  0  0  0  0  0  0  0  0  0  0  0
  186.5180  176.8560  143.9760 C   0  0  0  0  0  0  0  0  0  0  0  0
  183.7470  178.4030  140.3730 S   0  0  0  0  0  0  0  0  0  0  0  0
  191.1380  174.6560  143.7070 C   0  0  1  0  0  3  0  0  0  0  0  0
  185.2300  177.6860  140.0980 N   0  0  0  0  0  2  0  0  0  0  0  0
  186.0950  176.9400  146.3950 C   0  0  0  0  0  3  0  0  0  0  0  0
  186.9170  176.5940  145.3050 C   0  0  0  0  0  0  0  0  0  0  0  0
  185.2800  177.4780  143.7300 C   0  0  0  0  0  3  0  0  0  0  0  0
  189.6160  175.5180  142.1040 C   0  0  0  0  0  2  0  0  0  0  0  0
  187.7140  176.4340  140.4430 O   0  0  0  0  0  1  0  0  0  0  0  0
  182.7820  178.7580  142.7830 O   0  0  0  0  0  0  0  0  0  0  0  0
  187.3710  176.4940  142.8840 C   0  0  0  0  0  0  0  0  0  0  0  0
  184.8880  177.7390  142.4250 C   0  0  0  0  0  0  0  0  0  0  0  0
  193.2000  173.5840  144.5080 N   0  0  0  0  0  0  0  0  0  0  0  0
  191.9620  173.4810  144.1650 C   0  0  0  0  0  3  0  0  0  0  0  0
  193.9140  174.8360  144.4980 C   0  0  0  0  0  2  0  0  0  0  0  0
  194.4990  175.0970  145.8710 C   0  0  0  0  0  2  0  0  0  0  0  0
  193.8850  176.3180  146.4710 C   0  0  0  0  0  0  0  0  0  0  0  0
  192.4860  176.2690  146.9790 C   0  0  0  0  0  1  0  0  0  0  0  0
  194.5160  177.3620  146.5270 O   0  0  0  0  0  0  0  0  0  0  0  0
  190.9560  172.9920  140.5220 C   0  0  0  0  0  1  0  0  0  0  0  0
  191.3670  174.1660  141.3880 C   0  0  0  0  0  2  0  0  0  0  0  0
  1 10  1  0  0  0  0
  3  2  1  0  0  0  0
  4 22  1  0  0  0  0
  5  4  2  0  0  0  0
  5 23  1  0  0  0  0
  6 14  1  0  0  0  0
  8 23  1  0  0  0  0
  8 21  2  0  0  0  0
  9  2  2  0  0  0  0
 10  7  1  0  0  0  0
 10 11  2  0  0  0  0
 11  9  1  0  0  0  0
 12 17  2  0  0  0  0
 13  8  1  0  0  0  0
 14 25  1  1  0  0  0
 14  7  1  0  0  0  0
 15 13  1  0  0  0  0
 15  5  1  0  0  0  0
 16  3  2  0  0  0  0
 17 11  1  0  0  0  0
 17 16  1  0  0  0  0
 18 12  1  0  0  0  0
 19  6  1  0  0  0  0
 19  1  1  0  0  0  0
 20  4  1  0  0  0  0
 22  1  2  0  0  0  0
 22 12  1  0  0  0  0
 23 18  2  0  0  0  0
 25 24  2  0  0  0  0
 26 24  1  0  0  0  0
 26 27  1  0  0  0  0
 27 28  1  0  0  0  0
 28 30  2  0  0  0  0
 28 29  1  0  0  0  0
 31 32  1  0  0  0  0
 32  6  1  0  0  0  0
M  END
>  <MODEL>
6

>  <REMARK>
 VINA RESULT:      -7.1      3.135      6.916
  Name = 
  5 active torsions:
  status: ('A' for Active; 'I' for Inactive)
    1  A    between atoms: C_1  and  C_10
    2  A    between atoms: N_2  and  C_24
    3  A    between atoms: N_8  and  C_23
    4  A    between atoms: C_10  and  C_24
    5  A    between atoms: C_12  and  C_21
                            x       y       z     vdW  Elec       q    Type
                         _______ _______ _______ _____ _____    ______ ____

>  <TORSDO>
F 5

$$$$
=
 OpenBabel11052421313D

 32 36  0  0  1  0  0  0  0  0999 V2000
  189.9500  175.5500  143.3690 C   0  0  0  0  0  0  0  0  0  0  0  0
  191.8830  176.5180  147.7250 C   0  0  0  0  0  3  0  0  0  0  0  0
  190.7480  177.2490  148.0780 C   0  0  0  0  0  3  0  0  0  0  0  0
  187.6910  176.4310  142.7800 C   0  0  0  0  0  0  0  0  0  0  0  0
  186.5690  177.1720  143.1580 C   0  0  0  0  0  0  0  0  0  0  0  0
  190.9990  173.7200  142.1100 N   0  0  0  0  0  0  0  0  0  0  0  0
  192.1350  174.6920  143.9570 O   0  0  0  0  0  0  0  0  0  0  0  0
  185.3270  178.4650  144.6380 C   0  0  0  0  0  0  0  0  0  0  0  0
  191.9620  175.9190  146.4670 C   0  0  0  0  0  3  0  0  0  0  0  0
  191.0000  175.4400  144.2930 C   0  0  0  0  0  0  0  0  0  0  0  0
  190.9090  176.0440  145.5500 C   0  0  0  0  0  0  0  0  0  0  0  0
  188.6930  176.9080  144.9800 C   0  0  0  0  0  0  0  0  0  0  0  0
  184.4360  178.2910  143.2420 S   0  0  0  0  0  0  0  0  0  0  0  0
  192.3060  174.1050  142.6660 C   0  0  1  0  0  3  0  0  0  0  0  0
  185.4900  177.3560  142.3480 N   0  0  0  0  0  2  0  0  0  0  0  0
  189.6920  177.3810  147.1740 C   0  0  0  0  0  3  0  0  0  0  0  0
  189.7560  176.7820  145.9010 C   0  0  0  0  0  0  0  0  0  0  0  0
  187.5480  177.6470  145.3330 C   0  0  0  0  0  3  0  0  0  0  0  0
  190.1770  174.9290  142.0170 C   0  0  0  0  0  2  0  0  0  0  0  0
  187.7030  175.8480  141.5180 O   0  0  0  0  0  1  0  0  0  0  0  0
  184.9890  179.1000  145.6730 O   0  0  0  0  0  0  0  0  0  0  0  0
  188.7800  176.2890  143.6910 C   0  0  0  0  0  0  0  0  0  0  0  0
  186.5050  177.7740  144.4290 C   0  0  0  0  0  0  0  0  0  0  0  0
  194.4780  172.9560  142.6120 N   0  0  0  0  0  0  0  0  0  0  0  0
  193.2060  172.9070  142.8160 C   0  0  0  0  0  3  0  0  0  0  0  0
  195.1640  174.1660  142.2340 C   0  0  0  0  0  2  0  0  0  0  0  0
  196.1910  174.5180  143.2920 C   0  0  0  0  0  2  0  0  0  0  0  0
  196.0930  175.9640  143.6470 C   0  0  0  0  0  0  0  0  0  0  0  0
  195.0760  176.4150  144.6370 C   0  0  0  0  0  1  0  0  0  0  0  0
  196.8270  176.7810  143.1150 O   0  0  0  0  0  0  0  0  0  0  0  0
  189.9170  173.5060  139.9420 C   0  0  0  0  0  1  0  0  0  0  0  0
  191.1870  173.2740  140.7350 C   0  0  0  0  0  2  0  0  0  0  0  0
  1 22  2  0  0  0  0
  1 10  1  0  0  0  0
  2  3  1  0  0  0  0
  4  5  2  0  0  0  0
  4 22  1  0  0  0  0
  5 23  1  0  0  0  0
  6 14  1  0  0  0  0
  7 10  1  0  0  0  0
  8 21  2  0  0  0  0
  9  2  2  0  0  0  0
 10 11  2  0  0  0  0
 11 17  1  0  0  0  0
 11  9  1  0  0  0  0
 12 18  1  0  0  0  0
 12 17  2  0  0  0  0
 13  8  1  0  0  0  0
 14 25  1  1  0  0  0
 14  7  1  0  0  0  0
 15  5  1  0  0  0  0
 15 13  1  0  0  0  0
 16  3  2  0  0  0  0
 17 16  1  0  0  0  0
 19  6  1  0  0  0  0
 19  1  1  0  0  0  0
 20  4  1  0  0  0  0
 22 12  1  0  0  0  0
 23  8  1  0  0  0  0
 23 18  2  0  0  0  0
 24 25  2  0  0  0  0
 26 24  1  0  0  0  0
 26 27  1  0  0  0  0
 27 28  1  0  0  0  0
 28 29  1  0  0  0  0
 30 28  2  0  0  0  0
 31 32  1  0  0  0  0
 32  6  1  0  0  0  0
M  END
>  <MODEL>
7

>  <REMARK>
 VINA RESULT:      -7.1      3.047      7.332
  Name = 
  5 active torsions:
  status: ('A' for Active; 'I' for Inactive)
    1  A    between atoms: C_1  and  C_10
    2  A    between atoms: N_2  and  C_24
    3  A    between atoms: N_8  and  C_23
    4  A    between atoms: C_10  and  C_24
    5  A    between atoms: C_12  and  C_21
                            x       y       z     vdW  Elec       q    Type
                         _______ _______ _______ _____ _____    ______ ____

>  <TORSDO>
F 5

$$$$
=
 OpenBabel11052421313D

 32 36  0  0  1  0  0  0  0  0999 V2000
  189.0100  175.6930  143.2810 C   0  0  0  0  0  0  0  0  0  0  0  0
  192.3240  175.7720  146.8400 C   0  0  0  0  0  3  0  0  0  0  0  0
  191.4460  176.4860  147.6560 C   0  0  0  0  0  3  0  0  0  0  0  0
  186.7900  176.7800  143.6170 C   0  0  0  0  0  0  0  0  0  0  0  0
  185.9340  177.4990  144.4530 C   0  0  0  0  0  0  0  0  0  0  0  0
  189.4010  174.0630  141.4850 N   0  0  0  0  0  0  0  0  0  0  0  0
  191.1640  174.6320  142.9730 O   0  0  0  0  0  0  0  0  0  0  0  0
  185.3740  178.5720  146.4390 C   0  0  0  0  0  0  0  0  0  0  0  0
  191.9330  175.4020  145.5520 C   0  0  0  0  0  3  0  0  0  0  0  0
  190.2820  175.3660  143.7760 C   0  0  0  0  0  0  0  0  0  0  0  0
  190.6620  175.7420  145.0670 C   0  0  0  0  0  0  0  0  0  0  0  0
  188.4870  176.8070  145.4040 C   0  0  0  0  0  0  0  0  0  0  0  0
  184.0720  178.6950  145.4080 S   0  0  0  0  0  0  0  0  0  0  0  0
  190.8500  174.2750  141.6270 C   0  0  1  0  0  3  0  0  0  0  0  0
  184.6790  177.8790  144.0850 N   0  0  0  0  0  2  0  0  0  0  0  0
  190.1780  176.8300  147.1850 C   0  0  0  0  0  3  0  0  0  0  0  0
  189.7670  176.4650  145.8880 C   0  0  0  0  0  0  0  0  0  0  0  0
  187.6000  177.5300  146.2240 C   0  0  0  0  0  3  0  0  0  0  0  0
  188.7270  175.3100  141.8540 C   0  0  0  0  0  2  0  0  0  0  0  0
  186.3360  176.4300  142.3500 O   0  0  0  0  0  1  0  0  0  0  0  0
  185.4540  179.0300  147.6090 O   0  0  0  0  0  0  0  0  0  0  0  0
  188.0910  176.4220  144.0810 C   0  0  0  0  0  0  0  0  0  0  0  0
  186.3430  177.8690  145.7480 C   0  0  0  0  0  0  0  0  0  0  0  0
  192.7780  173.0440  140.7260 N   0  0  0  0  0  0  0  0  0  0  0  0
  191.6170  173.0240  141.2860 C   0  0  0  0  0  3  0  0  0  0  0  0
  193.4600  174.2670  140.3830 C   0  0  0  0  0  2  0  0  0  0  0  0
  194.6410  174.4660  141.3120 C   0  0  0  0  0  2  0  0  0  0  0  0
  195.5570  175.5100  140.7670 C   0  0  0  0  0  0  0  0  0  0  0  0
  196.2550  175.2800  139.4710 C   0  0  0  0  0  1  0  0  0  0  0  0
  195.7550  176.5430  141.3870 O   0  0  0  0  0  0  0  0  0  0  0  0
  188.1510  172.6790  139.9230 C   0  0  0  0  0  1  0  0  0  0  0  0
  189.0920  173.8580  140.0760 C   0  0  0  0  0  2  0  0  0  0  0  0
  1 10  2  0  0  0  0
  1 22  1  0  0  0  0
  2  3  1  0  0  0  0
  4 22  2  0  0  0  0
  4  5  1  0  0  0  0
  5 23  2  0  0  0  0
  6 14  1  0  0  0  0
  6 19  1  0  0  0  0
  7 10  1  0  0  0  0
  8 21  2  0  0  0  0
  9  2  2  0  0  0  0
 10 11  1  0  0  0  0
 11  9  1  0  0  0  0
 11 17  2  0  0  0  0
 12 17  1  0  0  0  0
 12 18  2  0  0  0  0
 13  8  1  0  0  0  0
 14 25  1  1  0  0  0
 14  7  1  0  0  0  0
 15  5  1  0  0  0  0
 15 13  1  0  0  0  0
 16  3  2  0  0  0  0
 17 16  1  0  0  0  0
 19  1  1  0  0  0  0
 20  4  1  0  0  0  0
 22 12  1  0  0  0  0
 23 18  1  0  0  0  0
 23  8  1  0  0  0  0
 24 25  2  0  0  0  0
 26 24  1  0  0  0  0
 26 27  1  0  0  0  0
 28 27  1  0  0  0  0
 28 30  2  0  0  0  0
 29 28  1  0  0  0  0
 31 32  1  0  0  0  0
 32  6  1  0  0  0  0
M  END
>  <MODEL>
8

>  <REMARK>
 VINA RESULT:      -7.0      3.114      7.470
  Name = 
  5 active torsions:
  status: ('A' for Active; 'I' for Inactive)
    1  A    between atoms: C_1  and  C_10
    2  A    between atoms: N_2  and  C_24
    3  A    between atoms: N_8  and  C_23
    4  A    between atoms: C_10  and  C_24
    5  A    between atoms: C_12  and  C_21
                            x       y       z     vdW  Elec       q    Type
                         _______ _______ _______ _____ _____    ______ ____

>  <TORSDO>
F 5

$$$$
=
 OpenBabel11052421313D

 32 36  0  0  1  0  0  0  0  0999 V2000
  189.7700  176.0110  144.4300 C   0  0  0  0  0  0  0  0  0  0  0  0
  189.8300  173.6630  140.1710 C   0  0  0  0  0  3  0  0  0  0  0  0
  188.5660  174.1680  139.8630 C   0  0  0  0  0  3  0  0  0  0  0  0
  187.7980  177.4030  145.0620 C   0  0  0  0  0  0  0  0  0  0  0  0
  186.5330  177.8900  144.7290 C   0  0  0  0  0  0  0  0  0  0  0  0
  191.9390  176.2400  145.5610 N   0  0  0  0  0  0  0  0  0  0  0  0
  191.6820  174.6670  143.7990 O   0  0  0  0  0  0  0  0  0  0  0  0
  184.6840  178.1120  143.3370 C   0  0  0  0  0  0  0  0  0  0  0  0
  190.4370  173.9960  141.3830 C   0  0  0  0  0  3  0  0  0  0  0  0
  190.4060  175.1640  143.5090 C   0  0  0  0  0  0  0  0  0  0  0  0
  189.7880  174.8370  142.2980 C   0  0  0  0  0  0  0  0  0  0  0  0
  187.8530  176.2020  142.9110 C   0  0  0  0  0  0  0  0  0  0  0  0
  184.3990  179.0110  144.7100 S   0  0  0  0  0  0  0  0  0  0  0  0
  192.3330  174.9200  145.0450 C   0  0  1  0  0  3  0  0  0  0  0  0
  185.8150  178.7140  145.5420 N   0  0  0  0  0  2  0  0  0  0  0  0
  187.9100  175.0070  140.7660 C   0  0  0  0  0  3  0  0  0  0  0  0
  188.5080  175.3530  141.9930 C   0  0  0  0  0  0  0  0  0  0  0  0
  186.5770  176.7110  142.6030 C   0  0  0  0  0  3  0  0  0  0  0  0
  190.4840  176.2390  145.7340 C   0  0  0  0  0  2  0  0  0  0  0  0
  188.3540  177.7830  146.2790 O   0  0  0  0  0  1  0  0  0  0  0  0
  183.9140  177.9820  142.3490 O   0  0  0  0  0  0  0  0  0  0  0  0
  188.4820  176.5420  144.1520 C   0  0  0  0  0  0  0  0  0  0  0  0
  185.9310  177.5420  143.5060 C   0  0  0  0  0  0  0  0  0  0  0  0
  194.5310  173.8260  145.1490 N   0  0  0  0  0  0  0  0  0  0  0  0
  193.8190  174.8470  144.8160 C   0  0  0  0  0  3  0  0  0  0  0  0
  193.9700  172.6470  145.7610 C   0  0  0  0  0  2  0  0  0  0  0  0
  194.1190  171.4680  144.8200 C   0  0  0  0  0  2  0  0  0  0  0  0
  192.9760  171.4240  143.8610 C   0  0  0  0  0  0  0  0  0  0  0  0
  193.2210  171.6400  142.4080 C   0  0  0  0  0  1  0  0  0  0  0  0
  191.8400  171.2340  144.2640 O   0  0  0  0  0  0  0  0  0  0  0  0
  191.3870  176.2460  147.9300 C   0  0  0  0  0  1  0  0  0  0  0  0
  192.4880  176.4040  146.9010 C   0  0  0  0  0  2  0  0  0  0  0  0
  1 19  1  0  0  0  0
  2  9  1  0  0  0  0
  3  2  2  0  0  0  0
  3 16  1  0  0  0  0
  4 20  1  0  0  0  0
  5  4  1  0  0  0  0
  5 15  1  0  0  0  0
  6 19  1  0  0  0  0
  6 32  1  0  0  0  0
  7 14  1  0  0  0  0
  8 23  1  0  0  0  0
  8 13  1  0  0  0  0
  9 11  2  0  0  0  0
 10  7  1  0  0  0  0
 10  1  2  0  0  0  0
 11 10  1  0  0  0  0
 12 22  1  0  0  0  0
 13 15  1  0  0  0  0
 14 25  1  6  0  0  0
 14  6  1  0  0  0  0
 16 17  2  0  0  0  0
 17 11  1  0  0  0  0
 17 12  1  0  0  0  0
 18 12  2  0  0  0  0
 18 23  1  0  0  0  0
 21  8  2  0  0  0  0
 22  1  1  0  0  0  0
 22  4  2  0  0  0  0
 23  5  2  0  0  0  0
 24 26  1  0  0  0  0
 25 24  2  0  0  0  0
 27 26  1  0  0  0  0
 28 30  2  0  0  0  0
 28 27  1  0  0  0  0
 29 28  1  0  0  0  0
 32 31  1  0  0  0  0
M  END
>  <MODEL>
9

>  <REMARK>
 VINA RESULT:      -7.0      3.156      7.979
  Name = 
  5 active torsions:
  status: ('A' for Active; 'I' for Inactive)
    1  A    between atoms: C_1  and  C_10
    2  A    between atoms: N_2  and  C_24
    3  A    between atoms: N_8  and  C_23
    4  A    between atoms: C_10  and  C_24
    5  A    between atoms: C_12  and  C_21
                            x       y       z     vdW  Elec       q    Type
                         _______ _______ _______ _____ _____    ______ ____

>  <TORSDO>
F 5

$$$$
