=
 OpenBabel11052420233D

 34 39  0  0  1  0  0  0  0  0999 V2000
  187.2390  176.3380  144.7700 C   0  0  0  0  0  0  0  0  0  0  0  0
  188.4890  177.3710  146.6700 C   0  0  0  0  0  2  0  0  0  0  0  0
  185.1690  177.9810  145.9250 C   0  0  2  0  0  0  0  0  0  0  0  0
  184.9040  177.1810  144.6450 C   0  0  0  0  0  2  0  0  0  0  0  0
  186.1750  176.6680  144.0290 C   0  0  0  0  0  3  0  0  0  0  0  0
  185.9870  177.1060  146.8850 C   0  0  0  0  0  2  0  0  0  0  0  0
  187.2750  176.5380  146.2690 C   0  0  1  0  0  3  0  0  0  0  0  0
  183.8330  178.2740  146.5770 C   0  0  0  0  0  1  0  0  0  0  0  0
  189.7830  176.9970  145.9220 C   0  0  0  0  0  2  0  0  0  0  0  0
  188.4860  175.8750  144.0730 C   0  0  0  0  0  2  0  0  0  0  0  0
  189.7190  175.7510  144.9970 C   0  0  1  0  0  0  0  0  0  0  0  0
  190.7000  175.7330  142.5920 C   0  0  0  0  0  2  0  0  0  0  0  0
  192.6110  174.1780  145.5230 C   0  0  0  0  0  2  0  0  0  0  0  0
  194.0440  175.7950  146.7940 C   0  0  0  0  0  2  0  0  0  0  0  0
  190.9830  173.0300  143.9000 C   0  0  0  0  0  2  0  0  0  0  0  0
  189.5530  174.5640  140.7050 C   0  0  0  0  0  3  0  0  0  0  0  0
  189.2760  172.1610  140.6350 C   0  0  0  0  0  3  0  0  0  0  0  0
  194.1640  177.5190  145.2370 N   0  0  0  0  0  2  0  0  0  0  0  0
  189.1000  173.4160  140.0500 C   0  0  0  0  0  3  0  0  0  0  0  0
  190.3770  173.1890  142.5350 C   0  0  0  0  0  0  0  0  0  0  0  0
  190.1800  174.4660  141.9510 C   0  0  0  0  0  0  0  0  0  0  0  0
  189.9070  172.0490  141.8760 C   0  0  0  0  0  3  0  0  0  0  0  0
  193.7450  175.2040  145.4470 C   0  0  2  0  0  3  0  0  0  0  0  0
  194.1830  177.2370  146.6200 N   0  0  0  0  0  2  0  0  0  0  0  0
  191.9770  176.7790  144.4580 C   0  0  0  0  0  2  0  0  0  0  0  0
  193.4710  176.4230  144.5820 C   0  0  1  0  0  3  0  0  0  0  0  0
  191.7850  174.2690  144.2550 C   0  0  1  0  0  3  0  0  0  0  0  0
  191.0220  175.6120  144.0950 C   0  0  1  0  0  0  0  0  0  0  0  0
  185.8570  179.2940  145.6390 C   0  0  0  0  0  0  0  0  0  0  0  0
  186.3370  179.9770  146.5830 O   0  0  0  0  0  1  0  0  0  0  0  0
  185.9010  179.8010  144.3450 O   0  0  0  0  0  0  0  0  0  0  0  0
  189.4940  174.4810  145.8600 C   0  0  0  0  0  2  0  0  0  0  0  0
  188.6710  174.2200  148.0760 F   0  0  0  0  0  0  0  0  0  0  0  0
  189.7620  174.6590  147.3490 C   0  0  0  0  0  2  0  0  0  0  0  0
  1  7  1  0  0  0  0
  3  8  1  1  0  0  0
  3  6  1  0  0  0  0
  4  3  1  0  0  0  0
  5  4  1  0  0  0  0
  5  1  2  0  0  0  0
  7  2  1  6  0  0  0
  7  6  1  0  0  0  0
  9  2  1  0  0  0  0
 10  1  1  0  0  0  0
 10 11  1  0  0  0  0
 11 32  1  1  0  0  0
 11  9  1  0  0  0  0
 16 21  1  0  0  0  0
 17 22  2  0  0  0  0
 18 24  1  0  0  0  0
 19 17  1  0  0  0  0
 19 16  2  0  0  0  0
 20 15  1  0  0  0  0
 21 20  2  0  0  0  0
 21 12  1  0  0  0  0
 22 20  1  0  0  0  0
 23 13  1  1  0  0  0
 23 14  1  0  0  0  0
 24 14  1  0  0  0  0
 26 25  1  1  0  0  0
 26 18  1  0  0  0  0
 26 23  1  0  0  0  0
 27 15  1  1  0  0  0
 27 13  1  0  0  0  0
 28 12  1  6  0  0  0
 28 27  1  0  0  0  0
 28 25  1  0  0  0  0
 28 11  1  0  0  0  0
 29  3  1  0  0  0  0
 29 30  1  0  0  0  0
 31 29  2  0  0  0  0
 32 34  1  0  0  0  0
 34 33  1  0  0  0  0
M  END
>  <MODEL>
1

>  <REMARK>
 VINA RESULT:      -8.2      0.000      0.000
  Name = 
  4 active torsions:
  status: ('A' for Active; 'I' for Inactive)
    1  A    between atoms: C_7  and  C_11
    2  A    between atoms: C_9  and  C_18
    3  A    between atoms: C_9  and  C_33
    4  A    between atoms: C_33  and  C_34
                            x       y       z     vdW  Elec       q    Type
                         _______ _______ _______ _____ _____    ______ ____

>  <TORSDO>
F 4

$$$$
=
 OpenBabel11052420233D

 34 39  0  0  1  0  0  0  0  0999 V2000
  189.3570  173.3570  143.1650 C   0  0  0  0  0  0  0  0  0  0  0  0
  189.5110  175.0170  141.3050 C   0  0  0  0  0  2  0  0  0  0  0  0
  190.4950  171.7100  141.0880 C   0  0  2  0  0  0  0  0  0  0  0  0
  190.2740  171.1450  142.4950 C   0  0  0  0  0  2  0  0  0  0  0  0
  189.9940  172.2270  143.4990 C   0  0  0  0  0  3  0  0  0  0  0  0
  189.2820  172.5730  140.7130 C   0  0  0  0  0  2  0  0  0  0  0  0
  188.9510  173.6670  141.7410 C   0  0  1  0  0  3  0  0  0  0  0  0
  190.5610  170.5440  140.1220 C   0  0  0  0  0  1  0  0  0  0  0  0
  189.4100  176.1170  142.3800 C   0  0  0  0  0  2  0  0  0  0  0  0
  189.1570  174.4080  144.2180 C   0  0  0  0  0  2  0  0  0  0  0  0
  188.6310  175.7560  143.6750 C   0  0  1  0  0  0  0  0  0  0  0  0
  190.1520  177.6080  144.6770 C   0  0  0  0  0  2  0  0  0  0  0  0
  187.3560  176.0060  146.7450 C   0  0  0  0  0  2  0  0  0  0  0  0
  185.1140  177.0910  146.4660 C   0  0  0  0  0  2  0  0  0  0  0  0
  189.8260  175.3100  146.6030 C   0  0  0  0  0  2  0  0  0  0  0  0
  192.6200  177.3030  144.9220 C   0  0  0  0  0  3  0  0  0  0  0  0
  193.5900  175.6640  146.4150 C   0  0  0  0  0  3  0  0  0  0  0  0
  185.7760  179.1200  145.5390 N   0  0  0  0  0  2  0  0  0  0  0  0
  193.7440  176.6950  145.4860 C   0  0  0  0  0  3  0  0  0  0  0  0
  191.1790  175.8480  146.2350 C   0  0  0  0  0  0  0  0  0  0  0  0
  191.3350  176.8810  145.2760 C   0  0  0  0  0  0  0  0  0  0  0  0
  192.3120  175.2380  146.7830 C   0  0  0  0  0  3  0  0  0  0  0  0
  186.5540  177.3060  146.8360 C   0  0  2  0  0  3  0  0  0  0  0  0
  184.7230  178.1810  145.5770 N   0  0  0  0  0  2  0  0  0  0  0  0
  187.6810  177.9160  144.6130 C   0  0  0  0  0  2  0  0  0  0  0  0
  186.9950  178.4170  145.8980 C   0  0  1  0  0  3  0  0  0  0  0  0
  188.7550  176.3290  146.2570 C   0  0  1  0  0  3  0  0  0  0  0  0
  188.8060  176.8660  144.8020 C   0  0  1  0  0  0  0  0  0  0  0  0
  191.7860  172.4850  140.9870 C   0  0  0  0  0  0  0  0  0  0  0  0
  192.0130  173.2120  139.9820 O   0  0  0  0  0  0  0  0  0  0  0  0
  192.7710  172.3470  141.9580 O   0  0  0  0  0  1  0  0  0  0  0  0
  187.1350  175.5360  143.3290 C   0  0  0  0  0  2  0  0  0  0  0  0
  185.3050  176.8850  142.6310 F   0  0  0  0  0  0  0  0  0  0  0  0
  186.5740  176.4750  142.2680 C   0  0  0  0  0  2  0  0  0  0  0  0
  1  5  2  0  0  0  0
  1 10  1  0  0  0  0
  2  7  1  0  0  0  0
  2  9  1  0  0  0  0
  3  8  1  6  0  0  0
  3  4  1  0  0  0  0
  4  5  1  0  0  0  0
  6  3  1  0  0  0  0
  7  6  1  6  0  0  0
  7  1  1  0  0  0  0
  9 11  1  0  0  0  0
 11 32  1  6  0  0  0
 11 10  1  0  0  0  0
 11 28  1  0  0  0  0
 12 28  1  0  0  0  0
 12 21  1  0  0  0  0
 13 23  1  0  0  0  0
 16 21  2  0  0  0  0
 16 19  1  0  0  0  0
 17 22  1  0  0  0  0
 18 24  1  0  0  0  0
 18 26  1  0  0  0  0
 19 17  2  0  0  0  0
 20 15  1  0  0  0  0
 20 22  2  0  0  0  0
 21 20  1  0  0  0  0
 23 14  1  6  0  0  0
 24 14  1  0  0  0  0
 26 25  1  6  0  0  0
 26 23  1  0  0  0  0
 27 15  1  6  0  0  0
 27 13  1  0  0  0  0
 28 25  1  6  0  0  0
 28 27  1  0  0  0  0
 29  3  1  0  0  0  0
 29 31  1  0  0  0  0
 30 29  2  0  0  0  0
 34 33  1  0  0  0  0
 34 32  1  0  0  0  0
M  END
>  <MODEL>
2

>  <REMARK>
 VINA RESULT:      -8.2      3.715      6.941
  Name = 
  4 active torsions:
  status: ('A' for Active; 'I' for Inactive)
    1  A    between atoms: C_7  and  C_11
    2  A    between atoms: C_9  and  C_18
    3  A    between atoms: C_9  and  C_33
    4  A    between atoms: C_33  and  C_34
                            x       y       z     vdW  Elec       q    Type
                         _______ _______ _______ _____ _____    ______ ____

>  <TORSDO>
F 4

$$$$
=
 OpenBabel11052420233D

 34 39  0  0  1  0  0  0  0  0999 V2000
  193.5310  176.0390  142.6170 C   0  0  0  0  0  0  0  0  0  0  0  0
  193.6400  175.2450  144.9830 C   0  0  0  0  0  2  0  0  0  0  0  0
  196.3870  175.8480  142.9730 C   0  0  2  0  0  0  0  0  0  0  0  0
  195.7970  176.2350  141.6130 C   0  0  0  0  0  2  0  0  0  0  0  0
  194.3220  175.9590  141.5400 C   0  0  0  0  0  3  0  0  0  0  0  0
  195.5910  176.5650  144.0710 C   0  0  0  0  0  2  0  0  0  0  0  0
  194.0740  176.3280  144.0000 C   0  0  1  0  0  3  0  0  0  0  0  0
  197.8160  176.3520  143.0220 C   0  0  0  0  0  1  0  0  0  0  0  0
  192.1750  174.7970  144.8200 C   0  0  0  0  0  2  0  0  0  0  0  0
  192.0750  175.7030  142.4680 C   0  0  0  0  0  2  0  0  0  0  0  0
  191.3100  175.5970  143.8070 C   0  0  1  0  0  0  0  0  0  0  0  0
  188.7590  175.9200  143.4390 C   0  0  0  0  0  2  0  0  0  0  0  0
  190.1890  172.5460  144.5490 C   0  0  0  0  0  2  0  0  0  0  0  0
  190.9310  171.0690  142.6640 C   0  0  0  0  0  2  0  0  0  0  0  0
  189.3080  174.4600  146.0200 C   0  0  0  0  0  2  0  0  0  0  0  0
  187.4260  177.5480  144.7860 C   0  0  0  0  0  3  0  0  0  0  0  0
  187.0750  177.2930  147.1670 C   0  0  0  0  0  3  0  0  0  0  0  0
  189.8130  172.0960  140.9010 N   0  0  0  0  0  2  0  0  0  0  0  0
  186.8600  177.9980  145.9810 C   0  0  0  0  0  3  0  0  0  0  0  0
  188.4160  175.6670  145.9680 C   0  0  0  0  0  0  0  0  0  0  0  0
  188.2150  176.3940  144.7680 C   0  0  0  0  0  0  0  0  0  0  0  0
  187.8550  176.1350  147.1610 C   0  0  0  0  0  3  0  0  0  0  0  0
  189.7860  171.8450  143.2490 C   0  0  2  0  0  3  0  0  0  0  0  0
  190.9650  171.3510  141.2320 N   0  0  0  0  0  2  0  0  0  0  0  0
  189.9940  174.1650  142.1740 C   0  0  0  0  0  2  0  0  0  0  0  0
  189.3650  172.7600  142.1120 C   0  0  1  0  0  3  0  0  0  0  0  0
  189.4700  173.8790  144.6270 C   0  0  1  0  0  3  0  0  0  0  0  0
  189.9070  174.8960  143.5390 C   0  0  1  0  0  0  0  0  0  0  0  0
  196.4030  174.3530  143.1770 C   0  0  0  0  0  0  0  0  0  0  0  0
  196.6410  173.8710  144.3170 O   0  0  0  0  0  1  0  0  0  0  0  0
  196.2330  173.4910  142.0990 O   0  0  0  0  0  0  0  0  0  0  0  0
  191.1250  177.0480  144.3230 C   0  0  0  0  0  2  0  0  0  0  0  0
  191.4870  179.3220  143.7310 F   0  0  0  0  0  0  0  0  0  0  0  0
  191.0400  178.1120  143.2350 C   0  0  0  0  0  2  0  0  0  0  0  0
  1  7  1  0  0  0  0
  3  8  1  1  0  0  0
  3 29  1  0  0  0  0
  3  6  1  0  0  0  0
  4  3  1  0  0  0  0
  5  4  1  0  0  0  0
  5  1  2  0  0  0  0
  7  6  1  6  0  0  0
  7  2  1  0  0  0  0
  9  2  1  0  0  0  0
 10  1  1  0  0  0  0
 10 11  1  0  0  0  0
 11 32  1  1  0  0  0
 11  9  1  0  0  0  0
 12 28  1  0  0  0  0
 12 21  1  0  0  0  0
 16 19  1  0  0  0  0
 18 24  1  0  0  0  0
 18 26  1  0  0  0  0
 19 17  2  0  0  0  0
 20 15  1  0  0  0  0
 20 22  2  0  0  0  0
 21 16  2  0  0  0  0
 21 20  1  0  0  0  0
 22 17  1  0  0  0  0
 23 14  1  6  0  0  0
 23 13  1  0  0  0  0
 24 14  1  0  0  0  0
 26 25  1  1  0  0  0
 26 23  1  0  0  0  0
 27 13  1  1  0  0  0
 27 15  1  0  0  0  0
 28 25  1  6  0  0  0
 28 11  1  0  0  0  0
 28 27  1  0  0  0  0
 29 30  1  0  0  0  0
 31 29  2  0  0  0  0
 34 33  1  0  0  0  0
 34 32  1  0  0  0  0
M  END
>  <MODEL>
3

>  <REMARK>
 VINA RESULT:      -8.2      4.176      7.490
  Name = 
  4 active torsions:
  status: ('A' for Active; 'I' for Inactive)
    1  A    between atoms: C_7  and  C_11
    2  A    between atoms: C_9  and  C_18
    3  A    between atoms: C_9  and  C_33
    4  A    between atoms: C_33  and  C_34
                            x       y       z     vdW  Elec       q    Type
                         _______ _______ _______ _____ _____    ______ ____

>  <TORSDO>
F 4

$$$$
=
 OpenBabel11052420233D

 34 39  0  0  1  0  0  0  0  0999 V2000
  190.8500  176.8880  144.8050 C   0  0  0  0  0  0  0  0  0  0  0  0
  190.1280  174.7760  145.9260 C   0  0  0  0  0  2  0  0  0  0  0  0
  193.4020  175.8530  145.6630 C   0  0  2  0  0  0  0  0  0  0  0  0
  193.3240  177.1400  144.8350 C   0  0  0  0  0  2  0  0  0  0  0  0
  191.9680  177.3280  144.2140 C   0  0  0  0  0  3  0  0  0  0  0  0
  192.2690  175.8700  146.6970 C   0  0  0  0  0  2  0  0  0  0  0  0
  190.8740  176.0960  146.0940 C   0  0  1  0  0  3  0  0  0  0  0  0
  194.7220  175.8580  146.4080 C   0  0  0  0  0  1  0  0  0  0  0  0
  188.8130  174.8940  145.1300 C   0  0  0  0  0  2  0  0  0  0  0  0
  189.5390  177.0770  144.0970 C   0  0  0  0  0  2  0  0  0  0  0  0
  188.3550  176.3280  144.7480 C   0  0  1  0  0  0  0  0  0  0  0  0
  186.8040  174.8830  143.2470 C   0  0  0  0  0  2  0  0  0  0  0  0
  187.2090  178.6410  142.6380 C   0  0  0  0  0  2  0  0  0  0  0  0
  185.6540  180.0780  143.9800 C   0  0  0  0  0  2  0  0  0  0  0  0
  188.5330  176.7090  141.5820 C   0  0  0  0  0  2  0  0  0  0  0  0
  187.6850  172.9940  141.8700 C   0  0  0  0  0  3  0  0  0  0  0  0
  189.2060  173.3290  140.0170 C   0  0  0  0  0  3  0  0  0  0  0  0
  184.0780  178.4800  144.5930 N   0  0  0  0  0  2  0  0  0  0  0  0
  188.4440  172.4750  140.8180 C   0  0  0  0  0  3  0  0  0  0  0  0
  188.4430  175.2350  141.3060 C   0  0  0  0  0  0  0  0  0  0  0  0
  187.6860  174.3670  142.1320 C   0  0  0  0  0  0  0  0  0  0  0  0
  189.2100  174.7030  140.2640 C   0  0  0  0  0  3  0  0  0  0  0  0
  185.7530  178.9490  142.9950 C   0  0  2  0  0  3  0  0  0  0  0  0
  184.6890  179.6850  145.0030 N   0  0  0  0  0  2  0  0  0  0  0  0
  185.8860  176.8510  144.4670 C   0  0  0  0  0  2  0  0  0  0  0  0
  184.9920  177.8230  143.6750 C   0  0  1  0  0  3  0  0  0  0  0  0
  187.3570  177.1460  142.4360 C   0  0  1  0  0  3  0  0  0  0  0  0
  187.1360  176.3110  143.7260 C   0  0  1  0  0  0  0  0  0  0  0  0
  193.3510  174.6190  144.7950 C   0  0  0  0  0  0  0  0  0  0  0  0
  193.4280  174.7210  143.5410 O   0  0  0  0  0  0  0  0  0  0  0  0
  193.1400  173.3660  145.3610 O   0  0  0  0  0  1  0  0  0  0  0  0
  187.9960  177.1130  146.0380 C   0  0  0  0  0  2  0  0  0  0  0  0
  186.2820  176.8090  147.6570 F   0  0  0  0  0  0  0  0  0  0  0  0
  187.4580  176.2610  147.1810 C   0  0  0  0  0  2  0  0  0  0  0  0
  1  7  1  0  0  0  0
  3  8  1  1  0  0  0
  3  6  1  0  0  0  0
  4  3  1  0  0  0  0
  5  1  2  0  0  0  0
  5  4  1  0  0  0  0
  7  2  1  6  0  0  0
  7  6  1  0  0  0  0
  9  2  1  0  0  0  0
 10 11  1  0  0  0  0
 10  1  1  0  0  0  0
 11  9  1  0  0  0  0
 11 32  1  1  0  0  0
 14 24  1  0  0  0  0
 16 21  1  0  0  0  0
 17 22  2  0  0  0  0
 17 19  1  0  0  0  0
 18 24  1  0  0  0  0
 19 16  2  0  0  0  0
 20 15  1  0  0  0  0
 20 21  2  0  0  0  0
 21 12  1  0  0  0  0
 22 20  1  0  0  0  0
 23 13  1  1  0  0  0
 23 26  1  0  0  0  0
 23 14  1  0  0  0  0
 26 25  1  1  0  0  0
 26 18  1  0  0  0  0
 27 15  1  1  0  0  0
 27 13  1  0  0  0  0
 27 28  1  0  0  0  0
 28 12  1  6  0  0  0
 28 25  1  0  0  0  0
 28 11  1  0  0  0  0
 29 31  1  0  0  0  0
 29  3  1  0  0  0  0
 30 29  2  0  0  0  0
 32 34  1  0  0  0  0
 34 33  1  0  0  0  0
M  END
>  <MODEL>
4

>  <REMARK>
 VINA RESULT:      -8.0      3.633      6.318
  Name = 
  4 active torsions:
  status: ('A' for Active; 'I' for Inactive)
    1  A    between atoms: C_7  and  C_11
    2  A    between atoms: C_9  and  C_18
    3  A    between atoms: C_9  and  C_33
    4  A    between atoms: C_33  and  C_34
                            x       y       z     vdW  Elec       q    Type
                         _______ _______ _______ _____ _____    ______ ____

>  <TORSDO>
F 4

$$$$
=
 OpenBabel11052420233D

 34 39  0  0  1  0  0  0  0  0999 V2000
  189.5890  175.9440  146.1260 C   0  0  0  0  0  0  0  0  0  0  0  0
  189.9370  177.9160  144.6320 C   0  0  0  0  0  2  0  0  0  0  0  0
  187.2950  177.5450  146.8320 C   0  0  2  0  0  0  0  0  0  0  0  0
  187.4920  176.1550  147.4450 C   0  0  0  0  0  2  0  0  0  0  0  0
  188.5390  175.3600  146.7160 C   0  0  0  0  0  3  0  0  0  0  0  0
  188.6560  178.2530  146.7830 C   0  0  0  0  0  2  0  0  0  0  0  0
  189.7560  177.4470  146.0730 C   0  0  1  0  0  3  0  0  0  0  0  0
  186.3850  178.3350  147.7500 C   0  0  0  0  0  1  0  0  0  0  0  0
  190.8650  177.0180  143.7910 C   0  0  0  0  0  2  0  0  0  0  0  0
  190.5660  175.0820  145.3790 C   0  0  0  0  0  2  0  0  0  0  0  0
  191.5970  175.8730  144.5430 C   0  0  1  0  0  0  0  0  0  0  0  0
  191.6950  174.9120  142.1310 C   0  0  0  0  0  2  0  0  0  0  0  0
  193.2650  173.0360  145.0760 C   0  0  0  0  0  2  0  0  0  0  0  0
  195.6200  173.7170  145.5970 C   0  0  0  0  0  2  0  0  0  0  0  0
  190.8950  172.7860  144.1160 C   0  0  0  0  0  2  0  0  0  0  0  0
  189.6260  174.3280  140.8570 C   0  0  0  0  0  3  0  0  0  0  0  0
  188.1370  172.5440  141.5330 C   0  0  0  0  0  3  0  0  0  0  0  0
  196.1660  174.7850  143.6030 N   0  0  0  0  0  2  0  0  0  0  0  0
  188.4800  173.5610  140.6390 C   0  0  0  0  0  3  0  0  0  0  0  0
  190.0990  173.0440  142.8670 C   0  0  0  0  0  0  0  0  0  0  0  0
  190.4360  174.0900  141.9720 C   0  0  0  0  0  0  0  0  0  0  0  0
  188.9420  172.2910  142.6470 C   0  0  0  0  0  3  0  0  0  0  0  0
  194.6890  173.1980  144.5390 C   0  0  2  0  0  3  0  0  0  0  0  0
  196.4300  174.7690  144.9900 N   0  0  0  0  0  2  0  0  0  0  0  0
  193.7970  175.3190  143.4030 C   0  0  0  0  0  2  0  0  0  0  0  0
  194.8530  174.1970  143.4060 C   0  0  1  0  0  3  0  0  0  0  0  0
  192.2840  173.3800  143.9720 C   0  0  1  0  0  3  0  0  0  0  0  0
  192.3190  174.8700  143.5400 C   0  0  1  0  0  0  0  0  0  0  0  0
  186.6510  177.4740  145.4680 C   0  0  0  0  0  0  0  0  0  0  0  0
  186.6920  178.4690  144.6960 O   0  0  0  0  0  0  0  0  0  0  0  0
  185.9410  176.3430  145.0800 O   0  0  0  0  0  1  0  0  0  0  0  0
  192.6050  176.4830  145.5520 C   0  0  0  0  0  2  0  0  0  0  0  0
  192.3160  176.6060  147.9090 F   0  0  0  0  0  0  0  0  0  0  0  0
  192.6990  175.7570  146.8880 C   0  0  0  0  0  2  0  0  0  0  0  0
  1  5  2  0  0  0  0
  3  4  1  0  0  0  0
  3  8  1  1  0  0  0
  5  4  1  0  0  0  0
  6  3  1  0  0  0  0
  7  2  1  6  0  0  0
  7  1  1  0  0  0  0
  7  6  1  0  0  0  0
  9 11  1  0  0  0  0
  9  2  1  0  0  0  0
 10  1  1  0  0  0  0
 11 10  1  0  0  0  0
 11 32  1  1  0  0  0
 16 21  1  0  0  0  0
 17 22  2  0  0  0  0
 18 24  1  0  0  0  0
 19 16  2  0  0  0  0
 19 17  1  0  0  0  0
 20 15  1  0  0  0  0
 21 12  1  0  0  0  0
 21 20  2  0  0  0  0
 22 20  1  0  0  0  0
 23 13  1  1  0  0  0
 23 14  1  0  0  0  0
 24 14  1  0  0  0  0
 25 28  1  0  0  0  0
 26 25  1  1  0  0  0
 26 18  1  0  0  0  0
 26 23  1  0  0  0  0
 27 15  1  1  0  0  0
 27 13  1  0  0  0  0
 28 12  1  6  0  0  0
 28 27  1  0  0  0  0
 28 11  1  0  0  0  0
 29  3  1  0  0  0  0
 30 29  2  0  0  0  0
 31 29  1  0  0  0  0
 32 34  1  0  0  0  0
 34 33  1  0  0  0  0
M  END
>  <MODEL>
5

>  <REMARK>
 VINA RESULT:      -7.9      1.834      2.566
  Name = 
  4 active torsions:
  status: ('A' for Active; 'I' for Inactive)
    1  A    between atoms: C_7  and  C_11
    2  A    between atoms: C_9  and  C_18
    3  A    between atoms: C_9  and  C_33
    4  A    between atoms: C_33  and  C_34
                            x       y       z     vdW  Elec       q    Type
                         _______ _______ _______ _____ _____    ______ ____

>  <TORSDO>
F 4

$$$$
=
 OpenBabel11052420233D

 34 39  0  0  1  0  0  0  0  0999 V2000
  190.5670  175.2460  145.9840 C   0  0  0  0  0  0  0  0  0  0  0  0
  191.3280  177.2890  144.7650 C   0  0  0  0  0  2  0  0  0  0  0  0
  188.3190  176.9940  146.4410 C   0  0  2  0  0  0  0  0  0  0  0  0
  188.2940  175.5470  146.9440 C   0  0  0  0  0  2  0  0  0  0  0  0
  189.3860  174.7180  146.3300 C   0  0  0  0  0  3  0  0  0  0  0  0
  189.7180  177.5720  146.6900 C   0  0  0  0  0  2  0  0  0  0  0  0
  190.8590  176.7260  146.1030 C   0  0  1  0  0  3  0  0  0  0  0  0
  187.3260  177.7910  147.2630 C   0  0  0  0  0  1  0  0  0  0  0  0
  192.3160  176.3780  144.0110 C   0  0  0  0  0  2  0  0  0  0  0  0
  191.5900  174.3580  145.3340 C   0  0  0  0  0  2  0  0  0  0  0  0
  192.8120  175.1130  144.7630 C   0  0  1  0  0  0  0  0  0  0  0  0
  193.1340  174.2200  142.3450 C   0  0  0  0  0  2  0  0  0  0  0  0
  194.3910  172.2400  145.3720 C   0  0  0  0  0  2  0  0  0  0  0  0
  196.6910  172.8770  146.1380 C   0  0  0  0  0  2  0  0  0  0  0  0
  192.1230  172.0490  144.1790 C   0  0  0  0  0  2  0  0  0  0  0  0
  191.1940  173.6990  140.8590 C   0  0  0  0  0  3  0  0  0  0  0  0
  189.6280  171.9150  141.3350 C   0  0  0  0  0  3  0  0  0  0  0  0
  197.4390  173.9940  144.2390 N   0  0  0  0  0  2  0  0  0  0  0  0
  190.0660  172.9520  140.5090 C   0  0  0  0  0  3  0  0  0  0  0  0
  191.4560  172.3520  142.8670 C   0  0  0  0  0  0  0  0  0  0  0  0
  191.8880  173.4180  142.0400 C   0  0  0  0  0  0  0  0  0  0  0  0
  190.3180  171.6200  142.5130 C   0  0  0  0  0  3  0  0  0  0  0  0
  195.8620  172.4000  144.9800 C   0  0  2  0  0  3  0  0  0  0  0  0
  197.5670  173.9360  145.6440 N   0  0  0  0  0  2  0  0  0  0  0  0
  195.1060  174.5640  143.8260 C   0  0  0  0  0  2  0  0  0  0  0  0
  196.1460  173.4290  143.8980 C   0  0  1  0  0  3  0  0  0  0  0  0
  193.5260  172.6290  144.1880 C   0  0  1  0  0  3  0  0  0  0  0  0
  193.6180  174.1300  143.8060 C   0  0  1  0  0  0  0  0  0  0  0  0
  187.9220  177.0940  144.9880 C   0  0  0  0  0  0  0  0  0  0  0  0
  188.1190  178.1630  144.3490 O   0  0  0  0  0  0  0  0  0  0  0  0
  187.2670  176.0400  144.3600 O   0  0  0  0  0  1  0  0  0  0  0  0
  193.6700  175.5430  145.9810 C   0  0  0  0  0  2  0  0  0  0  0  0
  194.5560  177.5410  146.9170 F   0  0  0  0  0  0  0  0  0  0  0  0
  194.5240  176.7850  145.7610 C   0  0  0  0  0  2  0  0  0  0  0  0
  1  7  1  0  0  0  0
  1  5  2  0  0  0  0
  3  6  1  0  0  0  0
  3  4  1  0  0  0  0
  3  8  1  1  0  0  0
  5  4  1  0  0  0  0
  7  2  1  6  0  0  0
  7  6  1  0  0  0  0
  9 11  1  0  0  0  0
  9  2  1  0  0  0  0
 10  1  1  0  0  0  0
 11 10  1  0  0  0  0
 11 32  1  1  0  0  0
 16 21  1  0  0  0  0
 17 22  2  0  0  0  0
 18 24  1  0  0  0  0
 19 16  2  0  0  0  0
 19 17  1  0  0  0  0
 20 15  1  0  0  0  0
 21 12  1  0  0  0  0
 21 20  2  0  0  0  0
 22 20  1  0  0  0  0
 23 13  1  1  0  0  0
 23 14  1  0  0  0  0
 24 14  1  0  0  0  0
 26 25  1  1  0  0  0
 26 18  1  0  0  0  0
 26 23  1  0  0  0  0
 27 15  1  1  0  0  0
 27 13  1  0  0  0  0
 28 12  1  6  0  0  0
 28 25  1  0  0  0  0
 28 27  1  0  0  0  0
 28 11  1  0  0  0  0
 29  3  1  0  0  0  0
 30 29  2  0  0  0  0
 31 29  1  0  0  0  0
 34 32  1  0  0  0  0
 34 33  1  0  0  0  0
M  END
>  <MODEL>
6

>  <REMARK>
 VINA RESULT:      -7.8      2.489      3.573
  Name = 
  4 active torsions:
  status: ('A' for Active; 'I' for Inactive)
    1  A    between atoms: C_7  and  C_11
    2  A    between atoms: C_9  and  C_18
    3  A    between atoms: C_9  and  C_33
    4  A    between atoms: C_33  and  C_34
                            x       y       z     vdW  Elec       q    Type
                         _______ _______ _______ _____ _____    ______ ____

>  <TORSDO>
F 4

$$$$
=
 OpenBabel11052420233D

 34 39  0  0  1  0  0  0  0  0999 V2000
  189.7960  172.5880  142.7130 C   0  0  0  0  0  0  0  0  0  0  0  0
  189.7920  174.5410  141.1560 C   0  0  0  0  0  2  0  0  0  0  0  0
  190.5740  171.2960  140.2540 C   0  0  2  0  0  0  0  0  0  0  0  0
  190.5070  170.5020  141.5620 C   0  0  0  0  0  2  0  0  0  0  0  0
  190.4140  171.4010  142.7630 C   0  0  0  0  0  3  0  0  0  0  0  0
  189.3670  172.2430  140.1980 C   0  0  0  0  0  2  0  0  0  0  0  0
  189.2260  173.1510  141.4300 C   0  0  1  0  0  3  0  0  0  0  0  0
  190.4560  170.3140  139.1060 C   0  0  0  0  0  1  0  0  0  0  0  0
  189.8850  175.4390  142.4050 C   0  0  0  0  0  2  0  0  0  0  0  0
  189.7860  173.4450  143.9460 C   0  0  0  0  0  2  0  0  0  0  0  0
  189.2620  174.8810  143.7140 C   0  0  1  0  0  0  0  0  0  0  0  0
  188.4840  175.8360  146.0010 C   0  0  0  0  0  2  0  0  0  0  0  0
  191.3780  177.4320  144.0680 C   0  0  0  0  0  2  0  0  0  0  0  0
  193.6170  176.4030  144.5250 C   0  0  0  0  0  2  0  0  0  0  0  0
  188.8830  178.0410  143.9820 C   0  0  0  0  0  2  0  0  0  0  0  0
  186.1770  176.7330  146.3430 C   0  0  0  0  0  3  0  0  0  0  0  0
  185.3670  178.7140  145.2120 C   0  0  0  0  0  3  0  0  0  0  0  0
  193.1340  175.2810  146.5050 N   0  0  0  0  0  2  0  0  0  0  0  0
  185.1630  177.6650  146.1110 C   0  0  0  0  0  3  0  0  0  0  0  0
  187.6150  177.9160  144.7770 C   0  0  0  0  0  0  0  0  0  0  0  0
  187.4010  176.8390  145.6730 C   0  0  0  0  0  0  0  0  0  0  0  0
  186.5870  178.8350  144.5430 C   0  0  0  0  0  3  0  0  0  0  0  0
  192.4140  177.0630  145.1330 C   0  0  2  0  0  3  0  0  0  0  0  0
  193.9470  175.2460  145.3520 N   0  0  0  0  0  2  0  0  0  0  0  0
  190.8460  175.1090  145.6850 C   0  0  0  0  0  2  0  0  0  0  0  0
  191.9530  176.0600  146.1770 C   0  0  1  0  0  3  0  0  0  0  0  0
  189.9910  177.2480  144.6510 C   0  0  1  0  0  3  0  0  0  0  0  0
  189.6360  175.7720  144.9770 C   0  0  1  0  0  0  0  0  0  0  0  0
  191.8780  172.0420  140.1110 C   0  0  0  0  0  0  0  0  0  0  0  0
  192.0120  172.9210  139.2170 O   0  0  0  0  0  0  0  0  0  0  0  0
  192.9690  171.7160  140.9090 O   0  0  0  0  0  1  0  0  0  0  0  0
  187.7250  174.7640  143.5420 C   0  0  0  0  0  2  0  0  0  0  0  0
  185.9220  176.1020  142.7590 F   0  0  0  0  0  0  0  0  0  0  0  0
  187.1420  175.5710  142.3880 C   0  0  0  0  0  2  0  0  0  0  0  0
  1  5  2  0  0  0  0
  1 10  1  0  0  0  0
  2  7  1  0  0  0  0
  2  9  1  0  0  0  0
  3  8  1  6  0  0  0
  3  4  1  0  0  0  0
  4  5  1  0  0  0  0
  6  3  1  0  0  0  0
  7  6  1  6  0  0  0
  7  1  1  0  0  0  0
  9 11  1  0  0  0  0
 11 32  1  6  0  0  0
 11 10  1  0  0  0  0
 11 28  1  0  0  0  0
 13 27  1  0  0  0  0
 14 23  1  0  0  0  0
 14 24  1  0  0  0  0
 15 20  1  0  0  0  0
 17 19  2  0  0  0  0
 19 16  1  0  0  0  0
 20 21  1  0  0  0  0
 21 12  1  0  0  0  0
 21 16  2  0  0  0  0
 22 20  2  0  0  0  0
 22 17  1  0  0  0  0
 23 13  1  6  0  0  0
 23 26  1  0  0  0  0
 24 18  1  0  0  0  0
 26 25  1  6  0  0  0
 26 18  1  0  0  0  0
 27 15  1  6  0  0  0
 27 28  1  0  0  0  0
 28 25  1  1  0  0  0
 28 12  1  0  0  0  0
 29  3  1  0  0  0  0
 29 31  1  0  0  0  0
 30 29  2  0  0  0  0
 34 33  1  0  0  0  0
 34 32  1  0  0  0  0
M  END
>  <MODEL>
7

>  <REMARK>
 VINA RESULT:      -7.8      3.191      6.658
  Name = 
  4 active torsions:
  status: ('A' for Active; 'I' for Inactive)
    1  A    between atoms: C_7  and  C_11
    2  A    between atoms: C_9  and  C_18
    3  A    between atoms: C_9  and  C_33
    4  A    between atoms: C_33  and  C_34
                            x       y       z     vdW  Elec       q    Type
                         _______ _______ _______ _____ _____    ______ ____

>  <TORSDO>
F 4

$$$$
=
 OpenBabel11052420233D

 34 39  0  0  1  0  0  0  0  0999 V2000
  190.8240  172.8560  141.3420 C   0  0  0  0  0  0  0  0  0  0  0  0
  188.7640  174.1590  140.7930 C   0  0  0  0  0  2  0  0  0  0  0  0
  190.4750  172.1380  138.5700 C   0  0  2  0  0  0  0  0  0  0  0  0
  191.6880  171.6330  139.3570 C   0  0  0  0  0  2  0  0  0  0  0  0
  191.8650  172.3720  140.6530 C   0  0  0  0  0  3  0  0  0  0  0  0
  189.2390  172.0570  139.4760 C   0  0  0  0  0  2  0  0  0  0  0  0
  189.4040  172.7740  140.8250 C   0  0  1  0  0  3  0  0  0  0  0  0
  190.2600  171.2050  137.3950 C   0  0  0  0  0  1  0  0  0  0  0  0
  189.0740  175.0230  142.0300 C   0  0  0  0  0  2  0  0  0  0  0  0
  191.0900  173.6210  142.6070 C   0  0  0  0  0  2  0  0  0  0  0  0
  189.8480  174.3340  143.1880 C   0  0  1  0  0  0  0  0  0  0  0  0
  189.2920  175.5370  145.4220 C   0  0  0  0  0  2  0  0  0  0  0  0
  191.8970  176.9570  143.0010 C   0  0  0  0  0  2  0  0  0  0  0  0
  194.2080  176.0400  143.3170 C   0  0  0  0  0  2  0  0  0  0  0  0
  189.3870  177.4940  143.1290 C   0  0  0  0  0  2  0  0  0  0  0  0
  187.0060  176.4150  145.9170 C   0  0  0  0  0  3  0  0  0  0  0  0
  186.0060  178.2280  144.6640 C   0  0  0  0  0  3  0  0  0  0  0  0
  193.9860  175.1520  145.4560 N   0  0  0  0  0  2  0  0  0  0  0  0
  185.9390  177.2900  145.6950 C   0  0  0  0  0  3  0  0  0  0  0  0
  188.2190  177.4350  144.0710 C   0  0  0  0  0  0  0  0  0  0  0  0
  188.1440  176.4680  145.1050 C   0  0  0  0  0  0  0  0  0  0  0  0
  187.1400  178.2960  143.8510 C   0  0  0  0  0  3  0  0  0  0  0  0
  193.0550  176.7410  143.9770 C   0  0  2  0  0  3  0  0  0  0  0  0
  194.6690  174.9990  144.2300 N   0  0  0  0  0  2  0  0  0  0  0  0
  191.6290  174.8310  144.9260 C   0  0  0  0  0  2  0  0  0  0  0  0
  192.7490  175.8600  145.1760 C   0  0  1  0  0  3  0  0  0  0  0  0
  190.5890  176.8110  143.7550 C   0  0  1  0  0  3  0  0  0  0  0  0
  190.3260  175.3780  144.2890 C   0  0  1  0  0  0  0  0  0  0  0  0
  190.6870  173.5340  138.0360 C   0  0  0  0  0  0  0  0  0  0  0  0
  189.7310  174.1650  137.5120 O   0  0  0  0  0  0  0  0  0  0  0  0
  191.9540  174.1080  138.0450 O   0  0  0  0  0  1  0  0  0  0  0  0
  188.9580  173.2260  143.8110 C   0  0  0  0  0  2  0  0  0  0  0  0
  189.3160  171.9160  145.7630 F   0  0  0  0  0  0  0  0  0  0  0  0
  189.7200  172.0720  144.4500 C   0  0  0  0  0  2  0  0  0  0  0  0
  1 10  1  0  0  0  0
  2  7  1  0  0  0  0
  2  9  1  0  0  0  0
  3  8  1  6  0  0  0
  3  4  1  0  0  0  0
  3  6  1  0  0  0  0
  4  5  1  0  0  0  0
  5  1  2  0  0  0  0
  7  6  1  6  0  0  0
  7  1  1  0  0  0  0
  9 11  1  0  0  0  0
 10 11  1  0  0  0  0
 11 32  1  1  0  0  0
 11 28  1  0  0  0  0
 14 23  1  0  0  0  0
 14 24  1  0  0  0  0
 15 27  1  0  0  0  0
 15 20  1  0  0  0  0
 17 19  2  0  0  0  0
 19 16  1  0  0  0  0
 20 21  1  0  0  0  0
 21 12  1  0  0  0  0
 21 16  2  0  0  0  0
 22 20  2  0  0  0  0
 22 17  1  0  0  0  0
 23 13  1  6  0  0  0
 23 26  1  0  0  0  0
 24 18  1  0  0  0  0
 26 25  1  6  0  0  0
 26 18  1  0  0  0  0
 27 13  1  6  0  0  0
 27 28  1  0  0  0  0
 28 25  1  1  0  0  0
 28 12  1  0  0  0  0
 29 31  1  0  0  0  0
 29  3  1  0  0  0  0
 30 29  2  0  0  0  0
 32 34  1  0  0  0  0
 34 33  1  0  0  0  0
M  END
>  <MODEL>
8

>  <REMARK>
 VINA RESULT:      -7.8      2.987      6.527
  Name = 
  4 active torsions:
  status: ('A' for Active; 'I' for Inactive)
    1  A    between atoms: C_7  and  C_11
    2  A    between atoms: C_9  and  C_18
    3  A    between atoms: C_9  and  C_33
    4  A    between atoms: C_33  and  C_34
                            x       y       z     vdW  Elec       q    Type
                         _______ _______ _______ _____ _____    ______ ____

>  <TORSDO>
F 4

$$$$
=
 OpenBabel11052420233D

 34 39  0  0  1  0  0  0  0  0999 V2000
  191.9810  172.7450  142.3550 C   0  0  0  0  0  0  0  0  0  0  0  0
  190.3700  174.3410  141.3090 C   0  0  0  0  0  2  0  0  0  0  0  0
  192.2540  172.0170  139.5780 C   0  0  2  0  0  0  0  0  0  0  0  0
  193.1250  171.3480  140.6460 C   0  0  0  0  0  2  0  0  0  0  0  0
  193.0750  172.0840  141.9550 C   0  0  0  0  0  3  0  0  0  0  0  0
  190.8290  172.1560  140.1290 C   0  0  0  0  0  2  0  0  0  0  0  0
  190.7500  172.8750  141.4860 C   0  0  1  0  0  3  0  0  0  0  0  0
  192.2050  171.0980  138.3740 C   0  0  0  0  0  1  0  0  0  0  0  0
  190.4820  175.1800  142.5970 C   0  0  0  0  0  2  0  0  0  0  0  0
  192.0290  173.4930  143.6570 C   0  0  0  0  0  2  0  0  0  0  0  0
  190.8080  174.4080  143.9060 C   0  0  1  0  0  0  0  0  0  0  0  0
  190.0590  175.3610  146.2030 C   0  0  0  0  0  2  0  0  0  0  0  0
  192.6080  177.2120  144.0270 C   0  0  0  0  0  2  0  0  0  0  0  0
  194.9820  176.4840  144.3720 C   0  0  0  0  0  2  0  0  0  0  0  0
  190.0560  177.5070  144.0840 C   0  0  0  0  0  2  0  0  0  0  0  0
  187.6830  175.9840  146.6640 C   0  0  0  0  0  3  0  0  0  0  0  0
  186.5660  177.8000  145.5180 C   0  0  0  0  0  3  0  0  0  0  0  0
  194.7630  175.4000  146.4190 N   0  0  0  0  0  2  0  0  0  0  0  0
  186.5490  176.7750  146.4660 C   0  0  0  0  0  3  0  0  0  0  0  0
  188.8640  177.2630  144.9650 C   0  0  0  0  0  0  0  0  0  0  0  0
  188.8410  176.2090  145.9120 C   0  0  0  0  0  0  0  0  0  0  0  0
  187.7180  178.0390  144.7660 C   0  0  0  0  0  3  0  0  0  0  0  0
  193.7450  177.0190  145.0340 C   0  0  2  0  0  3  0  0  0  0  0  0
  195.5030  175.4140  145.2170 N   0  0  0  0  0  2  0  0  0  0  0  0
  192.4690  174.9140  145.7580 C   0  0  0  0  0  2  0  0  0  0  0  0
  193.4770  176.0140  146.1420 C   0  0  1  0  0  3  0  0  0  0  0  0
  191.2930  176.8850  144.7060 C   0  0  1  0  0  3  0  0  0  0  0  0
  191.1450  175.3930  145.1090 C   0  0  1  0  0  0  0  0  0  0  0  0
  192.8170  173.3460  139.1390 C   0  0  0  0  0  0  0  0  0  0  0  0
  192.1420  174.1070  138.3950 O   0  0  0  0  0  0  0  0  0  0  0  0
  194.1130  173.7130  139.4850 O   0  0  0  0  0  1  0  0  0  0  0  0
  189.6230  173.4720  144.2590 C   0  0  0  0  0  2  0  0  0  0  0  0
  189.1450  171.6940  145.7640 F   0  0  0  0  0  0  0  0  0  0  0  0
  190.0210  172.0940  144.7720 C   0  0  0  0  0  2  0  0  0  0  0  0
  1 10  1  0  0  0  0
  2  7  1  0  0  0  0
  2  9  1  0  0  0  0
  3  8  1  6  0  0  0
  3  6  1  0  0  0  0
  3  4  1  0  0  0  0
  4  5  1  0  0  0  0
  5  1  2  0  0  0  0
  7  6  1  6  0  0  0
  7  1  1  0  0  0  0
  9 11  1  0  0  0  0
 10 11  1  0  0  0  0
 11 32  1  1  0  0  0
 11 28  1  0  0  0  0
 14 23  1  0  0  0  0
 14 24  1  0  0  0  0
 15 27  1  0  0  0  0
 15 20  1  0  0  0  0
 17 19  2  0  0  0  0
 19 16  1  0  0  0  0
 20 21  1  0  0  0  0
 21 12  1  0  0  0  0
 21 16  2  0  0  0  0
 22 20  2  0  0  0  0
 22 17  1  0  0  0  0
 23 13  1  6  0  0  0
 23 26  1  0  0  0  0
 24 18  1  0  0  0  0
 26 25  1  6  0  0  0
 26 18  1  0  0  0  0
 27 13  1  6  0  0  0
 27 28  1  0  0  0  0
 28 25  1  1  0  0  0
 28 12  1  0  0  0  0
 29 31  1  0  0  0  0
 29  3  1  0  0  0  0
 30 29  2  0  0  0  0
 32 34  1  0  0  0  0
 34 33  1  0  0  0  0
M  END
>  <MODEL>
9

>  <REMARK>
 VINA RESULT:      -7.8      3.224      6.707
  Name = 
  4 active torsions:
  status: ('A' for Active; 'I' for Inactive)
    1  A    between atoms: C_7  and  C_11
    2  A    between atoms: C_9  and  C_18
    3  A    between atoms: C_9  and  C_33
    4  A    between atoms: C_33  and  C_34
                            x       y       z     vdW  Elec       q    Type
                         _______ _______ _______ _____ _____    ______ ____

>  <TORSDO>
F 4

$$$$
