=
 OpenBabel11052420123D

 37 40  0  0  1  0  0  0  0  0999 V2000
  189.7580  176.4500  144.1290 C   0  0  2  0  0  3  0  0  0  0  0  0
  188.6520  177.5300  145.9600 O   0  0  0  0  0  0  0  0  0  0  0  0
  187.5870  177.1270  145.1320 C   0  0  2  0  0  3  0  0  0  0  0  0
  188.8710  177.6170  144.5690 C   0  0  2  0  0  3  0  0  0  0  0  0
  186.4730  178.1900  145.1040 C   0  0  1  0  0  3  0  0  0  0  0  0
  186.0710  178.7120  143.7190 C   0  0  0  0  0  1  0  0  0  0  0  0
  185.2780  177.7940  145.9750 C   0  0  2  0  0  3  0  0  0  0  0  0
  184.0500  178.6540  145.6900 C   0  0  0  0  0  1  0  0  0  0  0  0
  185.6490  177.8630  147.4510 C   0  0  0  0  0  2  0  0  0  0  0  0
  186.1640  179.2190  147.8160 C   0  0  0  0  0  3  0  0  0  0  0  0
  187.0980  179.3400  148.5950 O   0  0  0  0  0  0  0  0  0  0  0  0
  191.5310  178.3030  143.9590 C   0  0  0  0  0  1  0  0  0  0  0  0
  191.2310  176.8550  144.3140 C   0  0  1  0  0  3  0  0  0  0  0  0
  191.8960  176.3330  145.6100 C   0  0  1  0  0  3  0  0  0  0  0  0
  190.7050  175.6560  147.6020 O   0  0  0  0  0  0  0  0  0  0  0  0
  191.1430  175.2270  146.3680 C   0  0  0  0  0  3  0  0  0  0  0  0
  191.8120  174.9020  147.5270 O   0  0  0  0  0  0  0  0  0  0  0  0
  193.4010  176.0700  145.5230 C   0  0  0  0  0  2  0  0  0  0  0  0
  194.9160  177.8490  145.8140 O   0  0  0  0  0  0  0  0  0  0  0  0
  194.1980  177.0240  146.3540 C   0  0  0  0  0  3  0  0  0  0  0  0
  189.4190  175.9720  142.6920 C   0  0  1  0  0  3  0  0  0  0  0  0
  190.8920  174.0640  140.9820 C   0  0  1  0  0  3  0  0  0  0  0  0
  189.8280  172.8060  139.0280 C   0  0  0  0  0  2  0  0  0  0  0  0
  188.9130  172.5090  141.2580 O   0  0  0  0  0  0  0  0  0  0  0  0
  191.1350  173.1600  139.7580 C   0  0  2  0  0  3  0  0  0  0  0  0
  188.8510  174.5360  142.6510 C   0  0  1  0  0  3  0  0  0  0  0  0
  189.6780  173.5590  141.8100 C   0  0  2  0  0  0  0  0  0  0  0  0
  189.0600  172.4980  143.8770 O   0  0  0  0  0  1  0  0  0  0  0  0
  188.5950  172.8890  139.9410 C   0  0  0  0  0  2  0  0  0  0  0  0
  192.1650  174.3130  141.7890 C   0  0  0  0  0  1  0  0  0  0  0  0
  189.7980  173.5470  143.3260 C   0  0  2  0  0  3  0  0  0  0  0  0
  193.2150  171.7790  139.6640 O   0  0  0  0  0  0  0  0  0  0  0  0
  191.3610  170.9780  140.7420 O   0  0  0  0  0  1  0  0  0  0  0  0
  191.8990  171.9090  140.0860 C   0  0  0  0  0  0  0  0  0  0  0  0
  188.6120  176.8930  141.9780 O   0  0  0  0  0  0  0  0  0  0  0  0
  187.5560  176.2060  141.3530 C   0  0  0  0  0  2  0  0  0  0  0  0
  186.8540  177.1350  140.3840 C   0  0  0  0  0  1  0  0  0  0  0  0
  1 21  1  6  0  0  0
  1 13  1  0  0  0  0
  3  5  1  1  0  0  0
  3  2  1  0  0  0  0
  4  1  1  6  0  0  0
  4  3  1  0  0  0  0
  4  2  1  0  0  0  0
  5  6  1  6  0  0  0
  5  7  1  0  0  0  0
  7  8  1  1  0  0  0
  7  9  1  0  0  0  0
  9 10  1  0  0  0  0
 10 11  2  0  0  0  0
 13 12  1  1  0  0  0
 13 14  1  0  0  0  0
 14 18  1  6  0  0  0
 14 16  1  0  0  0  0
 16 17  1  0  0  0  0
 16 15  1  0  0  0  0
 17 15  1  0  0  0  0
 18 20  1  0  0  0  0
 19 20  2  0  0  0  0
 21 35  1  1  0  0  0
 22 30  1  1  0  0  0
 22 27  1  0  0  0  0
 23 25  1  0  0  0  0
 23 29  1  0  0  0  0
 25 34  1  1  0  0  0
 25 22  1  0  0  0  0
 26 21  1  6  0  0  0
 26 31  1  0  0  0  0
 27 24  1  6  0  0  0
 27 26  1  0  0  0  0
 27 31  1  0  0  0  0
 29 24  1  0  0  0  0
 31 28  1  1  0  0  0
 32 34  2  0  0  0  0
 34 33  1  0  0  0  0
 36 35  1  0  0  0  0
 37 36  1  0  0  0  0
M  END
>  <MODEL>
1

>  <REMARK>
 VINA RESULT:      -6.1      0.000      0.000
  Name = 
  15 active torsions:
  status: ('A' for Active; 'I' for Inactive)
    1  A    between atoms: C_1  and  C_5
    2  A    between atoms: C_1  and  C_23
    3  A    between atoms: C_5  and  C_26
    4  A    between atoms: C_8  and  C_19
    5  A    between atoms: C_9  and  C_13
    6  A    between atoms: C_9  and  C_16
    7  A    between atoms: C_9  and  C_30
    8  A    between atoms: C_10  and  C_29
    9  A    between atoms: C_11  and  C_26
   10  A    between atoms: C_13  and  C_20
   11  A    between atoms: C_16  and  C_24
   12  A    between atoms: C_20  and  C_25
   13  A    between atoms: C_20  and  C_29
   14  A    between atoms: C_27  and  O_33
   15  A    between atoms: C_29  and  O_33
                            x       y       z     vdW  Elec       q    Type
                         _______ _______ _______ _____ _____    ______ ____

>  <TORSDO>
F 15

$$$$
=
 OpenBabel11052420123D

 37 40  0  0  1  0  0  0  0  0999 V2000
  189.7260  174.6820  142.8770 C   0  0  2  0  0  3  0  0  0  0  0  0
  187.7440  175.7690  142.0830 O   0  0  0  0  0  0  0  0  0  0  0  0
  188.1060  176.5380  143.2060 C   0  0  2  0  0  3  0  0  0  0  0  0
  188.2750  175.0620  143.1820 C   0  0  2  0  0  3  0  0  0  0  0  0
  186.8610  176.9870  143.9950 C   0  0  1  0  0  3  0  0  0  0  0  0
  187.0460  177.1630  145.5080 C   0  0  0  0  0  1  0  0  0  0  0  0
  186.1540  178.1700  143.3270 C   0  0  2  0  0  3  0  0  0  0  0  0
  185.8820  179.3050  144.3110 C   0  0  0  0  0  1  0  0  0  0  0  0
  184.8600  177.7120  142.6670 C   0  0  0  0  0  2  0  0  0  0  0  0
  184.8420  178.0620  141.2120 C   0  0  0  0  0  3  0  0  0  0  0  0
  185.8860  178.2610  140.6090 O   0  0  0  0  0  0  0  0  0  0  0  0
  188.5990  172.4080  142.4630 C   0  0  0  0  0  1  0  0  0  0  0  0
  189.7320  173.3550  142.0970 C   0  0  1  0  0  3  0  0  0  0  0  0
  190.0310  173.4860  140.5840 C   0  0  1  0  0  3  0  0  0  0  0  0
  192.1030  173.8460  139.3890 O   0  0  0  0  0  0  0  0  0  0  0  0
  191.3770  172.9170  140.1020 C   0  0  0  0  0  3  0  0  0  0  0  0
  191.4220  172.8990  138.7250 O   0  0  0  0  0  0  0  0  0  0  0  0
  188.8730  173.1400  139.6460 C   0  0  0  0  0  2  0  0  0  0  0  0
  187.9250  174.2570  137.8030 O   0  0  0  0  0  0  0  0  0  0  0  0
  188.3180  174.3440  138.9550 C   0  0  0  0  0  3  0  0  0  0  0  0
  190.6010  174.6550  144.1580 C   0  0  1  0  0  3  0  0  0  0  0  0
  193.5540  174.7670  144.1180 C   0  0  1  0  0  3  0  0  0  0  0  0
  194.9700  175.4470  146.1350 C   0  0  0  0  0  2  0  0  0  0  0  0
  193.3420  177.0200  145.2540 O   0  0  0  0  0  0  0  0  0  0  0  0
  194.9740  174.8610  144.7130 C   0  0  2  0  0  3  0  0  0  0  0  0
  191.2220  176.0290  144.4940 C   0  0  1  0  0  3  0  0  0  0  0  0
  192.7510  176.0670  144.3970 C   0  0  2  0  0  0  0  0  0  0  0  0
  191.8420  178.0340  143.3560 O   0  0  0  0  0  1  0  0  0  0  0  0
  193.7420  176.3290  146.4120 C   0  0  0  0  0  2  0  0  0  0  0  0
  193.5590  174.3110  142.6610 C   0  0  0  0  0  1  0  0  0  0  0  0
  191.9030  176.6420  143.2730 C   0  0  2  0  0  3  0  0  0  0  0  0
  196.7610  174.9320  142.9690 O   0  0  0  0  0  0  0  0  0  0  0  0
  195.9910  176.8800  143.8940 O   0  0  0  0  0  1  0  0  0  0  0  0
  195.9310  175.6230  143.8420 C   0  0  0  0  0  0  0  0  0  0  0  0
  189.9400  174.0740  145.2690 O   0  0  0  0  0  0  0  0  0  0  0  0
  190.1560  174.8660  146.4110 C   0  0  0  0  0  2  0  0  0  0  0  0
  189.0570  174.6050  147.4200 C   0  0  0  0  0  1  0  0  0  0  0  0
  1 13  1  1  0  0  0
  1 21  1  0  0  0  0
  2  4  1  0  0  0  0
  2  3  1  0  0  0  0
  3  5  1  1  0  0  0
  4  1  1  6  0  0  0
  4  3  1  0  0  0  0
  5  6  1  1  0  0  0
  7  5  1  0  0  0  0
  7  8  1  1  0  0  0
  9  7  1  0  0  0  0
 10  9  1  0  0  0  0
 11 10  2  0  0  0  0
 13 12  1  6  0  0  0
 14 18  1  6  0  0  0
 14 13  1  0  0  0  0
 15 16  1  0  0  0  0
 16 14  1  0  0  0  0
 17 15  1  0  0  0  0
 17 16  1  0  0  0  0
 19 20  2  0  0  0  0
 20 18  1  0  0  0  0
 21 35  1  1  0  0  0
 22 30  1  6  0  0  0
 22 27  1  0  0  0  0
 22 25  1  0  0  0  0
 23 29  1  0  0  0  0
 24 29  1  0  0  0  0
 25 34  1  6  0  0  0
 25 23  1  0  0  0  0
 26 21  1  6  0  0  0
 27 26  1  0  0  0  0
 27 24  1  1  0  0  0
 31 28  1  1  0  0  0
 31 27  1  0  0  0  0
 31 26  1  0  0  0  0
 32 34  2  0  0  0  0
 34 33  1  0  0  0  0
 35 36  1  0  0  0  0
 36 37  1  0  0  0  0
M  END
>  <MODEL>
2

>  <REMARK>
 VINA RESULT:      -6.1      2.200      6.187
  Name = 
  15 active torsions:
  status: ('A' for Active; 'I' for Inactive)
    1  A    between atoms: C_1  and  C_5
    2  A    between atoms: C_1  and  C_23
    3  A    between atoms: C_5  and  C_26
    4  A    between atoms: C_8  and  C_19
    5  A    between atoms: C_9  and  C_13
    6  A    between atoms: C_9  and  C_16
    7  A    between atoms: C_9  and  C_30
    8  A    between atoms: C_10  and  C_29
    9  A    between atoms: C_11  and  C_26
   10  A    between atoms: C_13  and  C_20
   11  A    between atoms: C_16  and  C_24
   12  A    between atoms: C_20  and  C_25
   13  A    between atoms: C_20  and  C_29
   14  A    between atoms: C_27  and  O_33
   15  A    between atoms: C_29  and  O_33
                            x       y       z     vdW  Elec       q    Type
                         _______ _______ _______ _____ _____    ______ ____

>  <TORSDO>
F 15

$$$$
=
 OpenBabel11052420123D

 37 40  0  0  1  0  0  0  0  0999 V2000
  189.5840  176.1980  143.7750 C   0  0  2  0  0  3  0  0  0  0  0  0
  188.5800  177.2450  145.6820 O   0  0  0  0  0  0  0  0  0  0  0  0
  187.4800  176.9730  144.8470 C   0  0  2  0  0  3  0  0  0  0  0  0
  188.7930  177.4000  144.2960 C   0  0  2  0  0  3  0  0  0  0  0  0
  186.4500  178.1170  144.8970 C   0  0  1  0  0  3  0  0  0  0  0  0
  186.1030  178.7760  143.5550 C   0  0  0  0  0  1  0  0  0  0  0  0
  185.2170  177.7450  145.7270 C   0  0  2  0  0  3  0  0  0  0  0  0
  184.0660  178.7230  145.5150 C   0  0  0  0  0  1  0  0  0  0  0  0
  185.5790  177.6540  147.2030 C   0  0  0  0  0  2  0  0  0  0  0  0
  186.0410  178.9750  147.7300 C   0  0  0  0  0  3  0  0  0  0  0  0
  187.0530  179.0530  148.4100 O   0  0  0  0  0  0  0  0  0  0  0  0
  191.4840  177.9140  144.0110 C   0  0  0  0  0  1  0  0  0  0  0  0
  191.0810  176.4480  144.0320 C   0  0  1  0  0  3  0  0  0  0  0  0
  191.7010  175.6010  145.1690 C   0  0  1  0  0  3  0  0  0  0  0  0
  192.1900  173.2400  144.9740 O   0  0  0  0  0  0  0  0  0  0  0  0
  192.6910  174.5030  144.7420 C   0  0  0  0  0  3  0  0  0  0  0  0
  193.0790  173.7590  145.8350 O   0  0  0  0  0  0  0  0  0  0  0  0
  192.1780  176.3830  146.3950 C   0  0  0  0  0  2  0  0  0  0  0  0
  190.5540  175.2530  147.6710 O   0  0  0  0  0  0  0  0  0  0  0  0
  191.2470  176.2500  147.5570 C   0  0  0  0  0  3  0  0  0  0  0  0
  189.2510  175.8800  142.2940 C   0  0  1  0  0  3  0  0  0  0  0  0
  190.6110  174.0480  140.4160 C   0  0  1  0  0  3  0  0  0  0  0  0
  189.4900  173.0650  138.3390 C   0  0  0  0  0  2  0  0  0  0  0  0
  188.5230  172.6190  140.5220 O   0  0  0  0  0  0  0  0  0  0  0  0
  190.8080  173.2520  139.1100 C   0  0  2  0  0  3  0  0  0  0  0  0
  188.5830  174.5000  142.1070 C   0  0  1  0  0  3  0  0  0  0  0  0
  189.3520  173.5520  141.1800 C   0  0  2  0  0  0  0  0  0  0  0  0
  188.6300  172.3420  143.1280 O   0  0  0  0  0  1  0  0  0  0  0  0
  188.2520  173.1480  139.2460 C   0  0  0  0  0  2  0  0  0  0  0  0
  191.8860  174.1240  141.2520 C   0  0  0  0  0  1  0  0  0  0  0  0
  189.4490  173.3840  142.6890 C   0  0  2  0  0  3  0  0  0  0  0  0
  190.7780  170.8960  139.9400 O   0  0  0  0  0  1  0  0  0  0  0  0
  192.6610  171.7310  138.9390 O   0  0  0  0  0  0  0  0  0  0  0  0
  191.4760  171.9240  139.3200 C   0  0  0  0  0  0  0  0  0  0  0  0
  188.5310  176.9200  141.6520 O   0  0  0  0  0  0  0  0  0  0  0  0
  187.4030  176.3820  141.0070 C   0  0  0  0  0  2  0  0  0  0  0  0
  186.7450  177.4550  140.1650 C   0  0  0  0  0  1  0  0  0  0  0  0
  1 21  1  6  0  0  0
  1 13  1  0  0  0  0
  3  5  1  1  0  0  0
  3  2  1  0  0  0  0
  4  1  1  6  0  0  0
  4  3  1  0  0  0  0
  4  2  1  0  0  0  0
  5  6  1  6  0  0  0
  5  7  1  0  0  0  0
  7  8  1  1  0  0  0
  7  9  1  0  0  0  0
  9 10  1  0  0  0  0
 10 11  2  0  0  0  0
 13 12  1  1  0  0  0
 13 14  1  0  0  0  0
 14 18  1  1  0  0  0
 15 17  1  0  0  0  0
 16 15  1  0  0  0  0
 16 14  1  0  0  0  0
 16 17  1  0  0  0  0
 18 20  1  0  0  0  0
 20 19  2  0  0  0  0
 21 35  1  1  0  0  0
 22 27  1  0  0  0  0
 22 30  1  1  0  0  0
 23 25  1  0  0  0  0
 23 29  1  0  0  0  0
 25 34  1  1  0  0  0
 25 22  1  0  0  0  0
 26 21  1  1  0  0  0
 26 31  1  0  0  0  0
 27 24  1  6  0  0  0
 27 26  1  0  0  0  0
 27 31  1  0  0  0  0
 29 24  1  0  0  0  0
 31 28  1  6  0  0  0
 33 34  2  0  0  0  0
 34 32  1  0  0  0  0
 36 35  1  0  0  0  0
 37 36  1  0  0  0  0
M  END
>  <MODEL>
3

>  <REMARK>
 VINA RESULT:      -6.1      1.063      1.561
  Name = 
  15 active torsions:
  status: ('A' for Active; 'I' for Inactive)
    1  A    between atoms: C_1  and  C_5
    2  A    between atoms: C_1  and  C_23
    3  A    between atoms: C_5  and  C_26
    4  A    between atoms: C_8  and  C_19
    5  A    between atoms: C_9  and  C_13
    6  A    between atoms: C_9  and  C_16
    7  A    between atoms: C_9  and  C_30
    8  A    between atoms: C_10  and  C_29
    9  A    between atoms: C_11  and  C_26
   10  A    between atoms: C_13  and  C_20
   11  A    between atoms: C_16  and  C_24
   12  A    between atoms: C_20  and  C_25
   13  A    between atoms: C_20  and  C_29
   14  A    between atoms: C_27  and  O_33
   15  A    between atoms: C_29  and  O_33
                            x       y       z     vdW  Elec       q    Type
                         _______ _______ _______ _____ _____    ______ ____

>  <TORSDO>
F 15

$$$$
=
 OpenBabel11052420123D

 37 40  0  0  1  0  0  0  0  0999 V2000
  189.9760  176.0220  144.0420 C   0  0  2  0  0  3  0  0  0  0  0  0
  188.5220  177.6760  144.9870 O   0  0  0  0  0  0  0  0  0  0  0  0
  187.6350  176.8130  144.3150 C   0  0  2  0  0  3  0  0  0  0  0  0
  188.9730  177.1450  143.7610 C   0  0  2  0  0  3  0  0  0  0  0  0
  186.4950  177.6020  143.6450 C   0  0  1  0  0  3  0  0  0  0  0  0
  185.9430  177.0150  142.3390 C   0  0  0  0  0  1  0  0  0  0  0  0
  185.4030  177.9950  144.6440 C   0  0  2  0  0  3  0  0  0  0  0  0
  185.5430  179.4410  145.1080 C   0  0  0  0  0  1  0  0  0  0  0  0
  185.4070  177.0470  145.8360 C   0  0  0  0  0  2  0  0  0  0  0  0
  185.3620  177.8010  147.1280 C   0  0  0  0  0  3  0  0  0  0  0  0
  186.0830  177.4790  148.0600 O   0  0  0  0  0  0  0  0  0  0  0  0
  191.5540  178.0370  143.7930 C   0  0  0  0  0  1  0  0  0  0  0  0
  191.3350  176.6550  144.3890 C   0  0  1  0  0  3  0  0  0  0  0  0
  191.7810  176.4840  145.8610 C   0  0  1  0  0  3  0  0  0  0  0  0
  190.2470  176.8320  147.6980 O   0  0  0  0  0  0  0  0  0  0  0  0
  190.7420  175.8870  146.8250 C   0  0  0  0  0  3  0  0  0  0  0  0
  191.1900  175.9770  148.1250 O   0  0  0  0  0  0  0  0  0  0  0  0
  193.1810  175.9020  146.0670 C   0  0  0  0  0  2  0  0  0  0  0  0
  194.7290  177.6350  145.6930 O   0  0  0  0  0  0  0  0  0  0  0  0
  194.1690  176.9310  146.5150 C   0  0  0  0  0  3  0  0  0  0  0  0
  190.0440  174.9980  142.8780 C   0  0  1  0  0  3  0  0  0  0  0  0
  192.0220  172.8470  142.4420 C   0  0  1  0  0  3  0  0  0  0  0  0
  191.5840  170.8000  140.9750 C   0  0  0  0  0  2  0  0  0  0  0  0
  190.1350  171.2180  142.8790 O   0  0  0  0  0  0  0  0  0  0  0  0
  192.6310  171.6010  141.7680 C   0  0  2  0  0  3  0  0  0  0  0  0
  189.5910  173.5810  143.2920 C   0  0  1  0  0  3  0  0  0  0  0  0
  190.6660  172.5030  143.1160 C   0  0  2  0  0  0  0  0  0  0  0  0
  189.5890  172.2080  145.2460 O   0  0  0  0  0  1  0  0  0  0  0  0
  190.1520  171.0240  141.4850 C   0  0  0  0  0  2  0  0  0  0  0  0
  193.0220  173.5760  143.3380 C   0  0  0  0  0  1  0  0  0  0  0  0
  190.3840  173.0780  144.4960 C   0  0  2  0  0  3  0  0  0  0  0  0
  194.7410  170.7130  142.7680 O   0  0  0  0  0  0  0  0  0  0  0  0
  192.7150  169.9350  143.4980 O   0  0  0  0  0  1  0  0  0  0  0  0
  193.3530  170.7010  142.7280 C   0  0  0  0  0  0  0  0  0  0  0  0
  189.3930  175.4520  141.7030 O   0  0  0  0  0  0  0  0  0  0  0  0
  188.4610  174.4870  141.2800 C   0  0  0  0  0  2  0  0  0  0  0  0
  188.7160  174.1430  139.8270 C   0  0  0  0  0  1  0  0  0  0  0  0
  1 21  1  6  0  0  0
  1 13  1  0  0  0  0
  3  5  1  6  0  0  0
  3  2  1  0  0  0  0
  4  1  1  1  0  0  0
  4  3  1  0  0  0  0
  4  2  1  0  0  0  0
  5  6  1  6  0  0  0
  5  7  1  0  0  0  0
  7  8  1  1  0  0  0
  7  9  1  0  0  0  0
  9 10  1  0  0  0  0
 10 11  2  0  0  0  0
 13 12  1  1  0  0  0
 13 14  1  0  0  0  0
 14 18  1  6  0  0  0
 14 16  1  0  0  0  0
 15 17  1  0  0  0  0
 16 15  1  0  0  0  0
 16 17  1  0  0  0  0
 18 20  1  0  0  0  0
 19 20  2  0  0  0  0
 21 35  1  6  0  0  0
 22 27  1  0  0  0  0
 22 30  1  1  0  0  0
 23 29  1  0  0  0  0
 23 25  1  0  0  0  0
 25 22  1  0  0  0  0
 25 34  1  1  0  0  0
 26 21  1  6  0  0  0
 26 31  1  0  0  0  0
 27 24  1  6  0  0  0
 27 26  1  0  0  0  0
 27 31  1  0  0  0  0
 29 24  1  0  0  0  0
 31 28  1  1  0  0  0
 34 32  2  0  0  0  0
 34 33  1  0  0  0  0
 36 35  1  0  0  0  0
 37 36  1  0  0  0  0
M  END
>  <MODEL>
4

>  <REMARK>
 VINA RESULT:      -6.0      1.570      1.934
  Name = 
  15 active torsions:
  status: ('A' for Active; 'I' for Inactive)
    1  A    between atoms: C_1  and  C_5
    2  A    between atoms: C_1  and  C_23
    3  A    between atoms: C_5  and  C_26
    4  A    between atoms: C_8  and  C_19
    5  A    between atoms: C_9  and  C_13
    6  A    between atoms: C_9  and  C_16
    7  A    between atoms: C_9  and  C_30
    8  A    between atoms: C_10  and  C_29
    9  A    between atoms: C_11  and  C_26
   10  A    between atoms: C_13  and  C_20
   11  A    between atoms: C_16  and  C_24
   12  A    between atoms: C_20  and  C_25
   13  A    between atoms: C_20  and  C_29
   14  A    between atoms: C_27  and  O_33
   15  A    between atoms: C_29  and  O_33
                            x       y       z     vdW  Elec       q    Type
                         _______ _______ _______ _____ _____    ______ ____

>  <TORSDO>
F 15

$$$$
=
 OpenBabel11052420123D

 37 40  0  0  1  0  0  0  0  0999 V2000
  190.4920  175.8460  144.2920 C   0  0  2  0  0  3  0  0  0  0  0  0
  189.1330  177.2670  145.6610 O   0  0  0  0  0  0  0  0  0  0  0  0
  188.1960  176.4050  145.0600 C   0  0  2  0  0  3  0  0  0  0  0  0
  189.3850  176.9020  144.3220 C   0  0  2  0  0  3  0  0  0  0  0  0
  186.9030  177.1590  144.6950 C   0  0  1  0  0  3  0  0  0  0  0  0
  185.9450  176.4370  143.7380 C   0  0  0  0  0  1  0  0  0  0  0  0
  186.2060  177.7370  145.9300 C   0  0  2  0  0  3  0  0  0  0  0  0
  185.1450  176.7920  146.4850 C   0  0  0  0  0  1  0  0  0  0  0  0
  185.5990  179.0960  145.6100 C   0  0  0  0  0  2  0  0  0  0  0  0
  184.1230  178.9900  145.3840 C   0  0  0  0  0  3  0  0  0  0  0  0
  183.6630  179.0360  144.2530 O   0  0  0  0  0  0  0  0  0  0  0  0
  191.8350  178.0260  144.0550 C   0  0  0  0  0  1  0  0  0  0  0  0
  191.8500  176.5540  144.4410 C   0  0  1  0  0  3  0  0  0  0  0  0
  192.6310  176.2100  145.7320 C   0  0  1  0  0  3  0  0  0  0  0  0
  194.9450  175.5080  145.7040 O   0  0  0  0  0  0  0  0  0  0  0  0
  194.1160  176.6080  145.7590 C   0  0  0  0  0  3  0  0  0  0  0  0
  194.7250  176.1020  146.8870 O   0  0  0  0  0  0  0  0  0  0  0  0
  191.9110  176.5220  147.0460 C   0  0  0  0  0  2  0  0  0  0  0  0
  190.2820  174.9270  147.6330 O   0  0  0  0  0  0  0  0  0  0  0  0
  191.4410  175.2890  147.7480 C   0  0  0  0  0  3  0  0  0  0  0  0
  190.3970  174.9390  143.0360 C   0  0  1  0  0  3  0  0  0  0  0  0
  192.1960  172.6240  142.6660 C   0  0  1  0  0  3  0  0  0  0  0  0
  191.7060  170.6960  141.0620 C   0  0  0  0  0  2  0  0  0  0  0  0
  190.1310  171.1710  142.8480 O   0  0  0  0  0  0  0  0  0  0  0  0
  192.7450  171.3550  141.9850 C   0  0  2  0  0  3  0  0  0  0  0  0
  189.7760  173.5570  143.3340 C   0  0  1  0  0  3  0  0  0  0  0  0
  190.7560  172.3870  143.1980 C   0  0  2  0  0  0  0  0  0  0  0  0
  189.4620  172.1080  145.2050 O   0  0  0  0  0  1  0  0  0  0  0  0
  190.2600  171.0370  141.4530 C   0  0  0  0  0  2  0  0  0  0  0  0
  193.1720  173.2110  143.6840 C   0  0  0  0  0  1  0  0  0  0  0  0
  190.4020  172.9260  144.5760 C   0  0  2  0  0  3  0  0  0  0  0  0
  194.6590  170.1800  143.0790 O   0  0  0  0  0  0  0  0  0  0  0  0
  192.5090  169.6510  143.6640 O   0  0  0  0  0  1  0  0  0  0  0  0
  193.2860  170.3460  142.9570 C   0  0  0  0  0  0  0  0  0  0  0  0
  189.7800  175.5830  141.9330 O   0  0  0  0  0  0  0  0  0  0  0  0
  188.6580  174.8400  141.5240 C   0  0  0  0  0  2  0  0  0  0  0  0
  187.8090  175.6820  140.5940 C   0  0  0  0  0  1  0  0  0  0  0  0
  1 21  1  6  0  0  0
  1 13  1  0  0  0  0
  3  5  1  6  0  0  0
  3  2  1  0  0  0  0
  4  1  1  1  0  0  0
  4  3  1  0  0  0  0
  4  2  1  0  0  0  0
  5  6  1  1  0  0  0
  5  7  1  0  0  0  0
  7  8  1  6  0  0  0
  9  7  1  0  0  0  0
 10  9  1  0  0  0  0
 11 10  2  0  0  0  0
 13 12  1  1  0  0  0
 13 14  1  0  0  0  0
 14 16  1  0  0  0  0
 14 18  1  1  0  0  0
 15 16  1  0  0  0  0
 15 17  1  0  0  0  0
 16 17  1  0  0  0  0
 18 20  1  0  0  0  0
 19 20  2  0  0  0  0
 21 35  1  6  0  0  0
 22 27  1  0  0  0  0
 22 30  1  1  0  0  0
 23 29  1  0  0  0  0
 23 25  1  0  0  0  0
 25 22  1  0  0  0  0
 25 34  1  1  0  0  0
 26 21  1  6  0  0  0
 26 31  1  0  0  0  0
 27 24  1  6  0  0  0
 27 26  1  0  0  0  0
 27 31  1  0  0  0  0
 29 24  1  0  0  0  0
 31 28  1  1  0  0  0
 34 32  2  0  0  0  0
 34 33  1  0  0  0  0
 36 35  1  0  0  0  0
 37 36  1  0  0  0  0
M  END
>  <MODEL>
5

>  <REMARK>
 VINA RESULT:      -5.8      1.942      2.698
  Name = 
  15 active torsions:
  status: ('A' for Active; 'I' for Inactive)
    1  A    between atoms: C_1  and  C_5
    2  A    between atoms: C_1  and  C_23
    3  A    between atoms: C_5  and  C_26
    4  A    between atoms: C_8  and  C_19
    5  A    between atoms: C_9  and  C_13
    6  A    between atoms: C_9  and  C_16
    7  A    between atoms: C_9  and  C_30
    8  A    between atoms: C_10  and  C_29
    9  A    between atoms: C_11  and  C_26
   10  A    between atoms: C_13  and  C_20
   11  A    between atoms: C_16  and  C_24
   12  A    between atoms: C_20  and  C_25
   13  A    between atoms: C_20  and  C_29
   14  A    between atoms: C_27  and  O_33
   15  A    between atoms: C_29  and  O_33
                            x       y       z     vdW  Elec       q    Type
                         _______ _______ _______ _____ _____    ______ ____

>  <TORSDO>
F 15

$$$$
=
 OpenBabel11052420123D

 37 40  0  0  1  0  0  0  0  0999 V2000
  189.6850  176.4050  144.0900 C   0  0  2  0  0  3  0  0  0  0  0  0
  188.6660  177.3470  146.0430 O   0  0  0  0  0  0  0  0  0  0  0  0
  187.5830  176.7500  145.3700 C   0  0  2  0  0  3  0  0  0  0  0  0
  188.6830  177.4260  144.6350 C   0  0  2  0  0  3  0  0  0  0  0  0
  186.3150  177.6170  145.4830 C   0  0  1  0  0  3  0  0  0  0  0  0
  186.2400  178.5520  146.6970 C   0  0  0  0  0  1  0  0  0  0  0  0
  185.9730  178.3100  144.1610 C   0  0  2  0  0  3  0  0  0  0  0  0
  185.5550  179.7630  144.3660 C   0  0  0  0  0  1  0  0  0  0  0  0
  184.8870  177.5390  143.4220 C   0  0  0  0  0  2  0  0  0  0  0  0
  184.1400  178.4270  142.4770 C   0  0  0  0  0  3  0  0  0  0  0  0
  183.7620  178.0040  141.3950 O   0  0  0  0  0  0  0  0  0  0  0  0
  191.2240  178.4530  143.8660 C   0  0  0  0  0  1  0  0  0  0  0  0
  191.1040  176.9830  144.2380 C   0  0  1  0  0  3  0  0  0  0  0  0
  191.8550  176.5560  145.5220 C   0  0  1  0  0  3  0  0  0  0  0  0
  190.8120  175.3890  147.3660 O   0  0  0  0  0  0  0  0  0  0  0  0
  191.4320  175.2150  146.1470 C   0  0  0  0  0  3  0  0  0  0  0  0
  192.1000  175.0110  147.3350 O   0  0  0  0  0  0  0  0  0  0  0  0
  193.3730  176.7420  145.4960 C   0  0  0  0  0  2  0  0  0  0  0  0
  194.6020  176.2560  143.5470 O   0  0  0  0  0  0  0  0  0  0  0  0
  194.0480  175.8120  144.5390 C   0  0  0  0  0  3  0  0  0  0  0  0
  189.3400  175.9670  142.6420 C   0  0  1  0  0  3  0  0  0  0  0  0
  190.8390  174.1250  140.8840 C   0  0  1  0  0  3  0  0  0  0  0  0
  189.7950  172.9050  138.8960 C   0  0  0  0  0  2  0  0  0  0  0  0
  188.8810  172.5370  141.1150 O   0  0  0  0  0  0  0  0  0  0  0  0
  191.0960  173.2570  139.6360 C   0  0  2  0  0  3  0  0  0  0  0  0
  188.7900  174.5260  142.5620 C   0  0  1  0  0  3  0  0  0  0  0  0
  189.6320  173.5820  141.6960 C   0  0  2  0  0  0  0  0  0  0  0  0
  189.0250  172.4590  143.7330 O   0  0  0  0  0  1  0  0  0  0  0  0
  188.5600  172.9480  139.8090 C   0  0  0  0  0  2  0  0  0  0  0  0
  192.1080  174.3690  141.6980 C   0  0  0  0  0  1  0  0  0  0  0  0
  189.7500  173.5320  143.2120 C   0  0  2  0  0  3  0  0  0  0  0  0
  191.2120  170.8790  140.3920 O   0  0  0  0  0  1  0  0  0  0  0  0
  193.1240  171.9740  139.7690 O   0  0  0  0  0  0  0  0  0  0  0  0
  191.8760  172.0090  139.9320 C   0  0  0  0  0  0  0  0  0  0  0  0
  188.5130  176.8990  141.9630 O   0  0  0  0  0  0  0  0  0  0  0  0
  187.4890  176.2130  141.2870 C   0  0  0  0  0  2  0  0  0  0  0  0
  186.9090  177.1070  140.2110 C   0  0  0  0  0  1  0  0  0  0  0  0
  1 21  1  6  0  0  0
  1 13  1  0  0  0  0
  3  5  1  1  0  0  0
  3  2  1  0  0  0  0
  4  1  1  6  0  0  0
  4  3  1  0  0  0  0
  4  2  1  0  0  0  0
  5  6  1  1  0  0  0
  7  8  1  1  0  0  0
  7  5  1  0  0  0  0
  9  7  1  0  0  0  0
 10  9  1  0  0  0  0
 11 10  2  0  0  0  0
 13 12  1  1  0  0  0
 13 14  1  0  0  0  0
 14 18  1  6  0  0  0
 14 16  1  0  0  0  0
 16 17  1  0  0  0  0
 16 15  1  0  0  0  0
 17 15  1  0  0  0  0
 19 20  2  0  0  0  0
 20 18  1  0  0  0  0
 21 35  1  1  0  0  0
 22 27  1  0  0  0  0
 22 30  1  1  0  0  0
 23 25  1  0  0  0  0
 23 29  1  0  0  0  0
 25 34  1  1  0  0  0
 25 22  1  0  0  0  0
 26 21  1  6  0  0  0
 26 31  1  0  0  0  0
 27 24  1  6  0  0  0
 27 26  1  0  0  0  0
 27 31  1  0  0  0  0
 29 24  1  0  0  0  0
 31 28  1  1  0  0  0
 33 34  2  0  0  0  0
 34 32  1  0  0  0  0
 36 35  1  0  0  0  0
 37 36  1  0  0  0  0
M  END
>  <MODEL>
6

>  <REMARK>
 VINA RESULT:      -5.7      1.145      2.068
  Name = 
  15 active torsions:
  status: ('A' for Active; 'I' for Inactive)
    1  A    between atoms: C_1  and  C_5
    2  A    between atoms: C_1  and  C_23
    3  A    between atoms: C_5  and  C_26
    4  A    between atoms: C_8  and  C_19
    5  A    between atoms: C_9  and  C_13
    6  A    between atoms: C_9  and  C_16
    7  A    between atoms: C_9  and  C_30
    8  A    between atoms: C_10  and  C_29
    9  A    between atoms: C_11  and  C_26
   10  A    between atoms: C_13  and  C_20
   11  A    between atoms: C_16  and  C_24
   12  A    between atoms: C_20  and  C_25
   13  A    between atoms: C_20  and  C_29
   14  A    between atoms: C_27  and  O_33
   15  A    between atoms: C_29  and  O_33
                            x       y       z     vdW  Elec       q    Type
                         _______ _______ _______ _____ _____    ______ ____

>  <TORSDO>
F 15

$$$$
=
 OpenBabel11052420123D

 37 40  0  0  1  0  0  0  0  0999 V2000
  189.0190  175.5250  143.6230 C   0  0  2  0  0  3  0  0  0  0  0  0
  187.9220  174.9390  141.5750 O   0  0  0  0  0  0  0  0  0  0  0  0
  188.9870  174.0210  141.6450 C   0  0  2  0  0  3  0  0  0  0  0  0
  189.1370  175.4270  142.1000 C   0  0  2  0  0  3  0  0  0  0  0  0
  189.5970  173.7720  140.2530 C   0  0  1  0  0  3  0  0  0  0  0  0
  190.9390  173.0290  140.2240 C   0  0  0  0  0  1  0  0  0  0  0  0
  188.5690  173.2080  139.2670 C   0  0  2  0  0  3  0  0  0  0  0  0
  188.9680  171.8290  138.7500 C   0  0  0  0  0  1  0  0  0  0  0  0
  188.3570  174.1740  138.1090 C   0  0  0  0  0  2  0  0  0  0  0  0
  189.2140  173.8110  136.9380 C   0  0  0  0  0  3  0  0  0  0  0  0
  190.2670  174.3960  136.7340 O   0  0  0  0  0  0  0  0  0  0  0  0
  188.2560  177.8370  142.7970 C   0  0  0  0  0  1  0  0  0  0  0  0
  188.4260  176.8990  143.9820 C   0  0  1  0  0  3  0  0  0  0  0  0
  187.2420  176.8620  144.9790 C   0  0  1  0  0  3  0  0  0  0  0  0
  187.6880  176.0590  147.2160 O   0  0  0  0  0  0  0  0  0  0  0  0
  187.5720  177.1940  146.4440 C   0  0  0  0  0  3  0  0  0  0  0  0
  186.5530  176.7730  147.2700 O   0  0  0  0  0  0  0  0  0  0  0  0
  185.9490  177.5240  144.4990 C   0  0  0  0  0  2  0  0  0  0  0  0
  185.5960  179.8450  144.3230 O   0  0  0  0  0  0  0  0  0  0  0  0
  185.7620  178.8940  145.0680 C   0  0  0  0  0  3  0  0  0  0  0  0
  190.3660  175.2250  144.3310 C   0  0  1  0  0  3  0  0  0  0  0  0
  193.3070  175.0040  144.1510 C   0  0  1  0  0  3  0  0  0  0  0  0
  194.8800  175.4190  146.1230 C   0  0  0  0  0  2  0  0  0  0  0  0
  193.4070  177.2070  145.3930 O   0  0  0  0  0  0  0  0  0  0  0  0
  194.7530  174.9080  144.6780 C   0  0  2  0  0  3  0  0  0  0  0  0
  191.1550  176.5010  144.6970 C   0  0  1  0  0  3  0  0  0  0  0  0
  192.6730  176.3710  144.5260 C   0  0  2  0  0  0  0  0  0  0  0  0
  191.9510  178.4770  143.6190 O   0  0  0  0  0  1  0  0  0  0  0  0
  193.7760  176.4190  146.4990 C   0  0  0  0  0  2  0  0  0  0  0  0
  193.1950  174.6230  142.6760 C   0  0  0  0  0  1  0  0  0  0  0  0
  191.8470  177.0930  143.4710 C   0  0  2  0  0  3  0  0  0  0  0  0
  196.4390  174.8670  142.8340 O   0  0  0  0  0  0  0  0  0  0  0  0
  195.9770  176.8320  143.9160 O   0  0  0  0  0  1  0  0  0  0  0  0
  195.7530  175.5980  143.7960 C   0  0  0  0  0  0  0  0  0  0  0  0
  190.2290  174.3400  145.4320 O   0  0  0  0  0  0  0  0  0  0  0  0
  189.6980  173.1170  144.9870 C   0  0  0  0  0  2  0  0  0  0  0  0
  190.7940  172.2980  144.3390 C   0  0  0  0  0  1  0  0  0  0  0  0
  1 13  1  6  0  0  0
  1 21  1  0  0  0  0
  2  3  1  0  0  0  0
  2  4  1  0  0  0  0
  3  5  1  6  0  0  0
  3  4  1  0  0  0  0
  4  1  1  1  0  0  0
  5  6  1  1  0  0  0
  7  8  1  6  0  0  0
  7  5  1  0  0  0  0
  9  7  1  0  0  0  0
 10  9  1  0  0  0  0
 11 10  2  0  0  0  0
 13 12  1  6  0  0  0
 13 14  1  0  0  0  0
 14 18  1  6  0  0  0
 14 16  1  0  0  0  0
 15 17  1  0  0  0  0
 16 15  1  0  0  0  0
 16 17  1  0  0  0  0
 18 20  1  0  0  0  0
 19 20  2  0  0  0  0
 21 35  1  1  0  0  0
 22 30  1  6  0  0  0
 22 27  1  0  0  0  0
 22 25  1  0  0  0  0
 23 29  1  0  0  0  0
 24 29  1  0  0  0  0
 25 34  1  6  0  0  0
 25 23  1  0  0  0  0
 26 21  1  6  0  0  0
 27 26  1  0  0  0  0
 27 24  1  1  0  0  0
 31 28  1  1  0  0  0
 31 27  1  0  0  0  0
 31 26  1  0  0  0  0
 32 34  2  0  0  0  0
 34 33  1  0  0  0  0
 36 35  1  0  0  0  0
 37 36  1  0  0  0  0
M  END
>  <MODEL>
7

>  <REMARK>
 VINA RESULT:      -5.7      2.117      6.926
  Name = 
  15 active torsions:
  status: ('A' for Active; 'I' for Inactive)
    1  A    between atoms: C_1  and  C_5
    2  A    between atoms: C_1  and  C_23
    3  A    between atoms: C_5  and  C_26
    4  A    between atoms: C_8  and  C_19
    5  A    between atoms: C_9  and  C_13
    6  A    between atoms: C_9  and  C_16
    7  A    between atoms: C_9  and  C_30
    8  A    between atoms: C_10  and  C_29
    9  A    between atoms: C_11  and  C_26
   10  A    between atoms: C_13  and  C_20
   11  A    between atoms: C_16  and  C_24
   12  A    between atoms: C_20  and  C_25
   13  A    between atoms: C_20  and  C_29
   14  A    between atoms: C_27  and  O_33
   15  A    between atoms: C_29  and  O_33
                            x       y       z     vdW  Elec       q    Type
                         _______ _______ _______ _____ _____    ______ ____

>  <TORSDO>
F 15

$$$$
=
 OpenBabel11052420123D

 37 40  0  0  1  0  0  0  0  0999 V2000
  189.3070  174.8640  141.8100 C   0  0  2  0  0  3  0  0  0  0  0  0
  187.4240  176.2020  141.1760 O   0  0  0  0  0  0  0  0  0  0  0  0
  187.7120  176.6480  142.4800 C   0  0  2  0  0  3  0  0  0  0  0  0
  187.8460  175.2190  142.0960 C   0  0  2  0  0  3  0  0  0  0  0  0
  186.4200  176.9400  143.2650 C   0  0  1  0  0  3  0  0  0  0  0  0
  186.5070  176.7970  144.7900 C   0  0  0  0  0  1  0  0  0  0  0  0
  185.7560  178.2450  142.8150 C   0  0  2  0  0  3  0  0  0  0  0  0
  185.7900  179.3120  143.9050 C   0  0  0  0  0  1  0  0  0  0  0  0
  184.3250  177.9850  142.3640 C   0  0  0  0  0  2  0  0  0  0  0  0
  184.1510  178.2930  140.9100 C   0  0  0  0  0  3  0  0  0  0  0  0
  185.0670  178.1110  140.1230 O   0  0  0  0  0  0  0  0  0  0  0  0
  188.1600  172.5690  141.9810 C   0  0  0  0  0  1  0  0  0  0  0  0
  189.4080  173.3450  141.5870 C   0  0  1  0  0  3  0  0  0  0  0  0
  190.0640  172.9200  140.2510 C   0  0  1  0  0  3  0  0  0  0  0  0
  191.2100  170.7910  140.2020 O   0  0  0  0  0  0  0  0  0  0  0  0
  190.0180  171.4210  139.9130 C   0  0  0  0  0  3  0  0  0  0  0  0
  190.9380  171.1240  138.9300 O   0  0  0  0  0  0  0  0  0  0  0  0
  189.7480  173.8080  139.0450 C   0  0  0  0  0  2  0  0  0  0  0  0
  187.8200  174.4550  137.8590 O   0  0  0  0  0  0  0  0  0  0  0  0
  188.3670  173.5860  138.5170 C   0  0  0  0  0  3  0  0  0  0  0  0
  190.2620  175.3960  142.9110 C   0  0  1  0  0  3  0  0  0  0  0  0
  191.1630  176.3670  145.5530 C   0  0  1  0  0  3  0  0  0  0  0  0
  193.4860  175.9010  146.5120 C   0  0  0  0  0  2  0  0  0  0  0  0
  192.0460  174.0280  145.9520 O   0  0  0  0  0  0  0  0  0  0  0  0
  192.1740  176.6880  146.6720 C   0  0  2  0  0  3  0  0  0  0  0  0
  190.7040  174.3030  143.9090 C   0  0  1  0  0  3  0  0  0  0  0  0
  191.0990  174.8370  145.2900 C   0  0  2  0  0  0  0  0  0  0  0  0
  189.7160  172.8890  145.5600 O   0  0  0  0  0  1  0  0  0  0  0  0
  193.3080  174.6020  145.7120 C   0  0  0  0  0  2  0  0  0  0  0  0
  189.8110  177.0410  145.7740 C   0  0  0  0  0  1  0  0  0  0  0  0
  189.7320  174.2010  145.0830 C   0  0  2  0  0  3  0  0  0  0  0  0
  191.5630  177.5620  148.9300 O   0  0  0  0  0  1  0  0  0  0  0  0
  191.1940  175.3610  148.4190 O   0  0  0  0  0  0  0  0  0  0  0  0
  191.6160  176.4890  148.0510 C   0  0  0  0  0  0  0  0  0  0  0  0
  191.3590  176.1260  142.3880 O   0  0  0  0  0  0  0  0  0  0  0  0
  192.4090  175.2420  142.0840 C   0  0  0  0  0  2  0  0  0  0  0  0
  193.7340  175.9550  142.2540 C   0  0  0  0  0  1  0  0  0  0  0  0
  1 13  1  1  0  0  0
  1 21  1  0  0  0  0
  2  4  1  0  0  0  0
  2  3  1  0  0  0  0
  3  5  1  1  0  0  0
  4  1  1  6  0  0  0
  4  3  1  0  0  0  0
  5  6  1  1  0  0  0
  7  5  1  0  0  0  0
  7  8  1  1  0  0  0
  9  7  1  0  0  0  0
 10  9  1  0  0  0  0
 11 10  2  0  0  0  0
 13 12  1  6  0  0  0
 14 18  1  6  0  0  0
 14 13  1  0  0  0  0
 16 15  1  0  0  0  0
 16 14  1  0  0  0  0
 17 16  1  0  0  0  0
 17 15  1  0  0  0  0
 19 20  2  0  0  0  0
 20 18  1  0  0  0  0
 21 35  1  6  0  0  0
 22 30  1  1  0  0  0
 22 25  1  0  0  0  0
 23 25  1  0  0  0  0
 25 34  1  1  0  0  0
 26 21  1  6  0  0  0
 26 31  1  0  0  0  0
 26 27  1  0  0  0  0
 27 22  1  0  0  0  0
 27 24  1  1  0  0  0
 29 24  1  0  0  0  0
 29 23  1  0  0  0  0
 31 27  1  0  0  0  0
 31 28  1  1  0  0  0
 34 33  2  0  0  0  0
 34 32  1  0  0  0  0
 36 37  1  0  0  0  0
 36 35  1  0  0  0  0
M  END
>  <MODEL>
8

>  <REMARK>
 VINA RESULT:      -5.6      2.109      6.491
  Name = 
  15 active torsions:
  status: ('A' for Active; 'I' for Inactive)
    1  A    between atoms: C_1  and  C_5
    2  A    between atoms: C_1  and  C_23
    3  A    between atoms: C_5  and  C_26
    4  A    between atoms: C_8  and  C_19
    5  A    between atoms: C_9  and  C_13
    6  A    between atoms: C_9  and  C_16
    7  A    between atoms: C_9  and  C_30
    8  A    between atoms: C_10  and  C_29
    9  A    between atoms: C_11  and  C_26
   10  A    between atoms: C_13  and  C_20
   11  A    between atoms: C_16  and  C_24
   12  A    between atoms: C_20  and  C_25
   13  A    between atoms: C_20  and  C_29
   14  A    between atoms: C_27  and  O_33
   15  A    between atoms: C_29  and  O_33
                            x       y       z     vdW  Elec       q    Type
                         _______ _______ _______ _____ _____    ______ ____

>  <TORSDO>
F 15

$$$$
=
 OpenBabel11052420123D

 37 40  0  0  1  0  0  0  0  0999 V2000
  188.6570  175.8680  143.4960 C   0  0  2  0  0  3  0  0  0  0  0  0
  187.4190  175.2180  141.5500 O   0  0  0  0  0  0  0  0  0  0  0  0
  188.1790  174.0710  141.8460 C   0  0  2  0  0  3  0  0  0  0  0  0
  188.7270  175.4400  142.0280 C   0  0  2  0  0  3  0  0  0  0  0  0
  188.6790  173.3890  140.5590 C   0  0  1  0  0  3  0  0  0  0  0  0
  188.3140  174.0830  139.2400 C   0  0  0  0  0  1  0  0  0  0  0  0
  190.1580  173.0000  140.6520 C   0  0  2  0  0  3  0  0  0  0  0  0
  190.9370  173.4090  139.4050 C   0  0  0  0  0  1  0  0  0  0  0  0
  190.2990  171.5060  140.9060 C   0  0  0  0  0  2  0  0  0  0  0  0
  190.8620  171.2390  142.2670 C   0  0  0  0  0  3  0  0  0  0  0  0
  190.6260  171.9970  143.1960 O   0  0  0  0  0  0  0  0  0  0  0  0
  188.5960  178.1160  142.2500 C   0  0  0  0  0  1  0  0  0  0  0  0
  188.3450  177.3730  143.5530 C   0  0  1  0  0  3  0  0  0  0  0  0
  187.0360  177.7430  144.2910 C   0  0  1  0  0  3  0  0  0  0  0  0
  185.6500  179.6770  143.8570 O   0  0  0  0  0  0  0  0  0  0  0  0
  185.9320  178.3940  143.4410 C   0  0  0  0  0  3  0  0  0  0  0  0
  184.8320  178.6770  144.2210 O   0  0  0  0  0  0  0  0  0  0  0  0
  186.4940  176.6840  145.2530 C   0  0  0  0  0  2  0  0  0  0  0  0
  186.6890  178.2970  146.9570 O   0  0  0  0  0  0  0  0  0  0  0  0
  186.5750  177.1140  146.6830 C   0  0  0  0  0  3  0  0  0  0  0  0
  189.9340  175.4660  144.2800 C   0  0  1  0  0  3  0  0  0  0  0  0
  192.8610  175.0960  144.1240 C   0  0  1  0  0  3  0  0  0  0  0  0
  194.4250  175.3360  146.1310 C   0  0  0  0  0  2  0  0  0  0  0  0
  193.0600  177.2320  145.4690 O   0  0  0  0  0  0  0  0  0  0  0  0
  194.2930  174.8990  144.6630 C   0  0  2  0  0  3  0  0  0  0  0  0
  190.7840  176.6800  144.7140 C   0  0  1  0  0  3  0  0  0  0  0  0
  192.2950  176.4760  144.5550 C   0  0  2  0  0  0  0  0  0  0  0  0
  191.6980  178.6580  143.7390 O   0  0  0  0  0  1  0  0  0  0  0  0
  193.3710  176.3750  146.5410 C   0  0  0  0  0  2  0  0  0  0  0  0
  192.7500  174.7900  142.6320 C   0  0  0  0  0  1  0  0  0  0  0  0
  191.5240  177.2900  143.5260 C   0  0  2  0  0  3  0  0  0  0  0  0
  195.9780  174.8610  142.8190 O   0  0  0  0  0  0  0  0  0  0  0  0
  195.6450  176.7800  144.0230 O   0  0  0  0  0  1  0  0  0  0  0  0
  195.3400  175.5740  143.8250 C   0  0  0  0  0  0  0  0  0  0  0  0
  189.6680  174.5800  145.3560 O   0  0  0  0  0  0  0  0  0  0  0  0
  189.7380  175.2840  146.5720 C   0  0  0  0  0  2  0  0  0  0  0  0
  188.9440  174.5440  147.6280 C   0  0  0  0  0  1  0  0  0  0  0  0
  1 13  1  6  0  0  0
  1 21  1  0  0  0  0
  2  3  1  0  0  0  0
  2  4  1  0  0  0  0
  3  5  1  6  0  0  0
  3  4  1  0  0  0  0
  4  1  1  1  0  0  0
  5  6  1  6  0  0  0
  5  7  1  0  0  0  0
  7  8  1  6  0  0  0
  7  9  1  0  0  0  0
  9 10  1  0  0  0  0
 10 11  2  0  0  0  0
 13 12  1  6  0  0  0
 13 14  1  0  0  0  0
 14 18  1  6  0  0  0
 15 17  1  0  0  0  0
 16 15  1  0  0  0  0
 16 17  1  0  0  0  0
 16 14  1  0  0  0  0
 18 20  1  0  0  0  0
 20 19  2  0  0  0  0
 21 35  1  1  0  0  0
 22 30  1  6  0  0  0
 22 27  1  0  0  0  0
 22 25  1  0  0  0  0
 23 29  1  0  0  0  0
 24 29  1  0  0  0  0
 25 34  1  6  0  0  0
 25 23  1  0  0  0  0
 26 21  1  6  0  0  0
 27 26  1  0  0  0  0
 27 24  1  1  0  0  0
 31 28  1  1  0  0  0
 31 27  1  0  0  0  0
 31 26  1  0  0  0  0
 32 34  2  0  0  0  0
 34 33  1  0  0  0  0
 35 36  1  0  0  0  0
 36 37  1  0  0  0  0
M  END
>  <MODEL>
9

>  <REMARK>
 VINA RESULT:      -5.5      2.067      6.721
  Name = 
  15 active torsions:
  status: ('A' for Active; 'I' for Inactive)
    1  A    between atoms: C_1  and  C_5
    2  A    between atoms: C_1  and  C_23
    3  A    between atoms: C_5  and  C_26
    4  A    between atoms: C_8  and  C_19
    5  A    between atoms: C_9  and  C_13
    6  A    between atoms: C_9  and  C_16
    7  A    between atoms: C_9  and  C_30
    8  A    between atoms: C_10  and  C_29
    9  A    between atoms: C_11  and  C_26
   10  A    between atoms: C_13  and  C_20
   11  A    between atoms: C_16  and  C_24
   12  A    between atoms: C_20  and  C_25
   13  A    between atoms: C_20  and  C_29
   14  A    between atoms: C_27  and  O_33
   15  A    between atoms: C_29  and  O_33
                            x       y       z     vdW  Elec       q    Type
                         _______ _______ _______ _____ _____    ______ ____

>  <TORSDO>
F 15

$$$$
