=
 OpenBabel11052418593D

 34 39  0  0  1  0  0  0  0  0999 V2000
  194.9360  174.0400  143.2390 C   0  0  0  0  0  0  0  0  0  0  0  0
  194.8150  174.9480  145.5030 C   0  0  0  0  0  0  0  0  0  0  0  0
  192.8620  175.0350  144.0500 C   0  0  0  0  0  0  0  0  0  0  0  0
  190.8470  176.2910  144.8240 N   0  0  0  0  0  0  0  0  0  0  0  0
  196.8520  173.8960  144.7130 C   0  0  0  0  0  3  0  0  0  0  0  0
  196.1410  174.5620  145.7190 C   0  0  0  0  0  3  0  0  0  0  0  0
  192.8140  176.0760  146.3410 C   0  0  0  0  0  3  0  0  0  0  0  0
  194.1980  174.6590  144.2710 C   0  0  0  0  0  0  0  0  0  0  0  0
  188.6840  177.3770  145.3760 N   0  0  0  0  0  2  0  0  0  0  0  0
  189.9360  176.2500  146.9830 O   0  0  0  0  0  0  0  0  0  0  0  0
  196.2550  173.6440  143.4730 C   0  0  0  0  0  3  0  0  0  0  0  0
  192.3000  174.8910  142.7730 C   0  0  0  0  0  0  0  0  0  0  0  0
  194.3500  173.8530  141.9830 C   0  0  0  0  0  3  0  0  0  0  0  0
  194.1080  175.7760  146.4980 C   0  0  0  0  0  3  0  0  0  0  0  0
  190.5990  176.6070  143.4130 C   0  0  0  0  0  2  0  0  0  0  0  0
  190.9220  175.4150  142.5000 C   0  0  2  0  0  3  0  0  0  0  0  0
  189.8320  176.6310  145.7850 C   0  0  0  0  0  0  0  0  0  0  0  0
  192.0050  175.4700  145.2200 C   0  0  2  0  0  3  0  0  0  0  0  0
  193.0420  174.2920  141.7460 C   0  0  0  0  0  3  0  0  0  0  0  0
  188.4770  174.8280  142.4920 C   0  0  0  0  0  2  0  0  0  0  0  0
  188.3860  173.0130  141.0270 C   0  0  0  0  0  1  0  0  0  0  0  0
  189.8460  174.3230  142.5210 C   0  0  1  0  0  0  0  0  0  0  0  0
  189.0670  174.2830  141.2550 N   0  0  0  0  0  0  0  0  0  0  0  0
  190.0800  173.0080  143.2420 C   0  0  0  0  0  0  0  0  0  0  0  0
  189.7170  172.8560  144.5150 C   0  0  0  0  0  2  0  0  0  0  0  0
  190.9720  171.6770  142.4340 S   0  0  0  0  0  1  0  0  0  0  0  0
  187.5970  177.6910  146.2890 C   0  0  0  0  0  2  0  0  0  0  0  0
  185.0370  178.3830  147.6290 C   0  0  0  0  0  1  0  0  0  0  0  0
  186.4250  178.2000  145.5190 C   0  0  0  0  0  0  0  0  0  0  0  0
  185.2070  178.5170  146.1530 C   0  0  0  0  0  0  0  0  0  0  0  0
  184.2450  179.1000  144.0040 C   0  0  0  0  0  3  0  0  0  0  0  0
  185.4500  178.7790  143.3740 C   0  0  0  0  0  3  0  0  0  0  0  0
  186.5350  178.3280  144.1300 C   0  0  0  0  0  3  0  0  0  0  0  0
  184.1250  178.9680  145.3900 C   0  0  0  0  0  3  0  0  0  0  0  0
  1 11  2  0  0  0  0
  1  8  1  0  0  0  0
  2  6  1  0  0  0  0
  2 14  1  0  0  0  0
  3  8  1  0  0  0  0
  3 18  1  0  0  0  0
  4 18  1  0  0  0  0
  4 17  1  0  0  0  0
  5  6  2  0  0  0  0
  7 14  2  0  0  0  0
  8  2  2  0  0  0  0
  9 17  1  0  0  0  0
  9 27  1  0  0  0  0
 11  5  1  0  0  0  0
 12  3  2  0  0  0  0
 13  1  1  0  0  0  0
 15  4  1  0  0  0  0
 16 22  1  0  0  0  0
 16 12  1  0  0  0  0
 16 15  1  1  0  0  0
 17 10  2  0  0  0  0
 18  7  1  1  0  0  0
 19 13  2  0  0  0  0
 19 12  1  0  0  0  0
 20 22  1  0  0  0  0
 21 23  1  0  0  0  0
 22 24  1  1  0  0  0
 23 20  1  0  0  0  0
 23 22  1  0  0  0  0
 24 25  2  0  0  0  0
 26 24  1  0  0  0  0
 29 30  1  0  0  0  0
 29 27  1  0  0  0  0
 30 28  1  0  0  0  0
 31 34  1  0  0  0  0
 32 31  2  0  0  0  0
 32 33  1  0  0  0  0
 33 29  2  0  0  0  0
 34 30  2  0  0  0  0
M  END
>  <MODEL>
1

>  <REMARK>
 VINA RESULT:      -8.6      0.000      0.000
  Name = 
  4 active torsions:
  status: ('A' for Active; 'I' for Inactive)
    1  A    between atoms: C_3  and  C_13
    2  A    between atoms: C_3  and  N_17
    3  A    between atoms: C_7  and  C_23
    4  A    between atoms: C_23  and  C_28
                            x       y       z     vdW  Elec       q    Type
                         _______ _______ _______ _____ _____    ______ ____

>  <TORSDO>
F 4

$$$$
=
 OpenBabel11052418593D

 34 39  0  0  1  0  0  0  0  0999 V2000
  193.0820  170.7180  143.8080 C   0  0  0  0  0  0  0  0  0  0  0  0
  191.0180  170.8620  142.5110 C   0  0  0  0  0  0  0  0  0  0  0  0
  191.6760  172.7040  143.9620 C   0  0  0  0  0  0  0  0  0  0  0  0
  190.0830  174.6000  144.2890 N   0  0  0  0  0  0  0  0  0  0  0  0
  192.4560  168.9190  142.3120 C   0  0  0  0  0  3  0  0  0  0  0  0
  191.2860  169.6040  141.9620 C   0  0  0  0  0  3  0  0  0  0  0  0
  189.4920  172.7620  142.7120 C   0  0  0  0  0  3  0  0  0  0  0  0
  191.9330  171.4370  143.4130 C   0  0  0  0  0  0  0  0  0  0  0  0
  188.7490  176.6500  144.7160 N   0  0  0  0  0  2  0  0  0  0  0  0
  188.7990  175.6320  142.6220 O   0  0  0  0  0  0  0  0  0  0  0  0
  193.3480  169.4700  143.2390 C   0  0  0  0  0  3  0  0  0  0  0  0
  192.5040  173.2050  144.9770 C   0  0  0  0  0  0  0  0  0  0  0  0
  193.9320  171.2480  144.7840 C   0  0  0  0  0  3  0  0  0  0  0  0
  189.7230  171.5230  142.2630 C   0  0  0  0  0  3  0  0  0  0  0  0
  190.6370  174.7280  145.6420 C   0  0  0  0  0  2  0  0  0  0  0  0
  192.1540  174.4940  145.6580 C   0  0  2  0  0  3  0  0  0  0  0  0
  189.1850  175.6220  143.8230 C   0  0  0  0  0  0  0  0  0  0  0  0
  190.5880  173.5710  143.3630 C   0  0  2  0  0  3  0  0  0  0  0  0
  193.6340  172.4810  145.3790 C   0  0  0  0  0  3  0  0  0  0  0  0
  192.4450  176.9900  145.5550 C   0  0  0  0  0  2  0  0  0  0  0  0
  194.7530  177.2510  145.7880 C   0  0  0  0  0  1  0  0  0  0  0  0
  192.9590  175.6900  145.1360 C   0  0  1  0  0  0  0  0  0  0  0  0
  193.6310  176.4340  146.2350 N   0  0  0  0  0  0  0  0  0  0  0  0
  193.6690  175.6300  143.7950 C   0  0  0  0  0  0  0  0  0  0  0  0
  193.0730  176.0760  142.6900 C   0  0  0  0  0  2  0  0  0  0  0  0
  195.2710  174.8350  143.6520 S   0  0  0  0  0  1  0  0  0  0  0  0
  187.8940  177.7430  144.2810 C   0  0  0  0  0  2  0  0  0  0  0  0
  185.6100  179.5550  143.7130 C   0  0  0  0  0  1  0  0  0  0  0  0
  186.7840  177.9320  145.2610 C   0  0  0  0  0  0  0  0  0  0  0  0
  185.7070  178.8010  144.9960 C   0  0  0  0  0  0  0  0  0  0  0  0
  184.7610  178.2840  147.1690 C   0  0  0  0  0  3  0  0  0  0  0  0
  185.8330  177.4280  147.4340 C   0  0  0  0  0  3  0  0  0  0  0  0
  186.8420  177.2550  146.4840 C   0  0  0  0  0  3  0  0  0  0  0  0
  184.7000  178.9690  145.9520 C   0  0  0  0  0  3  0  0  0  0  0  0
  1 13  1  0  0  0  0
  2  8  1  0  0  0  0
  3 12  2  0  0  0  0
  4 15  1  0  0  0  0
  5 11  2  0  0  0  0
  6  5  1  0  0  0  0
  6  2  2  0  0  0  0
  8  1  2  0  0  0  0
  8  3  1  0  0  0  0
 10 17  2  0  0  0  0
 11  1  1  0  0  0  0
 12 19  1  0  0  0  0
 12 16  1  0  0  0  0
 13 19  2  0  0  0  0
 14  2  1  0  0  0  0
 14  7  2  0  0  0  0
 16 15  1  6  0  0  0
 17  4  1  0  0  0  0
 17  9  1  0  0  0  0
 18  7  1  1  0  0  0
 18  3  1  0  0  0  0
 18  4  1  0  0  0  0
 20 23  1  0  0  0  0
 21 23  1  0  0  0  0
 22 24  1  6  0  0  0
 22 20  1  0  0  0  0
 22 16  1  0  0  0  0
 22 23  1  0  0  0  0
 25 24  2  0  0  0  0
 26 24  1  0  0  0  0
 27  9  1  0  0  0  0
 27 29  1  0  0  0  0
 28 30  1  0  0  0  0
 29 33  1  0  0  0  0
 30 29  2  0  0  0  0
 30 34  1  0  0  0  0
 31 32  1  0  0  0  0
 33 32  2  0  0  0  0
 34 31  2  0  0  0  0
M  END
>  <MODEL>
2

>  <REMARK>
 VINA RESULT:      -8.2      2.448      4.605
  Name = 
  4 active torsions:
  status: ('A' for Active; 'I' for Inactive)
    1  A    between atoms: C_3  and  C_13
    2  A    between atoms: C_3  and  N_17
    3  A    between atoms: C_7  and  C_23
    4  A    between atoms: C_23  and  C_28
                            x       y       z     vdW  Elec       q    Type
                         _______ _______ _______ _____ _____    ______ ____

>  <TORSDO>
F 4

$$$$
=
 OpenBabel11052418593D

 34 39  0  0  1  0  0  0  0  0999 V2000
  192.4640  170.7020  142.4390 C   0  0  0  0  0  0  0  0  0  0  0  0
  190.6570  171.4440  140.9740 C   0  0  0  0  0  0  0  0  0  0  0  0
  191.2010  172.7170  142.9780 C   0  0  0  0  0  0  0  0  0  0  0  0
  189.7210  174.6210  143.6280 N   0  0  0  0  0  0  0  0  0  0  0  0
  191.9610  169.4790  140.4090 C   0  0  0  0  0  3  0  0  0  0  0  0
  190.9180  170.3670  140.1220 C   0  0  0  0  0  3  0  0  0  0  0  0
  189.2630  173.3790  141.5150 C   0  0  0  0  0  3  0  0  0  0  0  0
  191.4510  171.6320  142.1210 C   0  0  0  0  0  0  0  0  0  0  0  0
  188.4890  176.6120  144.4530 N   0  0  0  0  0  2  0  0  0  0  0  0
  188.8070  176.2210  142.1790 O   0  0  0  0  0  0  0  0  0  0  0  0
  192.7270  169.6400  141.5700 C   0  0  0  0  0  3  0  0  0  0  0  0
  191.8860  172.8130  144.1980 C   0  0  0  0  0  0  0  0  0  0  0  0
  193.1780  170.8350  143.6340 C   0  0  0  0  0  3  0  0  0  0  0  0
  189.4720  172.2960  140.7580 C   0  0  0  0  0  3  0  0  0  0  0  0
  190.0530  174.2990  145.0200 C   0  0  0  0  0  2  0  0  0  0  0  0
  191.5260  173.8940  145.1730 C   0  0  2  0  0  3  0  0  0  0  0  0
  188.9880  175.8310  143.3660 C   0  0  0  0  0  0  0  0  0  0  0  0
  190.2930  173.8390  142.5180 C   0  0  2  0  0  3  0  0  0  0  0  0
  192.8790  171.8780  144.5180 C   0  0  0  0  0  3  0  0  0  0  0  0
  192.1380  176.1690  146.0500 C   0  0  0  0  0  2  0  0  0  0  0  0
  194.4540  176.0190  146.3030 C   0  0  0  0  0  1  0  0  0  0  0  0
  192.4910  175.0840  145.1410 C   0  0  1  0  0  0  0  0  0  0  0  0
  193.2240  175.2440  146.4240 N   0  0  0  0  0  0  0  0  0  0  0  0
  193.2210  175.4630  143.8650 C   0  0  0  0  0  0  0  0  0  0  0  0
  192.7370  176.4090  143.0600 C   0  0  0  0  0  2  0  0  0  0  0  0
  194.6780  174.5530  143.3480 S   0  0  0  0  0  1  0  0  0  0  0  0
  187.8000  177.8750  144.2470 C   0  0  0  0  0  2  0  0  0  0  0  0
  185.5340  179.7380  143.7720 C   0  0  0  0  0  1  0  0  0  0  0  0
  186.6710  177.9960  145.2150 C   0  0  0  0  0  0  0  0  0  0  0  0
  185.6020  178.8880  144.9950 C   0  0  0  0  0  0  0  0  0  0  0  0
  184.6090  178.2100  147.1020 C   0  0  0  0  0  3  0  0  0  0  0  0
  185.6720  177.3310  147.3240 C   0  0  0  0  0  3  0  0  0  0  0  0
  186.7010  177.2270  146.3840 C   0  0  0  0  0  3  0  0  0  0  0  0
  184.5760  178.9870  145.9410 C   0  0  0  0  0  3  0  0  0  0  0  0
  1 13  1  0  0  0  0
  2  8  1  0  0  0  0
  3 12  2  0  0  0  0
  4 15  1  0  0  0  0
  5 11  2  0  0  0  0
  6  5  1  0  0  0  0
  6  2  2  0  0  0  0
  8  1  2  0  0  0  0
  8  3  1  0  0  0  0
 10 17  2  0  0  0  0
 11  1  1  0  0  0  0
 12 19  1  0  0  0  0
 12 16  1  0  0  0  0
 13 19  2  0  0  0  0
 14  2  1  0  0  0  0
 14  7  2  0  0  0  0
 16 15  1  6  0  0  0
 17  4  1  0  0  0  0
 17  9  1  0  0  0  0
 18  7  1  1  0  0  0
 18  3  1  0  0  0  0
 18  4  1  0  0  0  0
 20 23  1  0  0  0  0
 21 23  1  0  0  0  0
 22 24  1  6  0  0  0
 22 16  1  0  0  0  0
 22 20  1  0  0  0  0
 22 23  1  0  0  0  0
 25 24  2  0  0  0  0
 26 24  1  0  0  0  0
 27  9  1  0  0  0  0
 27 29  1  0  0  0  0
 28 30  1  0  0  0  0
 29 33  1  0  0  0  0
 30 29  2  0  0  0  0
 30 34  1  0  0  0  0
 31 32  1  0  0  0  0
 33 32  2  0  0  0  0
 34 31  2  0  0  0  0
M  END
>  <MODEL>
3

>  <REMARK>
 VINA RESULT:      -8.0      2.411      4.738
  Name = 
  4 active torsions:
  status: ('A' for Active; 'I' for Inactive)
    1  A    between atoms: C_3  and  C_13
    2  A    between atoms: C_3  and  N_17
    3  A    between atoms: C_7  and  C_23
    4  A    between atoms: C_23  and  C_28
                            x       y       z     vdW  Elec       q    Type
                         _______ _______ _______ _____ _____    ______ ____

>  <TORSDO>
F 4

$$$$
=
 OpenBabel11052418593D

 34 39  0  0  1  0  0  0  0  0999 V2000
  190.5390  170.9440  139.1160 C   0  0  0  0  0  0  0  0  0  0  0  0
  189.3230  172.6450  137.8550 C   0  0  0  0  0  0  0  0  0  0  0  0
  189.4520  172.7890  140.2830 C   0  0  0  0  0  0  0  0  0  0  0  0
  188.1110  174.5410  141.4540 N   0  0  0  0  0  0  0  0  0  0  0  0
  190.4630  170.8460  136.6970 C   0  0  0  0  0  3  0  0  0  0  0  0
  189.6660  171.9960  136.6660 C   0  0  0  0  0  3  0  0  0  0  0  0
  188.0990  174.4500  138.9620 C   0  0  0  0  0  3  0  0  0  0  0  0
  189.7850  172.1370  139.0840 C   0  0  0  0  0  0  0  0  0  0  0  0
  186.9700  176.2370  142.8630 N   0  0  0  0  0  2  0  0  0  0  0  0
  187.8530  176.7690  140.7740 O   0  0  0  0  0  0  0  0  0  0  0  0
  190.8910  170.3150  137.9190 C   0  0  0  0  0  3  0  0  0  0  0  0
  189.7780  172.1960  141.5120 C   0  0  0  0  0  0  0  0  0  0  0  0
  190.9050  170.3870  140.3450 C   0  0  0  0  0  3  0  0  0  0  0  0
  188.3670  173.7690  137.8420 C   0  0  0  0  0  3  0  0  0  0  0  0
  187.9990  173.5960  142.5700 C   0  0  0  0  0  2  0  0  0  0  0  0
  189.3050  172.8200  142.7910 C   0  0  2  0  0  3  0  0  0  0  0  0
  187.6450  175.8870  141.6530 C   0  0  0  0  0  0  0  0  0  0  0  0
  188.8620  174.1830  140.2370 C   0  0  2  0  0  3  0  0  0  0  0  0
  190.5110  171.0030  141.5400 C   0  0  0  0  0  3  0  0  0  0  0  0
  190.0670  174.0020  144.8750 C   0  0  0  0  0  2  0  0  0  0  0  0
  192.3210  173.4060  145.0130 C   0  0  0  0  0  1  0  0  0  0  0  0
  190.3890  173.6420  143.4980 C   0  0  1  0  0  0  0  0  0  0  0  0
  191.0100  172.8950  144.6240 N   0  0  0  0  0  0  0  0  0  0  0  0
  191.2730  174.6030  142.7230 C   0  0  0  0  0  0  0  0  0  0  0  0
  191.0480  175.9160  142.7630 C   0  0  0  0  0  2  0  0  0  0  0  0
  192.5530  173.9790  141.6320 S   0  0  0  0  0  1  0  0  0  0  0  0
  186.5370  177.5960  143.1440 C   0  0  0  0  0  2  0  0  0  0  0  0
  185.1900  179.9950  144.2650 C   0  0  0  0  0  1  0  0  0  0  0  0
  186.3390  177.7660  144.6130 C   0  0  0  0  0  0  0  0  0  0  0  0
  185.7100  178.9100  145.1450 C   0  0  0  0  0  0  0  0  0  0  0  0
  186.0480  178.0470  147.3870 C   0  0  0  0  0  3  0  0  0  0  0  0
  186.6780  176.9170  146.8600 C   0  0  0  0  0  3  0  0  0  0  0  0
  186.8250  176.7790  145.4770 C   0  0  0  0  0  3  0  0  0  0  0  0
  185.5670  179.0410  146.5300 C   0  0  0  0  0  3  0  0  0  0  0  0
  1 13  1  0  0  0  0
  2  8  1  0  0  0  0
  3 12  2  0  0  0  0
  4 17  1  0  0  0  0
  4 15  1  0  0  0  0
  5 11  2  0  0  0  0
  6  5  1  0  0  0  0
  6  2  2  0  0  0  0
  8  1  2  0  0  0  0
  8  3  1  0  0  0  0
  9 27  1  0  0  0  0
 10 17  2  0  0  0  0
 11  1  1  0  0  0  0
 12 19  1  0  0  0  0
 12 16  1  0  0  0  0
 13 19  2  0  0  0  0
 14  2  1  0  0  0  0
 14  7  2  0  0  0  0
 16 15  1  6  0  0  0
 16 22  1  0  0  0  0
 17  9  1  0  0  0  0
 18  7  1  6  0  0  0
 18  3  1  0  0  0  0
 18  4  1  0  0  0  0
 22 24  1  6  0  0  0
 22 23  1  0  0  0  0
 22 20  1  0  0  0  0
 23 20  1  0  0  0  0
 23 21  1  0  0  0  0
 24 25  2  0  0  0  0
 26 24  1  0  0  0  0
 27 29  1  0  0  0  0
 28 30  1  0  0  0  0
 29 30  2  0  0  0  0
 29 33  1  0  0  0  0
 30 34  1  0  0  0  0
 32 31  1  0  0  0  0
 33 32  2  0  0  0  0
 34 31  2  0  0  0  0
M  END
>  <MODEL>
4

>  <REMARK>
 VINA RESULT:      -8.0      2.686      5.698
  Name = 
  4 active torsions:
  status: ('A' for Active; 'I' for Inactive)
    1  A    between atoms: C_3  and  C_13
    2  A    between atoms: C_3  and  N_17
    3  A    between atoms: C_7  and  C_23
    4  A    between atoms: C_23  and  C_28
                            x       y       z     vdW  Elec       q    Type
                         _______ _______ _______ _____ _____    ______ ____

>  <TORSDO>
F 4

$$$$
=
 OpenBabel11052418593D

 34 39  0  0  1  0  0  0  0  0999 V2000
  194.3020  172.6290  143.2330 C   0  0  0  0  0  0  0  0  0  0  0  0
  193.0980  173.0690  141.1550 C   0  0  0  0  0  0  0  0  0  0  0  0
  192.1390  173.7530  143.2870 C   0  0  0  0  0  0  0  0  0  0  0  0
  189.8130  174.6630  143.3190 N   0  0  0  0  0  0  0  0  0  0  0  0
  195.2800  172.0130  141.1040 C   0  0  0  0  0  3  0  0  0  0  0  0
  194.1480  172.4930  140.4350 C   0  0  0  0  0  3  0  0  0  0  0  0
  190.8680  174.0730  141.1380 C   0  0  0  0  0  3  0  0  0  0  0  0
  193.1860  173.1670  142.5560 C   0  0  0  0  0  0  0  0  0  0  0  0
  187.5730  175.6860  143.6340 N   0  0  0  0  0  2  0  0  0  0  0  0
  188.8990  176.1780  141.7830 O   0  0  0  0  0  0  0  0  0  0  0  0
  195.3540  172.0720  142.5000 C   0  0  0  0  0  3  0  0  0  0  0  0
  192.1560  173.7060  144.6890 C   0  0  0  0  0  0  0  0  0  0  0  0
  194.3360  172.6340  144.6310 C   0  0  0  0  0  3  0  0  0  0  0  0
  191.8430  173.4430  140.4740 C   0  0  0  0  0  3  0  0  0  0  0  0
  189.6830  174.0660  144.6530 C   0  0  0  0  0  2  0  0  0  0  0  0
  190.9780  174.2090  145.4670 C   0  0  2  0  0  3  0  0  0  0  0  0
  188.7630  175.5310  142.8580 C   0  0  0  0  0  0  0  0  0  0  0  0
  191.0700  174.5410  142.5590 C   0  0  2  0  0  3  0  0  0  0  0  0
  193.2580  173.1560  145.3570 C   0  0  0  0  0  3  0  0  0  0  0  0
  189.9730  176.2420  146.5550 C   0  0  0  0  0  2  0  0  0  0  0  0
  191.5720  176.8130  148.1580 C   0  0  0  0  0  1  0  0  0  0  0  0
  191.1860  175.6180  146.0360 C   0  0  1  0  0  0  0  0  0  0  0  0
  190.9470  175.6690  147.5030 N   0  0  0  0  0  0  0  0  0  0  0  0
  192.2470  176.5420  145.4660 C   0  0  0  0  0  0  0  0  0  0  0  0
  191.9640  177.3590  144.4520 C   0  0  0  0  0  2  0  0  0  0  0  0
  193.9380  176.4560  146.0590 S   0  0  0  0  0  1  0  0  0  0  0  0
  186.5100  176.6000  143.2480 C   0  0  0  0  0  2  0  0  0  0  0  0
  184.1950  178.4540  143.0730 C   0  0  0  0  0  1  0  0  0  0  0  0
  185.8780  177.1790  144.4700 C   0  0  0  0  0  0  0  0  0  0  0  0
  184.7880  178.0670  144.3850 C   0  0  0  0  0  0  0  0  0  0  0  0
  184.7730  178.2720  146.8020 C   0  0  0  0  0  3  0  0  0  0  0  0
  185.8590  177.3970  146.8860 C   0  0  0  0  0  3  0  0  0  0  0  0
  186.4110  176.8550  145.7220 C   0  0  0  0  0  3  0  0  0  0  0  0
  184.2400  178.6070  145.5540 C   0  0  0  0  0  3  0  0  0  0  0  0
  1 13  1  0  0  0  0
  2  8  1  0  0  0  0
  3 12  2  0  0  0  0
  4 15  1  0  0  0  0
  5 11  2  0  0  0  0
  6  5  1  0  0  0  0
  6  2  2  0  0  0  0
  8  1  2  0  0  0  0
  8  3  1  0  0  0  0
 10 17  2  0  0  0  0
 11  1  1  0  0  0  0
 12 19  1  0  0  0  0
 12 16  1  0  0  0  0
 13 19  2  0  0  0  0
 14  7  2  0  0  0  0
 14  2  1  0  0  0  0
 16 15  1  6  0  0  0
 16 22  1  0  0  0  0
 17  4  1  0  0  0  0
 17  9  1  0  0  0  0
 18  7  1  6  0  0  0
 18  3  1  0  0  0  0
 18  4  1  0  0  0  0
 20 23  1  0  0  0  0
 22 24  1  6  0  0  0
 22 20  1  0  0  0  0
 22 23  1  0  0  0  0
 23 21  1  0  0  0  0
 24 26  1  0  0  0  0
 25 24  2  0  0  0  0
 27  9  1  0  0  0  0
 27 29  1  0  0  0  0
 28 30  1  0  0  0  0
 29 33  1  0  0  0  0
 30 29  2  0  0  0  0
 30 34  1  0  0  0  0
 31 32  1  0  0  0  0
 33 32  2  0  0  0  0
 34 31  2  0  0  0  0
M  END
>  <MODEL>
5

>  <REMARK>
 VINA RESULT:      -7.8      2.234      4.207
  Name = 
  4 active torsions:
  status: ('A' for Active; 'I' for Inactive)
    1  A    between atoms: C_3  and  C_13
    2  A    between atoms: C_3  and  N_17
    3  A    between atoms: C_7  and  C_23
    4  A    between atoms: C_23  and  C_28
                            x       y       z     vdW  Elec       q    Type
                         _______ _______ _______ _____ _____    ______ ____

>  <TORSDO>
F 4

$$$$
=
 OpenBabel11052418593D

 34 39  0  0  1  0  0  0  0  0999 V2000
  186.1970  177.9760  144.9160 C   0  0  0  0  0  0  0  0  0  0  0  0
  186.4440  177.2680  142.5920 C   0  0  0  0  0  0  0  0  0  0  0  0
  188.3520  177.1750  144.1030 C   0  0  0  0  0  0  0  0  0  0  0  0
  190.5950  176.5970  143.1680 N   0  0  0  0  0  0  0  0  0  0  0  0
  184.2880  178.0020  143.4250 C   0  0  0  0  0  3  0  0  0  0  0  0
  185.0910  177.5410  142.3740 C   0  0  0  0  0  3  0  0  0  0  0  0
  188.6010  176.5770  141.6710 C   0  0  0  0  0  3  0  0  0  0  0  0
  186.9950  177.4550  143.8740 C   0  0  0  0  0  0  0  0  0  0  0  0
  192.9090  175.9570  142.5350 N   0  0  0  0  0  2  0  0  0  0  0  0
  191.0470  174.9220  141.5920 O   0  0  0  0  0  0  0  0  0  0  0  0
  184.8410  178.2280  144.6910 C   0  0  0  0  0  3  0  0  0  0  0  0
  188.9350  177.5110  145.3340 C   0  0  0  0  0  0  0  0  0  0  0  0
  186.7750  178.2600  146.1570 C   0  0  0  0  0  3  0  0  0  0  0  0
  187.3270  176.9230  141.4610 C   0  0  0  0  0  3  0  0  0  0  0  0
  191.1620  177.4710  144.2010 C   0  0  0  0  0  2  0  0  0  0  0  0
  190.4110  177.3370  145.5330 C   0  0  2  0  0  3  0  0  0  0  0  0
  191.4970  175.7920  142.3880 C   0  0  0  0  0  0  0  0  0  0  0  0
  189.1390  176.3950  143.0700 C   0  0  2  0  0  3  0  0  0  0  0  0
  188.1440  178.0430  146.3600 C   0  0  0  0  0  3  0  0  0  0  0  0
  192.2000  175.7820  146.3710 C   0  0  0  0  0  2  0  0  0  0  0  0
  191.4840  175.2910  148.5380 C   0  0  0  0  0  1  0  0  0  0  0  0
  190.7690  176.0650  146.3090 C   0  0  1  0  0  0  0  0  0  0  0  0
  191.5310  176.3630  147.5500 N   0  0  0  0  0  0  0  0  0  0  0  0
  189.8300  174.8730  146.3330 C   0  0  0  0  0  0  0  0  0  0  0  0
  188.8790  174.7750  147.2630 C   0  0  0  0  0  2  0  0  0  0  0  0
  190.0660  173.5070  145.1950 S   0  0  0  0  0  1  0  0  0  0  0  0
  193.8640  175.1260  141.8210 C   0  0  0  0  0  2  0  0  0  0  0  0
  196.2950  176.7690  141.3510 C   0  0  0  0  0  1  0  0  0  0  0  0
  195.0960  174.9540  142.6460 C   0  0  0  0  0  0  0  0  0  0  0  0
  196.2520  175.7250  142.4150 C   0  0  0  0  0  0  0  0  0  0  0  0
  197.3930  174.5410  144.1990 C   0  0  0  0  0  3  0  0  0  0  0  0
  196.2490  173.7710  144.4230 C   0  0  0  0  0  3  0  0  0  0  0  0
  195.1050  173.9760  143.6470 C   0  0  0  0  0  3  0  0  0  0  0  0
  197.3930  175.5150  143.1960 C   0  0  0  0  0  3  0  0  0  0  0  0
  1 13  1  0  0  0  0
  2  8  1  0  0  0  0
  3 12  2  0  0  0  0
  4 15  1  0  0  0  0
  5 11  2  0  0  0  0
  6  2  2  0  0  0  0
  6  5  1  0  0  0  0
  8  3  1  0  0  0  0
  8  1  2  0  0  0  0
 10 17  2  0  0  0  0
 11  1  1  0  0  0  0
 12 16  1  0  0  0  0
 12 19  1  0  0  0  0
 13 19  2  0  0  0  0
 14  7  2  0  0  0  0
 14  2  1  0  0  0  0
 16 15  1  6  0  0  0
 16 22  1  0  0  0  0
 17  9  1  0  0  0  0
 17  4  1  0  0  0  0
 18  7  1  6  0  0  0
 18  4  1  0  0  0  0
 18  3  1  0  0  0  0
 20 23  1  0  0  0  0
 22 24  1  6  0  0  0
 22 20  1  0  0  0  0
 22 23  1  0  0  0  0
 23 21  1  0  0  0  0
 24 25  2  0  0  0  0
 26 24  1  0  0  0  0
 27  9  1  0  0  0  0
 27 29  1  0  0  0  0
 28 30  1  0  0  0  0
 29 33  1  0  0  0  0
 30 29  2  0  0  0  0
 30 34  1  0  0  0  0
 31 32  1  0  0  0  0
 33 32  2  0  0  0  0
 34 31  2  0  0  0  0
M  END
>  <MODEL>
6

>  <REMARK>
 VINA RESULT:      -7.8      2.097      8.458
  Name = 
  4 active torsions:
  status: ('A' for Active; 'I' for Inactive)
    1  A    between atoms: C_3  and  C_13
    2  A    between atoms: C_3  and  N_17
    3  A    between atoms: C_7  and  C_23
    4  A    between atoms: C_23  and  C_28
                            x       y       z     vdW  Elec       q    Type
                         _______ _______ _______ _____ _____    ______ ____

>  <TORSDO>
F 4

$$$$
=
 OpenBabel11052418593D

 34 39  0  0  1  0  0  0  0  0999 V2000
  187.0660  178.2160  146.8990 C   0  0  0  0  0  0  0  0  0  0  0  0
  185.4990  177.4640  145.1840 C   0  0  0  0  0  0  0  0  0  0  0  0
  187.8740  176.9720  144.9630 C   0  0  0  0  0  0  0  0  0  0  0  0
  188.6910  175.9270  142.8470 N   0  0  0  0  0  0  0  0  0  0  0  0
  184.6940  178.6420  147.1450 C   0  0  0  0  0  3  0  0  0  0  0  0
  184.4450  178.0170  145.9170 C   0  0  0  0  0  3  0  0  0  0  0  0
  186.2480  176.3260  143.1530 C   0  0  0  0  0  3  0  0  0  0  0  0
  186.8100  177.5340  145.6900 C   0  0  0  0  0  0  0  0  0  0  0  0
  189.7600  174.8080  140.9060 N   0  0  0  0  0  2  0  0  0  0  0  0
  187.6480  174.1900  141.6700 O   0  0  0  0  0  0  0  0  0  0  0  0
  186.0020  178.7490  147.6310 C   0  0  0  0  0  3  0  0  0  0  0  0
  189.1950  177.1810  145.3880 C   0  0  0  0  0  0  0  0  0  0  0  0
  188.3830  178.3750  147.3420 C   0  0  0  0  0  3  0  0  0  0  0  0
  185.2660  176.9350  143.8260 C   0  0  0  0  0  3  0  0  0  0  0  0
  189.9410  176.6640  143.0590 C   0  0  0  0  0  2  0  0  0  0  0  0
  190.3350  176.6980  144.5430 C   0  0  2  0  0  3  0  0  0  0  0  0
  188.6500  174.9470  141.7950 C   0  0  0  0  0  0  0  0  0  0  0  0
  187.5790  176.0390  143.8070 C   0  0  2  0  0  3  0  0  0  0  0  0
  189.4450  177.8730  146.5800 C   0  0  0  0  0  3  0  0  0  0  0  0
  192.1170  174.9410  144.2990 C   0  0  0  0  0  2  0  0  0  0  0  0
  192.7110  174.4960  146.5130 C   0  0  0  0  0  1  0  0  0  0  0  0
  190.9400  175.3810  145.0420 C   0  0  1  0  0  0  0  0  0  0  0  0
  192.2970  175.5730  145.6200 N   0  0  0  0  0  0  0  0  0  0  0  0
  190.0660  174.3000  145.6520 C   0  0  0  0  0  0  0  0  0  0  0  0
  189.7620  173.2010  144.9600 C   0  0  0  0  0  2  0  0  0  0  0  0
  189.3160  174.5410  147.2630 S   0  0  0  0  0  1  0  0  0  0  0  0
  189.7990  173.7900  139.8680 C   0  0  0  0  0  2  0  0  0  0  0  0
  189.6810  171.1940  138.4280 C   0  0  0  0  0  1  0  0  0  0  0  0
  190.5100  172.5810  140.3770 C   0  0  0  0  0  0  0  0  0  0  0  0
  190.4440  171.3470  139.7000 C   0  0  0  0  0  0  0  0  0  0  0  0
  191.8260  170.3360  141.4180 C   0  0  0  0  0  3  0  0  0  0  0  0
  191.8860  171.5580  142.0930 C   0  0  0  0  0  3  0  0  0  0  0  0
  191.2270  172.6750  141.5750 C   0  0  0  0  0  3  0  0  0  0  0  0
  191.1060  170.2320  140.2250 C   0  0  0  0  0  3  0  0  0  0  0  0
  1 13  1  0  0  0  0
  1 11  2  0  0  0  0
  2  8  2  0  0  0  0
  2  6  1  0  0  0  0
  3 12  2  0  0  0  0
  3  8  1  0  0  0  0
  4 15  1  0  0  0  0
  4 18  1  0  0  0  0
  5 11  1  0  0  0  0
  6  5  2  0  0  0  0
  7 14  2  0  0  0  0
  8  1  1  0  0  0  0
  9 17  1  0  0  0  0
 10 17  2  0  0  0  0
 12 19  1  0  0  0  0
 14  2  1  0  0  0  0
 16 15  1  6  0  0  0
 16 22  1  0  0  0  0
 16 12  1  0  0  0  0
 17  4  1  0  0  0  0
 18  7  1  6  0  0  0
 18  3  1  0  0  0  0
 19 13  2  0  0  0  0
 20 22  1  0  0  0  0
 20 23  1  0  0  0  0
 22 23  1  0  0  0  0
 22 24  1  1  0  0  0
 23 21  1  0  0  0  0
 24 26  1  0  0  0  0
 25 24  2  0  0  0  0
 27 29  1  0  0  0  0
 27  9  1  0  0  0  0
 28 30  1  0  0  0  0
 29 33  1  0  0  0  0
 30 34  1  0  0  0  0
 30 29  2  0  0  0  0
 31 32  1  0  0  0  0
 33 32  2  0  0  0  0
 34 31  2  0  0  0  0
M  END
>  <MODEL>
7

>  <REMARK>
 VINA RESULT:      -7.7      2.513      8.016
  Name = 
  4 active torsions:
  status: ('A' for Active; 'I' for Inactive)
    1  A    between atoms: C_3  and  C_13
    2  A    between atoms: C_3  and  N_17
    3  A    between atoms: C_7  and  C_23
    4  A    between atoms: C_23  and  C_28
                            x       y       z     vdW  Elec       q    Type
                         _______ _______ _______ _____ _____    ______ ____

>  <TORSDO>
F 4

$$$$
=
 OpenBabel11052418593D

 34 39  0  0  1  0  0  0  0  0999 V2000
  187.9800  177.4710  146.4310 C   0  0  0  0  0  0  0  0  0  0  0  0
  186.2700  176.8560  144.8010 C   0  0  0  0  0  0  0  0  0  0  0  0
  188.6000  176.2630  144.4050 C   0  0  0  0  0  0  0  0  0  0  0  0
  189.2250  175.2600  142.2050 N   0  0  0  0  0  0  0  0  0  0  0  0
  185.6530  177.9970  146.8490 C   0  0  0  0  0  3  0  0  0  0  0  0
  185.2940  177.4300  145.6200 C   0  0  0  0  0  3  0  0  0  0  0  0
  186.8300  175.7610  142.6870 C   0  0  0  0  0  3  0  0  0  0  0  0
  187.6140  176.8470  145.2200 C   0  0  0  0  0  0  0  0  0  0  0  0
  190.1100  174.1650  140.1610 N   0  0  0  0  0  2  0  0  0  0  0  0
  188.0250  173.6180  141.0420 O   0  0  0  0  0  0  0  0  0  0  0  0
  186.9930  178.0260  147.2500 C   0  0  0  0  0  3  0  0  0  0  0  0
  189.9530  176.3950  144.7480 C   0  0  0  0  0  0  0  0  0  0  0  0
  189.3290  177.5520  146.7910 C   0  0  0  0  0  3  0  0  0  0  0  0
  185.9240  176.3890  143.4440 C   0  0  0  0  0  3  0  0  0  0  0  0
  190.5210  175.9300  142.3590 C   0  0  0  0  0  2  0  0  0  0  0  0
  191.0120  175.8910  143.8130 C   0  0  2  0  0  3  0  0  0  0  0  0
  189.0680  174.3230  141.1260 C   0  0  0  0  0  0  0  0  0  0  0  0
  188.1850  175.3890  143.2410 C   0  0  2  0  0  3  0  0  0  0  0  0
  190.3140  177.0300  145.9430 C   0  0  0  0  0  3  0  0  0  0  0  0
  192.8300  174.1740  143.5570 C   0  0  0  0  0  2  0  0  0  0  0  0
  193.2170  173.4980  145.7580 C   0  0  0  0  0  1  0  0  0  0  0  0
  191.5830  174.5300  144.2260 C   0  0  1  0  0  0  0  0  0  0  0  0
  192.8760  174.6620  144.9480 N   0  0  0  0  0  0  0  0  0  0  0  0
  190.6690  173.3880  144.6310 C   0  0  0  0  0  0  0  0  0  0  0  0
  189.9670  173.4480  145.7630 C   0  0  0  0  0  2  0  0  0  0  0  0
  190.6180  171.8790  143.6630 S   0  0  0  0  0  1  0  0  0  0  0  0
  190.0320  173.1860  139.0890 C   0  0  0  0  0  2  0  0  0  0  0  0
  192.1860  173.5840  137.0820 C   0  0  0  0  0  1  0  0  0  0  0  0
  189.7750  173.8800  137.7930 C   0  0  0  0  0  0  0  0  0  0  0  0
  190.7990  174.0790  136.8460 C   0  0  0  0  0  0  0  0  0  0  0  0
  189.2340  175.2390  135.4020 C   0  0  0  0  0  3  0  0  0  0  0  0
  188.2190  175.0480  136.3440 C   0  0  0  0  0  3  0  0  0  0  0  0
  188.4910  174.3730  137.5360 C   0  0  0  0  0  3  0  0  0  0  0  0
  190.5210  174.7560  135.6550 C   0  0  0  0  0  3  0  0  0  0  0  0
  1 13  1  0  0  0  0
  1 11  2  0  0  0  0
  2  8  2  0  0  0  0
  2  6  1  0  0  0  0
  3 12  2  0  0  0  0
  3  8  1  0  0  0  0
  4 15  1  0  0  0  0
  4 18  1  0  0  0  0
  5 11  1  0  0  0  0
  6  5  2  0  0  0  0
  7 14  2  0  0  0  0
  8  1  1  0  0  0  0
  9 17  1  0  0  0  0
 10 17  2  0  0  0  0
 12 19  1  0  0  0  0
 14  2  1  0  0  0  0
 16 15  1  6  0  0  0
 16 22  1  0  0  0  0
 16 12  1  0  0  0  0
 17  4  1  0  0  0  0
 18  7  1  6  0  0  0
 18  3  1  0  0  0  0
 19 13  2  0  0  0  0
 20 22  1  0  0  0  0
 20 23  1  0  0  0  0
 22 24  1  1  0  0  0
 22 23  1  0  0  0  0
 23 21  1  0  0  0  0
 24 25  2  0  0  0  0
 26 24  1  0  0  0  0
 27  9  1  0  0  0  0
 29 27  1  0  0  0  0
 30 28  1  0  0  0  0
 30 29  2  0  0  0  0
 31 34  2  0  0  0  0
 31 32  1  0  0  0  0
 32 33  2  0  0  0  0
 33 29  1  0  0  0  0
 34 30  1  0  0  0  0
M  END
>  <MODEL>
8

>  <REMARK>
 VINA RESULT:      -7.4      2.861      7.640
  Name = 
  4 active torsions:
  status: ('A' for Active; 'I' for Inactive)
    1  A    between atoms: C_3  and  C_13
    2  A    between atoms: C_3  and  N_17
    3  A    between atoms: C_7  and  C_23
    4  A    between atoms: C_23  and  C_28
                            x       y       z     vdW  Elec       q    Type
                         _______ _______ _______ _____ _____    ______ ____

>  <TORSDO>
F 4

$$$$
=
 OpenBabel11052418593D

 34 39  0  0  1  0  0  0  0  0999 V2000
  186.2900  177.8150  146.3260 C   0  0  0  0  0  0  0  0  0  0  0  0
  188.1580  178.4890  147.7460 C   0  0  0  0  0  0  0  0  0  0  0  0
  188.5000  176.8430  145.9840 C   0  0  0  0  0  0  0  0  0  0  0  0
  190.7080  175.6850  145.8360 N   0  0  0  0  0  0  0  0  0  0  0  0
  185.9740  179.5010  148.0370 C   0  0  0  0  0  3  0  0  0  0  0  0
  187.3140  179.3740  148.4220 C   0  0  0  0  0  3  0  0  0  0  0  0
  190.3710  177.4650  147.5490 C   0  0  0  0  0  3  0  0  0  0  0  0
  187.6550  177.7290  146.6740 C   0  0  0  0  0  0  0  0  0  0  0  0
  192.8220  174.4600  145.3940 N   0  0  0  0  0  2  0  0  0  0  0  0
  192.8140  176.6840  146.0840 O   0  0  0  0  0  0  0  0  0  0  0  0
  185.4600  178.7160  146.9980 C   0  0  0  0  0  3  0  0  0  0  0  0
  187.9620  175.9730  145.0240 C   0  0  0  0  0  0  0  0  0  0  0  0
  185.7730  176.9790  145.3310 C   0  0  0  0  0  3  0  0  0  0  0  0
  189.5280  178.2430  148.2370 C   0  0  0  0  0  3  0  0  0  0  0  0
  189.9740  174.5210  145.3270 C   0  0  0  0  0  2  0  0  0  0  0  0
  188.8360  174.9360  144.3840 C   0  0  2  0  0  3  0  0  0  0  0  0
  192.1460  175.6540  145.7940 C   0  0  0  0  0  0  0  0  0  0  0  0
  189.9980  176.9270  146.1880 C   0  0  2  0  0  3  0  0  0  0  0  0
  186.6030  176.0500  144.6940 C   0  0  0  0  0  3  0  0  0  0  0  0
  190.2930  174.4160  142.4020 C   0  0  0  0  0  2  0  0  0  0  0  0
  188.8990  174.9050  140.5940 C   0  0  0  0  0  1  0  0  0  0  0  0
  189.3200  175.3340  142.9850 C   0  0  1  0  0  0  0  0  0  0  0  0
  188.8910  174.3600  141.9470 N   0  0  0  0  0  0  0  0  0  0  0  0
  189.4200  176.7940  142.5780 C   0  0  0  0  0  0  0  0  0  0  0  0
  190.5450  177.4790  142.7750 C   0  0  0  0  0  2  0  0  0  0  0  0
  187.9810  177.6590  141.9470 S   0  0  0  0  0  1  0  0  0  0  0  0
  194.2690  174.3930  145.2710 C   0  0  0  0  0  2  0  0  0  0  0  0
  197.0700  173.7230  145.9980 C   0  0  0  0  0  1  0  0  0  0  0  0
  194.7200  172.9790  145.4220 C   0  0  0  0  0  0  0  0  0  0  0  0
  196.0520  172.6610  145.7550 C   0  0  0  0  0  0  0  0  0  0  0  0
  195.5140  170.2990  145.6360 C   0  0  0  0  0  3  0  0  0  0  0  0
  194.1960  170.6130  145.2980 C   0  0  0  0  0  3  0  0  0  0  0  0
  193.8020  171.9490  145.1890 C   0  0  0  0  0  3  0  0  0  0  0  0
  196.4400  171.3210  145.8630 C   0  0  0  0  0  3  0  0  0  0  0  0
  1  8  1  0  0  0  0
  1 11  2  0  0  0  0
  2 14  1  0  0  0  0
  2  6  1  0  0  0  0
  3 18  1  0  0  0  0
  3  8  1  0  0  0  0
  4 18  1  0  0  0  0
  5  6  2  0  0  0  0
  7 14  2  0  0  0  0
  8  2  2  0  0  0  0
  9 17  1  0  0  0  0
 11  5  1  0  0  0  0
 12  3  2  0  0  0  0
 13  1  1  0  0  0  0
 15  4  1  0  0  0  0
 16 12  1  0  0  0  0
 16 15  1  1  0  0  0
 17  4  1  0  0  0  0
 17 10  2  0  0  0  0
 18  7  1  1  0  0  0
 19 12  1  0  0  0  0
 19 13  2  0  0  0  0
 20 22  1  0  0  0  0
 21 23  1  0  0  0  0
 22 24  1  6  0  0  0
 22 16  1  0  0  0  0
 23 20  1  0  0  0  0
 23 22  1  0  0  0  0
 24 25  2  0  0  0  0
 26 24  1  0  0  0  0
 27  9  1  0  0  0  0
 27 29  1  0  0  0  0
 29 30  1  0  0  0  0
 30 34  2  0  0  0  0
 30 28  1  0  0  0  0
 31 34  1  0  0  0  0
 32 31  2  0  0  0  0
 33 32  1  0  0  0  0
 33 29  2  0  0  0  0
M  END
>  <MODEL>
9

>  <REMARK>
 VINA RESULT:      -7.3      2.284      7.997
  Name = 
  4 active torsions:
  status: ('A' for Active; 'I' for Inactive)
    1  A    between atoms: C_3  and  C_13
    2  A    between atoms: C_3  and  N_17
    3  A    between atoms: C_7  and  C_23
    4  A    between atoms: C_23  and  C_28
                            x       y       z     vdW  Elec       q    Type
                         _______ _______ _______ _____ _____    ______ ____

>  <TORSDO>
F 4

$$$$
