=
 OpenBabel11052417103D

 30 33  0  0  1  0  0  0  0  0999 V2000
  189.3470  175.2190  143.4440 C   0  0  2  0  0  3  0  0  0  0  0  0
  190.2620  177.3220  147.0380 O   0  0  0  0  0  1  0  0  0  0  0  0
  188.3810  175.6660  145.8320 C   0  0  1  0  0  3  0  0  0  0  0  0
  188.9590  176.6430  143.0600 C   0  0  0  0  0  2  0  0  0  0  0  0
  185.3120  176.9240  143.1880 C   0  0  0  0  0  2  0  0  0  0  0  0
  186.5790  176.2110  143.3760 N   0  0  0  0  0  2  0  0  0  0  0  0
  187.4640  178.5700  143.3530 C   0  0  0  0  0  2  0  0  0  0  0  0
  191.9510  174.5380  144.8790 F   0  0  0  0  0  0  0  0  0  0  0  0
  189.9510  176.0580  147.5520 C   0  0  2  0  0  3  0  0  0  0  0  0
  187.6880  177.1040  143.7810 C   0  0  2  0  0  0  0  0  0  0  0  0
  187.9110  177.0500  145.3170 C   0  0  1  0  0  3  0  0  0  0  0  0
  189.7910  173.5950  145.3730 C   0  0  0  0  0  2  0  0  0  0  0  0
  185.4150  177.9180  142.0300 C   0  0  0  0  0  2  0  0  0  0  0  0
  186.7640  178.6400  141.9990 C   0  0  0  0  0  2  0  0  0  0  0  0
  189.4890  175.0290  144.9630 C   0  0  1  0  0  0  0  0  0  0  0  0
  190.9680  175.0150  147.1120 C   0  0  0  0  0  2  0  0  0  0  0  0
  188.6300  175.6610  147.2340 O   0  0  0  0  0  0  0  0  0  0  0  0
  190.8120  174.6910  145.6360 C   0  0  2  0  0  0  0  0  0  0  0  0
  191.4320  175.1490  142.1700 C   0  0  0  0  0  0  0  0  0  0  0  0
  191.6770  176.4290  142.6610 O   0  0  0  0  0  1  0  0  0  0  0  0
  190.2780  174.5180  142.4690 C   0  0  0  0  0  0  0  0  0  0  0  0
  190.7840  172.0200  142.7730 C   0  0  0  0  0  1  0  0  0  0  0  0
  188.5590  172.7290  141.9720 C   0  0  0  0  0  1  0  0  0  0  0  0
  190.0360  173.0870  141.9910 C   0  0  0  0  0  3  0  0  0  0  0  0
  192.5070  174.5090  141.3510 C   0  0  0  0  0  2  0  0  0  0  0  0
  193.5910  174.1880  142.1680 O   0  0  0  0  0  1  0  0  0  0  0  0
  187.2130  178.5450  147.2560 C   0  0  0  0  0  1  0  0  0  0  0  0
  186.7380  177.6590  146.1170 C   0  0  2  0  0  3  0  0  0  0  0  0
  185.6590  176.6700  146.5640 C   0  0  0  0  0  2  0  0  0  0  0  0
  184.3950  177.2640  146.5900 O   0  0  0  0  0  1  0  0  0  0  0  0
  1 21  1  6  0  0  0
  1 15  1  0  0  0  0
  3 17  1  1  0  0  0
  4  1  1  0  0  0  0
  5  6  1  0  0  0  0
  6 10  1  0  0  0  0
  7 10  1  0  0  0  0
  9  2  1  6  0  0  0
 10  4  1  6  0  0  0
 10 11  1  0  0  0  0
 11  3  1  0  0  0  0
 11 28  1  1  0  0  0
 12 18  1  0  0  0  0
 13  5  1  0  0  0  0
 14 13  1  0  0  0  0
 14  7  1  0  0  0  0
 15 12  1  1  0  0  0
 15 18  1  0  0  0  0
 15  3  1  0  0  0  0
 16  9  1  0  0  0  0
 17  9  1  0  0  0  0
 18  8  1  6  0  0  0
 18 16  1  0  0  0  0
 19 21  2  0  0  0  0
 19 20  1  0  0  0  0
 23 24  1  0  0  0  0
 24 21  1  0  0  0  0
 24 22  1  0  0  0  0
 25 26  1  0  0  0  0
 25 19  1  0  0  0  0
 28 29  1  0  0  0  0
 28 27  1  1  0  0  0
 29 30  1  0  0  0  0
M  END
>  <MODEL>
1

>  <REMARK>
 VINA RESULT:      -6.4      0.000      0.000
  Name = 
  5 active torsions:
  status: ('A' for Active; 'I' for Inactive)
    1  A    between atoms: C_1  and  C_22
    2  A    between atoms: C_2  and  C_14
    3  A    between atoms: C_7  and  C_30
    4  A    between atoms: C_13  and  C_30
    5  A    between atoms: C_22  and  C_29
                            x       y       z     vdW  Elec       q    Type
                         _______ _______ _______ _____ _____    ______ ____

>  <TORSDO>
F 5

$$$$
=
 OpenBabel11052417103D

 30 33  0  0  1  0  0  0  0  0999 V2000
  189.7280  176.1340  142.6950 C   0  0  2  0  0  3  0  0  0  0  0  0
  190.1940  174.5120  146.6110 O   0  0  0  0  0  1  0  0  0  0  0  0
  191.0130  176.5700  144.9300 C   0  0  1  0  0  3  0  0  0  0  0  0
  190.6730  174.9680  142.4220 C   0  0  0  0  0  2  0  0  0  0  0  0
  194.0550  176.2980  141.9870 C   0  0  0  0  0  2  0  0  0  0  0  0
  192.6280  176.4230  142.2940 N   0  0  0  0  0  2  0  0  0  0  0  0
  192.8920  173.9490  142.6910 C   0  0  0  0  0  2  0  0  0  0  0  0
  187.2430  175.8800  144.4460 F   0  0  0  0  0  0  0  0  0  0  0  0
  189.9550  175.8560  146.9160 C   0  0  2  0  0  3  0  0  0  0  0  0
  192.0780  175.2290  142.9750 C   0  0  2  0  0  0  0  0  0  0  0  0
  192.0010  175.4530  144.5110 C   0  0  1  0  0  3  0  0  0  0  0  0
  188.7910  177.7250  144.4690 C   0  0  0  0  0  2  0  0  0  0  0  0
  194.2990  175.1680  140.9850 C   0  0  0  0  0  2  0  0  0  0  0  0
  193.4180  173.9460  141.2590 C   0  0  0  0  0  2  0  0  0  0  0  0
  189.6610  176.5100  144.1850 C   0  0  1  0  0  0  0  0  0  0  0  0
  188.5420  176.2700  146.5290 C   0  0  0  0  0  2  0  0  0  0  0  0
  190.9220  176.7160  146.3430 O   0  0  0  0  0  0  0  0  0  0  0  0
  188.3970  176.3630  145.0200 C   0  0  2  0  0  0  0  0  0  0  0  0
  188.1240  177.4010  141.3550 C   0  0  0  0  0  0  0  0  0  0  0  0
  188.7950  178.5430  141.7840 O   0  0  0  0  0  1  0  0  0  0  0  0
  188.4950  176.1860  141.8100 C   0  0  0  0  0  0  0  0  0  0  0  0
  188.3720  174.3870  139.9840 C   0  0  0  0  0  1  0  0  0  0  0  0
  187.8050  173.8040  142.3160 C   0  0  0  0  0  1  0  0  0  0  0  0
  187.8070  174.9250  141.2890 C   0  0  0  0  0  3  0  0  0  0  0  0
  187.0270  177.5810  140.3550 C   0  0  0  0  0  2  0  0  0  0  0  0
  185.9240  178.1730  140.9710 O   0  0  0  0  0  1  0  0  0  0  0  0
  193.5610  174.5670  146.3170 C   0  0  0  0  0  1  0  0  0  0  0  0
  193.3920  175.5540  145.1740 C   0  0  2  0  0  3  0  0  0  0  0  0
  193.8400  176.9670  145.5580 C   0  0  0  0  0  2  0  0  0  0  0  0
  194.2120  177.0420  146.9020 O   0  0  0  0  0  1  0  0  0  0  0  0
  1 21  1  1  0  0  0
  1 15  1  0  0  0  0
  3 17  1  1  0  0  0
  4  1  1  0  0  0  0
  5  6  1  0  0  0  0
  6 10  1  0  0  0  0
  7 10  1  0  0  0  0
  9  2  1  6  0  0  0
 10  4  1  6  0  0  0
 10 11  1  0  0  0  0
 11  3  1  0  0  0  0
 11 28  1  6  0  0  0
 12 18  1  0  0  0  0
 13 14  1  0  0  0  0
 13  5  1  0  0  0  0
 14  7  1  0  0  0  0
 15 12  1  6  0  0  0
 15  3  1  0  0  0  0
 15 18  1  0  0  0  0
 16  9  1  0  0  0  0
 17  9  1  0  0  0  0
 18  8  1  6  0  0  0
 18 16  1  0  0  0  0
 19 20  1  0  0  0  0
 19 21  2  0  0  0  0
 22 24  1  0  0  0  0
 24 21  1  0  0  0  0
 24 23  1  0  0  0  0
 25 26  1  0  0  0  0
 25 19  1  0  0  0  0
 28 29  1  0  0  0  0
 28 27  1  1  0  0  0
 29 30  1  0  0  0  0
M  END
>  <MODEL>
2

>  <REMARK>
 VINA RESULT:      -6.3      2.774      5.519
  Name = 
  5 active torsions:
  status: ('A' for Active; 'I' for Inactive)
    1  A    between atoms: C_1  and  C_22
    2  A    between atoms: C_2  and  C_14
    3  A    between atoms: C_7  and  C_30
    4  A    between atoms: C_13  and  C_30
    5  A    between atoms: C_22  and  C_29
                            x       y       z     vdW  Elec       q    Type
                         _______ _______ _______ _____ _____    ______ ____

>  <TORSDO>
F 5

$$$$
=
 OpenBabel11052417103D

 30 33  0  0  1  0  0  0  0  0999 V2000
  188.6240  176.5100  143.8190 C   0  0  2  0  0  3  0  0  0  0  0  0
  191.1450  174.4610  146.5810 O   0  0  0  0  0  1  0  0  0  0  0  0
  191.0910  175.6860  144.0850 C   0  0  1  0  0  3  0  0  0  0  0  0
  188.2040  175.0630  143.5850 C   0  0  0  0  0  2  0  0  0  0  0  0
  189.7520  173.8970  140.4800 C   0  0  0  0  0  2  0  0  0  0  0  0
  189.5230  174.8820  141.5400 N   0  0  0  0  0  2  0  0  0  0  0  0
  188.7610  172.8150  142.7630 C   0  0  0  0  0  2  0  0  0  0  0  0
  188.9710  177.7070  146.6040 F   0  0  0  0  0  0  0  0  0  0  0  0
  191.9390  175.5750  146.2860 C   0  0  2  0  0  3  0  0  0  0  0  0
  189.2930  174.2610  142.8640 C   0  0  2  0  0  0  0  0  0  0  0  0
  190.5940  174.2670  143.7140 C   0  0  1  0  0  3  0  0  0  0  0  0
  190.4440  178.0630  144.7320 C   0  0  0  0  0  2  0  0  0  0  0  0
  188.5070  173.0360  140.2610 C   0  0  0  0  0  2  0  0  0  0  0  0
  187.8160  172.6660  141.5750 C   0  0  0  0  0  2  0  0  0  0  0  0
  189.9640  176.6290  144.5640 C   0  0  1  0  0  0  0  0  0  0  0  0
  191.3000  176.8610  146.7930 C   0  0  0  0  0  2  0  0  0  0  0  0
  192.2520  175.6600  144.9080 O   0  0  0  0  0  0  0  0  0  0  0  0
  190.0880  177.2320  145.9560 C   0  0  2  0  0  0  0  0  0  0  0  0
  187.1250  178.2890  143.0680 C   0  0  0  0  0  0  0  0  0  0  0  0
  187.8560  178.2910  141.8830 O   0  0  0  0  0  1  0  0  0  0  0  0
  187.4830  177.4780  144.0850 C   0  0  0  0  0  0  0  0  0  0  0  0
  186.1710  178.7750  145.8690 C   0  0  0  0  0  1  0  0  0  0  0  0
  185.4340  176.5110  145.2120 C   0  0  0  0  0  1  0  0  0  0  0  0
  186.6430  177.4220  145.3590 C   0  0  0  0  0  3  0  0  0  0  0  0
  185.9250  179.1780  143.1380 C   0  0  0  0  0  2  0  0  0  0  0  0
  184.8890  178.6270  142.3830 O   0  0  0  0  0  1  0  0  0  0  0  0
  192.1540  172.3020  144.1500 C   0  0  0  0  0  1  0  0  0  0  0  0
  191.6900  173.3400  143.1420 C   0  0  2  0  0  3  0  0  0  0  0  0
  192.8630  174.0480  142.4580 C   0  0  0  0  0  2  0  0  0  0  0  0
  194.0900  173.6200  142.9680 O   0  0  0  0  0  1  0  0  0  0  0  0
  1 21  1  1  0  0  0
  1 15  1  0  0  0  0
  3 15  1  0  0  0  0
  3 17  1  1  0  0  0
  4  1  1  0  0  0  0
  5  6  1  0  0  0  0
  6 10  1  0  0  0  0
  9  2  1  6  0  0  0
  9 16  1  0  0  0  0
 10  7  1  6  0  0  0
 10  4  1  0  0  0  0
 10 11  1  0  0  0  0
 11 28  1  6  0  0  0
 11  3  1  0  0  0  0
 12 18  1  0  0  0  0
 13  5  1  0  0  0  0
 13 14  1  0  0  0  0
 14  7  1  0  0  0  0
 15 12  1  6  0  0  0
 15 18  1  0  0  0  0
 17  9  1  0  0  0  0
 18  8  1  1  0  0  0
 18 16  1  0  0  0  0
 19 25  1  0  0  0  0
 19 21  2  0  0  0  0
 20 19  1  0  0  0  0
 21 24  1  0  0  0  0
 23 24  1  0  0  0  0
 24 22  1  0  0  0  0
 26 25  1  0  0  0  0
 28 27  1  1  0  0  0
 29 30  1  0  0  0  0
 29 28  1  0  0  0  0
M  END
>  <MODEL>
3

>  <REMARK>
 VINA RESULT:      -6.3      2.156      5.768
  Name = 
  5 active torsions:
  status: ('A' for Active; 'I' for Inactive)
    1  A    between atoms: C_1  and  C_22
    2  A    between atoms: C_2  and  C_14
    3  A    between atoms: C_7  and  C_30
    4  A    between atoms: C_13  and  C_30
    5  A    between atoms: C_22  and  C_29
                            x       y       z     vdW  Elec       q    Type
                         _______ _______ _______ _____ _____    ______ ____

>  <TORSDO>
F 5

$$$$
=
 OpenBabel11052417103D

 30 33  0  0  1  0  0  0  0  0999 V2000
  188.9290  176.4350  143.4350 C   0  0  2  0  0  3  0  0  0  0  0  0
  192.4910  174.8120  145.1260 O   0  0  0  0  0  1  0  0  0  0  0  0
  191.3820  175.8100  142.7790 C   0  0  1  0  0  3  0  0  0  0  0  0
  188.5950  174.9480  143.4570 C   0  0  0  0  0  2  0  0  0  0  0  0
  188.9620  173.6270  140.0640 C   0  0  0  0  0  2  0  0  0  0  0  0
  189.0560  174.6820  141.0760 N   0  0  0  0  0  2  0  0  0  0  0  0
  189.0150  172.6810  142.6070 C   0  0  0  0  0  2  0  0  0  0  0  0
  190.1820  177.8900  145.8050 F   0  0  0  0  0  0  0  0  0  0  0  0
  193.0030  175.9490  144.4900 C   0  0  2  0  0  3  0  0  0  0  0  0
  189.4030  174.1630  142.4190 C   0  0  2  0  0  0  0  0  0  0  0  0
  190.9210  174.3330  142.7040 C   0  0  1  0  0  3  0  0  0  0  0  0
  190.7990  178.1830  143.4960 C   0  0  0  0  0  2  0  0  0  0  0  0
  187.8170  172.6660  140.3850 C   0  0  0  0  0  2  0  0  0  0  0  0
  187.7110  172.3650  141.8820 C   0  0  0  0  0  2  0  0  0  0  0  0
  190.4330  176.7110  143.6020 C   0  0  1  0  0  0  0  0  0  0  0  0
  192.4810  177.2260  145.1330 C   0  0  0  0  0  2  0  0  0  0  0  0
  192.7640  175.9350  143.0950 O   0  0  0  0  0  0  0  0  0  0  0  0
  191.0130  177.4390  144.8050 C   0  0  2  0  0  0  0  0  0  0  0  0
  187.3130  178.2610  143.2590 C   0  0  0  0  0  0  0  0  0  0  0  0
  187.7580  178.4180  141.9490 O   0  0  0  0  0  1  0  0  0  0  0  0
  187.8850  177.3420  144.0640 C   0  0  0  0  0  0  0  0  0  0  0  0
  185.8700  176.7900  145.5550 C   0  0  0  0  0  1  0  0  0  0  0  0
  188.1270  176.0410  146.2210 C   0  0  0  0  0  1  0  0  0  0  0  0
  187.3530  177.1180  145.4790 C   0  0  0  0  0  3  0  0  0  0  0  0
  186.1660  179.1110  143.7030 C   0  0  0  0  0  2  0  0  0  0  0  0
  185.0840  178.9250  142.8420 O   0  0  0  0  0  1  0  0  0  0  0  0
  192.6760  172.4900  142.6140 C   0  0  0  0  0  1  0  0  0  0  0  0
  191.8050  173.4370  141.8070 C   0  0  2  0  0  3  0  0  0  0  0  0
  192.5970  174.1690  140.7190 C   0  0  0  0  0  2  0  0  0  0  0  0
  192.3800  173.6080  139.4590 O   0  0  0  0  0  1  0  0  0  0  0  0
  1  4  1  0  0  0  0
  1 15  1  0  0  0  0
  1 21  1  1  0  0  0
  3 17  1  1  0  0  0
  3 15  1  0  0  0  0
  5 13  1  0  0  0  0
  5  6  1  0  0  0  0
  6 10  1  0  0  0  0
  9  2  1  1  0  0  0
  9 16  1  0  0  0  0
 10  7  1  1  0  0  0
 10 11  1  0  0  0  0
 10  4  1  0  0  0  0
 11 28  1  6  0  0  0
 11  3  1  0  0  0  0
 12 18  1  0  0  0  0
 13 14  1  0  0  0  0
 14  7  1  0  0  0  0
 15 12  1  6  0  0  0
 15 18  1  0  0  0  0
 17  9  1  0  0  0  0
 18 16  1  0  0  0  0
 18  8  1  1  0  0  0
 19 25  1  0  0  0  0
 19 21  2  0  0  0  0
 20 19  1  0  0  0  0
 21 24  1  0  0  0  0
 24 22  1  0  0  0  0
 24 23  1  0  0  0  0
 26 25  1  0  0  0  0
 28 27  1  1  0  0  0
 29 28  1  0  0  0  0
 30 29  1  0  0  0  0
M  END
>  <MODEL>
4

>  <REMARK>
 VINA RESULT:      -6.1      2.233      5.965
  Name = 
  5 active torsions:
  status: ('A' for Active; 'I' for Inactive)
    1  A    between atoms: C_1  and  C_22
    2  A    between atoms: C_2  and  C_14
    3  A    between atoms: C_7  and  C_30
    4  A    between atoms: C_13  and  C_30
    5  A    between atoms: C_22  and  C_29
                            x       y       z     vdW  Elec       q    Type
                         _______ _______ _______ _____ _____    ______ ____

>  <TORSDO>
F 5

$$$$
=
 OpenBabel11052417103D

 30 33  0  0  1  0  0  0  0  0999 V2000
  189.6230  175.2760  143.5090 C   0  0  2  0  0  3  0  0  0  0  0  0
  190.2470  177.4350  147.1320 O   0  0  0  0  0  1  0  0  0  0  0  0
  188.5110  175.6890  145.8380 C   0  0  1  0  0  3  0  0  0  0  0  0
  189.1920  176.6790  143.0950 C   0  0  0  0  0  2  0  0  0  0  0  0
  185.5350  176.7930  143.0250 C   0  0  0  0  0  2  0  0  0  0  0  0
  186.8200  176.1400  143.2860 N   0  0  0  0  0  2  0  0  0  0  0  0
  187.5970  178.5370  143.2940 C   0  0  0  0  0  2  0  0  0  0  0  0
  192.1740  174.7210  145.0860 F   0  0  0  0  0  0  0  0  0  0  0  0
  189.9660  176.1610  147.6370 C   0  0  2  0  0  3  0  0  0  0  0  0
  187.8650  177.0850  143.7430 C   0  0  2  0  0  0  0  0  0  0  0  0
  188.0070  177.0480  145.2900 C   0  0  1  0  0  3  0  0  0  0  0  0
  190.0360  173.6830  145.4710 C   0  0  0  0  0  2  0  0  0  0  0  0
  185.6540  177.7860  141.8680 C   0  0  0  0  0  2  0  0  0  0  0  0
  186.9680  178.5690  141.9040 C   0  0  0  0  0  2  0  0  0  0  0  0
  189.6920  175.0990  145.0350 C   0  0  1  0  0  0  0  0  0  0  0  0
  191.0520  175.1630  147.2590 C   0  0  0  0  0  2  0  0  0  0  0  0
  188.6840  175.7020  147.2520 O   0  0  0  0  0  0  0  0  0  0  0  0
  190.9900  174.8260  145.7800 C   0  0  2  0  0  0  0  0  0  0  0  0
  190.2570  173.4640  141.9950 C   0  0  0  0  0  0  0  0  0  0  0  0
  189.0330  172.8820  142.3140 O   0  0  0  0  0  1  0  0  0  0  0  0
  190.6360  174.6140  142.5900 C   0  0  0  0  0  0  0  0  0  0  0  0
  192.1380  176.6870  142.7640 C   0  0  0  0  0  1  0  0  0  0  0  0
  193.1610  174.4500  142.5480 C   0  0  0  0  0  1  0  0  0  0  0  0
  191.9460  175.2920  142.1920 C   0  0  0  0  0  3  0  0  0  0  0  0
  191.0890  172.7900  140.9520 C   0  0  0  0  0  2  0  0  0  0  0  0
  190.4300  172.8360  139.7240 O   0  0  0  0  0  1  0  0  0  0  0  0
  187.1370  178.5530  147.1500 C   0  0  0  0  0  1  0  0  0  0  0  0
  186.7660  177.6060  146.0210 C   0  0  2  0  0  3  0  0  0  0  0  0
  185.7310  176.5650  146.4560 C   0  0  0  0  0  2  0  0  0  0  0  0
  184.4460  177.1090  146.5110 O   0  0  0  0  0  1  0  0  0  0  0  0
  1 21  1  6  0  0  0
  1 15  1  0  0  0  0
  3 17  1  1  0  0  0
  4  1  1  0  0  0  0
  5  6  1  0  0  0  0
  6 10  1  0  0  0  0
  7 10  1  0  0  0  0
  9  2  1  6  0  0  0
 10  4  1  6  0  0  0
 10 11  1  0  0  0  0
 11  3  1  0  0  0  0
 11 28  1  1  0  0  0
 12 18  1  0  0  0  0
 13 14  1  0  0  0  0
 13  5  1  0  0  0  0
 14  7  1  0  0  0  0
 15 12  1  1  0  0  0
 15 18  1  0  0  0  0
 15  3  1  0  0  0  0
 16  9  1  0  0  0  0
 17  9  1  0  0  0  0
 18  8  1  6  0  0  0
 18 16  1  0  0  0  0
 19 20  1  0  0  0  0
 19 21  2  0  0  0  0
 24 23  1  0  0  0  0
 24 21  1  0  0  0  0
 24 22  1  0  0  0  0
 25 19  1  0  0  0  0
 26 25  1  0  0  0  0
 28 29  1  0  0  0  0
 28 27  1  1  0  0  0
 29 30  1  0  0  0  0
M  END
>  <MODEL>
5

>  <REMARK>
 VINA RESULT:      -6.0      1.254      1.868
  Name = 
  5 active torsions:
  status: ('A' for Active; 'I' for Inactive)
    1  A    between atoms: C_1  and  C_22
    2  A    between atoms: C_2  and  C_14
    3  A    between atoms: C_7  and  C_30
    4  A    between atoms: C_13  and  C_30
    5  A    between atoms: C_22  and  C_29
                            x       y       z     vdW  Elec       q    Type
                         _______ _______ _______ _____ _____    ______ ____

>  <TORSDO>
F 5

$$$$
=
 OpenBabel11052417103D

 30 33  0  0  1  0  0  0  0  0999 V2000
  193.1260  174.8570  144.4610 C   0  0  2  0  0  3  0  0  0  0  0  0
  191.5520  171.9770  141.7390 O   0  0  0  0  0  1  0  0  0  0  0  0
  191.5450  174.6820  142.3860 C   0  0  1  0  0  3  0  0  0  0  0  0
  192.0270  174.2220  145.3060 C   0  0  0  0  0  2  0  0  0  0  0  0
  189.1650  176.5020  145.3890 C   0  0  0  0  0  2  0  0  0  0  0  0
  190.4960  176.0850  144.9370 N   0  0  0  0  0  2  0  0  0  0  0  0
  189.6340  173.8480  145.7130 C   0  0  0  0  0  2  0  0  0  0  0  0
  195.0980  173.2240  142.8020 F   0  0  0  0  0  0  0  0  0  0  0  0
  192.0080  172.9530  140.8460 C   0  0  2  0  0  3  0  0  0  0  0  0
  190.6290  174.6150  144.8170 C   0  0  2  0  0  0  0  0  0  0  0  0
  190.4450  174.1600  143.3430 C   0  0  1  0  0  3  0  0  0  0  0  0
  194.0100  175.2510  142.0900 C   0  0  0  0  0  2  0  0  0  0  0  0
  188.8900  175.9980  146.8070 C   0  0  0  0  0  2  0  0  0  0  0  0
  189.4160  174.5790  147.0340 C   0  0  0  0  0  2  0  0  0  0  0  0
  192.9740  174.5560  142.9610 C   0  0  1  0  0  0  0  0  0  0  0  0
  193.5250  173.0750  140.8850 C   0  0  0  0  0  2  0  0  0  0  0  0
  191.3810  174.2050  141.0540 O   0  0  0  0  0  0  0  0  0  0  0  0
  193.9840  173.7330  142.1740 C   0  0  2  0  0  0  0  0  0  0  0  0
  195.0250  173.7480  145.5280 C   0  0  0  0  0  0  0  0  0  0  0  0
  194.2840  172.5730  145.4350 O   0  0  0  0  0  1  0  0  0  0  0  0
  194.4940  174.9190  145.1200 C   0  0  0  0  0  0  0  0  0  0  0  0
  196.0740  176.5060  143.8670 C   0  0  0  0  0  1  0  0  0  0  0  0
  194.5010  177.4150  145.5380 C   0  0  0  0  0  1  0  0  0  0  0  0
  195.3280  176.1980  145.1550 C   0  0  0  0  0  3  0  0  0  0  0  0
  196.4230  173.6420  146.0490 C   0  0  0  0  0  2  0  0  0  0  0  0
  196.8320  172.3090  146.0220 O   0  0  0  0  0  1  0  0  0  0  0  0
  188.4040  173.0900  142.2600 C   0  0  0  0  0  1  0  0  0  0  0  0
  189.0040  174.3660  142.8260 C   0  0  2  0  0  3  0  0  0  0  0  0
  188.8010  175.5640  141.8950 C   0  0  0  0  0  2  0  0  0  0  0  0
  188.1950  175.1870  140.6950 O   0  0  0  0  0  1  0  0  0  0  0  0
  1 21  1  1  0  0  0
  1  4  1  0  0  0  0
  3 17  1  6  0  0  0
  3 15  1  0  0  0  0
  3 11  1  0  0  0  0
  5 13  1  0  0  0  0
  6  5  1  0  0  0  0
  7 14  1  0  0  0  0
  9 16  1  0  0  0  0
  9 17  1  0  0  0  0
  9  2  1  1  0  0  0
 10  6  1  0  0  0  0
 10  4  1  1  0  0  0
 10  7  1  0  0  0  0
 11 28  1  6  0  0  0
 11 10  1  0  0  0  0
 12 18  1  0  0  0  0
 13 14  1  0  0  0  0
 15 12  1  6  0  0  0
 15  1  1  0  0  0  0
 16 18  1  0  0  0  0
 18  8  1  1  0  0  0
 18 15  1  0  0  0  0
 19 25  1  0  0  0  0
 20 19  1  0  0  0  0
 21 24  1  0  0  0  0
 21 19  2  0  0  0  0
 22 24  1  0  0  0  0
 24 23  1  0  0  0  0
 26 25  1  0  0  0  0
 28 27  1  6  0  0  0
 29 28  1  0  0  0  0
 30 29  1  0  0  0  0
M  END
>  <MODEL>
6

>  <REMARK>
 VINA RESULT:      -6.0      3.169      5.875
  Name = 
  5 active torsions:
  status: ('A' for Active; 'I' for Inactive)
    1  A    between atoms: C_1  and  C_22
    2  A    between atoms: C_2  and  C_14
    3  A    between atoms: C_7  and  C_30
    4  A    between atoms: C_13  and  C_30
    5  A    between atoms: C_22  and  C_29
                            x       y       z     vdW  Elec       q    Type
                         _______ _______ _______ _____ _____    ______ ____

>  <TORSDO>
F 5

$$$$
=
 OpenBabel11052417103D

 30 33  0  0  1  0  0  0  0  0999 V2000
  190.8830  175.8500  143.0500 C   0  0  2  0  0  3  0  0  0  0  0  0
  192.6320  174.2880  146.6110 O   0  0  0  0  0  1  0  0  0  0  0  0
  192.7860  176.3640  144.7670 C   0  0  1  0  0  3  0  0  0  0  0  0
  191.7440  174.7250  142.4870 C   0  0  0  0  0  2  0  0  0  0  0  0
  194.7530  176.1980  141.0130 C   0  0  0  0  0  2  0  0  0  0  0  0
  193.4910  176.2630  141.7550 N   0  0  0  0  0  2  0  0  0  0  0  0
  193.9780  173.8070  142.0360 C   0  0  0  0  0  2  0  0  0  0  0  0
  189.0910  175.5030  145.4940 F   0  0  0  0  0  0  0  0  0  0  0  0
  192.4410  175.6230  146.9820 C   0  0  2  0  0  3  0  0  0  0  0  0
  193.2390  175.0530  142.5700 C   0  0  2  0  0  0  0  0  0  0  0  0
  193.6400  175.2880  144.0520 C   0  0  1  0  0  3  0  0  0  0  0  0
  190.4820  177.4150  145.0360 C   0  0  0  0  0  2  0  0  0  0  0  0
  194.7190  175.0710  139.9800 C   0  0  0  0  0  2  0  0  0  0  0  0
  194.0250  173.8140  140.5110 C   0  0  0  0  0  2  0  0  0  0  0  0
  191.2720  176.2370  144.4860 C   0  0  1  0  0  0  0  0  0  0  0  0
  190.9610  175.9700  147.0630 C   0  0  0  0  0  2  0  0  0  0  0  0
  193.1390  176.5200  146.1370 O   0  0  0  0  0  0  0  0  0  0  0  0
  190.3440  176.0430  145.6770 C   0  0  2  0  0  0  0  0  0  0  0  0
  188.9220  177.0100  142.1650 C   0  0  0  0  0  0  0  0  0  0  0  0
  189.6800  178.1760  142.2410 O   0  0  0  0  0  1  0  0  0  0  0  0
  189.4320  175.8390  142.6000 C   0  0  0  0  0  0  0  0  0  0  0  0
  188.5580  174.0010  141.0360 C   0  0  0  0  0  1  0  0  0  0  0  0
  189.1380  173.4470  143.3720 C   0  0  0  0  0  1  0  0  0  0  0  0
  188.6300  174.5470  142.4530 C   0  0  0  0  0  3  0  0  0  0  0  0
  187.5620  177.1120  141.5500 C   0  0  0  0  0  2  0  0  0  0  0  0
  186.9440  178.2890  141.9720 O   0  0  0  0  0  1  0  0  0  0  0  0
  195.7220  174.5160  145.2970 C   0  0  0  0  0  1  0  0  0  0  0  0
  195.1640  175.4570  144.2430 C   0  0  2  0  0  3  0  0  0  0  0  0
  195.6500  176.8960  144.4350 C   0  0  0  0  0  2  0  0  0  0  0  0
  196.7580  177.1760  143.6330 O   0  0  0  0  0  1  0  0  0  0  0  0
  1 21  1  1  0  0  0
  1 15  1  0  0  0  0
  3 17  1  1  0  0  0
  4 10  1  0  0  0  0
  4  1  1  0  0  0  0
  5  6  1  0  0  0  0
  6 10  1  0  0  0  0
  9  2  1  6  0  0  0
  9 16  1  0  0  0  0
 10  7  1  6  0  0  0
 10 11  1  0  0  0  0
 11 28  1  6  0  0  0
 11  3  1  0  0  0  0
 12 18  1  0  0  0  0
 13 14  1  0  0  0  0
 13  5  1  0  0  0  0
 14  7  1  0  0  0  0
 15  3  1  0  0  0  0
 15 12  1  6  0  0  0
 15 18  1  0  0  0  0
 17  9  1  0  0  0  0
 18  8  1  6  0  0  0
 18 16  1  0  0  0  0
 19 20  1  0  0  0  0
 19 21  2  0  0  0  0
 22 24  1  0  0  0  0
 24 21  1  0  0  0  0
 24 23  1  0  0  0  0
 25 26  1  0  0  0  0
 25 19  1  0  0  0  0
 28 29  1  0  0  0  0
 28 27  1  1  0  0  0
 30 29  1  0  0  0  0
M  END
>  <MODEL>
7

>  <REMARK>
 VINA RESULT:      -5.9      3.030      6.174
  Name = 
  5 active torsions:
  status: ('A' for Active; 'I' for Inactive)
    1  A    between atoms: C_1  and  C_22
    2  A    between atoms: C_2  and  C_14
    3  A    between atoms: C_7  and  C_30
    4  A    between atoms: C_13  and  C_30
    5  A    between atoms: C_22  and  C_29
                            x       y       z     vdW  Elec       q    Type
                         _______ _______ _______ _____ _____    ______ ____

>  <TORSDO>
F 5

$$$$
=
 OpenBabel11052417103D

 30 33  0  0  1  0  0  0  0  0999 V2000
  190.4940  174.8090  144.6080 C   0  0  2  0  0  3  0  0  0  0  0  0
  192.1230  172.2350  141.6260 O   0  0  0  0  0  1  0  0  0  0  0  0
  192.0090  172.6920  144.3670 C   0  0  1  0  0  3  0  0  0  0  0  0
  191.6530  175.6530  144.0910 C   0  0  0  0  0  2  0  0  0  0  0  0
  194.3910  175.4690  146.5130 C   0  0  0  0  0  2  0  0  0  0  0  0
  193.0700  175.0990  145.9980 N   0  0  0  0  0  2  0  0  0  0  0  0
  194.0760  175.9930  143.8680 C   0  0  0  0  0  2  0  0  0  0  0  0
  188.5550  173.3440  142.7640 F   0  0  0  0  0  0  0  0  0  0  0  0
  191.5860  171.2940  142.5110 C   0  0  2  0  0  3  0  0  0  0  0  0
  193.0110  175.0860  144.5190 C   0  0  2  0  0  0  0  0  0  0  0  0
  193.1680  173.6410  143.9700 C   0  0  1  0  0  3  0  0  0  0  0  0
  189.5080  172.4530  144.7880 C   0  0  0  0  0  2  0  0  0  0  0  0
  194.7420  176.9070  146.1260 C   0  0  0  0  0  2  0  0  0  0  0  0
  194.3010  177.2510  144.7010 C   0  0  0  0  0  2  0  0  0  0  0  0
  190.6100  173.3290  144.2090 C   0  0  1  0  0  0  0  0  0  0  0  0
  190.0670  171.3830  142.5590 C   0  0  0  0  0  2  0  0  0  0  0  0
  192.1510  171.3920  143.8060 O   0  0  0  0  0  0  0  0  0  0  0  0
  189.6180  172.6400  143.2820 C   0  0  2  0  0  0  0  0  0  0  0  0
  188.5660  175.6450  145.8570 C   0  0  0  0  0  0  0  0  0  0  0  0
  189.1420  175.0550  146.9790 O   0  0  0  0  0  1  0  0  0  0  0  0
  189.1480  175.5140  144.6480 C   0  0  0  0  0  0  0  0  0  0  0  0
  187.0610  176.0260  143.2460 C   0  0  0  0  0  1  0  0  0  0  0  0
  188.8590  177.7090  143.4210 C   0  0  0  0  0  1  0  0  0  0  0  0
  188.5570  176.2190  143.4270 C   0  0  0  0  0  3  0  0  0  0  0  0
  187.3220  176.4490  146.0650 C   0  0  0  0  0  2  0  0  0  0  0  0
  187.6010  177.5410  146.8870 O   0  0  0  0  0  1  0  0  0  0  0  0
  195.2400  172.5940  142.9250 C   0  0  0  0  0  1  0  0  0  0  0  0
  194.5770  173.0560  144.2120 C   0  0  2  0  0  3  0  0  0  0  0  0
  194.6760  172.0070  145.3230 C   0  0  0  0  0  2  0  0  0  0  0  0
  195.9910  171.8450  145.7630 O   0  0  0  0  0  1  0  0  0  0  0  0
  1 21  1  6  0  0  0
  3 17  1  6  0  0  0
  4 10  1  0  0  0  0
  4  1  1  0  0  0  0
  6  5  1  0  0  0  0
  7 14  1  0  0  0  0
  9  2  1  6  0  0  0
  9 16  1  0  0  0  0
  9 17  1  0  0  0  0
 10  7  1  6  0  0  0
 10  6  1  0  0  0  0
 11 28  1  1  0  0  0
 11  3  1  0  0  0  0
 11 10  1  0  0  0  0
 13  5  1  0  0  0  0
 14 13  1  0  0  0  0
 15  3  1  0  0  0  0
 15  1  1  0  0  0  0
 15 12  1  1  0  0  0
 16 18  1  0  0  0  0
 18  8  1  6  0  0  0
 18 15  1  0  0  0  0
 18 12  1  0  0  0  0
 19 25  1  0  0  0  0
 19 20  1  0  0  0  0
 21 19  2  0  0  0  0
 22 24  1  0  0  0  0
 23 24  1  0  0  0  0
 24 21  1  0  0  0  0
 25 26  1  0  0  0  0
 28 27  1  6  0  0  0
 28 29  1  0  0  0  0
 29 30  1  0  0  0  0
M  END
>  <MODEL>
8

>  <REMARK>
 VINA RESULT:      -5.9      2.966      6.886
  Name = 
  5 active torsions:
  status: ('A' for Active; 'I' for Inactive)
    1  A    between atoms: C_1  and  C_22
    2  A    between atoms: C_2  and  C_14
    3  A    between atoms: C_7  and  C_30
    4  A    between atoms: C_13  and  C_30
    5  A    between atoms: C_22  and  C_29
                            x       y       z     vdW  Elec       q    Type
                         _______ _______ _______ _____ _____    ______ ____

>  <TORSDO>
F 5

$$$$
=
 OpenBabel11052417103D

 30 33  0  0  1  0  0  0  0  0999 V2000
  190.4350  175.4960  143.9570 C   0  0  2  0  0  3  0  0  0  0  0  0
  193.9500  174.1750  145.9760 O   0  0  0  0  0  1  0  0  0  0  0  0
  192.9980  175.1700  143.5600 C   0  0  1  0  0  3  0  0  0  0  0  0
  190.2670  173.9820  143.8830 C   0  0  0  0  0  2  0  0  0  0  0  0
  191.1460  172.8860  140.5030 C   0  0  0  0  0  2  0  0  0  0  0  0
  191.0120  173.8910  141.5610 N   0  0  0  0  0  2  0  0  0  0  0  0
  191.0270  171.8200  142.9970 C   0  0  0  0  0  2  0  0  0  0  0  0
  191.2530  176.9510  146.5100 F   0  0  0  0  0  0  0  0  0  0  0  0
  194.3980  175.3910  145.4480 C   0  0  2  0  0  3  0  0  0  0  0  0
  191.2660  173.3430  142.9130 C   0  0  2  0  0  0  0  0  0  0  0  0
  192.7160  173.6580  143.3740 C   0  0  1  0  0  3  0  0  0  0  0  0
  192.0800  177.4270  144.3000 C   0  0  0  0  0  2  0  0  0  0  0  0
  190.0870  171.7930  140.6540 C   0  0  0  0  0  2  0  0  0  0  0  0
  189.8530  171.4050  142.1160 C   0  0  0  0  0  2  0  0  0  0  0  0
  191.8710  175.9200  144.3050 C   0  0  1  0  0  0  0  0  0  0  0  0
  193.6710  176.5710  146.0780 C   0  0  0  0  0  2  0  0  0  0  0  0
  194.3160  175.4250  144.0350 O   0  0  0  0  0  0  0  0  0  0  0  0
  192.2330  176.6440  145.5940 C   0  0  2  0  0  0  0  0  0  0  0  0
  188.6710  177.1660  143.6820 C   0  0  0  0  0  0  0  0  0  0  0  0
  189.2530  177.4560  142.4500 O   0  0  0  0  0  1  0  0  0  0  0  0
  189.2340  176.2520  144.5000 C   0  0  0  0  0  0  0  0  0  0  0  0
  189.2080  174.7210  146.5590 C   0  0  0  0  0  1  0  0  0  0  0  0
  188.4610  177.0660  146.7680 C   0  0  0  0  0  1  0  0  0  0  0  0
  188.5610  175.8810  145.8200 C   0  0  0  0  0  3  0  0  0  0  0  0
  187.3970  177.8700  144.0240 C   0  0  0  0  0  2  0  0  0  0  0  0
  186.8800  178.4840  142.8840 O   0  0  0  0  0  1  0  0  0  0  0  0
  194.6990  172.0610  143.4180 C   0  0  0  0  0  1  0  0  0  0  0  0
  193.7860  172.9090  142.5480 C   0  0  2  0  0  3  0  0  0  0  0  0
  194.5690  173.7670  141.5500 C   0  0  0  0  0  2  0  0  0  0  0  0
  195.9480  173.6180  141.7150 O   0  0  0  0  0  1  0  0  0  0  0  0
  1 15  1  0  0  0  0
  1 21  1  1  0  0  0
  3 17  1  1  0  0  0
  3 15  1  0  0  0  0
  4  1  1  0  0  0  0
  5 13  1  0  0  0  0
  5  6  1  0  0  0  0
  6 10  1  0  0  0  0
  9  2  1  1  0  0  0
  9 16  1  0  0  0  0
 10  7  1  6  0  0  0
 10 11  1  0  0  0  0
 10  4  1  0  0  0  0
 11 28  1  6  0  0  0
 11  3  1  0  0  0  0
 12 18  1  0  0  0  0
 13 14  1  0  0  0  0
 14  7  1  0  0  0  0
 15 12  1  6  0  0  0
 15 18  1  0  0  0  0
 17  9  1  0  0  0  0
 18 16  1  0  0  0  0
 18  8  1  1  0  0  0
 19 25  1  0  0  0  0
 19 21  2  0  0  0  0
 20 19  1  0  0  0  0
 21 24  1  0  0  0  0
 24 22  1  0  0  0  0
 24 23  1  0  0  0  0
 26 25  1  0  0  0  0
 28 27  1  1  0  0  0
 29 30  1  0  0  0  0
 29 28  1  0  0  0  0
M  END
>  <MODEL>
9

>  <REMARK>
 VINA RESULT:      -5.9      2.541      6.393
  Name = 
  5 active torsions:
  status: ('A' for Active; 'I' for Inactive)
    1  A    between atoms: C_1  and  C_22
    2  A    between atoms: C_2  and  C_14
    3  A    between atoms: C_7  and  C_30
    4  A    between atoms: C_13  and  C_30
    5  A    between atoms: C_22  and  C_29
                            x       y       z     vdW  Elec       q    Type
                         _______ _______ _______ _____ _____    ______ ____

>  <TORSDO>
F 5

$$$$
