=
 OpenBabel11052419103D

 32 37  0  0  1  0  0  0  0  0999 V2000
  189.3320  175.4050  144.6730 C   0  0  0  0  0  0  0  0  0  0  0  0
  187.2620  176.6660  144.6510 C   0  0  0  0  0  0  0  0  0  0  0  0
  190.3520  174.5870  145.4290 C   0  0  0  0  0  2  0  0  0  0  0  0
  188.2410  175.9770  145.3590 C   0  0  0  0  0  0  0  0  0  0  0  0
  186.1230  177.2400  145.3870 C   0  0  0  0  0  0  0  0  0  0  0  0
  185.1460  178.3050  140.4870 C   0  0  0  0  0  2  0  0  0  0  0  0
  187.3780  176.8240  143.2670 C   0  0  0  0  0  0  0  0  0  0  0  0
  184.1680  178.6360  142.6790 O   0  0  0  0  0  0  0  0  0  0  0  0
  185.0130  177.6560  143.2250 C   0  0  2  0  0  3  0  0  0  0  0  0
  188.1850  176.0360  146.8710 C   0  0  1  0  0  3  0  0  0  0  0  0
  185.0860  177.7670  144.7260 C   0  0  0  0  0  3  0  0  0  0  0  0
  186.8490  176.0260  147.3490 O   0  0  0  0  0  0  0  0  0  0  0  0
  188.9840  174.9030  147.5020 C   0  0  0  0  0  2  0  0  0  0  0  0
  188.4470  176.2860  142.6180 N   0  0  0  0  0  0  0  0  0  0  0  0
  189.4040  175.5610  143.2670 C   0  0  0  0  0  0  0  0  0  0  0  0
  186.4040  177.7340  142.5640 C   0  0  2  0  0  3  0  0  0  0  0  0
  186.1530  177.1810  146.8890 C   0  0  1  0  0  3  0  0  0  0  0  0
  190.3930  174.9120  146.9230 C   0  0  0  0  0  2  0  0  0  0  0  0
  183.8870  178.2230  141.3600 C   0  0  0  0  0  2  0  0  0  0  0  0
  186.2400  177.4150  141.0800 C   0  0  0  0  0  2  0  0  0  0  0  0
  192.7670  175.0070  141.5780 C   0  0  0  0  0  0  0  0  0  0  0  0
  194.0230  175.5930  141.4810 O   0  0  0  0  0  1  0  0  0  0  0  0
  190.5010  174.9690  142.4690 C   0  0  0  0  0  0  0  0  0  0  0  0
  192.5080  173.8290  140.8740 C   0  0  0  0  0  3  0  0  0  0  0  0
  190.2580  173.7900  141.7510 C   0  0  0  0  0  3  0  0  0  0  0  0
  191.7680  175.5860  142.3770 C   0  0  0  0  0  0  0  0  0  0  0  0
  192.1450  177.0500  143.2870 Cl  0  0  0  0  0  0  0  0  0  0  0  0
  191.2510  173.2140  140.9570 C   0  0  0  0  0  0  0  0  0  0  0  0
  189.7970  171.8780  139.4670 C   0  0  0  0  0  1  0  0  0  0  0  0
  190.9640  172.0350  140.2620 O   0  0  0  0  0  0  0  0  0  0  0  0
  186.6970  178.4710  147.4960 C   0  0  0  0  0  2  0  0  0  0  0  0
  185.6680  179.4010  147.6330 O   0  0  0  0  0  1  0  0  0  0  0  0
  1  4  1  0  0  0  0
  1  3  1  0  0  0  0
  2  4  2  0  0  0  0
  2  5  1  0  0  0  0
  3 18  1  0  0  0  0
  4 10  1  0  0  0  0
  5 17  1  0  0  0  0
  6 20  1  0  0  0  0
  6 19  1  0  0  0  0
  7  2  1  0  0  0  0
  8  9  1  0  0  0  0
  9 11  1  1  0  0  0
 10 12  1  0  0  0  0
 10 13  1  1  0  0  0
 11  5  2  0  0  0  0
 14  7  2  0  0  0  0
 14 15  1  0  0  0  0
 15  1  2  0  0  0  0
 16 20  1  6  0  0  0
 16  9  1  0  0  0  0
 16  7  1  0  0  0  0
 17 12  1  0  0  0  0
 17 31  1  1  0  0  0
 18 13  1  0  0  0  0
 19  8  1  0  0  0  0
 21 26  1  0  0  0  0
 22 21  1  0  0  0  0
 23 15  1  0  0  0  0
 24 28  1  0  0  0  0
 24 21  2  0  0  0  0
 25 23  1  0  0  0  0
 26 23  2  0  0  0  0
 26 27  1  0  0  0  0
 28 25  2  0  0  0  0
 29 30  1  0  0  0  0
 30 28  1  0  0  0  0
 31 32  1  0  0  0  0
M  END
>  <MODEL>
1

>  <REMARK>
 VINA RESULT:      -8.6      0.000      0.000
  Name = 
  3 active torsions:
  status: ('A' for Active; 'I' for Inactive)
    1  A    between atoms: C_13  and  C_29
    2  A    between atoms: O_15  and  C_26
    3  A    between atoms: C_16  and  C_27
                            x       y       z     vdW  Elec       q    Type
                         _______ _______ _______ _____ _____    ______ ____

>  <TORSDO>
F 3

$$$$
=
 OpenBabel11052419103D

 32 37  0  0  1  0  0  0  0  0999 V2000
  189.3710  175.3680  144.6450 C   0  0  0  0  0  0  0  0  0  0  0  0
  187.3030  176.6320  144.6240 C   0  0  0  0  0  0  0  0  0  0  0  0
  190.3900  174.5470  145.4000 C   0  0  0  0  0  2  0  0  0  0  0  0
  188.2800  175.9400  145.3310 C   0  0  0  0  0  0  0  0  0  0  0  0
  186.1640  177.2070  145.3600 C   0  0  0  0  0  0  0  0  0  0  0  0
  185.1910  178.2810  140.4610 C   0  0  0  0  0  2  0  0  0  0  0  0
  187.4200  176.7920  143.2400 C   0  0  0  0  0  0  0  0  0  0  0  0
  184.2120  178.6100  142.6540 O   0  0  0  0  0  0  0  0  0  0  0  0
  185.0560  177.6280  143.1990 C   0  0  2  0  0  3  0  0  0  0  0  0
  188.2240  175.9970  146.8430 C   0  0  1  0  0  3  0  0  0  0  0  0
  185.1280  177.7360  144.7000 C   0  0  0  0  0  3  0  0  0  0  0  0
  186.8880  175.9880  147.3200 O   0  0  0  0  0  0  0  0  0  0  0  0
  189.0210  174.8620  147.4730 C   0  0  0  0  0  2  0  0  0  0  0  0
  188.4880  176.2530  142.5910 N   0  0  0  0  0  0  0  0  0  0  0  0
  189.4440  175.5260  143.2390 C   0  0  0  0  0  0  0  0  0  0  0  0
  186.4470  177.7050  142.5380 C   0  0  2  0  0  3  0  0  0  0  0  0
  186.1930  177.1450  146.8620 C   0  0  1  0  0  3  0  0  0  0  0  0
  190.4300  174.8690  146.8940 C   0  0  0  0  0  2  0  0  0  0  0  0
  183.9310  178.2000  141.3340 C   0  0  0  0  0  2  0  0  0  0  0  0
  186.2830  177.3880  141.0530 C   0  0  0  0  0  2  0  0  0  0  0  0
  191.4780  173.1440  141.0820 C   0  0  0  0  0  0  0  0  0  0  0  0
  191.3570  171.9210  140.4340 O   0  0  0  0  0  1  0  0  0  0  0  0
  190.5400  174.9330  142.4410 C   0  0  0  0  0  0  0  0  0  0  0  0
  192.6900  173.8350  141.0110 C   0  0  0  0  0  3  0  0  0  0  0  0
  191.7660  175.6100  142.3630 C   0  0  0  0  0  3  0  0  0  0  0  0
  190.3980  173.6840  141.7970 C   0  0  0  0  0  0  0  0  0  0  0  0
  188.8690  172.8040  141.8300 Cl  0  0  0  0  0  0  0  0  0  0  0  0
  192.8390  175.0730  141.6510 C   0  0  0  0  0  0  0  0  0  0  0  0
  194.8810  175.9620  142.7300 C   0  0  0  0  0  1  0  0  0  0  0  0
  194.0410  175.7860  141.5970 O   0  0  0  0  0  0  0  0  0  0  0  0
  186.7390  178.4330  147.4720 C   0  0  0  0  0  2  0  0  0  0  0  0
  185.7090  179.3610  147.6180 O   0  0  0  0  0  1  0  0  0  0  0  0
  1  4  1  0  0  0  0
  1  3  1  0  0  0  0
  2  4  2  0  0  0  0
  2  5  1  0  0  0  0
  3 18  1  0  0  0  0
  4 10  1  0  0  0  0
  5 17  1  0  0  0  0
  6 20  1  0  0  0  0
  6 19  1  0  0  0  0
  7  2  1  0  0  0  0
  8  9  1  0  0  0  0
  9 11  1  1  0  0  0
 10 12  1  0  0  0  0
 10 13  1  1  0  0  0
 11  5  2  0  0  0  0
 14 15  1  0  0  0  0
 14  7  2  0  0  0  0
 15  1  2  0  0  0  0
 16 20  1  6  0  0  0
 16  9  1  0  0  0  0
 16  7  1  0  0  0  0
 17 12  1  0  0  0  0
 17 31  1  1  0  0  0
 18 13  1  0  0  0  0
 19  8  1  0  0  0  0
 21 26  1  0  0  0  0
 22 21  1  0  0  0  0
 23 15  1  0  0  0  0
 24 21  2  0  0  0  0
 24 28  1  0  0  0  0
 25 23  1  0  0  0  0
 26 27  1  0  0  0  0
 26 23  2  0  0  0  0
 28 25  2  0  0  0  0
 30 28  1  0  0  0  0
 30 29  1  0  0  0  0
 31 32  1  0  0  0  0
M  END
>  <MODEL>
2

>  <REMARK>
 VINA RESULT:      -8.5      1.096      2.200
  Name = 
  3 active torsions:
  status: ('A' for Active; 'I' for Inactive)
    1  A    between atoms: C_13  and  C_29
    2  A    between atoms: O_15  and  C_26
    3  A    between atoms: C_16  and  C_27
                            x       y       z     vdW  Elec       q    Type
                         _______ _______ _______ _____ _____    ______ ____

>  <TORSDO>
F 3

$$$$
=
 OpenBabel11052419103D

 32 37  0  0  1  0  0  0  0  0999 V2000
  191.7180  174.8740  145.5070 C   0  0  0  0  0  0  0  0  0  0  0  0
  189.9310  174.9770  143.8720 C   0  0  0  0  0  0  0  0  0  0  0  0
  192.2380  175.1840  146.8910 C   0  0  0  0  0  2  0  0  0  0  0  0
  190.4400  175.3260  145.1180 C   0  0  0  0  0  0  0  0  0  0  0  0
  188.5870  175.4470  143.4950 C   0  0  0  0  0  0  0  0  0  0  0  0
  190.0970  172.5840  139.5420 C   0  0  0  0  0  2  0  0  0  0  0  0
  190.6990  174.2100  142.9910 C   0  0  0  0  0  0  0  0  0  0  0  0
  188.1920  173.9090  140.2420 O   0  0  0  0  0  0  0  0  0  0  0  0
  188.6570  173.9120  141.5680 C   0  0  2  0  0  3  0  0  0  0  0  0
  189.6670  176.3430  145.9310 C   0  0  1  0  0  3  0  0  0  0  0  0
  188.0020  175.0000  142.3770 C   0  0  0  0  0  3  0  0  0  0  0  0
  188.2660  176.1850  145.7750 O   0  0  0  0  0  0  0  0  0  0  0  0
  190.0480  176.2840  147.4050 C   0  0  0  0  0  2  0  0  0  0  0  0
  191.9400  173.7970  143.3690 N   0  0  0  0  0  0  0  0  0  0  0  0
  192.4580  174.0760  144.6000 C   0  0  0  0  0  0  0  0  0  0  0  0
  190.1950  174.0120  141.5840 C   0  0  2  0  0  3  0  0  0  0  0  0
  187.8930  176.4080  144.4190 C   0  0  1  0  0  3  0  0  0  0  0  0
  191.5620  176.3990  147.5270 C   0  0  0  0  0  2  0  0  0  0  0  0
  188.5710  172.6660  139.6940 C   0  0  0  0  0  2  0  0  0  0  0  0
  190.7580  172.7640  140.9090 C   0  0  0  0  0  2  0  0  0  0  0  0
  196.2160  173.7440  145.0830 C   0  0  0  0  0  0  0  0  0  0  0  0
  197.3810  174.4880  144.9420 O   0  0  0  0  0  1  0  0  0  0  0  0
  193.7940  173.5380  144.9410 C   0  0  0  0  0  0  0  0  0  0  0  0
  196.3000  172.4250  145.5330 C   0  0  0  0  0  3  0  0  0  0  0  0
  193.8990  172.2140  145.3890 C   0  0  0  0  0  3  0  0  0  0  0  0
  194.9670  174.3090  144.7820 C   0  0  0  0  0  0  0  0  0  0  0  0
  194.8940  175.9920  144.2570 Cl  0  0  0  0  0  0  0  0  0  0  0  0
  195.1410  171.6530  145.6890 C   0  0  0  0  0  0  0  0  0  0  0  0
  196.3630  169.7630  146.7170 C   0  0  0  0  0  1  0  0  0  0  0  0
  195.1960  170.3300  146.1370 O   0  0  0  0  0  0  0  0  0  0  0  0
  188.0980  177.8580  143.9870 C   0  0  0  0  0  2  0  0  0  0  0  0
  187.0070  178.2860  143.2330 O   0  0  0  0  0  1  0  0  0  0  0  0
  1  3  1  0  0  0  0
  2  4  2  0  0  0  0
  3 18  1  0  0  0  0
  4  1  1  0  0  0  0
  4 10  1  0  0  0  0
  5  2  1  0  0  0  0
  5 17  1  0  0  0  0
  6 19  1  0  0  0  0
  6 20  1  0  0  0  0
  7 14  2  0  0  0  0
  7  2  1  0  0  0  0
  8  9  1  0  0  0  0
  9 16  1  0  0  0  0
  9 11  1  1  0  0  0
 10 13  1  1  0  0  0
 11  5  2  0  0  0  0
 12 10  1  0  0  0  0
 13 18  1  0  0  0  0
 14 15  1  0  0  0  0
 15 23  1  0  0  0  0
 15  1  2  0  0  0  0
 16 20  1  1  0  0  0
 16  7  1  0  0  0  0
 17 31  1  6  0  0  0
 17 12  1  0  0  0  0
 19  8  1  0  0  0  0
 21 24  1  0  0  0  0
 22 21  1  0  0  0  0
 23 25  2  0  0  0  0
 24 28  2  0  0  0  0
 25 28  1  0  0  0  0
 26 23  1  0  0  0  0
 26 21  2  0  0  0  0
 27 26  1  0  0  0  0
 28 30  1  0  0  0  0
 30 29  1  0  0  0  0
 32 31  1  0  0  0  0
M  END
>  <MODEL>
3

>  <REMARK>
 VINA RESULT:      -7.4      3.366      4.979
  Name = 
  3 active torsions:
  status: ('A' for Active; 'I' for Inactive)
    1  A    between atoms: C_13  and  C_29
    2  A    between atoms: O_15  and  C_26
    3  A    between atoms: C_16  and  C_27
                            x       y       z     vdW  Elec       q    Type
                         _______ _______ _______ _____ _____    ______ ____

>  <TORSDO>
F 3

$$$$
=
 OpenBabel11052419103D

 32 37  0  0  1  0  0  0  0  0999 V2000
  190.8200  175.8670  144.8860 C   0  0  0  0  0  0  0  0  0  0  0  0
  191.5170  174.3910  143.0950 C   0  0  0  0  0  0  0  0  0  0  0  0
  191.1740  176.7570  146.0540 C   0  0  0  0  0  2  0  0  0  0  0  0
  191.8320  175.1500  144.2160 C   0  0  0  0  0  0  0  0  0  0  0  0
  192.5940  173.6630  142.4010 C   0  0  0  0  0  0  0  0  0  0  0  0
  188.4170  172.7210  139.6160 C   0  0  0  0  0  2  0  0  0  0  0  0
  190.1930  174.3090  142.6530 C   0  0  0  0  0  0  0  0  0  0  0  0
  190.7800  172.1860  139.6390 O   0  0  0  0  0  0  0  0  0  0  0  0
  191.0260  173.2270  140.5500 C   0  0  2  0  0  3  0  0  0  0  0  0
  193.2300  175.0170  144.7820 C   0  0  1  0  0  3  0  0  0  0  0  0
  192.3580  173.0570  141.2320 C   0  0  0  0  0  3  0  0  0  0  0  0
  194.1990  174.8600  143.7580 O   0  0  0  0  0  0  0  0  0  0  0  0
  193.5850  176.2000  145.6730 C   0  0  0  0  0  2  0  0  0  0  0  0
  189.2210  174.9890  143.3200 N   0  0  0  0  0  0  0  0  0  0  0  0
  189.4930  175.7840  144.3950 C   0  0  0  0  0  0  0  0  0  0  0  0
  189.8610  173.3310  141.5550 C   0  0  2  0  0  3  0  0  0  0  0  0
  193.9580  173.6580  143.0320 C   0  0  1  0  0  3  0  0  0  0  0  0
  192.4940  176.3720  146.7230 C   0  0  0  0  0  2  0  0  0  0  0  0
  189.7230  172.6250  138.8150 C   0  0  0  0  0  2  0  0  0  0  0  0
  188.5990  173.6970  140.7790 C   0  0  0  0  0  2  0  0  0  0  0  0
  186.8010  176.8950  146.8410 C   0  0  0  0  0  0  0  0  0  0  0  0
  186.3060  176.5800  148.1000 O   0  0  0  0  0  1  0  0  0  0  0  0
  188.3790  176.5280  145.0230 C   0  0  0  0  0  0  0  0  0  0  0  0
  186.2100  177.9320  146.1160 C   0  0  0  0  0  3  0  0  0  0  0  0
  187.7690  177.5680  144.3090 C   0  0  0  0  0  3  0  0  0  0  0  0
  187.8850  176.1850  146.3010 C   0  0  0  0  0  0  0  0  0  0  0  0
  188.6350  174.9100  147.2630 Cl  0  0  0  0  0  0  0  0  0  0  0  0
  186.6920  178.2740  144.8460 C   0  0  0  0  0  0  0  0  0  0  0  0
  184.7710  179.7240  144.2700 C   0  0  0  0  0  1  0  0  0  0  0  0
  186.1180  179.3070  144.0980 O   0  0  0  0  0  0  0  0  0  0  0  0
  194.1860  172.4080  143.8790 C   0  0  0  0  0  2  0  0  0  0  0  0
  195.5260  172.3310  144.2570 O   0  0  0  0  0  1  0  0  0  0  0  0
  1  3  1  0  0  0  0
  2  4  1  0  0  0  0
  3 18  1  0  0  0  0
  4 10  1  0  0  0  0
  4  1  2  0  0  0  0
  5 17  1  0  0  0  0
  5  2  1  0  0  0  0
  6 20  1  0  0  0  0
  7  2  2  0  0  0  0
  7 14  1  0  0  0  0
  8  9  1  0  0  0  0
  9 11  1  1  0  0  0
  9 16  1  0  0  0  0
 10 13  1  6  0  0  0
 11  5  2  0  0  0  0
 12 10  1  0  0  0  0
 13 18  1  0  0  0  0
 14 15  2  0  0  0  0
 15  1  1  0  0  0  0
 15 23  1  0  0  0  0
 16 20  1  6  0  0  0
 16  7  1  0  0  0  0
 17 12  1  0  0  0  0
 17 31  1  1  0  0  0
 19  6  1  0  0  0  0
 19  8  1  0  0  0  0
 21 22  1  0  0  0  0
 23 26  2  0  0  0  0
 24 21  2  0  0  0  0
 25 28  2  0  0  0  0
 25 23  1  0  0  0  0
 26 21  1  0  0  0  0
 26 27  1  0  0  0  0
 28 24  1  0  0  0  0
 30 29  1  0  0  0  0
 30 28  1  0  0  0  0
 31 32  1  0  0  0  0
M  END
>  <MODEL>
4

>  <REMARK>
 VINA RESULT:      -7.4      2.168      7.178
  Name = 
  3 active torsions:
  status: ('A' for Active; 'I' for Inactive)
    1  A    between atoms: C_13  and  C_29
    2  A    between atoms: O_15  and  C_26
    3  A    between atoms: C_16  and  C_27
                            x       y       z     vdW  Elec       q    Type
                         _______ _______ _______ _____ _____    ______ ____

>  <TORSDO>
F 3

$$$$
=
 OpenBabel11052419103D

 32 37  0  0  1  0  0  0  0  0999 V2000
  187.4820  176.0600  141.5260 C   0  0  0  0  0  0  0  0  0  0  0  0
  185.8950  177.3510  142.8240 C   0  0  0  0  0  0  0  0  0  0  0  0
  188.0910  175.7040  140.1900 C   0  0  0  0  0  2  0  0  0  0  0  0
  186.4040  176.9660  141.5890 C   0  0  0  0  0  0  0  0  0  0  0  0
  184.7780  178.3110  142.8670 C   0  0  0  0  0  0  0  0  0  0  0  0
  185.8770  177.4140  147.7740 C   0  0  0  0  0  2  0  0  0  0  0  0
  186.4260  176.8130  144.0000 C   0  0  0  0  0  0  0  0  0  0  0  0
  184.3390  178.7240  146.4350 O   0  0  0  0  0  0  0  0  0  0  0  0
  185.1360  178.5300  145.2950 C   0  0  2  0  0  3  0  0  0  0  0  0
  185.6450  177.3970  140.3520 C   0  0  1  0  0  3  0  0  0  0  0  0
  184.3700  178.8250  144.0320 C   0  0  0  0  0  3  0  0  0  0  0  0
  185.0940  178.6960  140.5000 O   0  0  0  0  0  0  0  0  0  0  0  0
  186.5210  177.3280  139.1080 C   0  0  0  0  0  2  0  0  0  0  0  0
  187.4530  175.9230  143.9260 N   0  0  0  0  0  0  0  0  0  0  0  0
  188.0150  175.5560  142.7380 C   0  0  0  0  0  0  0  0  0  0  0  0
  185.7270  177.1060  145.3040 C   0  0  2  0  0  3  0  0  0  0  0  0
  184.1460  178.7120  141.5630 C   0  0  1  0  0  3  0  0  0  0  0  0
  187.1380  175.9380  139.0160 C   0  0  0  0  0  2  0  0  0  0  0  0
  185.2250  178.7830  147.5310 C   0  0  0  0  0  2  0  0  0  0  0  0
  186.6390  176.9800  146.5210 C   0  0  0  0  0  2  0  0  0  0  0  0
  190.1180  172.3910  142.5750 C   0  0  0  0  0  0  0  0  0  0  0  0
  189.9850  171.0310  142.3200 O   0  0  0  0  0  1  0  0  0  0  0  0
  189.1640  174.6230  142.7600 C   0  0  0  0  0  0  0  0  0  0  0  0
  191.3760  172.9040  142.8980 C   0  0  0  0  0  3  0  0  0  0  0  0
  190.4340  175.1190  143.0880 C   0  0  0  0  0  3  0  0  0  0  0  0
  189.0050  173.2430  142.5060 C   0  0  0  0  0  0  0  0  0  0  0  0
  187.4390  172.5680  142.0530 Cl  0  0  0  0  0  0  0  0  0  0  0  0
  191.5410  174.2710  143.1550 C   0  0  0  0  0  0  0  0  0  0  0  0
  193.8780  174.0140  143.9240 C   0  0  0  0  0  1  0  0  0  0  0  0
  192.7890  174.8110  143.4810 O   0  0  0  0  0  0  0  0  0  0  0  0
  182.9070  177.8770  141.2530 C   0  0  0  0  0  2  0  0  0  0  0  0
  181.8950  178.6970  140.7570 O   0  0  0  0  0  1  0  0  0  0  0  0
  1  4  2  0  0  0  0
  1 15  1  0  0  0  0
  2  5  1  0  0  0  0
  2  7  2  0  0  0  0
  3  1  1  0  0  0  0
  4  2  1  0  0  0  0
  5 11  2  0  0  0  0
  7 16  1  0  0  0  0
  8 19  1  0  0  0  0
  9 11  1  6  0  0  0
  9 16  1  0  0  0  0
  9  8  1  0  0  0  0
 10 13  1  6  0  0  0
 10 12  1  0  0  0  0
 10  4  1  0  0  0  0
 12 17  1  0  0  0  0
 14  7  1  0  0  0  0
 15 23  1  0  0  0  0
 15 14  2  0  0  0  0
 16 20  1  1  0  0  0
 17 31  1  6  0  0  0
 17  5  1  0  0  0  0
 18 13  1  0  0  0  0
 18  3  1  0  0  0  0
 19  6  1  0  0  0  0
 20  6  1  0  0  0  0
 21 24  1  0  0  0  0
 22 21  1  0  0  0  0
 23 25  2  0  0  0  0
 24 28  2  0  0  0  0
 25 28  1  0  0  0  0
 26 21  2  0  0  0  0
 26 23  1  0  0  0  0
 27 26  1  0  0  0  0
 28 30  1  0  0  0  0
 30 29  1  0  0  0  0
 32 31  1  0  0  0  0
M  END
>  <MODEL>
5

>  <REMARK>
 VINA RESULT:      -7.3      2.278      5.144
  Name = 
  3 active torsions:
  status: ('A' for Active; 'I' for Inactive)
    1  A    between atoms: C_13  and  C_29
    2  A    between atoms: O_15  and  C_26
    3  A    between atoms: C_16  and  C_27
                            x       y       z     vdW  Elec       q    Type
                         _______ _______ _______ _____ _____    ______ ____

>  <TORSDO>
F 3

$$$$
=
 OpenBabel11052419103D

 32 37  0  0  1  0  0  0  0  0999 V2000
  187.4720  176.1690  141.6320 C   0  0  0  0  0  0  0  0  0  0  0  0
  185.9050  177.4280  142.9860 C   0  0  0  0  0  0  0  0  0  0  0  0
  188.0370  175.8220  140.2750 C   0  0  0  0  0  2  0  0  0  0  0  0
  186.3760  177.0500  141.7340 C   0  0  0  0  0  0  0  0  0  0  0  0
  184.7700  178.3620  143.0680 C   0  0  0  0  0  0  0  0  0  0  0  0
  186.0760  177.5120  147.9330 C   0  0  0  0  0  2  0  0  0  0  0  0
  186.4940  176.9080  144.1430 C   0  0  0  0  0  0  0  0  0  0  0  0
  184.4580  178.7800  146.6500 O   0  0  0  0  0  0  0  0  0  0  0  0
  185.2150  178.5990  145.4810 C   0  0  2  0  0  3  0  0  0  0  0  0
  185.5600  177.4580  140.5260 C   0  0  1  0  0  3  0  0  0  0  0  0
  184.3950  178.8720  144.2470 C   0  0  0  0  0  3  0  0  0  0  0  0
  184.9860  178.7450  140.6900 O   0  0  0  0  0  0  0  0  0  0  0  0
  186.3890  177.4050  139.2490 C   0  0  0  0  0  2  0  0  0  0  0  0
  187.5380  176.0410  144.0320 N   0  0  0  0  0  0  0  0  0  0  0  0
  188.0620  175.6820  142.8240 C   0  0  0  0  0  0  0  0  0  0  0  0
  185.8390  177.1890  145.4710 C   0  0  2  0  0  3  0  0  0  0  0  0
  184.0790  178.7430  141.7890 C   0  0  1  0  0  3  0  0  0  0  0  0
  187.0340  176.0290  139.1380 C   0  0  0  0  0  2  0  0  0  0  0  0
  185.3840  178.8630  147.7100 C   0  0  0  0  0  2  0  0  0  0  0  0
  186.8000  177.0900  146.6530 C   0  0  0  0  0  2  0  0  0  0  0  0
  191.6340  174.3770  142.7890 C   0  0  0  0  0  0  0  0  0  0  0  0
  192.9430  174.8430  142.8380 O   0  0  0  0  0  1  0  0  0  0  0  0
  189.2330  174.7770  142.8050 C   0  0  0  0  0  0  0  0  0  0  0  0
  191.4040  173.0040  142.6850 C   0  0  0  0  0  3  0  0  0  0  0  0
  189.0210  173.3950  142.6950 C   0  0  0  0  0  3  0  0  0  0  0  0
  190.5550  175.2720  142.8470 C   0  0  0  0  0  0  0  0  0  0  0  0
  190.8830  176.9970  143.0220 Cl  0  0  0  0  0  0  0  0  0  0  0  0
  190.0950  172.5050  142.6380 C   0  0  0  0  0  0  0  0  0  0  0  0
  190.7450  170.2250  141.9330 C   0  0  0  0  0  1  0  0  0  0  0  0
  189.8340  171.1360  142.5340 O   0  0  0  0  0  0  0  0  0  0  0  0
  182.8480  177.8780  141.5290 C   0  0  0  0  0  2  0  0  0  0  0  0
  182.1060  178.4140  140.4780 O   0  0  0  0  0  1  0  0  0  0  0  0
  1  4  2  0  0  0  0
  1 15  1  0  0  0  0
  2  5  1  0  0  0  0
  2  7  2  0  0  0  0
  3  1  1  0  0  0  0
  4  2  1  0  0  0  0
  5 11  2  0  0  0  0
  7 16  1  0  0  0  0
  8 19  1  0  0  0  0
  9 11  1  6  0  0  0
  9  8  1  0  0  0  0
 10 13  1  6  0  0  0
 10 12  1  0  0  0  0
 10  4  1  0  0  0  0
 12 17  1  0  0  0  0
 14  7  1  0  0  0  0
 15 14  2  0  0  0  0
 16  9  1  0  0  0  0
 16 20  1  1  0  0  0
 17 31  1  6  0  0  0
 17  5  1  0  0  0  0
 18 13  1  0  0  0  0
 18  3  1  0  0  0  0
 19  6  1  0  0  0  0
 20  6  1  0  0  0  0
 21 22  1  0  0  0  0
 21 26  1  0  0  0  0
 23 15  1  0  0  0  0
 23 26  2  0  0  0  0
 24 21  2  0  0  0  0
 25 23  1  0  0  0  0
 26 27  1  0  0  0  0
 28 24  1  0  0  0  0
 28 25  2  0  0  0  0
 29 30  1  0  0  0  0
 30 28  1  0  0  0  0
 32 31  1  0  0  0  0
M  END
>  <MODEL>
6

>  <REMARK>
 VINA RESULT:      -7.3      1.916      4.668
  Name = 
  3 active torsions:
  status: ('A' for Active; 'I' for Inactive)
    1  A    between atoms: C_13  and  C_29
    2  A    between atoms: O_15  and  C_26
    3  A    between atoms: C_16  and  C_27
                            x       y       z     vdW  Elec       q    Type
                         _______ _______ _______ _____ _____    ______ ____

>  <TORSDO>
F 3

$$$$
=
 OpenBabel11052419103D

 32 37  0  0  1  0  0  0  0  0999 V2000
  189.1600  175.2170  142.9820 C   0  0  0  0  0  0  0  0  0  0  0  0
  191.5260  174.6930  142.9660 C   0  0  0  0  0  0  0  0  0  0  0  0
  187.7750  175.0120  142.4140 C   0  0  0  0  0  2  0  0  0  0  0  0
  190.2640  174.5640  142.3970 C   0  0  0  0  0  0  0  0  0  0  0  0
  192.6620  173.9880  142.3480 C   0  0  0  0  0  0  0  0  0  0  0  0
  194.6620  176.2720  146.4560 C   0  0  0  0  0  2  0  0  0  0  0  0
  191.7080  175.4990  144.0940 C   0  0  0  0  0  0  0  0  0  0  0  0
  195.3470  174.8510  144.6160 O   0  0  0  0  0  0  0  0  0  0  0  0
  194.0070  174.5300  144.3400 C   0  0  2  0  0  3  0  0  0  0  0  0
  190.1680  173.8730  141.0530 C   0  0  1  0  0  3  0  0  0  0  0  0
  193.8530  173.9580  142.9550 C   0  0  0  0  0  3  0  0  0  0  0  0
  191.0880  172.7980  140.9480 O   0  0  0  0  0  0  0  0  0  0  0  0
  188.7510  173.3890  140.7760 C   0  0  0  0  0  2  0  0  0  0  0  0
  190.6380  176.1420  144.6370 N   0  0  0  0  0  0  0  0  0  0  0  0
  189.3750  176.0040  144.1400 C   0  0  0  0  0  0  0  0  0  0  0  0
  193.1140  175.7660  144.5670 C   0  0  2  0  0  3  0  0  0  0  0  0
  192.4250  173.2820  141.0410 C   0  0  1  0  0  3  0  0  0  0  0  0
  187.7880  174.5560  140.9540 C   0  0  0  0  0  2  0  0  0  0  0  0
  195.4320  175.0190  146.0140 C   0  0  0  0  0  2  0  0  0  0  0  0
  193.1950  176.1430  146.0440 C   0  0  0  0  0  2  0  0  0  0  0  0
  186.7550  176.9780  146.7200 C   0  0  0  0  0  0  0  0  0  0  0  0
  186.3230  176.6200  147.9910 O   0  0  0  0  0  1  0  0  0  0  0  0
  188.2660  176.6990  144.8310 C   0  0  0  0  0  0  0  0  0  0  0  0
  186.1040  178.0120  146.0440 C   0  0  0  0  0  3  0  0  0  0  0  0
  187.5960  177.7360  144.1660 C   0  0  0  0  0  3  0  0  0  0  0  0
  187.8360  176.3130  146.1200 C   0  0  0  0  0  0  0  0  0  0  0  0
  188.6630  175.0410  147.0200 Cl  0  0  0  0  0  0  0  0  0  0  0  0
  186.5220  178.3970  144.7630 C   0  0  0  0  0  0  0  0  0  0  0  0
  184.5030  179.4020  143.7460 C   0  0  0  0  0  1  0  0  0  0  0  0
  185.8880  179.4290  144.0640 O   0  0  0  0  0  0  0  0  0  0  0  0
  192.8150  174.1520  139.8490 C   0  0  0  0  0  2  0  0  0  0  0  0
  194.1120  173.8420  139.4410 O   0  0  0  0  0  1  0  0  0  0  0  0
  1 15  1  0  0  0  0
  2  7  2  0  0  0  0
  3  1  1  0  0  0  0
  4  2  1  0  0  0  0
  4  1  2  0  0  0  0
  5 11  2  0  0  0  0
  5  2  1  0  0  0  0
  7 16  1  0  0  0  0
  7 14  1  0  0  0  0
  8 19  1  0  0  0  0
  9 11  1  6  0  0  0
  9 16  1  0  0  0  0
  9  8  1  0  0  0  0
 10 13  1  1  0  0  0
 10  4  1  0  0  0  0
 12 17  1  0  0  0  0
 12 10  1  0  0  0  0
 13 18  1  0  0  0  0
 15 14  2  0  0  0  0
 15 23  1  0  0  0  0
 16 20  1  1  0  0  0
 17 31  1  6  0  0  0
 17  5  1  0  0  0  0
 18  3  1  0  0  0  0
 19  6  1  0  0  0  0
 20  6  1  0  0  0  0
 21 22  1  0  0  0  0
 23 26  2  0  0  0  0
 24 21  2  0  0  0  0
 25 28  2  0  0  0  0
 25 23  1  0  0  0  0
 26 21  1  0  0  0  0
 26 27  1  0  0  0  0
 28 24  1  0  0  0  0
 29 30  1  0  0  0  0
 30 28  1  0  0  0  0
 32 31  1  0  0  0  0
M  END
>  <MODEL>
7

>  <REMARK>
 VINA RESULT:      -7.3      2.347      8.096
  Name = 
  3 active torsions:
  status: ('A' for Active; 'I' for Inactive)
    1  A    between atoms: C_13  and  C_29
    2  A    between atoms: O_15  and  C_26
    3  A    between atoms: C_16  and  C_27
                            x       y       z     vdW  Elec       q    Type
                         _______ _______ _______ _____ _____    ______ ____

>  <TORSDO>
F 3

$$$$
=
 OpenBabel11052419103D

 32 37  0  0  1  0  0  0  0  0999 V2000
  188.8610  176.4900  143.6750 C   0  0  0  0  0  0  0  0  0  0  0  0
  190.1850  174.7780  142.5840 C   0  0  0  0  0  0  0  0  0  0  0  0
  188.7470  177.5960  144.6980 C   0  0  0  0  0  2  0  0  0  0  0  0
  190.0540  175.7450  143.5750 C   0  0  0  0  0  0  0  0  0  0  0  0
  191.4470  174.0240  142.4870 C   0  0  0  0  0  0  0  0  0  0  0  0
  188.6230  172.2910  138.6000 C   0  0  0  0  0  2  0  0  0  0  0  0
  189.1240  174.5200  141.7120 C   0  0  0  0  0  0  0  0  0  0  0  0
  190.8080  171.9500  139.5910 O   0  0  0  0  0  0  0  0  0  0  0  0
  190.6890  173.1500  140.3110 C   0  0  2  0  0  3  0  0  0  0  0  0
  191.1380  175.8210  144.6290 C   0  0  1  0  0  3  0  0  0  0  0  0
  191.6690  173.2050  141.4530 C   0  0  0  0  0  3  0  0  0  0  0  0
  192.4210  175.5590  144.0820 O   0  0  0  0  0  0  0  0  0  0  0  0
  191.1280  177.1660  145.3430 C   0  0  0  0  0  2  0  0  0  0  0  0
  187.9690  175.2310  141.8320 N   0  0  0  0  0  0  0  0  0  0  0  0
  187.8160  176.2210  142.7580 C   0  0  0  0  0  0  0  0  0  0  0  0
  189.2320  173.3410  140.7780 C   0  0  2  0  0  3  0  0  0  0  0  0
  192.4760  174.2340  143.5640 C   0  0  1  0  0  3  0  0  0  0  0  0
  189.7230  177.4360  145.8650 C   0  0  0  0  0  2  0  0  0  0  0  0
  190.1340  172.1550  138.3690 C   0  0  0  0  0  2  0  0  0  0  0  0
  188.3510  173.4680  139.5380 C   0  0  0  0  0  2  0  0  0  0  0  0
  184.7760  178.2290  141.6660 C   0  0  0  0  0  0  0  0  0  0  0  0
  184.1850  178.7310  140.5130 O   0  0  0  0  0  1  0  0  0  0  0  0
  186.5430  176.9770  142.7780 C   0  0  0  0  0  0  0  0  0  0  0  0
  184.1710  178.4690  142.9020 C   0  0  0  0  0  3  0  0  0  0  0  0
  185.9250  177.2320  144.0090 C   0  0  0  0  0  3  0  0  0  0  0  0
  185.9640  177.4860  141.5940 C   0  0  0  0  0  0  0  0  0  0  0  0
  186.6770  177.1660  140.0120 Cl  0  0  0  0  0  0  0  0  0  0  0  0
  184.7420  177.9710  144.0800 C   0  0  0  0  0  0  0  0  0  0  0  0
  184.7640  177.7780  146.5470 C   0  0  0  0  0  1  0  0  0  0  0  0
  184.1590  178.1960  145.3310 O   0  0  0  0  0  0  0  0  0  0  0  0
  192.3750  173.1740  144.6580 C   0  0  0  0  0  2  0  0  0  0  0  0
  193.4630  173.2820  145.5230 O   0  0  0  0  0  1  0  0  0  0  0  0
  1  3  1  0  0  0  0
  2  4  2  0  0  0  0
  3 18  1  0  0  0  0
  4  1  1  0  0  0  0
  4 10  1  0  0  0  0
  5  2  1  0  0  0  0
  5 17  1  0  0  0  0
  6 20  1  0  0  0  0
  7 14  2  0  0  0  0
  7  2  1  0  0  0  0
  8  9  1  0  0  0  0
  9 16  1  0  0  0  0
  9 11  1  1  0  0  0
 10 13  1  6  0  0  0
 11  5  2  0  0  0  0
 12 10  1  0  0  0  0
 13 18  1  0  0  0  0
 14 15  1  0  0  0  0
 15 23  1  0  0  0  0
 15  1  2  0  0  0  0
 16 20  1  6  0  0  0
 16  7  1  0  0  0  0
 17 12  1  0  0  0  0
 17 31  1  1  0  0  0
 19  6  1  0  0  0  0
 19  8  1  0  0  0  0
 21 24  1  0  0  0  0
 22 21  1  0  0  0  0
 23 25  2  0  0  0  0
 24 28  2  0  0  0  0
 25 28  1  0  0  0  0
 26 21  2  0  0  0  0
 26 23  1  0  0  0  0
 27 26  1  0  0  0  0
 28 30  1  0  0  0  0
 30 29  1  0  0  0  0
 31 32  1  0  0  0  0
M  END
>  <MODEL>
8

>  <REMARK>
 VINA RESULT:      -7.3      2.100      6.935
  Name = 
  3 active torsions:
  status: ('A' for Active; 'I' for Inactive)
    1  A    between atoms: C_13  and  C_29
    2  A    between atoms: O_15  and  C_26
    3  A    between atoms: C_16  and  C_27
                            x       y       z     vdW  Elec       q    Type
                         _______ _______ _______ _____ _____    ______ ____

>  <TORSDO>
F 3

$$$$
=
 OpenBabel11052419103D

 32 37  0  0  1  0  0  0  0  0999 V2000
  189.3920  175.0070  142.3730 C   0  0  0  0  0  0  0  0  0  0  0  0
  191.7450  174.5310  142.7000 C   0  0  0  0  0  0  0  0  0  0  0  0
  188.0860  174.7100  141.6730 C   0  0  0  0  0  2  0  0  0  0  0  0
  190.5610  174.3120  142.0050 C   0  0  0  0  0  0  0  0  0  0  0  0
  192.9510  173.7810  142.3080 C   0  0  0  0  0  0  0  0  0  0  0  0
  194.4310  176.5680  146.3250 C   0  0  0  0  0  2  0  0  0  0  0  0
  191.7850  175.4670  143.7380 C   0  0  0  0  0  0  0  0  0  0  0  0
  195.3390  174.9560  144.7600 O   0  0  0  0  0  0  0  0  0  0  0  0
  194.0440  174.5790  144.3670 C   0  0  2  0  0  3  0  0  0  0  0  0
  190.6310  173.4660  140.7500 C   0  0  1  0  0  3  0  0  0  0  0  0
  194.0610  173.8460  143.0520 C   0  0  0  0  0  3  0  0  0  0  0  0
  191.5630  172.4050  140.8830 O   0  0  0  0  0  0  0  0  0  0  0  0
  189.2600  172.9250  140.3660 C   0  0  0  0  0  2  0  0  0  0  0  0
  190.6550  176.1480  144.0710 N   0  0  0  0  0  0  0  0  0  0  0  0
  189.4610  175.9280  143.4470 C   0  0  0  0  0  0  0  0  0  0  0  0
  193.1230  175.8150  144.3390 C   0  0  2  0  0  3  0  0  0  0  0  0
  192.8760  172.9230  141.0750 C   0  0  1  0  0  3  0  0  0  0  0  0
  188.2760  174.0860  140.2890 C   0  0  0  0  0  2  0  0  0  0  0  0
  195.2550  175.2880  146.1280 C   0  0  0  0  0  2  0  0  0  0  0  0
  193.0240  176.3640  145.7600 C   0  0  0  0  0  2  0  0  0  0  0  0
  186.6080  178.4340  143.6540 C   0  0  0  0  0  0  0  0  0  0  0  0
  186.0340  179.4630  142.9170 O   0  0  0  0  0  1  0  0  0  0  0  0
  188.2730  176.6770  143.9140 C   0  0  0  0  0  0  0  0  0  0  0  0
  186.0700  178.1060  144.9000 C   0  0  0  0  0  3  0  0  0  0  0  0
  187.7230  176.3670  145.1650 C   0  0  0  0  0  3  0  0  0  0  0  0
  187.7120  177.7260  143.1530 C   0  0  0  0  0  0  0  0  0  0  0  0
  188.3380  178.1390  141.5560 Cl  0  0  0  0  0  0  0  0  0  0  0  0
  186.6250  177.0700  145.6630 C   0  0  0  0  0  0  0  0  0  0  0  0
  185.8950  177.6710  147.9490 C   0  0  0  0  0  1  0  0  0  0  0  0
  186.1070  176.7210  146.9140 O   0  0  0  0  0  0  0  0  0  0  0  0
  193.4020  173.6550  139.8430 C   0  0  0  0  0  2  0  0  0  0  0  0
  194.6980  173.2300  139.5580 O   0  0  0  0  0  1  0  0  0  0  0  0
  1 15  1  0  0  0  0
  2  7  2  0  0  0  0
  3  1  1  0  0  0  0
  4  1  2  0  0  0  0
  4  2  1  0  0  0  0
  5  2  1  0  0  0  0
  5 11  2  0  0  0  0
  7 14  1  0  0  0  0
  7 16  1  0  0  0  0
  8 19  1  0  0  0  0
  9 11  1  6  0  0  0
  9  8  1  0  0  0  0
 10 13  1  1  0  0  0
 10 12  1  0  0  0  0
 10  4  1  0  0  0  0
 12 17  1  0  0  0  0
 15 23  1  0  0  0  0
 15 14  2  0  0  0  0
 16  9  1  0  0  0  0
 16 20  1  1  0  0  0
 17 31  1  6  0  0  0
 17  5  1  0  0  0  0
 18 13  1  0  0  0  0
 18  3  1  0  0  0  0
 19  6  1  0  0  0  0
 20  6  1  0  0  0  0
 21 24  1  0  0  0  0
 22 21  1  0  0  0  0
 23 25  2  0  0  0  0
 24 28  2  0  0  0  0
 25 28  1  0  0  0  0
 26 21  2  0  0  0  0
 26 23  1  0  0  0  0
 27 26  1  0  0  0  0
 28 30  1  0  0  0  0
 30 29  1  0  0  0  0
 32 31  1  0  0  0  0
M  END
>  <MODEL>
9

>  <REMARK>
 VINA RESULT:      -7.2      2.237      8.106
  Name = 
  3 active torsions:
  status: ('A' for Active; 'I' for Inactive)
    1  A    between atoms: C_13  and  C_29
    2  A    between atoms: O_15  and  C_26
    3  A    between atoms: C_16  and  C_27
                            x       y       z     vdW  Elec       q    Type
                         _______ _______ _______ _____ _____    ______ ____

>  <TORSDO>
F 3

$$$$
