=
 OpenBabel11052418283D

 27 31  0  0  1  0  0  0  0  0999 V2000
  188.6720  176.4430  145.7290 N   0  0  0  0  0  2  0  0  0  0  0  0
  188.2790  176.3920  143.2480 C   0  0  1  0  0  3  0  0  0  0  0  0
  190.7090  176.1440  143.6070 N   0  0  0  0  0  2  0  0  0  0  0  0
  188.5320  173.9030  139.8780 C   0  0  0  0  0  3  0  0  0  0  0  0
  189.8480  172.7900  138.1920 O   0  0  0  0  0  1  0  0  0  0  0  0
  187.0390  175.5780  142.8730 C   0  0  0  0  0  2  0  0  0  0  0  0
  190.8440  174.3080  141.4030 C   0  0  0  0  0  3  0  0  0  0  0  0
  192.8010  176.4760  146.6600 C   0  0  0  0  0  0  0  0  0  0  0  0
  190.9210  173.6430  140.1760 C   0  0  0  0  0  3  0  0  0  0  0  0
  194.1480  176.5500  146.9840 O   0  0  0  0  0  1  0  0  0  0  0  0
  189.6130  174.7930  141.8650 C   0  0  0  0  0  0  0  0  0  0  0  0
  188.1590  177.1700  144.5720 C   0  0  1  0  0  3  0  0  0  0  0  0
  189.7670  173.4460  139.4120 C   0  0  0  0  0  0  0  0  0  0  0  0
  188.4470  174.5650  141.1070 C   0  0  0  0  0  0  0  0  0  0  0  0
  190.0750  176.3620  146.0090 C   0  0  0  0  0  0  0  0  0  0  0  0
  189.4880  175.4520  143.2150 C   0  0  2  0  0  3  0  0  0  0  0  0
  192.4070  176.4190  145.3220 C   0  0  0  0  0  3  0  0  0  0  0  0
  187.2030  175.0200  141.5670 O   0  0  0  0  0  0  0  0  0  0  0  0
  191.8410  176.4440  147.6720 C   0  0  0  0  0  3  0  0  0  0  0  0
  190.4840  176.3900  147.3470 C   0  0  0  0  0  3  0  0  0  0  0  0
  191.0520  176.3440  144.9830 C   0  0  0  0  0  0  0  0  0  0  0  0
  184.2890  178.8590  145.3950 C   0  0  0  0  0  3  0  0  0  0  0  0
  186.8040  177.7600  144.8360 C   0  0  0  0  0  0  0  0  0  0  0  0
  186.0110  177.2190  145.8540 C   0  0  0  0  0  3  0  0  0  0  0  0
  184.7550  177.7660  146.1310 C   0  0  0  0  0  3  0  0  0  0  0  0
  185.0800  179.4070  144.3810 C   0  0  0  0  0  3  0  0  0  0  0  0
  186.3360  178.8610  144.1020 C   0  0  0  0  0  3  0  0  0  0  0  0
  1 15  1  0  0  0  0
  2  6  1  1  0  0  0
  2 12  1  0  0  0  0
  3 21  1  0  0  0  0
  4 14  1  0  0  0  0
  5 13  1  0  0  0  0
  7 11  1  0  0  0  0
  8 10  1  0  0  0  0
  8 19  1  0  0  0  0
  9  7  2  0  0  0  0
 12 23  1  1  0  0  0
 12  1  1  0  0  0  0
 13  4  2  0  0  0  0
 13  9  1  0  0  0  0
 14 18  1  0  0  0  0
 14 11  2  0  0  0  0
 15 20  1  0  0  0  0
 16 11  1  6  0  0  0
 16  2  1  0  0  0  0
 16  3  1  0  0  0  0
 17  8  2  0  0  0  0
 18  6  1  0  0  0  0
 20 19  2  0  0  0  0
 21 17  1  0  0  0  0
 21 15  2  0  0  0  0
 22 25  1  0  0  0  0
 23 24  1  0  0  0  0
 24 25  2  0  0  0  0
 26 22  2  0  0  0  0
 27 26  1  0  0  0  0
 27 23  2  0  0  0  0
M  END
>  <MODEL>
1

>  <REMARK>
 VINA RESULT:      -8.4      0.000      0.000
  Name = 
  1 active torsions:
  status: ('A' for Active; 'I' for Inactive)
    1  A    between atoms: C_9  and  C_15
                            x       y       z     vdW  Elec       q    Type
                         _______ _______ _______ _____ _____    ______ ____

>  <TORSDO>
F 1

$$$$
=
 OpenBabel11052418283D

 27 31  0  0  1  0  0  0  0  0999 V2000
  190.7140  174.4360  143.5250 N   0  0  0  0  0  2  0  0  0  0  0  0
  189.8990  176.3510  144.9330 C   0  0  1  0  0  3  0  0  0  0  0  0
  188.4130  176.2070  142.9670 N   0  0  0  0  0  2  0  0  0  0  0  0
  186.6610  177.6300  147.2760 C   0  0  0  0  0  3  0  0  0  0  0  0
  184.4150  178.4900  147.4520 O   0  0  0  0  0  1  0  0  0  0  0  0
  189.9350  176.0280  146.4280 C   0  0  0  0  0  2  0  0  0  0  0  0
  186.1710  176.9180  144.6130 C   0  0  0  0  0  3  0  0  0  0  0  0
  188.6320  174.1990  139.8470 C   0  0  0  0  0  0  0  0  0  0  0  0
  185.1670  177.5240  145.3730 C   0  0  0  0  0  3  0  0  0  0  0  0
  188.0050  174.1430  138.6110 O   0  0  0  0  0  1  0  0  0  0  0  0
  187.4340  176.6850  145.1740 C   0  0  0  0  0  0  0  0  0  0  0  0
  191.0470  175.7290  144.1150 C   0  0  1  0  0  3  0  0  0  0  0  0
  185.4130  177.8840  146.7010 C   0  0  0  0  0  0  0  0  0  0  0  0
  187.6700  177.0210  146.5230 C   0  0  0  0  0  0  0  0  0  0  0  0
  189.9290  174.3310  142.3310 C   0  0  0  0  0  0  0  0  0  0  0  0
  188.5140  175.9720  144.4010 C   0  0  2  0  0  3  0  0  0  0  0  0
  188.2830  175.1930  140.7630 C   0  0  0  0  0  3  0  0  0  0  0  0
  188.9190  176.7700  147.1070 O   0  0  0  0  0  0  0  0  0  0  0  0
  189.6030  173.2540  140.1800 C   0  0  0  0  0  3  0  0  0  0  0  0
  190.2500  173.3220  141.4160 C   0  0  0  0  0  3  0  0  0  0  0  0
  188.9080  175.2610  142.0120 C   0  0  0  0  0  0  0  0  0  0  0  0
  194.8730  175.5970  146.0790 C   0  0  0  0  0  3  0  0  0  0  0  0
  192.3750  175.7010  144.8150 C   0  0  0  0  0  0  0  0  0  0  0  0
  192.9260  174.4690  145.1850 C   0  0  0  0  0  3  0  0  0  0  0  0
  194.1710  174.4170  145.8180 C   0  0  0  0  0  3  0  0  0  0  0  0
  194.3310  176.8300  145.7040 C   0  0  0  0  0  3  0  0  0  0  0  0
  193.0860  176.8830  145.0720 C   0  0  0  0  0  3  0  0  0  0  0  0
  1 12  1  0  0  0  0
  2  6  1  1  0  0  0
  6 18  1  0  0  0  0
  7 11  2  0  0  0  0
  7  9  1  0  0  0  0
  8 19  2  0  0  0  0
  8 17  1  0  0  0  0
  9 13  2  0  0  0  0
 10  8  1  0  0  0  0
 11 14  1  0  0  0  0
 12 23  1  1  0  0  0
 12  2  1  0  0  0  0
 13  4  1  0  0  0  0
 13  5  1  0  0  0  0
 14 18  1  0  0  0  0
 14  4  2  0  0  0  0
 15  1  1  0  0  0  0
 16  3  1  6  0  0  0
 16  2  1  0  0  0  0
 16 11  1  0  0  0  0
 17 21  2  0  0  0  0
 19 20  1  0  0  0  0
 20 15  2  0  0  0  0
 21 15  1  0  0  0  0
 21  3  1  0  0  0  0
 23 27  2  0  0  0  0
 23 24  1  0  0  0  0
 24 25  2  0  0  0  0
 25 22  1  0  0  0  0
 26 22  2  0  0  0  0
 27 26  1  0  0  0  0
M  END
>  <MODEL>
2

>  <REMARK>
 VINA RESULT:      -8.3      2.235      7.214
  Name = 
  1 active torsions:
  status: ('A' for Active; 'I' for Inactive)
    1  A    between atoms: C_9  and  C_15
                            x       y       z     vdW  Elec       q    Type
                         _______ _______ _______ _____ _____    ______ ____

>  <TORSDO>
F 1

$$$$
=
 OpenBabel11052418283D

 27 31  0  0  1  0  0  0  0  0999 V2000
  187.4950  177.0650  142.5640 N   0  0  0  0  0  2  0  0  0  0  0  0
  188.7450  176.4020  144.6420 C   0  0  1  0  0  3  0  0  0  0  0  0
  189.5060  174.9120  142.8250 N   0  0  0  0  0  2  0  0  0  0  0  0
  192.5830  176.2860  146.3340 C   0  0  0  0  0  3  0  0  0  0  0  0
  194.7730  175.2870  146.4910 O   0  0  0  0  0  1  0  0  0  0  0  0
  189.1950  177.6130  145.4600 C   0  0  0  0  0  2  0  0  0  0  0  0
  192.1700  174.9760  143.8940 C   0  0  0  0  0  3  0  0  0  0  0  0
  188.2600  174.4060  139.3600 C   0  0  0  0  0  0  0  0  0  0  0  0
  193.3740  174.8090  144.5850 C   0  0  0  0  0  3  0  0  0  0  0  0
  188.4500  173.5120  138.3170 O   0  0  0  0  0  1  0  0  0  0  0  0
  191.1570  175.7820  144.4310 C   0  0  0  0  0  0  0  0  0  0  0  0
  187.3860  176.5740  143.9350 C   0  0  1  0  0  3  0  0  0  0  0  0
  193.5780  175.4590  145.8050 C   0  0  0  0  0  0  0  0  0  0  0  0
  191.3780  176.4600  145.6470 C   0  0  0  0  0  0  0  0  0  0  0  0
  187.8470  176.1990  141.4790 C   0  0  0  0  0  0  0  0  0  0  0  0
  189.8770  176.0350  143.6770 C   0  0  2  0  0  3  0  0  0  0  0  0
  188.9000  174.1980  140.5840 C   0  0  0  0  0  3  0  0  0  0  0  0
  190.3850  177.2920  146.1830 O   0  0  0  0  0  0  0  0  0  0  0  0
  187.4410  175.5220  139.1830 C   0  0  0  0  0  3  0  0  0  0  0  0
  187.2340  176.4120  140.2390 C   0  0  0  0  0  3  0  0  0  0  0  0
  188.7170  175.0930  141.6430 C   0  0  0  0  0  0  0  0  0  0  0  0
  184.4100  178.7660  146.1360 C   0  0  0  0  0  3  0  0  0  0  0  0
  186.3590  177.3340  144.7230 C   0  0  0  0  0  0  0  0  0  0  0  0
  185.9450  178.5910  144.2710 C   0  0  0  0  0  3  0  0  0  0  0  0
  184.9730  179.3070  144.9770 C   0  0  0  0  0  3  0  0  0  0  0  0
  184.8160  177.5080  146.5880 C   0  0  0  0  0  3  0  0  0  0  0  0
  185.7870  176.7910  145.8840 C   0  0  0  0  0  3  0  0  0  0  0  0
  1 12  1  0  0  0  0
  2  6  1  6  0  0  0
  6 18  1  0  0  0  0
  7 11  2  0  0  0  0
  7  9  1  0  0  0  0
  8 17  1  0  0  0  0
  9 13  2  0  0  0  0
 10  8  1  0  0  0  0
 11 14  1  0  0  0  0
 12  2  1  0  0  0  0
 12 23  1  1  0  0  0
 13  4  1  0  0  0  0
 13  5  1  0  0  0  0
 14 18  1  0  0  0  0
 14  4  2  0  0  0  0
 15 21  1  0  0  0  0
 15  1  1  0  0  0  0
 16  3  1  1  0  0  0
 16 11  1  0  0  0  0
 16  2  1  0  0  0  0
 17 21  2  0  0  0  0
 19  8  2  0  0  0  0
 19 20  1  0  0  0  0
 20 15  2  0  0  0  0
 21  3  1  0  0  0  0
 22 26  1  0  0  0  0
 23 27  1  0  0  0  0
 24 23  2  0  0  0  0
 24 25  1  0  0  0  0
 25 22  2  0  0  0  0
 27 26  2  0  0  0  0
M  END
>  <MODEL>
3

>  <REMARK>
 VINA RESULT:      -8.2      1.602      5.542
  Name = 
  1 active torsions:
  status: ('A' for Active; 'I' for Inactive)
    1  A    between atoms: C_9  and  C_15
                            x       y       z     vdW  Elec       q    Type
                         _______ _______ _______ _____ _____    ______ ____

>  <TORSDO>
F 1

$$$$
=
 OpenBabel11052418283D

 27 31  0  0  1  0  0  0  0  0999 V2000
  190.5420  174.3300  143.4630 N   0  0  0  0  0  2  0  0  0  0  0  0
  189.6620  176.4660  144.4510 C   0  0  1  0  0  3  0  0  0  0  0  0
  188.3210  175.9880  142.4340 N   0  0  0  0  0  2  0  0  0  0  0  0
  186.2850  178.1520  146.2860 C   0  0  0  0  0  3  0  0  0  0  0  0
  184.0480  179.0410  146.1400 O   0  0  0  0  0  1  0  0  0  0  0  0
  189.5830  176.4100  145.9780 C   0  0  0  0  0  2  0  0  0  0  0  0
  185.9780  176.9880  143.7590 C   0  0  0  0  0  3  0  0  0  0  0  0
  188.7310  173.4640  139.7370 C   0  0  0  0  0  0  0  0  0  0  0  0
  184.9310  177.7220  144.3240 C   0  0  0  0  0  3  0  0  0  0  0  0
  188.1940  173.1960  138.4860 O   0  0  0  0  0  1  0  0  0  0  0  0
  187.1920  176.8500  144.4450 C   0  0  0  0  0  0  0  0  0  0  0  0
  190.8550  175.7050  143.8430 C   0  0  1  0  0  3  0  0  0  0  0  0
  185.0860  178.3080  145.5830 C   0  0  0  0  0  0  0  0  0  0  0  0
  187.3340  177.4160  145.7280 C   0  0  0  0  0  0  0  0  0  0  0  0
  189.8450  174.0220  142.2500 C   0  0  0  0  0  0  0  0  0  0  0  0
  188.3120  176.0070  143.8910 C   0  0  2  0  0  3  0  0  0  0  0  0
  188.3330  174.6050  140.4370 C   0  0  0  0  0  3  0  0  0  0  0  0
  188.5330  177.2640  146.4390 O   0  0  0  0  0  0  0  0  0  0  0  0
  189.6580  172.5870  140.3010 C   0  0  0  0  0  3  0  0  0  0  0  0
  190.2140  172.8670  141.5510 C   0  0  0  0  0  3  0  0  0  0  0  0
  188.8670  174.8870  141.6980 C   0  0  0  0  0  0  0  0  0  0  0  0
  194.4810  176.0170  146.1360 C   0  0  0  0  0  3  0  0  0  0  0  0
  192.1270  175.7930  144.6340 C   0  0  0  0  0  0  0  0  0  0  0  0
  192.8450  176.9940  144.6420 C   0  0  0  0  0  3  0  0  0  0  0  0
  194.0210  177.1060  145.3890 C   0  0  0  0  0  3  0  0  0  0  0  0
  193.7640  174.8170  146.1380 C   0  0  0  0  0  3  0  0  0  0  0  0
  192.5890  174.7050  145.3910 C   0  0  0  0  0  3  0  0  0  0  0  0
  1 12  1  0  0  0  0
  2  6  1  1  0  0  0
  6 18  1  0  0  0  0
  7  9  2  0  0  0  0
  7 11  1  0  0  0  0
  8 19  2  0  0  0  0
  8 17  1  0  0  0  0
  9 13  1  0  0  0  0
 10  8  1  0  0  0  0
 11 14  2  0  0  0  0
 12  2  1  0  0  0  0
 12 23  1  1  0  0  0
 13  5  1  0  0  0  0
 13  4  2  0  0  0  0
 14  4  1  0  0  0  0
 14 18  1  0  0  0  0
 15  1  1  0  0  0  0
 16  3  1  6  0  0  0
 16 11  1  0  0  0  0
 16  2  1  0  0  0  0
 17 21  2  0  0  0  0
 19 20  1  0  0  0  0
 20 15  2  0  0  0  0
 21 15  1  0  0  0  0
 21  3  1  0  0  0  0
 22 26  1  0  0  0  0
 23 24  2  0  0  0  0
 23 27  1  0  0  0  0
 24 25  1  0  0  0  0
 25 22  2  0  0  0  0
 27 26  2  0  0  0  0
M  END
>  <MODEL>
4

>  <REMARK>
 VINA RESULT:      -8.1      2.165      7.075
  Name = 
  1 active torsions:
  status: ('A' for Active; 'I' for Inactive)
    1  A    between atoms: C_9  and  C_15
                            x       y       z     vdW  Elec       q    Type
                         _______ _______ _______ _____ _____    ______ ____

>  <TORSDO>
F 1

$$$$
=
 OpenBabel11052418283D

 27 31  0  0  1  0  0  0  0  0999 V2000
  188.6700  175.1870  141.7000 N   0  0  0  0  0  2  0  0  0  0  0  0
  188.3130  176.1210  144.0050 C   0  0  1  0  0  3  0  0  0  0  0  0
  189.4500  173.9450  144.2680 N   0  0  0  0  0  2  0  0  0  0  0  0
  190.3540  177.5830  147.3680 C   0  0  0  0  0  3  0  0  0  0  0  0
  191.6780  177.1950  149.3460 O   0  0  0  0  0  1  0  0  0  0  0  0
  188.5840  177.6250  144.0710 C   0  0  0  0  0  2  0  0  0  0  0  0
  190.9670  175.0070  146.4620 C   0  0  0  0  0  3  0  0  0  0  0  0
  190.2150  171.2480  141.8280 C   0  0  0  0  0  0  0  0  0  0  0  0
  191.4810  175.4630  147.6790 C   0  0  0  0  0  3  0  0  0  0  0  0
  190.6620  169.9350  141.8490 O   0  0  0  0  0  1  0  0  0  0  0  0
  190.1260  175.8290  145.7010 C   0  0  0  0  0  0  0  0  0  0  0  0
  187.6880  175.6390  142.6820 C   0  0  1  0  0  3  0  0  0  0  0  0
  191.1710  176.7470  148.1340 C   0  0  0  0  0  0  0  0  0  0  0  0
  189.8400  177.1350  146.1470 C   0  0  0  0  0  0  0  0  0  0  0  0
  189.2760  173.8920  141.7800 C   0  0  0  0  0  0  0  0  0  0  0  0
  189.6130  175.3910  144.3530 C   0  0  2  0  0  3  0  0  0  0  0  0
  189.9840  171.9270  143.0260 C   0  0  0  0  0  3  0  0  0  0  0  0
  189.0220  177.9800  145.3850 O   0  0  0  0  0  0  0  0  0  0  0  0
  190.0090  171.8960  140.6090 C   0  0  0  0  0  3  0  0  0  0  0  0
  189.5390  173.2110  140.5860 C   0  0  0  0  0  3  0  0  0  0  0  0
  189.5330  173.2510  143.0180 C   0  0  0  0  0  0  0  0  0  0  0  0
  184.8110  178.2950  140.9000 C   0  0  0  0  0  3  0  0  0  0  0  0
  186.6850  176.5790  142.0800 C   0  0  0  0  0  0  0  0  0  0  0  0
  186.8600  177.0110  140.7610 C   0  0  0  0  0  3  0  0  0  0  0  0
  185.9260  177.8700  140.1720 C   0  0  0  0  0  3  0  0  0  0  0  0
  184.6280  177.8610  142.2160 C   0  0  0  0  0  3  0  0  0  0  0  0
  185.5610  177.0040  142.8050 C   0  0  0  0  0  3  0  0  0  0  0  0
  1 15  1  0  0  0  0
  1 12  1  0  0  0  0
  2  6  1  6  0  0  0
  2 16  1  0  0  0  0
  4 13  1  0  0  0  0
  6 18  1  0  0  0  0
  7  9  1  0  0  0  0
  8 10  1  0  0  0  0
  8 17  1  0  0  0  0
  9 13  2  0  0  0  0
 11 14  1  0  0  0  0
 11  7  2  0  0  0  0
 12 23  1  6  0  0  0
 12  2  1  0  0  0  0
 13  5  1  0  0  0  0
 14  4  2  0  0  0  0
 15 21  1  0  0  0  0
 16  3  1  1  0  0  0
 16 11  1  0  0  0  0
 18 14  1  0  0  0  0
 19  8  2  0  0  0  0
 20 19  1  0  0  0  0
 20 15  2  0  0  0  0
 21 17  2  0  0  0  0
 21  3  1  0  0  0  0
 22 26  1  0  0  0  0
 23 27  1  0  0  0  0
 24 23  2  0  0  0  0
 25 24  1  0  0  0  0
 25 22  2  0  0  0  0
 26 27  2  0  0  0  0
M  END
>  <MODEL>
5

>  <REMARK>
 VINA RESULT:      -7.7      2.444      5.966
  Name = 
  1 active torsions:
  status: ('A' for Active; 'I' for Inactive)
    1  A    between atoms: C_9  and  C_15
                            x       y       z     vdW  Elec       q    Type
                         _______ _______ _______ _____ _____    ______ ____

>  <TORSDO>
F 1

$$$$
=
 OpenBabel11052418283D

 27 31  0  0  1  0  0  0  0  0999 V2000
  188.2010  176.0840  141.6980 N   0  0  0  0  0  2  0  0  0  0  0  0
  189.2940  176.0290  143.9610 C   0  0  1  0  0  3  0  0  0  0  0  0
  190.0830  174.0450  142.7210 N   0  0  0  0  0  2  0  0  0  0  0  0
  193.0180  176.3020  145.8760 C   0  0  0  0  0  3  0  0  0  0  0  0
  195.1420  175.3280  146.4730 O   0  0  0  0  0  1  0  0  0  0  0  0
  189.7570  177.4140  144.4150 C   0  0  0  0  0  2  0  0  0  0  0  0
  192.6810  174.3410  143.9080 C   0  0  0  0  0  3  0  0  0  0  0  0
  189.0150  172.5720  139.4800 C   0  0  0  0  0  0  0  0  0  0  0  0
  193.8330  174.3490  144.6990 C   0  0  0  0  0  3  0  0  0  0  0  0
  189.2200  171.4030  138.7620 O   0  0  0  0  0  1  0  0  0  0  0  0
  191.6800  175.3010  144.1110 C   0  0  0  0  0  0  0  0  0  0  0  0
  187.9890  176.0260  143.1420 C   0  0  1  0  0  3  0  0  0  0  0  0
  193.9990  175.3250  145.6850 C   0  0  0  0  0  0  0  0  0  0  0  0
  191.8650  176.3020  145.0860 C   0  0  0  0  0  0  0  0  0  0  0  0
  188.5710  174.9240  140.9430 C   0  0  0  0  0  0  0  0  0  0  0  0
  190.4600  175.3580  143.2280 C   0  0  2  0  0  3  0  0  0  0  0  0
  189.5720  172.7170  140.7520 C   0  0  0  0  0  3  0  0  0  0  0  0
  190.8850  177.2860  145.2830 O   0  0  0  0  0  0  0  0  0  0  0  0
  188.2650  173.6100  138.9250 C   0  0  0  0  0  3  0  0  0  0  0  0
  188.0420  174.7790  139.6550 C   0  0  0  0  0  3  0  0  0  0  0  0
  189.3740  173.8900  141.4860 C   0  0  0  0  0  0  0  0  0  0  0  0
  185.0070  178.8670  144.3840 C   0  0  0  0  0  3  0  0  0  0  0  0
  186.9580  177.0160  143.5980 C   0  0  0  0  0  0  0  0  0  0  0  0
  186.7050  178.1480  142.8140 C   0  0  0  0  0  3  0  0  0  0  0  0
  185.7330  179.0730  143.2070 C   0  0  0  0  0  3  0  0  0  0  0  0
  185.2510  177.7350  145.1670 C   0  0  0  0  0  3  0  0  0  0  0  0
  186.2220  176.8100  144.7750 C   0  0  0  0  0  3  0  0  0  0  0  0
  1 12  1  0  0  0  0
  2  6  1  6  0  0  0
  6 18  1  0  0  0  0
  7 11  2  0  0  0  0
  7  9  1  0  0  0  0
  8 17  1  0  0  0  0
  9 13  2  0  0  0  0
 10  8  1  0  0  0  0
 11 14  1  0  0  0  0
 12 23  1  1  0  0  0
 12  2  1  0  0  0  0
 13  4  1  0  0  0  0
 13  5  1  0  0  0  0
 14 18  1  0  0  0  0
 14  4  2  0  0  0  0
 15 21  1  0  0  0  0
 15  1  1  0  0  0  0
 16  3  1  1  0  0  0
 16  2  1  0  0  0  0
 16 11  1  0  0  0  0
 17 21  2  0  0  0  0
 19  8  2  0  0  0  0
 19 20  1  0  0  0  0
 20 15  2  0  0  0  0
 21  3  1  0  0  0  0
 22 26  1  0  0  0  0
 23 27  1  0  0  0  0
 24 25  1  0  0  0  0
 24 23  2  0  0  0  0
 25 22  2  0  0  0  0
 27 26  2  0  0  0  0
M  END
>  <MODEL>
6

>  <REMARK>
 VINA RESULT:      -7.6      1.828      5.678
  Name = 
  1 active torsions:
  status: ('A' for Active; 'I' for Inactive)
    1  A    between atoms: C_9  and  C_15
                            x       y       z     vdW  Elec       q    Type
                         _______ _______ _______ _____ _____    ______ ____

>  <TORSDO>
F 1

$$$$
=
 OpenBabel11052418283D

 27 31  0  0  1  0  0  0  0  0999 V2000
  190.0790  175.9570  145.2310 N   0  0  0  0  0  2  0  0  0  0  0  0
  189.0680  175.8210  142.9340 C   0  0  1  0  0  3  0  0  0  0  0  0
  191.5180  175.6810  142.6620 N   0  0  0  0  0  2  0  0  0  0  0  0
  188.5660  173.2500  139.6550 C   0  0  0  0  0  3  0  0  0  0  0  0
  189.4580  172.1430  137.7070 O   0  0  0  0  0  1  0  0  0  0  0  0
  187.8120  174.9480  142.9040 C   0  0  0  0  0  2  0  0  0  0  0  0
  191.1700  173.7900  140.5300 C   0  0  0  0  0  3  0  0  0  0  0  0
  194.3030  176.1830  145.0720 C   0  0  0  0  0  0  0  0  0  0  0  0
  190.9620  173.0950  139.3350 C   0  0  0  0  0  3  0  0  0  0  0  0
  195.6830  176.3200  145.0380 O   0  0  0  0  0  1  0  0  0  0  0  0
  190.0770  174.2390  141.2830 C   0  0  0  0  0  0  0  0  0  0  0  0
  189.2550  176.6310  144.2310 C   0  0  1  0  0  3  0  0  0  0  0  0
  189.6620  172.8290  138.8960 C   0  0  0  0  0  0  0  0  0  0  0  0
  188.7670  173.9420  140.8530 C   0  0  0  0  0  0  0  0  0  0  0  0
  191.5090  175.9410  145.1430 C   0  0  0  0  0  0  0  0  0  0  0  0
  190.2710  174.9300  142.6080 C   0  0  2  0  0  3  0  0  0  0  0  0
  193.5830  176.0730  143.8800 C   0  0  0  0  0  3  0  0  0  0  0  0
  187.6630  174.3600  141.6090 O   0  0  0  0  0  0  0  0  0  0  0  0
  193.6350  176.1410  146.2960 C   0  0  0  0  0  3  0  0  0  0  0  0
  192.2440  176.0230  146.3310 C   0  0  0  0  0  3  0  0  0  0  0  0
  192.1910  175.9340  143.9010 C   0  0  0  0  0  0  0  0  0  0  0  0
  185.5880  178.1780  145.8660 C   0  0  0  0  0  3  0  0  0  0  0  0
  187.9860  177.1720  144.8230 C   0  0  0  0  0  0  0  0  0  0  0  0
  187.2800  178.1650  144.1340 C   0  0  0  0  0  3  0  0  0  0  0  0
  186.0850  178.6690  144.6550 C   0  0  0  0  0  3  0  0  0  0  0  0
  186.2860  177.1810  146.5550 C   0  0  0  0  0  3  0  0  0  0  0  0
  187.4810  176.6770  146.0350 C   0  0  0  0  0  3  0  0  0  0  0  0
  2  6  1  1  0  0  0
  2 12  1  0  0  0  0
  3 21  1  0  0  0  0
  4 14  1  0  0  0  0
  5 13  1  0  0  0  0
  7 11  1  0  0  0  0
  8 19  1  0  0  0  0
  9  7  2  0  0  0  0
 10  8  1  0  0  0  0
 12 23  1  1  0  0  0
 12  1  1  0  0  0  0
 13  9  1  0  0  0  0
 13  4  2  0  0  0  0
 14 11  2  0  0  0  0
 14 18  1  0  0  0  0
 15  1  1  0  0  0  0
 15 20  1  0  0  0  0
 16 11  1  6  0  0  0
 16  3  1  0  0  0  0
 16  2  1  0  0  0  0
 17 21  1  0  0  0  0
 17  8  2  0  0  0  0
 18  6  1  0  0  0  0
 19 20  2  0  0  0  0
 21 15  2  0  0  0  0
 22 26  1  0  0  0  0
 23 27  1  0  0  0  0
 24 25  1  0  0  0  0
 24 23  2  0  0  0  0
 25 22  2  0  0  0  0
 27 26  2  0  0  0  0
M  END
>  <MODEL>
7

>  <REMARK>
 VINA RESULT:      -7.5      1.160      1.725
  Name = 
  1 active torsions:
  status: ('A' for Active; 'I' for Inactive)
    1  A    between atoms: C_9  and  C_15
                            x       y       z     vdW  Elec       q    Type
                         _______ _______ _______ _____ _____    ______ ____

>  <TORSDO>
F 1

$$$$
=
 OpenBabel11052418283D

 27 31  0  0  1  0  0  0  0  0999 V2000
  190.8470  175.6620  143.7240 N   0  0  0  0  0  2  0  0  0  0  0  0
  188.4090  175.4580  143.1500 C   0  0  1  0  0  3  0  0  0  0  0  0
  188.5450  176.3200  145.4600 N   0  0  0  0  0  2  0  0  0  0  0  0
  184.9260  177.7140  142.5230 C   0  0  0  0  0  3  0  0  0  0  0  0
  183.0860  179.0090  143.3910 O   0  0  0  0  0  1  0  0  0  0  0  0
  188.1080  175.9150  141.7210 C   0  0  0  0  0  2  0  0  0  0  0  0
  186.2610  177.9890  144.9680 C   0  0  0  0  0  3  0  0  0  0  0  0
  191.4170  176.7070  147.7860 C   0  0  0  0  0  0  0  0  0  0  0  0
  185.0050  178.5730  144.7860 C   0  0  0  0  0  3  0  0  0  0  0  0
  191.6260  176.9890  149.1290 O   0  0  0  0  0  1  0  0  0  0  0  0
  186.8480  177.2450  143.9350 C   0  0  0  0  0  0  0  0  0  0  0  0
  189.7700  174.7590  143.3270 C   0  0  1  0  0  3  0  0  0  0  0  0
  184.3360  178.4320  143.5670 C   0  0  0  0  0  0  0  0  0  0  0  0
  186.1850  177.1300  142.6970 C   0  0  0  0  0  0  0  0  0  0  0  0
  191.0000  176.1040  145.0780 C   0  0  0  0  0  0  0  0  0  0  0  0
  188.2310  176.6620  144.0790 C   0  0  2  0  0  3  0  0  0  0  0  0
  190.1170  176.5800  147.2930 C   0  0  0  0  0  3  0  0  0  0  0  0
  186.7700  176.4130  141.6450 O   0  0  0  0  0  0  0  0  0  0  0  0
  192.5060  176.5650  146.9250 C   0  0  0  0  0  3  0  0  0  0  0  0
  192.2980  176.2620  145.5780 C   0  0  0  0  0  3  0  0  0  0  0  0
  189.8930  176.2970  145.9420 C   0  0  0  0  0  0  0  0  0  0  0  0
  190.9960  172.2200  140.0780 C   0  0  0  0  0  3  0  0  0  0  0  0
  190.1750  173.8720  142.1860 C   0  0  0  0  0  0  0  0  0  0  0  0
  191.2850  174.2220  141.4100 C   0  0  0  0  0  3  0  0  0  0  0  0
  191.6940  173.3990  140.3550 C   0  0  0  0  0  3  0  0  0  0  0  0
  189.8910  171.8620  140.8550 C   0  0  0  0  0  3  0  0  0  0  0  0
  189.4810  172.6840  141.9090 C   0  0  0  0  0  3  0  0  0  0  0  0
  1 15  1  0  0  0  0
  2  6  1  6  0  0  0
  2 12  1  0  0  0  0
  2 16  1  0  0  0  0
  3 21  1  0  0  0  0
  4 14  2  0  0  0  0
  4 13  1  0  0  0  0
  5 13  1  0  0  0  0
  8 10  1  0  0  0  0
  9  7  1  0  0  0  0
 11  7  2  0  0  0  0
 12 23  1  6  0  0  0
 12  1  1  0  0  0  0
 13  9  2  0  0  0  0
 14 11  1  0  0  0  0
 15 20  2  0  0  0  0
 15 21  1  0  0  0  0
 16 11  1  1  0  0  0
 16  3  1  0  0  0  0
 17  8  1  0  0  0  0
 18  6  1  0  0  0  0
 18 14  1  0  0  0  0
 19  8  2  0  0  0  0
 20 19  1  0  0  0  0
 21 17  2  0  0  0  0
 22 25  2  0  0  0  0
 22 26  1  0  0  0  0
 24 23  2  0  0  0  0
 25 24  1  0  0  0  0
 26 27  2  0  0  0  0
 27 23  1  0  0  0  0
M  END
>  <MODEL>
8

>  <REMARK>
 VINA RESULT:      -7.5      1.739      5.782
  Name = 
  1 active torsions:
  status: ('A' for Active; 'I' for Inactive)
    1  A    between atoms: C_9  and  C_15
                            x       y       z     vdW  Elec       q    Type
                         _______ _______ _______ _____ _____    ______ ____

>  <TORSDO>
F 1

$$$$
=
 OpenBabel11052418283D

 27 31  0  0  1  0  0  0  0  0999 V2000
  189.5790  176.2880  144.9350 N   0  0  0  0  0  2  0  0  0  0  0  0
  189.1220  175.7530  142.5220 C   0  0  1  0  0  3  0  0  0  0  0  0
  191.4900  175.2040  142.9550 N   0  0  0  0  0  2  0  0  0  0  0  0
  188.8920  172.5730  139.7940 C   0  0  0  0  0  3  0  0  0  0  0  0
  189.9730  170.9170  138.4120 O   0  0  0  0  0  1  0  0  0  0  0  0
  187.7590  175.0870  142.3240 C   0  0  0  0  0  2  0  0  0  0  0  0
  191.2760  172.9280  141.2170 C   0  0  0  0  0  3  0  0  0  0  0  0
  193.6830  175.8630  145.8830 C   0  0  0  0  0  0  0  0  0  0  0  0
  191.2170  172.0050  140.1690 C   0  0  0  0  0  3  0  0  0  0  0  0
  195.0320  175.7900  146.1970 O   0  0  0  0  0  1  0  0  0  0  0  0
  190.1500  173.6950  141.5450 C   0  0  0  0  0  0  0  0  0  0  0  0
  189.1600  176.8140  143.6390 C   0  0  1  0  0  3  0  0  0  0  0  0
  190.0280  171.8310  139.4560 C   0  0  0  0  0  0  0  0  0  0  0  0
  188.9440  173.4950  140.8440 C   0  0  0  0  0  0  0  0  0  0  0  0
  190.9580  176.0470  145.2420 C   0  0  0  0  0  0  0  0  0  0  0  0
  190.1650  174.6480  142.7130 C   0  0  2  0  0  3  0  0  0  0  0  0
  193.2510  175.5760  144.5860 C   0  0  0  0  0  3  0  0  0  0  0  0
  187.8010  174.2340  141.1770 O   0  0  0  0  0  0  0  0  0  0  0  0
  192.7550  176.2110  146.8650 C   0  0  0  0  0  3  0  0  0  0  0  0
  191.3990  176.3050  146.5440 C   0  0  0  0  0  3  0  0  0  0  0  0
  191.8940  175.6460  144.2560 C   0  0  0  0  0  0  0  0  0  0  0  0
  185.5880  179.1970  143.9000 C   0  0  0  0  0  3  0  0  0  0  0  0
  187.9230  177.6570  143.7490 C   0  0  0  0  0  0  0  0  0  0  0  0
  187.3860  178.2340  142.5940 C   0  0  0  0  0  3  0  0  0  0  0  0
  186.2220  179.0050  142.6690 C   0  0  0  0  0  3  0  0  0  0  0  0
  186.1170  178.6160  145.0560 C   0  0  0  0  0  3  0  0  0  0  0  0
  187.2800  177.8460  144.9820 C   0  0  0  0  0  3  0  0  0  0  0  0
  1 15  1  0  0  0  0
  2  6  1  1  0  0  0
  2 16  1  0  0  0  0
  2 12  1  0  0  0  0
  3 21  1  0  0  0  0
  4 14  1  0  0  0  0
  5 13  1  0  0  0  0
  7 11  1  0  0  0  0
  8 10  1  0  0  0  0
  8 19  1  0  0  0  0
  9  7  2  0  0  0  0
 12 23  1  1  0  0  0
 12  1  1  0  0  0  0
 13  4  2  0  0  0  0
 13  9  1  0  0  0  0
 14 18  1  0  0  0  0
 14 11  2  0  0  0  0
 15 20  1  0  0  0  0
 16 11  1  6  0  0  0
 16  3  1  0  0  0  0
 17  8  2  0  0  0  0
 18  6  1  0  0  0  0
 20 19  2  0  0  0  0
 21 17  1  0  0  0  0
 21 15  2  0  0  0  0
 22 26  1  0  0  0  0
 23 27  1  0  0  0  0
 24 25  1  0  0  0  0
 24 23  2  0  0  0  0
 25 22  2  0  0  0  0
 27 26  2  0  0  0  0
M  END
>  <MODEL>
9

>  <REMARK>
 VINA RESULT:      -7.5      1.230      1.712
  Name = 
  1 active torsions:
  status: ('A' for Active; 'I' for Inactive)
    1  A    between atoms: C_9  and  C_15
                            x       y       z     vdW  Elec       q    Type
                         _______ _______ _______ _____ _____    ______ ____

>  <TORSDO>
F 1

$$$$
