=
 OpenBabel11052419563D

 37 41  0  0  1  0  0  0  0  0999 V2000
  189.2570  175.6040  146.5190 C   0  0  1  0  0  0  0  0  0  0  0  0
  186.3100  178.0830  146.4670 C   0  0  1  0  0  0  0  0  0  0  0  0
  187.8140  177.4340  143.0080 C   0  0  0  0  0  0  0  0  0  0  0  0
  190.2720  176.1410  147.5570 C   0  0  1  0  0  3  0  0  0  0  0  0
  185.3070  178.1590  144.1830 C   0  0  0  0  0  3  0  0  0  0  0  0
  188.3350  176.0220  142.8440 C   0  0  0  0  0  0  0  0  0  0  0  0
  192.2890  174.9160  146.6190 C   0  0  0  0  0  0  0  0  0  0  0  0
  187.6320  177.8050  144.3700 O   0  0  0  0  0  0  0  0  0  0  0  0
  188.3060  175.4770  141.5990 C   0  0  0  0  0  0  0  0  0  0  0  0
  184.2470  178.1530  141.9210 N   0  0  0  0  0  1  0  0  0  0  0  0
  191.5210  175.4380  147.6730 O   0  0  0  0  0  0  0  0  0  0  0  0
  187.8160  176.0340  146.8730 C   0  0  0  0  0  2  0  0  0  0  0  0
  185.1130  177.3080  147.0060 C   0  0  0  0  0  1  0  0  0  0  0  0
  186.6930  177.1660  140.7780 C   0  0  0  0  0  2  0  0  0  0  0  0
  185.4200  178.0200  142.7180 C   0  0  0  0  0  0  0  0  0  0  0  0
  187.6080  177.5410  147.0940 C   0  0  0  0  0  2  0  0  0  0  0  0
  191.7500  174.6830  145.2420 C   0  0  0  0  0  2  0  0  0  0  0  0
  188.7670  175.2190  144.0500 C   0  0  0  0  0  2  0  0  0  0  0  0
  186.5830  177.6340  142.1690 C   0  0  0  0  0  0  0  0  0  0  0  0
  189.6010  176.0090  145.0620 C   0  0  2  0  0  3  0  0  0  0  0  0
  186.3840  178.0030  144.9630 C   0  0  0  0  0  0  0  0  0  0  0  0
  186.1730  179.4200  146.8370 O   0  0  0  0  0  1  0  0  0  0  0  0
  191.0830  175.9290  144.6910 C   0  0  0  0  0  2  0  0  0  0  0  0
  193.4710  174.5560  146.8590 O   0  0  0  0  0  0  0  0  0  0  0  0
  189.2710  174.2210  146.6110 F   0  0  0  0  0  0  0  0  0  0  0  0
  187.5410  176.1610  140.5130 C   0  0  0  0  0  3  0  0  0  0  0  0
  188.1760  173.2740  140.7210 O   0  0  0  0  0  0  0  0  0  0  0  0
  188.8870  174.1430  141.2980 C   0  0  0  0  0  0  0  0  0  0  0  0
  190.6220  172.5920  142.2480 C   0  0  0  0  0  3  0  0  0  0  0  0
  190.2900  173.8110  141.6350 C   0  0  0  0  0  0  0  0  0  0  0  0
  191.3180  174.7110  141.3120 C   0  0  0  0  0  3  0  0  0  0  0  0
  193.7280  175.3660  141.2630 C   0  0  0  0  0  1  0  0  0  0  0  0
  192.9660  173.1900  142.2240 C   0  0  0  0  0  3  0  0  0  0  0  0
  192.6490  174.4040  141.6080 C   0  0  0  0  0  0  0  0  0  0  0  0
  191.9520  172.2850  142.5440 C   0  0  0  0  0  3  0  0  0  0  0  0
  191.1910  177.8700  148.7630 C   0  0  0  0  0  1  0  0  0  0  0  0
  190.3740  177.5470  147.6720 O   0  0  0  0  0  0  0  0  0  0  0  0
  1 25  1  1  0  0  0
  1 12  1  0  0  0  0
  1  4  1  0  0  0  0
  2 22  1  0  0  0  0
  2 13  1  1  0  0  0
  2 16  1  0  0  0  0
  3  8  1  0  0  0  0
  4 37  1  6  0  0  0
  4 11  1  0  0  0  0
  5 21  2  0  0  0  0
  6  3  2  0  0  0  0
  6 18  1  0  0  0  0
  7 24  2  0  0  0  0
  7 11  1  0  0  0  0
  8 21  1  0  0  0  0
  9  6  1  0  0  0  0
 10 15  1  0  0  0  0
 12 16  1  0  0  0  0
 14 19  1  0  0  0  0
 15  5  1  0  0  0  0
 17  7  1  0  0  0  0
 19 15  2  0  0  0  0
 19  3  1  0  0  0  0
 20 18  1  6  0  0  0
 20  1  1  0  0  0  0
 21  2  1  0  0  0  0
 23 20  1  0  0  0  0
 23 17  1  0  0  0  0
 26 14  1  0  0  0  0
 26  9  2  0  0  0  0
 27 28  2  0  0  0  0
 28  9  1  0  0  0  0
 28 30  1  0  0  0  0
 29 35  1  0  0  0  0
 30 29  2  0  0  0  0
 31 34  2  0  0  0  0
 31 30  1  0  0  0  0
 32 34  1  0  0  0  0
 33 35  2  0  0  0  0
 34 33  1  0  0  0  0
 37 36  1  0  0  0  0
M  END
>  <MODEL>
1

>  <REMARK>
 VINA RESULT:      -8.5      0.000      0.000
  Name = 
  3 active torsions:
  status: ('A' for Active; 'I' for Inactive)
    1  A    between atoms: C_5  and  O_23
    2  A    between atoms: C_6  and  C_31
    3  A    between atoms: C_14  and  C_31
                            x       y       z     vdW  Elec       q    Type
                         _______ _______ _______ _____ _____    ______ ____

>  <TORSDO>
F 3

$$$$
=
 OpenBabel11052419563D

 37 41  0  0  1  0  0  0  0  0999 V2000
  189.1980  175.5180  146.3310 C   0  0  1  0  0  0  0  0  0  0  0  0
  186.2890  178.0400  146.3810 C   0  0  1  0  0  0  0  0  0  0  0  0
  187.7270  177.4470  142.8850 C   0  0  0  0  0  0  0  0  0  0  0  0
  190.2370  176.0160  147.3630 C   0  0  1  0  0  3  0  0  0  0  0  0
  185.2500  178.1820  144.1160 C   0  0  0  0  0  3  0  0  0  0  0  0
  188.2240  176.0310  142.6810 C   0  0  0  0  0  0  0  0  0  0  0  0
  192.2210  174.7830  146.3660 C   0  0  0  0  0  0  0  0  0  0  0  0
  187.5730  177.7900  144.2580 O   0  0  0  0  0  0  0  0  0  0  0  0
  188.1670  175.5140  141.4250 C   0  0  0  0  0  0  0  0  0  0  0  0
  184.1540  178.2420  141.8720 N   0  0  0  0  0  1  0  0  0  0  0  0
  191.4780  175.2920  147.4430 O   0  0  0  0  0  0  0  0  0  0  0  0
  187.7700  175.9610  146.7170 C   0  0  0  0  0  2  0  0  0  0  0  0
  185.0890  177.2710  146.9230 C   0  0  0  0  0  1  0  0  0  0  0  0
  186.5660  177.2440  140.6680 C   0  0  0  0  0  2  0  0  0  0  0  0
  185.3370  178.0740  142.6460 C   0  0  0  0  0  0  0  0  0  0  0  0
  187.5880  177.4650  146.9750 C   0  0  0  0  0  2  0  0  0  0  0  0
  191.6560  174.5890  144.9920 C   0  0  0  0  0  2  0  0  0  0  0  0
  188.6630  175.1950  143.8610 C   0  0  0  0  0  2  0  0  0  0  0  0
  186.4850  177.6830  142.0700 C   0  0  0  0  0  0  0  0  0  0  0  0
  189.5240  175.9500  144.8770 C   0  0  2  0  0  3  0  0  0  0  0  0
  186.3370  177.9930  144.8750 C   0  0  0  0  0  0  0  0  0  0  0  0
  186.1780  179.3710  146.7830 O   0  0  0  0  0  1  0  0  0  0  0  0
  191.0000  175.8570  144.4800 C   0  0  0  0  0  2  0  0  0  0  0  0
  193.4010  174.4010  146.5780 O   0  0  0  0  0  0  0  0  0  0  0  0
  189.1930  174.1330  146.3920 F   0  0  0  0  0  0  0  0  0  0  0  0
  187.3940  176.2340  140.3670 C   0  0  0  0  0  3  0  0  0  0  0  0
  188.0090  173.1510  141.2500 O   0  0  0  0  0  0  0  0  0  0  0  0
  188.7220  174.1780  141.0850 C   0  0  0  0  0  0  0  0  0  0  0  0
  191.2230  174.2710  141.3190 C   0  0  0  0  0  3  0  0  0  0  0  0
  190.0870  174.0220  140.5310 C   0  0  0  0  0  0  0  0  0  0  0  0
  190.2600  173.5890  139.2080 C   0  0  0  0  0  3  0  0  0  0  0  0
  191.7110  172.9640  137.2740 C   0  0  0  0  0  1  0  0  0  0  0  0
  192.6650  173.6770  139.4690 C   0  0  0  0  0  3  0  0  0  0  0  0
  191.5420  173.4200  138.6780 C   0  0  0  0  0  0  0  0  0  0  0  0
  192.5050  174.1020  140.7900 C   0  0  0  0  0  3  0  0  0  0  0  0
  191.1540  177.7050  148.6270 C   0  0  0  0  0  1  0  0  0  0  0  0
  190.3620  177.4180  147.5080 O   0  0  0  0  0  0  0  0  0  0  0  0
  1 25  1  1  0  0  0
  1 12  1  0  0  0  0
  1  4  1  0  0  0  0
  2 22  1  0  0  0  0
  2 13  1  1  0  0  0
  2 16  1  0  0  0  0
  3  8  1  0  0  0  0
  4 11  1  0  0  0  0
  4 37  1  6  0  0  0
  5 21  2  0  0  0  0
  6  3  2  0  0  0  0
  6 18  1  0  0  0  0
  7 24  2  0  0  0  0
  7 11  1  0  0  0  0
  8 21  1  0  0  0  0
  9  6  1  0  0  0  0
 10 15  1  0  0  0  0
 12 16  1  0  0  0  0
 14 19  1  0  0  0  0
 15  5  1  0  0  0  0
 17  7  1  0  0  0  0
 19 15  2  0  0  0  0
 19  3  1  0  0  0  0
 20 18  1  6  0  0  0
 20  1  1  0  0  0  0
 21  2  1  0  0  0  0
 23 20  1  0  0  0  0
 23 17  1  0  0  0  0
 26 14  1  0  0  0  0
 26  9  2  0  0  0  0
 28 27  2  0  0  0  0
 28  9  1  0  0  0  0
 30 28  1  0  0  0  0
 30 29  2  0  0  0  0
 31 30  1  0  0  0  0
 32 34  1  0  0  0  0
 33 35  2  0  0  0  0
 34 31  2  0  0  0  0
 34 33  1  0  0  0  0
 35 29  1  0  0  0  0
 37 36  1  0  0  0  0
M  END
>  <MODEL>
2

>  <REMARK>
 VINA RESULT:      -8.4      1.078      1.323
  Name = 
  3 active torsions:
  status: ('A' for Active; 'I' for Inactive)
    1  A    between atoms: C_5  and  O_23
    2  A    between atoms: C_6  and  C_31
    3  A    between atoms: C_14  and  C_31
                            x       y       z     vdW  Elec       q    Type
                         _______ _______ _______ _____ _____    ______ ____

>  <TORSDO>
F 3

$$$$
=
 OpenBabel11052419563D

 37 41  0  0  1  0  0  0  0  0999 V2000
  189.6000  175.1750  146.1010 C   0  0  1  0  0  0  0  0  0  0  0  0
  186.7040  177.6920  146.4180 C   0  0  1  0  0  0  0  0  0  0  0  0
  187.9110  177.2080  142.8190 C   0  0  0  0  0  0  0  0  0  0  0  0
  190.7050  175.6420  147.0780 C   0  0  1  0  0  3  0  0  0  0  0  0
  185.5200  177.9030  144.2310 C   0  0  0  0  0  3  0  0  0  0  0  0
  188.3920  175.8000  142.5400 C   0  0  0  0  0  0  0  0  0  0  0  0
  192.6190  174.4420  145.9170 C   0  0  0  0  0  0  0  0  0  0  0  0
  187.8470  177.5090  144.2090 O   0  0  0  0  0  0  0  0  0  0  0  0
  188.2530  175.3210  141.2750 C   0  0  0  0  0  0  0  0  0  0  0  0
  184.2800  178.0310  142.0650 N   0  0  0  0  0  1  0  0  0  0  0  0
  191.9470  174.9180  147.0550 O   0  0  0  0  0  0  0  0  0  0  0  0
  188.2010  175.6050  146.5930 C   0  0  0  0  0  2  0  0  0  0  0  0
  185.5410  176.9050  147.0120 C   0  0  0  0  0  1  0  0  0  0  0  0
  186.6090  177.0730  140.6770 C   0  0  0  0  0  2  0  0  0  0  0  0
  185.5120  177.8390  142.7560 C   0  0  0  0  0  0  0  0  0  0  0  0
  188.0380  177.1000  146.9080 C   0  0  0  0  0  2  0  0  0  0  0  0
  191.9660  174.2900  144.5780 C   0  0  0  0  0  2  0  0  0  0  0  0
  188.9060  174.9280  143.6630 C   0  0  0  0  0  2  0  0  0  0  0  0
  186.6190  177.4680  142.0940 C   0  0  0  0  0  0  0  0  0  0  0  0
  189.8320  175.6520  144.6430 C   0  0  2  0  0  3  0  0  0  0  0  0
  186.6540  177.6910  144.9110 C   0  0  0  0  0  0  0  0  0  0  0  0
  186.6200  179.0090  146.8670 O   0  0  0  0  0  1  0  0  0  0  0  0
  191.2790  175.5730  144.1480 C   0  0  0  0  0  2  0  0  0  0  0  0
  193.8100  174.0550  146.0410 O   0  0  0  0  0  0  0  0  0  0  0  0
  189.5980  173.7890  146.1200 F   0  0  0  0  0  0  0  0  0  0  0  0
  187.4140  176.0730  140.2920 C   0  0  0  0  0  3  0  0  0  0  0  0
  188.0860  172.9630  141.0480 O   0  0  0  0  0  0  0  0  0  0  0  0
  188.7830  173.9970  140.8580 C   0  0  0  0  0  0  0  0  0  0  0  0
  190.2080  173.6430  138.8180 C   0  0  0  0  0  3  0  0  0  0  0  0
  190.1040  173.8610  140.2010 C   0  0  0  0  0  0  0  0  0  0  0  0
  191.2780  173.9820  140.9600 C   0  0  0  0  0  3  0  0  0  0  0  0
  193.7670  174.0000  141.1660 C   0  0  0  0  0  1  0  0  0  0  0  0
  192.6220  173.6490  138.9740 C   0  0  0  0  0  3  0  0  0  0  0  0
  192.5310  173.8730  140.3500 C   0  0  0  0  0  0  0  0  0  0  0  0
  191.4600  173.5340  138.2080 C   0  0  0  0  0  3  0  0  0  0  0  0
  191.3950  177.2980  148.5180 C   0  0  0  0  0  1  0  0  0  0  0  0
  190.8410  177.0390  147.2580 O   0  0  0  0  0  0  0  0  0  0  0  0
  1 25  1  6  0  0  0
  1 12  1  0  0  0  0
  1  4  1  0  0  0  0
  2 22  1  0  0  0  0
  2 16  1  0  0  0  0
  2 13  1  1  0  0  0
  3  8  1  0  0  0  0
  4 37  1  6  0  0  0
  5 21  2  0  0  0  0
  6  3  2  0  0  0  0
  6 18  1  0  0  0  0
  7 24  2  0  0  0  0
  7 11  1  0  0  0  0
  8 21  1  0  0  0  0
  9  6  1  0  0  0  0
 10 15  1  0  0  0  0
 11  4  1  0  0  0  0
 12 16  1  0  0  0  0
 14 19  1  0  0  0  0
 15  5  1  0  0  0  0
 17  7  1  0  0  0  0
 19 15  2  0  0  0  0
 19  3  1  0  0  0  0
 20 18  1  6  0  0  0
 20  1  1  0  0  0  0
 21  2  1  0  0  0  0
 23 17  1  0  0  0  0
 23 20  1  0  0  0  0
 26 14  1  0  0  0  0
 26  9  2  0  0  0  0
 28 27  2  0  0  0  0
 28  9  1  0  0  0  0
 29 30  1  0  0  0  0
 30 28  1  0  0  0  0
 30 31  2  0  0  0  0
 33 34  2  0  0  0  0
 34 31  1  0  0  0  0
 34 32  1  0  0  0  0
 35 29  2  0  0  0  0
 35 33  1  0  0  0  0
 37 36  1  0  0  0  0
M  END
>  <MODEL>
3

>  <REMARK>
 VINA RESULT:      -8.3      1.081      1.289
  Name = 
  3 active torsions:
  status: ('A' for Active; 'I' for Inactive)
    1  A    between atoms: C_5  and  O_23
    2  A    between atoms: C_6  and  C_31
    3  A    between atoms: C_14  and  C_31
                            x       y       z     vdW  Elec       q    Type
                         _______ _______ _______ _____ _____    ______ ____

>  <TORSDO>
F 3

$$$$
=
 OpenBabel11052419563D

 37 41  0  0  1  0  0  0  0  0999 V2000
  190.7850  171.9260  143.5650 C   0  0  1  0  0  0  0  0  0  0  0  0
  194.4430  170.7300  143.6710 C   0  0  1  0  0  0  0  0  0  0  0  0
  194.0300  174.4390  144.5180 C   0  0  2  0  0  3  0  0  0  0  0  0
  190.2270  171.5310  142.1770 C   0  0  1  0  0  3  0  0  0  0  0  0
  195.7960  172.2640  145.1020 C   0  0  0  0  0  3  0  0  0  0  0  0
  192.7340  174.7410  145.2400 C   0  0  0  0  0  0  0  0  0  0  0  0
  188.3430  173.2340  142.1480 C   0  0  0  0  0  0  0  0  0  0  0  0
  194.0170  173.1810  143.8520 O   0  0  0  0  0  0  0  0  0  0  0  0
  192.7220  175.7860  146.1100 C   0  0  0  0  0  0  0  0  0  0  0  0
  197.1190  173.7460  146.6170 N   0  0  0  0  0  1  0  0  0  0  0  0
  188.8980  171.9780  141.8560 O   0  0  0  0  0  0  0  0  0  0  0  0
  191.9020  170.9590  144.0140 C   0  0  0  0  0  2  0  0  0  0  0  0
  194.4870  169.6400  144.7350 C   0  0  0  0  0  1  0  0  0  0  0  0
  195.1940  175.8480  146.2390 C   0  0  0  0  0  3  0  0  0  0  0  0
  196.0490  173.5950  145.6880 C   0  0  0  0  0  0  0  0  0  0  0  0
  193.0510  170.7620  143.0130 C   0  0  0  0  0  2  0  0  0  0  0  0
  188.9170  174.1730  143.1640 C   0  0  0  0  0  2  0  0  0  0  0  0
  191.5340  173.8370  145.0730 C   0  0  0  0  0  2  0  0  0  0  0  0
  195.1960  174.6040  145.4520 C   0  0  0  0  0  0  0  0  0  0  0  0
  191.2810  173.3940  143.6290 C   0  0  2  0  0  3  0  0  0  0  0  0
  194.7760  172.0810  144.2540 C   0  0  0  0  0  0  0  0  0  0  0  0
  195.3830  170.4250  142.6870 O   0  0  0  0  0  1  0  0  0  0  0  0
  190.3940  174.4190  142.9190 C   0  0  0  0  0  2  0  0  0  0  0  0
  187.2680  173.5620  141.5830 O   0  0  0  0  0  0  0  0  0  0  0  0
  189.7550  171.7640  144.4800 F   0  0  0  0  0  0  0  0  0  0  0  0
  194.0130  176.4190  146.5180 C   0  0  0  0  0  3  0  0  0  0  0  0
  191.4250  176.2080  148.0540 O   0  0  0  0  0  0  0  0  0  0  0  0
  191.4850  176.2420  146.7940 C   0  0  0  0  0  0  0  0  0  0  0  0
  190.4970  177.4800  144.8430 C   0  0  0  0  0  3  0  0  0  0  0  0
  190.3230  176.7600  146.0350 C   0  0  0  0  0  0  0  0  0  0  0  0
  189.0210  176.5040  146.4900 C   0  0  0  0  0  3  0  0  0  0  0  0
  186.5400  176.6970  146.2690 C   0  0  0  0  0  1  0  0  0  0  0  0
  188.1000  177.6930  144.5930 C   0  0  0  0  0  3  0  0  0  0  0  0
  187.9140  176.9710  145.7750 C   0  0  0  0  0  0  0  0  0  0  0  0
  189.3920  177.9480  144.1270 C   0  0  0  0  0  3  0  0  0  0  0  0
  190.4900  171.1630  139.9220 C   0  0  0  0  0  1  0  0  0  0  0  0
  191.1390  171.5670  141.0960 O   0  0  0  0  0  0  0  0  0  0  0  0
  1 20  1  0  0  0  0
  1 12  1  0  0  0  0
  1 25  1  1  0  0  0
  2 21  1  0  0  0  0
  2 13  1  1  0  0  0
  3  8  1  1  0  0  0
  3  6  1  0  0  0  0
  3 19  1  0  0  0  0
  4 37  1  6  0  0  0
  4  1  1  0  0  0  0
  5 15  1  0  0  0  0
  6  9  2  0  0  0  0
  7 17  1  0  0  0  0
  8 21  1  0  0  0  0
  9 26  1  0  0  0  0
  9 28  1  0  0  0  0
 11  7  1  0  0  0  0
 11  4  1  0  0  0  0
 14 26  2  0  0  0  0
 15 10  1  0  0  0  0
 16  2  1  0  0  0  0
 16 12  1  0  0  0  0
 18  6  1  0  0  0  0
 19 15  2  0  0  0  0
 19 14  1  0  0  0  0
 20 23  1  1  0  0  0
 20 18  1  0  0  0  0
 21  5  2  0  0  0  0
 22  2  1  0  0  0  0
 23 17  1  0  0  0  0
 24  7  2  0  0  0  0
 28 27  2  0  0  0  0
 29 30  1  0  0  0  0
 30 31  2  0  0  0  0
 30 28  1  0  0  0  0
 33 34  2  0  0  0  0
 34 32  1  0  0  0  0
 34 31  1  0  0  0  0
 35 33  1  0  0  0  0
 35 29  2  0  0  0  0
 36 37  1  0  0  0  0
M  END
>  <MODEL>
4

>  <REMARK>
 VINA RESULT:      -8.2      3.428      8.339
  Name = 
  3 active torsions:
  status: ('A' for Active; 'I' for Inactive)
    1  A    between atoms: C_5  and  O_23
    2  A    between atoms: C_6  and  C_31
    3  A    between atoms: C_14  and  C_31
                            x       y       z     vdW  Elec       q    Type
                         _______ _______ _______ _____ _____    ______ ____

>  <TORSDO>
F 3

$$$$
=
 OpenBabel11052419563D

 37 41  0  0  1  0  0  0  0  0999 V2000
  193.9400  175.4250  142.9770 C   0  0  1  0  0  0  0  0  0  0  0  0
  193.8330  172.4560  140.5280 C   0  0  1  0  0  0  0  0  0  0  0  0
  190.4810  173.1320  142.2450 C   0  0  0  0  0  0  0  0  0  0  0  0
  195.1050  175.1520  143.9580 C   0  0  1  0  0  3  0  0  0  0  0  0
  191.4830  172.0450  139.7950 C   0  0  0  0  0  3  0  0  0  0  0  0
  190.2450  174.6010  142.5270 C   0  0  0  0  0  0  0  0  0  0  0  0
  194.2520  176.6570  145.8170 C   0  0  0  0  0  0  0  0  0  0  0  0
  191.8480  172.8260  141.9910 O   0  0  0  0  0  0  0  0  0  0  0  0
  188.9610  175.0470  142.5330 C   0  0  0  0  0  0  0  0  0  0  0  0
  189.1420  171.7070  138.9890 N   0  0  0  0  0  1  0  0  0  0  0  0
  195.2730  176.0760  145.0470 O   0  0  0  0  0  0  0  0  0  0  0  0
  194.1970  174.7660  141.6050 C   0  0  0  0  0  2  0  0  0  0  0  0
  194.1950  173.0350  139.1660 C   0  0  0  0  0  1  0  0  0  0  0  0
  188.1450  173.0420  141.3310 C   0  0  0  0  0  2  0  0  0  0  0  0
  190.0270  172.1040  140.0330 C   0  0  0  0  0  0  0  0  0  0  0  0
  194.5260  173.2650  141.6400 C   0  0  0  0  0  2  0  0  0  0  0  0
  192.8170  176.6950  145.3910 C   0  0  0  0  0  2  0  0  0  0  0  0
  191.4120  175.5480  142.6860 C   0  0  0  0  0  2  0  0  0  0  0  0
  189.5540  172.6560  141.1610 C   0  0  0  0  0  0  0  0  0  0  0  0
  192.5580  174.9920  143.5350 C   0  0  2  0  0  3  0  0  0  0  0  0
  192.3400  172.4460  140.7420 C   0  0  0  0  0  0  0  0  0  0  0  0
  194.3010  171.1430  140.5890 O   0  0  0  0  0  1  0  0  0  0  0  0
  192.3160  175.3140  145.0120 C   0  0  0  0  0  2  0  0  0  0  0  0
  194.5660  177.2400  146.8880 O   0  0  0  0  0  0  0  0  0  0  0  0
  193.9150  176.7910  142.7420 F   0  0  0  0  0  0  0  0  0  0  0  0
  187.8720  174.1630  142.0140 C   0  0  0  0  0  3  0  0  0  0  0  0
  188.6060  177.3370  142.0120 O   0  0  0  0  0  0  0  0  0  0  0  0
  188.6010  176.4410  142.9000 C   0  0  0  0  0  0  0  0  0  0  0  0
  189.1730  177.1770  145.2340 C   0  0  0  0  0  3  0  0  0  0  0  0
  188.2110  176.8040  144.2820 C   0  0  0  0  0  0  0  0  0  0  0  0
  186.8560  176.8090  144.6480 C   0  0  0  0  0  3  0  0  0  0  0  0
  185.0340  177.1650  146.3190 C   0  0  0  0  0  1  0  0  0  0  0  0
  187.4400  177.5300  146.8840 C   0  0  0  0  0  3  0  0  0  0  0  0
  186.4720  177.1670  145.9430 C   0  0  0  0  0  0  0  0  0  0  0  0
  188.7900  177.5350  146.5290 C   0  0  0  0  0  3  0  0  0  0  0  0
  196.3790  173.7260  145.2360 C   0  0  0  0  0  1  0  0  0  0  0  0
  195.3480  173.7980  144.2900 O   0  0  0  0  0  0  0  0  0  0  0  0
  1 25  1  6  0  0  0
  1 20  1  0  0  0  0
  1  4  1  0  0  0  0
  2 13  1  6  0  0  0
  2 22  1  0  0  0  0
  2 21  1  0  0  0  0
  2 16  1  0  0  0  0
  3  6  2  0  0  0  0
  4 37  1  1  0  0  0
  4 11  1  0  0  0  0
  5 15  1  0  0  0  0
  5 21  2  0  0  0  0
  6  9  1  0  0  0  0
  6 18  1  0  0  0  0
  7 24  2  0  0  0  0
  8  3  1  0  0  0  0
  9 28  1  0  0  0  0
 10 15  1  0  0  0  0
 11  7  1  0  0  0  0
 12 16  1  0  0  0  0
 12  1  1  0  0  0  0
 14 26  1  0  0  0  0
 15 19  2  0  0  0  0
 17  7  1  0  0  0  0
 19 14  1  0  0  0  0
 19  3  1  0  0  0  0
 20 18  1  6  0  0  0
 20 23  1  0  0  0  0
 21  8  1  0  0  0  0
 23 17  1  0  0  0  0
 26  9  2  0  0  0  0
 27 28  2  0  0  0  0
 28 30  1  0  0  0  0
 29 35  1  0  0  0  0
 30 31  1  0  0  0  0
 30 29  2  0  0  0  0
 31 34  2  0  0  0  0
 34 32  1  0  0  0  0
 34 33  1  0  0  0  0
 35 33  2  0  0  0  0
 37 36  1  0  0  0  0
M  END
>  <MODEL>
5

>  <REMARK>
 VINA RESULT:      -7.8      2.901      6.934
  Name = 
  3 active torsions:
  status: ('A' for Active; 'I' for Inactive)
    1  A    between atoms: C_5  and  O_23
    2  A    between atoms: C_6  and  C_31
    3  A    between atoms: C_14  and  C_31
                            x       y       z     vdW  Elec       q    Type
                         _______ _______ _______ _____ _____    ______ ____

>  <TORSDO>
F 3

$$$$
=
 OpenBabel11052419563D

 37 41  0  0  1  0  0  0  0  0999 V2000
  191.6680  172.9520  141.6800 C   0  0  1  0  0  0  0  0  0  0  0  0
  188.9520  173.2390  138.9650 C   0  0  1  0  0  0  0  0  0  0  0  0
  188.2150  175.3350  142.0820 C   0  0  2  0  0  3  0  0  0  0  0  0
  191.8540  171.4430  141.9650 C   0  0  1  0  0  3  0  0  0  0  0  0
  187.6650  175.3560  139.2730 C   0  0  0  0  0  3  0  0  0  0  0  0
  189.4660  175.8780  142.7390 C   0  0  0  0  0  0  0  0  0  0  0  0
  192.8600  171.7280  144.2800 C   0  0  0  0  0  0  0  0  0  0  0  0
  188.4780  174.2530  141.1940 O   0  0  0  0  0  0  0  0  0  0  0  0
  189.3700  177.0610  143.4030 C   0  0  0  0  0  0  0  0  0  0  0  0
  186.4510  177.5240  139.5290 N   0  0  0  0  0  1  0  0  0  0  0  0
  192.7450  171.0860  143.0360 O   0  0  0  0  0  0  0  0  0  0  0  0
  191.1940  173.1920  140.2300 C   0  0  0  0  0  2  0  0  0  0  0  0
  189.6570  173.8040  137.7380 C   0  0  0  0  0  1  0  0  0  0  0  0
  187.2330  177.6350  142.2930 C   0  0  0  0  0  3  0  0  0  0  0  0
  187.1410  176.4350  140.1340 C   0  0  0  0  0  0  0  0  0  0  0  0
  189.9430  172.4090  139.8010 C   0  0  0  0  0  2  0  0  0  0  0  0
  192.3390  173.1070  144.5470 C   0  0  0  0  0  2  0  0  0  0  0  0
  190.7920  175.1750  142.5630 C   0  0  0  0  0  2  0  0  0  0  0  0
  187.4380  176.4520  141.4430 C   0  0  0  0  0  0  0  0  0  0  0  0
  190.7130  173.6510  142.6840 C   0  0  2  0  0  3  0  0  0  0  0  0
  188.3500  174.3370  139.8070 C   0  0  0  0  0  0  0  0  0  0  0  0
  187.9290  172.3940  138.5370 O   0  0  0  0  0  1  0  0  0  0  0  0
  190.8810  173.2350  144.1470 C   0  0  0  0  0  2  0  0  0  0  0  0
  193.4950  171.1480  145.1990 O   0  0  0  0  0  0  0  0  0  0  0  0
  192.9190  173.5430  141.7710 F   0  0  0  0  0  0  0  0  0  0  0  0
  188.1410  177.8970  143.2440 C   0  0  0  0  0  3  0  0  0  0  0  0
  190.9370  178.7820  143.8720 O   0  0  0  0  0  0  0  0  0  0  0  0
  190.5010  177.6380  144.1750 C   0  0  0  0  0  0  0  0  0  0  0  0
  190.3310  176.3850  146.3470 C   0  0  0  0  0  3  0  0  0  0  0  0
  191.1170  176.9130  145.3100 C   0  0  0  0  0  0  0  0  0  0  0  0
  192.5060  176.7180  145.3440 C   0  0  0  0  0  3  0  0  0  0  0  0
  194.5720  175.8230  146.4260 C   0  0  0  0  0  1  0  0  0  0  0  0
  192.3080  175.5050  147.4290 C   0  0  0  0  0  3  0  0  0  0  0  0
  193.1000  176.0200  146.4000 C   0  0  0  0  0  0  0  0  0  0  0  0
  190.9240  175.6870  147.4020 C   0  0  0  0  0  3  0  0  0  0  0  0
  191.0750  169.3090  141.6040 C   0  0  0  0  0  1  0  0  0  0  0  0
  190.6980  170.6330  141.8650 O   0  0  0  0  0  0  0  0  0  0  0  0
  1 25  1  1  0  0  0
  1  4  1  0  0  0  0
  1 20  1  0  0  0  0
  2 13  1  6  0  0  0
  2 16  1  0  0  0  0
  2 21  1  0  0  0  0
  3  8  1  6  0  0  0
  3  6  1  0  0  0  0
  4 37  1  1  0  0  0
  4 11  1  0  0  0  0
  5 21  2  0  0  0  0
  5 15  1  0  0  0  0
  6  9  2  0  0  0  0
  7 17  1  0  0  0  0
  7 24  2  0  0  0  0
  9 28  1  0  0  0  0
 10 15  1  0  0  0  0
 11  7  1  0  0  0  0
 12  1  1  0  0  0  0
 14 26  2  0  0  0  0
 15 19  2  0  0  0  0
 16 12  1  0  0  0  0
 18  6  1  0  0  0  0
 19  3  1  0  0  0  0
 19 14  1  0  0  0  0
 20 18  1  1  0  0  0
 20 23  1  0  0  0  0
 21  8  1  0  0  0  0
 22  2  1  0  0  0  0
 23 17  1  0  0  0  0
 26  9  1  0  0  0  0
 27 28  2  0  0  0  0
 28 30  1  0  0  0  0
 29 35  1  0  0  0  0
 30 31  1  0  0  0  0
 30 29  2  0  0  0  0
 31 34  2  0  0  0  0
 34 32  1  0  0  0  0
 34 33  1  0  0  0  0
 35 33  2  0  0  0  0
 36 37  1  0  0  0  0
M  END
>  <MODEL>
6

>  <REMARK>
 VINA RESULT:      -7.6      2.690      6.020
  Name = 
  3 active torsions:
  status: ('A' for Active; 'I' for Inactive)
    1  A    between atoms: C_5  and  O_23
    2  A    between atoms: C_6  and  C_31
    3  A    between atoms: C_14  and  C_31
                            x       y       z     vdW  Elec       q    Type
                         _______ _______ _______ _____ _____    ______ ____

>  <TORSDO>
F 3

$$$$
=
 OpenBabel11052419563D

 37 41  0  0  1  0  0  0  0  0999 V2000
  192.5980  175.4640  144.1250 C   0  0  1  0  0  0  0  0  0  0  0  0
  193.0710  172.9890  141.2130 C   0  0  1  0  0  0  0  0  0  0  0  0
  189.4730  174.2400  141.5770 C   0  0  0  0  0  0  0  0  0  0  0  0
  193.1560  174.7730  145.3920 C   0  0  1  0  0  3  0  0  0  0  0  0
  191.2440  173.2890  139.5400 C   0  0  0  0  0  3  0  0  0  0  0  0
  189.3900  175.6660  142.0770 C   0  0  0  0  0  0  0  0  0  0  0  0
  191.8450  176.1690  147.0600 C   0  0  0  0  0  0  0  0  0  0  0  0
  190.7410  173.6390  141.8180 O   0  0  0  0  0  0  0  0  0  0  0  0
  188.3270  176.4160  141.6800 C   0  0  0  0  0  0  0  0  0  0  0  0
  189.4690  173.6660  137.8230 N   0  0  0  0  0  1  0  0  0  0  0  0
  192.9850  175.4640  146.6420 O   0  0  0  0  0  0  0  0  0  0  0  0
  193.3140  174.9600  142.8530 C   0  0  0  0  0  2  0  0  0  0  0  0
  194.0830  173.6430  140.2800 C   0  0  0  0  0  1  0  0  0  0  0  0
  187.7910  174.8680  139.8230 C   0  0  0  0  0  2  0  0  0  0  0  0
  189.8640  173.6780  139.1910 C   0  0  0  0  0  0  0  0  0  0  0  0
  193.3350  173.4340  142.6640 C   0  0  0  0  0  2  0  0  0  0  0  0
  190.7680  176.6250  146.1250 C   0  0  0  0  0  2  0  0  0  0  0  0
  190.5120  176.2580  142.8990 C   0  0  0  0  0  2  0  0  0  0  0  0
  189.0470  174.1680  140.1370 C   0  0  0  0  0  0  0  0  0  0  0  0
  191.0610  175.3180  143.9760 C   0  0  2  0  0  3  0  0  0  0  0  0
  191.6570  173.3250  140.8130 C   0  0  0  0  0  0  0  0  0  0  0  0
  193.2380  171.6060  141.1460 O   0  0  0  0  0  1  0  0  0  0  0  0
  190.2580  175.4820  145.2680 C   0  0  0  0  0  2  0  0  0  0  0  0
  191.7540  176.4990  148.2710 O   0  0  0  0  0  0  0  0  0  0  0  0
  192.9100  176.8110  144.2240 F   0  0  0  0  0  0  0  0  0  0  0  0
  187.4410  175.9160  140.5840 C   0  0  0  0  0  3  0  0  0  0  0  0
  188.6580  178.7670  141.6360 O   0  0  0  0  0  0  0  0  0  0  0  0
  188.0830  177.7900  142.1900 C   0  0  0  0  0  0  0  0  0  0  0  0
  186.1110  178.9730  143.2030 C   0  0  0  0  0  3  0  0  0  0  0  0
  187.1610  178.0470  143.3200 C   0  0  0  0  0  0  0  0  0  0  0  0
  187.3100  177.3370  144.5200 C   0  0  0  0  0  3  0  0  0  0  0  0
  186.6060  176.7990  146.8560 C   0  0  0  0  0  1  0  0  0  0  0  0
  185.3990  178.4850  145.4630 C   0  0  0  0  0  3  0  0  0  0  0  0
  186.4350  177.5560  145.5880 C   0  0  0  0  0  0  0  0  0  0  0  0
  185.2370  179.1930  144.2710 C   0  0  0  0  0  3  0  0  0  0  0  0
  194.2300  172.7730  145.7630 C   0  0  0  0  0  1  0  0  0  0  0  0
  192.9970  173.3690  145.4680 O   0  0  0  0  0  0  0  0  0  0  0  0
  1 25  1  1  0  0  0
  1  4  1  0  0  0  0
  2 13  1  6  0  0  0
  2 16  1  0  0  0  0
  3  8  1  0  0  0  0
  3  6  2  0  0  0  0
  4 37  1  1  0  0  0
  4 11  1  0  0  0  0
  5 21  2  0  0  0  0
  6 18  1  0  0  0  0
  7 24  2  0  0  0  0
  9  6  1  0  0  0  0
  9 28  1  0  0  0  0
 10 15  1  0  0  0  0
 11  7  1  0  0  0  0
 12  1  1  0  0  0  0
 14 19  1  0  0  0  0
 14 26  1  0  0  0  0
 15  5  1  0  0  0  0
 15 19  2  0  0  0  0
 16 12  1  0  0  0  0
 17  7  1  0  0  0  0
 19  3  1  0  0  0  0
 20 18  1  6  0  0  0
 20  1  1  0  0  0  0
 20 23  1  0  0  0  0
 21  2  1  0  0  0  0
 21  8  1  0  0  0  0
 22  2  1  0  0  0  0
 23 17  1  0  0  0  0
 26  9  2  0  0  0  0
 27 28  2  0  0  0  0
 28 30  1  0  0  0  0
 29 30  2  0  0  0  0
 29 35  1  0  0  0  0
 30 31  1  0  0  0  0
 31 34  2  0  0  0  0
 33 34  1  0  0  0  0
 34 32  1  0  0  0  0
 35 33  2  0  0  0  0
 37 36  1  0  0  0  0
M  END
>  <MODEL>
7

>  <REMARK>
 VINA RESULT:      -7.6      2.339      6.398
  Name = 
  3 active torsions:
  status: ('A' for Active; 'I' for Inactive)
    1  A    between atoms: C_5  and  O_23
    2  A    between atoms: C_6  and  C_31
    3  A    between atoms: C_14  and  C_31
                            x       y       z     vdW  Elec       q    Type
                         _______ _______ _______ _____ _____    ______ ____

>  <TORSDO>
F 3

$$$$
=
 OpenBabel11052419563D

 37 41  0  0  1  0  0  0  0  0999 V2000
  188.7250  177.3840  143.3380 C   0  0  1  0  0  0  0  0  0  0  0  0
  191.2750  176.1640  145.9530 C   0  0  1  0  0  0  0  0  0  0  0  0
  189.7030  173.3270  143.9230 C   0  0  0  0  0  0  0  0  0  0  0  0
  187.6990  178.2620  144.0930 C   0  0  1  0  0  3  0  0  0  0  0  0
  192.1360  173.9120  145.3120 C   0  0  0  0  0  3  0  0  0  0  0  0
  189.3840  173.7250  142.4980 C   0  0  0  0  0  0  0  0  0  0  0  0
  185.8330  178.0250  142.3860 C   0  0  0  0  0  0  0  0  0  0  0  0
  189.9000  174.4450  144.7820 O   0  0  0  0  0  0  0  0  0  0  0  0
  189.4260  172.7560  141.5450 C   0  0  0  0  0  0  0  0  0  0  0  0
  193.0670  171.7020  144.6080 N   0  0  0  0  0  1  0  0  0  0  0  0
  186.5720  178.7440  143.3400 O   0  0  0  0  0  0  0  0  0  0  0  0
  190.1050  177.4160  144.0310 C   0  0  0  0  0  2  0  0  0  0  0  0
  192.5980  176.8190  145.5720 C   0  0  0  0  0  1  0  0  0  0  0  0
  190.7330  171.2340  142.9960 C   0  0  0  0  0  2  0  0  0  0  0  0
  191.9690  172.6090  144.6380 C   0  0  0  0  0  0  0  0  0  0  0  0
  190.1040  177.0700  145.5290 C   0  0  0  0  0  2  0  0  0  0  0  0
  186.3280  176.7710  141.7330 C   0  0  0  0  0  2  0  0  0  0  0  0
  189.1360  175.1730  142.1420 C   0  0  0  0  0  2  0  0  0  0  0  0
  190.8470  172.3520  143.9460 C   0  0  0  0  0  0  0  0  0  0  0  0
  188.2510  175.9200  143.1440 C   0  0  2  0  0  3  0  0  0  0  0  0
  191.1350  174.8010  145.3250 C   0  0  0  0  0  0  0  0  0  0  0  0
  191.2360  176.0240  147.3400 O   0  0  0  0  0  1  0  0  0  0  0  0
  186.7780  175.7520  142.7630 C   0  0  0  0  0  2  0  0  0  0  0  0
  184.7300  178.4940  142.0030 O   0  0  0  0  0  0  0  0  0  0  0  0
  188.9160  177.9590  142.0910 F   0  0  0  0  0  0  0  0  0  0  0  0
  190.0270  171.4270  141.8730 C   0  0  0  0  0  3  0  0  0  0  0  0
  187.8200  172.8810  139.8000 O   0  0  0  0  0  0  0  0  0  0  0  0
  189.0300  173.0040  140.1350 C   0  0  0  0  0  0  0  0  0  0  0  0
  191.3950  173.4150  139.3880 C   0  0  0  0  0  3  0  0  0  0  0  0
  190.0180  173.4180  139.1110 C   0  0  0  0  0  0  0  0  0  0  0  0
  189.5840  173.7900  137.8300 C   0  0  0  0  0  3  0  0  0  0  0  0
  190.0330  174.5610  135.4970 C   0  0  0  0  0  1  0  0  0  0  0  0
  191.8730  174.1660  137.1390 C   0  0  0  0  0  3  0  0  0  0  0  0
  190.5060  174.1650  136.8490 C   0  0  0  0  0  0  0  0  0  0  0  0
  192.3170  173.7910  138.4080 C   0  0  0  0  0  3  0  0  0  0  0  0
  186.1970  178.4810  145.8220 C   0  0  0  0  0  1  0  0  0  0  0  0
  187.4000  177.8840  145.4230 O   0  0  0  0  0  0  0  0  0  0  0  0
  1 25  1  6  0  0  0
  1 12  1  0  0  0  0
  1  4  1  0  0  0  0
  2 13  1  6  0  0  0
  2 22  1  0  0  0  0
  3 19  1  0  0  0  0
  3  8  1  0  0  0  0
  4 37  1  1  0  0  0
  5 21  2  0  0  0  0
  6  3  2  0  0  0  0
  7 11  1  0  0  0  0
  8 21  1  0  0  0  0
  9 26  2  0  0  0  0
  9  6  1  0  0  0  0
 10 15  1  0  0  0  0
 11  4  1  0  0  0  0
 12 16  1  0  0  0  0
 14 19  1  0  0  0  0
 15  5  1  0  0  0  0
 16  2  1  0  0  0  0
 17  7  1  0  0  0  0
 17 23  1  0  0  0  0
 18  6  1  0  0  0  0
 19 15  2  0  0  0  0
 20 18  1  6  0  0  0
 20  1  1  0  0  0  0
 21  2  1  0  0  0  0
 23 20  1  0  0  0  0
 24  7  2  0  0  0  0
 26 14  1  0  0  0  0
 27 28  2  0  0  0  0
 28  9  1  0  0  0  0
 30 29  1  0  0  0  0
 30 28  1  0  0  0  0
 31 30  2  0  0  0  0
 32 34  1  0  0  0  0
 33 35  1  0  0  0  0
 34 33  2  0  0  0  0
 34 31  1  0  0  0  0
 35 29  2  0  0  0  0
 37 36  1  0  0  0  0
M  END
>  <MODEL>
8

>  <REMARK>
 VINA RESULT:      -7.5      3.046      5.773
  Name = 
  3 active torsions:
  status: ('A' for Active; 'I' for Inactive)
    1  A    between atoms: C_5  and  O_23
    2  A    between atoms: C_6  and  C_31
    3  A    between atoms: C_14  and  C_31
                            x       y       z     vdW  Elec       q    Type
                         _______ _______ _______ _____ _____    ______ ____

>  <TORSDO>
F 3

$$$$
=
 OpenBabel11052419563D

 37 41  0  0  1  0  0  0  0  0999 V2000
  189.8310  176.9710  143.7400 C   0  0  1  0  0  0  0  0  0  0  0  0
  191.8990  175.8360  146.7830 C   0  0  1  0  0  0  0  0  0  0  0  0
  191.5530  173.1410  144.0890 C   0  0  0  0  0  0  0  0  0  0  0  0
  188.4800  177.4900  144.2880 C   0  0  1  0  0  3  0  0  0  0  0  0
  193.3850  173.9380  146.1380 C   0  0  0  0  0  3  0  0  0  0  0  0
  191.4980  173.7090  142.6860 C   0  0  0  0  0  0  0  0  0  0  0  0
  187.1790  177.1950  142.1270 C   0  0  0  0  0  0  0  0  0  0  0  0
  191.2770  174.1110  145.0930 O   0  0  0  0  0  0  0  0  0  0  0  0
  191.9880  172.9460  141.6740 C   0  0  0  0  0  0  0  0  0  0  0  0
  194.9410  172.1050  145.4580 N   0  0  0  0  0  1  0  0  0  0  0  0
  187.4840  177.8670  143.3210 O   0  0  0  0  0  0  0  0  0  0  0  0
  190.9600  177.1500  144.7770 C   0  0  0  0  0  2  0  0  0  0  0  0
  193.0860  176.7900  146.8500 C   0  0  0  0  0  1  0  0  0  0  0  0
  193.2290  171.4790  143.2350 C   0  0  0  0  0  2  0  0  0  0  0  0
  193.6880  172.7630  145.2970 C   0  0  0  0  0  0  0  0  0  0  0  0
  190.6850  176.5570  146.1680 C   0  0  0  0  0  2  0  0  0  0  0  0
  188.0910  176.1920  141.4900 C   0  0  0  0  0  2  0  0  0  0  0  0
  191.0130  175.1210  142.4490 C   0  0  0  0  0  2  0  0  0  0  0  0
  192.8530  172.4170  144.3040 C   0  0  0  0  0  0  0  0  0  0  0  0
  189.7680  175.4980  143.2560 C   0  0  2  0  0  3  0  0  0  0  0  0
  192.2320  174.6000  145.9860 C   0  0  0  0  0  0  0  0  0  0  0  0
  191.5670  175.4540  148.0820 O   0  0  0  0  0  1  0  0  0  0  0  0
  188.5070  175.1170  142.4760 C   0  0  0  0  0  2  0  0  0  0  0  0
  186.1200  177.5000  141.5190 O   0  0  0  0  0  0  0  0  0  0  0  0
  190.1730  177.7780  142.6660 F   0  0  0  0  0  0  0  0  0  0  0  0
  192.7850  171.7220  141.9930 C   0  0  0  0  0  3  0  0  0  0  0  0
  192.9250  173.7540  139.6470 O   0  0  0  0  0  0  0  0  0  0  0  0
  191.8910  173.3520  140.2480 C   0  0  0  0  0  0  0  0  0  0  0  0
  189.4650  172.7170  140.0880 C   0  0  0  0  0  3  0  0  0  0  0  0
  190.6130  173.2740  139.5030 C   0  0  0  0  0  0  0  0  0  0  0  0
  190.5300  173.7910  138.2010 C   0  0  0  0  0  3  0  0  0  0  0  0
  189.2520  174.2890  136.1140 C   0  0  0  0  0  1  0  0  0  0  0  0
  188.1910  173.1770  138.0830 C   0  0  0  0  0  3  0  0  0  0  0  0
  189.3260  173.7400  137.4930 C   0  0  0  0  0  0  0  0  0  0  0  0
  188.2610  172.6660  139.3800 C   0  0  0  0  0  3  0  0  0  0  0  0
  186.8350  177.5170  145.8950 C   0  0  0  0  0  1  0  0  0  0  0  0
  187.9710  176.8380  145.4360 O   0  0  0  0  0  0  0  0  0  0  0  0
  1 25  1  6  0  0  0
  1  4  1  0  0  0  0
  1 12  1  0  0  0  0
  2 13  1  1  0  0  0
  2 22  1  0  0  0  0
  3 19  1  0  0  0  0
  3  8  1  0  0  0  0
  4 37  1  1  0  0  0
  6  3  2  0  0  0  0
  7 11  1  0  0  0  0
  8 21  1  0  0  0  0
  9 26  2  0  0  0  0
  9  6  1  0  0  0  0
 11  4  1  0  0  0  0
 12 16  1  0  0  0  0
 14 19  1  0  0  0  0
 15 10  1  0  0  0  0
 15  5  1  0  0  0  0
 16  2  1  0  0  0  0
 17  7  1  0  0  0  0
 17 23  1  0  0  0  0
 18  6  1  0  0  0  0
 19 15  2  0  0  0  0
 20 18  1  6  0  0  0
 20  1  1  0  0  0  0
 21  5  2  0  0  0  0
 21  2  1  0  0  0  0
 23 20  1  0  0  0  0
 24  7  2  0  0  0  0
 26 14  1  0  0  0  0
 27 28  2  0  0  0  0
 28  9  1  0  0  0  0
 30 29  1  0  0  0  0
 30 28  1  0  0  0  0
 31 30  2  0  0  0  0
 32 34  1  0  0  0  0
 33 35  1  0  0  0  0
 34 33  2  0  0  0  0
 34 31  1  0  0  0  0
 35 29  2  0  0  0  0
 37 36  1  0  0  0  0
M  END
>  <MODEL>
9

>  <REMARK>
 VINA RESULT:      -7.5      3.143      6.147
  Name = 
  3 active torsions:
  status: ('A' for Active; 'I' for Inactive)
    1  A    between atoms: C_5  and  O_23
    2  A    between atoms: C_6  and  C_31
    3  A    between atoms: C_14  and  C_31
                            x       y       z     vdW  Elec       q    Type
                         _______ _______ _______ _____ _____    ______ ____

>  <TORSDO>
F 3

$$$$
