=
 OpenBabel11052418393D

 34 37  0  0  1  0  0  0  0  0999 V2000
  190.8900  175.5680  143.9010 N   0  0  1  0  0  0  0  0  0  0  0  0
  191.3620  176.2480  146.1310 O   0  0  0  0  0  0  0  0  0  0  0  0
  192.3120  175.2030  143.7180 C   0  0  1  0  0  3  0  0  0  0  0  0
  192.6850  175.8340  146.0790 C   0  0  0  0  0  3  0  0  0  0  0  0
  193.2040  175.3820  144.9390 C   0  0  0  0  0  0  0  0  0  0  0  0
  190.6760  176.5980  144.9390 C   0  0  2  0  0  3  0  0  0  0  0  0
  189.8940  177.3160  142.5420 O   0  0  0  0  0  0  0  0  0  0  0  0
  189.2590  175.1370  142.0060 C   0  0  1  0  0  3  0  0  0  0  0  0
  188.6050  177.2760  142.0510 C   0  0  0  0  0  0  0  0  0  0  0  0
  188.1920  176.0950  141.7510 N   0  0  0  0  0  0  0  0  0  0  0  0
  190.4160  175.9940  142.5660 C   0  0  2  0  0  3  0  0  0  0  0  0
  187.7530  178.4850  141.9040 C   0  0  0  0  0  1  0  0  0  0  0  0
  188.7650  174.0420  142.9430 C   0  0  0  0  0  1  0  0  0  0  0  0
  196.6360  173.9520  145.7060 C   0  0  0  0  0  0  0  0  0  0  0  0
  197.4110  174.5230  144.6930 C   0  0  0  0  0  3  0  0  0  0  0  0
  194.6640  175.1050  144.8630 C   0  0  0  0  0  0  0  0  0  0  0  0
  196.8210  175.3860  143.7670 C   0  0  0  0  0  3  0  0  0  0  0  0
  195.2710  174.2380  145.7860 C   0  0  0  0  0  3  0  0  0  0  0  0
  195.4560  175.6740  143.8510 C   0  0  0  0  0  3  0  0  0  0  0  0
  197.2040  173.1080  146.5980 F   0  0  0  0  0  0  0  0  0  0  0  0
  191.6170  172.8580  144.6820 C   0  0  0  0  0  1  0  0  0  0  0  0
  192.3910  173.4660  143.1580 S   0  0  0  0  0  0  0  0  0  0  0  0
  189.1910  176.7360  145.2640 C   0  0  0  0  0  2  0  0  0  0  0  0
  188.9810  174.6040  146.3290 F   0  0  0  0  0  0  0  0  0  0  0  0
  188.7990  175.9620  146.5190 C   0  0  2  0  0  3  0  0  0  0  0  0
  187.4730  176.2200  146.8760 O   0  0  0  0  0  0  0  0  0  0  0  0
  187.3540  177.6130  146.8130 C   0  0  0  0  0  2  0  0  0  0  0  0
  185.1130  178.4300  147.3960 C   0  0  0  0  0  1  0  0  0  0  0  0
  186.0060  178.0250  146.2370 C   0  0  0  0  0  0  0  0  0  0  0  0
  186.1910  179.2340  145.3030 C   0  0  0  0  0  2  0  0  0  0  0  0
  184.4990  178.2480  143.6570 C   0  0  0  0  0  2  0  0  0  0  0  0
  185.2800  176.9840  144.0160 C   0  0  0  0  0  2  0  0  0  0  0  0
  185.3580  176.8190  145.5330 C   0  0  0  0  0  2  0  0  0  0  0  0
  184.9490  179.4860  144.4450 C   0  0  0  0  0  2  0  0  0  0  0  0
  1 11  1  6  0  0  0
  1  6  1  0  0  0  0
  3 22  1  1  0  0  0
  3  1  1  0  0  0  0
  3  5  1  0  0  0  0
  4  2  1  0  0  0  0
  5  4  2  0  0  0  0
  6 23  1  1  0  0  0
  6  2  1  0  0  0  0
  8 11  1  0  0  0  0
  8 13  1  1  0  0  0
  9  7  1  0  0  0  0
 10  8  1  0  0  0  0
 10  9  2  0  0  0  0
 11  7  1  1  0  0  0
 12  9  1  0  0  0  0
 14 18  1  0  0  0  0
 14 20  1  0  0  0  0
 15 14  2  0  0  0  0
 16  5  1  0  0  0  0
 16 18  2  0  0  0  0
 17 19  2  0  0  0  0
 17 15  1  0  0  0  0
 19 16  1  0  0  0  0
 22 21  1  0  0  0  0
 23 25  1  0  0  0  0
 25 24  1  6  0  0  0
 25 26  1  0  0  0  0
 27 26  1  0  0  0  0
 29 27  1  0  0  0  0
 29 28  1  0  0  0  0
 30 29  1  0  0  0  0
 31 32  1  0  0  0  0
 31 34  1  0  0  0  0
 32 33  1  0  0  0  0
 33 29  1  0  0  0  0
 34 30  1  0  0  0  0
M  END
>  <MODEL>
1

>  <REMARK>
 VINA RESULT:      -7.7      0.000      0.000
  Name = 
  8 active torsions:
  status: ('A' for Active; 'I' for Inactive)
    1  A    between atoms: C_3  and  C_13
    2  A    between atoms: C_3  and  O_17
    3  A    between atoms: N_4  and  C_15
    4  A    between atoms: C_10  and  C_29
    5  A    between atoms: C_10  and  C_31
    6  A    between atoms: C_12  and  C_28
    7  A    between atoms: O_17  and  C_29
    8  A    between atoms: C_21  and  S_32
                            x       y       z     vdW  Elec       q    Type
                         _______ _______ _______ _____ _____    ______ ____

>  <TORSDO>
F 8

$$$$
=
 OpenBabel11052418393D

 34 37  0  0  1  0  0  0  0  0999 V2000
  191.1730  174.7560  143.8440 N   0  0  1  0  0  0  0  0  0  0  0  0
  191.4660  175.0900  146.1810 O   0  0  0  0  0  0  0  0  0  0  0  0
  192.6070  174.4160  143.7200 C   0  0  1  0  0  3  0  0  0  0  0  0
  192.7910  174.6820  146.1710 C   0  0  0  0  0  3  0  0  0  0  0  0
  193.4010  174.4050  145.0190 C   0  0  0  0  0  0  0  0  0  0  0  0
  190.8720  175.6190  145.0060 C   0  0  2  0  0  3  0  0  0  0  0  0
  190.4280  176.7480  142.6720 O   0  0  0  0  0  0  0  0  0  0  0  0
  189.5790  174.7300  141.8710 C   0  0  1  0  0  3  0  0  0  0  0  0
  189.1620  176.9100  142.1470 C   0  0  0  0  0  0  0  0  0  0  0  0
  188.6340  175.8250  141.7010 N   0  0  0  0  0  0  0  0  0  0  0  0
  190.8010  175.3810  142.5560 C   0  0  2  0  0  3  0  0  0  0  0  0
  188.4540  178.2170  142.1200 C   0  0  0  0  0  1  0  0  0  0  0  0
  188.9320  173.5990  142.6610 C   0  0  0  0  0  1  0  0  0  0  0  0
  197.1130  174.7300  144.2980 C   0  0  0  0  0  0  0  0  0  0  0  0
  197.6390  173.6750  145.0480 C   0  0  0  0  0  3  0  0  0  0  0  0
  194.8640  174.1360  145.0160 C   0  0  0  0  0  0  0  0  0  0  0  0
  196.7850  172.8470  145.7790 C   0  0  0  0  0  3  0  0  0  0  0  0
  195.7350  174.9610  144.2870 C   0  0  0  0  0  3  0  0  0  0  0  0
  195.4060  173.0760  145.7630 C   0  0  0  0  0  3  0  0  0  0  0  0
  197.9400  175.5400  143.5970 F   0  0  0  0  0  0  0  0  0  0  0  0
  191.7980  171.9680  144.2290 C   0  0  0  0  0  1  0  0  0  0  0  0
  192.7410  172.7830  142.9120 S   0  0  0  0  0  0  0  0  0  0  0  0
  189.3650  175.7140  145.2320 C   0  0  0  0  0  2  0  0  0  0  0  0
  188.6890  174.6580  147.2700 F   0  0  0  0  0  0  0  0  0  0  0  0
  189.0100  175.8800  146.7070 C   0  0  2  0  0  3  0  0  0  0  0  0
  187.9500  176.7750  146.8720 O   0  0  0  0  0  0  0  0  0  0  0  0
  187.6800  177.2460  145.5820 C   0  0  0  0  0  2  0  0  0  0  0  0
  185.4740  176.9690  146.6230 C   0  0  0  0  0  1  0  0  0  0  0  0
  186.1860  177.4540  145.3730 C   0  0  0  0  0  0  0  0  0  0  0  0
  185.8950  178.9530  145.1820 C   0  0  0  0  0  2  0  0  0  0  0  0
  184.1850  178.4100  143.3590 C   0  0  0  0  0  2  0  0  0  0  0  0
  185.2930  177.4290  142.9760 C   0  0  0  0  0  2  0  0  0  0  0  0
  185.7090  176.5960  144.1870 C   0  0  0  0  0  2  0  0  0  0  0  0
  184.4830  179.1950  144.6430 C   0  0  0  0  0  2  0  0  0  0  0  0
  1 11  1  6  0  0  0
  1  6  1  0  0  0  0
  3 22  1  1  0  0  0
  3  1  1  0  0  0  0
  3  5  1  0  0  0  0
  4  2  1  0  0  0  0
  5  4  2  0  0  0  0
  6 23  1  1  0  0  0
  6  2  1  0  0  0  0
  8 11  1  0  0  0  0
  8 13  1  1  0  0  0
  9  7  1  0  0  0  0
 10  8  1  0  0  0  0
 10  9  2  0  0  0  0
 11  7  1  1  0  0  0
 12  9  1  0  0  0  0
 14 15  1  0  0  0  0
 15 17  2  0  0  0  0
 16  5  1  0  0  0  0
 16 19  2  0  0  0  0
 18 14  2  0  0  0  0
 18 16  1  0  0  0  0
 19 17  1  0  0  0  0
 20 14  1  0  0  0  0
 22 21  1  0  0  0  0
 23 25  1  0  0  0  0
 25 26  1  0  0  0  0
 25 24  1  6  0  0  0
 27 26  1  0  0  0  0
 29 27  1  0  0  0  0
 29 28  1  0  0  0  0
 30 29  1  0  0  0  0
 31 34  1  0  0  0  0
 32 31  1  0  0  0  0
 32 33  1  0  0  0  0
 33 29  1  0  0  0  0
 34 30  1  0  0  0  0
M  END
>  <MODEL>
2

>  <REMARK>
 VINA RESULT:      -7.5      1.110      1.408
  Name = 
  8 active torsions:
  status: ('A' for Active; 'I' for Inactive)
    1  A    between atoms: C_3  and  C_13
    2  A    between atoms: C_3  and  O_17
    3  A    between atoms: N_4  and  C_15
    4  A    between atoms: C_10  and  C_29
    5  A    between atoms: C_10  and  C_31
    6  A    between atoms: C_12  and  C_28
    7  A    between atoms: O_17  and  C_29
    8  A    between atoms: C_21  and  S_32
                            x       y       z     vdW  Elec       q    Type
                         _______ _______ _______ _____ _____    ______ ____

>  <TORSDO>
F 8

$$$$
=
 OpenBabel11052418393D

 34 37  0  0  1  0  0  0  0  0999 V2000
  189.8770  175.5440  144.3910 N   0  0  1  0  0  0  0  0  0  0  0  0
  190.1060  176.3220  146.6280 O   0  0  0  0  0  0  0  0  0  0  0  0
  188.5390  176.1690  144.3180 C   0  0  1  0  0  3  0  0  0  0  0  0
  188.9110  177.0250  146.6070 C   0  0  0  0  0  3  0  0  0  0  0  0
  188.0980  176.9410  145.5550 C   0  0  0  0  0  0  0  0  0  0  0  0
  190.2940  175.2070  145.7690 C   0  0  2  0  0  3  0  0  0  0  0  0
  190.0550  173.1310  144.1840 O   0  0  0  0  0  0  0  0  0  0  0  0
  190.8550  174.3610  142.3710 C   0  0  1  0  0  3  0  0  0  0  0  0
  191.1010  172.4820  143.5600 C   0  0  0  0  0  0  0  0  0  0  0  0
  191.5950  173.1210  142.5580 N   0  0  0  0  0  0  0  0  0  0  0  0
  189.8090  174.3580  143.5090 C   0  0  2  0  0  3  0  0  0  0  0  0
  191.6330  171.1720  144.0170 C   0  0  0  0  0  1  0  0  0  0  0  0
  191.8100  175.5470  142.3850 C   0  0  0  0  0  1  0  0  0  0  0  0
  185.1980  179.3090  144.9350 C   0  0  0  0  0  0  0  0  0  0  0  0
  184.1850  178.7180  145.6950 C   0  0  0  0  0  3  0  0  0  0  0  0
  186.7490  177.5630  145.6230 C   0  0  0  0  0  0  0  0  0  0  0  0
  184.4480  177.5550  146.4220 C   0  0  0  0  0  3  0  0  0  0  0  0
  186.4690  178.7310  144.8960 C   0  0  0  0  0  3  0  0  0  0  0  0
  185.7220  176.9810  146.3860 C   0  0  0  0  0  3  0  0  0  0  0  0
  184.9420  180.4300  144.2220 F   0  0  0  0  0  0  0  0  0  0  0  0
  187.1430  176.3540  142.0980 C   0  0  0  0  0  1  0  0  0  0  0  0
  188.5030  177.2770  142.8660 S   0  0  0  0  0  0  0  0  0  0  0  0
  191.7700  174.8180  145.8070 C   0  0  0  0  0  2  0  0  0  0  0  0
  192.7180  176.9320  145.2100 F   0  0  0  0  0  0  0  0  0  0  0  0
  192.6660  175.9840  146.2150 C   0  0  2  0  0  3  0  0  0  0  0  0
  193.9550  175.5440  146.5240 O   0  0  0  0  0  0  0  0  0  0  0  0
  194.7130  175.8360  145.3840 C   0  0  0  0  0  2  0  0  0  0  0  0
  196.6230  175.1750  143.9910 C   0  0  0  0  0  1  0  0  0  0  0  0
  195.6160  174.6690  145.0090 C   0  0  0  0  0  0  0  0  0  0  0  0
  196.3700  174.1770  146.2560 C   0  0  0  0  0  2  0  0  0  0  0  0
  196.0500  171.7490  145.5180 C   0  0  0  0  0  2  0  0  0  0  0  0
  194.6630  172.3030  145.1970 C   0  0  0  0  0  2  0  0  0  0  0  0
  194.7760  173.5640  144.3430 C   0  0  0  0  0  2  0  0  0  0  0  0
  197.0300  172.8170  146.0230 C   0  0  0  0  0  2  0  0  0  0  0  0
  1 11  1  6  0  0  0
  1  6  1  0  0  0  0
  3 22  1  6  0  0  0
  3  1  1  0  0  0  0
  3  5  1  0  0  0  0
  4  2  1  0  0  0  0
  5 16  1  0  0  0  0
  5  4  2  0  0  0  0
  6 23  1  6  0  0  0
  6  2  1  0  0  0  0
  8 13  1  1  0  0  0
  8 10  1  0  0  0  0
  8 11  1  0  0  0  0
  9 12  1  0  0  0  0
  9  7  1  0  0  0  0
 10  9  2  0  0  0  0
 11  7  1  1  0  0  0
 14 15  1  0  0  0  0
 15 17  2  0  0  0  0
 16 19  2  0  0  0  0
 18 14  2  0  0  0  0
 18 16  1  0  0  0  0
 19 17  1  0  0  0  0
 20 14  1  0  0  0  0
 21 22  1  0  0  0  0
 23 25  1  0  0  0  0
 25 24  1  6  0  0  0
 25 26  1  0  0  0  0
 27 26  1  0  0  0  0
 28 29  1  0  0  0  0
 29 27  1  0  0  0  0
 29 30  1  0  0  0  0
 31 34  1  0  0  0  0
 32 31  1  0  0  0  0
 33 29  1  0  0  0  0
 33 32  1  0  0  0  0
 34 30  1  0  0  0  0
M  END
>  <MODEL>
3

>  <REMARK>
 VINA RESULT:      -7.3      2.341      8.438
  Name = 
  8 active torsions:
  status: ('A' for Active; 'I' for Inactive)
    1  A    between atoms: C_3  and  C_13
    2  A    between atoms: C_3  and  O_17
    3  A    between atoms: N_4  and  C_15
    4  A    between atoms: C_10  and  C_29
    5  A    between atoms: C_10  and  C_31
    6  A    between atoms: C_12  and  C_28
    7  A    between atoms: O_17  and  C_29
    8  A    between atoms: C_21  and  S_32
                            x       y       z     vdW  Elec       q    Type
                         _______ _______ _______ _____ _____    ______ ____

>  <TORSDO>
F 8

$$$$
=
 OpenBabel11052418393D

 34 37  0  0  1  0  0  0  0  0999 V2000
  189.7130  175.1290  144.2420 N   0  0  1  0  0  0  0  0  0  0  0  0
  190.1190  174.9400  146.5780 O   0  0  0  0  0  0  0  0  0  0  0  0
  188.5190  175.9560  144.5230 C   0  0  1  0  0  3  0  0  0  0  0  0
  189.0810  175.7920  146.9250 C   0  0  0  0  0  3  0  0  0  0  0  0
  188.2530  176.2590  145.9910 C   0  0  0  0  0  0  0  0  0  0  0  0
  190.0770  174.2240  145.3530 C   0  0  2  0  0  3  0  0  0  0  0  0
  189.3440  172.9910  143.1510 O   0  0  0  0  0  0  0  0  0  0  0  0
  190.4600  174.5940  141.8770 C   0  0  1  0  0  3  0  0  0  0  0  0
  190.2340  172.4040  142.2750 C   0  0  0  0  0  0  0  0  0  0  0  0
  190.8930  173.2410  141.5540 N   0  0  0  0  0  0  0  0  0  0  0  0
  189.4060  174.4020  142.9900 C   0  0  2  0  0  3  0  0  0  0  0  0
  190.4390  170.9350  142.1880 C   0  0  0  0  0  1  0  0  0  0  0  0
  191.6590  175.4450  142.2740 C   0  0  0  0  0  1  0  0  0  0  0  0
  186.0640  178.9490  147.5330 C   0  0  0  0  0  0  0  0  0  0  0  0
  184.7890  178.5340  147.1390 C   0  0  0  0  0  3  0  0  0  0  0  0
  187.0500  177.0310  146.4040 C   0  0  0  0  0  0  0  0  0  0  0  0
  184.6380  177.3700  146.3830 C   0  0  0  0  0  3  0  0  0  0  0  0
  187.1860  178.2040  147.1620 C   0  0  0  0  0  3  0  0  0  0  0  0
  185.7620  176.6230  146.0170 C   0  0  0  0  0  3  0  0  0  0  0  0
  186.2120  180.0820  148.2570 F   0  0  0  0  0  0  0  0  0  0  0  0
  190.2080  177.9690  144.4610 C   0  0  0  0  0  1  0  0  0  0  0  0
  188.6760  177.5230  143.5980 S   0  0  0  0  0  0  0  0  0  0  0  0
  191.4500  173.6020  145.1140 C   0  0  0  0  0  2  0  0  0  0  0  0
  192.6870  175.6350  145.3650 F   0  0  0  0  0  0  0  0  0  0  0  0
  192.5590  174.3470  145.8530 C   0  0  2  0  0  3  0  0  0  0  0  0
  193.7770  173.6710  145.7440 O   0  0  0  0  0  0  0  0  0  0  0  0
  194.2440  173.9860  144.4630 C   0  0  0  0  0  2  0  0  0  0  0  0
  196.2650  174.0850  145.8540 C   0  0  0  0  0  1  0  0  0  0  0  0
  195.6850  174.4780  144.5080 C   0  0  0  0  0  0  0  0  0  0  0  0
  196.4980  173.7950  143.3950 C   0  0  0  0  0  2  0  0  0  0  0  0
  197.7230  175.9880  142.9150 C   0  0  0  0  0  2  0  0  0  0  0  0
  196.3020  176.5190  143.0940 C   0  0  0  0  0  2  0  0  0  0  0  0
  195.7060  176.0140  144.4070 C   0  0  0  0  0  2  0  0  0  0  0  0
  197.8480  174.4810  143.1730 C   0  0  0  0  0  2  0  0  0  0  0  0
  1 11  1  6  0  0  0
  1  3  1  0  0  0  0
  1  6  1  0  0  0  0
  2  4  1  0  0  0  0
  3 22  1  6  0  0  0
  3  5  1  0  0  0  0
  5 16  1  0  0  0  0
  5  4  2  0  0  0  0
  6 23  1  6  0  0  0
  6  2  1  0  0  0  0
  8 13  1  1  0  0  0
  8 11  1  0  0  0  0
  9  7  1  0  0  0  0
 10  8  1  0  0  0  0
 10  9  2  0  0  0  0
 11  7  1  1  0  0  0
 12  9  1  0  0  0  0
 14 20  1  0  0  0  0
 15 14  2  0  0  0  0
 16 18  2  0  0  0  0
 17 15  1  0  0  0  0
 18 14  1  0  0  0  0
 19 17  2  0  0  0  0
 19 16  1  0  0  0  0
 22 21  1  0  0  0  0
 23 25  1  0  0  0  0
 25 24  1  6  0  0  0
 26 25  1  0  0  0  0
 27 29  1  0  0  0  0
 27 26  1  0  0  0  0
 29 28  1  0  0  0  0
 30 29  1  0  0  0  0
 31 32  1  0  0  0  0
 31 34  1  0  0  0  0
 32 33  1  0  0  0  0
 33 29  1  0  0  0  0
 34 30  1  0  0  0  0
M  END
>  <MODEL>
4

>  <REMARK>
 VINA RESULT:      -7.2      2.368      8.275
  Name = 
  8 active torsions:
  status: ('A' for Active; 'I' for Inactive)
    1  A    between atoms: C_3  and  C_13
    2  A    between atoms: C_3  and  O_17
    3  A    between atoms: N_4  and  C_15
    4  A    between atoms: C_10  and  C_29
    5  A    between atoms: C_10  and  C_31
    6  A    between atoms: C_12  and  C_28
    7  A    between atoms: O_17  and  C_29
    8  A    between atoms: C_21  and  S_32
                            x       y       z     vdW  Elec       q    Type
                         _______ _______ _______ _____ _____    ______ ____

>  <TORSDO>
F 8

$$$$
=
 OpenBabel11052418393D

 34 37  0  0  1  0  0  0  0  0999 V2000
  190.2420  175.4760  144.4080 N   0  0  1  0  0  0  0  0  0  0  0  0
  190.5810  176.6120  146.4700 O   0  0  0  0  0  0  0  0  0  0  0  0
  188.8540  175.9830  144.3640 C   0  0  1  0  0  3  0  0  0  0  0  0
  189.3320  177.2140  146.4540 C   0  0  0  0  0  3  0  0  0  0  0  0
  188.4490  176.9070  145.5050 C   0  0  0  0  0  0  0  0  0  0  0  0
  190.7950  175.3920  145.7760 C   0  0  2  0  0  3  0  0  0  0  0  0
  190.6640  173.0880  144.5330 O   0  0  0  0  0  0  0  0  0  0  0  0
  191.1060  174.0830  142.4710 C   0  0  1  0  0  3  0  0  0  0  0  0
  191.6960  172.4480  143.8790 C   0  0  0  0  0  0  0  0  0  0  0  0
  191.9970  172.9630  142.7390 N   0  0  0  0  0  0  0  0  0  0  0  0
  190.2060  174.1640  143.7250 C   0  0  2  0  0  3  0  0  0  0  0  0
  192.4210  171.2820  144.4480 C   0  0  0  0  0  1  0  0  0  0  0  0
  191.9180  175.3400  142.1860 C   0  0  0  0  0  1  0  0  0  0  0  0
  185.3900  179.0930  144.9870 C   0  0  0  0  0  0  0  0  0  0  0  0
  184.4250  178.4070  145.7290 C   0  0  0  0  0  3  0  0  0  0  0  0
  187.0610  177.4340  145.6030 C   0  0  0  0  0  0  0  0  0  0  0  0
  184.7710  177.2390  146.4110 C   0  0  0  0  0  3  0  0  0  0  0  0
  186.6970  178.6060  144.9210 C   0  0  0  0  0  3  0  0  0  0  0  0
  186.0810  176.7550  146.3480 C   0  0  0  0  0  3  0  0  0  0  0  0
  185.0540  180.2200  144.3170 F   0  0  0  0  0  0  0  0  0  0  0  0
  187.1940  175.7930  142.3340 C   0  0  0  0  0  1  0  0  0  0  0  0
  188.6070  176.8430  142.7710 S   0  0  0  0  0  0  0  0  0  0  0  0
  192.2970  175.1210  145.7360 C   0  0  0  0  0  2  0  0  0  0  0  0
  193.0090  177.1670  144.7190 F   0  0  0  0  0  0  0  0  0  0  0  0
  193.1190  176.4010  145.8650 C   0  0  2  0  0  3  0  0  0  0  0  0
  194.4630  176.1120  146.1190 O   0  0  0  0  0  0  0  0  0  0  0  0
  194.6180  174.7770  145.7270 C   0  0  0  0  0  2  0  0  0  0  0  0
  196.9490  174.0760  145.4090 C   0  0  0  0  0  1  0  0  0  0  0  0
  195.7300  174.6320  144.6960 C   0  0  0  0  0  0  0  0  0  0  0  0
  195.2950  173.6400  143.6040 C   0  0  0  0  0  2  0  0  0  0  0  0
  196.3630  175.1170  141.8090 C   0  0  0  0  0  2  0  0  0  0  0  0
  195.7010  176.1920  142.6690 C   0  0  0  0  0  2  0  0  0  0  0  0
  196.0940  176.0190  144.1350 C   0  0  0  0  0  2  0  0  0  0  0  0
  196.2140  173.7010  142.3810 C   0  0  0  0  0  2  0  0  0  0  0  0
  1 11  1  1  0  0  0
  1  6  1  0  0  0  0
  3 22  1  6  0  0  0
  3  1  1  0  0  0  0
  3  5  1  0  0  0  0
  4  2  1  0  0  0  0
  5 16  1  0  0  0  0
  5  4  2  0  0  0  0
  6 23  1  6  0  0  0
  6  2  1  0  0  0  0
  8 13  1  1  0  0  0
  8 10  1  0  0  0  0
  8 11  1  0  0  0  0
  9 12  1  0  0  0  0
  9  7  1  0  0  0  0
 10  9  2  0  0  0  0
 11  7  1  1  0  0  0
 14 15  1  0  0  0  0
 15 17  2  0  0  0  0
 16 19  2  0  0  0  0
 18 14  2  0  0  0  0
 18 16  1  0  0  0  0
 19 17  1  0  0  0  0
 20 14  1  0  0  0  0
 21 22  1  0  0  0  0
 23 25  1  0  0  0  0
 25 24  1  6  0  0  0
 25 26  1  0  0  0  0
 27 26  1  0  0  0  0
 29 28  1  0  0  0  0
 29 27  1  0  0  0  0
 30 29  1  0  0  0  0
 31 34  1  0  0  0  0
 31 32  1  0  0  0  0
 32 33  1  0  0  0  0
 33 29  1  0  0  0  0
 34 30  1  0  0  0  0
M  END
>  <MODEL>
5

>  <REMARK>
 VINA RESULT:      -7.1      2.346      8.322
  Name = 
  8 active torsions:
  status: ('A' for Active; 'I' for Inactive)
    1  A    between atoms: C_3  and  C_13
    2  A    between atoms: C_3  and  O_17
    3  A    between atoms: N_4  and  C_15
    4  A    between atoms: C_10  and  C_29
    5  A    between atoms: C_10  and  C_31
    6  A    between atoms: C_12  and  C_28
    7  A    between atoms: O_17  and  C_29
    8  A    between atoms: C_21  and  S_32
                            x       y       z     vdW  Elec       q    Type
                         _______ _______ _______ _____ _____    ______ ____

>  <TORSDO>
F 8

$$$$
=
 OpenBabel11052418393D

 34 37  0  0  1  0  0  0  0  0999 V2000
  189.6220  174.7120  142.4910 N   0  0  1  0  0  0  0  0  0  0  0  0
  189.1740  176.9070  143.2920 O   0  0  0  0  0  0  0  0  0  0  0  0
  190.9170  174.7230  143.2060 C   0  0  1  0  0  3  0  0  0  0  0  0
  190.3160  176.9580  144.0760 C   0  0  0  0  0  3  0  0  0  0  0  0
  191.2090  175.9710  144.0290 C   0  0  0  0  0  0  0  0  0  0  0  0
  189.1270  176.0630  142.1520 C   0  0  2  0  0  3  0  0  0  0  0  0
  189.6230  174.5470  140.0680 O   0  0  0  0  0  0  0  0  0  0  0  0
  188.8840  172.6520  141.2080 C   0  0  1  0  0  3  0  0  0  0  0  0
  188.6750  173.8620  139.3380 C   0  0  0  0  0  0  0  0  0  0  0  0
  188.2160  172.8120  139.9230 N   0  0  0  0  0  0  0  0  0  0  0  0
  189.8370  173.8650  141.2970 C   0  0  2  0  0  3  0  0  0  0  0  0
  188.1980  174.3080  138.0030 C   0  0  0  0  0  1  0  0  0  0  0  0
  187.8530  172.5670  142.3260 C   0  0  0  0  0  1  0  0  0  0  0  0
  194.9340  176.2570  144.6980 C   0  0  0  0  0  0  0  0  0  0  0  0
  194.9560  176.4740  146.0780 C   0  0  0  0  0  3  0  0  0  0  0  0
  192.5040  176.1240  144.7460 C   0  0  0  0  0  0  0  0  0  0  0  0
  193.7600  176.5140  146.7960 C   0  0  0  0  0  3  0  0  0  0  0  0
  193.7150  176.0880  144.0370 C   0  0  0  0  0  3  0  0  0  0  0  0
  192.5410  176.3410  146.1340 C   0  0  0  0  0  3  0  0  0  0  0  0
  196.0930  176.2270  143.9990 F   0  0  0  0  0  0  0  0  0  0  0  0
  189.6930  173.8990  145.3820 C   0  0  0  0  0  1  0  0  0  0  0  0
  190.9870  173.2530  144.2880 S   0  0  0  0  0  0  0  0  0  0  0  0
  187.6820  176.0000  141.6610 C   0  0  0  0  0  2  0  0  0  0  0  0
  188.2790  178.2010  140.9370 F   0  0  0  0  0  0  0  0  0  0  0  0
  187.2890  177.2380  140.8600 C   0  0  2  0  0  3  0  0  0  0  0  0
  186.0760  177.7640  141.3100 O   0  0  0  0  0  0  0  0  0  0  0  0
  186.4140  178.5220  142.4370 C   0  0  0  0  0  2  0  0  0  0  0  0
  184.0580  177.9930  142.8800 C   0  0  0  0  0  1  0  0  0  0  0  0
  185.3740  178.3650  143.5390 C   0  0  0  0  0  0  0  0  0  0  0  0
  185.7960  177.2310  144.4890 C   0  0  0  0  0  2  0  0  0  0  0  0
  185.0090  178.5970  146.5030 C   0  0  0  0  0  2  0  0  0  0  0  0
  185.7020  179.6950  145.6980 C   0  0  0  0  0  2  0  0  0  0  0  0
  185.1850  179.7110  144.2610 C   0  0  0  0  0  2  0  0  0  0  0  0
  184.9820  177.2410  145.7840 C   0  0  0  0  0  2  0  0  0  0  0  0
  1 11  1  6  0  0  0
  1  3  1  0  0  0  0
  2  4  1  0  0  0  0
  3  5  1  0  0  0  0
  3 22  1  1  0  0  0
  5  4  2  0  0  0  0
  5 16  1  0  0  0  0
  6 23  1  1  0  0  0
  6  1  1  0  0  0  0
  6  2  1  0  0  0  0
  8 11  1  0  0  0  0
  8 13  1  1  0  0  0
  9 10  2  0  0  0  0
  9  7  1  0  0  0  0
 10  8  1  0  0  0  0
 11  7  1  6  0  0  0
 12  9  1  0  0  0  0
 14 15  1  0  0  0  0
 15 17  2  0  0  0  0
 16 19  2  0  0  0  0
 18 14  2  0  0  0  0
 18 16  1  0  0  0  0
 19 17  1  0  0  0  0
 20 14  1  0  0  0  0
 22 21  1  0  0  0  0
 25 24  1  1  0  0  0
 25 26  1  0  0  0  0
 25 23  1  0  0  0  0
 26 27  1  0  0  0  0
 27 29  1  0  0  0  0
 28 29  1  0  0  0  0
 29 33  1  0  0  0  0
 29 30  1  0  0  0  0
 30 34  1  0  0  0  0
 32 31  1  0  0  0  0
 33 32  1  0  0  0  0
 34 31  1  0  0  0  0
M  END
>  <MODEL>
6

>  <REMARK>
 VINA RESULT:      -7.1      2.324      3.676
  Name = 
  8 active torsions:
  status: ('A' for Active; 'I' for Inactive)
    1  A    between atoms: C_3  and  C_13
    2  A    between atoms: C_3  and  O_17
    3  A    between atoms: N_4  and  C_15
    4  A    between atoms: C_10  and  C_29
    5  A    between atoms: C_10  and  C_31
    6  A    between atoms: C_12  and  C_28
    7  A    between atoms: O_17  and  C_29
    8  A    between atoms: C_21  and  S_32
                            x       y       z     vdW  Elec       q    Type
                         _______ _______ _______ _____ _____    ______ ____

>  <TORSDO>
F 8

$$$$
=
 OpenBabel11052418393D

 34 37  0  0  1  0  0  0  0  0999 V2000
  190.6480  175.9910  144.8990 N   0  0  1  0  0  0  0  0  0  0  0  0
  189.2840  174.6620  143.4740 O   0  0  0  0  0  0  0  0  0  0  0  0
  189.5250  176.9370  145.0810 C   0  0  1  0  0  3  0  0  0  0  0  0
  188.1520  175.4380  143.6750 C   0  0  0  0  0  3  0  0  0  0  0  0
  188.2240  176.5630  144.3840 C   0  0  0  0  0  0  0  0  0  0  0  0
  190.5750  175.2280  143.6350 C   0  0  2  0  0  3  0  0  0  0  0  0
  192.7380  176.6910  143.8790 O   0  0  0  0  0  0  0  0  0  0  0  0
  192.7830  176.4340  146.1960 C   0  0  1  0  0  3  0  0  0  0  0  0
  193.9840  176.2910  144.3140 C   0  0  0  0  0  0  0  0  0  0  0  0
  194.0680  176.1180  145.5860 N   0  0  0  0  0  0  0  0  0  0  0  0
  191.8760  176.8100  145.0030 C   0  0  2  0  0  3  0  0  0  0  0  0
  195.1280  176.0530  143.3960 C   0  0  0  0  0  1  0  0  0  0  0  0
  192.2920  175.2530  147.0230 C   0  0  0  0  0  1  0  0  0  0  0  0
  184.9470  178.1220  145.4950 C   0  0  0  0  0  0  0  0  0  0  0  0
  184.8320  179.1960  144.6090 C   0  0  0  0  0  3  0  0  0  0  0  0
  187.0420  177.4640  144.4440 C   0  0  0  0  0  0  0  0  0  0  0  0
  185.8130  179.4060  143.6380 C   0  0  0  0  0  3  0  0  0  0  0  0
  186.0480  177.2660  145.4160 C   0  0  0  0  0  3  0  0  0  0  0  0
  186.9110  178.5460  143.5560 C   0  0  0  0  0  3  0  0  0  0  0  0
  184.0010  177.9230  146.4430 F   0  0  0  0  0  0  0  0  0  0  0  0
  188.7930  175.3770  147.0660 C   0  0  0  0  0  1  0  0  0  0  0  0
  189.2210  177.1290  146.8720 S   0  0  0  0  0  0  0  0  0  0  0  0
  191.5990  174.0960  143.6290 C   0  0  0  0  0  2  0  0  0  0  0  0
  190.3180  173.0900  145.3820 F   0  0  0  0  0  0  0  0  0  0  0  0
  191.0440  172.8110  144.2390 C   0  0  2  0  0  3  0  0  0  0  0  0
  192.0700  171.9100  144.5330 O   0  0  0  0  0  0  0  0  0  0  0  0
  193.1970  172.7120  144.7470 C   0  0  0  0  0  2  0  0  0  0  0  0
  194.8680  171.9370  143.1240 C   0  0  0  0  0  1  0  0  0  0  0  0
  194.4820  171.9100  144.5920 C   0  0  0  0  0  0  0  0  0  0  0  0
  195.6030  172.5670  145.4160 C   0  0  0  0  0  2  0  0  0  0  0  0
  196.4480  170.2640  146.1400 C   0  0  0  0  0  2  0  0  0  0  0  0
  194.9430  170.0430  146.2790 C   0  0  0  0  0  2  0  0  0  0  0  0
  194.2240  170.4460  144.9930 C   0  0  0  0  0  2  0  0  0  0  0  0
  196.8120  171.6420  145.5710 C   0  0  0  0  0  2  0  0  0  0  0  0
  1 11  1  6  0  0  0
  1  3  1  0  0  0  0
  2  6  1  0  0  0  0
  2  4  1  0  0  0  0
  3 22  1  1  0  0  0
  4  5  2  0  0  0  0
  5 16  1  0  0  0  0
  5  3  1  0  0  0  0
  6 23  1  1  0  0  0
  6  1  1  0  0  0  0
  7  9  1  0  0  0  0
  8 13  1  6  0  0  0
  9 10  2  0  0  0  0
 10  8  1  0  0  0  0
 11  7  1  6  0  0  0
 11  8  1  0  0  0  0
 12  9  1  0  0  0  0
 14 20  1  0  0  0  0
 15 14  2  0  0  0  0
 16 18  2  0  0  0  0
 17 15  1  0  0  0  0
 18 14  1  0  0  0  0
 19 17  2  0  0  0  0
 19 16  1  0  0  0  0
 22 21  1  0  0  0  0
 23 25  1  0  0  0  0
 25 26  1  0  0  0  0
 25 24  1  1  0  0  0
 26 27  1  0  0  0  0
 28 29  1  0  0  0  0
 29 27  1  0  0  0  0
 29 33  1  0  0  0  0
 29 30  1  0  0  0  0
 30 34  1  0  0  0  0
 31 32  1  0  0  0  0
 33 32  1  0  0  0  0
 34 31  1  0  0  0  0
M  END
>  <MODEL>
7

>  <REMARK>
 VINA RESULT:      -7.0      2.607      8.591
  Name = 
  8 active torsions:
  status: ('A' for Active; 'I' for Inactive)
    1  A    between atoms: C_3  and  C_13
    2  A    between atoms: C_3  and  O_17
    3  A    between atoms: N_4  and  C_15
    4  A    between atoms: C_10  and  C_29
    5  A    between atoms: C_10  and  C_31
    6  A    between atoms: C_12  and  C_28
    7  A    between atoms: O_17  and  C_29
    8  A    between atoms: C_21  and  S_32
                            x       y       z     vdW  Elec       q    Type
                         _______ _______ _______ _____ _____    ______ ____

>  <TORSDO>
F 8

$$$$
=
 OpenBabel11052418393D

 34 37  0  0  1  0  0  0  0  0999 V2000
  190.1710  174.1570  141.8690 N   0  0  1  0  0  0  0  0  0  0  0  0
  188.1750  174.4730  140.6140 O   0  0  0  0  0  0  0  0  0  0  0  0
  190.5660  173.0650  140.9530 C   0  0  1  0  0  3  0  0  0  0  0  0
  188.5190  173.5370  139.6500 C   0  0  0  0  0  3  0  0  0  0  0  0
  189.6180  172.7980  139.7920 C   0  0  0  0  0  0  0  0  0  0  0  0
  188.7110  174.3790  141.9250 C   0  0  2  0  0  3  0  0  0  0  0  0
  189.7770  173.6850  144.2180 O   0  0  0  0  0  0  0  0  0  0  0  0
  191.7450  174.8390  143.7390 C   0  0  1  0  0  3  0  0  0  0  0  0
  190.1230  174.5350  145.2480 C   0  0  0  0  0  0  0  0  0  0  0  0
  191.1950  175.2120  145.0340 N   0  0  0  0  0  0  0  0  0  0  0  0
  190.7460  173.7990  143.1840 C   0  0  2  0  0  3  0  0  0  0  0  0
  189.3160  174.6800  146.4880 C   0  0  0  0  0  1  0  0  0  0  0  0
  191.9230  176.0780  142.8700 C   0  0  0  0  0  1  0  0  0  0  0  0
  190.0830  170.8790  136.5500 C   0  0  0  0  0  0  0  0  0  0  0  0
  190.4240  169.6090  137.0220 C   0  0  0  0  0  3  0  0  0  0  0  0
  189.8760  171.6860  138.8380 C   0  0  0  0  0  0  0  0  0  0  0  0
  190.4880  169.3700  138.3960 C   0  0  0  0  0  3  0  0  0  0  0  0
  189.8170  171.9110  137.4530 C   0  0  0  0  0  3  0  0  0  0  0  0
  190.2160  170.4020  139.2980 C   0  0  0  0  0  3  0  0  0  0  0  0
  190.0300  171.1150  135.2190 F   0  0  0  0  0  0  0  0  0  0  0  0
  192.9570  171.9840  141.1140 C   0  0  0  0  0  1  0  0  0  0  0  0
  192.2320  173.4360  140.3030 S   0  0  0  0  0  0  0  0  0  0  0  0
  188.3890  175.6730  142.6680 C   0  0  0  0  0  2  0  0  0  0  0  0
  187.0360  177.4290  141.7690 F   0  0  0  0  0  0  0  0  0  0  0  0
  186.9830  176.1810  142.3630 C   0  0  2  0  0  3  0  0  0  0  0  0
  186.2050  176.2370  143.5230 O   0  0  0  0  0  0  0  0  0  0  0  0
  185.4840  177.4310  143.4090 C   0  0  0  0  0  2  0  0  0  0  0  0
  185.6870  179.7420  144.2100 C   0  0  0  0  0  1  0  0  0  0  0  0
  185.6440  178.2920  144.6550 C   0  0  0  0  0  0  0  0  0  0  0  0
  184.4330  178.0890  145.5820 C   0  0  0  0  0  2  0  0  0  0  0  0
  185.9680  178.1200  147.6280 C   0  0  0  0  0  2  0  0  0  0  0  0
  186.8090  177.2610  146.6860 C   0  0  0  0  0  2  0  0  0  0  0  0
  186.9830  177.9600  145.3390 C   0  0  0  0  0  2  0  0  0  0  0  0
  184.6850  178.6580  146.9800 C   0  0  0  0  0  2  0  0  0  0  0  0
  1  6  1  0  0  0  0
  1 11  1  1  0  0  0
  2  6  1  0  0  0  0
  3 22  1  6  0  0  0
  3  1  1  0  0  0  0
  4  5  2  0  0  0  0
  4  2  1  0  0  0  0
  5  3  1  0  0  0  0
  6 23  1  1  0  0  0
  7  9  1  0  0  0  0
  8 13  1  6  0  0  0
  8 10  1  0  0  0  0
  9 12  1  0  0  0  0
 10  9  2  0  0  0  0
 11  8  1  0  0  0  0
 11  7  1  1  0  0  0
 14 15  2  0  0  0  0
 14 18  1  0  0  0  0
 15 17  1  0  0  0  0
 16 19  1  0  0  0  0
 16  5  1  0  0  0  0
 17 19  2  0  0  0  0
 18 16  2  0  0  0  0
 20 14  1  0  0  0  0
 22 21  1  0  0  0  0
 25 24  1  1  0  0  0
 25 23  1  0  0  0  0
 25 26  1  0  0  0  0
 27 26  1  0  0  0  0
 27 29  1  0  0  0  0
 28 29  1  0  0  0  0
 29 33  1  0  0  0  0
 29 30  1  0  0  0  0
 30 34  1  0  0  0  0
 32 31  1  0  0  0  0
 33 32  1  0  0  0  0
 34 31  1  0  0  0  0
M  END
>  <MODEL>
8

>  <REMARK>
 VINA RESULT:      -6.7      3.942      6.177
  Name = 
  8 active torsions:
  status: ('A' for Active; 'I' for Inactive)
    1  A    between atoms: C_3  and  C_13
    2  A    between atoms: C_3  and  O_17
    3  A    between atoms: N_4  and  C_15
    4  A    between atoms: C_10  and  C_29
    5  A    between atoms: C_10  and  C_31
    6  A    between atoms: C_12  and  C_28
    7  A    between atoms: O_17  and  C_29
    8  A    between atoms: C_21  and  S_32
                            x       y       z     vdW  Elec       q    Type
                         _______ _______ _______ _____ _____    ______ ____

>  <TORSDO>
F 8

$$$$
=
 OpenBabel11052418393D

 34 37  0  0  1  0  0  0  0  0999 V2000
  190.6870  174.7830  143.1150 N   0  0  1  0  0  0  0  0  0  0  0  0
  189.1380  174.9190  141.3150 O   0  0  0  0  0  0  0  0  0  0  0  0
  190.9830  173.3820  142.7450 C   0  0  1  0  0  3  0  0  0  0  0  0
  189.4350  173.6510  140.8370 C   0  0  0  0  0  3  0  0  0  0  0  0
  190.2630  172.8550  141.5110 C   0  0  0  0  0  0  0  0  0  0  0  0
  189.3470  175.2340  142.6820 C   0  0  2  0  0  3  0  0  0  0  0  0
  189.7090  175.2930  145.2790 O   0  0  0  0  0  0  0  0  0  0  0  0
  191.9610  175.8440  145.0350 C   0  0  1  0  0  3  0  0  0  0  0  0
  190.0400  176.3970  146.0370 C   0  0  0  0  0  0  0  0  0  0  0  0
  191.2700  176.7590  145.9320 N   0  0  0  0  0  0  0  0  0  0  0  0
  190.8670  174.8520  144.5820 C   0  0  2  0  0  3  0  0  0  0  0  0
  189.0590  177.1250  146.8840 C   0  0  0  0  0  1  0  0  0  0  0  0
  192.6250  176.6210  143.9050 C   0  0  0  0  0  1  0  0  0  0  0  0
  190.6250  169.8000  139.2880 C   0  0  0  0  0  0  0  0  0  0  0  0
  190.8190  168.7870  140.2310 C   0  0  0  0  0  3  0  0  0  0  0  0
  190.4350  171.4430  141.0740 C   0  0  0  0  0  0  0  0  0  0  0  0
  190.8180  169.0940  141.5930 C   0  0  0  0  0  3  0  0  0  0  0  0
  190.4390  171.1190  139.7080 C   0  0  0  0  0  3  0  0  0  0  0  0
  190.6280  170.4150  142.0120 C   0  0  0  0  0  3  0  0  0  0  0  0
  190.6350  169.5050  137.9670 F   0  0  0  0  0  0  0  0  0  0  0  0
  192.7680  174.2730  141.0330 C   0  0  0  0  0  1  0  0  0  0  0  0
  192.7880  173.2210  142.5100 S   0  0  0  0  0  0  0  0  0  0  0  0
  189.2050  176.7450  142.8530 C   0  0  0  0  0  2  0  0  0  0  0  0
  188.6940  178.6660  141.5210 F   0  0  0  0  0  0  0  0  0  0  0  0
  188.3060  177.3650  141.7870 C   0  0  2  0  0  3  0  0  0  0  0  0
  186.9660  177.3370  142.1810 O   0  0  0  0  0  0  0  0  0  0  0  0
  186.8320  178.4190  143.0580 C   0  0  0  0  0  2  0  0  0  0  0  0
  184.4390  177.9350  143.3120 C   0  0  0  0  0  1  0  0  0  0  0  0
  185.7290  178.1680  144.0770 C   0  0  0  0  0  0  0  0  0  0  0  0
  186.0590  176.9080  144.8960 C   0  0  0  0  0  2  0  0  0  0  0  0
  185.2090  178.0430  147.0250 C   0  0  0  0  0  2  0  0  0  0  0  0
  185.9820  179.2040  146.4020 C   0  0  0  0  0  2  0  0  0  0  0  0
  185.5450  179.4200  144.9540 C   0  0  0  0  0  2  0  0  0  0  0  0
  185.1750  176.7890  146.1400 C   0  0  0  0  0  2  0  0  0  0  0  0
  1 11  1  1  0  0  0
  2  6  1  0  0  0  0
  3 22  1  6  0  0  0
  3  1  1  0  0  0  0
  4  2  1  0  0  0  0
  4  5  2  0  0  0  0
  5  3  1  0  0  0  0
  6 23  1  6  0  0  0
  6  1  1  0  0  0  0
  7  9  1  0  0  0  0
  8 13  1  6  0  0  0
  8 10  1  0  0  0  0
  9 12  1  0  0  0  0
 10  9  2  0  0  0  0
 11  8  1  0  0  0  0
 11  7  1  1  0  0  0
 14 18  2  0  0  0  0
 14 15  1  0  0  0  0
 15 17  2  0  0  0  0
 16  5  1  0  0  0  0
 16 19  2  0  0  0  0
 17 19  1  0  0  0  0
 18 16  1  0  0  0  0
 20 14  1  0  0  0  0
 21 22  1  0  0  0  0
 25 24  1  1  0  0  0
 25 26  1  0  0  0  0
 25 23  1  0  0  0  0
 26 27  1  0  0  0  0
 27 29  1  0  0  0  0
 28 29  1  0  0  0  0
 29 30  1  0  0  0  0
 29 33  1  0  0  0  0
 30 34  1  0  0  0  0
 32 31  1  0  0  0  0
 33 32  1  0  0  0  0
 34 31  1  0  0  0  0
M  END
>  <MODEL>
9

>  <REMARK>
 VINA RESULT:      -6.7      3.222      5.457
  Name = 
  8 active torsions:
  status: ('A' for Active; 'I' for Inactive)
    1  A    between atoms: C_3  and  C_13
    2  A    between atoms: C_3  and  O_17
    3  A    between atoms: N_4  and  C_15
    4  A    between atoms: C_10  and  C_29
    5  A    between atoms: C_10  and  C_31
    6  A    between atoms: C_12  and  C_28
    7  A    between atoms: O_17  and  C_29
    8  A    between atoms: C_21  and  S_32
                            x       y       z     vdW  Elec       q    Type
                         _______ _______ _______ _____ _____    ______ ____

>  <TORSDO>
F 8

$$$$
