=
 OpenBabel11052418163D

 28 30  0  0  1  0  0  0  0  0999 V2000
  192.5760  177.1580  144.5350 O   0  0  0  0  0  0  0  0  0  0  0  0
  189.1750  176.0200  144.8010 C   0  0  2  0  0  3  0  0  0  0  0  0
  190.0730  178.2880  144.2380 C   0  0  0  0  0  1  0  0  0  0  0  0
  191.8830  175.0610  145.4330 C   0  0  1  0  0  0  0  0  0  0  0  0
  189.5030  174.5970  145.2920 C   0  0  0  0  0  2  0  0  0  0  0  0
  191.7610  175.0650  146.8270 O   0  0  0  0  0  1  0  0  0  0  0  0
  191.6500  176.4710  144.9440 C   0  0  0  0  0  0  0  0  0  0  0  0
  193.3010  174.5740  145.1340 C   0  0  0  0  0  1  0  0  0  0  0  0
  190.2680  177.0560  145.1140 C   0  0  2  0  0  3  0  0  0  0  0  0
  190.8480  174.1580  144.8640 N   0  0  1  0  0  0  0  0  0  0  0  0
  190.9620  173.7510  143.4160 C   0  0  1  0  0  0  0  0  0  0  0  0
  189.4570  171.7330  143.7960 C   0  0  0  0  0  1  0  0  0  0  0  0
  190.8250  172.2010  143.3140 C   0  0  0  0  0  0  0  0  0  0  0  0
  189.7720  172.5940  140.8420 C   0  0  1  0  0  3  0  0  0  0  0  0
  191.8650  171.5160  144.1840 C   0  0  0  0  0  1  0  0  0  0  0  0
  190.0510  174.0700  141.0440 C   0  0  0  0  0  2  0  0  0  0  0  0
  189.9000  174.4270  142.5150 C   0  0  0  0  0  2  0  0  0  0  0  0
  189.7110  172.2930  139.3600 C   0  0  0  0  0  1  0  0  0  0  0  0
  192.1950  174.1200  142.8920 F   0  0  0  0  0  0  0  0  0  0  0  0
  191.1000  171.6070  141.6010 S   0  0  0  0  0  0  0  0  0  0  0  0
  187.6160  176.6020  146.6880 C   0  0  0  0  0  3  0  0  0  0  0  0
  186.7660  176.6980  144.4150 C   0  0  0  0  0  0  0  0  0  0  0  0
  185.3180  177.2400  146.2850 C   0  0  0  0  0  0  0  0  0  0  0  0
  187.8280  176.4520  145.3090 C   0  0  0  0  0  0  0  0  0  0  0  0
  185.5190  177.0910  144.9090 C   0  0  0  0  0  3  0  0  0  0  0  0
  186.9360  176.5470  142.9410 C   0  0  0  0  0  1  0  0  0  0  0  0
  184.1060  177.6190  146.7550 F   0  0  0  0  0  0  0  0  0  0  0  0
  186.3670  176.9950  147.1740 C   0  0  0  0  0  3  0  0  0  0  0  0
  1  7  2  0  0  0  0
  2  9  1  0  0  0  0
  2  5  1  0  0  0  0
  2 24  1  1  0  0  0
  4  8  1  6  0  0  0
  4  6  1  0  0  0  0
  7  9  1  0  0  0  0
  7  4  1  0  0  0  0
  9  3  1  6  0  0  0
 10  5  1  6  0  0  0
 10  4  1  0  0  0  0
 11 19  1  6  0  0  0
 11 10  1  0  0  0  0
 13 11  1  0  0  0  0
 13 12  1  0  0  0  0
 13 15  1  0  0  0  0
 14 18  1  6  0  0  0
 14 16  1  0  0  0  0
 14 20  1  0  0  0  0
 16 17  1  0  0  0  0
 17 11  1  0  0  0  0
 20 13  1  0  0  0  0
 21 28  1  0  0  0  0
 22 25  2  0  0  0  0
 22 24  1  0  0  0  0
 23 27  1  0  0  0  0
 23 28  2  0  0  0  0
 24 21  2  0  0  0  0
 25 23  1  0  0  0  0
 26 22  1  0  0  0  0
M  END
>  <MODEL>
1

>  <REMARK>
 VINA RESULT:      -7.7      0.000      0.000
  Name = 
  2 active torsions:
  status: ('A' for Active; 'I' for Inactive)
    1  A    between atoms: C_1  and  N_27
    2  A    between atoms: C_10  and  C_13
                            x       y       z     vdW  Elec       q    Type
                         _______ _______ _______ _____ _____    ______ ____

>  <TORSDO>
F 2

$$$$
=
 OpenBabel11052418163D

 28 30  0  0  1  0  0  0  0  0999 V2000
  185.8970  179.5770  147.2280 O   0  0  0  0  0  0  0  0  0  0  0  0
  185.9400  178.0280  143.9830 C   0  0  2  0  0  3  0  0  0  0  0  0
  185.4040  180.3850  144.6330 C   0  0  0  0  0  1  0  0  0  0  0  0
  186.0770  177.2360  146.8130 C   0  0  1  0  0  0  0  0  0  0  0  0
  186.2300  176.5970  144.4740 C   0  0  0  0  0  2  0  0  0  0  0  0
  184.8520  176.5630  146.8770 O   0  0  0  0  0  1  0  0  0  0  0  0
  185.7990  178.6660  146.4160 C   0  0  0  0  0  0  0  0  0  0  0  0
  186.6890  177.1330  148.2100 C   0  0  0  0  0  1  0  0  0  0  0  0
  185.2540  178.9210  145.0310 C   0  0  2  0  0  3  0  0  0  0  0  0
  186.9260  176.5870  145.7790 N   0  0  1  0  0  0  0  0  0  0  0  0
  188.3930  176.9330  145.7280 C   0  0  1  0  0  0  0  0  0  0  0  0
  188.9610  174.6650  144.7190 C   0  0  0  0  0  1  0  0  0  0  0  0
  189.2260  175.6230  145.8750 C   0  0  0  0  0  0  0  0  0  0  0  0
  191.1380  176.8350  144.3730 C   0  0  1  0  0  3  0  0  0  0  0  0
  188.8540  174.8960  147.1550 C   0  0  0  0  0  1  0  0  0  0  0  0
  190.2610  178.0700  144.3950 C   0  0  0  0  0  2  0  0  0  0  0  0
  188.7960  177.6620  144.4230 C   0  0  0  0  0  2  0  0  0  0  0  0
  192.5750  177.2430  144.1280 C   0  0  0  0  0  1  0  0  0  0  0  0
  188.7360  177.7930  146.7650 F   0  0  0  0  0  0  0  0  0  0  0  0
  191.0250  175.9720  145.9720 S   0  0  0  0  0  0  0  0  0  0  0  0
  183.7780  178.0910  142.6980 C   0  0  0  0  0  3  0  0  0  0  0  0
  185.8520  177.8490  141.4590 C   0  0  0  0  0  0  0  0  0  0  0  0
  183.7300  177.9110  140.2860 C   0  0  0  0  0  0  0  0  0  0  0  0
  185.1780  177.9930  142.6880 C   0  0  0  0  0  0  0  0  0  0  0  0
  185.1240  177.8110  140.2660 C   0  0  0  0  0  3  0  0  0  0  0  0
  187.3380  177.7340  141.3930 C   0  0  0  0  0  1  0  0  0  0  0  0
  183.0320  177.8710  139.1260 F   0  0  0  0  0  0  0  0  0  0  0  0
  183.0570  178.0510  141.5020 C   0  0  0  0  0  3  0  0  0  0  0  0
  2 24  1  6  0  0  0
  2  5  1  0  0  0  0
  2  9  1  0  0  0  0
  4  6  1  0  0  0  0
  4  8  1  1  0  0  0
  7  4  1  0  0  0  0
  7  1  2  0  0  0  0
  9  3  1  6  0  0  0
  9  7  1  0  0  0  0
 10  5  1  6  0  0  0
 10  4  1  0  0  0  0
 11 10  1  0  0  0  0
 11 13  1  0  0  0  0
 11 19  1  1  0  0  0
 12 13  1  0  0  0  0
 13 20  1  0  0  0  0
 13 15  1  0  0  0  0
 14 18  1  1  0  0  0
 14 16  1  0  0  0  0
 14 20  1  0  0  0  0
 16 17  1  0  0  0  0
 17 11  1  0  0  0  0
 22 24  2  0  0  0  0
 23 28  1  0  0  0  0
 24 21  1  0  0  0  0
 25 23  2  0  0  0  0
 25 22  1  0  0  0  0
 26 22  1  0  0  0  0
 27 23  1  0  0  0  0
 28 21  2  0  0  0  0
M  END
>  <MODEL>
2

>  <REMARK>
 VINA RESULT:      -7.2      3.671      5.595
  Name = 
  2 active torsions:
  status: ('A' for Active; 'I' for Inactive)
    1  A    between atoms: C_1  and  N_27
    2  A    between atoms: C_10  and  C_13
                            x       y       z     vdW  Elec       q    Type
                         _______ _______ _______ _____ _____    ______ ____

>  <TORSDO>
F 2

$$$$
=
 OpenBabel11052418163D

 28 30  0  0  1  0  0  0  0  0999 V2000
  189.7130  171.6750  141.8620 O   0  0  0  0  0  0  0  0  0  0  0  0
  188.6840  175.1040  142.1990 C   0  0  2  0  0  3  0  0  0  0  0  0
  187.3100  173.0140  142.1020 C   0  0  0  0  0  1  0  0  0  0  0  0
  191.1200  173.5780  141.5750 C   0  0  1  0  0  0  0  0  0  0  0  0
  190.0850  175.7250  142.0440 C   0  0  0  0  0  2  0  0  0  0  0  0
  191.2530  173.9770  140.2400 O   0  0  0  0  0  1  0  0  0  0  0  0
  189.7850  172.8890  141.7210 C   0  0  0  0  0  0  0  0  0  0  0  0
  192.2900  172.6340  141.8510 C   0  0  0  0  0  1  0  0  0  0  0  0
  188.5380  173.7210  141.5410 C   0  0  2  0  0  3  0  0  0  0  0  0
  191.1560  174.7860  142.4410 N   0  0  1  0  0  0  0  0  0  0  0  0
  191.3330  174.6030  143.9280 C   0  0  1  0  0  0  0  0  0  0  0  0
  192.3770  176.9140  144.1550 C   0  0  0  0  0  1  0  0  0  0  0  0
  192.5760  175.4220  144.3930 C   0  0  0  0  0  0  0  0  0  0  0  0
  191.3320  175.6840  146.7930 C   0  0  1  0  0  3  0  0  0  0  0  0
  193.8120  175.0040  143.6140 C   0  0  0  0  0  1  0  0  0  0  0  0
  190.2390  174.7960  146.2350 C   0  0  0  0  0  2  0  0  0  0  0  0
  190.0900  175.0380  144.7410 C   0  0  0  0  0  2  0  0  0  0  0  0
  191.3280  175.5970  148.3040 C   0  0  0  0  0  1  0  0  0  0  0  0
  191.5430  173.2650  144.2420 F   0  0  0  0  0  0  0  0  0  0  0  0
  192.9510  175.1360  146.1660 S   0  0  0  0  0  0  0  0  0  0  0  0
  187.5300  176.3790  140.3620 C   0  0  0  0  0  3  0  0  0  0  0  0
  186.7450  176.6710  142.6410 C   0  0  0  0  0  0  0  0  0  0  0  0
  185.6830  177.8730  140.8210 C   0  0  0  0  0  0  0  0  0  0  0  0
  187.6300  176.0660  141.7260 C   0  0  0  0  0  0  0  0  0  0  0  0
  185.7770  177.5690  142.1820 C   0  0  0  0  0  3  0  0  0  0  0  0
  186.8130  176.3780  144.1020 C   0  0  0  0  0  1  0  0  0  0  0  0
  184.7440  178.7450  140.3850 F   0  0  0  0  0  0  0  0  0  0  0  0
  186.5600  177.2780  139.9110 C   0  0  0  0  0  3  0  0  0  0  0  0
  2 24  1  6  0  0  0
  4  7  1  0  0  0  0
  4  8  1  1  0  0  0
  4 10  1  0  0  0  0
  5  2  1  0  0  0  0
  6  4  1  0  0  0  0
  7  1  2  0  0  0  0
  9  7  1  0  0  0  0
  9  3  1  1  0  0  0
  9  2  1  0  0  0  0
 10  5  1  1  0  0  0
 10 11  1  0  0  0  0
 11 19  1  1  0  0  0
 11 13  1  0  0  0  0
 11 17  1  0  0  0  0
 12 13  1  0  0  0  0
 13 20  1  0  0  0  0
 14 18  1  1  0  0  0
 15 13  1  0  0  0  0
 16 14  1  0  0  0  0
 17 16  1  0  0  0  0
 20 14  1  0  0  0  0
 21 24  1  0  0  0  0
 22 26  1  0  0  0  0
 23 25  2  0  0  0  0
 24 22  2  0  0  0  0
 25 22  1  0  0  0  0
 27 23  1  0  0  0  0
 28 21  2  0  0  0  0
 28 23  1  0  0  0  0
M  END
>  <MODEL>
3

>  <REMARK>
 VINA RESULT:      -6.6      2.909      5.055
  Name = 
  2 active torsions:
  status: ('A' for Active; 'I' for Inactive)
    1  A    between atoms: C_1  and  N_27
    2  A    between atoms: C_10  and  C_13
                            x       y       z     vdW  Elec       q    Type
                         _______ _______ _______ _____ _____    ______ ____

>  <TORSDO>
F 2

$$$$
=
 OpenBabel11052418163D

 28 30  0  0  1  0  0  0  0  0999 V2000
  190.7690  171.2340  142.7180 O   0  0  0  0  0  0  0  0  0  0  0  0
  190.8500  174.4050  144.4120 C   0  0  2  0  0  3  0  0  0  0  0  0
  189.6520  172.2910  145.0130 C   0  0  0  0  0  1  0  0  0  0  0  0
  191.6640  173.2570  141.8290 C   0  0  1  0  0  0  0  0  0  0  0  0
  191.6740  175.1530  143.3480 C   0  0  0  0  0  2  0  0  0  0  0  0
  190.7610  173.9590  141.0220 O   0  0  0  0  0  1  0  0  0  0  0  0
  190.8640  172.4500  142.8230 C   0  0  0  0  0  0  0  0  0  0  0  0
  192.4750  172.3710  140.8840 C   0  0  0  0  0  1  0  0  0  0  0  0
  190.0660  173.2010  143.8620 C   0  0  2  0  0  3  0  0  0  0  0  0
  192.5180  174.2360  142.5530 N   0  0  1  0  0  0  0  0  0  0  0  0
  193.7580  173.7340  143.2500 C   0  0  1  0  0  0  0  0  0  0  0  0
  194.7760  176.0680  143.2620 C   0  0  0  0  0  1  0  0  0  0  0  0
  194.9690  174.6200  142.8270 C   0  0  0  0  0  0  0  0  0  0  0  0
  196.0410  174.0770  145.2630 C   0  0  1  0  0  3  0  0  0  0  0  0
  195.1250  174.6230  141.3150 C   0  0  0  0  0  1  0  0  0  0  0  0
  194.8480  173.1730  145.4980 C   0  0  0  0  0  2  0  0  0  0  0  0
  193.6250  173.7380  144.7930 C   0  0  0  0  0  2  0  0  0  0  0  0
  197.1910  173.6290  146.1380 C   0  0  0  0  0  1  0  0  0  0  0  0
  194.0290  172.4180  142.8960 F   0  0  0  0  0  0  0  0  0  0  0  0
  196.5460  173.9860  143.5160 S   0  0  0  0  0  0  0  0  0  0  0  0
  188.8000  175.8590  144.5410 C   0  0  0  0  0  3  0  0  0  0  0  0
  190.2850  175.7820  146.4610 C   0  0  0  0  0  0  0  0  0  0  0  0
  188.2940  177.1670  146.5120 C   0  0  0  0  0  0  0  0  0  0  0  0
  189.9610  175.3630  145.1550 C   0  0  0  0  0  0  0  0  0  0  0  0
  189.4490  176.6800  147.1310 C   0  0  0  0  0  3  0  0  0  0  0  0
  191.5090  175.2900  147.1560 C   0  0  0  0  0  1  0  0  0  0  0  0
  187.4900  178.0390  147.1670 F   0  0  0  0  0  0  0  0  0  0  0  0
  187.9700  176.7570  145.2170 C   0  0  0  0  0  3  0  0  0  0  0  0
  1  7  2  0  0  0  0
  2 24  1  6  0  0  0
  4  8  1  6  0  0  0
  4 10  1  0  0  0  0
  4  7  1  0  0  0  0
  5  2  1  0  0  0  0
  6  4  1  0  0  0  0
  7  9  1  0  0  0  0
  9  2  1  0  0  0  0
  9  3  1  1  0  0  0
 10 11  1  0  0  0  0
 10  5  1  1  0  0  0
 11 19  1  6  0  0  0
 11 17  1  0  0  0  0
 13 11  1  0  0  0  0
 13 12  1  0  0  0  0
 13 20  1  0  0  0  0
 14 16  1  0  0  0  0
 14 18  1  1  0  0  0
 15 13  1  0  0  0  0
 17 16  1  0  0  0  0
 20 14  1  0  0  0  0
 21 24  2  0  0  0  0
 21 28  1  0  0  0  0
 22 25  2  0  0  0  0
 22 26  1  0  0  0  0
 23 25  1  0  0  0  0
 23 27  1  0  0  0  0
 24 22  1  0  0  0  0
 28 23  2  0  0  0  0
M  END
>  <MODEL>
4

>  <REMARK>
 VINA RESULT:      -6.4      2.817      5.044
  Name = 
  2 active torsions:
  status: ('A' for Active; 'I' for Inactive)
    1  A    between atoms: C_1  and  N_27
    2  A    between atoms: C_10  and  C_13
                            x       y       z     vdW  Elec       q    Type
                         _______ _______ _______ _____ _____    ______ ____

>  <TORSDO>
F 2

$$$$
=
 OpenBabel11052418163D

 28 30  0  0  1  0  0  0  0  0999 V2000
  189.3180  174.3240  146.8550 O   0  0  0  0  0  0  0  0  0  0  0  0
  191.5450  175.9590  144.5520 C   0  0  2  0  0  3  0  0  0  0  0  0
  191.7720  173.7560  145.7190 C   0  0  0  0  0  1  0  0  0  0  0  0
  189.1290  176.5810  146.1100 C   0  0  1  0  0  0  0  0  0  0  0  0
  190.7420  177.2670  144.4290 C   0  0  0  0  0  2  0  0  0  0  0  0
  189.7060  177.5070  146.9860 O   0  0  0  0  0  1  0  0  0  0  0  0
  189.8520  175.2670  146.2850 C   0  0  0  0  0  0  0  0  0  0  0  0
  187.6560  176.4860  146.5060 C   0  0  0  0  0  1  0  0  0  0  0  0
  191.3020  175.1980  145.8670 C   0  0  2  0  0  3  0  0  0  0  0  0
  189.3060  177.0670  144.7160 N   0  0  1  0  0  0  0  0  0  0  0  0
  188.5150  176.4040  143.6160 C   0  0  1  0  0  0  0  0  0  0  0  0
  188.9880  178.3350  142.0240 C   0  0  0  0  0  1  0  0  0  0  0  0
  187.9010  177.5070  142.7000 C   0  0  0  0  0  0  0  0  0  0  0  0
  188.0610  175.7150  140.6660 C   0  0  1  0  0  3  0  0  0  0  0  0
  187.0510  178.4650  143.5180 C   0  0  0  0  0  1  0  0  0  0  0  0
  188.5600  174.7170  141.6900 C   0  0  0  0  0  2  0  0  0  0  0  0
  189.3680  175.4350  142.7600 C   0  0  0  0  0  2  0  0  0  0  0  0
  187.4480  174.9730  139.4980 C   0  0  0  0  0  1  0  0  0  0  0  0
  187.4800  175.6390  144.1390 F   0  0  0  0  0  0  0  0  0  0  0  0
  186.8000  176.7910  141.4200 S   0  0  0  0  0  0  0  0  0  0  0  0
  193.7610  176.9050  145.2780 C   0  0  0  0  0  3  0  0  0  0  0  0
  193.6300  175.7870  143.1260 C   0  0  0  0  0  0  0  0  0  0  0  0
  195.7330  176.7290  143.8870 C   0  0  0  0  0  0  0  0  0  0  0  0
  193.0070  176.2170  144.3140 C   0  0  0  0  0  0  0  0  0  0  0  0
  194.9890  176.0450  142.9210 C   0  0  0  0  0  3  0  0  0  0  0  0
  192.8730  175.0590  142.0670 C   0  0  0  0  0  1  0  0  0  0  0  0
  197.0480  176.9760  143.6800 F   0  0  0  0  0  0  0  0  0  0  0  0
  195.1180  177.1590  145.0650 C   0  0  0  0  0  3  0  0  0  0  0  0
  2 24  1  1  0  0  0
  2  9  1  0  0  0  0
  4  7  1  0  0  0  0
  4  8  1  1  0  0  0
  4  6  1  0  0  0  0
  5  2  1  0  0  0  0
  7  1  2  0  0  0  0
  9  3  1  6  0  0  0
  9  7  1  0  0  0  0
 10  5  1  6  0  0  0
 10  4  1  0  0  0  0
 11 19  1  1  0  0  0
 11 10  1  0  0  0  0
 12 13  1  0  0  0  0
 13 15  1  0  0  0  0
 13 11  1  0  0  0  0
 14 18  1  6  0  0  0
 14 20  1  0  0  0  0
 14 16  1  0  0  0  0
 16 17  1  0  0  0  0
 17 11  1  0  0  0  0
 20 13  1  0  0  0  0
 22 24  1  0  0  0  0
 23 28  2  0  0  0  0
 24 21  2  0  0  0  0
 25 22  2  0  0  0  0
 25 23  1  0  0  0  0
 26 22  1  0  0  0  0
 27 23  1  0  0  0  0
 28 21  1  0  0  0  0
M  END
>  <MODEL>
5

>  <REMARK>
 VINA RESULT:      -6.3      2.811      6.090
  Name = 
  2 active torsions:
  status: ('A' for Active; 'I' for Inactive)
    1  A    between atoms: C_1  and  N_27
    2  A    between atoms: C_10  and  C_13
                            x       y       z     vdW  Elec       q    Type
                         _______ _______ _______ _____ _____    ______ ____

>  <TORSDO>
F 2

$$$$
=
 OpenBabel11052418163D

 28 30  0  0  1  0  0  0  0  0999 V2000
  189.8840  172.2880  145.0200 O   0  0  0  0  0  0  0  0  0  0  0  0
  190.3530  173.8920  141.8350 C   0  0  2  0  0  3  0  0  0  0  0  0
  189.6910  171.5370  142.3690 C   0  0  0  0  0  1  0  0  0  0  0  0
  190.8660  174.4350  144.6800 C   0  0  1  0  0  0  0  0  0  0  0  0
  190.8600  175.2370  142.3880 C   0  0  0  0  0  2  0  0  0  0  0  0
  192.2640  174.4060  144.6260 O   0  0  0  0  0  1  0  0  0  0  0  0
  190.3580  173.0880  144.2230 C   0  0  0  0  0  0  0  0  0  0  0  0
  190.5060  174.7230  146.1380 C   0  0  0  0  0  1  0  0  0  0  0  0
  190.5850  172.7010  142.7820 C   0  0  2  0  0  3  0  0  0  0  0  0
  190.3730  175.4940  143.7600 N   0  0  1  0  0  0  0  0  0  0  0  0
  188.9310  175.9240  143.8610 C   0  0  1  0  0  0  0  0  0  0  0  0
  189.4600  178.1770  142.7990 C   0  0  0  0  0  1  0  0  0  0  0  0
  188.8770  177.4740  144.0200 C   0  0  0  0  0  0  0  0  0  0  0  0
  186.4720  177.3800  142.7610 C   0  0  1  0  0  3  0  0  0  0  0  0
  189.6910  177.9160  145.2240 C   0  0  0  0  0  1  0  0  0  0  0  0
  186.6180  175.8720  142.7630 C   0  0  0  0  0  2  0  0  0  0  0  0
  188.0870  175.4970  142.6350 C   0  0  0  0  0  2  0  0  0  0  0  0
  185.0050  177.7420  142.6690 C   0  0  0  0  0  1  0  0  0  0  0  0
  188.3170  175.3460  144.9660 F   0  0  0  0  0  0  0  0  0  0  0  0
  187.1630  178.0670  144.2990 S   0  0  0  0  0  0  0  0  0  0  0  0
  192.3080  173.5160  140.2960 C   0  0  0  0  0  3  0  0  0  0  0  0
  190.0750  173.5410  139.3430 C   0  0  0  0  0  0  0  0  0  0  0  0
  192.0070  173.1900  137.9180 C   0  0  0  0  0  0  0  0  0  0  0  0
  190.9210  173.6400  140.4660 C   0  0  0  0  0  0  0  0  0  0  0  0
  190.6240  173.3160  138.0770 C   0  0  0  0  0  3  0  0  0  0  0  0
  188.5950  173.6720  139.4670 C   0  0  0  0  0  1  0  0  0  0  0  0
  192.5300  172.9740  136.6880 F   0  0  0  0  0  0  0  0  0  0  0  0
  192.8490  173.2910  139.0280 C   0  0  0  0  0  3  0  0  0  0  0  0
  2 24  1  6  0  0  0
  2  5  1  0  0  0  0
  2  9  1  0  0  0  0
  4  8  1  1  0  0  0
  6  4  1  0  0  0  0
  7  4  1  0  0  0  0
  7  1  2  0  0  0  0
  9  3  1  6  0  0  0
  9  7  1  0  0  0  0
 10  5  1  6  0  0  0
 10 11  1  0  0  0  0
 10  4  1  0  0  0  0
 11 13  1  0  0  0  0
 11 19  1  1  0  0  0
 12 13  1  0  0  0  0
 13 20  1  0  0  0  0
 13 15  1  0  0  0  0
 14 18  1  1  0  0  0
 14 16  1  0  0  0  0
 14 20  1  0  0  0  0
 17 16  1  0  0  0  0
 17 11  1  0  0  0  0
 21 24  1  0  0  0  0
 22 26  1  0  0  0  0
 22 24  2  0  0  0  0
 23 25  2  0  0  0  0
 23 28  1  0  0  0  0
 25 22  1  0  0  0  0
 27 23  1  0  0  0  0
 28 21  2  0  0  0  0
M  END
>  <MODEL>
6

>  <REMARK>
 VINA RESULT:      -6.3      2.746      6.599
  Name = 
  2 active torsions:
  status: ('A' for Active; 'I' for Inactive)
    1  A    between atoms: C_1  and  N_27
    2  A    between atoms: C_10  and  C_13
                            x       y       z     vdW  Elec       q    Type
                         _______ _______ _______ _____ _____    ______ ____

>  <TORSDO>
F 2

$$$$
=
 OpenBabel11052418163D

 28 30  0  0  1  0  0  0  0  0999 V2000
  192.7470  173.9430  140.2600 O   0  0  0  0  0  0  0  0  0  0  0  0
  191.8190  174.9450  143.5870 C   0  0  2  0  0  3  0  0  0  0  0  0
  190.4010  174.0880  141.7110 C   0  0  0  0  0  1  0  0  0  0  0  0
  194.1600  175.0760  141.8110 C   0  0  1  0  0  0  0  0  0  0  0  0
  193.2130  175.4400  144.0180 C   0  0  0  0  0  2  0  0  0  0  0  0
  194.1810  176.4640  141.6340 O   0  0  0  0  0  1  0  0  0  0  0  0
  192.8290  174.5660  141.3100 C   0  0  0  0  0  0  0  0  0  0  0  0
  195.3310  174.5290  140.9960 C   0  0  0  0  0  1  0  0  0  0  0  0
  191.5880  174.9760  142.0670 C   0  0  2  0  0  3  0  0  0  0  0  0
  194.2960  174.7770  143.2610 N   0  0  1  0  0  0  0  0  0  0  0  0
  194.6010  173.3600  143.6790 C   0  0  1  0  0  0  0  0  0  0  0  0
  195.7540  174.1660  145.8030 C   0  0  0  0  0  1  0  0  0  0  0  0
  195.9130  173.3540  144.5220 C   0  0  0  0  0  0  0  0  0  0  0  0
  194.9060  171.1920  145.8200 C   0  0  1  0  0  3  0  0  0  0  0  0
  197.0540  173.9760  143.7350 C   0  0  0  0  0  1  0  0  0  0  0  0
  193.7320  171.2640  144.8660 C   0  0  0  0  0  2  0  0  0  0  0  0
  193.4560  172.7140  144.4960 C   0  0  0  0  0  2  0  0  0  0  0  0
  195.0370  169.7800  146.3500 C   0  0  0  0  0  1  0  0  0  0  0  0
  194.7850  172.5430  142.5700 F   0  0  0  0  0  0  0  0  0  0  0  0
  196.4370  171.6490  144.9480 S   0  0  0  0  0  0  0  0  0  0  0  0
  190.6460  177.0810  144.2130 C   0  0  0  0  0  3  0  0  0  0  0  0
  189.8430  174.9990  145.1700 C   0  0  0  0  0  0  0  0  0  0  0  0
  188.7640  177.0970  145.7330 C   0  0  0  0  0  0  0  0  0  0  0  0
  190.7460  175.6860  144.3340 C   0  0  0  0  0  0  0  0  0  0  0  0
  188.8580  175.7080  145.8620 C   0  0  0  0  0  3  0  0  0  0  0  0
  189.9100  173.5180  145.3390 C   0  0  0  0  0  1  0  0  0  0  0  0
  187.8080  177.7770  146.4090 F   0  0  0  0  0  0  0  0  0  0  0  0
  189.6590  177.7830  144.9090 C   0  0  0  0  0  3  0  0  0  0  0  0
  1  7  2  0  0  0  0
  2  5  1  0  0  0  0
  2 24  1  1  0  0  0
  4  8  1  6  0  0  0
  4 10  1  0  0  0  0
  6  4  1  0  0  0  0
  7  4  1  0  0  0  0
  7  9  1  0  0  0  0
  9  3  1  1  0  0  0
  9  2  1  0  0  0  0
 10 11  1  0  0  0  0
 10  5  1  1  0  0  0
 11 19  1  6  0  0  0
 11 17  1  0  0  0  0
 11 13  1  0  0  0  0
 13 20  1  0  0  0  0
 13 12  1  0  0  0  0
 14 18  1  6  0  0  0
 15 13  1  0  0  0  0
 16 14  1  0  0  0  0
 17 16  1  0  0  0  0
 20 14  1  0  0  0  0
 21 24  2  0  0  0  0
 21 28  1  0  0  0  0
 22 26  1  0  0  0  0
 22 25  2  0  0  0  0
 23 25  1  0  0  0  0
 23 27  1  0  0  0  0
 24 22  1  0  0  0  0
 28 23  2  0  0  0  0
M  END
>  <MODEL>
7

>  <REMARK>
 VINA RESULT:      -6.2      2.988      4.951
  Name = 
  2 active torsions:
  status: ('A' for Active; 'I' for Inactive)
    1  A    between atoms: C_1  and  N_27
    2  A    between atoms: C_10  and  C_13
                            x       y       z     vdW  Elec       q    Type
                         _______ _______ _______ _____ _____    ______ ____

>  <TORSDO>
F 2

$$$$
=
 OpenBabel11052418163D

 28 30  0  0  1  0  0  0  0  0999 V2000
  184.4840  176.9250  146.0470 O   0  0  0  0  0  0  0  0  0  0  0  0
  188.0700  177.1640  146.1910 C   0  0  2  0  0  3  0  0  0  0  0  0
  186.4730  175.9990  147.7260 C   0  0  0  0  0  1  0  0  0  0  0  0
  185.8300  178.3720  144.7130 C   0  0  1  0  0  0  0  0  0  0  0  0
  188.2300  178.1250  144.9970 C   0  0  0  0  0  2  0  0  0  0  0  0
  185.9410  179.6660  145.2340 O   0  0  0  0  0  1  0  0  0  0  0  0
  185.5850  177.4290  145.8670 C   0  0  0  0  0  0  0  0  0  0  0  0
  184.6550  178.4080  143.7380 C   0  0  0  0  0  1  0  0  0  0  0  0
  186.6940  177.2440  146.8750 C   0  0  2  0  0  3  0  0  0  0  0  0
  187.1080  178.0150  144.0410 N   0  0  1  0  0  0  0  0  0  0  0  0
  187.1380  176.8000  143.1480 C   0  0  1  0  0  0  0  0  0  0  0  0
  188.8820  177.8750  141.6340 C   0  0  0  0  0  1  0  0  0  0  0  0
  187.4940  177.2480  141.6970 C   0  0  0  0  0  0  0  0  0  0  0  0
  188.6300  174.8040  141.3670 C   0  0  1  0  0  3  0  0  0  0  0  0
  186.5070  178.2950  141.2060 C   0  0  0  0  0  1  0  0  0  0  0  0
  188.1380  174.4750  142.7620 C   0  0  0  0  0  2  0  0  0  0  0  0
  188.1500  175.7280  143.6230 C   0  0  0  0  0  2  0  0  0  0  0  0
  188.8210  173.5220  140.5860 C   0  0  0  0  0  1  0  0  0  0  0  0
  185.9000  176.1700  143.1240 F   0  0  0  0  0  0  0  0  0  0  0  0
  187.4070  175.8490  140.5150 S   0  0  0  0  0  0  0  0  0  0  0  0
  189.2340  178.4940  147.9820 C   0  0  0  0  0  3  0  0  0  0  0  0
  190.2270  176.3950  147.2700 C   0  0  0  0  0  0  0  0  0  0  0  0
  191.2980  177.7320  148.9880 C   0  0  0  0  0  0  0  0  0  0  0  0
  189.1960  177.3510  147.1680 C   0  0  0  0  0  0  0  0  0  0  0  0
  191.2700  176.5910  148.1800 C   0  0  0  0  0  3  0  0  0  0  0  0
  190.2380  175.1660  146.4250 C   0  0  0  0  0  1  0  0  0  0  0  0
  192.3130  177.9160  149.8650 F   0  0  0  0  0  0  0  0  0  0  0  0
  190.2800  178.6830  148.8880 C   0  0  0  0  0  3  0  0  0  0  0  0
  2  9  1  0  0  0  0
  2 24  1  1  0  0  0
  4  8  1  6  0  0  0
  4  6  1  0  0  0  0
  4  7  1  0  0  0  0
  5  2  1  0  0  0  0
  7  1  2  0  0  0  0
  7  9  1  0  0  0  0
  9  3  1  6  0  0  0
 10  4  1  0  0  0  0
 10  5  1  1  0  0  0
 11 19  1  6  0  0  0
 11 17  1  0  0  0  0
 11 10  1  0  0  0  0
 12 13  1  0  0  0  0
 13 11  1  0  0  0  0
 14 18  1  6  0  0  0
 14 16  1  0  0  0  0
 15 13  1  0  0  0  0
 16 17  1  0  0  0  0
 20 14  1  0  0  0  0
 20 13  1  0  0  0  0
 21 28  1  0  0  0  0
 22 25  2  0  0  0  0
 23 27  1  0  0  0  0
 24 22  1  0  0  0  0
 24 21  2  0  0  0  0
 25 23  1  0  0  0  0
 26 22  1  0  0  0  0
 28 23  2  0  0  0  0
M  END
>  <MODEL>
8

>  <REMARK>
 VINA RESULT:      -6.1      3.539      5.769
  Name = 
  2 active torsions:
  status: ('A' for Active; 'I' for Inactive)
    1  A    between atoms: C_1  and  N_27
    2  A    between atoms: C_10  and  C_13
                            x       y       z     vdW  Elec       q    Type
                         _______ _______ _______ _____ _____    ______ ____

>  <TORSDO>
F 2

$$$$
=
 OpenBabel11052418163D

 28 30  0  0  1  0  0  0  0  0999 V2000
  193.2310  175.9280  141.8360 O   0  0  0  0  0  0  0  0  0  0  0  0
  193.9110  173.6090  144.4990 C   0  0  2  0  0  3  0  0  0  0  0  0
  195.4880  174.8140  142.9740 C   0  0  0  0  0  1  0  0  0  0  0  0
  191.6060  174.5900  142.9570 C   0  0  1  0  0  0  0  0  0  0  0  0
  192.4430  173.2630  144.8120 C   0  0  0  0  0  2  0  0  0  0  0  0
  191.3090  173.3970  142.2880 O   0  0  0  0  0  1  0  0  0  0  0  0
  193.0160  174.9870  142.5890 C   0  0  0  0  0  0  0  0  0  0  0  0
  190.5750  175.6120  142.4780 C   0  0  0  0  0  1  0  0  0  0  0  0
  194.1440  174.1000  143.0600 C   0  0  2  0  0  3  0  0  0  0  0  0
  191.5210  174.3510  144.4220 N   0  0  1  0  0  0  0  0  0  0  0  0
  191.5030  175.5420  145.3470 C   0  0  1  0  0  0  0  0  0  0  0  0
  189.7720  174.4320  146.8500 C   0  0  0  0  0  1  0  0  0  0  0  0
  190.0900  175.6560  145.9980 C   0  0  0  0  0  0  0  0  0  0  0  0
  191.3190  176.7770  148.1440 C   0  0  1  0  0  3  0  0  0  0  0  0
  189.0170  175.7470  144.9270 C   0  0  0  0  0  1  0  0  0  0  0  0
  192.6080  176.6890  147.3530 C   0  0  0  0  0  2  0  0  0  0  0  0
  192.5800  175.4600  146.4570 C   0  0  0  0  0  2  0  0  0  0  0  0
  191.4420  177.8700  149.1840 C   0  0  0  0  0  1  0  0  0  0  0  0
  191.7630  176.7160  144.6510 F   0  0  0  0  0  0  0  0  0  0  0  0
  189.9360  177.1660  147.0260 S   0  0  0  0  0  0  0  0  0  0  0  0
  194.5120  171.1680  144.3720 C   0  0  0  0  0  3  0  0  0  0  0  0
  195.9380  172.6440  145.6700 C   0  0  0  0  0  0  0  0  0  0  0  0
  196.4530  170.2790  145.5090 C   0  0  0  0  0  0  0  0  0  0  0  0
  194.8070  172.4540  144.8510 C   0  0  0  0  0  0  0  0  0  0  0  0
  196.7540  171.5550  145.9930 C   0  0  0  0  0  3  0  0  0  0  0  0
  196.2940  173.9880  146.2100 C   0  0  0  0  0  1  0  0  0  0  0  0
  197.2470  169.2290  145.8280 F   0  0  0  0  0  0  0  0  0  0  0  0
  195.3320  170.0860  144.6990 C   0  0  0  0  0  3  0  0  0  0  0  0
  1  7  2  0  0  0  0
  2  5  1  0  0  0  0
  2 24  1  6  0  0  0
  4  8  1  6  0  0  0
  4 10  1  0  0  0  0
  6  4  1  0  0  0  0
  7  4  1  0  0  0  0
  7  9  1  0  0  0  0
  9  3  1  1  0  0  0
  9  2  1  0  0  0  0
 10  5  1  1  0  0  0
 10 11  1  0  0  0  0
 11 19  1  6  0  0  0
 11 13  1  0  0  0  0
 11 17  1  0  0  0  0
 13 12  1  0  0  0  0
 13 20  1  0  0  0  0
 14 18  1  1  0  0  0
 15 13  1  0  0  0  0
 16 14  1  0  0  0  0
 17 16  1  0  0  0  0
 20 14  1  0  0  0  0
 21 28  2  0  0  0  0
 21 24  1  0  0  0  0
 22 25  1  0  0  0  0
 22 26  1  0  0  0  0
 23 27  1  0  0  0  0
 23 25  2  0  0  0  0
 24 22  2  0  0  0  0
 28 23  1  0  0  0  0
M  END
>  <MODEL>
9

>  <REMARK>
 VINA RESULT:      -6.1      3.420      7.703
  Name = 
  2 active torsions:
  status: ('A' for Active; 'I' for Inactive)
    1  A    between atoms: C_1  and  N_27
    2  A    between atoms: C_10  and  C_13
                            x       y       z     vdW  Elec       q    Type
                         _______ _______ _______ _____ _____    ______ ____

>  <TORSDO>
F 2

$$$$
