=
 OpenBabel11052418023D

 28 30  0  0  1  0  0  0  0  0999 V2000
  186.3240  177.8990  144.5160 C   0  0  2  0  0  3  0  0  0  0  0  0
  189.0730  174.8370  147.3250 C   0  0  0  0  0  1  0  0  0  0  0  0
  189.3190  175.6350  143.6350 C   0  0  0  0  0  2  0  0  0  0  0  0
  187.7280  176.3870  145.9110 C   0  0  1  0  0  3  0  0  0  0  0  0
  187.9320  176.2390  143.4550 C   0  0  0  0  0  2  0  0  0  0  0  0
  186.0460  177.9840  146.7720 C   0  0  0  0  0  2  0  0  0  0  0  0
  189.0960  175.7080  146.0720 C   0  0  2  0  0  3  0  0  0  0  0  0
  187.3760  177.2980  147.0860 C   0  0  0  0  0  2  0  0  0  0  0  0
  189.4060  174.8740  144.8880 N   0  0  0  0  0  0  0  0  0  0  0  0
  186.1720  178.7730  145.6130 O   0  0  0  0  0  0  0  0  0  0  0  0
  187.6830  177.1890  144.6130 C   0  0  1  0  0  3  0  0  0  0  0  0
  186.2300  178.7000  143.2230 C   0  0  0  0  0  2  0  0  0  0  0  0
  184.9890  178.3470  142.4570 C   0  0  0  0  0  0  0  0  0  0  0  0
  183.7930  178.4980  143.0320 C   0  0  0  0  0  3  0  0  0  0  0  0
  182.6430  178.2150  142.3620 F   0  0  0  0  0  0  0  0  0  0  0  0
  184.4050  178.7720  140.1960 O   0  0  0  0  0  1  0  0  0  0  0  0
  185.0910  177.8890  141.0300 C   0  0  1  0  0  3  0  0  0  0  0  0
  186.6040  177.3960  139.2470 O   0  0  0  0  0  1  0  0  0  0  0  0
  186.5420  177.7900  140.5840 C   0  0  0  0  0  2  0  0  0  0  0  0
  190.7550  174.2860  144.9660 C   0  0  0  0  0  2  0  0  0  0  0  0
  191.6980  174.6880  143.8190 C   0  0  0  0  0  2  0  0  0  0  0  0
  192.8800  176.1160  145.5380 C   0  0  0  0  0  3  0  0  0  0  0  0
  194.2540  175.0750  142.4320 O   0  0  0  0  0  0  0  0  0  0  0  0
  195.0330  176.3480  144.1650 N   0  0  0  0  0  0  0  0  0  0  0  0
  192.8820  175.4610  144.3020 C   0  0  0  0  0  0  0  0  0  0  0  0
  194.0790  175.6010  143.5640 C   0  0  0  0  0  0  0  0  0  0  0  0
  196.3550  176.6700  143.6560 C   0  0  0  0  0  1  0  0  0  0  0  0
  194.3960  176.8340  145.6110 S   0  0  0  0  0  0  0  0  0  0  0  0
  1 12  1  6  0  0  0
  1 11  1  0  0  0  0
  1 10  1  0  0  0  0
  3  9  1  0  0  0  0
  4  7  1  0  0  0  0
  4  8  1  1  0  0  0
  5  3  1  0  0  0  0
  6  8  1  0  0  0  0
  7  2  1  1  0  0  0
  9 20  1  0  0  0  0
  9  7  1  0  0  0  0
 10  6  1  0  0  0  0
 11  5  1  6  0  0  0
 11  4  1  0  0  0  0
 13 14  2  0  0  0  0
 13 12  1  0  0  0  0
 15 14  1  0  0  0  0
 17 16  1  6  0  0  0
 17 13  1  0  0  0  0
 18 19  1  0  0  0  0
 19 17  1  0  0  0  0
 21 25  1  0  0  0  0
 21 20  1  0  0  0  0
 22 28  1  0  0  0  0
 23 26  2  0  0  0  0
 24 28  1  0  0  0  0
 25 22  2  0  0  0  0
 26 24  1  0  0  0  0
 26 25  1  0  0  0  0
 27 24  1  0  0  0  0
M  END
>  <MODEL>
1

>  <REMARK>
 VINA RESULT:      -7.0      0.000      0.000
  Name = 
  7 active torsions:
  status: ('A' for Active; 'I' for Inactive)
    1  A    between atoms: C_1  and  C_2
    2  A    between atoms: C_2  and  C_3
    3  A    between atoms: C_3  and  C_11
    4  A    between atoms: C_11  and  C_22
    5  A    between atoms: C_13  and  C_18
    6  A    between atoms: C_14  and  C_18
    7  A    between atoms: C_14  and  N_25
                            x       y       z     vdW  Elec       q    Type
                         _______ _______ _______ _____ _____    ______ ____

>  <TORSDO>
F 7

$$$$
=
 OpenBabel11052418023D

 28 30  0  0  1  0  0  0  0  0999 V2000
  187.0460  176.8560  143.5720 C   0  0  2  0  0  3  0  0  0  0  0  0
  191.5260  174.8880  142.6350 C   0  0  0  0  0  1  0  0  0  0  0  0
  189.7060  175.3460  145.9200 C   0  0  0  0  0  2  0  0  0  0  0  0
  189.2740  175.8410  143.1190 C   0  0  1  0  0  3  0  0  0  0  0  0
  188.6850  176.3770  145.4560 C   0  0  0  0  0  2  0  0  0  0  0  0
  187.6050  176.4640  141.4030 C   0  0  0  0  0  2  0  0  0  0  0  0
  190.3510  174.8610  143.6090 C   0  0  2  0  0  3  0  0  0  0  0  0
  188.7240  175.4790  141.7400 C   0  0  0  0  0  2  0  0  0  0  0  0
  190.8160  175.2330  144.9650 N   0  0  0  0  0  0  0  0  0  0  0  0
  186.5650  176.3530  142.3450 O   0  0  0  0  0  0  0  0  0  0  0  0
  188.1260  175.9130  144.1230 C   0  0  1  0  0  3  0  0  0  0  0  0
  185.8850  176.9710  144.5540 C   0  0  0  0  0  2  0  0  0  0  0  0
  185.5500  178.4070  144.8310 C   0  0  0  0  0  0  0  0  0  0  0  0
  185.8280  179.3380  143.9150 C   0  0  0  0  0  3  0  0  0  0  0  0
  185.5160  180.6470  144.1170 F   0  0  0  0  0  0  0  0  0  0  0  0
  184.0410  177.7270  146.5310 O   0  0  0  0  0  1  0  0  0  0  0  0
  184.8470  178.7820  146.1040 C   0  0  1  0  0  3  0  0  0  0  0  0
  186.0830  178.0300  148.0060 O   0  0  0  0  0  1  0  0  0  0  0  0
  185.8400  179.1410  147.1990 C   0  0  0  0  0  2  0  0  0  0  0  0
  191.7770  174.2560  145.5040 C   0  0  0  0  0  2  0  0  0  0  0  0
  192.9320  174.8700  146.3140 C   0  0  0  0  0  2  0  0  0  0  0  0
  195.0580  173.7610  145.5120 C   0  0  0  0  0  3  0  0  0  0  0  0
  194.0590  177.0840  144.7530 O   0  0  0  0  0  0  0  0  0  0  0  0
  195.8800  175.8120  144.2110 N   0  0  0  0  0  0  0  0  0  0  0  0
  194.2180  174.8790  145.5520 C   0  0  0  0  0  0  0  0  0  0  0  0
  194.6900  175.9960  144.8260 C   0  0  0  0  0  0  0  0  0  0  0  0
  196.6150  176.7690  143.4020 C   0  0  0  0  0  1  0  0  0  0  0  0
  196.3470  174.2650  144.5620 S   0  0  0  0  0  0  0  0  0  0  0  0
  1 11  1  0  0  0  0
  1 12  1  1  0  0  0
  4  8  1  6  0  0  0
  4  7  1  0  0  0  0
  4 11  1  0  0  0  0
  5  3  1  0  0  0  0
  6  8  1  0  0  0  0
  6 10  1  0  0  0  0
  7  2  1  6  0  0  0
  7  9  1  0  0  0  0
  9 20  1  0  0  0  0
  9  3  1  0  0  0  0
 10  1  1  0  0  0  0
 11  5  1  1  0  0  0
 12 13  1  0  0  0  0
 13 17  1  0  0  0  0
 14 15  1  0  0  0  0
 14 13  2  0  0  0  0
 17 16  1  1  0  0  0
 17 19  1  0  0  0  0
 19 18  1  0  0  0  0
 20 21  1  0  0  0  0
 22 25  2  0  0  0  0
 23 26  2  0  0  0  0
 24 28  1  0  0  0  0
 24 26  1  0  0  0  0
 25 21  1  0  0  0  0
 26 25  1  0  0  0  0
 27 24  1  0  0  0  0
 28 22  1  0  0  0  0
M  END
>  <MODEL>
2

>  <REMARK>
 VINA RESULT:      -7.0      2.082      3.873
  Name = 
  7 active torsions:
  status: ('A' for Active; 'I' for Inactive)
    1  A    between atoms: C_1  and  C_2
    2  A    between atoms: C_2  and  C_3
    3  A    between atoms: C_3  and  C_11
    4  A    between atoms: C_11  and  C_22
    5  A    between atoms: C_13  and  C_18
    6  A    between atoms: C_14  and  C_18
    7  A    between atoms: C_14  and  N_25
                            x       y       z     vdW  Elec       q    Type
                         _______ _______ _______ _____ _____    ______ ____

>  <TORSDO>
F 7

$$$$
=
 OpenBabel11052418023D

 28 30  0  0  1  0  0  0  0  0999 V2000
  187.2670  177.4170  143.9600 C   0  0  2  0  0  3  0  0  0  0  0  0
  192.2280  177.6290  144.3680 C   0  0  0  0  0  1  0  0  0  0  0  0
  189.6420  176.2830  146.7780 C   0  0  0  0  0  2  0  0  0  0  0  0
  189.7480  177.4870  144.1680 C   0  0  1  0  0  3  0  0  0  0  0  0
  188.4190  176.9670  146.1830 C   0  0  0  0  0  2  0  0  0  0  0  0
  188.4650  177.9960  142.1160 C   0  0  0  0  0  2  0  0  0  0  0  0
  190.9890  176.8590  144.8180 C   0  0  2  0  0  3  0  0  0  0  0  0
  189.7830  177.4290  142.6410 C   0  0  0  0  0  2  0  0  0  0  0  0
  190.8830  176.9010  146.2950 N   0  0  0  0  0  0  0  0  0  0  0  0
  187.3880  177.2120  142.5690 O   0  0  0  0  0  0  0  0  0  0  0  0
  188.4810  176.8020  144.6740 C   0  0  1  0  0  3  0  0  0  0  0  0
  185.9750  176.7730  144.4500 C   0  0  0  0  0  2  0  0  0  0  0  0
  185.0230  177.8050  144.9810 C   0  0  0  0  0  0  0  0  0  0  0  0
  184.7800  177.8660  146.2930 C   0  0  0  0  0  3  0  0  0  0  0  0
  183.9450  178.8030  146.8160 F   0  0  0  0  0  0  0  0  0  0  0  0
  185.3010  179.8330  143.7820 O   0  0  0  0  0  1  0  0  0  0  0  0
  184.4000  178.8030  144.0470 C   0  0  1  0  0  3  0  0  0  0  0  0
  184.7200  178.6670  141.6830 O   0  0  0  0  0  1  0  0  0  0  0  0
  183.9740  178.1480  142.7420 C   0  0  0  0  0  2  0  0  0  0  0  0
  192.0120  176.2170  146.9480 C   0  0  0  0  0  2  0  0  0  0  0  0
  192.1970  174.7470  146.5380 C   0  0  0  0  0  2  0  0  0  0  0  0
  194.6090  175.3930  146.1360 C   0  0  0  0  0  3  0  0  0  0  0  0
  193.0810  172.3730  145.0590 O   0  0  0  0  0  0  0  0  0  0  0  0
  195.1840  173.2480  144.8550 N   0  0  0  0  0  0  0  0  0  0  0  0
  193.5610  174.4780  145.9890 C   0  0  0  0  0  0  0  0  0  0  0  0
  193.9020  173.3030  145.2810 C   0  0  0  0  0  0  0  0  0  0  0  0
  195.8220  172.1800  144.1050 C   0  0  0  0  0  1  0  0  0  0  0  0
  195.8970  174.6540  145.3550 S   0  0  0  0  0  0  0  0  0  0  0  0
  1 12  1  1  0  0  0
  1 11  1  0  0  0  0
  4  8  1  6  0  0  0
  4 11  1  0  0  0  0
  4  7  1  0  0  0  0
  5  3  1  0  0  0  0
  6 10  1  0  0  0  0
  6  8  1  0  0  0  0
  7  2  1  1  0  0  0
  7  9  1  0  0  0  0
  9  3  1  0  0  0  0
  9 20  1  0  0  0  0
 10  1  1  0  0  0  0
 11  5  1  1  0  0  0
 12 13  1  0  0  0  0
 13 14  2  0  0  0  0
 14 15  1  0  0  0  0
 17 16  1  6  0  0  0
 17 13  1  0  0  0  0
 18 19  1  0  0  0  0
 19 17  1  0  0  0  0
 21 20  1  0  0  0  0
 23 26  2  0  0  0  0
 24 26  1  0  0  0  0
 24 28  1  0  0  0  0
 25 22  2  0  0  0  0
 25 21  1  0  0  0  0
 26 25  1  0  0  0  0
 27 24  1  0  0  0  0
 28 22  1  0  0  0  0
M  END
>  <MODEL>
3

>  <REMARK>
 VINA RESULT:      -6.9      2.312      3.364
  Name = 
  7 active torsions:
  status: ('A' for Active; 'I' for Inactive)
    1  A    between atoms: C_1  and  C_2
    2  A    between atoms: C_2  and  C_3
    3  A    between atoms: C_3  and  C_11
    4  A    between atoms: C_11  and  C_22
    5  A    between atoms: C_13  and  C_18
    6  A    between atoms: C_14  and  C_18
    7  A    between atoms: C_14  and  N_25
                            x       y       z     vdW  Elec       q    Type
                         _______ _______ _______ _____ _____    ______ ____

>  <TORSDO>
F 7

$$$$
=
 OpenBabel11052418023D

 28 30  0  0  1  0  0  0  0  0999 V2000
  187.2740  176.7630  143.7920 C   0  0  2  0  0  3  0  0  0  0  0  0
  192.0030  175.8830  142.4920 C   0  0  0  0  0  1  0  0  0  0  0  0
  190.5720  177.1760  145.7460 C   0  0  0  0  0  2  0  0  0  0  0  0
  189.6410  176.2990  143.1700 C   0  0  1  0  0  3  0  0  0  0  0  0
  189.2030  177.5940  145.2270 C   0  0  0  0  0  2  0  0  0  0  0  0
  187.6550  175.6560  141.8420 C   0  0  0  0  0  2  0  0  0  0  0  0
  191.0470  175.9540  143.6800 C   0  0  2  0  0  3  0  0  0  0  0  0
  189.0840  175.2530  142.2060 C   0  0  0  0  0  2  0  0  0  0  0  0
  191.5190  176.9760  144.6420 N   0  0  0  0  0  0  0  0  0  0  0  0
  186.8510  175.6770  142.9970 O   0  0  0  0  0  0  0  0  0  0  0  0
  188.6790  176.4750  144.3430 C   0  0  1  0  0  3  0  0  0  0  0  0
  186.2830  176.9620  144.9330 C   0  0  0  0  0  2  0  0  0  0  0  0
  185.8110  178.3850  144.9980 C   0  0  0  0  0  0  0  0  0  0  0  0
  185.9810  179.1860  143.9420 C   0  0  0  0  0  3  0  0  0  0  0  0
  185.5440  180.4740  143.9510 F   0  0  0  0  0  0  0  0  0  0  0  0
  183.7170  178.7430  146.0550 O   0  0  0  0  0  1  0  0  0  0  0  0
  185.0950  178.8840  146.2200 C   0  0  1  0  0  3  0  0  0  0  0  0
  186.7020  178.7090  147.9800 O   0  0  0  0  0  1  0  0  0  0  0  0
  185.5400  178.1340  147.4660 C   0  0  0  0  0  2  0  0  0  0  0  0
  192.8250  176.6220  145.2260 C   0  0  0  0  0  2  0  0  0  0  0  0
  192.8240  175.3350  146.0690 C   0  0  0  0  0  2  0  0  0  0  0  0
  195.3230  174.9530  146.0780 C   0  0  0  0  0  3  0  0  0  0  0  0
  192.8870  172.6030  145.0010 O   0  0  0  0  0  0  0  0  0  0  0  0
  195.1700  172.5780  145.1250 N   0  0  0  0  0  0  0  0  0  0  0  0
  194.0300  174.4900  145.8150 C   0  0  0  0  0  0  0  0  0  0  0  0
  193.9710  173.1780  145.2930 C   0  0  0  0  0  0  0  0  0  0  0  0
  195.4290  171.2450  144.6080 C   0  0  0  0  0  1  0  0  0  0  0  0
  196.3070  173.6710  145.6260 S   0  0  0  0  0  0  0  0  0  0  0  0
  1 11  1  0  0  0  0
  1 12  1  1  0  0  0
  4  8  1  6  0  0  0
  4  7  1  0  0  0  0
  4 11  1  0  0  0  0
  5  3  1  0  0  0  0
  6  8  1  0  0  0  0
  6 10  1  0  0  0  0
  7  2  1  6  0  0  0
  7  9  1  0  0  0  0
  9 20  1  0  0  0  0
  9  3  1  0  0  0  0
 10  1  1  0  0  0  0
 11  5  1  1  0  0  0
 12 13  1  0  0  0  0
 13 17  1  0  0  0  0
 14 15  1  0  0  0  0
 14 13  2  0  0  0  0
 17 16  1  6  0  0  0
 17 19  1  0  0  0  0
 19 18  1  0  0  0  0
 20 21  1  0  0  0  0
 23 26  2  0  0  0  0
 24 26  1  0  0  0  0
 24 28  1  0  0  0  0
 25 21  1  0  0  0  0
 25 22  2  0  0  0  0
 26 25  1  0  0  0  0
 27 24  1  0  0  0  0
 28 22  1  0  0  0  0
M  END
>  <MODEL>
4

>  <REMARK>
 VINA RESULT:      -6.9      2.617      4.221
  Name = 
  7 active torsions:
  status: ('A' for Active; 'I' for Inactive)
    1  A    between atoms: C_1  and  C_2
    2  A    between atoms: C_2  and  C_3
    3  A    between atoms: C_3  and  C_11
    4  A    between atoms: C_11  and  C_22
    5  A    between atoms: C_13  and  C_18
    6  A    between atoms: C_14  and  C_18
    7  A    between atoms: C_14  and  N_25
                            x       y       z     vdW  Elec       q    Type
                         _______ _______ _______ _____ _____    ______ ____

>  <TORSDO>
F 7

$$$$
=
 OpenBabel11052418023D

 28 30  0  0  1  0  0  0  0  0999 V2000
  186.2670  177.7050  144.2760 C   0  0  2  0  0  3  0  0  0  0  0  0
  189.4010  175.2510  147.2720 C   0  0  0  0  0  1  0  0  0  0  0  0
  190.1040  177.3280  144.1900 C   0  0  0  0  0  2  0  0  0  0  0  0
  187.8510  176.5090  145.7810 C   0  0  1  0  0  3  0  0  0  0  0  0
  188.6940  177.3360  143.6120 C   0  0  0  0  0  2  0  0  0  0  0  0
  185.4430  176.8650  146.2220 C   0  0  0  0  0  2  0  0  0  0  0  0
  189.2880  176.4370  146.3180 C   0  0  2  0  0  3  0  0  0  0  0  0
  186.8130  176.7180  146.8830 C   0  0  0  0  0  2  0  0  0  0  0  0
  190.2530  176.2790  145.2060 N   0  0  0  0  0  0  0  0  0  0  0  0
  185.4330  177.9910  145.3780 O   0  0  0  0  0  0  0  0  0  0  0  0
  187.7270  177.6260  144.7470 C   0  0  1  0  0  3  0  0  0  0  0  0
  186.1010  178.7990  143.2270 C   0  0  0  0  0  2  0  0  0  0  0  0
  185.5060  178.2520  141.9630 C   0  0  0  0  0  0  0  0  0  0  0  0
  186.3060  177.9300  140.9420 C   0  0  0  0  0  3  0  0  0  0  0  0
  185.8080  177.4060  139.7900 F   0  0  0  0  0  0  0  0  0  0  0  0
  183.3770  178.6330  142.9370 O   0  0  0  0  0  1  0  0  0  0  0  0
  184.0270  178.0080  141.8730 C   0  0  1  0  0  3  0  0  0  0  0  0
  182.5990  177.5720  140.0060 O   0  0  0  0  0  1  0  0  0  0  0  0
  183.4610  178.5200  140.5570 C   0  0  0  0  0  2  0  0  0  0  0  0
  191.6480  176.3060  145.6800 C   0  0  0  0  0  2  0  0  0  0  0  0
  192.5160  175.1360  145.1880 C   0  0  0  0  0  2  0  0  0  0  0  0
  193.0810  175.5160  142.7520 C   0  0  0  0  0  3  0  0  0  0  0  0
  195.2800  176.0710  145.4860 O   0  0  0  0  0  0  0  0  0  0  0  0
  195.4770  176.2990  143.2190 N   0  0  0  0  0  0  0  0  0  0  0  0
  193.4560  175.5450  144.1000 C   0  0  0  0  0  0  0  0  0  0  0  0
  194.7800  175.9820  144.3320 C   0  0  0  0  0  0  0  0  0  0  0  0
  196.8490  176.7700  143.1390 C   0  0  0  0  0  1  0  0  0  0  0  0
  194.4550  176.0420  141.9450 S   0  0  0  0  0  0  0  0  0  0  0  0
  1 12  1  6  0  0  0
  1 11  1  0  0  0  0
  1 10  1  0  0  0  0
  3  9  1  0  0  0  0
  4  7  1  0  0  0  0
  4  8  1  1  0  0  0
  5  3  1  0  0  0  0
  6  8  1  0  0  0  0
  7  2  1  1  0  0  0
  9 20  1  0  0  0  0
  9  7  1  0  0  0  0
 10  6  1  0  0  0  0
 11  5  1  6  0  0  0
 11  4  1  0  0  0  0
 13 12  1  0  0  0  0
 14 13  2  0  0  0  0
 15 14  1  0  0  0  0
 17 13  1  0  0  0  0
 17 16  1  1  0  0  0
 18 19  1  0  0  0  0
 19 17  1  0  0  0  0
 21 20  1  0  0  0  0
 22 25  2  0  0  0  0
 24 26  1  0  0  0  0
 25 26  1  0  0  0  0
 25 21  1  0  0  0  0
 26 23  2  0  0  0  0
 27 24  1  0  0  0  0
 28 22  1  0  0  0  0
 28 24  1  0  0  0  0
M  END
>  <MODEL>
5

>  <REMARK>
 VINA RESULT:      -6.8      1.804      2.108
  Name = 
  7 active torsions:
  status: ('A' for Active; 'I' for Inactive)
    1  A    between atoms: C_1  and  C_2
    2  A    between atoms: C_2  and  C_3
    3  A    between atoms: C_3  and  C_11
    4  A    between atoms: C_11  and  C_22
    5  A    between atoms: C_13  and  C_18
    6  A    between atoms: C_14  and  C_18
    7  A    between atoms: C_14  and  N_25
                            x       y       z     vdW  Elec       q    Type
                         _______ _______ _______ _____ _____    ______ ____

>  <TORSDO>
F 7

$$$$
=
 OpenBabel11052418023D

 28 30  0  0  1  0  0  0  0  0999 V2000
  192.0370  176.1740  145.7580 C   0  0  2  0  0  3  0  0  0  0  0  0
  187.2890  176.6460  147.1910 C   0  0  0  0  0  1  0  0  0  0  0  0
  188.9060  177.3630  143.8470 C   0  0  0  0  0  2  0  0  0  0  0  0
  189.6540  176.3870  146.4480 C   0  0  1  0  0  3  0  0  0  0  0  0
  190.3530  177.4240  144.3190 C   0  0  0  0  0  2  0  0  0  0  0  0
  191.4390  175.2980  147.7690 C   0  0  0  0  0  2  0  0  0  0  0  0
  188.1900  176.4060  145.9830 C   0  0  2  0  0  3  0  0  0  0  0  0
  189.9440  175.2740  147.4540 C   0  0  0  0  0  2  0  0  0  0  0  0
  187.9760  177.4730  144.9780 N   0  0  0  0  0  0  0  0  0  0  0  0
  192.1830  175.0510  146.6000 O   0  0  0  0  0  0  0  0  0  0  0  0
  190.5890  176.2470  145.2490 C   0  0  1  0  0  3  0  0  0  0  0  0
  193.0090  176.0510  144.5890 C   0  0  0  0  0  2  0  0  0  0  0  0
  194.3530  176.6180  144.9400 C   0  0  0  0  0  0  0  0  0  0  0  0
  194.4280  177.7150  145.6990 C   0  0  0  0  0  3  0  0  0  0  0  0
  195.6270  178.2460  146.0610 F   0  0  0  0  0  0  0  0  0  0  0  0
  195.3890  174.5400  144.4510 O   0  0  0  0  0  1  0  0  0  0  0  0
  195.6040  175.9180  144.4940 C   0  0  1  0  0  3  0  0  0  0  0  0
  197.4270  176.6520  143.1340 O   0  0  0  0  0  1  0  0  0  0  0  0
  196.0540  176.4070  143.1260 C   0  0  0  0  0  2  0  0  0  0  0  0
  186.6050  177.4530  144.4390 C   0  0  0  0  0  2  0  0  0  0  0  0
  186.1660  178.7590  143.7540 C   0  0  0  0  0  2  0  0  0  0  0  0
  185.9130  178.2280  141.2940 C   0  0  0  0  0  3  0  0  0  0  0  0
  183.2390  178.7770  143.5660 O   0  0  0  0  0  0  0  0  0  0  0  0
  183.3510  178.3000  141.3330 N   0  0  0  0  0  0  0  0  0  0  0  0
  185.3350  178.5090  142.5370 C   0  0  0  0  0  0  0  0  0  0  0  0
  183.9220  178.5410  142.5340 C   0  0  0  0  0  0  0  0  0  0  0  0
  181.9330  178.2700  141.0180 C   0  0  0  0  0  1  0  0  0  0  0  0
  184.5940  178.0440  140.2730 S   0  0  0  0  0  0  0  0  0  0  0  0
  1 12  1  6  0  0  0
  1 10  1  0  0  0  0
  3  5  1  0  0  0  0
  3  9  1  0  0  0  0
  4  8  1  1  0  0  0
  7  4  1  0  0  0  0
  7  2  1  1  0  0  0
  8  6  1  0  0  0  0
  9  7  1  0  0  0  0
 10  6  1  0  0  0  0
 11  5  1  6  0  0  0
 11  1  1  0  0  0  0
 11  4  1  0  0  0  0
 12 13  1  0  0  0  0
 13 14  2  0  0  0  0
 14 15  1  0  0  0  0
 17 16  1  6  0  0  0
 17 13  1  0  0  0  0
 19 18  1  0  0  0  0
 19 17  1  0  0  0  0
 20  9  1  0  0  0  0
 21 20  1  0  0  0  0
 22 25  2  0  0  0  0
 24 26  1  0  0  0  0
 25 21  1  0  0  0  0
 26 25  1  0  0  0  0
 26 23  2  0  0  0  0
 27 24  1  0  0  0  0
 28 22  1  0  0  0  0
 28 24  1  0  0  0  0
M  END
>  <MODEL>
6

>  <REMARK>
 VINA RESULT:      -6.6      4.099      8.667
  Name = 
  7 active torsions:
  status: ('A' for Active; 'I' for Inactive)
    1  A    between atoms: C_1  and  C_2
    2  A    between atoms: C_2  and  C_3
    3  A    between atoms: C_3  and  C_11
    4  A    between atoms: C_11  and  C_22
    5  A    between atoms: C_13  and  C_18
    6  A    between atoms: C_14  and  C_18
    7  A    between atoms: C_14  and  N_25
                            x       y       z     vdW  Elec       q    Type
                         _______ _______ _______ _____ _____    ______ ____

>  <TORSDO>
F 7

$$$$
=
 OpenBabel11052418023D

 28 30  0  0  1  0  0  0  0  0999 V2000
  193.8850  175.4340  144.0560 C   0  0  2  0  0  3  0  0  0  0  0  0
  188.9380  174.9000  143.8120 C   0  0  0  0  0  1  0  0  0  0  0  0
  191.1550  175.7360  146.7610 C   0  0  0  0  0  2  0  0  0  0  0  0
  191.4090  175.2010  143.9460 C   0  0  1  0  0  3  0  0  0  0  0  0
  192.4800  175.2750  146.1700 C   0  0  0  0  0  2  0  0  0  0  0  0
  192.9320  175.2680  141.9980 C   0  0  0  0  0  2  0  0  0  0  0  0
  190.0630  175.5930  144.5750 C   0  0  2  0  0  3  0  0  0  0  0  0
  191.5270  175.6270  142.4840 C   0  0  0  0  0  2  0  0  0  0  0  0
  190.0190  175.1970  146.0020 N   0  0  0  0  0  0  0  0  0  0  0  0
  193.8950  175.9670  142.7490 O   0  0  0  0  0  0  0  0  0  0  0  0
  192.5630  175.7990  144.7470 C   0  0  1  0  0  3  0  0  0  0  0  0
  195.0690  175.9990  144.8340 C   0  0  0  0  0  2  0  0  0  0  0  0
  196.1700  174.9870  144.9540 C   0  0  0  0  0  0  0  0  0  0  0  0
  196.1990  174.1630  146.0050 C   0  0  0  0  0  3  0  0  0  0  0  0
  197.1650  173.2150  146.1370 F   0  0  0  0  0  0  0  0  0  0  0  0
  196.8010  173.8820  142.9500 O   0  0  0  0  0  1  0  0  0  0  0  0
  197.1960  174.8600  143.8640 C   0  0  1  0  0  3  0  0  0  0  0  0
  197.0790  176.0410  141.7890 O   0  0  0  0  0  1  0  0  0  0  0  0
  197.4000  176.1820  143.1400 C   0  0  0  0  0  2  0  0  0  0  0  0
  188.7810  175.6480  146.6600 C   0  0  0  0  0  2  0  0  0  0  0  0
  188.5460  177.1670  146.6150 C   0  0  0  0  0  2  0  0  0  0  0  0
  186.1330  177.4500  147.3180 C   0  0  0  0  0  3  0  0  0  0  0  0
  187.4060  178.0280  144.0530 O   0  0  0  0  0  0  0  0  0  0  0  0
  185.3280  178.1750  144.9940 N   0  0  0  0  0  0  0  0  0  0  0  0
  187.1200  177.5120  146.3280 C   0  0  0  0  0  0  0  0  0  0  0  0
  186.6530  177.9160  145.0570 C   0  0  0  0  0  0  0  0  0  0  0  0
  184.5640  178.6020  143.8350 C   0  0  0  0  0  1  0  0  0  0  0  0
  184.7330  177.9070  146.5140 S   0  0  0  0  0  0  0  0  0  0  0  0
  1 11  1  0  0  0  0
  1 12  1  1  0  0  0
  4  8  1  6  0  0  0
  4  7  1  0  0  0  0
  4 11  1  0  0  0  0
  5  3  1  0  0  0  0
  6  8  1  0  0  0  0
  6 10  1  0  0  0  0
  7  2  1  6  0  0  0
  7  9  1  0  0  0  0
  9 20  1  0  0  0  0
  9  3  1  0  0  0  0
 10  1  1  0  0  0  0
 11  5  1  1  0  0  0
 12 13  1  0  0  0  0
 13 14  2  0  0  0  0
 14 15  1  0  0  0  0
 17 16  1  6  0  0  0
 17 13  1  0  0  0  0
 18 19  1  0  0  0  0
 19 17  1  0  0  0  0
 21 20  1  0  0  0  0
 23 26  2  0  0  0  0
 24 26  1  0  0  0  0
 24 28  1  0  0  0  0
 25 21  1  0  0  0  0
 25 22  2  0  0  0  0
 26 25  1  0  0  0  0
 27 24  1  0  0  0  0
 28 22  1  0  0  0  0
M  END
>  <MODEL>
7

>  <REMARK>
 VINA RESULT:      -6.5      4.131      8.864
  Name = 
  7 active torsions:
  status: ('A' for Active; 'I' for Inactive)
    1  A    between atoms: C_1  and  C_2
    2  A    between atoms: C_2  and  C_3
    3  A    between atoms: C_3  and  C_11
    4  A    between atoms: C_11  and  C_22
    5  A    between atoms: C_13  and  C_18
    6  A    between atoms: C_14  and  C_18
    7  A    between atoms: C_14  and  N_25
                            x       y       z     vdW  Elec       q    Type
                         _______ _______ _______ _____ _____    ______ ____

>  <TORSDO>
F 7

$$$$
=
 OpenBabel11052418023D

 28 30  0  0  1  0  0  0  0  0999 V2000
  187.5970  176.4430  143.0960 C   0  0  2  0  0  3  0  0  0  0  0  0
  192.4600  175.6530  142.3550 C   0  0  0  0  0  1  0  0  0  0  0  0
  190.6740  177.2940  145.2580 C   0  0  0  0  0  2  0  0  0  0  0  0
  190.0290  176.0290  142.7560 C   0  0  1  0  0  3  0  0  0  0  0  0
  189.3440  177.5630  144.5660 C   0  0  0  0  0  2  0  0  0  0  0  0
  188.2070  175.1060  141.3610 C   0  0  0  0  0  2  0  0  0  0  0  0
  191.3940  175.8310  143.4320 C   0  0  2  0  0  3  0  0  0  0  0  0
  189.6100  174.8330  141.9020 C   0  0  0  0  0  2  0  0  0  0  0  0
  191.7290  176.9980  144.2810 N   0  0  0  0  0  0  0  0  0  0  0  0
  187.2960  175.2380  142.4250 O   0  0  0  0  0  0  0  0  0  0  0  0
  188.9540  176.3080  143.8030 C   0  0  1  0  0  3  0  0  0  0  0  0
  186.4940  176.7400  144.1060 C   0  0  0  0  0  2  0  0  0  0  0  0
  185.6870  177.9340  143.6890 C   0  0  0  0  0  0  0  0  0  0  0  0
  185.8690  179.1040  144.3090 C   0  0  0  0  0  3  0  0  0  0  0  0
  185.1760  180.2150  143.9430 F   0  0  0  0  0  0  0  0  0  0  0  0
  183.5000  178.3930  142.8890 O   0  0  0  0  0  1  0  0  0  0  0  0
  184.7270  177.8280  142.5390 C   0  0  1  0  0  3  0  0  0  0  0  0
  185.6520  177.5710  140.3500 O   0  0  0  0  0  1  0  0  0  0  0  0
  185.2710  178.5210  141.2980 C   0  0  0  0  0  2  0  0  0  0  0  0
  192.9870  176.7970  145.0210 C   0  0  0  0  0  2  0  0  0  0  0  0
  192.9620  175.6310  146.0240 C   0  0  0  0  0  2  0  0  0  0  0  0
  195.4090  174.9930  146.0280 C   0  0  0  0  0  3  0  0  0  0  0  0
  192.7330  172.8750  145.0450 O   0  0  0  0  0  0  0  0  0  0  0  0
  195.0020  172.6180  145.1530 N   0  0  0  0  0  0  0  0  0  0  0  0
  194.0720  174.6580  145.7890 C   0  0  0  0  0  0  0  0  0  0  0  0
  193.8720  173.3430  145.3100 C   0  0  0  0  0  0  0  0  0  0  0  0
  195.1160  171.2500  144.6780 C   0  0  0  0  0  1  0  0  0  0  0  0
  196.2500  173.6020  145.6100 S   0  0  0  0  0  0  0  0  0  0  0  0
  1 11  1  0  0  0  0
  1 12  1  1  0  0  0
  4  8  1  1  0  0  0
  4  7  1  0  0  0  0
  4 11  1  0  0  0  0
  5  3  1  0  0  0  0
  6  8  1  0  0  0  0
  6 10  1  0  0  0  0
  7  2  1  6  0  0  0
  7  9  1  0  0  0  0
  9 20  1  0  0  0  0
  9  3  1  0  0  0  0
 10  1  1  0  0  0  0
 11  5  1  6  0  0  0
 13 12  1  0  0  0  0
 13 14  2  0  0  0  0
 15 14  1  0  0  0  0
 17 16  1  1  0  0  0
 17 13  1  0  0  0  0
 18 19  1  0  0  0  0
 19 17  1  0  0  0  0
 20 21  1  0  0  0  0
 23 26  2  0  0  0  0
 24 26  1  0  0  0  0
 24 28  1  0  0  0  0
 25 21  1  0  0  0  0
 25 22  2  0  0  0  0
 26 25  1  0  0  0  0
 27 24  1  0  0  0  0
 28 22  1  0  0  0  0
M  END
>  <MODEL>
8

>  <REMARK>
 VINA RESULT:      -6.5      2.409      3.561
  Name = 
  7 active torsions:
  status: ('A' for Active; 'I' for Inactive)
    1  A    between atoms: C_1  and  C_2
    2  A    between atoms: C_2  and  C_3
    3  A    between atoms: C_3  and  C_11
    4  A    between atoms: C_11  and  C_22
    5  A    between atoms: C_13  and  C_18
    6  A    between atoms: C_14  and  C_18
    7  A    between atoms: C_14  and  N_25
                            x       y       z     vdW  Elec       q    Type
                         _______ _______ _______ _____ _____    ______ ____

>  <TORSDO>
F 7

$$$$
=
 OpenBabel11052418023D

 28 30  0  0  1  0  0  0  0  0999 V2000
  187.9450  176.5140  145.4970 C   0  0  2  0  0  3  0  0  0  0  0  0
  190.5840  172.3790  144.6220 C   0  0  0  0  0  1  0  0  0  0  0  0
  189.5270  175.1400  142.2600 C   0  0  0  0  0  2  0  0  0  0  0  0
  189.2920  174.4680  145.0480 C   0  0  1  0  0  3  0  0  0  0  0  0
  188.4270  175.7470  143.1200 C   0  0  0  0  0  2  0  0  0  0  0  0
  188.6460  175.2980  147.2860 C   0  0  0  0  0  2  0  0  0  0  0  0
  190.3460  173.8100  144.1450 C   0  0  2  0  0  3  0  0  0  0  0  0
  189.7270  174.5470  146.5100 C   0  0  0  0  0  2  0  0  0  0  0  0
  189.8920  173.7990  142.7350 N   0  0  0  0  0  0  0  0  0  0  0  0
  188.5130  176.6060  146.7860 O   0  0  0  0  0  0  0  0  0  0  0  0
  188.9570  175.8680  144.5390 C   0  0  1  0  0  3  0  0  0  0  0  0
  187.5690  177.9110  145.0160 C   0  0  0  0  0  2  0  0  0  0  0  0
  186.0830  178.1130  145.0500 C   0  0  0  0  0  0  0  0  0  0  0  0
  185.3740  177.6320  146.0750 C   0  0  0  0  0  3  0  0  0  0  0  0
  184.0290  177.8180  146.1560 F   0  0  0  0  0  0  0  0  0  0  0  0
  185.5480  180.2720  144.2240 O   0  0  0  0  0  1  0  0  0  0  0  0
  185.4080  178.9080  143.9690 C   0  0  1  0  0  3  0  0  0  0  0  0
  185.1850  177.6410  141.9540 O   0  0  0  0  0  1  0  0  0  0  0  0
  185.9870  178.5830  142.6000 C   0  0  0  0  0  2  0  0  0  0  0  0
  190.9230  173.2640  141.8290 C   0  0  0  0  0  2  0  0  0  0  0  0
  191.9030  174.3140  141.2800 C   0  0  0  0  0  2  0  0  0  0  0  0
  194.1160  173.4190  142.1160 C   0  0  0  0  0  3  0  0  0  0  0  0
  192.6600  176.5160  143.0650 O   0  0  0  0  0  0  0  0  0  0  0  0
  194.5920  175.4320  143.6300 N   0  0  0  0  0  0  0  0  0  0  0  0
  193.1410  174.4220  142.1110 C   0  0  0  0  0  0  0  0  0  0  0  0
  193.4270  175.5230  142.9500 C   0  0  0  0  0  0  0  0  0  0  0  0
  195.1490  176.3960  144.5630 C   0  0  0  0  0  1  0  0  0  0  0  0
  195.2720  173.9910  143.1890 S   0  0  0  0  0  0  0  0  0  0  0  0
  1 12  1  6  0  0  0
  1 10  1  0  0  0  0
  3  9  1  0  0  0  0
  3  5  1  0  0  0  0
  4  8  1  1  0  0  0
  7  2  1  1  0  0  0
  7  4  1  0  0  0  0
  8  6  1  0  0  0  0
  9  7  1  0  0  0  0
 10  6  1  0  0  0  0
 11  5  1  6  0  0  0
 11  4  1  0  0  0  0
 11  1  1  0  0  0  0
 12 13  1  0  0  0  0
 13 14  2  0  0  0  0
 14 15  1  0  0  0  0
 17 16  1  1  0  0  0
 17 13  1  0  0  0  0
 18 19  1  0  0  0  0
 19 17  1  0  0  0  0
 20  9  1  0  0  0  0
 21 20  1  0  0  0  0
 21 25  1  0  0  0  0
 22 28  1  0  0  0  0
 24 27  1  0  0  0  0
 25 22  2  0  0  0  0
 25 26  1  0  0  0  0
 26 23  2  0  0  0  0
 26 24  1  0  0  0  0
 28 24  1  0  0  0  0
M  END
>  <MODEL>
9

>  <REMARK>
 VINA RESULT:      -6.4      1.971      2.946
  Name = 
  7 active torsions:
  status: ('A' for Active; 'I' for Inactive)
    1  A    between atoms: C_1  and  C_2
    2  A    between atoms: C_2  and  C_3
    3  A    between atoms: C_3  and  C_11
    4  A    between atoms: C_11  and  C_22
    5  A    between atoms: C_13  and  C_18
    6  A    between atoms: C_14  and  C_18
    7  A    between atoms: C_14  and  N_25
                            x       y       z     vdW  Elec       q    Type
                         _______ _______ _______ _____ _____    ______ ____

>  <TORSDO>
F 7

$$$$
