=
 OpenBabel11052419563D

 37 41  0  0  1  0  0  0  0  0999 V2000
  191.4480  173.7730  141.7970 C   0  0  1  0  0  0  0  0  0  0  0  0
  195.0650  174.8580  143.2450 S   0  0  0  0  0  0  0  0  0  0  0  0
  192.8120  174.6880  146.5340 C   0  0  0  0  0  3  0  0  0  0  0  0
  190.6170  172.5670  141.3170 C   0  0  1  0  0  3  0  0  0  0  0  0
  188.6590  176.2270  143.8780 C   0  0  0  0  0  3  0  0  0  0  0  0
  194.8550  176.5970  145.2580 C   0  0  0  0  0  3  0  0  0  0  0  0
  188.9680  173.8830  143.9220 O   0  0  0  0  0  1  0  0  0  0  0  0
  187.4540  173.6090  141.5050 O   0  0  0  0  0  1  0  0  0  0  0  0
  193.7680  174.3900  145.6540 C   0  0  0  0  0  3  0  0  0  0  0  0
  189.4250  176.7520  146.1080 N   0  0  0  0  0  2  0  0  0  0  0  0
  194.5130  177.2150  146.5550 C   0  0  0  0  0  3  0  0  0  0  0  0
  189.5050  172.9900  140.3410 C   0  0  2  0  0  3  0  0  0  0  0  0
  192.9350  173.5790  142.0990 C   0  0  1  0  0  3  0  0  0  0  0  0
  195.6470  173.4750  143.3380 O   0  0  0  0  0  0  0  0  0  0  0  0
  191.1410  176.0960  147.7020 C   0  0  0  0  0  2  0  0  0  0  0  0
  193.4000  176.9710  147.2480 C   0  0  0  0  0  3  0  0  0  0  0  0
  193.7110  174.8920  142.0810 C   0  0  0  0  0  2  0  0  0  0  0  0
  188.6070  174.1170  140.8940 C   0  0  2  0  0  3  0  0  0  0  0  0
  188.9670  175.1000  143.2430 C   0  0  0  0  0  0  0  0  0  0  0  0
  192.3140  176.0830  146.7390 C   0  0  1  0  0  3  0  0  0  0  0  0
  190.8570  175.1730  141.5990 C   0  0  0  0  0  2  0  0  0  0  0  0
  194.5000  175.3750  144.8280 C   0  0  0  0  0  0  0  0  0  0  0  0
  188.3040  176.2470  145.3300 C   0  0  1  0  0  3  0  0  0  0  0  0
  196.1380  175.7960  142.7650 O   0  0  0  0  0  0  0  0  0  0  0  0
  189.3340  175.1610  141.7880 C   0  0  1  0  0  3  0  0  0  0  0  0
  188.7440  171.8870  139.9480 O   0  0  0  0  0  1  0  0  0  0  0  0
  191.9170  173.5730  143.2220 C   0  0  0  0  0  2  0  0  0  0  0  0
  189.8590  175.6850  146.9950 C   0  0  0  0  0  2  0  0  0  0  0  0
  186.1840  176.8160  146.5940 C   0  0  0  0  0  3  0  0  0  0  0  0
  187.0810  177.0840  145.5480 C   0  0  0  0  0  0  0  0  0  0  0  0
  186.8620  178.1930  144.7220 C   0  0  0  0  0  3  0  0  0  0  0  0
  185.5360  180.1120  144.1010 O   0  0  0  0  0  1  0  0  0  0  0  0
  184.8530  178.7350  145.9610 C   0  0  0  0  0  3  0  0  0  0  0  0
  185.7500  179.0150  144.9270 C   0  0  0  0  0  0  0  0  0  0  0  0
  185.0710  177.6360  146.7960 C   0  0  0  0  0  3  0  0  0  0  0  0
  191.1370  170.3550  141.6640 C   0  0  0  0  0  1  0  0  0  0  0  0
  191.3950  171.4760  140.8580 O   0  0  0  0  0  0  0  0  0  0  0  0
  1 21  1  6  0  0  0
  1 13  1  0  0  0  0
  1 27  1  0  0  0  0
  2 14  2  0  0  0  0
  2 22  1  0  0  0  0
  4 37  1  6  0  0  0
  4  1  1  0  0  0  0
  5 23  1  0  0  0  0
  6 11  1  0  0  0  0
  9  3  2  0  0  0  0
 10 28  1  0  0  0  0
 11 16  2  0  0  0  0
 12 26  1  1  0  0  0
 12 18  1  0  0  0  0
 12  4  1  0  0  0  0
 13 17  1  1  0  0  0
 13 27  1  0  0  0  0
 17  2  1  0  0  0  0
 18  8  1  1  0  0  0
 18 25  1  0  0  0  0
 19  5  2  0  0  0  0
 19  7  1  0  0  0  0
 20  3  1  1  0  0  0
 20 16  1  0  0  0  0
 20 15  1  0  0  0  0
 22  6  2  0  0  0  0
 22  9  1  0  0  0  0
 23 30  1  6  0  0  0
 23 10  1  0  0  0  0
 24  2  2  0  0  0  0
 25 21  1  1  0  0  0
 25 19  1  0  0  0  0
 28 15  1  0  0  0  0
 29 35  1  0  0  0  0
 30 29  2  0  0  0  0
 31 34  2  0  0  0  0
 31 30  1  0  0  0  0
 32 34  1  0  0  0  0
 33 35  2  0  0  0  0
 34 33  1  0  0  0  0
 37 36  1  0  0  0  0
M  END
>  <MODEL>
1

>  <REMARK>
 VINA RESULT:      -9.3      0.000      0.000
  Name = 
  2 active torsions:
  status: ('A' for Active; 'I' for Inactive)
    1  A    between atoms: C_5  and  O_23
    2  A    between atoms: C_6  and  C_31
                            x       y       z     vdW  Elec       q    Type
                         _______ _______ _______ _____ _____    ______ ____

>  <TORSDO>
F 2

$$$$
=
 OpenBabel11052419563D

 37 41  0  0  1  0  0  0  0  0999 V2000
  192.0070  173.1400  141.7130 C   0  0  1  0  0  0  0  0  0  0  0  0
  195.3970  174.2800  143.6010 S   0  0  0  0  0  0  0  0  0  0  0  0
  192.6640  174.4680  146.5030 C   0  0  0  0  0  3  0  0  0  0  0  0
  191.2160  171.9120  141.2210 C   0  0  1  0  0  3  0  0  0  0  0  0
  189.0220  175.8380  143.1070 C   0  0  0  0  0  3  0  0  0  0  0  0
  194.9440  176.2040  145.3930 C   0  0  0  0  0  3  0  0  0  0  0  0
  189.2380  173.5020  143.4100 O   0  0  0  0  0  1  0  0  0  0  0  0
  188.1010  173.0340  140.8210 O   0  0  0  0  0  1  0  0  0  0  0  0
  193.7320  174.0680  145.8120 C   0  0  0  0  0  3  0  0  0  0  0  0
  189.4580  176.5540  145.3730 N   0  0  0  0  0  2  0  0  0  0  0  0
  194.4310  176.9490  146.5600 C   0  0  0  0  0  3  0  0  0  0  0  0
  190.2820  172.2650  140.0500 C   0  0  2  0  0  3  0  0  0  0  0  0
  193.4230  172.9430  142.2590 C   0  0  1  0  0  3  0  0  0  0  0  0
  195.9080  172.8990  143.9070 O   0  0  0  0  0  0  0  0  0  0  0  0
  190.8860  176.0150  147.2670 C   0  0  0  0  0  2  0  0  0  0  0  0
  193.2170  176.7950  147.0920 C   0  0  0  0  0  3  0  0  0  0  0  0
  194.2380  174.2330  142.2430 C   0  0  0  0  0  2  0  0  0  0  0  0
  189.3510  173.4570  140.3530 C   0  0  2  0  0  3  0  0  0  0  0  0
  189.3840  174.6490  142.6320 C   0  0  0  0  0  0  0  0  0  0  0  0
  192.1910  175.8860  146.5020 C   0  0  1  0  0  3  0  0  0  0  0  0
  191.5030  174.5270  141.3010 C   0  0  0  0  0  2  0  0  0  0  0  0
  194.6160  174.9550  145.0250 C   0  0  0  0  0  0  0  0  0  0  0  0
  188.4500  176.0020  144.4790 C   0  0  1  0  0  3  0  0  0  0  0  0
  196.5630  175.1440  143.2110 O   0  0  0  0  0  0  0  0  0  0  0  0
  189.9700  174.5650  141.2510 C   0  0  1  0  0  3  0  0  0  0  0  0
  189.5510  171.1460  139.6440 O   0  0  0  0  0  1  0  0  0  0  0  0
  192.2460  173.0660  143.2060 C   0  0  0  0  0  2  0  0  0  0  0  0
  189.7120  175.5670  146.4090 C   0  0  0  0  0  2  0  0  0  0  0  0
  186.9670  177.6910  143.3150 C   0  0  0  0  0  3  0  0  0  0  0  0
  187.2400  176.8820  144.4290 C   0  0  0  0  0  0  0  0  0  0  0  0
  186.3330  176.8510  145.4950 C   0  0  0  0  0  3  0  0  0  0  0  0
  184.2810  177.6000  146.5210 O   0  0  0  0  0  1  0  0  0  0  0  0
  184.9150  178.4470  144.3520 C   0  0  0  0  0  3  0  0  0  0  0  0
  185.1750  177.6320  145.4580 C   0  0  0  0  0  0  0  0  0  0  0  0
  185.8100  178.4750  143.2800 C   0  0  0  0  0  3  0  0  0  0  0  0
  191.6170  169.7410  141.8600 C   0  0  0  0  0  1  0  0  0  0  0  0
  192.0160  170.7670  140.9870 O   0  0  0  0  0  0  0  0  0  0  0  0
  1 21  1  6  0  0  0
  1 13  1  0  0  0  0
  1 27  1  0  0  0  0
  2 14  2  0  0  0  0
  2 22  1  0  0  0  0
  4 37  1  6  0  0  0
  4  1  1  0  0  0  0
  5 23  1  0  0  0  0
  6 11  1  0  0  0  0
  9  3  2  0  0  0  0
 10 28  1  0  0  0  0
 11 16  2  0  0  0  0
 12 26  1  1  0  0  0
 12 18  1  0  0  0  0
 12  4  1  0  0  0  0
 13 17  1  1  0  0  0
 13 27  1  0  0  0  0
 17  2  1  0  0  0  0
 18  8  1  1  0  0  0
 18 25  1  0  0  0  0
 19  5  2  0  0  0  0
 19  7  1  0  0  0  0
 20  3  1  1  0  0  0
 20 16  1  0  0  0  0
 20 15  1  0  0  0  0
 22  6  2  0  0  0  0
 22  9  1  0  0  0  0
 23 30  1  6  0  0  0
 23 10  1  0  0  0  0
 24  2  2  0  0  0  0
 25 21  1  1  0  0  0
 25 19  1  0  0  0  0
 28 15  1  0  0  0  0
 29 30  1  0  0  0  0
 30 31  2  0  0  0  0
 33 34  2  0  0  0  0
 34 31  1  0  0  0  0
 34 32  1  0  0  0  0
 35 29  2  0  0  0  0
 35 33  1  0  0  0  0
 37 36  1  0  0  0  0
M  END
>  <MODEL>
2

>  <REMARK>
 VINA RESULT:      -8.8      1.053      1.352
  Name = 
  2 active torsions:
  status: ('A' for Active; 'I' for Inactive)
    1  A    between atoms: C_5  and  O_23
    2  A    between atoms: C_6  and  C_31
                            x       y       z     vdW  Elec       q    Type
                         _______ _______ _______ _____ _____    ______ ____

>  <TORSDO>
F 2

$$$$
=
 OpenBabel11052419563D

 37 41  0  0  1  0  0  0  0  0999 V2000
  191.7120  172.2330  140.8610 C   0  0  1  0  0  0  0  0  0  0  0  0
  194.7580  173.3880  143.2570 S   0  0  0  0  0  0  0  0  0  0  0  0
  191.5380  174.1770  145.4790 C   0  0  0  0  0  3  0  0  0  0  0  0
  190.9170  171.0070  140.3700 C   0  0  1  0  0  3  0  0  0  0  0  0
  188.7880  175.3040  141.2550 C   0  0  0  0  0  3  0  0  0  0  0  0
  194.1510  175.5740  144.6620 C   0  0  0  0  0  3  0  0  0  0  0  0
  188.7110  173.0260  141.8840 O   0  0  0  0  0  1  0  0  0  0  0  0
  188.0660  172.2770  139.1940 O   0  0  0  0  0  1  0  0  0  0  0  0
  192.6770  173.6090  145.0810 C   0  0  0  0  0  3  0  0  0  0  0  0
  188.8370  176.3020  143.4550 N   0  0  0  0  0  2  0  0  0  0  0  0
  193.4920  176.5110  145.5940 C   0  0  0  0  0  3  0  0  0  0  0  0
  190.2710  171.2550  138.9960 C   0  0  2  0  0  3  0  0  0  0  0  0
  192.9660  172.0170  141.7090 C   0  0  1  0  0  3  0  0  0  0  0  0
  195.0610  172.0330  143.8320 O   0  0  0  0  0  0  0  0  0  0  0  0
  189.8040  175.9380  145.6570 C   0  0  0  0  0  2  0  0  0  0  0  0
  192.1890  176.5190  145.8760 C   0  0  0  0  0  3  0  0  0  0  0  0
  193.8900  173.2310  141.7040 C   0  0  0  0  0  2  0  0  0  0  0  0
  189.4200  172.5410  138.9480 C   0  0  2  0  0  3  0  0  0  0  0  0
  189.1190  174.0380  141.0170 C   0  0  0  0  0  0  0  0  0  0  0  0
  191.2160  175.6110  145.2030 C   0  0  1  0  0  3  0  0  0  0  0  0
  191.4360  173.5800  140.1830 C   0  0  0  0  0  2  0  0  0  0  0  0
  193.7810  174.3110  144.3920 C   0  0  0  0  0  0  0  0  0  0  0  0
  187.9760  175.7010  142.4470 C   0  0  1  0  0  3  0  0  0  0  0  0
  196.0570  174.1050  143.0140 O   0  0  0  0  0  0  0  0  0  0  0  0
  189.9540  173.7180  139.8110 C   0  0  1  0  0  3  0  0  0  0  0  0
  189.5290  170.1440  138.5890 O   0  0  0  0  0  1  0  0  0  0  0  0
  191.6430  172.3550  142.3680 C   0  0  0  0  0  2  0  0  0  0  0  0
  188.7850  175.4560  144.6350 C   0  0  0  0  0  2  0  0  0  0  0  0
  186.7850  177.1150  140.7170 C   0  0  0  0  0  3  0  0  0  0  0  0
  186.8910  176.6470  142.0360 C   0  0  0  0  0  0  0  0  0  0  0  0
  185.9290  177.0290  142.9790 C   0  0  0  0  0  3  0  0  0  0  0  0
  183.9340  178.2580  143.5560 O   0  0  0  0  0  1  0  0  0  0  0  0
  184.7900  178.3530  141.3020 C   0  0  0  0  0  3  0  0  0  0  0  0
  184.8840  177.8800  142.6140 C   0  0  0  0  0  0  0  0  0  0  0  0
  185.7400  177.9690  140.3530 C   0  0  0  0  0  3  0  0  0  0  0  0
  190.9790  168.9310  141.3570 C   0  0  0  0  0  1  0  0  0  0  0  0
  191.6320  169.7870  140.4530 O   0  0  0  0  0  0  0  0  0  0  0  0
  1 21  1  6  0  0  0
  1 13  1  0  0  0  0
  1 27  1  0  0  0  0
  2 14  2  0  0  0  0
  2 22  1  0  0  0  0
  4 37  1  6  0  0  0
  4  1  1  0  0  0  0
  5 23  1  0  0  0  0
  6 11  1  0  0  0  0
  9  3  2  0  0  0  0
 10 28  1  0  0  0  0
 11 16  2  0  0  0  0
 12 26  1  1  0  0  0
 12  4  1  0  0  0  0
 13 17  1  6  0  0  0
 13 27  1  0  0  0  0
 17  2  1  0  0  0  0
 18 12  1  0  0  0  0
 18  8  1  1  0  0  0
 18 25  1  0  0  0  0
 19  5  2  0  0  0  0
 19  7  1  0  0  0  0
 20  3  1  1  0  0  0
 20 15  1  0  0  0  0
 20 16  1  0  0  0  0
 22  6  2  0  0  0  0
 22  9  1  0  0  0  0
 23 30  1  6  0  0  0
 23 10  1  0  0  0  0
 24  2  2  0  0  0  0
 25 21  1  1  0  0  0
 25 19  1  0  0  0  0
 28 15  1  0  0  0  0
 29 30  1  0  0  0  0
 30 31  2  0  0  0  0
 33 34  2  0  0  0  0
 34 31  1  0  0  0  0
 34 32  1  0  0  0  0
 35 29  2  0  0  0  0
 35 33  1  0  0  0  0
 37 36  1  0  0  0  0
M  END
>  <MODEL>
3

>  <REMARK>
 VINA RESULT:      -8.1      1.942      2.657
  Name = 
  2 active torsions:
  status: ('A' for Active; 'I' for Inactive)
    1  A    between atoms: C_5  and  O_23
    2  A    between atoms: C_6  and  C_31
                            x       y       z     vdW  Elec       q    Type
                         _______ _______ _______ _____ _____    ______ ____

>  <TORSDO>
F 2

$$$$
=
 OpenBabel11052419563D

 37 41  0  0  1  0  0  0  0  0999 V2000
  189.5330  172.9630  140.7150 C   0  0  1  0  0  0  0  0  0  0  0  0
  187.3370  175.9010  142.4170 S   0  0  0  0  0  0  0  0  0  0  0  0
  191.0820  177.0160  143.2270 C   0  0  0  0  0  3  0  0  0  0  0  0
  190.1060  172.4620  139.3750 C   0  0  1  0  0  3  0  0  0  0  0  0
  192.5730  172.0820  143.5640 C   0  0  0  0  0  3  0  0  0  0  0  0
  188.4050  176.7450  144.7120 C   0  0  0  0  0  3  0  0  0  0  0  0
  192.7310  172.9970  141.3890 O   0  0  0  0  0  1  0  0  0  0  0  0
  192.5590  170.3760  140.2440 O   0  0  0  0  0  1  0  0  0  0  0  0
  189.8550  177.0330  142.7060 C   0  0  0  0  0  3  0  0  0  0  0  0
  193.1880  174.0380  144.8420 N   0  0  0  0  0  2  0  0  0  0  0  0
  189.3370  177.3120  145.7070 C   0  0  0  0  0  3  0  0  0  0  0  0
  190.3480  170.9420  139.3870 C   0  0  2  0  0  3  0  0  0  0  0  0
  188.5610  174.1440  140.7150 C   0  0  1  0  0  3  0  0  0  0  0  0
  187.1520  176.7320  141.1780 O   0  0  0  0  0  0  0  0  0  0  0  0
  192.8670  176.4490  144.8500 C   0  0  0  0  0  2  0  0  0  0  0  0
  190.6660  177.2230  145.6470 C   0  0  0  0  0  3  0  0  0  0  0  0
  187.7240  174.2110  141.9880 C   0  0  0  0  0  2  0  0  0  0  0  0
  191.2030  170.4730  140.5820 C   0  0  2  0  0  3  0  0  0  0  0  0
  192.1370  172.1350  142.3090 C   0  0  0  0  0  0  0  0  0  0  0  0
  191.3720  176.4520  144.5820 C   0  0  1  0  0  3  0  0  0  0  0  0
  189.6610  172.0430  141.9350 C   0  0  0  0  0  2  0  0  0  0  0  0
  188.6300  176.5750  143.3990 C   0  0  0  0  0  0  0  0  0  0  0  0
  193.7040  172.9340  144.0470 C   0  0  1  0  0  3  0  0  0  0  0  0
  186.0520  175.9180  143.1990 O   0  0  0  0  0  0  0  0  0  0  0  0
  190.9820  171.2640  141.9020 C   0  0  1  0  0  3  0  0  0  0  0  0
  190.8990  170.5180  138.1760 O   0  0  0  0  0  1  0  0  0  0  0  0
  190.0290  174.3580  141.0270 C   0  0  0  0  0  2  0  0  0  0  0  0
  193.5360  175.2720  144.1570 C   0  0  0  0  0  2  0  0  0  0  0  0
  195.9480  172.5790  145.1620 C   0  0  0  0  0  3  0  0  0  0  0  0
  194.6670  172.1070  144.8400 C   0  0  0  0  0  0  0  0  0  0  0  0
  194.2550  170.8560  145.3180 C   0  0  0  0  0  3  0  0  0  0  0  0
  194.7060  168.8380  146.5610 O   0  0  0  0  0  1  0  0  0  0  0  0
  196.3990  170.5490  146.4000 C   0  0  0  0  0  3  0  0  0  0  0  0
  195.1190  170.0790  146.0930 C   0  0  0  0  0  0  0  0  0  0  0  0
  196.8140  171.7990  145.9360 C   0  0  0  0  0  3  0  0  0  0  0  0
  190.2390  173.7260  137.4590 C   0  0  0  0  0  1  0  0  0  0  0  0
  189.3940  172.9170  138.2380 O   0  0  0  0  0  0  0  0  0  0  0  0
  1 13  1  0  0  0  0
  1 27  1  1  0  0  0
  1 21  1  0  0  0  0
  2 24  2  0  0  0  0
  2 22  1  0  0  0  0
  4 37  1  6  0  0  0
  4 12  1  0  0  0  0
  4  1  1  0  0  0  0
  5 23  1  0  0  0  0
  6 11  1  0  0  0  0
  7 19  1  0  0  0  0
  9  3  2  0  0  0  0
  9 22  1  0  0  0  0
 12 26  1  6  0  0  0
 12 18  1  0  0  0  0
 13 27  1  1  0  0  0
 13 17  1  0  0  0  0
 14  2  2  0  0  0  0
 16 11  2  0  0  0  0
 17  2  1  0  0  0  0
 18  8  1  6  0  0  0
 18 25  1  0  0  0  0
 19  5  2  0  0  0  0
 20  3  1  6  0  0  0
 20 15  1  0  0  0  0
 20 16  1  0  0  0  0
 22  6  2  0  0  0  0
 23 30  1  1  0  0  0
 23 10  1  0  0  0  0
 25 21  1  6  0  0  0
 25 19  1  0  0  0  0
 28 10  1  0  0  0  0
 28 15  1  0  0  0  0
 29 35  1  0  0  0  0
 30 29  2  0  0  0  0
 30 31  1  0  0  0  0
 31 34  2  0  0  0  0
 34 33  1  0  0  0  0
 34 32  1  0  0  0  0
 35 33  2  0  0  0  0
 36 37  1  0  0  0  0
M  END
>  <MODEL>
4

>  <REMARK>
 VINA RESULT:      -8.1      2.881      7.136
  Name = 
  2 active torsions:
  status: ('A' for Active; 'I' for Inactive)
    1  A    between atoms: C_5  and  O_23
    2  A    between atoms: C_6  and  C_31
                            x       y       z     vdW  Elec       q    Type
                         _______ _______ _______ _____ _____    ______ ____

>  <TORSDO>
F 2

$$$$
=
 OpenBabel11052419563D

 37 41  0  0  1  0  0  0  0  0999 V2000
  191.4990  174.6740  145.6900 C   0  0  1  0  0  0  0  0  0  0  0  0
  191.9190  171.6260  143.0650 S   0  0  0  0  0  0  0  0  0  0  0  0
  190.4030  174.5410  140.8000 C   0  0  0  0  0  3  0  0  0  0  0  0
  192.2620  175.8030  146.4110 C   0  0  1  0  0  3  0  0  0  0  0  0
  187.6920  176.3630  144.8010 C   0  0  0  0  0  3  0  0  0  0  0  0
  189.9210  171.5460  141.2990 C   0  0  0  0  0  3  0  0  0  0  0  0
  189.8620  177.2830  144.5990 O   0  0  0  0  0  1  0  0  0  0  0  0
  189.8810  177.9230  147.3920 O   0  0  0  0  0  1  0  0  0  0  0  0
  191.2680  173.6430  141.2720 C   0  0  0  0  0  3  0  0  0  0  0  0
  187.1520  176.1520  142.4560 N   0  0  0  0  0  2  0  0  0  0  0  0
  188.9760  171.9110  140.2240 C   0  0  0  0  0  3  0  0  0  0  0  0
  191.5790  176.2050  147.7300 C   0  0  2  0  0  3  0  0  0  0  0  0
  192.2850  173.6490  144.8710 C   0  0  1  0  0  3  0  0  0  0  0  0
  193.3680  171.8640  142.7410 O   0  0  0  0  0  0  0  0  0  0  0  0
  188.1910  175.5590  140.3390 C   0  0  0  0  0  2  0  0  0  0  0  0
  188.5470  173.1480  139.9710 C   0  0  0  0  0  3  0  0  0  0  0  0
  191.5000  172.3620  144.6380 C   0  0  0  0  0  2  0  0  0  0  0  0
  190.0840  176.5470  147.5600 C   0  0  2  0  0  3  0  0  0  0  0  0
  188.9360  176.4770  145.2590 C   0  0  0  0  0  0  0  0  0  0  0  0
  188.9240  174.3180  140.8170 C   0  0  1  0  0  3  0  0  0  0  0  0
  190.0520  174.4050  146.1170 C   0  0  0  0  0  2  0  0  0  0  0  0
  190.9060  172.3100  141.8010 C   0  0  0  0  0  0  0  0  0  0  0  0
  187.2310  177.0820  143.5730 C   0  0  1  0  0  3  0  0  0  0  0  0
  191.6860  170.1440  143.1490 O   0  0  0  0  0  0  0  0  0  0  0  0
  189.3330  175.7090  146.4870 C   0  0  1  0  0  3  0  0  0  0  0  0
  192.2670  177.2520  148.3460 O   0  0  0  0  0  1  0  0  0  0  0  0
  191.6080  174.8210  144.1880 C   0  0  0  0  0  2  0  0  0  0  0  0
  188.1030  176.5940  141.4500 C   0  0  0  0  0  2  0  0  0  0  0  0
  185.6390  178.4140  145.0220 C   0  0  0  0  0  3  0  0  0  0  0  0
  185.9050  177.7300  143.8260 C   0  0  0  0  0  0  0  0  0  0  0  0
  184.9320  177.6990  142.8210 C   0  0  0  0  0  3  0  0  0  0  0  0
  182.7360  178.2910  142.0130 O   0  0  0  0  0  1  0  0  0  0  0  0
  183.4340  178.9970  144.2120 C   0  0  0  0  0  3  0  0  0  0  0  0
  183.6990  178.3280  143.0140 C   0  0  0  0  0  0  0  0  0  0  0  0
  184.4040  179.0410  145.2160 C   0  0  0  0  0  3  0  0  0  0  0  0
  194.3540  176.5850  145.8660 C   0  0  0  0  0  1  0  0  0  0  0  0
  193.6530  175.5690  146.5370 O   0  0  0  0  0  0  0  0  0  0  0  0
  1 27  1  6  0  0  0
  1 21  1  0  0  0  0
  1  4  1  0  0  0  0
  2 24  2  0  0  0  0
  2 17  1  0  0  0  0
  3 20  1  0  0  0  0
  3  9  2  0  0  0  0
  4 37  1  1  0  0  0
  4 12  1  0  0  0  0
  5 19  2  0  0  0  0
  6 22  2  0  0  0  0
  7 19  1  0  0  0  0
  9 22  1  0  0  0  0
 10 23  1  0  0  0  0
 11  6  1  0  0  0  0
 12 26  1  6  0  0  0
 13 27  1  6  0  0  0
 13  1  1  0  0  0  0
 14  2  2  0  0  0  0
 15 20  1  0  0  0  0
 15 28  1  0  0  0  0
 16 11  2  0  0  0  0
 17 13  1  0  0  0  0
 18  8  1  6  0  0  0
 18 12  1  0  0  0  0
 19 25  1  0  0  0  0
 20 16  1  6  0  0  0
 22  2  1  0  0  0  0
 23 30  1  1  0  0  0
 23  5  1  0  0  0  0
 25 21  1  6  0  0  0
 25 18  1  0  0  0  0
 28 10  1  0  0  0  0
 29 35  1  0  0  0  0
 30 29  2  0  0  0  0
 31 34  2  0  0  0  0
 31 30  1  0  0  0  0
 32 34  1  0  0  0  0
 33 35  2  0  0  0  0
 34 33  1  0  0  0  0
 36 37  1  0  0  0  0
M  END
>  <MODEL>
5

>  <REMARK>
 VINA RESULT:      -8.0      2.483      5.735
  Name = 
  2 active torsions:
  status: ('A' for Active; 'I' for Inactive)
    1  A    between atoms: C_5  and  O_23
    2  A    between atoms: C_6  and  C_31
                            x       y       z     vdW  Elec       q    Type
                         _______ _______ _______ _____ _____    ______ ____

>  <TORSDO>
F 2

$$$$
=
 OpenBabel11052419563D

 37 41  0  0  1  0  0  0  0  0999 V2000
  193.1510  174.1840  144.4200 C   0  0  1  0  0  0  0  0  0  0  0  0
  192.8990  171.3390  141.5570 S   0  0  0  0  0  0  0  0  0  0  0  0
  190.5140  174.2150  140.1560 C   0  0  0  0  0  3  0  0  0  0  0  0
  194.0250  175.3390  144.9460 C   0  0  1  0  0  3  0  0  0  0  0  0
  189.1530  175.5490  144.9570 C   0  0  0  0  0  3  0  0  0  0  0  0
  190.4410  171.1660  140.5340 C   0  0  0  0  0  3  0  0  0  0  0  0
  191.0620  176.6810  144.1390 O   0  0  0  0  0  1  0  0  0  0  0  0
  191.9560  177.1660  146.8180 O   0  0  0  0  0  1  0  0  0  0  0  0
  191.5490  173.3790  140.2460 C   0  0  0  0  0  3  0  0  0  0  0  0
  187.8850  175.4170  142.9050 N   0  0  0  0  0  2  0  0  0  0  0  0
  189.1710  171.4970  139.8580 C   0  0  0  0  0  3  0  0  0  0  0  0
  193.7890  175.6020  146.4440 C   0  0  2  0  0  3  0  0  0  0  0  0
  193.6940  173.2850  143.3080 C   0  0  1  0  0  3  0  0  0  0  0  0
  194.1380  171.7310  140.8010 O   0  0  0  0  0  0  0  0  0  0  0  0
  188.2080  175.0420  140.5230 C   0  0  0  0  0  2  0  0  0  0  0  0
  188.5940  172.7000  139.8610 C   0  0  0  0  0  3  0  0  0  0  0  0
  192.9710  171.9440  143.2360 C   0  0  0  0  0  2  0  0  0  0  0  0
  192.3010  175.8080  146.7960 C   0  0  2  0  0  3  0  0  0  0  0  0
  190.4670  175.7560  144.9940 C   0  0  0  0  0  0  0  0  0  0  0  0
  189.1440  173.8520  140.6330 C   0  0  1  0  0  3  0  0  0  0  0  0
  191.9490  173.7550  145.2690 C   0  0  0  0  0  2  0  0  0  0  0  0
  191.4790  171.9910  140.7510 C   0  0  0  0  0  0  0  0  0  0  0  0
  188.2620  176.2870  144.0090 C   0  0  1  0  0  3  0  0  0  0  0  0
  192.8140  169.8380  141.5880 O   0  0  0  0  0  0  0  0  0  0  0  0
  191.3010  174.9620  145.9590 C   0  0  1  0  0  3  0  0  0  0  0  0
  194.5650  176.6740  146.8880 O   0  0  0  0  0  1  0  0  0  0  0  0
  192.7470  174.4230  142.9810 C   0  0  0  0  0  2  0  0  0  0  0  0
  188.4170  176.0020  141.6850 C   0  0  0  0  0  2  0  0  0  0  0  0
  186.9090  176.6420  146.1190 C   0  0  0  0  0  3  0  0  0  0  0  0
  187.0510  176.7910  144.7310 C   0  0  0  0  0  0  0  0  0  0  0  0
  186.0660  177.4750  144.0090 C   0  0  0  0  0  3  0  0  0  0  0  0
  183.9680  178.6660  143.9390 O   0  0  0  0  0  1  0  0  0  0  0  0
  184.8010  177.8280  146.0430 C   0  0  0  0  0  3  0  0  0  0  0  0
  184.9430  177.9900  144.6620 C   0  0  0  0  0  0  0  0  0  0  0  0
  185.7840  177.1550  146.7720 C   0  0  0  0  0  3  0  0  0  0  0  0
  195.7540  176.3350  143.8030 C   0  0  0  0  0  1  0  0  0  0  0  0
  195.3940  175.2320  144.5950 O   0  0  0  0  0  0  0  0  0  0  0  0
  1 27  1  6  0  0  0
  1  4  1  0  0  0  0
  1 21  1  0  0  0  0
  2 24  2  0  0  0  0
  2 17  1  0  0  0  0
  3  9  2  0  0  0  0
  3 20  1  0  0  0  0
  4 37  1  1  0  0  0
  4 12  1  0  0  0  0
  5 19  2  0  0  0  0
  6 22  2  0  0  0  0
  7 19  1  0  0  0  0
  9 22  1  0  0  0  0
 10 23  1  0  0  0  0
 11 16  2  0  0  0  0
 11  6  1  0  0  0  0
 12 18  1  0  0  0  0
 12 26  1  6  0  0  0
 13 27  1  6  0  0  0
 13  1  1  0  0  0  0
 14  2  2  0  0  0  0
 15 20  1  0  0  0  0
 15 28  1  0  0  0  0
 17 13  1  0  0  0  0
 18  8  1  6  0  0  0
 19 25  1  0  0  0  0
 20 16  1  6  0  0  0
 22  2  1  0  0  0  0
 23 30  1  1  0  0  0
 23  5  1  0  0  0  0
 25 21  1  6  0  0  0
 25 18  1  0  0  0  0
 28 10  1  0  0  0  0
 29 35  1  0  0  0  0
 30 29  2  0  0  0  0
 31 34  2  0  0  0  0
 31 30  1  0  0  0  0
 32 34  1  0  0  0  0
 33 35  2  0  0  0  0
 34 33  1  0  0  0  0
 36 37  1  0  0  0  0
M  END
>  <MODEL>
6

>  <REMARK>
 VINA RESULT:      -7.9      2.107      5.557
  Name = 
  2 active torsions:
  status: ('A' for Active; 'I' for Inactive)
    1  A    between atoms: C_5  and  O_23
    2  A    between atoms: C_6  and  C_31
                            x       y       z     vdW  Elec       q    Type
                         _______ _______ _______ _____ _____    ______ ____

>  <TORSDO>
F 2

$$$$
=
 OpenBabel11052419563D

 37 41  0  0  1  0  0  0  0  0999 V2000
  189.0270  177.1920  145.1020 C   0  0  1  0  0  0  0  0  0  0  0  0
  187.3580  176.7560  141.4440 S   0  0  0  0  0  0  0  0  0  0  0  0
  188.2760  173.0050  142.4500 C   0  0  0  0  0  3  0  0  0  0  0  0
  188.7040  177.3810  146.5970 C   0  0  1  0  0  3  0  0  0  0  0  0
  192.4250  174.6260  145.0650 C   0  0  0  0  0  3  0  0  0  0  0  0
  188.5680  174.8560  140.0140 C   0  0  0  0  0  3  0  0  0  0  0  0
  190.4430  174.5260  146.3530 O   0  0  0  0  0  1  0  0  0  0  0  0
  191.4980  176.4700  148.1750 O   0  0  0  0  0  1  0  0  0  0  0  0
  187.5440  174.0770  142.1480 C   0  0  0  0  0  3  0  0  0  0  0  0
  192.0620  172.6900  143.6650 N   0  0  0  0  0  2  0  0  0  0  0  0
  189.1000  173.5520  139.5690 C   0  0  0  0  0  3  0  0  0  0  0  0
  189.8540  178.0710  147.3500 C   0  0  2  0  0  3  0  0  0  0  0  0
  187.8910  177.2600  144.0800 C   0  0  1  0  0  3  0  0  0  0  0  0
  185.9250  176.7320  141.8990 O   0  0  0  0  0  0  0  0  0  0  0  0
  190.2740  171.5390  142.4850 C   0  0  0  0  0  2  0  0  0  0  0  0
  189.5440  172.5910  140.3790 C   0  0  0  0  0  3  0  0  0  0  0  0
  188.3920  177.5450  142.6680 C   0  0  0  0  0  2  0  0  0  0  0  0
  191.2170  177.3770  147.1450 C   0  0  2  0  0  3  0  0  0  0  0  0
  191.4480  175.2520  145.7160 C   0  0  0  0  0  0  0  0  0  0  0  0
  189.6280  172.7620  141.8590 C   0  0  1  0  0  3  0  0  0  0  0  0
  190.4910  177.3160  144.6670 C   0  0  0  0  0  2  0  0  0  0  0  0
  187.9200  175.1140  141.1620 C   0  0  0  0  0  0  0  0  0  0  0  0
  192.4920  173.1340  144.9820 C   0  0  1  0  0  3  0  0  0  0  0  0
  187.4390  177.5410  140.1650 O   0  0  0  0  0  0  0  0  0  0  0  0
  191.4350  176.7540  145.7380 C   0  0  1  0  0  3  0  0  0  0  0  0
  189.5530  178.1990  148.7080 O   0  0  0  0  0  1  0  0  0  0  0  0
  188.4040  175.9200  144.5700 C   0  0  0  0  0  2  0  0  0  0  0  0
  190.8690  171.8800  143.8430 C   0  0  0  0  0  2  0  0  0  0  0  0
  194.1910  171.3010  145.3880 C   0  0  0  0  0  3  0  0  0  0  0  0
  193.8840  172.6660  145.2770 C   0  0  0  0  0  0  0  0  0  0  0  0
  194.9090  173.6130  145.3880 C   0  0  0  0  0  3  0  0  0  0  0  0
  197.2360  174.1490  145.7360 O   0  0  0  0  0  1  0  0  0  0  0  0
  196.5230  171.8430  145.7470 C   0  0  0  0  0  3  0  0  0  0  0  0
  196.2240  173.2030  145.6240 C   0  0  0  0  0  0  0  0  0  0  0  0
  195.5070  170.8920  145.6270 C   0  0  0  0  0  3  0  0  0  0  0  0
  186.5930  176.9900  147.4220 C   0  0  0  0  0  1  0  0  0  0  0  0
  187.4330  177.9560  146.8440 O   0  0  0  0  0  0  0  0  0  0  0  0
  1 27  1  1  0  0  0
  1  4  1  0  0  0  0
  2 14  2  0  0  0  0
  2 17  1  0  0  0  0
  4 37  1  6  0  0  0
  4 12  1  0  0  0  0
  5 19  2  0  0  0  0
  6 22  2  0  0  0  0
  9  3  2  0  0  0  0
 10 28  1  0  0  0  0
 10 23  1  0  0  0  0
 11  6  1  0  0  0  0
 11 16  2  0  0  0  0
 12 26  1  1  0  0  0
 13 17  1  6  0  0  0
 13 27  1  0  0  0  0
 13  1  1  0  0  0  0
 15 28  1  0  0  0  0
 18 12  1  0  0  0  0
 18  8  1  1  0  0  0
 19 25  1  0  0  0  0
 19  7  1  0  0  0  0
 20 16  1  6  0  0  0
 20  3  1  0  0  0  0
 20 15  1  0  0  0  0
 21  1  1  0  0  0  0
 22  2  1  0  0  0  0
 22  9  1  0  0  0  0
 23  5  1  0  0  0  0
 23 30  1  6  0  0  0
 24  2  2  0  0  0  0
 25 21  1  6  0  0  0
 25 18  1  0  0  0  0
 29 35  1  0  0  0  0
 30 29  2  0  0  0  0
 30 31  1  0  0  0  0
 31 34  2  0  0  0  0
 34 32  1  0  0  0  0
 34 33  1  0  0  0  0
 35 33  2  0  0  0  0
 37 36  1  0  0  0  0
M  END
>  <MODEL>
7

>  <REMARK>
 VINA RESULT:      -7.7      3.036      8.213
  Name = 
  2 active torsions:
  status: ('A' for Active; 'I' for Inactive)
    1  A    between atoms: C_5  and  O_23
    2  A    between atoms: C_6  and  C_31
                            x       y       z     vdW  Elec       q    Type
                         _______ _______ _______ _____ _____    ______ ____

>  <TORSDO>
F 2

$$$$
=
 OpenBabel11052419563D

 37 41  0  0  1  0  0  0  0  0999 V2000
  189.3290  176.9020  144.8520 C   0  0  1  0  0  0  0  0  0  0  0  0
  187.3850  176.7440  141.3100 S   0  0  0  0  0  0  0  0  0  0  0  0
  188.1190  172.8990  142.0870 C   0  0  0  0  0  3  0  0  0  0  0  0
  189.1230  177.0400  146.3730 C   0  0  1  0  0  3  0  0  0  0  0  0
  192.5370  174.1300  144.4610 C   0  0  0  0  0  3  0  0  0  0  0  0
  188.3630  174.8400  139.7170 C   0  0  0  0  0  3  0  0  0  0  0  0
  190.6480  174.0960  145.8830 O   0  0  0  0  0  1  0  0  0  0  0  0
  191.9540  175.8820  147.7050 O   0  0  0  0  0  1  0  0  0  0  0  0
  187.4400  174.0290  141.8840 C   0  0  0  0  0  3  0  0  0  0  0  0
  191.9500  172.2890  143.0110 N   0  0  0  0  0  2  0  0  0  0  0  0
  188.7750  173.5280  139.1790 C   0  0  0  0  0  3  0  0  0  0  0  0
  190.3670  177.6210  147.0700 C   0  0  2  0  0  3  0  0  0  0  0  0
  188.1310  177.0890  143.9190 C   0  0  1  0  0  3  0  0  0  0  0  0
  185.9890  176.7900  141.8660 O   0  0  0  0  0  0  0  0  0  0  0  0
  190.0120  171.3100  141.9160 C   0  0  0  0  0  2  0  0  0  0  0  0
  189.2090  172.5030  139.9140 C   0  0  0  0  0  3  0  0  0  0  0  0
  188.5510  177.4080  142.4880 C   0  0  0  0  0  2  0  0  0  0  0  0
  191.6630  176.8520  146.7380 C   0  0  2  0  0  3  0  0  0  0  0  0
  191.6520  174.7860  145.2070 C   0  0  0  0  0  0  0  0  0  0  0  0
  189.4070  172.5990  141.3900 C   0  0  1  0  0  3  0  0  0  0  0  0
  190.7650  176.9530  144.3180 C   0  0  0  0  0  2  0  0  0  0  0  0
  187.8150  175.0850  140.9190 C   0  0  0  0  0  0  0  0  0  0  0  0
  192.4990  172.6420  144.3110 C   0  0  1  0  0  3  0  0  0  0  0  0
  187.4290  177.5810  140.0620 O   0  0  0  0  0  0  0  0  0  0  0  0
  191.7410  176.2820  145.2930 C   0  0  1  0  0  3  0  0  0  0  0  0
  190.1700  177.7040  148.4490 O   0  0  0  0  0  1  0  0  0  0  0  0
  188.5870  175.6980  144.3130 C   0  0  0  0  0  2  0  0  0  0  0  0
  190.7210  171.5480  143.2400 C   0  0  0  0  0  2  0  0  0  0  0  0
  194.7910  172.6330  145.3880 C   0  0  0  0  0  3  0  0  0  0  0  0
  193.8740  172.0740  144.4840 C   0  0  0  0  0  0  0  0  0  0  0  0
  194.2290  170.9250  143.7680 C   0  0  0  0  0  3  0  0  0  0  0  0
  195.8380  169.2110  143.2210 O   0  0  0  0  0  1  0  0  0  0  0  0
  196.4050  170.9190  144.8300 C   0  0  0  0  0  3  0  0  0  0  0  0
  195.4910  170.3500  143.9380 C   0  0  0  0  0  0  0  0  0  0  0  0
  196.0550  172.0600  145.5550 C   0  0  0  0  0  3  0  0  0  0  0  0
  187.0260  176.7310  147.2620 C   0  0  0  0  0  1  0  0  0  0  0  0
  187.9140  177.6840  146.7360 O   0  0  0  0  0  0  0  0  0  0  0  0
  1 27  1  1  0  0  0
  1  4  1  0  0  0  0
  2 14  2  0  0  0  0
  2 17  1  0  0  0  0
  4 37  1  6  0  0  0
  4 12  1  0  0  0  0
  5 19  2  0  0  0  0
  6 22  2  0  0  0  0
  9  3  2  0  0  0  0
 10 28  1  0  0  0  0
 10 23  1  0  0  0  0
 11  6  1  0  0  0  0
 11 16  2  0  0  0  0
 12 26  1  1  0  0  0
 13 17  1  6  0  0  0
 13 27  1  0  0  0  0
 13  1  1  0  0  0  0
 15 28  1  0  0  0  0
 18 12  1  0  0  0  0
 18  8  1  1  0  0  0
 19 25  1  0  0  0  0
 19  7  1  0  0  0  0
 20 16  1  6  0  0  0
 20 15  1  0  0  0  0
 20  3  1  0  0  0  0
 21  1  1  0  0  0  0
 22  2  1  0  0  0  0
 22  9  1  0  0  0  0
 23  5  1  0  0  0  0
 23 30  1  6  0  0  0
 24  2  2  0  0  0  0
 25 21  1  6  0  0  0
 25 18  1  0  0  0  0
 29 35  1  0  0  0  0
 30 29  2  0  0  0  0
 31 34  2  0  0  0  0
 31 30  1  0  0  0  0
 32 34  1  0  0  0  0
 33 35  2  0  0  0  0
 34 33  1  0  0  0  0
 37 36  1  0  0  0  0
M  END
>  <MODEL>
8

>  <REMARK>
 VINA RESULT:      -7.0      3.192      8.390
  Name = 
  2 active torsions:
  status: ('A' for Active; 'I' for Inactive)
    1  A    between atoms: C_5  and  O_23
    2  A    between atoms: C_6  and  C_31
                            x       y       z     vdW  Elec       q    Type
                         _______ _______ _______ _____ _____    ______ ____

>  <TORSDO>
F 2

$$$$
=
 OpenBabel11052419563D

 37 41  0  0  1  0  0  0  0  0999 V2000
  194.6920  174.1380  144.1380 C   0  0  1  0  0  0  0  0  0  0  0  0
  194.8730  170.2600  143.0050 S   0  0  0  0  0  0  0  0  0  0  0  0
  192.1290  171.7760  140.5350 C   0  0  0  0  0  3  0  0  0  0  0  0
  195.3910  175.5040  143.9970 C   0  0  1  0  0  3  0  0  0  0  0  0
  190.5370  175.0710  144.1790 C   0  0  0  0  0  3  0  0  0  0  0  0
  192.4750  169.3040  142.3280 C   0  0  0  0  0  3  0  0  0  0  0  0
  192.2800  175.9020  142.8140 O   0  0  0  0  0  1  0  0  0  0  0  0
  193.0650  177.7260  144.8790 O   0  0  0  0  0  1  0  0  0  0  0  0
  193.2690  171.2260  140.9550 C   0  0  0  0  0  3  0  0  0  0  0  0
  189.3250  173.8060  142.5150 N   0  0  0  0  0  2  0  0  0  0  0  0
  191.1790  169.1040  141.6490 C   0  0  0  0  0  3  0  0  0  0  0  0
  195.1020  176.4240  145.1970 C   0  0  2  0  0  3  0  0  0  0  0  0
  195.3680  172.8930  143.5630 C   0  0  1  0  0  3  0  0  0  0  0  0
  196.0550  170.3940  142.0850 O   0  0  0  0  0  0  0  0  0  0  0  0
  189.7260  172.3760  140.5900 C   0  0  0  0  0  2  0  0  0  0  0  0
  190.4420  170.0750  141.1090 C   0  0  0  0  0  3  0  0  0  0  0  0
  194.8390  171.6030  144.1820 C   0  0  0  0  0  2  0  0  0  0  0  0
  193.5960  176.5830  145.4900 C   0  0  2  0  0  3  0  0  0  0  0  0
  191.8090  175.4350  144.0400 C   0  0  0  0  0  0  0  0  0  0  0  0
  190.8170  171.5160  141.2030 C   0  0  1  0  0  3  0  0  0  0  0  0
  193.5510  174.0220  145.1550 C   0  0  0  0  0  2  0  0  0  0  0  0
  193.3860  170.2560  142.0660 C   0  0  0  0  0  0  0  0  0  0  0  0
  189.5640  175.1400  143.0460 C   0  0  1  0  0  3  0  0  0  0  0  0
  194.9960  168.9640  143.7550 O   0  0  0  0  0  0  0  0  0  0  0  0
  192.7330  175.3190  145.2180 C   0  0  1  0  0  3  0  0  0  0  0  0
  195.7170  177.6660  145.0290 O   0  0  0  0  0  1  0  0  0  0  0  0
  194.2770  173.6010  142.7860 C   0  0  0  0  0  2  0  0  0  0  0  0
  189.7850  173.7930  141.1370 C   0  0  0  0  0  2  0  0  0  0  0  0
  187.1650  175.8540  142.6640 C   0  0  0  0  0  3  0  0  0  0  0  0
  188.2860  175.7700  143.5050 C   0  0  0  0  0  0  0  0  0  0  0  0
  188.1920  176.2340  144.8220 C   0  0  0  0  0  3  0  0  0  0  0  0
  186.9150  177.2540  146.5980 O   0  0  0  0  0  1  0  0  0  0  0  0
  185.8910  176.8860  144.4440 C   0  0  0  0  0  3  0  0  0  0  0  0
  186.9990  176.7920  145.2900 C   0  0  0  0  0  0  0  0  0  0  0  0
  185.9730  176.4160  143.1310 C   0  0  0  0  0  3  0  0  0  0  0  0
  196.9770  176.0300  142.4170 C   0  0  0  0  0  1  0  0  0  0  0  0
  196.7650  175.4170  143.6630 O   0  0  0  0  0  0  0  0  0  0  0  0
  1 27  1  6  0  0  0
  1 21  1  0  0  0  0
  2 24  2  0  0  0  0
  2 17  1  0  0  0  0
  3  9  2  0  0  0  0
  4 37  1  1  0  0  0
  4  1  1  0  0  0  0
  4 12  1  0  0  0  0
  7 19  1  0  0  0  0
  9 22  1  0  0  0  0
 10 23  1  0  0  0  0
 11  6  1  0  0  0  0
 12 26  1  6  0  0  0
 12 18  1  0  0  0  0
 13 27  1  6  0  0  0
 13  1  1  0  0  0  0
 13 17  1  0  0  0  0
 14  2  2  0  0  0  0
 15 28  1  0  0  0  0
 15 20  1  0  0  0  0
 16 20  1  0  0  0  0
 16 11  2  0  0  0  0
 18  8  1  6  0  0  0
 19  5  2  0  0  0  0
 19 25  1  0  0  0  0
 20  3  1  6  0  0  0
 22  6  2  0  0  0  0
 22  2  1  0  0  0  0
 23 30  1  1  0  0  0
 23  5  1  0  0  0  0
 25 21  1  6  0  0  0
 25 18  1  0  0  0  0
 28 10  1  0  0  0  0
 29 35  2  0  0  0  0
 29 30  1  0  0  0  0
 30 31  2  0  0  0  0
 31 34  1  0  0  0  0
 33 34  2  0  0  0  0
 34 32  1  0  0  0  0
 35 33  1  0  0  0  0
 36 37  1  0  0  0  0
M  END
>  <MODEL>
9

>  <REMARK>
 VINA RESULT:      -7.0      2.592      5.894
  Name = 
  2 active torsions:
  status: ('A' for Active; 'I' for Inactive)
    1  A    between atoms: C_5  and  O_23
    2  A    between atoms: C_6  and  C_31
                            x       y       z     vdW  Elec       q    Type
                         _______ _______ _______ _____ _____    ______ ____

>  <TORSDO>
F 2

$$$$
