=
 OpenBabel11052418083D

 28 32  0  0  0  0  0  0  0  0999 V2000
  189.0360  173.7190  142.3740 N   0  0  0  0  0  0  0  0  0  0  0  0
  187.1540  176.8080  145.7550 C   0  0  0  0  0  3  0  0  0  0  0  0
  186.8510  177.1950  139.5830 C   0  0  0  0  0  1  0  0  0  0  0  0
  186.0460  178.5700  144.5030 C   0  0  0  0  0  0  0  0  0  0  0  0
  187.1700  176.7570  143.3620 C   0  0  0  0  0  0  0  0  0  0  0  0
  186.0390  178.6030  146.9280 C   0  0  0  0  0  0  0  0  0  0  0  0
  186.8000  177.3660  144.5130 C   0  0  0  0  0  0  0  0  0  0  0  0
  186.0230  178.5850  142.0160 C   0  0  0  0  0  2  0  0  0  0  0  0
  185.6750  179.1740  145.7070 C   0  0  0  0  0  3  0  0  0  0  0  0
  187.9500  175.4470  141.0170 C   0  0  0  0  0  0  0  0  0  0  0  0
  187.8910  175.6000  143.4060 N   0  0  0  0  0  0  0  0  0  0  0  0
  185.6760  179.1520  143.3600 C   0  0  0  0  0  3  0  0  0  0  0  0
  189.0790  173.5810  139.9900 C   0  0  0  0  0  3  0  0  0  0  0  0
  187.2140  176.6380  140.9270 C   0  0  0  0  0  0  0  0  0  0  0  0
  188.3260  174.8080  139.9420 N   0  0  0  0  0  0  0  0  0  0  0  0
  185.6650  179.2110  148.1180 O   0  0  0  0  0  1  0  0  0  0  0  0
  186.7780  177.4200  146.9520 C   0  0  0  0  0  3  0  0  0  0  0  0
  186.8170  177.3030  142.1040 C   0  0  0  0  0  0  0  0  0  0  0  0
  189.4210  173.0520  141.1650 C   0  0  0  0  0  3  0  0  0  0  0  0
  188.2830  174.9410  142.2850 C   0  0  0  0  0  0  0  0  0  0  0  0
  189.3740  173.1210  143.6600 C   0  0  0  0  0  2  0  0  0  0  0  0
  190.4000  173.9440  144.3620 C   0  0  0  0  0  0  0  0  0  0  0  0
  192.3060  175.5170  145.6190 C   0  0  0  0  0  0  0  0  0  0  0  0
  190.1880  174.3690  145.6750 C   0  0  0  0  0  3  0  0  0  0  0  0
  191.5700  174.3280  143.7000 C   0  0  0  0  0  3  0  0  0  0  0  0
  192.4920  175.0980  144.3370 N   0  0  0  0  0  0  0  0  0  0  0  0
  193.3370  176.3570  146.2810 C   0  0  0  0  0  1  0  0  0  0  0  0
  191.1470  175.1590  146.3120 C   0  0  0  0  0  3  0  0  0  0  0  0
  1 21  1  0  0  0  0
  2 17  2  0  0  0  0
  3 14  1  0  0  0  0
  4  7  1  0  0  0  0
  4  9  1  0  0  0  0
  5 11  1  0  0  0  0
  5  7  2  0  0  0  0
  6 17  1  0  0  0  0
  6 16  1  0  0  0  0
  7  2  1  0  0  0  0
  8 18  1  0  0  0  0
  8 12  1  0  0  0  0
  9  6  2  0  0  0  0
 10 20  1  0  0  0  0
 12  4  2  0  0  0  0
 13 19  2  0  0  0  0
 14 10  1  0  0  0  0
 14 18  2  0  0  0  0
 15 13  1  0  0  0  0
 15 10  2  0  0  0  0
 18  5  1  0  0  0  0
 19  1  1  0  0  0  0
 20  1  1  0  0  0  0
 20 11  2  0  0  0  0
 21 22  1  0  0  0  0
 22 24  1  0  0  0  0
 23 27  1  0  0  0  0
 23 28  1  0  0  0  0
 24 28  2  0  0  0  0
 25 26  1  0  0  0  0
 25 22  2  0  0  0  0
 26 23  2  0  0  0  0
M  END
>  <MODEL>
1

>  <REMARK>
 VINA RESULT:      -8.3      0.000      0.000
  Name = 
  2 active torsions:
  status: ('A' for Active; 'I' for Inactive)
    1  A    between atoms: N_1  and  C_2
    2  A    between atoms: C_2  and  C_3
                            x       y       z     vdW  Elec       q    Type
                         _______ _______ _______ _____ _____    ______ ____

>  <TORSDO>
F 2

$$$$
=
 OpenBabel11052418083D

 28 32  0  0  0  0  0  0  0  0999 V2000
  190.1470  176.6690  144.5650 N   0  0  0  0  0  0  0  0  0  0  0  0
  186.0370  177.6250  141.9750 C   0  0  0  0  0  2  0  0  0  0  0  0
  186.9730  178.1800  148.0700 C   0  0  0  0  0  1  0  0  0  0  0  0
  184.3920  178.3820  143.5940 C   0  0  0  0  0  0  0  0  0  0  0  0
  186.6210  177.7550  144.2930 C   0  0  0  0  0  0  0  0  0  0  0  0
  183.8190  178.2460  141.2420 C   0  0  0  0  0  0  0  0  0  0  0  0
  185.7030  177.9160  143.3110 C   0  0  0  0  0  0  0  0  0  0  0  0
  184.9260  178.5410  146.0180 C   0  0  0  0  0  3  0  0  0  0  0  0
  183.4670  178.5420  142.5590 C   0  0  0  0  0  3  0  0  0  0  0  0
  188.5630  177.4180  146.2780 C   0  0  0  0  0  0  0  0  0  0  0  0
  187.8720  177.3080  143.9870 N   0  0  0  0  0  0  0  0  0  0  0  0
  184.0100  178.6780  144.8390 C   0  0  0  0  0  3  0  0  0  0  0  0
  190.8180  176.7910  146.8530 C   0  0  0  0  0  3  0  0  0  0  0  0
  187.2850  177.8750  146.6360 C   0  0  0  0  0  0  0  0  0  0  0  0
  189.4940  177.2540  147.1790 N   0  0  0  0  0  0  0  0  0  0  0  0
  182.8920  178.4080  140.2220 O   0  0  0  0  0  1  0  0  0  0  0  0
  185.1040  177.7880  140.9490 C   0  0  0  0  0  3  0  0  0  0  0  0
  186.3020  178.0480  145.6410 C   0  0  0  0  0  0  0  0  0  0  0  0
  191.1360  176.5090  145.5890 C   0  0  0  0  0  3  0  0  0  0  0  0
  188.8370  177.1350  144.9290 C   0  0  0  0  0  0  0  0  0  0  0  0
  190.5050  176.4000  143.1770 C   0  0  0  0  0  2  0  0  0  0  0  0
  190.4730  174.9340  142.9070 C   0  0  0  0  0  0  0  0  0  0  0  0
  190.4570  172.2000  142.4480 C   0  0  0  0  0  0  0  0  0  0  0  0
  189.2700  174.2270  142.9820 C   0  0  0  0  0  3  0  0  0  0  0  0
  191.6520  174.2460  142.6070 C   0  0  0  0  0  3  0  0  0  0  0  0
  191.6200  172.9040  142.3840 N   0  0  0  0  0  0  0  0  0  0  0  0
  190.4640  170.7350  142.1970 C   0  0  0  0  0  1  0  0  0  0  0  0
  189.2590  172.8510  142.7500 C   0  0  0  0  0  3  0  0  0  0  0  0
  1 20  1  0  0  0  0
  1 19  1  0  0  0  0
  2  7  1  0  0  0  0
  4 12  1  0  0  0  0
  5 18  1  0  0  0  0
  6  9  1  0  0  0  0
  7  4  1  0  0  0  0
  7  5  2  0  0  0  0
  9  4  2  0  0  0  0
 10 14  1  0  0  0  0
 10 15  2  0  0  0  0
 11  5  1  0  0  0  0
 11 20  2  0  0  0  0
 12  8  2  0  0  0  0
 13 15  1  0  0  0  0
 14  3  1  0  0  0  0
 16  6  1  0  0  0  0
 17  6  2  0  0  0  0
 17  2  1  0  0  0  0
 18  8  1  0  0  0  0
 18 14  2  0  0  0  0
 19 13  2  0  0  0  0
 20 10  1  0  0  0  0
 21  1  1  0  0  0  0
 22 24  1  0  0  0  0
 22 21  1  0  0  0  0
 23 28  1  0  0  0  0
 25 22  2  0  0  0  0
 26 23  2  0  0  0  0
 26 25  1  0  0  0  0
 27 23  1  0  0  0  0
 28 24  2  0  0  0  0
M  END
>  <MODEL>
2

>  <REMARK>
 VINA RESULT:      -7.9      2.473      4.940
  Name = 
  2 active torsions:
  status: ('A' for Active; 'I' for Inactive)
    1  A    between atoms: N_1  and  C_2
    2  A    between atoms: C_2  and  C_3
                            x       y       z     vdW  Elec       q    Type
                         _______ _______ _______ _____ _____    ______ ____

>  <TORSDO>
F 2

$$$$
=
 OpenBabel11052418083D

 28 32  0  0  0  0  0  0  0  0999 V2000
  190.7180  173.5030  143.3790 N   0  0  0  0  0  0  0  0  0  0  0  0
  187.9490  176.7030  145.9500 C   0  0  0  0  0  3  0  0  0  0  0  0
  187.7450  175.4200  139.8960 C   0  0  0  0  0  1  0  0  0  0  0  0
  186.4360  177.7160  144.3410 C   0  0  0  0  0  0  0  0  0  0  0  0
  188.0530  176.0560  143.6480 C   0  0  0  0  0  0  0  0  0  0  0  0
  186.3440  178.3570  146.6780 C   0  0  0  0  0  0  0  0  0  0  0  0
  187.4930  176.8090  144.6220 C   0  0  0  0  0  0  0  0  0  0  0  0
  186.4880  177.0940  141.9330 C   0  0  0  0  0  2  0  0  0  0  0  0
  185.8750  178.4780  145.3690 C   0  0  0  0  0  3  0  0  0  0  0  0
  189.2390  174.4640  141.6770 C   0  0  0  0  0  0  0  0  0  0  0  0
  189.0650  175.1930  143.9510 N   0  0  0  0  0  0  0  0  0  0  0  0
  185.9550  177.8640  143.1050 C   0  0  0  0  0  3  0  0  0  0  0  0
  190.8720  172.7850  141.1070 C   0  0  0  0  0  3  0  0  0  0  0  0
  188.2050  175.3420  141.3210 C   0  0  0  0  0  0  0  0  0  0  0  0
  189.8110  173.7020  140.7830 N   0  0  0  0  0  0  0  0  0  0  0  0
  185.7790  179.1190  147.6910 O   0  0  0  0  0  1  0  0  0  0  0  0
  187.3810  177.4700  146.9690 C   0  0  0  0  0  3  0  0  0  0  0  0
  187.6020  176.1470  142.3080 C   0  0  0  0  0  0  0  0  0  0  0  0
  191.3110  172.6860  142.3630 C   0  0  0  0  0  3  0  0  0  0  0  0
  189.6590  174.4060  143.0170 C   0  0  0  0  0  0  0  0  0  0  0  0
  191.1680  173.3660  144.7590 C   0  0  0  0  0  2  0  0  0  0  0  0
  192.1020  174.4740  145.1130 C   0  0  0  0  0  0  0  0  0  0  0  0
  193.8240  176.5610  145.7150 C   0  0  0  0  0  0  0  0  0  0  0  0
  191.9540  175.1660  146.3170 C   0  0  0  0  0  3  0  0  0  0  0  0
  193.1140  174.8530  144.2270 C   0  0  0  0  0  3  0  0  0  0  0  0
  193.9490  175.8790  144.5440 N   0  0  0  0  0  0  0  0  0  0  0  0
  194.7570  177.6770  146.0250 C   0  0  0  0  0  1  0  0  0  0  0  0
  192.8210  176.2170  146.6240 C   0  0  0  0  0  3  0  0  0  0  0  0
  1 21  1  0  0  0  0
  2 17  2  0  0  0  0
  3 14  1  0  0  0  0
  4  7  1  0  0  0  0
  4  9  1  0  0  0  0
  5 11  1  0  0  0  0
  5  7  2  0  0  0  0
  6 17  1  0  0  0  0
  6 16  1  0  0  0  0
  7  2  1  0  0  0  0
  8 18  1  0  0  0  0
  8 12  1  0  0  0  0
  9  6  2  0  0  0  0
 10 20  1  0  0  0  0
 12  4  2  0  0  0  0
 13 19  2  0  0  0  0
 14 10  1  0  0  0  0
 14 18  2  0  0  0  0
 15 13  1  0  0  0  0
 15 10  2  0  0  0  0
 18  5  1  0  0  0  0
 19  1  1  0  0  0  0
 20  1  1  0  0  0  0
 20 11  2  0  0  0  0
 21 22  1  0  0  0  0
 22 24  1  0  0  0  0
 23 27  1  0  0  0  0
 23 28  1  0  0  0  0
 24 28  2  0  0  0  0
 25 26  1  0  0  0  0
 25 22  2  0  0  0  0
 26 23  2  0  0  0  0
M  END
>  <MODEL>
3

>  <REMARK>
 VINA RESULT:      -7.5      1.240      1.620
  Name = 
  2 active torsions:
  status: ('A' for Active; 'I' for Inactive)
    1  A    between atoms: N_1  and  C_2
    2  A    between atoms: C_2  and  C_3
                            x       y       z     vdW  Elec       q    Type
                         _______ _______ _______ _____ _____    ______ ____

>  <TORSDO>
F 2

$$$$
=
 OpenBabel11052418083D

 28 32  0  0  0  0  0  0  0  0999 V2000
  187.7460  176.4510  146.8090 N   0  0  0  0  0  0  0  0  0  0  0  0
  188.7950  174.3170  142.4660 C   0  0  0  0  0  3  0  0  0  0  0  0
  185.5690  179.4910  143.5430 C   0  0  0  0  0  1  0  0  0  0  0  0
  187.7760  175.7250  140.7690 C   0  0  0  0  0  0  0  0  0  0  0  0
  187.5830  176.2760  143.1170 C   0  0  0  0  0  0  0  0  0  0  0  0
  189.0090  173.7380  140.1290 C   0  0  0  0  0  0  0  0  0  0  0  0
  188.0380  175.4580  142.1390 C   0  0  0  0  0  0  0  0  0  0  0  0
  186.5000  177.7740  141.3700 C   0  0  0  0  0  2  0  0  0  0  0  0
  188.2630  174.8640  139.7820 C   0  0  0  0  0  3  0  0  0  0  0  0
  186.6790  177.9370  145.1770 C   0  0  0  0  0  0  0  0  0  0  0  0
  187.8550  175.9920  144.4220 N   0  0  0  0  0  0  0  0  0  0  0  0
  187.0660  176.7910  140.3900 C   0  0  0  0  0  3  0  0  0  0  0  0
  186.5730  178.3980  147.5410 C   0  0  0  0  0  3  0  0  0  0  0  0
  186.3720  178.2620  143.8480 C   0  0  0  0  0  0  0  0  0  0  0  0
  186.2770  178.6930  146.1640 N   0  0  0  0  0  0  0  0  0  0  0  0
  189.4890  172.8910  139.1400 O   0  0  0  0  0  1  0  0  0  0  0  0
  189.2760  173.4640  141.4700 C   0  0  0  0  0  3  0  0  0  0  0  0
  186.8250  177.4300  142.8040 C   0  0  0  0  0  0  0  0  0  0  0  0
  187.2850  177.3150  147.8550 C   0  0  0  0  0  3  0  0  0  0  0  0
  187.4310  176.7800  145.4450 C   0  0  0  0  0  0  0  0  0  0  0  0
  188.5580  175.2890  147.1470 C   0  0  0  0  0  2  0  0  0  0  0  0
  190.0030  175.5800  146.9140 C   0  0  0  0  0  0  0  0  0  0  0  0
  192.6980  176.1120  146.5430 C   0  0  0  0  0  0  0  0  0  0  0  0
  190.7210  174.8690  145.9500 C   0  0  0  0  0  3  0  0  0  0  0  0
  190.6600  176.5450  147.6820 C   0  0  0  0  0  3  0  0  0  0  0  0
  191.9830  176.7910  147.4810 N   0  0  0  0  0  0  0  0  0  0  0  0
  194.1420  176.4100  146.3530 C   0  0  0  0  0  1  0  0  0  0  0  0
  192.0780  175.1360  145.7600 C   0  0  0  0  0  3  0  0  0  0  0  0
  1 21  1  0  0  0  0
  1 19  1  0  0  0  0
  3 14  1  0  0  0  0
  4  7  1  0  0  0  0
  5 11  1  0  0  0  0
  6 17  1  0  0  0  0
  7  2  1  0  0  0  0
  7  5  2  0  0  0  0
  8 18  1  0  0  0  0
  9  6  2  0  0  0  0
  9  4  1  0  0  0  0
 10 20  1  0  0  0  0
 10 15  2  0  0  0  0
 11 20  2  0  0  0  0
 12  4  2  0  0  0  0
 12  8  1  0  0  0  0
 13 19  2  0  0  0  0
 14 10  1  0  0  0  0
 15 13  1  0  0  0  0
 16  6  1  0  0  0  0
 17  2  2  0  0  0  0
 18  5  1  0  0  0  0
 18 14  2  0  0  0  0
 20  1  1  0  0  0  0
 22 21  1  0  0  0  0
 22 25  1  0  0  0  0
 23 26  1  0  0  0  0
 24 22  2  0  0  0  0
 26 25  2  0  0  0  0
 27 23  1  0  0  0  0
 28 24  1  0  0  0  0
 28 23  2  0  0  0  0
M  END
>  <MODEL>
4

>  <REMARK>
 VINA RESULT:      -7.5      2.713      5.282
  Name = 
  2 active torsions:
  status: ('A' for Active; 'I' for Inactive)
    1  A    between atoms: N_1  and  C_2
    2  A    between atoms: C_2  and  C_3
                            x       y       z     vdW  Elec       q    Type
                         _______ _______ _______ _____ _____    ______ ____

>  <TORSDO>
F 2

$$$$
=
 OpenBabel11052418083D

 28 32  0  0  0  0  0  0  0  0999 V2000
  193.7010  176.1540  143.7640 N   0  0  0  0  0  0  0  0  0  0  0  0
  189.1490  177.5820  142.4410 C   0  0  0  0  0  2  0  0  0  0  0  0
  191.3180  176.3760  148.1140 C   0  0  0  0  0  1  0  0  0  0  0  0
  187.8730  177.7310  144.5030 C   0  0  0  0  0  0  0  0  0  0  0  0
  190.1970  177.0600  144.5290 C   0  0  0  0  0  0  0  0  0  0  0  0
  186.8290  178.2590  142.3790 C   0  0  0  0  0  0  0  0  0  0  0  0
  189.0970  177.4470  143.8420 C   0  0  0  0  0  0  0  0  0  0  0  0
  188.8940  177.2020  146.7090 C   0  0  0  0  0  3  0  0  0  0  0  0
  186.7550  178.1330  143.7660 C   0  0  0  0  0  3  0  0  0  0  0  0
  192.5040  176.2710  145.9000 C   0  0  0  0  0  0  0  0  0  0  0  0
  191.3580  176.7980  143.8640 N   0  0  0  0  0  0  0  0  0  0  0  0
  187.7560  177.6250  145.8290 C   0  0  0  0  0  3  0  0  0  0  0  0
  194.8280  175.6380  145.8060 C   0  0  0  0  0  3  0  0  0  0  0  0
  191.3280  176.5260  146.6220 C   0  0  0  0  0  0  0  0  0  0  0  0
  193.6000  175.9050  146.5090 N   0  0  0  0  0  0  0  0  0  0  0  0
  185.7130  178.6580  141.6570 O   0  0  0  0  0  1  0  0  0  0  0  0
  188.0250  177.9840  141.7160 C   0  0  0  0  0  3  0  0  0  0  0  0
  190.1620  176.9250  145.9390 C   0  0  0  0  0  0  0  0  0  0  0  0
  194.8790  175.7590  144.4790 C   0  0  0  0  0  3  0  0  0  0  0  0
  192.4940  176.4140  144.5020 C   0  0  0  0  0  0  0  0  0  0  0  0
  193.7660  176.3270  142.3180 C   0  0  0  0  0  2  0  0  0  0  0  0
  193.7540  175.0010  141.6360 C   0  0  0  0  0  0  0  0  0  0  0  0
  193.7800  172.5180  140.4020 C   0  0  0  0  0  0  0  0  0  0  0  0
  192.5850  174.2390  141.5920 C   0  0  0  0  0  3  0  0  0  0  0  0
  194.9220  174.4930  141.0610 C   0  0  0  0  0  3  0  0  0  0  0  0
  194.9120  173.2730  140.4600 N   0  0  0  0  0  0  0  0  0  0  0  0
  193.8090  171.1900  139.7350 C   0  0  0  0  0  1  0  0  0  0  0  0
  192.5940  172.9890  140.9700 C   0  0  0  0  0  3  0  0  0  0  0  0
  1 19  1  0  0  0  0
  1 20  1  0  0  0  0
  2  7  1  0  0  0  0
  4 12  1  0  0  0  0
  5 18  1  0  0  0  0
  6  9  1  0  0  0  0
  7  4  1  0  0  0  0
  7  5  2  0  0  0  0
  9  4  2  0  0  0  0
 10 15  2  0  0  0  0
 10 14  1  0  0  0  0
 11 20  2  0  0  0  0
 11  5  1  0  0  0  0
 12  8  2  0  0  0  0
 13 15  1  0  0  0  0
 14  3  1  0  0  0  0
 16  6  1  0  0  0  0
 17  6  2  0  0  0  0
 17  2  1  0  0  0  0
 18 14  2  0  0  0  0
 18  8  1  0  0  0  0
 19 13  2  0  0  0  0
 20 10  1  0  0  0  0
 21  1  1  0  0  0  0
 22 21  1  0  0  0  0
 23 26  2  0  0  0  0
 23 28  1  0  0  0  0
 24 22  1  0  0  0  0
 25 22  2  0  0  0  0
 26 25  1  0  0  0  0
 27 23  1  0  0  0  0
 28 24  2  0  0  0  0
M  END
>  <MODEL>
5

>  <REMARK>
 VINA RESULT:      -7.3      2.859      5.710
  Name = 
  2 active torsions:
  status: ('A' for Active; 'I' for Inactive)
    1  A    between atoms: N_1  and  C_2
    2  A    between atoms: C_2  and  C_3
                            x       y       z     vdW  Elec       q    Type
                         _______ _______ _______ _____ _____    ______ ____

>  <TORSDO>
F 2

$$$$
=
 OpenBabel11052418083D

 28 32  0  0  0  0  0  0  0  0999 V2000
  187.5760  176.5060  142.4930 N   0  0  0  0  0  0  0  0  0  0  0  0
  192.2250  175.7980  144.0440 C   0  0  0  0  0  2  0  0  0  0  0  0
  187.3090  177.6640  147.3140 C   0  0  0  0  0  1  0  0  0  0  0  0
  192.2250  176.3360  146.4130 C   0  0  0  0  0  0  0  0  0  0  0  0
  190.1990  176.5090  145.1030 C   0  0  0  0  0  0  0  0  0  0  0  0
  194.2670  175.6120  145.3240 C   0  0  0  0  0  0  0  0  0  0  0  0
  191.5200  176.2230  145.1860 C   0  0  0  0  0  0  0  0  0  0  0  0
  190.1600  177.0830  147.5800 C   0  0  0  0  0  3  0  0  0  0  0  0
  193.5880  176.0300  146.4680 C   0  0  0  0  0  3  0  0  0  0  0  0
  187.4690  177.0730  144.8750 C   0  0  0  0  0  0  0  0  0  0  0  0
  189.5510  176.3880  143.9100 N   0  0  0  0  0  0  0  0  0  0  0  0
  191.6170  176.7310  147.5330 C   0  0  0  0  0  3  0  0  0  0  0  0
  185.5090  177.1850  143.4770 C   0  0  0  0  0  3  0  0  0  0  0  0
  188.0990  177.2150  146.1210 C   0  0  0  0  0  0  0  0  0  0  0  0
  186.1950  177.3230  144.7350 N   0  0  0  0  0  0  0  0  0  0  0  0
  195.6200  175.3100  145.3900 O   0  0  0  0  0  1  0  0  0  0  0  0
  193.5870  175.4960  144.1110 C   0  0  0  0  0  3  0  0  0  0  0  0
  189.4750  176.9330  146.2430 C   0  0  0  0  0  0  0  0  0  0  0  0
  186.1750  176.7880  142.3920 C   0  0  0  0  0  3  0  0  0  0  0  0
  188.2260  176.6530  143.7680 C   0  0  0  0  0  0  0  0  0  0  0  0
  188.2970  176.0330  141.3180 C   0  0  0  0  0  2  0  0  0  0  0  0
  188.8500  174.6690  141.5620 C   0  0  0  0  0  0  0  0  0  0  0  0
  189.8330  172.1100  141.9780 C   0  0  0  0  0  0  0  0  0  0  0  0
  190.2020  174.4030  141.3360 C   0  0  0  0  0  3  0  0  0  0  0  0
  188.0130  173.6350  141.9890 C   0  0  0  0  0  3  0  0  0  0  0  0
  188.5170  172.3870  142.1880 N   0  0  0  0  0  0  0  0  0  0  0  0
  190.3460  170.7340  142.2080 C   0  0  0  0  0  1  0  0  0  0  0  0
  190.7010  173.1160  141.5460 C   0  0  0  0  0  3  0  0  0  0  0  0
  1 20  1  0  0  0  0
  2 17  1  0  0  0  0
  2  7  1  0  0  0  0
  4  9  2  0  0  0  0
  4 12  1  0  0  0  0
  5  7  2  0  0  0  0
  5 18  1  0  0  0  0
  6 16  1  0  0  0  0
  6  9  1  0  0  0  0
  7  4  1  0  0  0  0
 10 14  1  0  0  0  0
 11  5  1  0  0  0  0
 12  8  2  0  0  0  0
 13 15  1  0  0  0  0
 14 18  2  0  0  0  0
 14  3  1  0  0  0  0
 15 10  2  0  0  0  0
 17  6  2  0  0  0  0
 18  8  1  0  0  0  0
 19  1  1  0  0  0  0
 19 13  2  0  0  0  0
 20 11  2  0  0  0  0
 20 10  1  0  0  0  0
 21 22  1  0  0  0  0
 21  1  1  0  0  0  0
 22 25  1  0  0  0  0
 23 26  1  0  0  0  0
 23 27  1  0  0  0  0
 24 28  1  0  0  0  0
 24 22  2  0  0  0  0
 25 26  2  0  0  0  0
 28 23  2  0  0  0  0
M  END
>  <MODEL>
6

>  <REMARK>
 VINA RESULT:      -7.3      2.729      5.989
  Name = 
  2 active torsions:
  status: ('A' for Active; 'I' for Inactive)
    1  A    between atoms: N_1  and  C_2
    2  A    between atoms: C_2  and  C_3
                            x       y       z     vdW  Elec       q    Type
                         _______ _______ _______ _____ _____    ______ ____

>  <TORSDO>
F 2

$$$$
=
 OpenBabel11052418083D

 28 32  0  0  0  0  0  0  0  0999 V2000
  191.5500  174.7360  143.2140 N   0  0  0  0  0  0  0  0  0  0  0  0
  187.0040  176.6590  142.8370 C   0  0  0  0  0  2  0  0  0  0  0  0
  190.8090  176.6810  147.7210 C   0  0  0  0  0  1  0  0  0  0  0  0
  186.5210  177.6530  145.0000 C   0  0  0  0  0  0  0  0  0  0  0  0
  188.6290  176.5410  144.5900 C   0  0  0  0  0  0  0  0  0  0  0  0
  184.8870  177.7650  143.2110 C   0  0  0  0  0  0  0  0  0  0  0  0
  187.4110  176.9410  144.1540 C   0  0  0  0  0  0  0  0  0  0  0  0
  188.1590  177.5680  146.8690 C   0  0  0  0  0  3  0  0  0  0  0  0
  185.2710  178.0560  144.5200 C   0  0  0  0  0  3  0  0  0  0  0  0
  191.1620  175.7040  145.4320 C   0  0  0  0  0  0  0  0  0  0  0  0
  189.4620  175.8620  143.7520 N   0  0  0  0  0  0  0  0  0  0  0  0
  186.8450  177.9540  146.2590 C   0  0  0  0  0  3  0  0  0  0  0  0
  193.2350  174.5940  144.9010 C   0  0  0  0  0  3  0  0  0  0  0  0
  190.3330  176.3960  146.3280 C   0  0  0  0  0  0  0  0  0  0  0  0
  192.3520  175.3030  145.7900 N   0  0  0  0  0  0  0  0  0  0  0  0
  183.6440  178.1700  142.7460 O   0  0  0  0  0  1  0  0  0  0  0  0
  185.7530  177.0670  142.3690 C   0  0  0  0  0  3  0  0  0  0  0  0
  189.0560  176.8210  145.9110 C   0  0  0  0  0  0  0  0  0  0  0  0
  192.8490  174.3200  143.6540 C   0  0  0  0  0  3  0  0  0  0  0  0
  190.6980  175.4430  144.1310 C   0  0  0  0  0  0  0  0  0  0  0  0
  191.1440  174.4740  141.8390 C   0  0  0  0  0  2  0  0  0  0  0  0
  191.0980  173.0050  141.5810 C   0  0  0  0  0  0  0  0  0  0  0  0
  190.9520  170.2790  141.0980 C   0  0  0  0  0  0  0  0  0  0  0  0
  191.8710  172.4410  140.5640 C   0  0  0  0  0  3  0  0  0  0  0  0
  190.2560  172.1830  142.3350 C   0  0  0  0  0  3  0  0  0  0  0  0
  190.2010  170.8480  142.0810 N   0  0  0  0  0  0  0  0  0  0  0  0
  190.8640  168.8160  140.8520 C   0  0  0  0  0  1  0  0  0  0  0  0
  191.8010  171.0680  140.3200 C   0  0  0  0  0  3  0  0  0  0  0  0
  1 19  1  0  0  0  0
  1 20  1  0  0  0  0
  2  7  1  0  0  0  0
  4 12  1  0  0  0  0
  5 18  1  0  0  0  0
  6  9  1  0  0  0  0
  7  5  2  0  0  0  0
  7  4  1  0  0  0  0
  9  4  2  0  0  0  0
 10 15  2  0  0  0  0
 10 14  1  0  0  0  0
 11 20  2  0  0  0  0
 11  5  1  0  0  0  0
 12  8  2  0  0  0  0
 13 15  1  0  0  0  0
 14  3  1  0  0  0  0
 16  6  1  0  0  0  0
 17  2  1  0  0  0  0
 17  6  2  0  0  0  0
 18 14  2  0  0  0  0
 18  8  1  0  0  0  0
 19 13  2  0  0  0  0
 20 10  1  0  0  0  0
 21  1  1  0  0  0  0
 22 21  1  0  0  0  0
 22 25  1  0  0  0  0
 23 26  1  0  0  0  0
 24 22  2  0  0  0  0
 26 25  2  0  0  0  0
 27 23  1  0  0  0  0
 28 24  1  0  0  0  0
 28 23  2  0  0  0  0
M  END
>  <MODEL>
7

>  <REMARK>
 VINA RESULT:      -7.2      2.214      5.053
  Name = 
  2 active torsions:
  status: ('A' for Active; 'I' for Inactive)
    1  A    between atoms: N_1  and  C_2
    2  A    between atoms: C_2  and  C_3
                            x       y       z     vdW  Elec       q    Type
                         _______ _______ _______ _____ _____    ______ ____

>  <TORSDO>
F 2

$$$$
=
 OpenBabel11052418083D

 28 32  0  0  0  0  0  0  0  0999 V2000
  191.2150  176.3840  145.6500 N   0  0  0  0  0  0  0  0  0  0  0  0
  187.9140  177.0130  142.0130 C   0  0  0  0  0  2  0  0  0  0  0  0
  187.3280  178.3520  148.0300 C   0  0  0  0  0  1  0  0  0  0  0  0
  185.9480  177.9820  143.0600 C   0  0  0  0  0  0  0  0  0  0  0  0
  187.9090  177.4410  144.3690 C   0  0  0  0  0  0  0  0  0  0  0  0
  185.9720  177.5440  140.6750 C   0  0  0  0  0  0  0  0  0  0  0  0
  187.2700  177.4770  143.1760 C   0  0  0  0  0  0  0  0  0  0  0  0
  185.8690  178.4520  145.5010 C   0  0  0  0  0  3  0  0  0  0  0  0
  185.3150  178.0100  141.8140 C   0  0  0  0  0  3  0  0  0  0  0  0
  189.2830  177.3560  146.8030 C   0  0  0  0  0  0  0  0  0  0  0  0
  189.1790  176.9520  144.4450 N   0  0  0  0  0  0  0  0  0  0  0  0
  185.2800  178.4390  144.1220 C   0  0  0  0  0  3  0  0  0  0  0  0
  191.3010  176.8000  148.0000 C   0  0  0  0  0  3  0  0  0  0  0  0
  187.9750  177.8620  146.7690 C   0  0  0  0  0  0  0  0  0  0  0  0
  189.9550  177.3070  147.9220 N   0  0  0  0  0  0  0  0  0  0  0  0
  185.3340  177.5770  139.4430 O   0  0  0  0  0  1  0  0  0  0  0  0
  187.2720  177.0460  140.7740 C   0  0  0  0  0  3  0  0  0  0  0  0
  187.2770  177.9090  145.5460 C   0  0  0  0  0  0  0  0  0  0  0  0
  191.9120  176.3540  146.9010 C   0  0  0  0  0  3  0  0  0  0  0  0
  189.8730  176.9000  145.6120 C   0  0  0  0  0  0  0  0  0  0  0  0
  191.8960  175.9360  144.4410 C   0  0  0  0  0  2  0  0  0  0  0  0
  193.2280  175.3560  144.7810 C   0  0  0  0  0  0  0  0  0  0  0  0
  195.7120  174.3250  145.4530 C   0  0  0  0  0  0  0  0  0  0  0  0
  193.3410  174.0150  145.1540 C   0  0  0  0  0  3  0  0  0  0  0  0
  194.3720  176.1580  144.7600 C   0  0  0  0  0  3  0  0  0  0  0  0
  195.5810  175.6300  145.0920 N   0  0  0  0  0  0  0  0  0  0  0  0
  197.0500  173.7850  145.8090 C   0  0  0  0  0  1  0  0  0  0  0  0
  194.5910  173.4920  145.4920 C   0  0  0  0  0  3  0  0  0  0  0  0
  1 19  1  0  0  0  0
  2  7  1  0  0  0  0
  4  7  1  0  0  0  0
  4 12  1  0  0  0  0
  5 11  1  0  0  0  0
  5 18  1  0  0  0  0
  6 17  2  0  0  0  0
  6  9  1  0  0  0  0
  7  5  2  0  0  0  0
  8 18  1  0  0  0  0
  9  4  2  0  0  0  0
 10 15  2  0  0  0  0
 11 20  2  0  0  0  0
 12  8  2  0  0  0  0
 14 10  1  0  0  0  0
 14  3  1  0  0  0  0
 15 13  1  0  0  0  0
 16  6  1  0  0  0  0
 17  2  1  0  0  0  0
 18 14  2  0  0  0  0
 19 13  2  0  0  0  0
 20  1  1  0  0  0  0
 20 10  1  0  0  0  0
 21 22  1  0  0  0  0
 21  1  1  0  0  0  0
 22 24  1  0  0  0  0
 23 28  1  0  0  0  0
 23 27  1  0  0  0  0
 24 28  2  0  0  0  0
 25 22  2  0  0  0  0
 25 26  1  0  0  0  0
 26 23  2  0  0  0  0
M  END
>  <MODEL>
8

>  <REMARK>
 VINA RESULT:      -7.1      2.808      5.079
  Name = 
  2 active torsions:
  status: ('A' for Active; 'I' for Inactive)
    1  A    between atoms: N_1  and  C_2
    2  A    between atoms: C_2  and  C_3
                            x       y       z     vdW  Elec       q    Type
                         _______ _______ _______ _____ _____    ______ ____

>  <TORSDO>
F 2

$$$$
=
 OpenBabel11052418083D

 28 32  0  0  0  0  0  0  0  0999 V2000
  189.9760  175.8740  146.6260 N   0  0  0  0  0  0  0  0  0  0  0  0
  188.8570  173.8160  142.2640 C   0  0  0  0  0  3  0  0  0  0  0  0
  194.3170  175.9860  144.2180 C   0  0  0  0  0  1  0  0  0  0  0  0
  190.9200  173.8110  140.9820 C   0  0  0  0  0  0  0  0  0  0  0  0
  190.8560  174.7180  143.2240 C   0  0  0  0  0  0  0  0  0  0  0  0
  188.8860  172.8990  140.0280 C   0  0  0  0  0  0  0  0  0  0  0  0
  190.2260  174.1300  142.1790 C   0  0  0  0  0  0  0  0  0  0  0  0
  193.0350  174.7330  141.9120 C   0  0  0  0  0  2  0  0  0  0  0  0
  190.2440  173.2010  139.9220 C   0  0  0  0  0  3  0  0  0  0  0  0
  192.1080  175.9190  145.4170 C   0  0  0  0  0  0  0  0  0  0  0  0
  190.1620  175.0090  144.3600 N   0  0  0  0  0  0  0  0  0  0  0  0
  192.2190  174.0800  140.8360 C   0  0  0  0  0  3  0  0  0  0  0  0
  191.9300  176.7720  147.6650 C   0  0  0  0  0  3  0  0  0  0  0  0
  192.8580  175.6410  144.2650 C   0  0  0  0  0  0  0  0  0  0  0  0
  192.6630  176.4740  146.4620 N   0  0  0  0  0  0  0  0  0  0  0  0
  188.2240  172.2930  138.9690 O   0  0  0  0  0  1  0  0  0  0  0  0
  188.1920  173.2060  141.1990 C   0  0  0  0  0  3  0  0  0  0  0  0
  192.2340  175.0360  143.1560 C   0  0  0  0  0  0  0  0  0  0  0  0
  190.6320  176.4810  147.7470 C   0  0  0  0  0  3  0  0  0  0  0  0
  190.7420  175.5900  145.4430 C   0  0  0  0  0  0  0  0  0  0  0  0
  188.5670  175.5180  146.7290 C   0  0  0  0  0  2  0  0  0  0  0  0
  187.7140  176.6060  146.1680 C   0  0  0  0  0  0  0  0  0  0  0  0
  186.1620  178.6700  145.1590 C   0  0  0  0  0  0  0  0  0  0  0  0
  187.5470  176.7340  144.7880 C   0  0  0  0  0  3  0  0  0  0  0  0
  187.0980  177.5280  147.0190 C   0  0  0  0  0  3  0  0  0  0  0  0
  186.3410  178.5320  146.5010 N   0  0  0  0  0  0  0  0  0  0  0  0
  185.3260  179.7800  144.6320 C   0  0  0  0  0  1  0  0  0  0  0  0
  186.7650  177.7710  144.2760 C   0  0  0  0  0  3  0  0  0  0  0  0
  1 21  1  0  0  0  0
  1 19  1  0  0  0  0
  3 14  1  0  0  0  0
  4  7  1  0  0  0  0
  5 11  1  0  0  0  0
  6 17  1  0  0  0  0
  7  2  1  0  0  0  0
  7  5  2  0  0  0  0
  8 18  1  0  0  0  0
  9  6  2  0  0  0  0
  9  4  1  0  0  0  0
 10 20  1  0  0  0  0
 10 15  2  0  0  0  0
 11 20  2  0  0  0  0
 12  4  2  0  0  0  0
 12  8  1  0  0  0  0
 13 19  2  0  0  0  0
 14 10  1  0  0  0  0
 15 13  1  0  0  0  0
 16  6  1  0  0  0  0
 17  2  2  0  0  0  0
 18  5  1  0  0  0  0
 18 14  2  0  0  0  0
 20  1  1  0  0  0  0
 22 21  1  0  0  0  0
 22 25  1  0  0  0  0
 23 26  1  0  0  0  0
 24 22  2  0  0  0  0
 26 25  2  0  0  0  0
 27 23  1  0  0  0  0
 28 24  1  0  0  0  0
 28 23  2  0  0  0  0
M  END
>  <MODEL>
9

>  <REMARK>
 VINA RESULT:      -7.1      3.002      7.007
  Name = 
  2 active torsions:
  status: ('A' for Active; 'I' for Inactive)
    1  A    between atoms: N_1  and  C_2
    2  A    between atoms: C_2  and  C_3
                            x       y       z     vdW  Elec       q    Type
                         _______ _______ _______ _____ _____    ______ ____

>  <TORSDO>
F 2

$$$$
