=
 OpenBabel11052417273D

 25 28  0  0  1  0  0  0  0  0999 V2000
  186.9860  176.8450  143.3460 N   0  0  0  0  0  0  0  0  0  0  0  0
  188.3980  176.4670  143.3610 C   0  0  1  0  0  3  0  0  0  0  0  0
  186.8400  176.6210  140.9670 C   0  0  0  0  0  3  0  0  0  0  0  0
  186.3340  177.7040  144.3220 C   0  0  1  0  0  3  0  0  0  0  0  0
  184.3110  179.0180  145.7360 C   0  0  0  0  0  2  0  0  0  0  0  0
  188.0470  175.8390  141.0070 N   0  0  0  0  0  0  0  0  0  0  0  0
  185.1930  178.3020  143.5450 C   0  0  0  0  0  0  0  0  0  0  0  0
  184.0810  179.0330  144.2220 C   0  0  0  0  0  2  0  0  0  0  0  0
  189.9310  174.8210  142.1310 C   0  0  0  0  0  0  0  0  0  0  0  0
  190.5470  174.3820  140.9250 N   0  0  0  0  0  1  0  0  0  0  0  0
  188.7600  175.6860  144.5970 C   0  0  0  0  0  3  0  0  0  0  0  0
  184.6210  177.6000  146.2450 C   0  0  0  0  0  2  0  0  0  0  0  0
  186.3400  177.0890  142.1080 C   0  0  0  0  0  0  0  0  0  0  0  0
  185.1880  177.9540  142.2620 C   0  0  0  0  0  3  0  0  0  0  0  0
  190.3820  174.3800  143.3080 C   0  0  0  0  0  3  0  0  0  0  0  0
  185.7710  176.8920  145.4930 C   0  0  0  0  0  2  0  0  0  0  0  0
  189.7250  174.7570  144.5880 C   0  0  0  0  0  0  0  0  0  0  0  0
  188.7540  175.7040  142.0970 C   0  0  0  0  0  0  0  0  0  0  0  0
  190.0530  174.1400  145.8050 O   0  0  0  0  0  0  0  0  0  0  0  0
  189.8960  174.6990  147.0820 C   0  0  0  0  0  0  0  0  0  0  0  0
  188.8640  174.4810  147.7720 O   0  0  0  0  0  0  0  0  0  0  0  0
  191.4060  174.9580  148.8740 F   0  0  0  0  0  0  0  0  0  0  0  0
  191.0100  175.5050  147.6670 C   0  0  0  0  0  0  0  0  0  0  0  0
  190.5760  176.8010  147.8770 F   0  0  0  0  0  0  0  0  0  0  0  0
  192.0900  175.5190  146.8030 F   0  0  0  0  0  0  0  0  0  0  0  0
  1  2  1  0  0  0  0
  1  4  1  0  0  0  0
  2 11  1  1  0  0  0
  3  6  1  0  0  0  0
  3 13  2  0  0  0  0
  4 16  1  1  0  0  0
  5 12  1  0  0  0  0
  6 18  2  0  0  0  0
  7  8  1  0  0  0  0
  7  4  1  0  0  0  0
  8  5  1  0  0  0  0
  9 15  2  0  0  0  0
 10  9  1  0  0  0  0
 13 14  1  0  0  0  0
 13  1  1  0  0  0  0
 14  7  2  0  0  0  0
 15 17  1  0  0  0  0
 16 12  1  0  0  0  0
 17 11  2  0  0  0  0
 17 19  1  0  0  0  0
 18  9  1  0  0  0  0
 18  2  1  0  0  0  0
 19 20  1  0  0  0  0
 20 23  1  0  0  0  0
 20 21  2  0  0  0  0
 23 24  1  0  0  0  0
 23 22  1  0  0  0  0
 25 23  1  0  0  0  0
M  END
>  <MODEL>
1

>  <REMARK>
 VINA RESULT:      -7.6      0.000      0.000
  Name = 
  3 active torsions:
  status: ('A' for Active; 'I' for Inactive)
    1  A    between atoms: O_6  and  C_15
    2  A    between atoms: O_6  and  C_23
    3  A    between atoms: C_7  and  C_15
                            x       y       z     vdW  Elec       q    Type
                         _______ _______ _______ _____ _____    ______ ____

>  <TORSDO>
F 3

$$$$
=
 OpenBabel11052417273D

 25 28  0  0  1  0  0  0  0  0999 V2000
  187.5280  176.7530  144.5190 N   0  0  0  0  0  0  0  0  0  0  0  0
  188.9270  176.6350  144.1140 C   0  0  1  0  0  3  0  0  0  0  0  0
  186.7370  175.9230  142.4180 C   0  0  0  0  0  3  0  0  0  0  0  0
  187.0100  177.7060  145.4900 C   0  0  1  0  0  3  0  0  0  0  0  0
  185.2470  178.9690  147.2540 C   0  0  0  0  0  2  0  0  0  0  0  0
  188.0520  175.3900  142.1790 N   0  0  0  0  0  0  0  0  0  0  0  0
  185.5800  177.8900  145.0600 C   0  0  0  0  0  0  0  0  0  0  0  0
  184.5790  178.5680  145.9360 C   0  0  0  0  0  2  0  0  0  0  0  0
  190.3720  175.0180  142.7480 C   0  0  0  0  0  0  0  0  0  0  0  0
  190.6870  174.4030  141.5030 N   0  0  0  0  0  1  0  0  0  0  0  0
  189.8190  176.2590  145.2680 C   0  0  0  0  0  3  0  0  0  0  0  0
  186.0270  177.7960  147.8700 C   0  0  0  0  0  2  0  0  0  0  0  0
  186.5020  176.5690  143.5570 C   0  0  0  0  0  0  0  0  0  0  0  0
  185.2760  177.2380  143.9420 C   0  0  0  0  0  3  0  0  0  0  0  0
  191.2470  174.9660  143.7560 C   0  0  0  0  0  3  0  0  0  0  0  0
  187.0360  177.1270  146.9080 C   0  0  0  0  0  2  0  0  0  0  0  0
  190.9320  175.5330  145.0940 C   0  0  0  0  0  0  0  0  0  0  0  0
  189.0630  175.6530  142.9630 C   0  0  0  0  0  0  0  0  0  0  0  0
  191.7470  175.3040  146.2120 O   0  0  0  0  0  0  0  0  0  0  0  0
  192.4850  176.2720  146.9090 C   0  0  0  0  0  0  0  0  0  0  0  0
  192.0180  176.8430  147.9320 O   0  0  0  0  0  0  0  0  0  0  0  0
  194.6830  175.4630  146.6450 F   0  0  0  0  0  0  0  0  0  0  0  0
  193.8820  176.5770  146.4750 C   0  0  0  0  0  0  0  0  0  0  0  0
  194.3820  177.6170  147.2350 F   0  0  0  0  0  0  0  0  0  0  0  0
  193.8940  176.9390  145.1390 F   0  0  0  0  0  0  0  0  0  0  0  0
  1  4  1  0  0  0  0
  2  1  1  0  0  0  0
  2 11  1  1  0  0  0
  3 13  2  0  0  0  0
  4 16  1  1  0  0  0
  5 12  1  0  0  0  0
  6  3  1  0  0  0  0
  6 18  2  0  0  0  0
  7  4  1  0  0  0  0
  7  8  1  0  0  0  0
  8  5  1  0  0  0  0
  9 18  1  0  0  0  0
  9 15  2  0  0  0  0
 10  9  1  0  0  0  0
 13 14  1  0  0  0  0
 13  1  1  0  0  0  0
 14  7  2  0  0  0  0
 15 17  1  0  0  0  0
 16 12  1  0  0  0  0
 17 11  2  0  0  0  0
 17 19  1  0  0  0  0
 18  2  1  0  0  0  0
 19 20  1  0  0  0  0
 20 21  2  0  0  0  0
 23 22  1  0  0  0  0
 23 20  1  0  0  0  0
 23 24  1  0  0  0  0
 25 23  1  0  0  0  0
M  END
>  <MODEL>
2

>  <REMARK>
 VINA RESULT:      -7.5      1.895      2.179
  Name = 
  3 active torsions:
  status: ('A' for Active; 'I' for Inactive)
    1  A    between atoms: O_6  and  C_15
    2  A    between atoms: O_6  and  C_23
    3  A    between atoms: C_7  and  C_15
                            x       y       z     vdW  Elec       q    Type
                         _______ _______ _______ _____ _____    ______ ____

>  <TORSDO>
F 3

$$$$
=
 OpenBabel11052417273D

 25 28  0  0  1  0  0  0  0  0999 V2000
  187.6940  176.2910  142.8030 N   0  0  0  0  0  0  0  0  0  0  0  0
  188.4500  176.4300  144.0460 C   0  0  1  0  0  3  0  0  0  0  0  0
  189.2050  174.6480  141.9390 C   0  0  0  0  0  3  0  0  0  0  0  0
  186.8750  177.3290  142.1950 C   0  0  1  0  0  3  0  0  0  0  0  0
  185.0330  178.5710  140.4990 C   0  0  0  0  0  2  0  0  0  0  0  0
  189.6820  174.4410  143.2810 N   0  0  0  0  0  0  0  0  0  0  0  0
  186.8990  176.9730  140.7340 C   0  0  0  0  0  0  0  0  0  0  0  0
  185.9590  177.6020  139.7590 C   0  0  0  0  0  2  0  0  0  0  0  0
  189.7470  174.9090  145.6520 C   0  0  0  0  0  0  0  0  0  0  0  0
  190.8420  174.0350  145.9020 N   0  0  0  0  0  1  0  0  0  0  0  0
  187.5530  176.7000  145.2250 C   0  0  0  0  0  3  0  0  0  0  0  0
  184.4070  177.9150  141.7410 C   0  0  0  0  0  2  0  0  0  0  0  0
  188.2390  175.5380  141.7320 C   0  0  0  0  0  0  0  0  0  0  0  0
  187.6850  175.9390  140.4540 C   0  0  0  0  0  3  0  0  0  0  0  0
  189.0580  175.4230  146.6750 C   0  0  0  0  0  3  0  0  0  0  0  0
  185.4310  177.2690  142.7030 C   0  0  0  0  0  2  0  0  0  0  0  0
  187.8650  176.2850  146.4600 C   0  0  0  0  0  0  0  0  0  0  0  0
  189.3170  175.2040  144.2760 C   0  0  0  0  0  0  0  0  0  0  0  0
  187.0140  176.6560  147.5110 O   0  0  0  0  0  0  0  0  0  0  0  0
  186.3200  177.8710  147.6230 C   0  0  0  0  0  0  0  0  0  0  0  0
  186.8260  178.8640  148.2120 O   0  0  0  0  0  0  0  0  0  0  0  0
  185.0940  178.8200  145.8480 F   0  0  0  0  0  0  0  0  0  0  0  0
  184.9870  178.0120  146.9640 C   0  0  0  0  0  0  0  0  0  0  0  0
  184.0950  178.5810  147.8530 F   0  0  0  0  0  0  0  0  0  0  0  0
  184.5160  176.7700  146.5760 F   0  0  0  0  0  0  0  0  0  0  0  0
  1  2  1  0  0  0  0
  2 18  1  0  0  0  0
  2 11  1  1  0  0  0
  3  6  1  0  0  0  0
  4 16  1  1  0  0  0
  4  1  1  0  0  0  0
  5 12  1  0  0  0  0
  6 18  2  0  0  0  0
  7  4  1  0  0  0  0
  8  5  1  0  0  0  0
  8  7  1  0  0  0  0
  9 10  1  0  0  0  0
  9 15  2  0  0  0  0
 11 17  2  0  0  0  0
 12 16  1  0  0  0  0
 13  3  2  0  0  0  0
 13  1  1  0  0  0  0
 14  7  2  0  0  0  0
 14 13  1  0  0  0  0
 17 15  1  0  0  0  0
 17 19  1  0  0  0  0
 18  9  1  0  0  0  0
 19 20  1  0  0  0  0
 20 21  2  0  0  0  0
 22 23  1  0  0  0  0
 23 20  1  0  0  0  0
 23 24  1  0  0  0  0
 25 23  1  0  0  0  0
M  END
>  <MODEL>
3

>  <REMARK>
 VINA RESULT:      -7.4      2.988      4.412
  Name = 
  3 active torsions:
  status: ('A' for Active; 'I' for Inactive)
    1  A    between atoms: O_6  and  C_15
    2  A    between atoms: O_6  and  C_23
    3  A    between atoms: C_7  and  C_15
                            x       y       z     vdW  Elec       q    Type
                         _______ _______ _______ _____ _____    ______ ____

>  <TORSDO>
F 3

$$$$
=
 OpenBabel11052417273D

 25 28  0  0  1  0  0  0  0  0999 V2000
  185.8880  177.7690  143.8940 N   0  0  0  0  0  0  0  0  0  0  0  0
  186.7970  177.7230  142.7500 C   0  0  1  0  0  3  0  0  0  0  0  0
  184.0240  178.3900  142.5250 C   0  0  0  0  0  3  0  0  0  0  0  0
  186.2750  178.0590  145.2660 C   0  0  1  0  0  3  0  0  0  0  0  0
  186.1210  178.3100  148.0460 C   0  0  0  0  0  2  0  0  0  0  0  0
  184.7610  177.9240  141.3810 N   0  0  0  0  0  0  0  0  0  0  0  0
  185.0200  178.6370  145.8620 C   0  0  0  0  0  0  0  0  0  0  0  0
  184.8640  178.8190  147.3350 C   0  0  0  0  0  2  0  0  0  0  0  0
  186.7120  176.9990  140.2920 C   0  0  0  0  0  0  0  0  0  0  0  0
  186.1880  177.1660  138.9790 N   0  0  0  0  0  1  0  0  0  0  0  0
  187.8400  176.6470  142.9010 C   0  0  0  0  0  3  0  0  0  0  0  0
  186.5150  176.9060  147.5580 C   0  0  0  0  0  2  0  0  0  0  0  0
  184.5820  178.2980  143.7300 C   0  0  0  0  0  0  0  0  0  0  0  0
  184.0350  178.7810  144.9810 C   0  0  0  0  0  3  0  0  0  0  0  0
  187.8170  176.2720  140.4810 C   0  0  0  0  0  3  0  0  0  0  0  0
  186.6460  176.7790  146.0230 C   0  0  0  0  0  2  0  0  0  0  0  0
  188.3590  176.0130  141.8410 C   0  0  0  0  0  0  0  0  0  0  0  0
  186.0130  177.5620  141.4590 C   0  0  0  0  0  0  0  0  0  0  0  0
  189.3870  175.0860  142.0700 O   0  0  0  0  0  0  0  0  0  0  0  0
  189.2760  173.8940  142.8020 C   0  0  0  0  0  0  0  0  0  0  0  0
  189.6010  173.8370  144.0190 O   0  0  0  0  0  0  0  0  0  0  0  0
  189.2490  172.5130  140.8920 F   0  0  0  0  0  0  0  0  0  0  0  0
  188.6890  172.6870  142.1450 C   0  0  0  0  0  0  0  0  0  0  0  0
  187.3240  172.8550  142.0130 F   0  0  0  0  0  0  0  0  0  0  0  0
  188.9400  171.5620  142.9100 F   0  0  0  0  0  0  0  0  0  0  0  0
  1  4  1  0  0  0  0
  2 11  1  1  0  0  0
  2  1  1  0  0  0  0
  3 13  2  0  0  0  0
  4  7  1  0  0  0  0
  4 16  1  1  0  0  0
  6 18  2  0  0  0  0
  6  3  1  0  0  0  0
  7  8  1  0  0  0  0
  8  5  1  0  0  0  0
  9 15  2  0  0  0  0
  9 18  1  0  0  0  0
 10  9  1  0  0  0  0
 12  5  1  0  0  0  0
 13  1  1  0  0  0  0
 13 14  1  0  0  0  0
 14  7  2  0  0  0  0
 15 17  1  0  0  0  0
 16 12  1  0  0  0  0
 17 19  1  0  0  0  0
 17 11  2  0  0  0  0
 18  2  1  0  0  0  0
 19 20  1  0  0  0  0
 20 21  2  0  0  0  0
 22 23  1  0  0  0  0
 23 20  1  0  0  0  0
 23 25  1  0  0  0  0
 24 23  1  0  0  0  0
M  END
>  <MODEL>
4

>  <REMARK>
 VINA RESULT:      -7.4      3.279      4.235
  Name = 
  3 active torsions:
  status: ('A' for Active; 'I' for Inactive)
    1  A    between atoms: O_6  and  C_15
    2  A    between atoms: O_6  and  C_23
    3  A    between atoms: C_7  and  C_15
                            x       y       z     vdW  Elec       q    Type
                         _______ _______ _______ _____ _____    ______ ____

>  <TORSDO>
F 3

$$$$
=
 OpenBabel11052417273D

 25 28  0  0  1  0  0  0  0  0999 V2000
  189.6450  176.1270  144.5230 N   0  0  0  0  0  0  0  0  0  0  0  0
  188.2800  176.3150  144.0350 C   0  0  1  0  0  3  0  0  0  0  0  0
  190.4370  175.4450  142.3700 C   0  0  0  0  0  3  0  0  0  0  0  0
  190.0100  175.7860  145.8900 C   0  0  1  0  0  3  0  0  0  0  0  0
  191.5780  175.3540  148.1640 C   0  0  0  0  0  2  0  0  0  0  0  0
  189.2590  176.0370  141.7940 N   0  0  0  0  0  0  0  0  0  0  0  0
  191.3260  175.0750  145.7250 C   0  0  0  0  0  0  0  0  0  0  0  0
  192.2150  174.7920  146.8900 C   0  0  0  0  0  2  0  0  0  0  0  0
  187.1310  177.1790  141.9120 C   0  0  0  0  0  0  0  0  0  0  0  0
  186.8660  177.0510  140.5190 N   0  0  0  0  0  1  0  0  0  0  0  0
  187.5850  177.4590  144.7250 C   0  0  0  0  0  3  0  0  0  0  0  0
  191.1280  176.8120  147.9720 C   0  0  0  0  0  2  0  0  0  0  0  0
  190.6080  175.5070  143.6880 C   0  0  0  0  0  0  0  0  0  0  0  0
  191.6810  174.9070  144.4550 C   0  0  0  0  0  3  0  0  0  0  0  0
  186.3700  177.9780  142.6640 C   0  0  0  0  0  3  0  0  0  0  0  0
  190.2230  177.0430  146.7410 C   0  0  0  0  0  2  0  0  0  0  0  0
  186.6520  178.1960  144.1070 C   0  0  0  0  0  0  0  0  0  0  0  0
  188.2790  176.4920  142.5260 C   0  0  0  0  0  0  0  0  0  0  0  0
  185.9980  179.1860  144.8550 O   0  0  0  0  0  0  0  0  0  0  0  0
  184.9680  178.9740  145.7850 C   0  0  0  0  0  0  0  0  0  0  0  0
  183.7630  178.8890  145.4230 O   0  0  0  0  0  0  0  0  0  0  0  0
  184.1640  178.6010  147.9690 F   0  0  0  0  0  0  0  0  0  0  0  0
  185.3160  178.7680  147.2230 C   0  0  0  0  0  0  0  0  0  0  0  0
  186.0040  179.8710  147.6910 F   0  0  0  0  0  0  0  0  0  0  0  0
  186.1090  177.6420  147.3630 F   0  0  0  0  0  0  0  0  0  0  0  0
  1  4  1  0  0  0  0
  2  1  1  0  0  0  0
  2 11  1  1  0  0  0
  3 13  2  0  0  0  0
  4 16  1  1  0  0  0
  6  3  1  0  0  0  0
  6 18  2  0  0  0  0
  7  4  1  0  0  0  0
  7  8  1  0  0  0  0
  8  5  1  0  0  0  0
  9 18  1  0  0  0  0
  9 15  2  0  0  0  0
 10  9  1  0  0  0  0
 12  5  1  0  0  0  0
 13 14  1  0  0  0  0
 13  1  1  0  0  0  0
 14  7  2  0  0  0  0
 15 17  1  0  0  0  0
 16 12  1  0  0  0  0
 17 11  2  0  0  0  0
 17 19  1  0  0  0  0
 18  2  1  0  0  0  0
 19 20  1  0  0  0  0
 20 23  1  0  0  0  0
 21 20  2  0  0  0  0
 23 25  1  0  0  0  0
 23 24  1  0  0  0  0
 23 22  1  0  0  0  0
M  END
>  <MODEL>
5

>  <REMARK>
 VINA RESULT:      -7.3      3.026      5.727
  Name = 
  3 active torsions:
  status: ('A' for Active; 'I' for Inactive)
    1  A    between atoms: O_6  and  C_15
    2  A    between atoms: O_6  and  C_23
    3  A    between atoms: C_7  and  C_15
                            x       y       z     vdW  Elec       q    Type
                         _______ _______ _______ _____ _____    ______ ____

>  <TORSDO>
F 3

$$$$
=
 OpenBabel11052417273D

 25 28  0  0  1  0  0  0  0  0999 V2000
  191.2390  176.3790  145.5610 N   0  0  0  0  0  0  0  0  0  0  0  0
  190.0670  177.2500  145.4860 C   0  0  1  0  0  3  0  0  0  0  0  0
  190.4370  175.2900  147.5360 C   0  0  0  0  0  3  0  0  0  0  0  0
  192.5630  176.7040  145.0530 C   0  0  1  0  0  3  0  0  0  0  0  0
  195.2260  176.3950  144.2620 C   0  0  0  0  0  2  0  0  0  0  0  0
  189.1240  175.7930  147.2310 N   0  0  0  0  0  0  0  0  0  0  0  0
  193.4750  175.8840  145.9240 C   0  0  0  0  0  0  0  0  0  0  0  0
  194.9140  175.6830  145.5810 C   0  0  0  0  0  2  0  0  0  0  0  0
  187.5460  177.0730  145.9200 C   0  0  0  0  0  0  0  0  0  0  0  0
  186.4660  176.8670  146.8240 N   0  0  0  0  0  1  0  0  0  0  0  0
  189.6740  177.5450  144.0620 C   0  0  0  0  0  3  0  0  0  0  0  0
  194.1980  176.0430  143.1740 C   0  0  0  0  0  2  0  0  0  0  0  0
  191.4420  175.5760  146.7120 C   0  0  0  0  0  0  0  0  0  0  0  0
  192.8370  175.2280  146.8880 C   0  0  0  0  0  3  0  0  0  0  0  0
  187.3140  177.6000  144.7150 C   0  0  0  0  0  3  0  0  0  0  0  0
  192.7260  176.2580  143.5960 C   0  0  0  0  0  2  0  0  0  0  0  0
  188.4000  177.7680  143.7120 C   0  0  0  0  0  0  0  0  0  0  0  0
  188.9120  176.6490  146.2680 C   0  0  0  0  0  0  0  0  0  0  0  0
  188.1380  178.1210  142.3800 O   0  0  0  0  0  0  0  0  0  0  0  0
  187.0920  177.6270  141.5860 C   0  0  0  0  0  0  0  0  0  0  0  0
  187.2380  176.5990  140.8710 O   0  0  0  0  0  0  0  0  0  0  0  0
  184.8170  177.4190  142.1680 F   0  0  0  0  0  0  0  0  0  0  0  0
  185.7550  178.2910  141.6460 C   0  0  0  0  0  0  0  0  0  0  0  0
  185.3690  178.6640  140.3730 F   0  0  0  0  0  0  0  0  0  0  0  0
  185.8190  179.4150  142.4510 F   0  0  0  0  0  0  0  0  0  0  0  0
  1 13  1  0  0  0  0
  2 11  1  6  0  0  0
  2  1  1  0  0  0  0
  2 18  1  0  0  0  0
  4 16  1  6  0  0  0
  4  1  1  0  0  0  0
  4  7  1  0  0  0  0
  5  8  1  0  0  0  0
  6  3  1  0  0  0  0
  7 14  2  0  0  0  0
  8  7  1  0  0  0  0
  9 18  1  0  0  0  0
  9 10  1  0  0  0  0
 12 16  1  0  0  0  0
 12  5  1  0  0  0  0
 13 14  1  0  0  0  0
 13  3  2  0  0  0  0
 15  9  2  0  0  0  0
 17 11  2  0  0  0  0
 17 15  1  0  0  0  0
 18  6  2  0  0  0  0
 19 17  1  0  0  0  0
 20 23  1  0  0  0  0
 20 19  1  0  0  0  0
 21 20  2  0  0  0  0
 23 22  1  0  0  0  0
 23 25  1  0  0  0  0
 24 23  1  0  0  0  0
M  END
>  <MODEL>
6

>  <REMARK>
 VINA RESULT:      -7.3      4.280      7.480
  Name = 
  3 active torsions:
  status: ('A' for Active; 'I' for Inactive)
    1  A    between atoms: O_6  and  C_15
    2  A    between atoms: O_6  and  C_23
    3  A    between atoms: C_7  and  C_15
                            x       y       z     vdW  Elec       q    Type
                         _______ _______ _______ _____ _____    ______ ____

>  <TORSDO>
F 3

$$$$
=
 OpenBabel11052417273D

 25 28  0  0  1  0  0  0  0  0999 V2000
  187.9630  175.8150  142.8040 N   0  0  0  0  0  0  0  0  0  0  0  0
  186.6420  176.4190  142.9630 C   0  0  1  0  0  3  0  0  0  0  0  0
  187.8140  175.8550  140.4150 C   0  0  0  0  0  3  0  0  0  0  0  0
  188.6020  174.9250  143.7620 C   0  0  1  0  0  3  0  0  0  0  0  0
  190.5720  173.3910  145.0200 C   0  0  0  0  0  2  0  0  0  0  0  0
  186.7600  176.8260  140.5380 N   0  0  0  0  0  0  0  0  0  0  0  0
  189.5190  174.0980  142.9030 C   0  0  0  0  0  0  0  0  0  0  0  0
  190.5870  173.2400  143.4970 C   0  0  0  0  0  2  0  0  0  0  0  0
  185.2280  178.2110  141.7950 C   0  0  0  0  0  0  0  0  0  0  0  0
  184.5270  178.6660  140.6420 N   0  0  0  0  0  1  0  0  0  0  0  0
  186.5780  177.3280  144.1620 C   0  0  0  0  0  3  0  0  0  0  0  0
  190.5570  174.8710  145.4390 C   0  0  0  0  0  2  0  0  0  0  0  0
  188.3880  175.3860  141.5210 C   0  0  0  0  0  0  0  0  0  0  0  0
  189.4030  174.3560  141.6040 C   0  0  0  0  0  3  0  0  0  0  0  0
  185.0160  178.7970  142.9770 C   0  0  0  0  0  3  0  0  0  0  0  0
  189.4390  175.7090  144.7790 C   0  0  0  0  0  2  0  0  0  0  0  0
  185.7760  178.4010  144.1930 C   0  0  0  0  0  0  0  0  0  0  0  0
  186.2380  177.1460  141.6910 C   0  0  0  0  0  0  0  0  0  0  0  0
  185.7170  179.1410  145.3830 O   0  0  0  0  0  0  0  0  0  0  0  0
  185.3300  178.6540  146.6410 C   0  0  0  0  0  0  0  0  0  0  0  0
  184.1470  178.2840  146.8670 O   0  0  0  0  0  0  0  0  0  0  0  0
  185.9070  177.6270  148.6830 F   0  0  0  0  0  0  0  0  0  0  0  0
  186.3620  178.5000  147.7110 C   0  0  0  0  0  0  0  0  0  0  0  0
  186.6130  179.7300  148.2870 F   0  0  0  0  0  0  0  0  0  0  0  0
  187.5340  178.0000  147.1710 F   0  0  0  0  0  0  0  0  0  0  0  0
  1  2  1  0  0  0  0
  1  4  1  0  0  0  0
  2 11  1  1  0  0  0
  3  6  1  0  0  0  0
  3 13  2  0  0  0  0
  4 16  1  1  0  0  0
  5 12  1  0  0  0  0
  6 18  2  0  0  0  0
  7  8  1  0  0  0  0
  7  4  1  0  0  0  0
  8  5  1  0  0  0  0
  9 15  2  0  0  0  0
 10  9  1  0  0  0  0
 11 17  2  0  0  0  0
 13 14  1  0  0  0  0
 13  1  1  0  0  0  0
 14  7  2  0  0  0  0
 15 17  1  0  0  0  0
 16 12  1  0  0  0  0
 17 19  1  0  0  0  0
 18  9  1  0  0  0  0
 18  2  1  0  0  0  0
 19 20  1  0  0  0  0
 20 21  2  0  0  0  0
 20 23  1  0  0  0  0
 23 24  1  0  0  0  0
 23 22  1  0  0  0  0
 25 23  1  0  0  0  0
M  END
>  <MODEL>
7

>  <REMARK>
 VINA RESULT:      -7.2      2.761      5.385
  Name = 
  3 active torsions:
  status: ('A' for Active; 'I' for Inactive)
    1  A    between atoms: O_6  and  C_15
    2  A    between atoms: O_6  and  C_23
    3  A    between atoms: C_7  and  C_15
                            x       y       z     vdW  Elec       q    Type
                         _______ _______ _______ _____ _____    ______ ____

>  <TORSDO>
F 3

$$$$
=
 OpenBabel11052417273D

 25 28  0  0  1  0  0  0  0  0999 V2000
  187.3980  176.2450  142.1960 N   0  0  0  0  0  0  0  0  0  0  0  0
  186.6500  176.5730  143.4080 C   0  0  1  0  0  3  0  0  0  0  0  0
  186.2510  177.9050  140.9090 C   0  0  0  0  0  3  0  0  0  0  0  0
  187.9700  174.9430  141.8870 C   0  0  1  0  0  3  0  0  0  0  0  0
  189.4830  172.9720  140.6070 C   0  0  0  0  0  2  0  0  0  0  0  0
  185.8500  178.5270  142.1430 N   0  0  0  0  0  0  0  0  0  0  0  0
  187.9980  174.9300  140.3830 C   0  0  0  0  0  0  0  0  0  0  0  0
  188.7690  173.9020  139.6230 C   0  0  0  0  0  2  0  0  0  0  0  0
  185.7270  178.6740  144.5530 C   0  0  0  0  0  0  0  0  0  0  0  0
  184.8440  179.7900  144.5460 N   0  0  0  0  0  1  0  0  0  0  0  0
  187.4890  176.4170  144.6490 C   0  0  0  0  0  3  0  0  0  0  0  0
  190.2530  173.7660  141.6760 C   0  0  0  0  0  2  0  0  0  0  0  0
  187.0060  176.8110  140.9570 C   0  0  0  0  0  0  0  0  0  0  0  0
  187.4420  176.0050  139.8340 C   0  0  0  0  0  3  0  0  0  0  0  0
  186.3090  178.2930  145.6930 C   0  0  0  0  0  3  0  0  0  0  0  0
  189.4030  174.8250  142.4160 C   0  0  0  0  0  2  0  0  0  0  0  0
  187.2910  177.1770  145.7360 C   0  0  0  0  0  0  0  0  0  0  0  0
  186.0630  177.9710  143.3050 C   0  0  0  0  0  0  0  0  0  0  0  0
  188.0630  176.9040  146.8750 O   0  0  0  0  0  0  0  0  0  0  0  0
  189.3790  176.4170  146.8850 C   0  0  0  0  0  0  0  0  0  0  0  0
  190.3600  177.1710  146.6410 O   0  0  0  0  0  0  0  0  0  0  0  0
  188.5660  174.5140  148.0130 F   0  0  0  0  0  0  0  0  0  0  0  0
  189.6260  174.9940  147.2660 C   0  0  0  0  0  0  0  0  0  0  0  0
  190.7830  174.9160  148.0170 F   0  0  0  0  0  0  0  0  0  0  0  0
  189.7650  174.2160  146.1310 F   0  0  0  0  0  0  0  0  0  0  0  0
  1  2  1  0  0  0  0
  2 11  1  1  0  0  0
  3 13  2  0  0  0  0
  3  6  1  0  0  0  0
  4  1  1  0  0  0  0
  4 16  1  1  0  0  0
  5 12  1  0  0  0  0
  6 18  2  0  0  0  0
  7  4  1  0  0  0  0
  8  7  1  0  0  0  0
  8  5  1  0  0  0  0
  9 15  2  0  0  0  0
 10  9  1  0  0  0  0
 11 17  2  0  0  0  0
 12 16  1  0  0  0  0
 13  1  1  0  0  0  0
 14  7  2  0  0  0  0
 14 13  1  0  0  0  0
 15 17  1  0  0  0  0
 17 19  1  0  0  0  0
 18  2  1  0  0  0  0
 18  9  1  0  0  0  0
 19 20  1  0  0  0  0
 20 23  1  0  0  0  0
 21 20  2  0  0  0  0
 23 22  1  0  0  0  0
 23 24  1  0  0  0  0
 25 23  1  0  0  0  0
M  END
>  <MODEL>
8

>  <REMARK>
 VINA RESULT:      -7.0      1.973      4.753
  Name = 
  3 active torsions:
  status: ('A' for Active; 'I' for Inactive)
    1  A    between atoms: O_6  and  C_15
    2  A    between atoms: O_6  and  C_23
    3  A    between atoms: C_7  and  C_15
                            x       y       z     vdW  Elec       q    Type
                         _______ _______ _______ _____ _____    ______ ____

>  <TORSDO>
F 3

$$$$
=
 OpenBabel11052417273D

 25 28  0  0  1  0  0  0  0  0999 V2000
  187.0900  176.9950  143.9570 N   0  0  0  0  0  0  0  0  0  0  0  0
  188.2770  176.3760  143.3710 C   0  0  1  0  0  3  0  0  0  0  0  0
  186.0830  177.3470  141.8130 C   0  0  0  0  0  3  0  0  0  0  0  0
  187.0520  177.7150  145.2210 C   0  0  1  0  0  3  0  0  0  0  0  0
  186.0400  179.0180  147.4780 C   0  0  0  0  0  2  0  0  0  0  0  0
  186.9910  176.3700  141.2720 N   0  0  0  0  0  0  0  0  0  0  0  0
  185.9040  178.6690  145.0390 C   0  0  0  0  0  0  0  0  0  0  0  0
  185.3150  179.4160  146.1890 C   0  0  0  0  0  2  0  0  0  0  0  0
  188.8250  174.8020  141.4230 C   0  0  0  0  0  0  0  0  0  0  0  0
  188.8580  174.5430  140.0230 N   0  0  0  0  0  1  0  0  0  0  0  0
  188.8330  175.2830  144.2460 C   0  0  0  0  0  3  0  0  0  0  0  0
  186.1380  177.4900  147.6200 C   0  0  0  0  0  2  0  0  0  0  0  0
  186.1410  177.6270  143.1130 C   0  0  0  0  0  0  0  0  0  0  0  0
  185.3700  178.6270  143.8220 C   0  0  0  0  0  3  0  0  0  0  0  0
  189.5270  174.0320  142.2590 C   0  0  0  0  0  3  0  0  0  0  0  0
  186.7410  176.7740  146.3890 C   0  0  0  0  0  2  0  0  0  0  0  0
  189.4680  174.2210  143.7330 C   0  0  0  0  0  0  0  0  0  0  0  0
  187.9720  175.8680  141.9730 C   0  0  0  0  0  0  0  0  0  0  0  0
  190.0280  173.2970  144.6270 O   0  0  0  0  0  0  0  0  0  0  0  0
  191.3630  172.8630  144.6390 C   0  0  0  0  0  0  0  0  0  0  0  0
  191.6810  171.7060  144.2520 O   0  0  0  0  0  0  0  0  0  0  0  0
  193.5530  173.1230  145.4710 F   0  0  0  0  0  0  0  0  0  0  0  0
  192.4360  173.8190  145.0470 C   0  0  0  0  0  0  0  0  0  0  0  0
  191.9750  174.6110  146.0810 F   0  0  0  0  0  0  0  0  0  0  0  0
  192.7870  174.6230  143.9770 F   0  0  0  0  0  0  0  0  0  0  0  0
  1  4  1  0  0  0  0
  2  1  1  0  0  0  0
  2 11  1  1  0  0  0
  3 13  2  0  0  0  0
  4 16  1  1  0  0  0
  5 12  1  0  0  0  0
  6  3  1  0  0  0  0
  6 18  2  0  0  0  0
  7  4  1  0  0  0  0
  7  8  1  0  0  0  0
  8  5  1  0  0  0  0
  9 18  1  0  0  0  0
  9 15  2  0  0  0  0
 10  9  1  0  0  0  0
 13 14  1  0  0  0  0
 13  1  1  0  0  0  0
 14  7  2  0  0  0  0
 15 17  1  0  0  0  0
 16 12  1  0  0  0  0
 17 11  2  0  0  0  0
 17 19  1  0  0  0  0
 18  2  1  0  0  0  0
 19 20  1  0  0  0  0
 20 23  1  0  0  0  0
 21 20  2  0  0  0  0
 23 22  1  0  0  0  0
 23 24  1  0  0  0  0
 25 23  1  0  0  0  0
M  END
>  <MODEL>
9

>  <REMARK>
 VINA RESULT:      -6.8      1.776      2.291
  Name = 
  3 active torsions:
  status: ('A' for Active; 'I' for Inactive)
    1  A    between atoms: O_6  and  C_15
    2  A    between atoms: O_6  and  C_23
    3  A    between atoms: C_7  and  C_15
                            x       y       z     vdW  Elec       q    Type
                         _______ _______ _______ _____ _____    ______ ____

>  <TORSDO>
F 3

$$$$
