=
 OpenBabel11052418023D

 28 31  0  0  1  0  0  0  0  0999 V2000
  186.8310  178.0610  142.8210 C   0  0  2  0  0  3  0  0  0  0  0  0
  191.5640  176.8660  144.6420 C   0  0  0  0  0  3  0  0  0  0  0  0
  187.4710  173.2830  141.9280 O   0  0  0  0  0  0  0  0  0  0  0  0
  191.7000  174.4510  144.4020 C   0  0  0  0  0  0  0  0  0  0  0  0
  189.7800  175.6490  143.4800 C   0  0  0  0  0  0  0  0  0  0  0  0
  193.4560  175.6610  145.5540 C   0  0  0  0  0  0  0  0  0  0  0  0
  191.0090  175.6660  144.1710 C   0  0  0  0  0  0  0  0  0  0  0  0
  189.9590  173.2300  143.2540 C   0  0  0  0  0  3  0  0  0  0  0  0
  192.9160  174.4580  145.0920 C   0  0  0  0  0  3  0  0  0  0  0  0
  187.2130  175.6490  142.0280 C   0  0  2  0  0  3  0  0  0  0  0  0
  189.0550  176.9380  143.1780 C   0  0  0  0  0  2  0  0  0  0  0  0
  191.1720  173.2450  143.9430 C   0  0  0  0  0  3  0  0  0  0  0  0
  187.2740  177.6240  140.3840 C   0  0  0  0  0  2  0  0  0  0  0  0
  187.9580  174.3800  142.3090 C   0  0  0  0  0  0  0  0  0  0  0  0
  187.4860  176.1190  140.5900 C   0  0  0  0  0  2  0  0  0  0  0  0
  194.7470  175.6610  146.2880 C   0  0  0  0  0  1  0  0  0  0  0  0
  192.7810  176.8640  145.3290 C   0  0  0  0  0  3  0  0  0  0  0  0
  189.2600  174.4190  143.0110 C   0  0  0  0  0  0  0  0  0  0  0  0
  186.2870  178.1950  141.3940 C   0  0  0  0  0  2  0  0  0  0  0  0
  187.5460  176.7220  143.0820 C   0  0  1  0  0  3  0  0  0  0  0  0
  185.6850  178.2480  143.8040 C   0  0  0  0  0  2  0  0  0  0  0  0
  186.1580  178.8980  145.0990 C   0  0  0  0  0  2  0  0  0  0  0  0
  186.5460  177.3430  147.0440 C   0  0  0  0  0  0  0  0  0  0  0  0
  185.6660  178.1660  146.2600 N   0  0  0  0  0  0  0  0  0  0  0  0
  186.1080  176.7290  148.0540 O   0  0  0  0  0  0  0  0  0  0  0  0
  184.2490  178.2350  146.5860 C   0  0  0  0  0  1  0  0  0  0  0  0
  188.3980  175.7270  146.8560 C   0  0  0  0  0  1  0  0  0  0  0  0
  187.9810  177.1720  146.6690 C   0  0  0  0  0  2  0  0  0  0  0  0
  1 20  1  0  0  0  0
  1 21  1  1  0  0  0
  2 17  1  0  0  0  0
  3 14  2  0  0  0  0
  4  9  2  0  0  0  0
  5  7  1  0  0  0  0
  6 16  1  0  0  0  0
  7  4  1  0  0  0  0
  7  2  2  0  0  0  0
  8 12  2  0  0  0  0
  9  6  1  0  0  0  0
 10 15  1  6  0  0  0
 10 14  1  0  0  0  0
 10 20  1  0  0  0  0
 11  5  1  0  0  0  0
 12  4  1  0  0  0  0
 13 15  1  0  0  0  0
 13 19  1  0  0  0  0
 14 18  1  0  0  0  0
 17  6  2  0  0  0  0
 18  8  1  0  0  0  0
 18  5  2  0  0  0  0
 19  1  1  0  0  0  0
 20 11  1  6  0  0  0
 21 22  1  0  0  0  0
 22 24  1  0  0  0  0
 23 25  2  0  0  0  0
 24 26  1  0  0  0  0
 24 23  1  0  0  0  0
 28 27  1  0  0  0  0
 28 23  1  0  0  0  0
M  END
>  <MODEL>
1

>  <REMARK>
 VINA RESULT:      -7.5      0.000      0.000
  Name = 
  4 active torsions:
  status: ('A' for Active; 'I' for Inactive)
    1  A    between atoms: C_1  and  C_2
    2  A    between atoms: C_2  and  C_3
    3  A    between atoms: C_3  and  N_7
    4  A    between atoms: C_6  and  C_11
                            x       y       z     vdW  Elec       q    Type
                         _______ _______ _______ _____ _____    ______ ____

>  <TORSDO>
F 4

$$$$
=
 OpenBabel11052418023D

 28 31  0  0  1  0  0  0  0  0999 V2000
  191.6220  173.6940  143.5460 C   0  0  2  0  0  3  0  0  0  0  0  0
  188.0450  176.5850  145.9960 C   0  0  0  0  0  3  0  0  0  0  0  0
  188.2800  174.8860  140.1630 O   0  0  0  0  0  0  0  0  0  0  0  0
  186.5780  177.3480  144.2150 C   0  0  0  0  0  0  0  0  0  0  0  0
  188.3380  175.7260  143.7170 C   0  0  0  0  0  0  0  0  0  0  0  0
  186.2990  178.1950  146.4680 C   0  0  0  0  0  0  0  0  0  0  0  0
  187.6620  176.5440  144.6460 C   0  0  0  0  0  0  0  0  0  0  0  0
  186.8390  176.5100  141.9630 C   0  0  0  0  0  3  0  0  0  0  0  0
  185.9060  178.1670  145.1270 C   0  0  0  0  0  3  0  0  0  0  0  0
  189.7640  173.9960  141.8010 C   0  0  2  0  0  3  0  0  0  0  0  0
  189.4600  174.8240  144.1680 C   0  0  0  0  0  2  0  0  0  0  0  0
  186.1750  177.3250  142.8800 C   0  0  0  0  0  3  0  0  0  0  0  0
  190.1520  171.7380  142.9660 C   0  0  0  0  0  2  0  0  0  0  0  0
  188.6270  174.8750  141.3740 C   0  0  0  0  0  0  0  0  0  0  0  0
  189.2710  172.5550  142.0130 C   0  0  0  0  0  2  0  0  0  0  0  0
  185.5830  179.0680  147.4330 C   0  0  0  0  0  1  0  0  0  0  0  0
  187.3670  177.4060  146.9020 C   0  0  0  0  0  3  0  0  0  0  0  0
  187.9120  175.7060  142.3680 C   0  0  0  0  0  0  0  0  0  0  0  0
  191.5820  172.2630  142.9990 C   0  0  0  0  0  2  0  0  0  0  0  0
  190.4650  174.5780  143.0430 C   0  0  1  0  0  3  0  0  0  0  0  0
  192.9600  174.3220  143.1850 C   0  0  0  0  0  2  0  0  0  0  0  0
  192.9560  175.8280  143.4260 C   0  0  0  0  0  2  0  0  0  0  0  0
  193.4430  176.4600  145.8160 C   0  0  0  0  0  0  0  0  0  0  0  0
  193.8960  176.1900  144.4790 N   0  0  0  0  0  0  0  0  0  0  0  0
  194.2710  176.7570  146.7180 O   0  0  0  0  0  0  0  0  0  0  0  0
  195.3070  176.3300  144.1450 C   0  0  0  0  0  1  0  0  0  0  0  0
  191.7150  175.3080  147.1450 C   0  0  0  0  0  1  0  0  0  0  0  0
  191.9900  176.4260  146.1600 C   0  0  0  0  0  2  0  0  0  0  0  0
  1 21  1  6  0  0  0
  2 17  1  0  0  0  0
  3 14  2  0  0  0  0
  4  7  1  0  0  0  0
  4  9  2  0  0  0  0
  5 11  1  0  0  0  0
  5  7  1  0  0  0  0
  6 17  2  0  0  0  0
  6 16  1  0  0  0  0
  7  2  2  0  0  0  0
  8 18  1  0  0  0  0
  8 12  2  0  0  0  0
  9  6  1  0  0  0  0
 10 15  1  1  0  0  0
 10 20  1  0  0  0  0
 12  4  1  0  0  0  0
 13 19  1  0  0  0  0
 14 10  1  0  0  0  0
 14 18  1  0  0  0  0
 15 13  1  0  0  0  0
 18  5  2  0  0  0  0
 19  1  1  0  0  0  0
 20  1  1  0  0  0  0
 20 11  1  1  0  0  0
 21 22  1  0  0  0  0
 22 24  1  0  0  0  0
 23 28  1  0  0  0  0
 23 25  2  0  0  0  0
 24 23  1  0  0  0  0
 26 24  1  0  0  0  0
 28 27  1  0  0  0  0
M  END
>  <MODEL>
2

>  <REMARK>
 VINA RESULT:      -7.4      2.665      6.195
  Name = 
  4 active torsions:
  status: ('A' for Active; 'I' for Inactive)
    1  A    between atoms: C_1  and  C_2
    2  A    between atoms: C_2  and  C_3
    3  A    between atoms: C_3  and  N_7
    4  A    between atoms: C_6  and  C_11
                            x       y       z     vdW  Elec       q    Type
                         _______ _______ _______ _____ _____    ______ ____

>  <TORSDO>
F 4

$$$$
=
 OpenBabel11052418023D

 28 31  0  0  1  0  0  0  0  0999 V2000
  193.8730  175.3970  144.2130 C   0  0  2  0  0  3  0  0  0  0  0  0
  189.3210  177.5990  142.9550 C   0  0  0  0  0  3  0  0  0  0  0  0
  191.1070  175.2220  148.2580 O   0  0  0  0  0  0  0  0  0  0  0  0
  187.9280  177.2420  144.9140 C   0  0  0  0  0  0  0  0  0  0  0  0
  190.2950  176.6370  144.9910 C   0  0  0  0  0  0  0  0  0  0  0  0
  186.9730  178.1870  142.8970 C   0  0  0  0  0  0  0  0  0  0  0  0
  189.1930  177.1600  144.2820 C   0  0  0  0  0  0  0  0  0  0  0  0
  188.8640  176.3030  146.9350 C   0  0  0  0  0  3  0  0  0  0  0  0
  186.8290  177.7530  144.2170 C   0  0  0  0  0  3  0  0  0  0  0  0
  192.6200  175.5580  146.4480 C   0  0  2  0  0  3  0  0  0  0  0  0
  191.6610  176.5910  144.3520 C   0  0  0  0  0  2  0  0  0  0  0  0
  187.7730  176.8140  146.2320 C   0  0  0  0  0  3  0  0  0  0  0  0
  194.6190  177.0860  145.9200 C   0  0  0  0  0  2  0  0  0  0  0  0
  191.2630  175.6380  147.0800 C   0  0  0  0  0  0  0  0  0  0  0  0
  193.4860  176.7470  146.8970 C   0  0  0  0  0  2  0  0  0  0  0  0
  185.8020  178.7270  142.1620 C   0  0  0  0  0  1  0  0  0  0  0  0
  188.2180  178.1100  142.2670 C   0  0  0  0  0  3  0  0  0  0  0  0
  190.1250  176.2150  146.3310 C   0  0  0  0  0  0  0  0  0  0  0  0
  195.0310  175.8740  145.0960 C   0  0  0  0  0  2  0  0  0  0  0  0
  192.5030  175.4470  144.9160 C   0  0  1  0  0  3  0  0  0  0  0  0
  194.1680  173.9830  143.7350 C   0  0  0  0  0  2  0  0  0  0  0  0
  192.8850  173.2000  143.4750 C   0  0  0  0  0  2  0  0  0  0  0  0
  191.0020  173.6430  141.8600 C   0  0  0  0  0  0  0  0  0  0  0  0
  192.4000  173.4320  142.1200 N   0  0  0  0  0  0  0  0  0  0  0  0
  190.6010  173.8560  140.6840 O   0  0  0  0  0  0  0  0  0  0  0  0
  193.3500  173.3920  141.0160 C   0  0  0  0  0  1  0  0  0  0  0  0
  188.6300  173.9860  142.4390 C   0  0  0  0  0  1  0  0  0  0  0  0
  189.9950  173.5830  142.9600 C   0  0  0  0  0  2  0  0  0  0  0  0
  1 21  1  1  0  0  0
  1 20  1  0  0  0  0
  1 19  1  0  0  0  0
  2  7  1  0  0  0  0
  4 12  1  0  0  0  0
  5 18  2  0  0  0  0
  6  9  2  0  0  0  0
  7  4  2  0  0  0  0
  7  5  1  0  0  0  0
  9  4  1  0  0  0  0
 10 15  1  6  0  0  0
 10 14  1  0  0  0  0
 11  5  1  0  0  0  0
 12  8  2  0  0  0  0
 13 15  1  0  0  0  0
 14  3  2  0  0  0  0
 16  6  1  0  0  0  0
 17  6  1  0  0  0  0
 17  2  2  0  0  0  0
 18  8  1  0  0  0  0
 18 14  1  0  0  0  0
 19 13  1  0  0  0  0
 20 11  1  6  0  0  0
 20 10  1  0  0  0  0
 22 21  1  0  0  0  0
 23 24  1  0  0  0  0
 23 28  1  0  0  0  0
 24 22  1  0  0  0  0
 25 23  2  0  0  0  0
 26 24  1  0  0  0  0
 27 28  1  0  0  0  0
M  END
>  <MODEL>
3

>  <REMARK>
 VINA RESULT:      -7.2      2.555      7.157
  Name = 
  4 active torsions:
  status: ('A' for Active; 'I' for Inactive)
    1  A    between atoms: C_1  and  C_2
    2  A    between atoms: C_2  and  C_3
    3  A    between atoms: C_3  and  N_7
    4  A    between atoms: C_6  and  C_11
                            x       y       z     vdW  Elec       q    Type
                         _______ _______ _______ _____ _____    ______ ____

>  <TORSDO>
F 4

$$$$
=
 OpenBabel11052418023D

 28 31  0  0  1  0  0  0  0  0999 V2000
  192.4910  175.0730  145.0280 C   0  0  2  0  0  3  0  0  0  0  0  0
  187.7970  176.7720  146.5210 C   0  0  0  0  0  3  0  0  0  0  0  0
  189.5530  174.5580  141.1370 O   0  0  0  0  0  0  0  0  0  0  0  0
  186.4750  176.7300  144.4810 C   0  0  0  0  0  0  0  0  0  0  0  0
  188.7350  175.7980  144.4730 C   0  0  0  0  0  0  0  0  0  0  0  0
  185.5590  177.6950  146.5060 C   0  0  0  0  0  0  0  0  0  0  0  0
  187.6790  176.4290  145.1640 C   0  0  0  0  0  0  0  0  0  0  0  0
  187.3730  175.7690  142.4540 C   0  0  0  0  0  3  0  0  0  0  0  0
  185.4260  177.3610  145.1560 C   0  0  0  0  0  3  0  0  0  0  0  0
  190.9560  174.4700  143.0600 C   0  0  2  0  0  3  0  0  0  0  0  0
  190.0040  175.4220  145.1970 C   0  0  0  0  0  2  0  0  0  0  0  0
  186.3310  176.3990  143.1340 C   0  0  0  0  0  3  0  0  0  0  0  0
  191.8840  172.6640  144.6380 C   0  0  0  0  0  2  0  0  0  0  0  0
  189.6780  174.8230  142.3620 C   0  0  0  0  0  0  0  0  0  0  0  0
  190.9500  172.9870  143.4640 C   0  0  0  0  0  2  0  0  0  0  0  0
  184.4410  178.3670  147.2180 C   0  0  0  0  0  1  0  0  0  0  0  0
  186.7430  177.4010  147.1880 C   0  0  0  0  0  3  0  0  0  0  0  0
  188.5710  175.4590  143.1100 C   0  0  0  0  0  0  0  0  0  0  0  0
  193.0260  173.6660  144.7370 C   0  0  0  0  0  2  0  0  0  0  0  0
  191.2050  175.4140  144.2520 C   0  0  1  0  0  3  0  0  0  0  0  0
  193.5810  176.0880  144.7140 C   0  0  0  0  0  2  0  0  0  0  0  0
  194.8500  175.8130  145.5130 C   0  0  0  0  0  2  0  0  0  0  0  0
  196.9300  174.5250  144.9060 C   0  0  0  0  0  0  0  0  0  0  0  0
  195.9810  175.5680  144.6260 N   0  0  0  0  0  0  0  0  0  0  0  0
  197.8930  174.3180  144.1200 O   0  0  0  0  0  0  0  0  0  0  0  0
  196.1710  176.4370  143.4730 C   0  0  0  0  0  1  0  0  0  0  0  0
  196.6910  172.2260  145.7630 C   0  0  0  0  0  1  0  0  0  0  0  0
  196.8160  173.6890  146.1370 C   0  0  0  0  0  2  0  0  0  0  0  0
  1 21  1  6  0  0  0
  2 17  1  0  0  0  0
  3 14  2  0  0  0  0
  4  9  2  0  0  0  0
  4  7  1  0  0  0  0
  5  7  1  0  0  0  0
  5 11  1  0  0  0  0
  6 17  2  0  0  0  0
  6 16  1  0  0  0  0
  7  2  2  0  0  0  0
  8 18  1  0  0  0  0
  8 12  2  0  0  0  0
  9  6  1  0  0  0  0
 10 15  1  1  0  0  0
 10 20  1  0  0  0  0
 12  4  1  0  0  0  0
 13 19  1  0  0  0  0
 14 10  1  0  0  0  0
 14 18  1  0  0  0  0
 15 13  1  0  0  0  0
 18  5  2  0  0  0  0
 19  1  1  0  0  0  0
 20  1  1  0  0  0  0
 20 11  1  1  0  0  0
 21 22  1  0  0  0  0
 23 28  1  0  0  0  0
 24 23  1  0  0  0  0
 24 22  1  0  0  0  0
 25 23  2  0  0  0  0
 26 24  1  0  0  0  0
 27 28  1  0  0  0  0
M  END
>  <MODEL>
4

>  <REMARK>
 VINA RESULT:      -7.1      3.304      7.428
  Name = 
  4 active torsions:
  status: ('A' for Active; 'I' for Inactive)
    1  A    between atoms: C_1  and  C_2
    2  A    between atoms: C_2  and  C_3
    3  A    between atoms: C_3  and  N_7
    4  A    between atoms: C_6  and  C_11
                            x       y       z     vdW  Elec       q    Type
                         _______ _______ _______ _____ _____    ______ ____

>  <TORSDO>
F 4

$$$$
=
 OpenBabel11052418023D

 28 31  0  0  1  0  0  0  0  0999 V2000
  191.7260  175.7390  143.0300 C   0  0  2  0  0  3  0  0  0  0  0  0
  187.1420  178.1500  143.6030 C   0  0  0  0  0  3  0  0  0  0  0  0
  190.2900  174.8640  147.6360 O   0  0  0  0  0  0  0  0  0  0  0  0
  186.3790  177.4580  145.8050 C   0  0  0  0  0  0  0  0  0  0  0  0
  188.6220  176.8380  145.0550 C   0  0  0  0  0  0  0  0  0  0  0  0
  184.9220  178.7480  144.3620 C   0  0  0  0  0  0  0  0  0  0  0  0
  187.3910  177.4830  144.8140 C   0  0  0  0  0  0  0  0  0  0  0  0
  187.8210  176.1720  147.2580 C   0  0  0  0  0  3  0  0  0  0  0  0
  185.1540  178.0890  145.5710 C   0  0  0  0  0  3  0  0  0  0  0  0
  191.2100  175.5090  145.5340 C   0  0  2  0  0  3  0  0  0  0  0  0
  189.7300  176.9000  144.0330 C   0  0  0  0  0  2  0  0  0  0  0  0
  186.6010  176.8040  147.0160 C   0  0  0  0  0  3  0  0  0  0  0  0
  193.0440  177.0970  144.6860 C   0  0  0  0  0  2  0  0  0  0  0  0
  190.1110  175.4820  146.5530 C   0  0  0  0  0  0  0  0  0  0  0  0
  192.2380  176.5960  145.8900 C   0  0  0  0  0  2  0  0  0  0  0  0
  183.6180  179.4160  144.1190 C   0  0  0  0  0  1  0  0  0  0  0  0
  185.9150  178.7790  143.3790 C   0  0  0  0  0  3  0  0  0  0  0  0
  188.8360  176.1870  146.2930 C   0  0  0  0  0  0  0  0  0  0  0  0
  193.1210  176.0470  143.5850 C   0  0  0  0  0  2  0  0  0  0  0  0
  190.6350  175.6710  144.1150 C   0  0  1  0  0  3  0  0  0  0  0  0
  191.7830  174.4310  142.2560 C   0  0  0  0  0  2  0  0  0  0  0  0
  190.4920  173.6330  142.4090 C   0  0  0  0  0  2  0  0  0  0  0  0
  188.8710  174.1270  140.5430 C   0  0  0  0  0  0  0  0  0  0  0  0
  189.9170  173.3170  141.1070 N   0  0  0  0  0  0  0  0  0  0  0  0
  188.3950  173.8490  139.4100 O   0  0  0  0  0  0  0  0  0  0  0  0
  190.3800  172.1300  140.4030 C   0  0  0  0  0  1  0  0  0  0  0  0
  187.2040  174.8200  142.2220 C   0  0  0  0  0  1  0  0  0  0  0  0
  188.3060  175.2880  141.2930 C   0  0  0  0  0  2  0  0  0  0  0  0
  1 21  1  1  0  0  0
  1 19  1  0  0  0  0
  1 20  1  0  0  0  0
  2  7  1  0  0  0  0
  4 12  1  0  0  0  0
  5 18  2  0  0  0  0
  6  9  2  0  0  0  0
  7  5  1  0  0  0  0
  7  4  2  0  0  0  0
  9  4  1  0  0  0  0
 10 15  1  1  0  0  0
 10 14  1  0  0  0  0
 11  5  1  0  0  0  0
 12  8  2  0  0  0  0
 13 15  1  0  0  0  0
 14  3  2  0  0  0  0
 16  6  1  0  0  0  0
 17  2  2  0  0  0  0
 17  6  1  0  0  0  0
 18 14  1  0  0  0  0
 18  8  1  0  0  0  0
 19 13  1  0  0  0  0
 20 11  1  1  0  0  0
 20 10  1  0  0  0  0
 21 22  1  0  0  0  0
 23 24  1  0  0  0  0
 23 28  1  0  0  0  0
 24 22  1  0  0  0  0
 25 23  2  0  0  0  0
 26 24  1  0  0  0  0
 28 27  1  0  0  0  0
M  END
>  <MODEL>
5

>  <REMARK>
 VINA RESULT:      -7.1      2.329      6.848
  Name = 
  4 active torsions:
  status: ('A' for Active; 'I' for Inactive)
    1  A    between atoms: C_1  and  C_2
    2  A    between atoms: C_2  and  C_3
    3  A    between atoms: C_3  and  N_7
    4  A    between atoms: C_6  and  C_11
                            x       y       z     vdW  Elec       q    Type
                         _______ _______ _______ _____ _____    ______ ____

>  <TORSDO>
F 4

$$$$
=
 OpenBabel11052418023D

 28 31  0  0  1  0  0  0  0  0999 V2000
  189.1370  177.2340  144.7580 C   0  0  2  0  0  3  0  0  0  0  0  0
  193.9860  175.4320  145.3820 C   0  0  0  0  0  3  0  0  0  0  0  0
  189.0200  172.5130  143.4400 O   0  0  0  0  0  0  0  0  0  0  0  0
  193.7910  173.0460  144.9630 C   0  0  0  0  0  0  0  0  0  0  0  0
  191.8650  174.5000  144.5770 C   0  0  0  0  0  0  0  0  0  0  0  0
  195.8810  173.9740  145.7630 C   0  0  0  0  0  0  0  0  0  0  0  0
  193.2090  174.3370  144.9720 C   0  0  0  0  0  0  0  0  0  0  0  0
  191.7150  172.1040  144.1620 C   0  0  0  0  0  3  0  0  0  0  0  0
  195.1210  172.8740  145.3590 C   0  0  0  0  0  3  0  0  0  0  0  0
  189.0600  174.8750  143.7470 C   0  0  2  0  0  3  0  0  0  0  0  0
  191.2430  175.8740  144.5300 C   0  0  0  0  0  2  0  0  0  0  0  0
  193.0420  171.9420  144.5590 C   0  0  0  0  0  3  0  0  0  0  0  0
  188.9850  176.9720  142.2620 C   0  0  0  0  0  2  0  0  0  0  0  0
  189.7000  173.5200  143.7700 C   0  0  0  0  0  0  0  0  0  0  0  0
  189.0650  175.4410  142.3170 C   0  0  0  0  0  2  0  0  0  0  0  0
  197.2930  173.7860  146.1840 C   0  0  0  0  0  1  0  0  0  0  0  0
  195.3150  175.2520  145.7740 C   0  0  0  0  0  3  0  0  0  0  0  0
  191.1190  173.3720  144.1600 C   0  0  0  0  0  0  0  0  0  0  0  0
  188.3140  177.5450  143.5030 C   0  0  0  0  0  2  0  0  0  0  0  0
  189.7350  175.8140  144.7650 C   0  0  1  0  0  3  0  0  0  0  0  0
  188.2610  177.4430  145.9850 C   0  0  0  0  0  2  0  0  0  0  0  0
  186.8950  176.7880  145.8160 C   0  0  0  0  0  2  0  0  0  0  0  0
  184.8420  178.2500  145.8670 C   0  0  0  0  0  0  0  0  0  0  0  0
  185.8720  177.5190  146.5540 N   0  0  0  0  0  0  0  0  0  0  0  0
  183.9570  178.8640  146.5210 O   0  0  0  0  0  0  0  0  0  0  0  0
  185.9390  177.5450  148.0090 C   0  0  0  0  0  1  0  0  0  0  0  0
  185.3790  179.6520  143.9120 C   0  0  0  0  0  1  0  0  0  0  0  0
  184.8130  178.3250  144.3760 C   0  0  0  0  0  2  0  0  0  0  0  0
  1 20  1  0  0  0  0
  1 21  1  1  0  0  0
  2 17  1  0  0  0  0
  3 14  2  0  0  0  0
  4  7  1  0  0  0  0
  4  9  2  0  0  0  0
  5  7  1  0  0  0  0
  6 17  2  0  0  0  0
  6 16  1  0  0  0  0
  7  2  2  0  0  0  0
  8 12  2  0  0  0  0
  9  6  1  0  0  0  0
 10 15  1  6  0  0  0
 10 14  1  0  0  0  0
 10 20  1  0  0  0  0
 11  5  1  0  0  0  0
 12  4  1  0  0  0  0
 13 15  1  0  0  0  0
 13 19  1  0  0  0  0
 14 18  1  0  0  0  0
 18  8  1  0  0  0  0
 18  5  2  0  0  0  0
 19  1  1  0  0  0  0
 20 11  1  6  0  0  0
 22 21  1  0  0  0  0
 22 24  1  0  0  0  0
 23 25  2  0  0  0  0
 23 24  1  0  0  0  0
 24 26  1  0  0  0  0
 27 28  1  0  0  0  0
 28 23  1  0  0  0  0
M  END
>  <MODEL>
6

>  <REMARK>
 VINA RESULT:      -6.9      1.569      2.910
  Name = 
  4 active torsions:
  status: ('A' for Active; 'I' for Inactive)
    1  A    between atoms: C_1  and  C_2
    2  A    between atoms: C_2  and  C_3
    3  A    between atoms: C_3  and  N_7
    4  A    between atoms: C_6  and  C_11
                            x       y       z     vdW  Elec       q    Type
                         _______ _______ _______ _____ _____    ______ ____

>  <TORSDO>
F 4

$$$$
=
 OpenBabel11052418023D

 28 31  0  0  1  0  0  0  0  0999 V2000
  193.9030  175.5780  144.2290 C   0  0  2  0  0  3  0  0  0  0  0  0
  189.3000  177.6430  142.9260 C   0  0  0  0  0  3  0  0  0  0  0  0
  191.0950  175.2920  148.2380 O   0  0  0  0  0  0  0  0  0  0  0  0
  187.8940  177.2300  144.8650 C   0  0  0  0  0  0  0  0  0  0  0  0
  190.2780  176.7000  144.9680 C   0  0  0  0  0  0  0  0  0  0  0  0
  186.9350  178.1570  142.8420 C   0  0  0  0  0  0  0  0  0  0  0  0
  189.1690  177.1920  144.2490 C   0  0  0  0  0  0  0  0  0  0  0  0
  188.8350  176.3100  146.8920 C   0  0  0  0  0  3  0  0  0  0  0  0
  186.7880  177.7100  144.1580 C   0  0  0  0  0  3  0  0  0  0  0  0
  192.6180  175.6870  146.4490 C   0  0  2  0  0  3  0  0  0  0  0  0
  191.6530  176.7010  144.3470 C   0  0  0  0  0  2  0  0  0  0  0  0
  187.7370  176.7900  146.1790 C   0  0  0  0  0  3  0  0  0  0  0  0
  194.5740  177.2800  145.9540 C   0  0  0  0  0  2  0  0  0  0  0  0
  191.2520  175.7200  147.0640 C   0  0  0  0  0  0  0  0  0  0  0  0
  193.4410  176.9000  146.9150 C   0  0  0  0  0  2  0  0  0  0  0  0
  185.7570  178.6640  142.0950 C   0  0  0  0  0  1  0  0  0  0  0  0
  188.1890  178.1230  142.2270 C   0  0  0  0  0  3  0  0  0  0  0  0
  190.1060  176.2650  146.3040 C   0  0  0  0  0  0  0  0  0  0  0  0
  195.0350  176.0860  145.1290 C   0  0  0  0  0  2  0  0  0  0  0  0
  192.5240  175.5810  144.9150 C   0  0  1  0  0  3  0  0  0  0  0  0
  194.2490  174.1770  143.7470 C   0  0  0  0  0  2  0  0  0  0  0  0
  195.0510  173.4070  144.7910 C   0  0  0  0  0  2  0  0  0  0  0  0
  195.1470  171.0860  145.7670 C   0  0  0  0  0  0  0  0  0  0  0  0
  194.4220  172.1260  145.0900 N   0  0  0  0  0  0  0  0  0  0  0  0
  194.5840  169.9890  146.0300 O   0  0  0  0  0  0  0  0  0  0  0  0
  193.0570  171.8910  144.6420 C   0  0  0  0  0  1  0  0  0  0  0  0
  197.4720  170.5420  145.1510 C   0  0  0  0  0  1  0  0  0  0  0  0
  196.5810  171.2630  146.1430 C   0  0  0  0  0  2  0  0  0  0  0  0
  1 21  1  1  0  0  0
  1 20  1  0  0  0  0
  1 19  1  0  0  0  0
  2  7  1  0  0  0  0
  4 12  1  0  0  0  0
  5 18  2  0  0  0  0
  6  9  2  0  0  0  0
  7  4  2  0  0  0  0
  7  5  1  0  0  0  0
  9  4  1  0  0  0  0
 10 15  1  6  0  0  0
 10 14  1  0  0  0  0
 11  5  1  0  0  0  0
 12  8  2  0  0  0  0
 13 15  1  0  0  0  0
 14  3  2  0  0  0  0
 16  6  1  0  0  0  0
 17  6  1  0  0  0  0
 17  2  2  0  0  0  0
 18  8  1  0  0  0  0
 18 14  1  0  0  0  0
 19 13  1  0  0  0  0
 20 11  1  6  0  0  0
 20 10  1  0  0  0  0
 21 22  1  0  0  0  0
 22 24  1  0  0  0  0
 23 25  2  0  0  0  0
 23 28  1  0  0  0  0
 24 23  1  0  0  0  0
 26 24  1  0  0  0  0
 27 28  1  0  0  0  0
M  END
>  <MODEL>
7

>  <REMARK>
 VINA RESULT:      -6.8      3.508      7.880
  Name = 
  4 active torsions:
  status: ('A' for Active; 'I' for Inactive)
    1  A    between atoms: C_1  and  C_2
    2  A    between atoms: C_2  and  C_3
    3  A    between atoms: C_3  and  N_7
    4  A    between atoms: C_6  and  C_11
                            x       y       z     vdW  Elec       q    Type
                         _______ _______ _______ _____ _____    ______ ____

>  <TORSDO>
F 4

$$$$
=
 OpenBabel11052418023D

 28 31  0  0  1  0  0  0  0  0999 V2000
  190.2550  175.6520  142.8200 C   0  0  2  0  0  3  0  0  0  0  0  0
  185.5890  177.5880  141.5420 C   0  0  0  0  0  3  0  0  0  0  0  0
  188.3790  177.5280  146.9440 O   0  0  0  0  0  0  0  0  0  0  0  0
  184.6220  178.2570  143.6690 C   0  0  0  0  0  0  0  0  0  0  0  0
  186.9400  177.4890  143.5870 C   0  0  0  0  0  0  0  0  0  0  0  0
  183.2920  178.3470  141.6460 C   0  0  0  0  0  0  0  0  0  0  0  0
  185.7280  177.7750  142.9270 C   0  0  0  0  0  0  0  0  0  0  0  0
  185.9350  178.1770  145.6970 C   0  0  0  0  0  3  0  0  0  0  0  0
  183.4140  178.5380  143.0240 C   0  0  0  0  0  3  0  0  0  0  0  0
  189.4930  176.8900  144.9360 C   0  0  2  0  0  3  0  0  0  0  0  0
  188.1450  177.0250  142.8050 C   0  0  0  0  0  2  0  0  0  0  0  0
  184.7330  178.4540  145.0450 C   0  0  0  0  0  3  0  0  0  0  0  0
  191.3720  177.8160  143.4460 C   0  0  0  0  0  2  0  0  0  0  0  0
  188.2980  177.3800  145.6960 C   0  0  0  0  0  0  0  0  0  0  0  0
  190.4580  178.0540  144.6550 C   0  0  0  0  0  2  0  0  0  0  0  0
  182.0060  178.6460  140.9660 C   0  0  0  0  0  1  0  0  0  0  0  0
  184.3780  177.8730  140.9050 C   0  0  0  0  0  3  0  0  0  0  0  0
  187.0420  177.7020  144.9820 C   0  0  0  0  0  0  0  0  0  0  0  0
  191.5800  176.3300  143.1830 C   0  0  0  0  0  2  0  0  0  0  0  0
  189.0610  176.1480  143.6580 C   0  0  1  0  0  3  0  0  0  0  0  0
  190.4150  174.1460  142.9720 C   0  0  0  0  0  2  0  0  0  0  0  0
  190.5720  173.7440  144.4340 C   0  0  0  0  0  2  0  0  0  0  0  0
  192.8150  173.9510  145.5650 C   0  0  0  0  0  0  0  0  0  0  0  0
  191.9160  173.2420  144.6950 N   0  0  0  0  0  0  0  0  0  0  0  0
  193.9680  173.4950  145.7910 O   0  0  0  0  0  0  0  0  0  0  0  0
  192.3590  172.0330  144.0160 C   0  0  0  0  0  1  0  0  0  0  0  0
  193.6120  176.1830  146.2400 C   0  0  0  0  0  1  0  0  0  0  0  0
  192.4210  175.2480  146.1900 C   0  0  0  0  0  2  0  0  0  0  0  0
  1 21  1  1  0  0  0
  1 19  1  0  0  0  0
  1 20  1  0  0  0  0
  2  7  1  0  0  0  0
  4 12  1  0  0  0  0
  5 18  2  0  0  0  0
  6  9  2  0  0  0  0
  7  5  1  0  0  0  0
  7  4  2  0  0  0  0
  9  4  1  0  0  0  0
 10 15  1  6  0  0  0
 10 14  1  0  0  0  0
 11  5  1  0  0  0  0
 12  8  2  0  0  0  0
 13 15  1  0  0  0  0
 14  3  2  0  0  0  0
 16  6  1  0  0  0  0
 17  2  2  0  0  0  0
 17  6  1  0  0  0  0
 18 14  1  0  0  0  0
 18  8  1  0  0  0  0
 19 13  1  0  0  0  0
 20 11  1  6  0  0  0
 20 10  1  0  0  0  0
 21 22  1  0  0  0  0
 22 24  1  0  0  0  0
 23 25  2  0  0  0  0
 23 28  1  0  0  0  0
 24 23  1  0  0  0  0
 26 24  1  0  0  0  0
 28 27  1  0  0  0  0
M  END
>  <MODEL>
8

>  <REMARK>
 VINA RESULT:      -6.8      2.658      7.211
  Name = 
  4 active torsions:
  status: ('A' for Active; 'I' for Inactive)
    1  A    between atoms: C_1  and  C_2
    2  A    between atoms: C_2  and  C_3
    3  A    between atoms: C_3  and  N_7
    4  A    between atoms: C_6  and  C_11
                            x       y       z     vdW  Elec       q    Type
                         _______ _______ _______ _____ _____    ______ ____

>  <TORSDO>
F 4

$$$$
=
 OpenBabel11052418023D

 28 31  0  0  1  0  0  0  0  0999 V2000
  186.6950  176.9470  144.3510 C   0  0  2  0  0  3  0  0  0  0  0  0
  190.6780  173.5890  144.4690 C   0  0  0  0  0  3  0  0  0  0  0  0
  189.6440  178.4530  147.9670 O   0  0  0  0  0  0  0  0  0  0  0  0
  192.2110  174.5440  146.0950 C   0  0  0  0  0  0  0  0  0  0  0  0
  190.0090  175.5540  145.7760 C   0  0  0  0  0  0  0  0  0  0  0  0
  192.8660  172.6070  144.7960 C   0  0  0  0  0  0  0  0  0  0  0  0
  190.9540  174.5620  145.4430 C   0  0  0  0  0  0  0  0  0  0  0  0
  191.5720  176.4740  147.4020 C   0  0  0  0  0  3  0  0  0  0  0  0
  193.1570  173.5680  145.7670 C   0  0  0  0  0  3  0  0  0  0  0  0
  188.0060  177.6090  146.4570 C   0  0  2  0  0  3  0  0  0  0  0  0
  188.6450  175.5580  145.1290 C   0  0  0  0  0  2  0  0  0  0  0  0
  192.5100  175.4980  147.0680 C   0  0  0  0  0  3  0  0  0  0  0  0
  185.7300  176.4240  146.6130 C   0  0  0  0  0  2  0  0  0  0  0  0
  189.3530  177.5750  147.1130 C   0  0  0  0  0  0  0  0  0  0  0  0
  186.9540  176.9550  147.3690 C   0  0  0  0  0  2  0  0  0  0  0  0
  193.8760  171.5730  144.4500 C   0  0  0  0  0  1  0  0  0  0  0  0
  191.6290  172.6160  144.1480 C   0  0  0  0  0  3  0  0  0  0  0  0
  190.3220  176.5100  146.7710 C   0  0  0  0  0  0  0  0  0  0  0  0
  185.5130  177.1670  145.3020 C   0  0  0  0  0  2  0  0  0  0  0  0
  188.0640  176.9690  145.0570 C   0  0  1  0  0  3  0  0  0  0  0  0
  186.6500  178.0030  143.2570 C   0  0  0  0  0  2  0  0  0  0  0  0
  187.8150  177.8520  142.2840 C   0  0  0  0  0  2  0  0  0  0  0  0
  187.8350  175.8600  140.7400 C   0  0  0  0  0  0  0  0  0  0  0  0
  187.3870  177.1890  141.0580 N   0  0  0  0  0  0  0  0  0  0  0  0
  187.4440  175.2960  139.6830 O   0  0  0  0  0  0  0  0  0  0  0  0
  186.5370  177.9150  140.1250 C   0  0  0  0  0  1  0  0  0  0  0  0
  188.2730  173.7410  141.9210 C   0  0  0  0  0  1  0  0  0  0  0  0
  188.7910  175.1350  141.6290 C   0  0  0  0  0  2  0  0  0  0  0  0
  1 21  1  6  0  0  0
  1 20  1  0  0  0  0
  1 19  1  0  0  0  0
  2  7  1  0  0  0  0
  4 12  1  0  0  0  0
  5 18  2  0  0  0  0
  6  9  2  0  0  0  0
  7  5  1  0  0  0  0
  7  4  2  0  0  0  0
  9  4  1  0  0  0  0
 10 14  1  0  0  0  0
 10 15  1  1  0  0  0
 11  5  1  0  0  0  0
 12  8  2  0  0  0  0
 13 15  1  0  0  0  0
 14  3  2  0  0  0  0
 16  6  1  0  0  0  0
 17  2  2  0  0  0  0
 17  6  1  0  0  0  0
 18 14  1  0  0  0  0
 18  8  1  0  0  0  0
 19 13  1  0  0  0  0
 20 11  1  1  0  0  0
 20 10  1  0  0  0  0
 22 21  1  0  0  0  0
 23 24  1  0  0  0  0
 23 28  1  0  0  0  0
 24 22  1  0  0  0  0
 25 23  2  0  0  0  0
 26 24  1  0  0  0  0
 28 27  1  0  0  0  0
M  END
>  <MODEL>
9

>  <REMARK>
 VINA RESULT:      -6.8      2.014      4.845
  Name = 
  4 active torsions:
  status: ('A' for Active; 'I' for Inactive)
    1  A    between atoms: C_1  and  C_2
    2  A    between atoms: C_2  and  C_3
    3  A    between atoms: C_3  and  N_7
    4  A    between atoms: C_6  and  C_11
                            x       y       z     vdW  Elec       q    Type
                         _______ _______ _______ _____ _____    ______ ____

>  <TORSDO>
F 4

$$$$
