=
 OpenBabel11052418283D

 27 31  0  0  1  0  0  0  0  0999 V2000
  188.6300  176.4970  145.7920 N   0  0  0  0  0  2  0  0  0  0  0  0
  188.2820  176.4470  143.3040 C   0  0  1  0  0  3  0  0  0  0  0  0
  190.7040  176.1900  143.7070 N   0  0  0  0  0  2  0  0  0  0  0  0
  188.5860  173.9540  139.9410 C   0  0  0  0  0  3  0  0  0  0  0  0
  189.9300  172.8350  138.2800 O   0  0  0  0  0  1  0  0  0  0  0  0
  187.0460  175.6360  142.9070 C   0  0  0  0  0  2  0  0  0  0  0  0
  190.8720  174.3520  141.5080 C   0  0  0  0  0  3  0  0  0  0  0  0
  192.7400  176.5190  146.7990 C   0  0  0  0  0  0  0  0  0  0  0  0
  190.9700  173.6860  140.2830 C   0  0  0  0  0  3  0  0  0  0  0  0
  194.0500  176.5790  147.1390 F   0  0  0  0  0  0  0  0  0  0  0  0
  189.6350  174.8420  141.9460 C   0  0  0  0  0  0  0  0  0  0  0  0
  188.1400  177.2260  144.6250 C   0  0  1  0  0  3  0  0  0  0  0  0
  189.8300  173.4920  139.4980 C   0  0  0  0  0  0  0  0  0  0  0  0
  188.4810  174.6160  141.1670 C   0  0  0  0  0  0  0  0  0  0  0  0
  190.0270  176.4110  146.0980 C   0  0  0  0  0  0  0  0  0  0  0  0
  189.4870  175.5020  143.2940 C   0  0  2  0  0  3  0  0  0  0  0  0
  192.3710  176.4610  145.4530 C   0  0  0  0  0  3  0  0  0  0  0  0
  187.2320  175.0770  141.6050 O   0  0  0  0  0  0  0  0  0  0  0  0
  191.7620  176.4870  147.7940 C   0  0  0  0  0  3  0  0  0  0  0  0
  190.4110  176.4380  147.4430 C   0  0  0  0  0  3  0  0  0  0  0  0
  191.0220  176.3910  145.0890 C   0  0  0  0  0  0  0  0  0  0  0  0
  184.2960  178.9180  145.3680 N   0  0  0  0  0  0  0  0  0  0  0  0
  186.7840  177.8210  144.8630 C   0  0  0  0  0  0  0  0  0  0  0  0
  185.9710  177.2910  145.8680 C   0  0  0  0  0  3  0  0  0  0  0  0
  184.7180  177.8570  146.1070 C   0  0  0  0  0  3  0  0  0  0  0  0
  185.0710  179.4560  144.3880 C   0  0  0  0  0  3  0  0  0  0  0  0
  186.3320  178.9190  144.1190 C   0  0  0  0  0  3  0  0  0  0  0  0
  1 15  1  0  0  0  0
  2  6  1  1  0  0  0
  2 12  1  0  0  0  0
  3 21  1  0  0  0  0
  4 14  1  0  0  0  0
  5 13  1  0  0  0  0
  7 11  1  0  0  0  0
  8 10  1  0  0  0  0
  8 19  1  0  0  0  0
  9  7  2  0  0  0  0
 12 23  1  1  0  0  0
 12  1  1  0  0  0  0
 13  4  2  0  0  0  0
 13  9  1  0  0  0  0
 14 18  1  0  0  0  0
 14 11  2  0  0  0  0
 15 20  1  0  0  0  0
 16 11  1  6  0  0  0
 16  2  1  0  0  0  0
 16  3  1  0  0  0  0
 17  8  2  0  0  0  0
 18  6  1  0  0  0  0
 20 19  2  0  0  0  0
 21 17  1  0  0  0  0
 21 15  2  0  0  0  0
 22 25  1  0  0  0  0
 23 24  1  0  0  0  0
 24 25  2  0  0  0  0
 26 22  2  0  0  0  0
 27 26  1  0  0  0  0
 27 23  2  0  0  0  0
M  END
>  <MODEL>
1

>  <REMARK>
 VINA RESULT:      -8.1      0.000      0.000
  Name = 
  1 active torsions:
  status: ('A' for Active; 'I' for Inactive)
    1  A    between atoms: C_9  and  C_15
                            x       y       z     vdW  Elec       q    Type
                         _______ _______ _______ _____ _____    ______ ____

>  <TORSDO>
F 1

$$$$
=
 OpenBabel11052418283D

 27 31  0  0  1  0  0  0  0  0999 V2000
  190.7650  174.4600  143.5230 N   0  0  0  0  0  2  0  0  0  0  0  0
  189.9610  176.3920  144.9130 C   0  0  1  0  0  3  0  0  0  0  0  0
  188.4330  176.1950  142.9830 N   0  0  0  0  0  2  0  0  0  0  0  0
  186.7590  177.6790  147.3030 C   0  0  0  0  0  3  0  0  0  0  0  0
  184.5070  178.5170  147.5110 O   0  0  0  0  0  1  0  0  0  0  0  0
  190.0310  176.0970  146.4130 C   0  0  0  0  0  2  0  0  0  0  0  0
  186.2200  176.9130  144.6650 C   0  0  0  0  0  3  0  0  0  0  0  0
  188.6100  174.1330  139.8960 C   0  0  0  0  0  0  0  0  0  0  0  0
  185.2250  177.5200  145.4350 C   0  0  0  0  0  3  0  0  0  0  0  0
  187.9660  174.0440  138.7080 F   0  0  0  0  0  0  0  0  0  0  0  0
  187.4970  176.7030  145.2020 C   0  0  0  0  0  0  0  0  0  0  0  0
  191.0980  175.7680  144.0820 C   0  0  1  0  0  3  0  0  0  0  0  0
  185.4950  177.9080  146.7500 C   0  0  0  0  0  0  0  0  0  0  0  0
  187.7570  177.0670  146.5390 C   0  0  0  0  0  0  0  0  0  0  0  0
  189.9560  174.3230  142.3490 C   0  0  0  0  0  0  0  0  0  0  0  0
  188.5690  175.9870  144.4190 C   0  0  2  0  0  3  0  0  0  0  0  0
  188.2670  175.1390  140.8010 C   0  0  0  0  0  3  0  0  0  0  0  0
  189.0210  176.8400  147.1000 O   0  0  0  0  0  0  0  0  0  0  0  0
  189.5960  173.2020  140.2260 C   0  0  0  0  0  3  0  0  0  0  0  0
  190.2690  173.3010  141.4460 C   0  0  0  0  0  3  0  0  0  0  0  0
  188.9180  175.2370  142.0350 C   0  0  0  0  0  0  0  0  0  0  0  0
  194.9340  175.7170  145.9460 N   0  0  0  0  0  0  0  0  0  0  0  0
  192.4400  175.7670  144.7520 C   0  0  0  0  0  0  0  0  0  0  0  0
  193.0050  174.5540  145.1510 C   0  0  0  0  0  3  0  0  0  0  0  0
  194.2640  174.5490  145.7540 C   0  0  0  0  0  3  0  0  0  0  0  0
  194.4070  176.9100  145.5600 C   0  0  0  0  0  3  0  0  0  0  0  0
  193.1510  176.9580  144.9530 C   0  0  0  0  0  3  0  0  0  0  0  0
  1 12  1  0  0  0  0
  2  6  1  1  0  0  0
  6 18  1  0  0  0  0
  7 11  2  0  0  0  0
  7  9  1  0  0  0  0
  8 19  2  0  0  0  0
  8 17  1  0  0  0  0
  9 13  2  0  0  0  0
 10  8  1  0  0  0  0
 11 14  1  0  0  0  0
 12 23  1  1  0  0  0
 12  2  1  0  0  0  0
 13  4  1  0  0  0  0
 13  5  1  0  0  0  0
 14 18  1  0  0  0  0
 14  4  2  0  0  0  0
 15  1  1  0  0  0  0
 16  3  1  6  0  0  0
 16  2  1  0  0  0  0
 16 11  1  0  0  0  0
 17 21  2  0  0  0  0
 19 20  1  0  0  0  0
 20 15  2  0  0  0  0
 21 15  1  0  0  0  0
 21  3  1  0  0  0  0
 23 27  2  0  0  0  0
 23 24  1  0  0  0  0
 24 25  2  0  0  0  0
 25 22  1  0  0  0  0
 26 22  2  0  0  0  0
 27 26  1  0  0  0  0
M  END
>  <MODEL>
2

>  <REMARK>
 VINA RESULT:      -7.9      3.472      7.239
  Name = 
  1 active torsions:
  status: ('A' for Active; 'I' for Inactive)
    1  A    between atoms: C_9  and  C_15
                            x       y       z     vdW  Elec       q    Type
                         _______ _______ _______ _____ _____    ______ ____

>  <TORSDO>
F 1

$$$$
=
 OpenBabel11052418283D

 27 31  0  0  1  0  0  0  0  0999 V2000
  190.7690  175.6010  143.6730 N   0  0  0  0  0  2  0  0  0  0  0  0
  188.3290  175.4350  143.0990 C   0  0  1  0  0  3  0  0  0  0  0  0
  188.4770  176.2450  145.4260 N   0  0  0  0  0  2  0  0  0  0  0  0
  184.8710  177.7450  142.5260 C   0  0  0  0  0  3  0  0  0  0  0  0
  183.0470  179.0410  143.4260 O   0  0  0  0  0  1  0  0  0  0  0  0
  188.0310  175.9280  141.6810 C   0  0  0  0  0  2  0  0  0  0  0  0
  186.2120  177.9510  144.9750 C   0  0  0  0  0  3  0  0  0  0  0  0
  191.3580  176.5480  147.7550 C   0  0  0  0  0  0  0  0  0  0  0  0
  184.9630  178.5540  144.8080 C   0  0  0  0  0  3  0  0  0  0  0  0
  191.5670  176.7990  149.0700 F   0  0  0  0  0  0  0  0  0  0  0  0
  186.7890  177.2230  143.9250 C   0  0  0  0  0  0  0  0  0  0  0  0
  189.6820  174.7180  143.2580 C   0  0  1  0  0  3  0  0  0  0  0  0
  184.2910  178.4460  143.5870 C   0  0  0  0  0  0  0  0  0  0  0  0
  186.1230  177.1440  142.6850 C   0  0  0  0  0  0  0  0  0  0  0  0
  190.9300  176.0110  145.0360 C   0  0  0  0  0  0  0  0  0  0  0  0
  188.1660  176.6220  144.0540 C   0  0  2  0  0  3  0  0  0  0  0  0
  190.0550  176.4480  147.2630 C   0  0  0  0  0  3  0  0  0  0  0  0
  186.6990  176.4430  141.6170 O   0  0  0  0  0  0  0  0  0  0  0  0
  192.4450  176.4160  146.8890 C   0  0  0  0  0  3  0  0  0  0  0  0
  192.2300  176.1440  145.5360 C   0  0  0  0  0  3  0  0  0  0  0  0
  189.8270  176.1970  145.9060 C   0  0  0  0  0  0  0  0  0  0  0  0
  190.8630  172.2520  139.9830 N   0  0  0  0  0  0  0  0  0  0  0  0
  190.0750  173.8500  142.0980 C   0  0  0  0  0  0  0  0  0  0  0  0
  191.2180  174.1710  141.3610 C   0  0  0  0  0  3  0  0  0  0  0  0
  191.5980  173.3520  140.2960 C   0  0  0  0  0  3  0  0  0  0  0  0
  189.7500  171.9160  140.6900 C   0  0  0  0  0  3  0  0  0  0  0  0
  189.3360  172.7080  141.7640 C   0  0  0  0  0  3  0  0  0  0  0  0
  1 15  1  0  0  0  0
  2  6  1  6  0  0  0
  2 12  1  0  0  0  0
  2 16  1  0  0  0  0
  3 21  1  0  0  0  0
  4 14  2  0  0  0  0
  4 13  1  0  0  0  0
  5 13  1  0  0  0  0
  8 10  1  0  0  0  0
  9  7  1  0  0  0  0
 11  7  2  0  0  0  0
 12 23  1  6  0  0  0
 12  1  1  0  0  0  0
 13  9  2  0  0  0  0
 14 11  1  0  0  0  0
 15 20  2  0  0  0  0
 15 21  1  0  0  0  0
 16 11  1  1  0  0  0
 16  3  1  0  0  0  0
 17  8  1  0  0  0  0
 18  6  1  0  0  0  0
 18 14  1  0  0  0  0
 19  8  2  0  0  0  0
 20 19  1  0  0  0  0
 21 17  2  0  0  0  0
 22 25  2  0  0  0  0
 22 26  1  0  0  0  0
 24 23  2  0  0  0  0
 25 24  1  0  0  0  0
 26 27  2  0  0  0  0
 27 23  1  0  0  0  0
M  END
>  <MODEL>
3

>  <REMARK>
 VINA RESULT:      -7.7      2.005      5.790
  Name = 
  1 active torsions:
  status: ('A' for Active; 'I' for Inactive)
    1  A    between atoms: C_9  and  C_15
                            x       y       z     vdW  Elec       q    Type
                         _______ _______ _______ _____ _____    ______ ____

>  <TORSDO>
F 1

$$$$
=
 OpenBabel11052418283D

 27 31  0  0  1  0  0  0  0  0999 V2000
  187.4640  177.1370  142.6450 N   0  0  0  0  0  2  0  0  0  0  0  0
  188.7170  176.4300  144.7040 C   0  0  1  0  0  3  0  0  0  0  0  0
  189.4710  174.9760  142.8570 N   0  0  0  0  0  2  0  0  0  0  0  0
  192.5610  176.2740  146.3830 C   0  0  0  0  0  3  0  0  0  0  0  0
  194.7490  175.2670  146.5130 O   0  0  0  0  0  1  0  0  0  0  0  0
  189.1740  177.6250  145.5440 C   0  0  0  0  0  2  0  0  0  0  0  0
  192.1380  175.0130  143.9190 C   0  0  0  0  0  3  0  0  0  0  0  0
  188.2120  174.5410  139.3880 C   0  0  0  0  0  0  0  0  0  0  0  0
  193.3440  174.8300  144.6020 C   0  0  0  0  0  3  0  0  0  0  0  0
  188.3980  173.6910  138.3490 F   0  0  0  0  0  0  0  0  0  0  0  0
  191.1280  175.8100  144.4750 C   0  0  0  0  0  0  0  0  0  0  0  0
  187.3570  176.6200  144.0060 C   0  0  1  0  0  3  0  0  0  0  0  0
  193.5530  175.4550  145.8340 C   0  0  0  0  0  0  0  0  0  0  0  0
  191.3550  176.4650  145.7030 C   0  0  0  0  0  0  0  0  0  0  0  0
  187.8100  176.2930  141.5400 C   0  0  0  0  0  0  0  0  0  0  0  0
  189.8460  176.0820  143.7290 C   0  0  2  0  0  3  0  0  0  0  0  0
  188.8560  174.3070  140.6040 C   0  0  0  0  0  3  0  0  0  0  0  0
  190.3660  177.2870  146.2580 O   0  0  0  0  0  0  0  0  0  0  0  0
  187.3970  175.6640  139.2320 C   0  0  0  0  0  3  0  0  0  0  0  0
  187.1950  176.5330  140.3070 C   0  0  0  0  0  3  0  0  0  0  0  0
  188.6790  175.1810  141.6810 C   0  0  0  0  0  0  0  0  0  0  0  0
  184.4160  178.7550  146.2390 N   0  0  0  0  0  0  0  0  0  0  0  0
  186.3340  177.3650  144.8120 C   0  0  0  0  0  0  0  0  0  0  0  0
  185.9390  178.6400  144.4020 C   0  0  0  0  0  3  0  0  0  0  0  0
  184.9700  179.3270  145.1370 C   0  0  0  0  0  3  0  0  0  0  0  0
  184.7800  177.5110  146.6540 C   0  0  0  0  0  3  0  0  0  0  0  0
  185.7450  176.7910  145.9460 C   0  0  0  0  0  3  0  0  0  0  0  0
  1 12  1  0  0  0  0
  2  6  1  6  0  0  0
  6 18  1  0  0  0  0
  7 11  2  0  0  0  0
  7  9  1  0  0  0  0
  8 17  1  0  0  0  0
  9 13  2  0  0  0  0
 10  8  1  0  0  0  0
 11 14  1  0  0  0  0
 12  2  1  0  0  0  0
 12 23  1  1  0  0  0
 13  4  1  0  0  0  0
 13  5  1  0  0  0  0
 14 18  1  0  0  0  0
 14  4  2  0  0  0  0
 15 21  1  0  0  0  0
 15  1  1  0  0  0  0
 16  3  1  1  0  0  0
 16 11  1  0  0  0  0
 16  2  1  0  0  0  0
 17 21  2  0  0  0  0
 19  8  2  0  0  0  0
 19 20  1  0  0  0  0
 20 15  2  0  0  0  0
 21  3  1  0  0  0  0
 22 26  1  0  0  0  0
 23 27  1  0  0  0  0
 24 23  2  0  0  0  0
 24 25  1  0  0  0  0
 25 22  2  0  0  0  0
 27 26  2  0  0  0  0
M  END
>  <MODEL>
4

>  <REMARK>
 VINA RESULT:      -7.6      3.257      5.530
  Name = 
  1 active torsions:
  status: ('A' for Active; 'I' for Inactive)
    1  A    between atoms: C_9  and  C_15
                            x       y       z     vdW  Elec       q    Type
                         _______ _______ _______ _____ _____    ______ ____

>  <TORSDO>
F 1

$$$$
=
 OpenBabel11052418283D

 27 31  0  0  1  0  0  0  0  0999 V2000
  188.6990  175.1540  141.7010 N   0  0  0  0  0  2  0  0  0  0  0  0
  188.3240  176.1190  143.9900 C   0  0  1  0  0  3  0  0  0  0  0  0
  189.4490  173.9430  144.2920 N   0  0  0  0  0  2  0  0  0  0  0  0
  190.3430  177.6180  147.3510 C   0  0  0  0  0  3  0  0  0  0  0  0
  191.6480  177.2490  149.3460 O   0  0  0  0  0  1  0  0  0  0  0  0
  188.6040  177.6230  144.0380 C   0  0  0  0  0  2  0  0  0  0  0  0
  190.9520  175.0260  146.4850 C   0  0  0  0  0  3  0  0  0  0  0  0
  190.2210  171.2090  141.8940 C   0  0  0  0  0  0  0  0  0  0  0  0
  191.4580  175.4960  147.7010 C   0  0  0  0  0  3  0  0  0  0  0  0
  190.6580  169.9280  141.9370 F   0  0  0  0  0  0  0  0  0  0  0  0
  190.1210  175.8420  145.7060 C   0  0  0  0  0  0  0  0  0  0  0  0
  187.7100  175.6230  142.6680 C   0  0  1  0  0  3  0  0  0  0  0  0
  191.1500  176.7870  148.1350 C   0  0  0  0  0  0  0  0  0  0  0  0
  189.8390  177.1560  146.1320 C   0  0  0  0  0  0  0  0  0  0  0  0
  189.2980  173.8560  141.8030 C   0  0  0  0  0  0  0  0  0  0  0  0
  189.6190  175.3880  144.3580 C   0  0  2  0  0  3  0  0  0  0  0  0
  189.9840  171.9050  143.0820 C   0  0  0  0  0  3  0  0  0  0  0  0
  189.0310  177.9940  145.3510 O   0  0  0  0  0  0  0  0  0  0  0  0
  190.0320  171.8420  140.6640 C   0  0  0  0  0  3  0  0  0  0  0  0
  189.5680  173.1590  140.6210 C   0  0  0  0  0  3  0  0  0  0  0  0
  189.5400  173.2310  143.0520 C   0  0  0  0  0  0  0  0  0  0  0  0
  184.8850  178.3200  140.9530 N   0  0  0  0  0  0  0  0  0  0  0  0
  186.7160  176.5590  142.0450 C   0  0  0  0  0  0  0  0  0  0  0  0
  185.6060  176.9710  142.7870 C   0  0  0  0  0  3  0  0  0  0  0  0
  184.6920  177.8590  142.2170 C   0  0  0  0  0  3  0  0  0  0  0  0
  185.9620  177.9390  140.2130 C   0  0  0  0  0  3  0  0  0  0  0  0
  186.9000  177.0530  140.7460 C   0  0  0  0  0  3  0  0  0  0  0  0
  1 15  1  0  0  0  0
  1 12  1  0  0  0  0
  2  6  1  6  0  0  0
  2 16  1  0  0  0  0
  4 13  1  0  0  0  0
  6 18  1  0  0  0  0
  7  9  1  0  0  0  0
  8 10  1  0  0  0  0
  8 17  1  0  0  0  0
  9 13  2  0  0  0  0
 11 14  1  0  0  0  0
 11  7  2  0  0  0  0
 12 23  1  6  0  0  0
 12  2  1  0  0  0  0
 13  5  1  0  0  0  0
 14  4  2  0  0  0  0
 15 21  1  0  0  0  0
 16  3  1  1  0  0  0
 16 11  1  0  0  0  0
 18 14  1  0  0  0  0
 19  8  2  0  0  0  0
 20 19  1  0  0  0  0
 20 15  2  0  0  0  0
 21 17  2  0  0  0  0
 21  3  1  0  0  0  0
 22 25  1  0  0  0  0
 23 24  1  0  0  0  0
 25 24  2  0  0  0  0
 26 27  1  0  0  0  0
 26 22  2  0  0  0  0
 27 23  2  0  0  0  0
M  END
>  <MODEL>
5

>  <REMARK>
 VINA RESULT:      -7.6      3.342      5.906
  Name = 
  1 active torsions:
  status: ('A' for Active; 'I' for Inactive)
    1  A    between atoms: C_9  and  C_15
                            x       y       z     vdW  Elec       q    Type
                         _______ _______ _______ _____ _____    ______ ____

>  <TORSDO>
F 1

$$$$
=
 OpenBabel11052418283D

 27 31  0  0  1  0  0  0  0  0999 V2000
  190.9370  175.7340  142.7890 N   0  0  0  0  0  2  0  0  0  0  0  0
  188.5880  175.3620  143.6010 C   0  0  1  0  0  3  0  0  0  0  0  0
  189.9460  176.0010  145.5620 N   0  0  0  0  0  2  0  0  0  0  0  0
  185.2790  177.3400  145.2600 C   0  0  0  0  0  3  0  0  0  0  0  0
  184.1840  178.3670  147.1480 O   0  0  0  0  0  1  0  0  0  0  0  0
  187.5440  175.9300  142.6370 C   0  0  0  0  0  2  0  0  0  0  0  0
  187.7270  177.4930  146.6080 C   0  0  0  0  0  3  0  0  0  0  0  0
  193.6130  176.4190  145.9950 C   0  0  0  0  0  0  0  0  0  0  0  0
  186.5630  177.9750  147.2130 C   0  0  0  0  0  3  0  0  0  0  0  0
  194.4940  176.5880  147.0100 F   0  0  0  0  0  0  0  0  0  0  0  0
  187.6710  176.9130  145.3340 C   0  0  0  0  0  0  0  0  0  0  0  0
  189.8400  174.7780  142.9190 C   0  0  1  0  0  3  0  0  0  0  0  0
  185.3400  177.8940  146.5420 C   0  0  0  0  0  0  0  0  0  0  0  0
  186.4400  176.8610  144.6470 C   0  0  0  0  0  0  0  0  0  0  0  0
  191.7970  176.0520  143.8900 C   0  0  0  0  0  0  0  0  0  0  0  0
  188.9200  176.4480  144.6290 C   0  0  2  0  0  3  0  0  0  0  0  0
  192.2590  176.2230  146.2710 C   0  0  0  0  0  3  0  0  0  0  0  0
  186.3710  176.3070  143.3620 O   0  0  0  0  0  0  0  0  0  0  0  0
  194.0570  176.4670  144.6720 C   0  0  0  0  0  3  0  0  0  0  0  0
  193.1520  176.2800  143.6250 C   0  0  0  0  0  3  0  0  0  0  0  0
  191.3390  176.0550  145.2310 C   0  0  0  0  0  0  0  0  0  0  0  0
  189.1500  172.6770  139.2720 N   0  0  0  0  0  0  0  0  0  0  0  0
  189.5760  174.0480  141.6360 C   0  0  0  0  0  0  0  0  0  0  0  0
  190.5370  174.0770  140.6230 C   0  0  0  0  0  3  0  0  0  0  0  0
  190.3020  173.3800  139.4360 C   0  0  0  0  0  3  0  0  0  0  0  0
  188.2020  172.6280  140.2470 C   0  0  0  0  0  3  0  0  0  0  0  0
  188.3980  173.3110  141.4500 C   0  0  0  0  0  3  0  0  0  0  0  0
  1 12  1  0  0  0  0
  1 15  1  0  0  0  0
  2  6  1  6  0  0  0
  2 16  1  0  0  0  0
  4 13  1  0  0  0  0
  6 18  1  0  0  0  0
  7  9  1  0  0  0  0
  8 17  1  0  0  0  0
  8 10  1  0  0  0  0
 11  7  2  0  0  0  0
 12 23  1  6  0  0  0
 12  2  1  0  0  0  0
 13  5  1  0  0  0  0
 13  9  2  0  0  0  0
 14  4  2  0  0  0  0
 14 11  1  0  0  0  0
 15 21  1  0  0  0  0
 16 11  1  1  0  0  0
 16  3  1  0  0  0  0
 18 14  1  0  0  0  0
 19  8  2  0  0  0  0
 20 15  2  0  0  0  0
 20 19  1  0  0  0  0
 21  3  1  0  0  0  0
 21 17  2  0  0  0  0
 22 25  2  0  0  0  0
 22 26  1  0  0  0  0
 24 23  2  0  0  0  0
 25 24  1  0  0  0  0
 26 27  2  0  0  0  0
 27 23  1  0  0  0  0
M  END
>  <MODEL>
6

>  <REMARK>
 VINA RESULT:      -7.6      2.220      5.920
  Name = 
  1 active torsions:
  status: ('A' for Active; 'I' for Inactive)
    1  A    between atoms: C_9  and  C_15
                            x       y       z     vdW  Elec       q    Type
                         _______ _______ _______ _____ _____    ______ ____

>  <TORSDO>
F 1

$$$$
=
 OpenBabel11052418283D

 27 31  0  0  1  0  0  0  0  0999 V2000
  188.2050  177.6150  144.5810 N   0  0  0  0  0  2  0  0  0  0  0  0
  189.0880  175.4340  143.7000 C   0  0  1  0  0  3  0  0  0  0  0  0
  186.9490  175.8730  142.5490 N   0  0  0  0  0  2  0  0  0  0  0  0
  190.5650  173.5890  140.2310 C   0  0  0  0  0  3  0  0  0  0  0  0
  190.1900  172.6070  138.0610 O   0  0  0  0  0  1  0  0  0  0  0  0
  190.6000  175.4730  143.4640 C   0  0  0  0  0  2  0  0  0  0  0  0
  188.0250  174.7620  140.1300 C   0  0  0  0  0  3  0  0  0  0  0  0
  184.3190  178.4360  143.1200 C   0  0  0  0  0  0  0  0  0  0  0  0
  188.4790  173.9790  139.0640 C   0  0  0  0  0  3  0  0  0  0  0  0
  183.0550  178.6910  142.7040 F   0  0  0  0  0  0  0  0  0  0  0  0
  188.8310  174.9460  141.2620 C   0  0  0  0  0  0  0  0  0  0  0  0
  188.6080  176.2510  144.9140 C   0  0  1  0  0  3  0  0  0  0  0  0
  189.7440  173.3890  139.1170 C   0  0  0  0  0  0  0  0  0  0  0  0
  190.1200  174.3750  141.2980 C   0  0  0  0  0  0  0  0  0  0  0  0
  186.9290  177.9050  143.9960 C   0  0  0  0  0  0  0  0  0  0  0  0
  188.3980  175.8410  142.3950 C   0  0  2  0  0  3  0  0  0  0  0  0
  184.9690  177.2740  142.7020 C   0  0  0  0  0  3  0  0  0  0  0  0
  190.9480  174.5710  142.4110 O   0  0  0  0  0  0  0  0  0  0  0  0
  184.9790  179.3500  143.9440 C   0  0  0  0  0  3  0  0  0  0  0  0
  186.2770  179.0810  144.3830 C   0  0  0  0  0  3  0  0  0  0  0  0
  186.2770  177.0030  143.1180 C   0  0  0  0  0  0  0  0  0  0  0  0
  191.1690  176.1820  148.3240 N   0  0  0  0  0  0  0  0  0  0  0  0
  189.5210  176.2100  146.1030 C   0  0  0  0  0  0  0  0  0  0  0  0
  189.9860  177.4080  146.6500 C   0  0  0  0  0  3  0  0  0  0  0  0
  190.8190  177.3730  147.7700 C   0  0  0  0  0  3  0  0  0  0  0  0
  190.7240  175.0020  147.8130 C   0  0  0  0  0  3  0  0  0  0  0  0
  189.8890  174.9940  146.6940 C   0  0  0  0  0  3  0  0  0  0  0  0
  1 12  1  0  0  0  0
  2  6  1  6  0  0  0
  2 12  1  0  0  0  0
  3 21  1  0  0  0  0
  4 14  1  0  0  0  0
  5 13  1  0  0  0  0
  7 11  1  0  0  0  0
  8 19  1  0  0  0  0
  9 13  1  0  0  0  0
  9  7  2  0  0  0  0
 10  8  1  0  0  0  0
 11 14  2  0  0  0  0
 12 23  1  1  0  0  0
 13  4  2  0  0  0  0
 14 18  1  0  0  0  0
 15 20  1  0  0  0  0
 15  1  1  0  0  0  0
 16 11  1  6  0  0  0
 16  3  1  0  0  0  0
 16  2  1  0  0  0  0
 17 21  1  0  0  0  0
 17  8  2  0  0  0  0
 18  6  1  0  0  0  0
 19 20  2  0  0  0  0
 21 15  2  0  0  0  0
 23 24  2  0  0  0  0
 23 27  1  0  0  0  0
 24 25  1  0  0  0  0
 25 22  2  0  0  0  0
 26 22  1  0  0  0  0
 27 26  2  0  0  0  0
M  END
>  <MODEL>
7

>  <REMARK>
 VINA RESULT:      -7.4      2.917      5.269
  Name = 
  1 active torsions:
  status: ('A' for Active; 'I' for Inactive)
    1  A    between atoms: C_9  and  C_15
                            x       y       z     vdW  Elec       q    Type
                         _______ _______ _______ _____ _____    ______ ____

>  <TORSDO>
F 1

$$$$
=
 OpenBabel11052418283D

 27 31  0  0  1  0  0  0  0  0999 V2000
  188.0490  175.6790  141.0930 N   0  0  0  0  0  2  0  0  0  0  0  0
  188.9180  175.9500  143.4350 C   0  0  1  0  0  3  0  0  0  0  0  0
  189.9770  173.9280  142.4940 N   0  0  0  0  0  2  0  0  0  0  0  0
  192.4060  176.7440  145.6290 C   0  0  0  0  0  3  0  0  0  0  0  0
  194.5330  176.0260  146.5130 O   0  0  0  0  0  1  0  0  0  0  0  0
  189.2260  177.4100  143.7740 C   0  0  0  0  0  2  0  0  0  0  0  0
  192.4160  174.5700  143.8650 C   0  0  0  0  0  3  0  0  0  0  0  0
  189.3440  172.0460  139.3520 C   0  0  0  0  0  0  0  0  0  0  0  0
  193.4830  174.7610  144.7480 C   0  0  0  0  0  3  0  0  0  0  0  0
  189.7060  170.8640  138.7980 F   0  0  0  0  0  0  0  0  0  0  0  0
  191.3280  175.4540  143.8730 C   0  0  0  0  0  0  0  0  0  0  0  0
  187.7030  175.7490  142.5100 C   0  0  1  0  0  3  0  0  0  0  0  0
  193.4750  175.8420  145.6320 C   0  0  0  0  0  0  0  0  0  0  0  0
  191.3400  176.5620  144.7450 C   0  0  0  0  0  0  0  0  0  0  0  0
  188.5800  174.4860  140.5030 C   0  0  0  0  0  0  0  0  0  0  0  0
  190.1980  175.3140  142.8850 C   0  0  2  0  0  3  0  0  0  0  0  0
  189.7640  172.3660  140.6440 C   0  0  0  0  0  3  0  0  0  0  0  0
  190.2720  177.4700  144.7470 O   0  0  0  0  0  0  0  0  0  0  0  0
  188.5750  172.9530  138.6210 C   0  0  0  0  0  3  0  0  0  0  0  0
  188.1910  174.1650  139.1980 C   0  0  0  0  0  3  0  0  0  0  0  0
  189.4040  173.5870  141.2250 C   0  0  0  0  0  0  0  0  0  0  0  0
  184.4170  178.3870  143.1720 N   0  0  0  0  0  0  0  0  0  0  0  0
  186.5580  176.6850  142.7620 C   0  0  0  0  0  0  0  0  0  0  0  0
  186.0450  177.4390  141.7040 C   0  0  0  0  0  3  0  0  0  0  0  0
  184.9650  178.2940  141.9310 C   0  0  0  0  0  3  0  0  0  0  0  0
  184.8940  177.6580  144.2170 C   0  0  0  0  0  3  0  0  0  0  0  0
  185.9730  176.7910  144.0320 C   0  0  0  0  0  3  0  0  0  0  0  0
  1 12  1  0  0  0  0
  2  6  1  6  0  0  0
  4 13  1  0  0  0  0
  6 18  1  0  0  0  0
  7 11  2  0  0  0  0
  7  9  1  0  0  0  0
  8 17  1  0  0  0  0
  9 13  2  0  0  0  0
 10  8  1  0  0  0  0
 11 14  1  0  0  0  0
 12 23  1  6  0  0  0
 12  2  1  0  0  0  0
 13  5  1  0  0  0  0
 14 18  1  0  0  0  0
 14  4  2  0  0  0  0
 15  1  1  0  0  0  0
 15 21  1  0  0  0  0
 16  3  1  1  0  0  0
 16  2  1  0  0  0  0
 16 11  1  0  0  0  0
 17 21  2  0  0  0  0
 19 20  1  0  0  0  0
 19  8  2  0  0  0  0
 20 15  2  0  0  0  0
 21  3  1  0  0  0  0
 22 26  1  0  0  0  0
 23 27  1  0  0  0  0
 24 25  1  0  0  0  0
 24 23  2  0  0  0  0
 25 22  2  0  0  0  0
 27 26  2  0  0  0  0
M  END
>  <MODEL>
8

>  <REMARK>
 VINA RESULT:      -7.3      3.334      5.791
  Name = 
  1 active torsions:
  status: ('A' for Active; 'I' for Inactive)
    1  A    between atoms: C_9  and  C_15
                            x       y       z     vdW  Elec       q    Type
                         _______ _______ _______ _____ _____    ______ ____

>  <TORSDO>
F 1

$$$$
=
 OpenBabel11052418283D

 27 31  0  0  1  0  0  0  0  0999 V2000
  189.6330  174.6150  142.4140 N   0  0  0  0  0  2  0  0  0  0  0  0
  189.2450  176.2600  144.2730 C   0  0  1  0  0  3  0  0  0  0  0  0
  187.6830  176.8380  142.4510 N   0  0  0  0  0  2  0  0  0  0  0  0
  186.3960  177.4960  147.0950 C   0  0  0  0  0  3  0  0  0  0  0  0
  184.3570  178.6650  147.6380 O   0  0  0  0  0  1  0  0  0  0  0  0
  189.2770  175.5960  145.6510 C   0  0  0  0  0  2  0  0  0  0  0  0
  185.6790  177.5210  144.3890 C   0  0  0  0  0  3  0  0  0  0  0  0
  187.4040  175.6060  138.9550 C   0  0  0  0  0  0  0  0  0  0  0  0
  184.8340  178.0950  145.3430 C   0  0  0  0  0  3  0  0  0  0  0  0
  186.7390  175.9370  137.8220 F   0  0  0  0  0  0  0  0  0  0  0  0
  186.8970  176.9490  144.7810 C   0  0  0  0  0  0  0  0  0  0  0  0
  190.2250  175.6580  143.2480 C   0  0  1  0  0  3  0  0  0  0  0  0
  185.1940  178.0880  146.6930 C   0  0  0  0  0  0  0  0  0  0  0  0
  187.2420  176.9150  146.1470 C   0  0  0  0  0  0  0  0  0  0  0  0
  188.7960  174.9280  141.2930 C   0  0  0  0  0  0  0  0  0  0  0  0
  187.7940  176.2600  143.7840 C   0  0  2  0  0  3  0  0  0  0  0  0
  187.2800  176.4040  140.0940 C   0  0  0  0  0  3  0  0  0  0  0  0
  188.4440  176.3230  146.5580 O   0  0  0  0  0  0  0  0  0  0  0  0
  188.1920  174.4540  138.9910 C   0  0  0  0  0  3  0  0  0  0  0  0
  188.8880  174.1200  140.1540 C   0  0  0  0  0  3  0  0  0  0  0  0
  187.9550  176.0690  141.2730 C   0  0  0  0  0  0  0  0  0  0  0  0
  194.0030  174.4310  144.8000 N   0  0  0  0  0  0  0  0  0  0  0  0
  191.5500  175.2390  143.8130 C   0  0  0  0  0  0  0  0  0  0  0  0
  191.9140  173.8910  143.7770 C   0  0  0  0  0  3  0  0  0  0  0  0
  193.1560  173.5030  144.2820 C   0  0  0  0  0  3  0  0  0  0  0  0
  193.6740  175.7500  144.8400 C   0  0  0  0  0  3  0  0  0  0  0  0
  192.4420  176.1810  144.3450 C   0  0  0  0  0  3  0  0  0  0  0  0
  1 12  1  0  0  0  0
  2  6  1  1  0  0  0
  6 18  1  0  0  0  0
  7 11  2  0  0  0  0
  7  9  1  0  0  0  0
  8 19  2  0  0  0  0
  8 17  1  0  0  0  0
  9 13  2  0  0  0  0
 10  8  1  0  0  0  0
 11 14  1  0  0  0  0
 12 23  1  1  0  0  0
 12  2  1  0  0  0  0
 13  4  1  0  0  0  0
 13  5  1  0  0  0  0
 14 18  1  0  0  0  0
 14  4  2  0  0  0  0
 15  1  1  0  0  0  0
 16  3  1  6  0  0  0
 16  2  1  0  0  0  0
 16 11  1  0  0  0  0
 17 21  2  0  0  0  0
 19 20  1  0  0  0  0
 20 15  2  0  0  0  0
 21 15  1  0  0  0  0
 21  3  1  0  0  0  0
 22 26  1  0  0  0  0
 23 27  1  0  0  0  0
 24 23  2  0  0  0  0
 24 25  1  0  0  0  0
 25 22  2  0  0  0  0
 27 26  2  0  0  0  0
M  END
>  <MODEL>
9

>  <REMARK>
 VINA RESULT:      -7.0      3.578      7.432
  Name = 
  1 active torsions:
  status: ('A' for Active; 'I' for Inactive)
    1  A    between atoms: C_9  and  C_15
                            x       y       z     vdW  Elec       q    Type
                         _______ _______ _______ _____ _____    ______ ____

>  <TORSDO>
F 1

$$$$
