=
 OpenBabel11052420103D

 37 37  0  0  1  0  0  0  0  0999 V2000
  190.6110  175.7400  145.1900 C   0  0  2  0  0  3  0  0  0  0  0  0
  192.0020  175.7090  145.8310 C   0  0  2  0  0  3  0  0  0  0  0  0
  191.8930  175.7920  147.2200 O   0  0  0  0  0  1  0  0  0  0  0  0
  192.9000  176.8220  145.2980 C   0  0  0  0  0  2  0  0  0  0  0  0
  194.9510  177.9170  145.8740 O   0  0  0  0  0  1  0  0  0  0  0  0
  194.3250  176.6710  145.8100 C   0  0  2  0  0  3  0  0  0  0  0  0
  195.1060  175.7540  144.9210 C   0  0  0  0  0  0  0  0  0  0  0  0
  195.8720  174.8160  145.4750 C   0  0  0  0  0  2  0  0  0  0  0  0
  196.6530  176.2240  143.0440 C   0  0  0  0  0  1  0  0  0  0  0  0
  195.2060  176.0220  143.4510 C   0  0  0  0  0  2  0  0  0  0  0  0
  190.7170  175.8140  143.7950 O   0  0  0  0  0  0  0  0  0  0  0  0
  189.8530  174.4890  143.1680 P   0  0  2  0  0  0  0  0  0  0  0  0
  188.2710  174.9610  142.7970 O   0  0  0  0  0  0  0  0  0  0  0  0
  189.7930  173.4170  144.2320 O   0  0  0  0  0  1  0  0  0  0  0  0
  190.6550  173.7820  141.6800 C   0  0  1  0  0  3  0  0  0  0  0  0
  192.9130  173.1510  142.8710 C   0  0  0  0  0  1  0  0  0  0  0  0
  192.1580  173.8360  141.7760 C   0  0  0  0  0  0  0  0  0  0  0  0
  192.8540  174.3790  140.7790 C   0  0  0  0  0  2  0  0  0  0  0  0
  190.1300  172.3800  141.3990 C   0  0  0  0  0  2  0  0  0  0  0  0
  189.6510  172.2690  139.9620 C   0  0  0  0  0  2  0  0  0  0  0  0
  189.0170  173.5720  139.5130 C   0  0  0  0  0  2  0  0  0  0  0  0
  188.4040  173.4170  138.1330 C   0  0  0  0  0  2  0  0  0  0  0  0
  189.3530  173.9780  137.0960 C   0  0  0  0  0  1  0  0  0  0  0  0
  189.7840  176.9100  145.7130 C   0  0  0  0  0  2  0  0  0  0  0  0
  188.5750  176.4470  146.2390 O   0  0  0  0  0  0  0  0  0  0  0  0
  186.7680  177.7280  147.2660 C   0  0  0  0  0  0  0  0  0  0  0  0
  188.1550  177.4310  147.0700 N   0  0  0  0  0  2  0  0  0  0  0  0
  186.4490  178.6920  148.0110 O   0  0  0  0  0  0  0  0  0  0  0  0
  185.4340  177.4420  145.0780 C   0  0  2  0  0  3  0  0  0  0  0  0
  184.5130  177.8800  146.1950 C   0  0  0  0  0  2  0  0  0  0  0  0
  185.6900  176.9800  146.5240 C   0  0  2  0  0  3  0  0  0  0  0  0
  186.2700  178.6390  144.5960 C   0  0  2  0  0  3  0  0  0  0  0  0
  185.4060  179.8260  144.1840 C   0  0  0  0  0  1  0  0  0  0  0  0
  187.2250  178.2910  143.6120 O   0  0  0  0  0  0  0  0  0  0  0  0
  186.6110  178.3010  142.3480 C   0  0  0  0  0  2  0  0  0  0  0  0
  188.7810  178.2270  141.9690 C   0  0  0  0  0  1  0  0  0  0  0  0
  187.5490  177.9640  141.3720 O   0  0  0  0  0  0  0  0  0  0  0  0
  1 24  1  1  0  0  0
  1  2  1  0  0  0  0
  2  3  1  1  0  0  0
  4  6  1  0  0  0  0
  4  2  1  0  0  0  0
  6  5  1  6  0  0  0
  7  8  2  0  0  0  0
  7  6  1  0  0  0  0
  9 10  1  0  0  0  0
 10  7  1  0  0  0  0
 11  1  1  0  0  0  0
 12 13  2  6  0  0  0
 12 11  1  0  0  0  0
 12 14  1  0  0  0  0
 15 19  1  1  0  0  0
 15 17  1  0  0  0  0
 15 12  1  0  0  0  0
 17 16  1  0  0  0  0
 18 17  2  0  0  0  0
 20 19  1  0  0  0  0
 21 20  1  0  0  0  0
 22 21  1  0  0  0  0
 23 22  1  0  0  0  0
 24 25  1  0  0  0  0
 25 27  1  0  0  0  0
 26 28  2  0  0  0  0
 27 26  1  0  0  0  0
 29 32  1  1  0  0  0
 29 30  1  0  0  0  0
 29 31  1  0  0  0  0
 30 31  1  0  0  0  0
 31 26  1  1  0  0  0
 32 33  1  6  0  0  0
 34 32  1  0  0  0  0
 35 34  1  0  0  0  0
 37 36  1  0  0  0  0
 37 35  1  0  0  0  0
M  END
>  <MODEL>
1

>  <REMARK>
 VINA RESULT:      -5.4      0.000      0.000
  Name = 
  21 active torsions:
  status: ('A' for Active; 'I' for Inactive)
    1  A    between atoms: C_1  and  O_17
    2  A    between atoms: C_1  and  C_26
    3  A    between atoms: C_2  and  C_19
    4  A    between atoms: C_2  and  C_35
    5  A    between atoms: C_3  and  C_32
    6  A    between atoms: P_4  and  O_10
    7  A    between atoms: P_4  and  C_13
    8  A    between atoms: C_5  and  O_17
    9  A    between atoms: C_5  and  O_23
   10  A    between atoms: C_6  and  C_31
   11  A    between atoms: C_6  and  C_35
   12  A    between atoms: C_7  and  C_14
   13  A    between atoms: C_7  and  O_27
   14  A    between atoms: O_10  and  C_14
   15  A    between atoms: C_11  and  C_36
   16  A    between atoms: C_13  and  C_16
   17  A    between atoms: C_13  and  C_20
   18  A    between atoms: C_14  and  C_31
   19  A    between atoms: C_20  and  C_25
   20  A    between atoms: C_25  and  C_32
   21  A    between atoms: O_27  and  N_33
                            x       y       z     vdW  Elec       q    Type
                         _______ _______ _______ _____ _____    ______ ____

>  <TORSDO>
F 21

$$$$
=
 OpenBabel11052420103D

 37 37  0  0  1  0  0  0  0  0999 V2000
  188.4980  174.6350  142.3480 C   0  0  2  0  0  3  0  0  0  0  0  0
  187.3340  175.3090  141.6160 C   0  0  2  0  0  3  0  0  0  0  0  0
  187.8080  176.0210  140.5120 O   0  0  0  0  0  1  0  0  0  0  0  0
  186.5360  176.2260  142.5390 C   0  0  0  0  0  2  0  0  0  0  0  0
  187.5370  178.3910  142.3200 O   0  0  0  0  0  1  0  0  0  0  0  0
  186.4250  177.6280  141.9580 C   0  0  2  0  0  3  0  0  0  0  0  0
  185.1740  178.2950  142.4370 C   0  0  0  0  0  0  0  0  0  0  0  0
  184.0790  178.2300  141.6810 C   0  0  0  0  0  2  0  0  0  0  0  0
  183.9470  179.0350  144.4590 C   0  0  0  0  0  1  0  0  0  0  0  0
  185.2020  179.2070  143.6250 C   0  0  0  0  0  2  0  0  0  0  0  0
  189.6950  175.3190  142.0990 O   0  0  0  0  0  0  0  0  0  0  0  0
  190.2080  175.9630  143.5890 P   0  0  2  0  0  0  0  0  0  0  0  0
  190.4020  177.6380  143.4530 O   0  0  0  0  0  0  0  0  0  0  0  0
  191.5480  175.3540  143.9310 O   0  0  0  0  0  1  0  0  0  0  0  0
  189.0360  175.5820  144.9460 C   0  0  1  0  0  3  0  0  0  0  0  0
  189.8060  173.1350  145.5250 C   0  0  0  0  0  1  0  0  0  0  0  0
  189.6030  174.5680  145.9060 C   0  0  0  0  0  0  0  0  0  0  0  0
  190.0810  174.9790  147.0780 C   0  0  0  0  0  2  0  0  0  0  0  0
  188.5790  176.8600  145.6370 C   0  0  0  0  0  2  0  0  0  0  0  0
  187.0790  176.8290  145.8730 C   0  0  0  0  0  2  0  0  0  0  0  0
  186.7680  177.0570  147.3420 C   0  0  0  0  0  2  0  0  0  0  0  0
  185.5420  177.9380  147.4950 C   0  0  0  0  0  2  0  0  0  0  0  0
  185.9740  179.3850  147.6010 C   0  0  0  0  0  1  0  0  0  0  0  0
  188.6380  173.1720  141.9380 C   0  0  0  0  0  2  0  0  0  0  0  0
  189.9630  172.7550  142.0900 O   0  0  0  0  0  0  0  0  0  0  0  0
  190.7750  170.5100  141.5770 C   0  0  0  0  0  0  0  0  0  0  0  0
  189.8910  171.4110  142.2530 N   0  0  0  0  0  2  0  0  0  0  0  0
  190.6170  169.2700  141.7320 O   0  0  0  0  0  0  0  0  0  0  0  0
  191.3460  171.1930  139.1570 C   0  0  2  0  0  3  0  0  0  0  0  0
  192.1380  169.9660  139.5520 C   0  0  0  0  0  2  0  0  0  0  0  0
  191.8190  171.0070  140.6110 C   0  0  2  0  0  3  0  0  0  0  0  0
  189.8880  170.7980  138.8690 C   0  0  2  0  0  3  0  0  0  0  0  0
  189.7720  169.7880  137.7320 C   0  0  0  0  0  1  0  0  0  0  0  0
  189.0330  171.9130  138.6990 O   0  0  0  0  0  0  0  0  0  0  0  0
  189.7750  172.9900  138.1850 C   0  0  0  0  0  2  0  0  0  0  0  0
  189.0240  174.3710  136.6400 C   0  0  0  0  0  1  0  0  0  0  0  0
  188.9340  174.0880  138.0020 O   0  0  0  0  0  0  0  0  0  0  0  0
  1 24  1  6  0  0  0
  2  3  1  6  0  0  0
  2  1  1  0  0  0  0
  2  4  1  0  0  0  0
  6  5  1  1  0  0  0
  6  7  1  0  0  0  0
  6  4  1  0  0  0  0
  7 10  1  0  0  0  0
  8  7  2  0  0  0  0
 10  9  1  0  0  0  0
 11  1  1  0  0  0  0
 11 12  1  0  0  0  0
 12 13  2  6  0  0  0
 12 14  1  0  0  0  0
 12 15  1  0  0  0  0
 15 19  1  1  0  0  0
 15 17  1  0  0  0  0
 16 17  1  0  0  0  0
 17 18  2  0  0  0  0
 19 20  1  0  0  0  0
 20 21  1  0  0  0  0
 21 22  1  0  0  0  0
 22 23  1  0  0  0  0
 24 25  1  0  0  0  0
 25 27  1  0  0  0  0
 26 28  2  0  0  0  0
 26 27  1  0  0  0  0
 29 32  1  1  0  0  0
 29 30  1  0  0  0  0
 29 31  1  0  0  0  0
 30 31  1  0  0  0  0
 31 26  1  1  0  0  0
 32 33  1  6  0  0  0
 34 32  1  0  0  0  0
 35 34  1  0  0  0  0
 36 37  1  0  0  0  0
 37 35  1  0  0  0  0
M  END
>  <MODEL>
2

>  <REMARK>
 VINA RESULT:      -5.3      3.420      8.485
  Name = 
  21 active torsions:
  status: ('A' for Active; 'I' for Inactive)
    1  A    between atoms: C_1  and  O_17
    2  A    between atoms: C_1  and  C_26
    3  A    between atoms: C_2  and  C_19
    4  A    between atoms: C_2  and  C_35
    5  A    between atoms: C_3  and  C_32
    6  A    between atoms: P_4  and  O_10
    7  A    between atoms: P_4  and  C_13
    8  A    between atoms: C_5  and  O_17
    9  A    between atoms: C_5  and  O_23
   10  A    between atoms: C_6  and  C_31
   11  A    between atoms: C_6  and  C_35
   12  A    between atoms: C_7  and  C_14
   13  A    between atoms: C_7  and  O_27
   14  A    between atoms: O_10  and  C_14
   15  A    between atoms: C_11  and  C_36
   16  A    between atoms: C_13  and  C_16
   17  A    between atoms: C_13  and  C_20
   18  A    between atoms: C_14  and  C_31
   19  A    between atoms: C_20  and  C_25
   20  A    between atoms: C_25  and  C_32
   21  A    between atoms: O_27  and  N_33
                            x       y       z     vdW  Elec       q    Type
                         _______ _______ _______ _____ _____    ______ ____

>  <TORSDO>
F 21

$$$$
=
 OpenBabel11052420103D

 37 37  0  0  1  0  0  0  0  0999 V2000
  190.4290  176.2670  144.3040 C   0  0  2  0  0  3  0  0  0  0  0  0
  191.6000  177.2000  144.6250 C   0  0  2  0  0  3  0  0  0  0  0  0
  191.5060  178.3690  143.8680 O   0  0  0  0  0  1  0  0  0  0  0  0
  192.9480  176.5220  144.3960 C   0  0  0  0  0  2  0  0  0  0  0  0
  194.6500  177.1760  145.9500 O   0  0  0  0  0  1  0  0  0  0  0  0
  193.6480  176.2320  145.7160 C   0  0  2  0  0  3  0  0  0  0  0  0
  194.2390  174.8570  145.7030 C   0  0  0  0  0  0  0  0  0  0  0  0
  193.4250  173.8050  145.7680 C   0  0  0  0  0  2  0  0  0  0  0  0
  196.0920  173.2180  145.5660 C   0  0  0  0  0  1  0  0  0  0  0  0
  195.7170  174.6610  145.8440 C   0  0  0  0  0  2  0  0  0  0  0  0
  190.4780  175.8660  142.9620 O   0  0  0  0  0  0  0  0  0  0  0  0
  190.1240  174.2020  142.9380 P   0  0  2  0  0  0  0  0  0  0  0  0
  188.5550  173.9570  142.3540 O   0  0  0  0  0  0  0  0  0  0  0  0
  190.1910  173.6820  144.3560 O   0  0  0  0  0  1  0  0  0  0  0  0
  191.3200  173.2560  141.9200 C   0  0  1  0  0  3  0  0  0  0  0  0
  190.4460  170.7880  142.1680 C   0  0  0  0  0  1  0  0  0  0  0  0
  190.6980  172.0100  141.3420 C   0  0  0  0  0  0  0  0  0  0  0  0
  190.2190  172.0380  140.1010 C   0  0  0  0  0  2  0  0  0  0  0  0
  191.9500  174.1500  140.8590 C   0  0  0  0  0  2  0  0  0  0  0  0
  193.4390  173.8760  140.7490 C   0  0  0  0  0  2  0  0  0  0  0  0
  194.0700  173.8140  142.1290 C   0  0  0  0  0  2  0  0  0  0  0  0
  195.3460  174.6350  142.1660 C   0  0  0  0  0  2  0  0  0  0  0  0
  196.4790  173.8290  141.5680 C   0  0  0  0  0  1  0  0  0  0  0  0
  189.0890  176.9350  144.6000 C   0  0  0  0  0  2  0  0  0  0  0  0
  188.4620  176.2970  145.6740 O   0  0  0  0  0  0  0  0  0  0  0  0
  186.8350  177.6600  146.8810 C   0  0  0  0  0  0  0  0  0  0  0  0
  188.1790  177.2890  146.5530 N   0  0  0  0  0  2  0  0  0  0  0  0
  186.6430  178.6270  147.6640 O   0  0  0  0  0  0  0  0  0  0  0  0
  185.1990  177.5840  144.8890 C   0  0  2  0  0  3  0  0  0  0  0  0
  184.4530  177.9160  146.1620 C   0  0  0  0  0  2  0  0  0  0  0  0
  185.6520  176.9870  146.2340 C   0  0  2  0  0  3  0  0  0  0  0  0
  185.9770  178.8200  144.4060 C   0  0  2  0  0  3  0  0  0  0  0  0
  185.1780  180.1100  144.5670 C   0  0  0  0  0  1  0  0  0  0  0  0
  186.5120  178.6680  143.1060 O   0  0  0  0  0  0  0  0  0  0  0  0
  185.8500  177.6130  142.4540 C   0  0  0  0  0  2  0  0  0  0  0  0
  186.8730  177.3870  140.5150 C   0  0  0  0  0  1  0  0  0  0  0  0
  186.7840  176.8210  141.7850 O   0  0  0  0  0  0  0  0  0  0  0  0
  1 24  1  6  0  0  0
  1  2  1  0  0  0  0
  2  3  1  6  0  0  0
  4  2  1  0  0  0  0
  4  6  1  0  0  0  0
  6  5  1  6  0  0  0
  7  6  1  0  0  0  0
  7  8  2  0  0  0  0
  7 10  1  0  0  0  0
  9 10  1  0  0  0  0
 11  1  1  0  0  0  0
 12 13  2  6  0  0  0
 12 11  1  0  0  0  0
 12 14  1  0  0  0  0
 15 19  1  6  0  0  0
 15 12  1  0  0  0  0
 17 15  1  0  0  0  0
 17 16  1  0  0  0  0
 18 17  2  0  0  0  0
 20 19  1  0  0  0  0
 20 21  1  0  0  0  0
 21 22  1  0  0  0  0
 23 22  1  0  0  0  0
 24 25  1  0  0  0  0
 25 27  1  0  0  0  0
 26 28  2  0  0  0  0
 27 26  1  0  0  0  0
 29 32  1  1  0  0  0
 29 30  1  0  0  0  0
 29 31  1  0  0  0  0
 30 31  1  0  0  0  0
 31 26  1  1  0  0  0
 32 33  1  6  0  0  0
 34 32  1  0  0  0  0
 35 34  1  0  0  0  0
 36 37  1  0  0  0  0
 37 35  1  0  0  0  0
M  END
>  <MODEL>
3

>  <REMARK>
 VINA RESULT:      -5.3      1.442      2.844
  Name = 
  21 active torsions:
  status: ('A' for Active; 'I' for Inactive)
    1  A    between atoms: C_1  and  O_17
    2  A    between atoms: C_1  and  C_26
    3  A    between atoms: C_2  and  C_19
    4  A    between atoms: C_2  and  C_35
    5  A    between atoms: C_3  and  C_32
    6  A    between atoms: P_4  and  O_10
    7  A    between atoms: P_4  and  C_13
    8  A    between atoms: C_5  and  O_17
    9  A    between atoms: C_5  and  O_23
   10  A    between atoms: C_6  and  C_31
   11  A    between atoms: C_6  and  C_35
   12  A    between atoms: C_7  and  C_14
   13  A    between atoms: C_7  and  O_27
   14  A    between atoms: O_10  and  C_14
   15  A    between atoms: C_11  and  C_36
   16  A    between atoms: C_13  and  C_16
   17  A    between atoms: C_13  and  C_20
   18  A    between atoms: C_14  and  C_31
   19  A    between atoms: C_20  and  C_25
   20  A    between atoms: C_25  and  C_32
   21  A    between atoms: O_27  and  N_33
                            x       y       z     vdW  Elec       q    Type
                         _______ _______ _______ _____ _____    ______ ____

>  <TORSDO>
F 21

$$$$
=
 OpenBabel11052420103D

 37 37  0  0  1  0  0  0  0  0999 V2000
  189.5470  176.1230  145.4100 C   0  0  2  0  0  3  0  0  0  0  0  0
  188.8250  177.2290  146.1840 C   0  0  2  0  0  3  0  0  0  0  0  0
  189.6030  177.6450  147.2660 O   0  0  0  0  0  1  0  0  0  0  0  0
  187.4440  176.7840  146.6580 C   0  0  0  0  0  2  0  0  0  0  0  0
  185.9920  177.9520  148.1650 O   0  0  0  0  0  1  0  0  0  0  0  0
  186.5270  177.9800  146.8750 C   0  0  2  0  0  3  0  0  0  0  0  0
  185.4210  177.9810  145.8660 C   0  0  0  0  0  0  0  0  0  0  0  0
  184.2190  178.4250  146.2270 C   0  0  0  0  0  2  0  0  0  0  0  0
  184.7840  177.9920  143.4720 C   0  0  0  0  0  1  0  0  0  0  0  0
  185.5930  177.2920  144.5470 C   0  0  0  0  0  2  0  0  0  0  0  0
  188.6600  175.4770  144.5390 O   0  0  0  0  0  0  0  0  0  0  0  0
  189.2610  175.7140  142.9650 P   0  0  2  0  0  0  0  0  0  0  0  0
  190.6840  176.6280  143.0260 O   0  0  0  0  0  1  0  0  0  0  0  0
  188.2310  176.4880  142.1760 O   0  0  0  0  0  0  0  0  0  0  0  0
  189.5800  174.1290  142.1010 C   0  0  1  0  0  3  0  0  0  0  0  0
  189.8950  172.1760  143.8330 C   0  0  0  0  0  1  0  0  0  0  0  0
  190.4590  173.2150  142.9160 C   0  0  0  0  0  0  0  0  0  0  0  0
  191.7730  173.2220  142.7090 C   0  0  0  0  0  2  0  0  0  0  0  0
  188.2720  173.4720  141.6790 C   0  0  0  0  0  2  0  0  0  0  0  0
  188.3780  172.9360  140.2620 C   0  0  0  0  0  2  0  0  0  0  0  0
  189.4860  173.6490  139.5080 C   0  0  0  0  0  2  0  0  0  0  0  0
  190.3590  172.6480  138.7740 C   0  0  0  0  0  2  0  0  0  0  0  0
  190.4780  171.3850  139.6010 C   0  0  0  0  0  1  0  0  0  0  0  0
  190.1840  175.1080  146.3540 C   0  0  0  0  0  2  0  0  0  0  0  0
  191.4860  174.8180  145.9410 O   0  0  0  0  0  0  0  0  0  0  0  0
  193.4000  176.3220  146.1310 C   0  0  0  0  0  0  0  0  0  0  0  0
  192.2790  175.6260  146.6860 N   0  0  0  0  0  2  0  0  0  0  0  0
  194.1270  177.0130  146.8920 O   0  0  0  0  0  0  0  0  0  0  0  0
  194.6700  174.9470  144.3570 C   0  0  2  0  0  3  0  0  0  0  0  0
  195.2840  176.3240  144.4850 C   0  0  0  0  0  2  0  0  0  0  0  0
  193.7860  176.1650  144.6830 C   0  0  2  0  0  3  0  0  0  0  0  0
  195.0890  174.0800  145.5570 C   0  0  2  0  0  3  0  0  0  0  0  0
  196.6020  174.0350  145.7440 C   0  0  0  0  0  1  0  0  0  0  0  0
  194.5010  172.7940  145.5450 O   0  0  0  0  0  0  0  0  0  0  0  0
  195.5150  171.8220  145.6040 C   0  0  0  0  0  2  0  0  0  0  0  0
  193.7170  170.8910  144.7320 C   0  0  0  0  0  1  0  0  0  0  0  0
  195.0200  170.6050  145.1350 O   0  0  0  0  0  0  0  0  0  0  0  0
  1  2  1  0  0  0  0
  1 24  1  1  0  0  0
  2  4  1  0  0  0  0
  2  3  1  1  0  0  0
  4  6  1  0  0  0  0
  6  5  1  1  0  0  0
  7  8  2  0  0  0  0
  7  6  1  0  0  0  0
  9 10  1  0  0  0  0
 10  7  1  0  0  0  0
 11  1  1  0  0  0  0
 12 14  2  6  0  0  0
 12 13  1  0  0  0  0
 12 11  1  0  0  0  0
 15 19  1  1  0  0  0
 15 17  1  0  0  0  0
 15 12  1  0  0  0  0
 17 16  1  0  0  0  0
 18 17  2  0  0  0  0
 20 19  1  0  0  0  0
 21 20  1  0  0  0  0
 22 21  1  0  0  0  0
 22 23  1  0  0  0  0
 25 24  1  0  0  0  0
 25 27  1  0  0  0  0
 26 27  1  0  0  0  0
 26 28  2  0  0  0  0
 29 30  1  0  0  0  0
 29 31  1  0  0  0  0
 29 32  1  1  0  0  0
 30 31  1  0  0  0  0
 31 26  1  1  0  0  0
 32 33  1  6  0  0  0
 34 32  1  0  0  0  0
 34 35  1  0  0  0  0
 36 37  1  0  0  0  0
 37 35  1  0  0  0  0
M  END
>  <MODEL>
4

>  <REMARK>
 VINA RESULT:      -5.2      2.018      7.149
  Name = 
  21 active torsions:
  status: ('A' for Active; 'I' for Inactive)
    1  A    between atoms: C_1  and  O_17
    2  A    between atoms: C_1  and  C_26
    3  A    between atoms: C_2  and  C_19
    4  A    between atoms: C_2  and  C_35
    5  A    between atoms: C_3  and  C_32
    6  A    between atoms: P_4  and  O_10
    7  A    between atoms: P_4  and  C_13
    8  A    between atoms: C_5  and  O_17
    9  A    between atoms: C_5  and  O_23
   10  A    between atoms: C_6  and  C_31
   11  A    between atoms: C_6  and  C_35
   12  A    between atoms: C_7  and  C_14
   13  A    between atoms: C_7  and  O_27
   14  A    between atoms: O_10  and  C_14
   15  A    between atoms: C_11  and  C_36
   16  A    between atoms: C_13  and  C_16
   17  A    between atoms: C_13  and  C_20
   18  A    between atoms: C_14  and  C_31
   19  A    between atoms: C_20  and  C_25
   20  A    between atoms: C_25  and  C_32
   21  A    between atoms: O_27  and  N_33
                            x       y       z     vdW  Elec       q    Type
                         _______ _______ _______ _____ _____    ______ ____

>  <TORSDO>
F 21

$$$$
=
 OpenBabel11052420103D

 37 37  0  0  1  0  0  0  0  0999 V2000
  189.6390  176.4240  142.7580 C   0  0  2  0  0  3  0  0  0  0  0  0
  190.8910  176.8350  143.5390 C   0  0  2  0  0  3  0  0  0  0  0  0
  190.9790  178.2270  143.6080 O   0  0  0  0  0  1  0  0  0  0  0  0
  192.1610  176.2480  142.9290 C   0  0  0  0  0  2  0  0  0  0  0  0
  194.5270  176.2060  143.3060 O   0  0  0  0  0  1  0  0  0  0  0  0
  193.2880  176.2000  143.9510 C   0  0  2  0  0  3  0  0  0  0  0  0
  193.1670  174.9770  144.8060 C   0  0  0  0  0  0  0  0  0  0  0  0
  192.7830  173.8330  144.2440 C   0  0  0  0  0  2  0  0  0  0  0  0
  193.4460  176.5230  146.7220 C   0  0  0  0  0  1  0  0  0  0  0  0
  193.2540  175.0790  146.2980 C   0  0  0  0  0  2  0  0  0  0  0  0
  188.6450  175.9670  143.6330 O   0  0  0  0  0  0  0  0  0  0  0  0
  187.3780  177.1000  143.5660 P   0  0  2  0  0  0  0  0  0  0  0  0
  185.9470  176.3330  143.0870 O   0  0  0  0  0  1  0  0  0  0  0  0
  187.7290  178.1430  142.5300 O   0  0  0  0  0  0  0  0  0  0  0  0
  187.1200  177.9440  145.1720 C   0  0  1  0  0  3  0  0  0  0  0  0
  185.1860  179.5920  144.4950 C   0  0  0  0  0  1  0  0  0  0  0  0
  185.7090  178.4560  145.3150 C   0  0  0  0  0  0  0  0  0  0  0  0
  184.8510  177.7880  146.0810 C   0  0  0  0  0  2  0  0  0  0  0  0
  187.5440  177.0450  146.3270 C   0  0  0  0  0  2  0  0  0  0  0  0
  188.8940  177.4800  146.8720 C   0  0  0  0  0  2  0  0  0  0  0  0
  189.8050  176.2790  147.0510 C   0  0  0  0  0  2  0  0  0  0  0  0
  188.9940  174.9980  147.0850 C   0  0  0  0  0  2  0  0  0  0  0  0
  189.6550  173.9610  146.2010 C   0  0  0  0  0  1  0  0  0  0  0  0
  189.9590  175.3500  141.7230 C   0  0  0  0  0  2  0  0  0  0  0  0
  189.0100  174.3260  141.7840 O   0  0  0  0  0  0  0  0  0  0  0  0
  188.6380  173.2010  139.6490 C   0  0  0  0  0  0  0  0  0  0  0  0
  188.4460  174.2960  140.5520 N   0  0  0  0  0  2  0  0  0  0  0  0
  188.1300  173.2630  138.4980 O   0  0  0  0  0  0  0  0  0  0  0  0
  190.9940  172.1550  139.6030 C   0  0  2  0  0  3  0  0  0  0  0  0
  190.0420  171.3280  138.7670 C   0  0  0  0  0  2  0  0  0  0  0  0
  189.5140  172.0290  140.0080 C   0  0  2  0  0  3  0  0  0  0  0  0
  191.3760  173.4340  138.8400 C   0  0  2  0  0  3  0  0  0  0  0  0
  191.5410  173.1930  137.3430 C   0  0  0  0  0  1  0  0  0  0  0  0
  192.4790  174.1130  139.4090 O   0  0  0  0  0  0  0  0  0  0  0  0
  192.9270  173.4040  140.5370 C   0  0  0  0  0  2  0  0  0  0  0  0
  194.9990  173.7190  139.8550 C   0  0  0  0  0  1  0  0  0  0  0  0
  194.1580  173.9140  140.9490 O   0  0  0  0  0  0  0  0  0  0  0  0
  1 24  1  6  0  0  0
  1  2  1  0  0  0  0
  1 11  1  0  0  0  0
  2  3  1  6  0  0  0
  4  2  1  0  0  0  0
  4  6  1  0  0  0  0
  6  5  1  6  0  0  0
  6  7  1  0  0  0  0
  7 10  1  0  0  0  0
  8  7  2  0  0  0  0
 10  9  1  0  0  0  0
 12 14  2  6  0  0  0
 12 11  1  0  0  0  0
 12 15  1  0  0  0  0
 13 12  1  0  0  0  0
 15 17  1  0  0  0  0
 15 19  1  1  0  0  0
 16 17  1  0  0  0  0
 17 18  2  0  0  0  0
 19 20  1  0  0  0  0
 20 21  1  0  0  0  0
 21 22  1  0  0  0  0
 23 22  1  0  0  0  0
 24 25  1  0  0  0  0
 26 27  1  0  0  0  0
 27 25  1  0  0  0  0
 28 26  2  0  0  0  0
 29 32  1  6  0  0  0
 29 31  1  0  0  0  0
 30 29  1  0  0  0  0
 30 31  1  0  0  0  0
 31 26  1  6  0  0  0
 32 33  1  6  0  0  0
 32 34  1  0  0  0  0
 34 35  1  0  0  0  0
 35 37  1  0  0  0  0
 36 37  1  0  0  0  0
M  END
>  <MODEL>
5

>  <REMARK>
 VINA RESULT:      -5.2      2.521      7.194
  Name = 
  21 active torsions:
  status: ('A' for Active; 'I' for Inactive)
    1  A    between atoms: C_1  and  O_17
    2  A    between atoms: C_1  and  C_26
    3  A    between atoms: C_2  and  C_19
    4  A    between atoms: C_2  and  C_35
    5  A    between atoms: C_3  and  C_32
    6  A    between atoms: P_4  and  O_10
    7  A    between atoms: P_4  and  C_13
    8  A    between atoms: C_5  and  O_17
    9  A    between atoms: C_5  and  O_23
   10  A    between atoms: C_6  and  C_31
   11  A    between atoms: C_6  and  C_35
   12  A    between atoms: C_7  and  C_14
   13  A    between atoms: C_7  and  O_27
   14  A    between atoms: O_10  and  C_14
   15  A    between atoms: C_11  and  C_36
   16  A    between atoms: C_13  and  C_16
   17  A    between atoms: C_13  and  C_20
   18  A    between atoms: C_14  and  C_31
   19  A    between atoms: C_20  and  C_25
   20  A    between atoms: C_25  and  C_32
   21  A    between atoms: O_27  and  N_33
                            x       y       z     vdW  Elec       q    Type
                         _______ _______ _______ _____ _____    ______ ____

>  <TORSDO>
F 21

$$$$
=
 OpenBabel11052420103D

 37 37  0  0  1  0  0  0  0  0999 V2000
  190.6800  175.4820  144.9490 C   0  0  2  0  0  3  0  0  0  0  0  0
  189.8380  174.3630  144.3280 C   0  0  2  0  0  3  0  0  0  0  0  0
  189.7770  173.2700  145.1940 O   0  0  0  0  0  1  0  0  0  0  0  0
  190.3760  173.9350  142.9650 C   0  0  0  0  0  2  0  0  0  0  0  0
  188.0960  174.1320  142.2550 O   0  0  0  0  0  1  0  0  0  0  0  0
  189.4180  174.3280  141.8490 C   0  0  2  0  0  3  0  0  0  0  0  0
  189.6950  173.5270  140.6160 C   0  0  0  0  0  0  0  0  0  0  0  0
  189.0840  173.8600  139.4800 C   0  0  0  0  0  2  0  0  0  0  0  0
  191.1610  171.9570  139.3800 C   0  0  0  0  0  1  0  0  0  0  0  0
  190.4650  172.2450  140.6970 C   0  0  0  0  0  2  0  0  0  0  0  0
  191.9700  175.0190  145.2400 O   0  0  0  0  0  0  0  0  0  0  0  0
  193.0560  176.1020  144.5040 P   0  0  2  0  0  0  0  0  0  0  0  0
  193.7900  177.0680  145.6840 O   0  0  0  0  0  1  0  0  0  0  0  0
  192.2720  177.0000  143.5740 O   0  0  0  0  0  0  0  0  0  0  0  0
  194.3400  175.2360  143.5250 C   0  0  1  0  0  3  0  0  0  0  0  0
  196.0450  174.4910  145.3850 C   0  0  0  0  0  1  0  0  0  0  0  0
  195.6930  175.3140  144.1860 C   0  0  0  0  0  0  0  0  0  0  0  0
  196.6600  176.0190  143.6030 C   0  0  0  0  0  2  0  0  0  0  0  0
  193.9120  173.8060  143.2200 C   0  0  0  0  0  2  0  0  0  0  0  0
  194.0210  173.5240  141.7320 C   0  0  0  0  0  2  0  0  0  0  0  0
  193.3840  174.6450  140.9320 C   0  0  0  0  0  2  0  0  0  0  0  0
  194.2610  175.0210  139.7520 C   0  0  0  0  0  2  0  0  0  0  0  0
  193.5710  174.6190  138.4650 C   0  0  0  0  0  1  0  0  0  0  0  0
  190.0260  176.0340  146.2110 C   0  0  0  0  0  2  0  0  0  0  0  0
  188.6720  176.2890  145.9790 O   0  0  0  0  0  0  0  0  0  0  0  0
  186.9960  177.6270  147.1470 C   0  0  0  0  0  0  0  0  0  0  0  0
  188.3520  177.2920  146.8330 N   0  0  0  0  0  2  0  0  0  0  0  0
  186.7690  178.6050  147.9060 O   0  0  0  0  0  0  0  0  0  0  0  0
  185.4240  177.4000  145.1150 C   0  0  2  0  0  3  0  0  0  0  0  0
  184.6360  177.8130  146.3380 C   0  0  0  0  0  2  0  0  0  0  0  0
  185.8380  176.9010  146.5110 C   0  0  2  0  0  3  0  0  0  0  0  0
  186.2090  178.6060  144.5730 C   0  0  2  0  0  3  0  0  0  0  0  0
  185.3040  179.7860  144.2340 C   0  0  0  0  0  1  0  0  0  0  0  0
  187.0860  178.2700  143.5150 O   0  0  0  0  0  0  0  0  0  0  0  0
  186.4950  177.2690  142.7250 C   0  0  0  0  0  2  0  0  0  0  0  0
  188.2920  177.9970  141.6750 C   0  0  0  0  0  1  0  0  0  0  0  0
  187.1930  177.1510  141.5230 O   0  0  0  0  0  0  0  0  0  0  0  0
  1 11  1  0  0  0  0
  1 24  1  1  0  0  0
  2  1  1  0  0  0  0
  2  3  1  1  0  0  0
  4  2  1  0  0  0  0
  6  5  1  1  0  0  0
  6  4  1  0  0  0  0
  7 10  1  0  0  0  0
  7  6  1  0  0  0  0
  8  7  2  0  0  0  0
  9 10  1  0  0  0  0
 12 14  2  6  0  0  0
 12 11  1  0  0  0  0
 12 13  1  0  0  0  0
 15 19  1  1  0  0  0
 15 17  1  0  0  0  0
 15 12  1  0  0  0  0
 17 16  1  0  0  0  0
 18 17  2  0  0  0  0
 20 19  1  0  0  0  0
 21 20  1  0  0  0  0
 22 21  1  0  0  0  0
 23 22  1  0  0  0  0
 25 24  1  0  0  0  0
 25 27  1  0  0  0  0
 26 28  2  0  0  0  0
 27 26  1  0  0  0  0
 29 32  1  1  0  0  0
 29 30  1  0  0  0  0
 29 31  1  0  0  0  0
 30 31  1  0  0  0  0
 31 26  1  1  0  0  0
 32 33  1  6  0  0  0
 34 32  1  0  0  0  0
 35 34  1  0  0  0  0
 37 36  1  0  0  0  0
 37 35  1  0  0  0  0
M  END
>  <MODEL>
6

>  <REMARK>
 VINA RESULT:      -5.2      1.341      4.347
  Name = 
  21 active torsions:
  status: ('A' for Active; 'I' for Inactive)
    1  A    between atoms: C_1  and  O_17
    2  A    between atoms: C_1  and  C_26
    3  A    between atoms: C_2  and  C_19
    4  A    between atoms: C_2  and  C_35
    5  A    between atoms: C_3  and  C_32
    6  A    between atoms: P_4  and  O_10
    7  A    between atoms: P_4  and  C_13
    8  A    between atoms: C_5  and  O_17
    9  A    between atoms: C_5  and  O_23
   10  A    between atoms: C_6  and  C_31
   11  A    between atoms: C_6  and  C_35
   12  A    between atoms: C_7  and  C_14
   13  A    between atoms: C_7  and  O_27
   14  A    between atoms: O_10  and  C_14
   15  A    between atoms: C_11  and  C_36
   16  A    between atoms: C_13  and  C_16
   17  A    between atoms: C_13  and  C_20
   18  A    between atoms: C_14  and  C_31
   19  A    between atoms: C_20  and  C_25
   20  A    between atoms: C_25  and  C_32
   21  A    between atoms: O_27  and  N_33
                            x       y       z     vdW  Elec       q    Type
                         _______ _______ _______ _____ _____    ______ ____

>  <TORSDO>
F 21

$$$$
=
 OpenBabel11052420103D

 37 37  0  0  1  0  0  0  0  0999 V2000
  189.5430  174.0760  142.5730 C   0  0  2  0  0  3  0  0  0  0  0  0
  190.3120  173.3080  141.4950 C   0  0  2  0  0  3  0  0  0  0  0  0
  191.3200  174.1120  140.9580 O   0  0  0  0  0  1  0  0  0  0  0  0
  189.3900  172.7980  140.3910 C   0  0  0  0  0  2  0  0  0  0  0  0
  188.1180  174.2800  139.0030 O   0  0  0  0  0  1  0  0  0  0  0  0
  189.3920  173.7400  139.1960 C   0  0  2  0  0  3  0  0  0  0  0  0
  189.8290  173.0170  137.9600 C   0  0  0  0  0  0  0  0  0  0  0  0
  189.7620  171.6880  137.9330 C   0  0  0  0  0  2  0  0  0  0  0  0
  191.9270  174.1620  137.3060 C   0  0  0  0  0  1  0  0  0  0  0  0
  190.5380  173.7480  136.8610 C   0  0  0  0  0  2  0  0  0  0  0  0
  189.6250  175.4550  142.3440 O   0  0  0  0  0  0  0  0  0  0  0  0
  188.0280  176.0400  142.3050 P   0  0  2  0  0  0  0  0  0  0  0  0
  186.9440  174.7430  142.2320 O   0  0  0  0  0  1  0  0  0  0  0  0
  187.8590  176.8730  141.0550 O   0  0  0  0  0  0  0  0  0  0  0  0
  187.6410  177.0910  143.7560 C   0  0  1  0  0  3  0  0  0  0  0  0
  190.0620  178.0760  144.0500 C   0  0  0  0  0  1  0  0  0  0  0  0
  188.8660  177.3600  144.5940 C   0  0  0  0  0  0  0  0  0  0  0  0
  188.8330  177.0920  145.8970 C   0  0  0  0  0  2  0  0  0  0  0  0
  186.9270  178.3650  143.3240 C   0  0  0  0  0  2  0  0  0  0  0  0
  185.5560  178.4520  143.9710 C   0  0  0  0  0  2  0  0  0  0  0  0
  185.6400  179.1840  145.2980 C   0  0  0  0  0  2  0  0  0  0  0  0
  184.6920  178.5650  146.3080 C   0  0  0  0  0  2  0  0  0  0  0  0
  184.9900  177.0860  146.4360 C   0  0  0  0  0  1  0  0  0  0  0  0
  190.0640  173.7460  143.9690 C   0  0  0  0  0  2  0  0  0  0  0  0
  191.0880  174.6290  144.3200 O   0  0  0  0  0  0  0  0  0  0  0  0
  192.0550  175.3470  146.4450 C   0  0  0  0  0  0  0  0  0  0  0  0
  191.2500  174.4640  145.6560 N   0  0  0  0  0  2  0  0  0  0  0  0
  192.2070  175.1040  147.6710 O   0  0  0  0  0  0  0  0  0  0  0  0
  194.1330  176.1370  145.1380 C   0  0  2  0  0  3  0  0  0  0  0  0
  194.1260  176.7470  146.5230 C   0  0  0  0  0  2  0  0  0  0  0  0
  192.8020  176.4990  145.8220 C   0  0  2  0  0  3  0  0  0  0  0  0
  194.5540  174.6610  145.2250 C   0  0  2  0  0  3  0  0  0  0  0  0
  195.8510  174.4700  146.0050 C   0  0  0  0  0  1  0  0  0  0  0  0
  194.5720  174.0130  143.9680 O   0  0  0  0  0  0  0  0  0  0  0  0
  194.2530  174.9430  142.9640 C   0  0  0  0  0  2  0  0  0  0  0  0
  194.7510  173.3840  141.4860 C   0  0  0  0  0  1  0  0  0  0  0  0
  195.0410  174.7020  141.8390 O   0  0  0  0  0  0  0  0  0  0  0  0
  1 24  1  1  0  0  0
  2  3  1  6  0  0  0
  2  1  1  0  0  0  0
  4  2  1  0  0  0  0
  6  5  1  6  0  0  0
  6  4  1  0  0  0  0
  7  6  1  0  0  0  0
  8  7  2  0  0  0  0
 10  9  1  0  0  0  0
 10  7  1  0  0  0  0
 11  1  1  0  0  0  0
 12 14  2  6  0  0  0
 12 11  1  0  0  0  0
 12 15  1  0  0  0  0
 13 12  1  0  0  0  0
 15 19  1  6  0  0  0
 15 17  1  0  0  0  0
 16 17  1  0  0  0  0
 17 18  2  0  0  0  0
 19 20  1  0  0  0  0
 20 21  1  0  0  0  0
 21 22  1  0  0  0  0
 22 23  1  0  0  0  0
 24 25  1  0  0  0  0
 25 27  1  0  0  0  0
 26 28  2  0  0  0  0
 27 26  1  0  0  0  0
 29 32  1  1  0  0  0
 29 31  1  0  0  0  0
 29 30  1  0  0  0  0
 31 26  1  1  0  0  0
 31 30  1  0  0  0  0
 32 33  1  6  0  0  0
 34 32  1  0  0  0  0
 35 34  1  0  0  0  0
 36 37  1  0  0  0  0
 37 35  1  0  0  0  0
M  END
>  <MODEL>
7

>  <REMARK>
 VINA RESULT:      -5.2      2.186      7.491
  Name = 
  21 active torsions:
  status: ('A' for Active; 'I' for Inactive)
    1  A    between atoms: C_1  and  O_17
    2  A    between atoms: C_1  and  C_26
    3  A    between atoms: C_2  and  C_19
    4  A    between atoms: C_2  and  C_35
    5  A    between atoms: C_3  and  C_32
    6  A    between atoms: P_4  and  O_10
    7  A    between atoms: P_4  and  C_13
    8  A    between atoms: C_5  and  O_17
    9  A    between atoms: C_5  and  O_23
   10  A    between atoms: C_6  and  C_31
   11  A    between atoms: C_6  and  C_35
   12  A    between atoms: C_7  and  C_14
   13  A    between atoms: C_7  and  O_27
   14  A    between atoms: O_10  and  C_14
   15  A    between atoms: C_11  and  C_36
   16  A    between atoms: C_13  and  C_16
   17  A    between atoms: C_13  and  C_20
   18  A    between atoms: C_14  and  C_31
   19  A    between atoms: C_20  and  C_25
   20  A    between atoms: C_25  and  C_32
   21  A    between atoms: O_27  and  N_33
                            x       y       z     vdW  Elec       q    Type
                         _______ _______ _______ _____ _____    ______ ____

>  <TORSDO>
F 21

$$$$
=
 OpenBabel11052420103D

 37 37  0  0  1  0  0  0  0  0999 V2000
  190.1400  176.1830  143.1810 C   0  0  2  0  0  3  0  0  0  0  0  0
  191.2220  176.2980  144.2580 C   0  0  2  0  0  3  0  0  0  0  0  0
  191.9130  177.5030  144.1190 O   0  0  0  0  0  1  0  0  0  0  0  0
  192.1910  175.1190  144.2200 C   0  0  0  0  0  2  0  0  0  0  0  0
  191.9630  175.3610  146.5920 O   0  0  0  0  0  1  0  0  0  0  0  0
  192.8000  174.8640  145.5910 C   0  0  2  0  0  3  0  0  0  0  0  0
  194.1490  175.5050  145.6920 C   0  0  0  0  0  0  0  0  0  0  0  0
  194.3130  176.5360  146.5190 C   0  0  0  0  0  2  0  0  0  0  0  0
  195.7790  176.3940  144.0510 C   0  0  0  0  0  1  0  0  0  0  0  0
  195.2360  175.1490  144.7250 C   0  0  0  0  0  2  0  0  0  0  0  0
  190.6360  175.5080  142.0590 O   0  0  0  0  0  0  0  0  0  0  0  0
  189.4680  174.3460  141.6330 P   0  0  2  0  0  0  0  0  0  0  0  0
  188.2000  175.0870  140.7930 O   0  0  0  0  0  0  0  0  0  0  0  0
  188.9110  173.7470  142.9040 O   0  0  0  0  0  1  0  0  0  0  0  0
  190.1770  172.9930  140.6190 C   0  0  1  0  0  3  0  0  0  0  0  0
  192.3510  172.4040  141.9760 C   0  0  0  0  0  1  0  0  0  0  0  0
  190.9980  172.0410  141.4510 C   0  0  0  0  0  0  0  0  0  0  0  0
  190.4490  170.9010  141.8640 C   0  0  0  0  0  2  0  0  0  0  0  0
  189.0860  172.2910  139.8190 C   0  0  0  0  0  2  0  0  0  0  0  0
  189.4180  172.3120  138.3370 C   0  0  0  0  0  2  0  0  0  0  0  0
  190.0700  171.0050  137.9220 C   0  0  0  0  0  2  0  0  0  0  0  0
  191.5420  171.2180  137.6220 C   0  0  0  0  0  2  0  0  0  0  0  0
  191.7270  172.5550  136.9350 C   0  0  0  0  0  1  0  0  0  0  0  0
  189.6140  177.5570  142.7740 C   0  0  0  0  0  2  0  0  0  0  0  0
  188.5890  177.9540  143.6370 O   0  0  0  0  0  0  0  0  0  0  0  0
  186.1970  177.7820  143.1770 C   0  0  0  0  0  0  0  0  0  0  0  0
  187.5120  177.2220  143.2620 N   0  0  0  0  0  2  0  0  0  0  0  0
  185.2320  177.0320  142.8760 O   0  0  0  0  0  0  0  0  0  0  0  0
  185.5570  179.4810  145.0090 C   0  0  2  0  0  3  0  0  0  0  0  0
  184.4820  179.4330  143.9460 C   0  0  0  0  0  2  0  0  0  0  0  0
  185.9300  179.2210  143.5380 C   0  0  2  0  0  3  0  0  0  0  0  0
  185.4550  178.2360  145.9060 C   0  0  2  0  0  3  0  0  0  0  0  0
  184.1060  178.1360  146.6120 C   0  0  0  0  0  1  0  0  0  0  0  0
  186.5480  178.0990  146.7940 O   0  0  0  0  0  0  0  0  0  0  0  0
  186.7210  176.7400  147.1090 C   0  0  0  0  0  2  0  0  0  0  0  0
  188.8750  177.1670  146.9200 C   0  0  0  0  0  1  0  0  0  0  0  0
  187.8900  176.2700  146.5100 O   0  0  0  0  0  0  0  0  0  0  0  0
  1 24  1  6  0  0  0
  1  2  1  0  0  0  0
  2  3  1  6  0  0  0
  4  2  1  0  0  0  0
  4  6  1  0  0  0  0
  6  7  1  0  0  0  0
  6  5  1  1  0  0  0
  7  8  2  0  0  0  0
  9 10  1  0  0  0  0
 10  7  1  0  0  0  0
 11  1  1  0  0  0  0
 12 13  2  6  0  0  0
 12 11  1  0  0  0  0
 12 14  1  0  0  0  0
 15 19  1  1  0  0  0
 15 17  1  0  0  0  0
 15 12  1  0  0  0  0
 17 18  2  0  0  0  0
 17 16  1  0  0  0  0
 20 19  1  0  0  0  0
 21 20  1  0  0  0  0
 22 21  1  0  0  0  0
 23 22  1  0  0  0  0
 24 25  1  0  0  0  0
 26 27  1  0  0  0  0
 27 25  1  0  0  0  0
 28 26  2  0  0  0  0
 29 32  1  1  0  0  0
 30 29  1  0  0  0  0
 31 26  1  1  0  0  0
 31 30  1  0  0  0  0
 31 29  1  0  0  0  0
 32 33  1  1  0  0  0
 32 34  1  0  0  0  0
 34 35  1  0  0  0  0
 37 36  1  0  0  0  0
 37 35  1  0  0  0  0
M  END
>  <MODEL>
8

>  <REMARK>
 VINA RESULT:      -5.0      1.633      3.066
  Name = 
  21 active torsions:
  status: ('A' for Active; 'I' for Inactive)
    1  A    between atoms: C_1  and  O_17
    2  A    between atoms: C_1  and  C_26
    3  A    between atoms: C_2  and  C_19
    4  A    between atoms: C_2  and  C_35
    5  A    between atoms: C_3  and  C_32
    6  A    between atoms: P_4  and  O_10
    7  A    between atoms: P_4  and  C_13
    8  A    between atoms: C_5  and  O_17
    9  A    between atoms: C_5  and  O_23
   10  A    between atoms: C_6  and  C_31
   11  A    between atoms: C_6  and  C_35
   12  A    between atoms: C_7  and  C_14
   13  A    between atoms: C_7  and  O_27
   14  A    between atoms: O_10  and  C_14
   15  A    between atoms: C_11  and  C_36
   16  A    between atoms: C_13  and  C_16
   17  A    between atoms: C_13  and  C_20
   18  A    between atoms: C_14  and  C_31
   19  A    between atoms: C_20  and  C_25
   20  A    between atoms: C_25  and  C_32
   21  A    between atoms: O_27  and  N_33
                            x       y       z     vdW  Elec       q    Type
                         _______ _______ _______ _____ _____    ______ ____

>  <TORSDO>
F 21

$$$$
=
 OpenBabel11052420103D

 37 37  0  0  1  0  0  0  0  0999 V2000
  190.5340  173.4350  144.2600 C   0  0  2  0  0  3  0  0  0  0  0  0
  189.5990  172.9990  143.1290 C   0  0  2  0  0  3  0  0  0  0  0  0
  188.9300  171.8260  143.4820 O   0  0  0  0  0  1  0  0  0  0  0  0
  190.3480  172.8110  141.8120 C   0  0  0  0  0  2  0  0  0  0  0  0
  188.3790  172.9410  140.4520 O   0  0  0  0  0  1  0  0  0  0  0  0
  189.6330  173.5170  140.6680 C   0  0  2  0  0  3  0  0  0  0  0  0
  190.4500  173.4430  139.4160 C   0  0  0  0  0  0  0  0  0  0  0  0
  189.8840  173.7750  138.2570 C   0  0  0  0  0  2  0  0  0  0  0  0
  192.8930  173.8510  139.4460 C   0  0  0  0  0  1  0  0  0  0  0  0
  191.8020  172.7980  139.4250 C   0  0  0  0  0  2  0  0  0  0  0  0
  191.3490  172.3680  144.6590 O   0  0  0  0  0  0  0  0  0  0  0  0
  192.9570  172.9090  144.5350 P   0  0  2  0  0  0  0  0  0  0  0  0
  193.6640  172.2880  143.1280 O   0  0  0  0  0  0  0  0  0  0  0  0
  193.7270  172.3860  145.7260 O   0  0  0  0  0  1  0  0  0  0  0  0
  193.0730  174.7380  144.5300 C   0  0  1  0  0  3  0  0  0  0  0  0
  194.9350  175.6700  146.1360 C   0  0  0  0  0  1  0  0  0  0  0  0
  193.5180  175.2730  145.8670 C   0  0  0  0  0  0  0  0  0  0  0  0
  192.6030  175.5470  146.7950 C   0  0  0  0  0  2  0  0  0  0  0  0
  193.9460  175.2200  143.3790 C   0  0  0  0  0  2  0  0  0  0  0  0
  193.1330  176.0610  142.4100 C   0  0  0  0  0  2  0  0  0  0  0  0
  191.8000  176.4420  143.0290 C   0  0  0  0  0  2  0  0  0  0  0  0
  191.6800  177.9500  143.1460 C   0  0  0  0  0  2  0  0  0  0  0  0
  190.3540  178.3000  143.7880 C   0  0  0  0  0  1  0  0  0  0  0  0
  189.7490  173.9680  145.4550 C   0  0  0  0  0  2  0  0  0  0  0  0
  188.9070  175.0070  145.0520 O   0  0  0  0  0  0  0  0  0  0  0  0
  188.3890  176.7920  146.6360 C   0  0  0  0  0  0  0  0  0  0  0  0
  189.2940  176.0770  145.7870 N   0  0  0  0  0  2  0  0  0  0  0  0
  188.8020  177.8110  147.2490 O   0  0  0  0  0  0  0  0  0  0  0  0
  186.0070  177.0540  145.6820 C   0  0  2  0  0  3  0  0  0  0  0  0
  186.0680  177.6080  147.0880 C   0  0  0  0  0  2  0  0  0  0  0  0
  186.9330  176.4120  146.7310 C   0  0  2  0  0  3  0  0  0  0  0  0
  186.6760  178.0390  144.7080 C   0  0  2  0  0  3  0  0  0  0  0  0
  185.9360  179.3700  144.6260 C   0  0  0  0  0  1  0  0  0  0  0  0
  186.9310  177.4760  143.4360 O   0  0  0  0  0  0  0  0  0  0  0  0
  186.7600  178.4630  142.4500 C   0  0  0  0  0  2  0  0  0  0  0  0
  186.5510  177.5320  140.4630 C   0  0  0  0  0  1  0  0  0  0  0  0
  187.4890  178.1160  141.3130 O   0  0  0  0  0  0  0  0  0  0  0  0
  1 11  1  0  0  0  0
  1 24  1  1  0  0  0
  2  3  1  1  0  0  0
  2  1  1  0  0  0  0
  4  2  1  0  0  0  0
  6  5  1  6  0  0  0
  6  4  1  0  0  0  0
  7 10  1  0  0  0  0
  7  6  1  0  0  0  0
  8  7  2  0  0  0  0
 10  9  1  0  0  0  0
 12 13  2  6  0  0  0
 12 11  1  0  0  0  0
 12 14  1  0  0  0  0
 15 19  1  6  0  0  0
 15 12  1  0  0  0  0
 15 17  1  0  0  0  0
 17 16  1  0  0  0  0
 17 18  2  0  0  0  0
 20 21  1  0  0  0  0
 20 19  1  0  0  0  0
 21 22  1  0  0  0  0
 22 23  1  0  0  0  0
 25 24  1  0  0  0  0
 25 27  1  0  0  0  0
 26 28  2  0  0  0  0
 27 26  1  0  0  0  0
 29 32  1  6  0  0  0
 29 31  1  0  0  0  0
 29 30  1  0  0  0  0
 31 26  1  6  0  0  0
 31 30  1  0  0  0  0
 32 33  1  6  0  0  0
 34 32  1  0  0  0  0
 35 34  1  0  0  0  0
 36 37  1  0  0  0  0
 37 35  1  0  0  0  0
M  END
>  <MODEL>
9

>  <REMARK>
 VINA RESULT:      -5.0      2.031      4.935
  Name = 
  21 active torsions:
  status: ('A' for Active; 'I' for Inactive)
    1  A    between atoms: C_1  and  O_17
    2  A    between atoms: C_1  and  C_26
    3  A    between atoms: C_2  and  C_19
    4  A    between atoms: C_2  and  C_35
    5  A    between atoms: C_3  and  C_32
    6  A    between atoms: P_4  and  O_10
    7  A    between atoms: P_4  and  C_13
    8  A    between atoms: C_5  and  O_17
    9  A    between atoms: C_5  and  O_23
   10  A    between atoms: C_6  and  C_31
   11  A    between atoms: C_6  and  C_35
   12  A    between atoms: C_7  and  C_14
   13  A    between atoms: C_7  and  O_27
   14  A    between atoms: O_10  and  C_14
   15  A    between atoms: C_11  and  C_36
   16  A    between atoms: C_13  and  C_16
   17  A    between atoms: C_13  and  C_20
   18  A    between atoms: C_14  and  C_31
   19  A    between atoms: C_20  and  C_25
   20  A    between atoms: C_25  and  C_32
   21  A    between atoms: O_27  and  N_33
                            x       y       z     vdW  Elec       q    Type
                         _______ _______ _______ _____ _____    ______ ____

>  <TORSDO>
F 21

$$$$
