=
 OpenBabel11052418163D

 28 32  0  0  1  0  0  0  0  0999 V2000
  191.0070  174.6680  144.2570 C   0  0  0  0  0  2  0  0  0  0  0  0
  189.4820  172.3270  143.5170 C   0  0  0  0  0  1  0  0  0  0  0  0
  189.7240  173.3700  142.4280 C   0  0  1  0  0  0  0  0  0  0  0  0
  193.0900  176.8330  145.1540 C   0  0  0  0  0  2  0  0  0  0  0  0
  187.7030  174.6950  142.6160 C   0  0  0  0  0  2  0  0  0  0  0  0
  188.7960  176.9410  142.8930 C   0  0  2  0  0  3  0  0  0  0  0  0
  188.3710  173.6340  141.7540 C   0  0  1  0  0  3  0  0  0  0  0  0
  190.9490  177.5330  144.1120 C   0  0  0  0  0  2  0  0  0  0  0  0
  188.8080  175.4610  143.3380 C   0  0  2  0  0  3  0  0  0  0  0  0
  193.0770  175.4260  145.1970 O   0  0  0  0  0  0  0  0  0  0  0  0
  190.1890  177.5830  142.7940 C   0  0  0  0  0  2  0  0  0  0  0  0
  192.3090  176.8840  143.8710 C   0  0  2  0  0  3  0  0  0  0  0  0
  192.3440  175.3670  144.0000 C   0  0  2  0  0  3  0  0  0  0  0  0
  190.1100  174.7290  143.0230 C   0  0  1  0  0  3  0  0  0  0  0  0
  186.1090  177.8590  145.4690 C   0  0  0  0  0  2  0  0  0  0  0  0
  186.5920  178.3160  143.0460 C   0  0  1  0  0  3  0  0  0  0  0  0
  185.6280  178.5020  144.1940 C   0  0  2  0  0  0  0  0  0  0  0  0
  187.8590  177.8090  143.7560 C   0  0  1  0  0  3  0  0  0  0  0  0
  185.3810  179.8690  144.4050 O   0  0  0  0  0  0  0  0  0  0  0  0
  184.2740  179.0760  144.0460 C   0  0  0  0  0  2  0  0  0  0  0  0
  187.3930  177.1510  145.0590 C   0  0  0  0  0  2  0  0  0  0  0  0
  186.0230  177.3620  141.9820 C   0  0  0  0  0  2  0  0  0  0  0  0
  185.6920  178.0510  140.6630 C   0  0  0  0  0  2  0  0  0  0  0  0
  186.5640  177.4810  139.5650 C   0  0  0  0  0  1  0  0  0  0  0  0
  188.0810  173.0810  139.2040 O   0  0  0  0  0  0  0  0  0  0  0  0
  188.4700  174.2780  140.0610 S   0  0  0  0  0  3  0  0  0  0  0  0
  190.7950  172.8160  141.5160 C   0  0  0  0  0  3  0  0  0  0  0  0
  190.9880  171.5110  141.3080 C   0  0  0  0  0  2  0  0  0  0  0  0
  3 14  1  0  0  0  0
  3  2  1  1  0  0  0
  4 10  1  0  0  0  0
  6 11  1  1  0  0  0
  6  9  1  0  0  0  0
  6 18  1  0  0  0  0
  7 26  1  6  0  0  0
  7  3  1  0  0  0  0
  7  5  1  0  0  0  0
  9  5  1  6  0  0  0
 11  8  1  0  0  0  0
 12 13  1  0  0  0  0
 12  8  1  1  0  0  0
 12  4  1  0  0  0  0
 13  1  1  1  0  0  0
 13 10  1  0  0  0  0
 14  9  1  0  0  0  0
 14  1  1  1  0  0  0
 16 22  1  6  0  0  0
 16 18  1  0  0  0  0
 16 17  1  0  0  0  0
 17 20  1  6  0  0  0
 17 19  1  0  0  0  0
 17 15  1  0  0  0  0
 18 21  1  1  0  0  0
 20 19  1  0  0  0  0
 21 15  1  0  0  0  0
 23 22  1  0  0  0  0
 24 23  1  0  0  0  0
 25 26  2  0  0  0  0
 27  3  1  0  0  0  0
 28 27  2  0  0  0  0
M  END
>  <MODEL>
1

>  <REMARK>
 VINA RESULT:      -7.1      0.000      0.000
  Name = 
  5 active torsions:
  status: ('A' for Active; 'I' for Inactive)
    1  A    between atoms: C_3  and  C_7
    2  A    between atoms: C_9  and  C_18
    3  A    between atoms: C_10  and  C_13
    4  A    between atoms: C_11  and  S_22
    5  A    between atoms: C_14  and  C_18
                            x       y       z     vdW  Elec       q    Type
                         _______ _______ _______ _____ _____    ______ ____

>  <TORSDO>
F 5

$$$$
=
 OpenBabel11052418163D

 28 32  0  0  1  0  0  0  0  0999 V2000
  190.9130  174.5750  144.2890 C   0  0  0  0  0  2  0  0  0  0  0  0
  189.2180  172.7770  142.7910 C   0  0  0  0  0  1  0  0  0  0  0  0
  189.3480  174.2050  142.2670 C   0  0  1  0  0  0  0  0  0  0  0  0
  193.1760  176.1630  145.7690 C   0  0  0  0  0  2  0  0  0  0  0  0
  187.4210  175.2450  143.3060 C   0  0  0  0  0  2  0  0  0  0  0  0
  188.6230  177.1560  144.4110 C   0  0  2  0  0  3  0  0  0  0  0  0
  187.9270  174.7070  141.9760 C   0  0  1  0  0  3  0  0  0  0  0  0
  190.9410  177.1960  145.4580 C   0  0  0  0  0  2  0  0  0  0  0  0
  188.6400  175.6350  144.1360 C   0  0  2  0  0  3  0  0  0  0  0  0
  193.1170  174.8880  145.1760 O   0  0  0  0  0  0  0  0  0  0  0  0
  190.0120  177.8130  144.4220 C   0  0  0  0  0  2  0  0  0  0  0  0
  192.2310  176.7640  144.7670 C   0  0  2  0  0  3  0  0  0  0  0  0
  192.2280  175.3530  144.1940 C   0  0  2  0  0  3  0  0  0  0  0  0
  189.8600  175.1610  143.3500 C   0  0  1  0  0  3  0  0  0  0  0  0
  186.3700  176.7300  147.4840 C   0  0  0  0  0  2  0  0  0  0  0  0
  186.4960  178.2210  145.4660 C   0  0  1  0  0  3  0  0  0  0  0  0
  185.7180  177.8410  146.7040 C   0  0  2  0  0  0  0  0  0  0  0  0
  187.8430  177.5150  145.6920 C   0  0  1  0  0  3  0  0  0  0  0  0
  185.5340  178.9660  147.5260 O   0  0  0  0  0  0  0  0  0  0  0  0
  184.3690  178.3590  147.0180 C   0  0  0  0  0  2  0  0  0  0  0  0
  187.5630  176.3330  146.6250 C   0  0  0  0  0  2  0  0  0  0  0  0
  185.7540  177.8030  144.1850 C   0  0  0  0  0  2  0  0  0  0  0  0
  185.1710  178.9780  143.4090 C   0  0  0  0  0  2  0  0  0  0  0  0
  185.5580  180.2730  144.0890 C   0  0  0  0  0  1  0  0  0  0  0  0
  186.5140  176.7460  141.1160 O   0  0  0  0  0  0  0  0  0  0  0  0
  187.8190  176.0470  140.7590 S   0  0  0  0  0  3  0  0  0  0  0  0
  190.2650  174.1520  141.0660 C   0  0  0  0  0  3  0  0  0  0  0  0
  191.0810  173.1290  140.8020 C   0  0  0  0  0  2  0  0  0  0  0  0
  3  2  1  1  0  0  0
  3 14  1  0  0  0  0
  6 11  1  1  0  0  0
  6 18  1  0  0  0  0
  7 26  1  6  0  0  0
  7  3  1  0  0  0  0
  7  5  1  0  0  0  0
  9  5  1  6  0  0  0
  9  6  1  0  0  0  0
 10  4  1  0  0  0  0
 11  8  1  0  0  0  0
 12  8  1  1  0  0  0
 12  4  1  0  0  0  0
 13  1  1  1  0  0  0
 13 12  1  0  0  0  0
 13 10  1  0  0  0  0
 14  9  1  0  0  0  0
 14  1  1  1  0  0  0
 16 22  1  6  0  0  0
 16 18  1  0  0  0  0
 16 17  1  0  0  0  0
 17 20  1  6  0  0  0
 17 15  1  0  0  0  0
 17 19  1  0  0  0  0
 18 21  1  6  0  0  0
 20 19  1  0  0  0  0
 21 15  1  0  0  0  0
 23 24  1  0  0  0  0
 23 22  1  0  0  0  0
 26 25  2  0  0  0  0
 27  3  1  0  0  0  0
 28 27  2  0  0  0  0
M  END
>  <MODEL>
2

>  <REMARK>
 VINA RESULT:      -7.0      1.752      2.161
  Name = 
  5 active torsions:
  status: ('A' for Active; 'I' for Inactive)
    1  A    between atoms: C_3  and  C_7
    2  A    between atoms: C_9  and  C_18
    3  A    between atoms: C_10  and  C_13
    4  A    between atoms: C_11  and  S_22
    5  A    between atoms: C_14  and  C_18
                            x       y       z     vdW  Elec       q    Type
                         _______ _______ _______ _____ _____    ______ ____

>  <TORSDO>
F 5

$$$$
=
 OpenBabel11052418163D

 28 32  0  0  1  0  0  0  0  0999 V2000
  191.7120  175.4760  142.3760 C   0  0  0  0  0  2  0  0  0  0  0  0
  192.8510  177.1460  144.4420 C   0  0  0  0  0  1  0  0  0  0  0  0
  191.9520  175.9980  144.8960 C   0  0  1  0  0  0  0  0  0  0  0  0
  191.0250  173.5270  140.0190 C   0  0  0  0  0  2  0  0  0  0  0  0
  189.8200  177.1380  145.0730 C   0  0  0  0  0  2  0  0  0  0  0  0
  188.4880  175.5920  143.6050 C   0  0  2  0  0  3  0  0  0  0  0  0
  190.9600  176.5810  145.9120 C   0  0  1  0  0  3  0  0  0  0  0  0
  189.2190  174.3550  141.5050 C   0  0  0  0  0  2  0  0  0  0  0  0
  189.8110  176.3770  143.7490 C   0  0  2  0  0  3  0  0  0  0  0  0
  192.2250  174.0940  140.4870 O   0  0  0  0  0  0  0  0  0  0  0  0
  188.6330  174.2310  142.9040 C   0  0  0  0  0  2  0  0  0  0  0  0
  190.4320  173.4370  141.3970 C   0  0  2  0  0  3  0  0  0  0  0  0
  191.7610  174.0540  141.8120 C   0  0  2  0  0  3  0  0  0  0  0  0
  191.0580  175.4960  143.7560 C   0  0  1  0  0  3  0  0  0  0  0  0
  186.6110  178.6530  142.2610 C   0  0  0  0  0  2  0  0  0  0  0  0
  186.1690  176.7480  143.8370 C   0  0  1  0  0  3  0  0  0  0  0  0
  185.6440  178.0290  143.2330 C   0  0  2  0  0  0  0  0  0  0  0  0
  187.3760  176.4280  142.9400 C   0  0  1  0  0  3  0  0  0  0  0  0
  184.4070  177.8000  142.6060 O   0  0  0  0  0  0  0  0  0  0  0  0
  184.4090  178.7060  143.6840 C   0  0  0  0  0  2  0  0  0  0  0  0
  187.8420  177.7610  142.3480 C   0  0  0  0  0  2  0  0  0  0  0  0
  186.5010  176.9250  145.3300 C   0  0  0  0  0  2  0  0  0  0  0  0
  185.2970  176.7440  146.2470 C   0  0  0  0  0  2  0  0  0  0  0  0
  185.1920  177.9290  147.1800 C   0  0  0  0  0  1  0  0  0  0  0  0
  191.1560  175.5050  148.2980 O   0  0  0  0  0  0  0  0  0  0  0  0
  190.2580  175.3800  147.0750 S   0  0  0  0  0  3  0  0  0  0  0  0
  192.8580  174.9160  145.4360 C   0  0  0  0  0  3  0  0  0  0  0  0
  194.0110  175.1600  146.0640 C   0  0  0  0  0  2  0  0  0  0  0  0
  3  2  1  6  0  0  0
  3 27  1  0  0  0  0
  3  7  1  0  0  0  0
  4 10  1  0  0  0  0
  5  7  1  0  0  0  0
  6 11  1  6  0  0  0
  6  9  1  0  0  0  0
  7 26  1  1  0  0  0
  8 11  1  0  0  0  0
  9 14  1  0  0  0  0
  9  5  1  1  0  0  0
 10 13  1  0  0  0  0
 12  4  1  6  0  0  0
 12  8  1  0  0  0  0
 12 13  1  0  0  0  0
 13  1  1  6  0  0  0
 14  1  1  6  0  0  0
 14  3  1  0  0  0  0
 15 21  1  0  0  0  0
 16 22  1  1  0  0  0
 17 15  1  6  0  0  0
 17 20  1  0  0  0  0
 17 16  1  0  0  0  0
 18 21  1  1  0  0  0
 18  6  1  0  0  0  0
 18 16  1  0  0  0  0
 19 17  1  0  0  0  0
 19 20  1  0  0  0  0
 22 23  1  0  0  0  0
 23 24  1  0  0  0  0
 26 25  2  0  0  0  0
 27 28  2  0  0  0  0
M  END
>  <MODEL>
3

>  <REMARK>
 VINA RESULT:      -7.0      2.251      4.638
  Name = 
  5 active torsions:
  status: ('A' for Active; 'I' for Inactive)
    1  A    between atoms: C_3  and  C_7
    2  A    between atoms: C_9  and  C_18
    3  A    between atoms: C_10  and  C_13
    4  A    between atoms: C_11  and  S_22
    5  A    between atoms: C_14  and  C_18
                            x       y       z     vdW  Elec       q    Type
                         _______ _______ _______ _____ _____    ______ ____

>  <TORSDO>
F 5

$$$$
=
 OpenBabel11052418163D

 28 32  0  0  1  0  0  0  0  0999 V2000
  186.3600  176.8640  143.4790 C   0  0  0  0  0  2  0  0  0  0  0  0
  185.3090  176.4730  146.1430 C   0  0  0  0  0  1  0  0  0  0  0  0
  186.4950  177.4250  145.9980 C   0  0  1  0  0  0  0  0  0  0  0  0
  186.9800  177.5120  140.4750 C   0  0  0  0  0  2  0  0  0  0  0  0
  188.3400  175.9170  146.4450 C   0  0  0  0  0  2  0  0  0  0  0  0
  189.6620  176.3740  144.3570 C   0  0  2  0  0  3  0  0  0  0  0  0
  187.5170  177.0310  147.0730 C   0  0  1  0  0  3  0  0  0  0  0  0
  188.8220  176.8650  142.0060 C   0  0  0  0  0  2  0  0  0  0  0  0
  188.2570  176.0840  144.9300 C   0  0  2  0  0  3  0  0  0  0  0  0
  185.7980  177.5060  141.2400 O   0  0  0  0  0  0  0  0  0  0  0  0
  189.6730  177.3510  143.1700 C   0  0  0  0  0  2  0  0  0  0  0  0
  187.8270  177.9590  141.6330 C   0  0  2  0  0  3  0  0  0  0  0  0
  186.5010  177.9220  142.3820 C   0  0  2  0  0  3  0  0  0  0  0  0
  187.2430  177.1980  144.6800 C   0  0  1  0  0  3  0  0  0  0  0  0
  190.7360  172.6950  144.4370 C   0  0  0  0  0  2  0  0  0  0  0  0
  191.8200  174.9500  144.6560 C   0  0  1  0  0  3  0  0  0  0  0  0
  192.0090  173.4530  144.7110 C   0  0  2  0  0  0  0  0  0  0  0  0
  190.4330  175.0860  144.0050 C   0  0  1  0  0  3  0  0  0  0  0  0
  193.0110  173.0560  143.8090 O   0  0  0  0  0  0  0  0  0  0  0  0
  193.2510  172.7970  145.1720 C   0  0  0  0  0  2  0  0  0  0  0  0
  189.6820  173.7860  144.3080 C   0  0  0  0  0  2  0  0  0  0  0  0
  191.9430  175.5840  146.0530 C   0  0  0  0  0  2  0  0  0  0  0  0
  193.2050  176.4200  146.2320 C   0  0  0  0  0  2  0  0  0  0  0  0
  193.7940  176.7400  144.8760 C   0  0  0  0  0  1  0  0  0  0  0  0
  190.0050  177.6440  147.6490 O   0  0  0  0  0  0  0  0  0  0  0  0
  188.6590  178.3520  147.5660 S   0  0  0  0  0  3  0  0  0  0  0  0
  185.9500  178.8290  146.1170 C   0  0  0  0  0  3  0  0  0  0  0  0
  184.6810  179.1550  145.8630 C   0  0  0  0  0  2  0  0  0  0  0  0
  3 27  1  0  0  0  0
  3  2  1  1  0  0  0
  3  7  1  0  0  0  0
  4 10  1  0  0  0  0
  5  7  1  0  0  0  0
  6 11  1  6  0  0  0
  6  9  1  0  0  0  0
  7 26  1  6  0  0  0
  8 11  1  0  0  0  0
  9  5  1  1  0  0  0
 10 13  1  0  0  0  0
 12  4  1  6  0  0  0
 12  8  1  0  0  0  0
 12 13  1  0  0  0  0
 13  1  1  1  0  0  0
 14  1  1  6  0  0  0
 14  9  1  0  0  0  0
 14  3  1  0  0  0  0
 16 17  1  0  0  0  0
 16 22  1  1  0  0  0
 17 15  1  1  0  0  0
 17 20  1  0  0  0  0
 18 21  1  1  0  0  0
 18  6  1  0  0  0  0
 18 16  1  0  0  0  0
 19 17  1  0  0  0  0
 19 20  1  0  0  0  0
 21 15  1  0  0  0  0
 22 23  1  0  0  0  0
 24 23  1  0  0  0  0
 26 25  2  0  0  0  0
 28 27  2  0  0  0  0
M  END
>  <MODEL>
4

>  <REMARK>
 VINA RESULT:      -6.9      2.623      7.096
  Name = 
  5 active torsions:
  status: ('A' for Active; 'I' for Inactive)
    1  A    between atoms: C_3  and  C_7
    2  A    between atoms: C_9  and  C_18
    3  A    between atoms: C_10  and  C_13
    4  A    between atoms: C_11  and  S_22
    5  A    between atoms: C_14  and  C_18
                            x       y       z     vdW  Elec       q    Type
                         _______ _______ _______ _____ _____    ______ ____

>  <TORSDO>
F 5

$$$$
=
 OpenBabel11052418163D

 28 32  0  0  1  0  0  0  0  0999 V2000
  185.2160  177.2240  143.3560 C   0  0  0  0  0  2  0  0  0  0  0  0
  185.4740  176.5210  146.1470 C   0  0  0  0  0  1  0  0  0  0  0  0
  186.5780  177.3880  145.5460 C   0  0  1  0  0  0  0  0  0  0  0  0
  184.4600  178.2650  140.4970 C   0  0  0  0  0  2  0  0  0  0  0  0
  188.1890  175.6910  144.9130 C   0  0  0  0  0  2  0  0  0  0  0  0
  188.4450  176.3520  142.5010 C   0  0  2  0  0  3  0  0  0  0  0  0
  187.9160  176.7590  145.9600 C   0  0  1  0  0  3  0  0  0  0  0  0
  186.6910  177.2530  140.8950 C   0  0  0  0  0  2  0  0  0  0  0  0
  187.4390  176.0900  143.6450 C   0  0  2  0  0  3  0  0  0  0  0  0
  183.7780  178.2360  141.7280 O   0  0  0  0  0  0  0  0  0  0  0  0
  188.0420  177.4920  141.5520 C   0  0  0  0  0  2  0  0  0  0  0  0
  185.7990  178.4650  141.1480 C   0  0  2  0  0  3  0  0  0  0  0  0
  184.9800  178.4200  142.4310 C   0  0  2  0  0  3  0  0  0  0  0  0
  186.5920  177.3040  144.0150 C   0  0  1  0  0  3  0  0  0  0  0  0
  188.7600  172.6270  141.6520 C   0  0  0  0  0  2  0  0  0  0  0  0
  190.2530  174.6450  141.7340 C   0  0  1  0  0  3  0  0  0  0  0  0
  190.1640  173.1550  141.5050 C   0  0  2  0  0  0  0  0  0  0  0  0
  188.7770  175.0750  141.7030 C   0  0  1  0  0  3  0  0  0  0  0  0
  190.6740  172.8260  140.2380 O   0  0  0  0  0  0  0  0  0  0  0  0
  191.3410  172.2740  141.3490 C   0  0  0  0  0  2  0  0  0  0  0  0
  187.9580  173.8410  142.0960 C   0  0  0  0  0  2  0  0  0  0  0  0
  190.9940  174.9700  143.0430 C   0  0  0  0  0  2  0  0  0  0  0  0
  192.2190  175.8540  142.8450 C   0  0  0  0  0  2  0  0  0  0  0  0
  191.8370  177.3020  143.0620 C   0  0  0  0  0  1  0  0  0  0  0  0
  190.5090  176.9940  146.2980 O   0  0  0  0  0  0  0  0  0  0  0  0
  189.3270  177.8980  145.9720 S   0  0  0  0  0  3  0  0  0  0  0  0
  186.3530  178.7970  146.0440 C   0  0  0  0  0  3  0  0  0  0  0  0
  185.6850  179.0890  147.1620 C   0  0  0  0  0  2  0  0  0  0  0  0
  3  7  1  0  0  0  0
  3 27  1  0  0  0  0
  3  2  1  1  0  0  0
  4 10  1  0  0  0  0
  5  7  1  0  0  0  0
  6 11  1  6  0  0  0
  6  9  1  0  0  0  0
  7 26  1  6  0  0  0
  8 12  1  0  0  0  0
  8 11  1  0  0  0  0
  9 14  1  0  0  0  0
  9  5  1  1  0  0  0
 10 13  1  0  0  0  0
 12  4  1  6  0  0  0
 12 13  1  0  0  0  0
 13  1  1  1  0  0  0
 14  1  1  1  0  0  0
 14  3  1  0  0  0  0
 15 21  1  0  0  0  0
 16 22  1  1  0  0  0
 17 20  1  1  0  0  0
 17 15  1  0  0  0  0
 17 16  1  0  0  0  0
 18 16  1  0  0  0  0
 18 21  1  1  0  0  0
 18  6  1  0  0  0  0
 19 20  1  0  0  0  0
 19 17  1  0  0  0  0
 23 22  1  0  0  0  0
 23 24  1  0  0  0  0
 26 25  2  0  0  0  0
 27 28  2  0  0  0  0
M  END
>  <MODEL>
5

>  <REMARK>
 VINA RESULT:      -6.9      2.074      6.910
  Name = 
  5 active torsions:
  status: ('A' for Active; 'I' for Inactive)
    1  A    between atoms: C_3  and  C_7
    2  A    between atoms: C_9  and  C_18
    3  A    between atoms: C_10  and  C_13
    4  A    between atoms: C_11  and  S_22
    5  A    between atoms: C_14  and  C_18
                            x       y       z     vdW  Elec       q    Type
                         _______ _______ _______ _____ _____    ______ ____

>  <TORSDO>
F 5

$$$$
=
 OpenBabel11052418163D

 28 32  0  0  1  0  0  0  0  0999 V2000
  192.8840  174.3330  145.1720 C   0  0  0  0  0  2  0  0  0  0  0  0
  191.7950  171.8160  144.2610 C   0  0  0  0  0  1  0  0  0  0  0  0
  191.7420  172.9880  143.2840 C   0  0  1  0  0  0  0  0  0  0  0  0
  194.5660  176.7760  146.1860 C   0  0  0  0  0  2  0  0  0  0  0  0
  189.5210  173.8500  143.7330 C   0  0  0  0  0  2  0  0  0  0  0  0
  190.1720  176.2330  144.1980 C   0  0  2  0  0  3  0  0  0  0  0  0
  190.3150  173.0380  142.7210 C   0  0  1  0  0  3  0  0  0  0  0  0
  192.2550  177.1270  145.3520 C   0  0  0  0  0  2  0  0  0  0  0  0
  190.5080  174.7500  144.4730 C   0  0  2  0  0  3  0  0  0  0  0  0
  194.8320  175.4000  146.0720 O   0  0  0  0  0  0  0  0  0  0  0  0
  191.4000  177.1510  144.0930 C   0  0  0  0  0  2  0  0  0  0  0  0
  193.6930  176.7940  144.9630 C   0  0  2  0  0  3  0  0  0  0  0  0
  194.0350  175.3110  144.9200 C   0  0  2  0  0  3  0  0  0  0  0  0
  191.8990  174.3320  144.0050 C   0  0  1  0  0  3  0  0  0  0  0  0
  187.4450  176.3190  146.8910 C   0  0  0  0  0  2  0  0  0  0  0  0
  187.8200  177.2720  144.5970 C   0  0  1  0  0  3  0  0  0  0  0  0
  186.8630  177.1210  145.7560 C   0  0  2  0  0  0  0  0  0  0  0  0
  189.1530  176.8040  145.2040 C   0  0  1  0  0  3  0  0  0  0  0  0
  186.4540  178.3850  146.2160 O   0  0  0  0  0  0  0  0  0  0  0  0
  185.4460  177.5410  145.7130 C   0  0  0  0  0  2  0  0  0  0  0  0
  188.7970  175.8640  146.3600 C   0  0  0  0  0  2  0  0  0  0  0  0
  187.3500  176.4680  143.3720 C   0  0  0  0  0  2  0  0  0  0  0  0
  187.2960  177.2900  142.0900 C   0  0  0  0  0  2  0  0  0  0  0  0
  186.6800  178.6400  142.3820 C   0  0  0  0  0  1  0  0  0  0  0  0
  188.6650  174.1540  141.0110 O   0  0  0  0  0  0  0  0  0  0  0  0
  190.1540  173.8510  141.1080 S   0  0  0  0  0  3  0  0  0  0  0  0
  192.8260  172.7560  142.2570 C   0  0  0  0  0  3  0  0  0  0  0  0
  193.8890  171.9740  142.4660 C   0  0  0  0  0  2  0  0  0  0  0  0
  3 14  1  0  0  0  0
  3  2  1  1  0  0  0
  6 11  1  1  0  0  0
  6  9  1  0  0  0  0
  6 18  1  0  0  0  0
  7 26  1  6  0  0  0
  7  3  1  0  0  0  0
  7  5  1  0  0  0  0
  9  5  1  6  0  0  0
 10  4  1  0  0  0  0
 11  8  1  0  0  0  0
 12  8  1  1  0  0  0
 12  4  1  0  0  0  0
 13 12  1  0  0  0  0
 13  1  1  1  0  0  0
 13 10  1  0  0  0  0
 14  9  1  0  0  0  0
 14  1  1  1  0  0  0
 16 22  1  6  0  0  0
 16 18  1  0  0  0  0
 16 17  1  0  0  0  0
 17 20  1  6  0  0  0
 17 19  1  0  0  0  0
 17 15  1  0  0  0  0
 18 21  1  1  0  0  0
 20 19  1  0  0  0  0
 21 15  1  0  0  0  0
 23 24  1  0  0  0  0
 23 22  1  0  0  0  0
 25 26  2  0  0  0  0
 27 28  2  0  0  0  0
 27  3  1  0  0  0  0
M  END
>  <MODEL>
6

>  <REMARK>
 VINA RESULT:      -6.4      1.686      2.256
  Name = 
  5 active torsions:
  status: ('A' for Active; 'I' for Inactive)
    1  A    between atoms: C_3  and  C_7
    2  A    between atoms: C_9  and  C_18
    3  A    between atoms: C_10  and  C_13
    4  A    between atoms: C_11  and  S_22
    5  A    between atoms: C_14  and  C_18
                            x       y       z     vdW  Elec       q    Type
                         _______ _______ _______ _____ _____    ______ ____

>  <TORSDO>
F 5

$$$$
=
 OpenBabel11052418163D

 28 32  0  0  1  0  0  0  0  0999 V2000
  191.8370  174.2000  141.4910 C   0  0  0  0  0  2  0  0  0  0  0  0
  193.8640  176.1820  142.0530 C   0  0  0  0  0  1  0  0  0  0  0  0
  193.2100  175.5000  143.2520 C   0  0  1  0  0  0  0  0  0  0  0  0
  190.0670  171.7610  140.6280 C   0  0  0  0  0  2  0  0  0  0  0  0
  191.4450  177.0820  143.7610 C   0  0  0  0  0  2  0  0  0  0  0  0
  189.5200  175.4660  143.7150 C   0  0  2  0  0  3  0  0  0  0  0  0
  192.8110  176.6100  144.2350 C   0  0  1  0  0  3  0  0  0  0  0  0
  189.1660  173.4420  142.2150 C   0  0  0  0  0  2  0  0  0  0  0  0
  190.8040  175.9300  142.9910 C   0  0  2  0  0  3  0  0  0  0  0  0
  191.3760  172.1670  140.3080 O   0  0  0  0  0  0  0  0  0  0  0  0
  189.2670  173.9510  143.6450 C   0  0  0  0  0  2  0  0  0  0  0  0
  190.1530  172.2940  142.0300 C   0  0  2  0  0  3  0  0  0  0  0  0
  191.5560  172.6990  141.5950 C   0  0  2  0  0  3  0  0  0  0  0  0
  191.8750  174.8490  142.8730 C   0  0  1  0  0  3  0  0  0  0  0  0
  187.3910  178.2720  142.2020 C   0  0  0  0  0  2  0  0  0  0  0  0
  187.5310  177.0100  144.3700 C   0  0  1  0  0  3  0  0  0  0  0  0
  186.8630  178.1290  143.6060 C   0  0  2  0  0  0  0  0  0  0  0  0
  188.2700  176.2460  143.2590 C   0  0  1  0  0  3  0  0  0  0  0  0
  185.4700  177.9370  143.5820 O   0  0  0  0  0  0  0  0  0  0  0  0
  185.9350  179.1040  144.2190 C   0  0  0  0  0  2  0  0  0  0  0  0
  188.5180  177.2520  142.1310 C   0  0  0  0  0  2  0  0  0  0  0  0
  188.4330  177.5550  145.4910 C   0  0  0  0  0  2  0  0  0  0  0  0
  187.8180  177.4320  146.8800 C   0  0  0  0  0  2  0  0  0  0  0  0
  186.6960  176.4180  146.8470 C   0  0  0  0  0  1  0  0  0  0  0  0
  193.8170  176.7720  146.6540 O   0  0  0  0  0  0  0  0  0  0  0  0
  192.6480  176.0830  145.9620 S   0  0  0  0  0  3  0  0  0  0  0  0
  194.2070  174.4990  143.7890 C   0  0  0  0  0  3  0  0  0  0  0  0
  195.2070  173.9900  143.0660 C   0  0  0  0  0  2  0  0  0  0  0  0
  3  2  1  6  0  0  0
  3 27  1  0  0  0  0
  3  7  1  0  0  0  0
  5  7  1  0  0  0  0
  6 11  1  6  0  0  0
  7 26  1  1  0  0  0
  8 11  1  0  0  0  0
  9  6  1  0  0  0  0
  9  5  1  1  0  0  0
 10  4  1  0  0  0  0
 10 13  1  0  0  0  0
 12  4  1  6  0  0  0
 12  8  1  0  0  0  0
 13  1  1  6  0  0  0
 13 12  1  0  0  0  0
 14  1  1  6  0  0  0
 14  9  1  0  0  0  0
 14  3  1  0  0  0  0
 16 22  1  1  0  0  0
 17 15  1  6  0  0  0
 17 20  1  0  0  0  0
 17 16  1  0  0  0  0
 18 21  1  6  0  0  0
 18  6  1  0  0  0  0
 18 16  1  0  0  0  0
 19 17  1  0  0  0  0
 19 20  1  0  0  0  0
 21 15  1  0  0  0  0
 22 23  1  0  0  0  0
 24 23  1  0  0  0  0
 26 25  2  0  0  0  0
 28 27  2  0  0  0  0
M  END
>  <MODEL>
7

>  <REMARK>
 VINA RESULT:      -6.2      2.131      4.860
  Name = 
  5 active torsions:
  status: ('A' for Active; 'I' for Inactive)
    1  A    between atoms: C_3  and  C_7
    2  A    between atoms: C_9  and  C_18
    3  A    between atoms: C_10  and  C_13
    4  A    between atoms: C_11  and  S_22
    5  A    between atoms: C_14  and  C_18
                            x       y       z     vdW  Elec       q    Type
                         _______ _______ _______ _____ _____    ______ ____

>  <TORSDO>
F 5

$$$$
=
 OpenBabel11052418163D

 28 32  0  0  1  0  0  0  0  0999 V2000
  193.1490  174.2060  142.8350 C   0  0  0  0  0  2  0  0  0  0  0  0
  194.7060  176.2780  144.1150 C   0  0  0  0  0  1  0  0  0  0  0  0
  193.7290  175.5000  144.9950 C   0  0  1  0  0  0  0  0  0  0  0  0
  191.9710  171.7080  141.3510 C   0  0  0  0  0  2  0  0  0  0  0  0
  191.7860  176.9450  144.8960 C   0  0  0  0  0  2  0  0  0  0  0  0
  190.1200  175.2200  144.1440 C   0  0  2  0  0  3  0  0  0  0  0  0
  192.9350  176.5350  145.8040 C   0  0  1  0  0  3  0  0  0  0  0  0
  190.4560  173.2540  142.5650 C   0  0  0  0  0  2  0  0  0  0  0  0
  191.5370  175.7960  143.9240 C   0  0  2  0  0  3  0  0  0  0  0  0
  193.2760  172.2090  141.5170 O   0  0  0  0  0  0  0  0  0  0  0  0
  190.0190  173.6980  143.9540 C   0  0  0  0  0  2  0  0  0  0  0  0
  191.5280  172.1780  142.7080 C   0  0  2  0  0  3  0  0  0  0  0  0
  192.9610  172.6880  142.7990 C   0  0  2  0  0  3  0  0  0  0  0  0
  192.6600  174.7880  144.1590 C   0  0  1  0  0  3  0  0  0  0  0  0
  188.4310  177.9750  142.0820 C   0  0  0  0  0  2  0  0  0  0  0  0
  187.9010  176.5770  144.1010 C   0  0  1  0  0  3  0  0  0  0  0  0
  187.4520  177.6990  143.1940 C   0  0  2  0  0  0  0  0  0  0  0  0
  189.0510  175.9440  143.3010 C   0  0  1  0  0  3  0  0  0  0  0  0
  186.1820  177.4160  142.6630 O   0  0  0  0  0  0  0  0  0  0  0  0
  186.2860  178.5650  143.4710 C   0  0  0  0  0  2  0  0  0  0  0  0
  189.5940  177.0400  142.3800 C   0  0  0  0  0  2  0  0  0  0  0  0
  188.2940  177.1030  145.4930 C   0  0  0  0  0  2  0  0  0  0  0  0
  187.5250  176.4430  146.6320 C   0  0  0  0  0  2  0  0  0  0  0  0
  188.4040  175.4070  147.2990 C   0  0  0  0  0  1  0  0  0  0  0  0
  191.8160  177.1870  148.0870 O   0  0  0  0  0  0  0  0  0  0  0  0
  192.2250  175.9170  147.3530 S   0  0  0  0  0  3  0  0  0  0  0  0
  194.5510  174.5370  145.8200 C   0  0  0  0  0  3  0  0  0  0  0  0
  195.8430  174.2860  145.5970 C   0  0  0  0  0  2  0  0  0  0  0  0
  3  2  1  6  0  0  0
  3  7  1  0  0  0  0
  3 27  1  0  0  0  0
  4 10  1  0  0  0  0
  5  7  1  0  0  0  0
  6 11  1  6  0  0  0
  7 26  1  1  0  0  0
  8 12  1  0  0  0  0
  8 11  1  0  0  0  0
  9  6  1  0  0  0  0
  9 14  1  0  0  0  0
  9  5  1  1  0  0  0
 10 13  1  0  0  0  0
 12  4  1  6  0  0  0
 12 13  1  0  0  0  0
 13  1  1  6  0  0  0
 14  1  1  6  0  0  0
 14  3  1  0  0  0  0
 15 21  1  0  0  0  0
 16 22  1  1  0  0  0
 17 15  1  6  0  0  0
 17 20  1  0  0  0  0
 17 16  1  0  0  0  0
 18 21  1  1  0  0  0
 18 16  1  0  0  0  0
 18  6  1  0  0  0  0
 19 17  1  0  0  0  0
 19 20  1  0  0  0  0
 22 23  1  0  0  0  0
 23 24  1  0  0  0  0
 26 25  2  0  0  0  0
 28 27  2  0  0  0  0
M  END
>  <MODEL>
8

>  <REMARK>
 VINA RESULT:      -6.1      2.558      5.207
  Name = 
  5 active torsions:
  status: ('A' for Active; 'I' for Inactive)
    1  A    between atoms: C_3  and  C_7
    2  A    between atoms: C_9  and  C_18
    3  A    between atoms: C_10  and  C_13
    4  A    between atoms: C_11  and  S_22
    5  A    between atoms: C_14  and  C_18
                            x       y       z     vdW  Elec       q    Type
                         _______ _______ _______ _____ _____    ______ ____

>  <TORSDO>
F 5

$$$$
=
 OpenBabel11052418163D

 28 32  0  0  1  0  0  0  0  0999 V2000
  187.4860  176.4420  145.5720 C   0  0  0  0  0  2  0  0  0  0  0  0
  189.1020  174.7930  147.3110 C   0  0  0  0  0  1  0  0  0  0  0  0
  189.8400  175.7660  146.3940 C   0  0  1  0  0  0  0  0  0  0  0  0
  185.5250  178.4510  144.1770 C   0  0  0  0  0  2  0  0  0  0  0  0
  190.3140  174.3300  144.5000 C   0  0  0  0  0  2  0  0  0  0  0  0
  189.3060  175.7820  142.7140 C   0  0  2  0  0  3  0  0  0  0  0  0
  190.9660  174.9740  145.7140 C   0  0  1  0  0  3  0  0  0  0  0  0
  187.2440  177.2670  142.8350 C   0  0  0  0  0  2  0  0  0  0  0  0
  189.1050  175.1810  144.1230 C   0  0  2  0  0  3  0  0  0  0  0  0
  185.6860  178.0230  145.5080 O   0  0  0  0  0  0  0  0  0  0  0  0
  188.7360  177.2000  142.5440 C   0  0  0  0  0  2  0  0  0  0  0  0
  186.9940  178.3510  143.8780 C   0  0  2  0  0  3  0  0  0  0  0  0
  187.0730  177.8960  145.3300 C   0  0  2  0  0  3  0  0  0  0  0  0
  188.9580  176.2240  145.2280 C   0  0  1  0  0  3  0  0  0  0  0  0
  187.8570  172.6640  141.0180 C   0  0  0  0  0  2  0  0  0  0  0  0
  189.8800  174.1350  140.7830 C   0  0  1  0  0  3  0  0  0  0  0  0
  189.1650  172.8930  140.3070 C   0  0  2  0  0  0  0  0  0  0  0  0
  188.7900  174.8530  141.5970 C   0  0  1  0  0  3  0  0  0  0  0  0
  188.9560  172.9550  138.9180 O   0  0  0  0  0  0  0  0  0  0  0  0
  189.7640  171.9010  139.3880 C   0  0  0  0  0  2  0  0  0  0  0  0
  187.8120  173.7700  142.0630 C   0  0  0  0  0  2  0  0  0  0  0  0
  191.1520  173.7830  141.5760 C   0  0  0  0  0  2  0  0  0  0  0  0
  192.3890  174.5400  141.1070 C   0  0  0  0  0  2  0  0  0  0  0  0
  192.9940  173.8290  139.9170 C   0  0  0  0  0  1  0  0  0  0  0  0
  193.4090  174.9310  144.7550 O   0  0  0  0  0  0  0  0  0  0  0  0
  192.3620  175.9720  145.1300 S   0  0  0  0  0  3  0  0  0  0  0  0
  190.3010  176.9200  147.2550 C   0  0  0  0  0  3  0  0  0  0  0  0
  191.1960  176.7980  148.2380 C   0  0  0  0  0  2  0  0  0  0  0  0
  3 27  1  0  0  0  0
  3  2  1  1  0  0  0
  4 10  1  0  0  0  0
  5  7  1  0  0  0  0
  6 11  1  1  0  0  0
  6  9  1  0  0  0  0
  7 26  1  6  0  0  0
  7  3  1  0  0  0  0
  9  5  1  1  0  0  0
  9 14  1  0  0  0  0
 11  8  1  0  0  0  0
 12  8  1  6  0  0  0
 12  4  1  0  0  0  0
 12 13  1  0  0  0  0
 13 10  1  0  0  0  0
 13  1  1  6  0  0  0
 14  1  1  1  0  0  0
 14  3  1  0  0  0  0
 15 21  1  0  0  0  0
 16 22  1  1  0  0  0
 16 18  1  0  0  0  0
 17 20  1  1  0  0  0
 17 16  1  0  0  0  0
 17 15  1  0  0  0  0
 18 21  1  1  0  0  0
 18  6  1  0  0  0  0
 19 20  1  0  0  0  0
 19 17  1  0  0  0  0
 23 22  1  0  0  0  0
 24 23  1  0  0  0  0
 25 26  2  0  0  0  0
 27 28  2  0  0  0  0
M  END
>  <MODEL>
9

>  <REMARK>
 VINA RESULT:      -6.0      2.206      6.171
  Name = 
  5 active torsions:
  status: ('A' for Active; 'I' for Inactive)
    1  A    between atoms: C_3  and  C_7
    2  A    between atoms: C_9  and  C_18
    3  A    between atoms: C_10  and  C_13
    4  A    between atoms: C_11  and  S_22
    5  A    between atoms: C_14  and  C_18
                            x       y       z     vdW  Elec       q    Type
                         _______ _______ _______ _____ _____    ______ ____

>  <TORSDO>
F 5

$$$$
