=
 OpenBabel11052417283D

 25 27  0  0  1  0  0  0  0  0999 V2000
  189.1140  175.7100  143.7620 N   0  0  0  0  0  0  0  0  0  0  0  0
  188.2010  176.5990  143.3120 C   0  0  0  0  0  0  0  0  0  0  0  0
  188.8080  174.5660  140.3570 C   0  0  0  0  0  1  0  0  0  0  0  0
  188.7170  175.2590  141.6710 C   0  0  0  0  0  0  0  0  0  0  0  0
  186.9930  177.1040  141.2750 C   0  0  0  0  0  0  0  0  0  0  0  0
  186.6200  176.7990  139.5890 Cl  0  0  0  0  0  0  0  0  0  0  0  0
  187.5640  177.6270  144.0080 C   0  0  0  0  0  3  0  0  0  0  0  0
  189.4310  174.8950  142.7600 N   0  0  0  0  0  0  0  0  0  0  0  0
  186.3440  178.1490  141.9550 C   0  0  0  0  0  3  0  0  0  0  0  0
  186.6240  178.4100  143.3140 C   0  0  0  0  0  0  0  0  0  0  0  0
  187.9210  176.3430  141.9950 C   0  0  0  0  0  0  0  0  0  0  0  0
  189.6990  175.6340  145.0820 C   0  0  0  0  0  0  0  0  0  0  0  0
  190.7780  175.4900  147.6780 C   0  0  0  0  0  3  0  0  0  0  0  0
  190.9120  176.2910  145.3940 C   0  0  0  0  0  0  0  0  0  0  0  0
  191.4410  176.2130  146.6860 C   0  0  0  0  0  3  0  0  0  0  0  0
  189.5810  174.8370  147.3830 C   0  0  0  0  0  3  0  0  0  0  0  0
  191.6370  177.0170  144.4050 N   0  0  0  0  0  1  0  0  0  0  0  0
  189.0480  174.9100  146.0950 C   0  0  0  0  0  3  0  0  0  0  0  0
  185.9140  179.5280  144.0230 C   0  0  0  0  0  2  0  0  0  0  0  0
  184.6200  179.1370  144.6000 N   0  0  0  0  0  0  0  0  0  0  0  0
  183.7630  178.8450  143.5910 O   0  0  0  0  0  1  0  0  0  0  0  0
  184.7760  177.9320  145.4100 C   0  0  0  0  0  2  0  0  0  0  0  0
  184.3750  178.6040  147.6810 O   0  0  0  0  0  1  0  0  0  0  0  0
  186.1710  177.0760  147.3090 C   0  0  0  0  0  1  0  0  0  0  0  0
  185.3760  178.2530  146.7750 C   0  0  1  0  0  3  0  0  0  0  0  0
  1 12  1  0  0  0  0
  2  1  1  0  0  0  0
  2  7  1  0  0  0  0
  3  4  1  0  0  0  0
  4 11  1  0  0  0  0
  4  8  2  0  0  0  0
  5  9  2  0  0  0  0
  5 11  1  0  0  0  0
  6  5  1  0  0  0  0
  8  1  1  0  0  0  0
  9 10  1  0  0  0  0
 10  7  2  0  0  0  0
 10 19  1  0  0  0  0
 11  2  2  0  0  0  0
 12 14  2  0  0  0  0
 12 18  1  0  0  0  0
 14 15  1  0  0  0  0
 15 13  2  0  0  0  0
 16 13  1  0  0  0  0
 17 14  1  0  0  0  0
 18 16  2  0  0  0  0
 19 20  1  0  0  0  0
 20 22  1  0  0  0  0
 21 20  1  0  0  0  0
 22 25  1  0  0  0  0
 25 24  1  1  0  0  0
 25 23  1  0  0  0  0
M  END
>  <MODEL>
1

>  <REMARK>
 VINA RESULT:      -7.0      0.000      0.000
  Name = 
  5 active torsions:
  status: ('A' for Active; 'I' for Inactive)
    1  A    between atoms: N_1  and  C_5
    2  A    between atoms: C_2  and  N_15
    3  A    between atoms: C_2  and  C_21
    4  A    between atoms: C_6  and  N_15
    5  A    between atoms: C_6  and  C_23
                            x       y       z     vdW  Elec       q    Type
                         _______ _______ _______ _____ _____    ______ ____

>  <TORSDO>
F 5

$$$$
=
 OpenBabel11052417283D

 25 27  0  0  1  0  0  0  0  0999 V2000
  187.9950  177.1200  144.6940 N   0  0  0  0  0  0  0  0  0  0  0  0
  187.7450  176.8180  143.4000 C   0  0  0  0  0  0  0  0  0  0  0  0
  185.4250  179.5540  144.0050 C   0  0  0  0  0  1  0  0  0  0  0  0
  186.4370  178.4630  143.9810 C   0  0  0  0  0  0  0  0  0  0  0  0
  186.3210  177.5680  141.5900 C   0  0  0  0  0  0  0  0  0  0  0  0
  185.0720  178.6160  140.9460 Cl  0  0  0  0  0  0  0  0  0  0  0  0
  188.3530  175.8550  142.5940 C   0  0  0  0  0  3  0  0  0  0  0  0
  187.1940  178.1220  145.0480 N   0  0  0  0  0  0  0  0  0  0  0  0
  186.9150  176.6000  140.7620 C   0  0  0  0  0  3  0  0  0  0  0  0
  187.9260  175.7480  141.2580 C   0  0  0  0  0  0  0  0  0  0  0  0
  186.7690  177.6490  142.9140 C   0  0  0  0  0  0  0  0  0  0  0  0
  188.9330  176.4800  145.5870 C   0  0  0  0  0  0  0  0  0  0  0  0
  190.7160  175.2360  147.3750 C   0  0  0  0  0  3  0  0  0  0  0  0
  190.3100  176.8040  145.5700 C   0  0  0  0  0  0  0  0  0  0  0  0
  191.1880  176.1800  146.4620 C   0  0  0  0  0  3  0  0  0  0  0  0
  189.3610  174.9090  147.4010 C   0  0  0  0  0  3  0  0  0  0  0  0
  190.8400  177.7400  144.6360 N   0  0  0  0  0  1  0  0  0  0  0  0
  188.4780  175.5270  146.5140 C   0  0  0  0  0  3  0  0  0  0  0  0
  188.5520  174.7240  140.3540 C   0  0  0  0  0  2  0  0  0  0  0  0
  188.3850  173.3400  140.8190 N   0  0  0  0  0  0  0  0  0  0  0  0
  188.0000  172.5710  139.7710 O   0  0  0  0  0  1  0  0  0  0  0  0
  189.6580  172.8180  141.3070 C   0  0  0  0  0  2  0  0  0  0  0  0
  190.2320  170.7620  142.4080 O   0  0  0  0  0  1  0  0  0  0  0  0
  189.8130  172.6530  143.8030 C   0  0  0  0  0  1  0  0  0  0  0  0
  189.4610  171.9190  142.5230 C   0  0  1  0  0  3  0  0  0  0  0  0
  1  8  1  0  0  0  0
  1 12  1  0  0  0  0
  2  1  1  0  0  0  0
  4  3  1  0  0  0  0
  4  8  2  0  0  0  0
  5 11  2  0  0  0  0
  6  5  1  0  0  0  0
  7  2  2  0  0  0  0
  9 10  2  0  0  0  0
  9  5  1  0  0  0  0
 10  7  1  0  0  0  0
 11  2  1  0  0  0  0
 11  4  1  0  0  0  0
 12 18  1  0  0  0  0
 13 16  1  0  0  0  0
 14 12  2  0  0  0  0
 14 15  1  0  0  0  0
 15 13  2  0  0  0  0
 17 14  1  0  0  0  0
 18 16  2  0  0  0  0
 19 20  1  0  0  0  0
 19 10  1  0  0  0  0
 20 22  1  0  0  0  0
 21 20  1  0  0  0  0
 22 25  1  0  0  0  0
 23 25  1  0  0  0  0
 25 24  1  1  0  0  0
M  END
>  <MODEL>
2

>  <REMARK>
 VINA RESULT:      -6.9      3.123      4.992
  Name = 
  5 active torsions:
  status: ('A' for Active; 'I' for Inactive)
    1  A    between atoms: N_1  and  C_5
    2  A    between atoms: C_2  and  N_15
    3  A    between atoms: C_2  and  C_21
    4  A    between atoms: C_6  and  N_15
    5  A    between atoms: C_6  and  C_23
                            x       y       z     vdW  Elec       q    Type
                         _______ _______ _______ _____ _____    ______ ____

>  <TORSDO>
F 5

$$$$
=
 OpenBabel11052417283D

 25 27  0  0  1  0  0  0  0  0999 V2000
  190.0120  174.8560  143.8370 N   0  0  0  0  0  0  0  0  0  0  0  0
  189.1470  175.5220  143.0390 C   0  0  0  0  0  0  0  0  0  0  0  0
  190.2210  172.7910  140.8900 C   0  0  0  0  0  1  0  0  0  0  0  0
  189.9260  173.8150  141.9280 C   0  0  0  0  0  0  0  0  0  0  0  0
  188.2260  175.3580  140.8060 C   0  0  0  0  0  0  0  0  0  0  0  0
  188.1040  174.5710  139.2430 Cl  0  0  0  0  0  0  0  0  0  0  0  0
  188.3900  176.6580  143.3260 C   0  0  0  0  0  3  0  0  0  0  0  0
  190.4890  173.8170  143.1580 N   0  0  0  0  0  0  0  0  0  0  0  0
  187.4590  176.5060  141.0710 C   0  0  0  0  0  3  0  0  0  0  0  0
  187.5370  177.1530  142.3230 C   0  0  0  0  0  0  0  0  0  0  0  0
  189.0630  174.8910  141.8250 C   0  0  0  0  0  0  0  0  0  0  0  0
  190.4060  175.1890  145.1870 C   0  0  0  0  0  0  0  0  0  0  0  0
  191.1100  175.8460  147.8330 C   0  0  0  0  0  3  0  0  0  0  0  0
  191.5350  176.0000  145.4500 C   0  0  0  0  0  0  0  0  0  0  0  0
  191.8770  176.3200  146.7680 C   0  0  0  0  0  3  0  0  0  0  0  0
  189.9940  175.0460  147.5850 C   0  0  0  0  0  3  0  0  0  0  0  0
  192.3630  176.4820  144.3960 N   0  0  0  0  0  1  0  0  0  0  0  0
  189.6470  174.7220  146.2730 C   0  0  0  0  0  3  0  0  0  0  0  0
  186.7030  178.3740  142.5870 C   0  0  0  0  0  2  0  0  0  0  0  0
  186.3120  178.5320  143.9950 N   0  0  0  0  0  0  0  0  0  0  0  0
  185.9480  179.8210  144.2050 O   0  0  0  0  0  1  0  0  0  0  0  0
  185.1550  177.6920  144.2910 C   0  0  0  0  0  2  0  0  0  0  0  0
  186.4960  177.1610  146.2120 O   0  0  0  0  0  1  0  0  0  0  0  0
  184.3230  178.0560  146.6280 C   0  0  0  0  0  1  0  0  0  0  0  0
  185.1870  177.1890  145.7310 C   0  0  1  0  0  3  0  0  0  0  0  0
  1 12  1  0  0  0  0
  2  7  1  0  0  0  0
  2  1  1  0  0  0  0
  3  4  1  0  0  0  0
  4  8  2  0  0  0  0
  5  9  2  0  0  0  0
  5 11  1  0  0  0  0
  6  5  1  0  0  0  0
  8  1  1  0  0  0  0
  9 10  1  0  0  0  0
 10 19  1  0  0  0  0
 10  7  2  0  0  0  0
 11  4  1  0  0  0  0
 11  2  2  0  0  0  0
 12 14  2  0  0  0  0
 12 18  1  0  0  0  0
 14 15  1  0  0  0  0
 15 13  2  0  0  0  0
 16 13  1  0  0  0  0
 17 14  1  0  0  0  0
 18 16  2  0  0  0  0
 19 20  1  0  0  0  0
 20 21  1  0  0  0  0
 20 22  1  0  0  0  0
 22 25  1  0  0  0  0
 25 23  1  0  0  0  0
 25 24  1  1  0  0  0
M  END
>  <MODEL>
3

>  <REMARK>
 VINA RESULT:      -6.9      1.426      1.732
  Name = 
  5 active torsions:
  status: ('A' for Active; 'I' for Inactive)
    1  A    between atoms: N_1  and  C_5
    2  A    between atoms: C_2  and  N_15
    3  A    between atoms: C_2  and  C_21
    4  A    between atoms: C_6  and  N_15
    5  A    between atoms: C_6  and  C_23
                            x       y       z     vdW  Elec       q    Type
                         _______ _______ _______ _____ _____    ______ ____

>  <TORSDO>
F 5

$$$$
=
 OpenBabel11052417283D

 25 27  0  0  1  0  0  0  0  0999 V2000
  187.0650  176.4130  143.7630 N   0  0  0  0  0  0  0  0  0  0  0  0
  188.2020  175.8660  144.2480 C   0  0  0  0  0  0  0  0  0  0  0  0
  188.1590  174.6270  140.8290 C   0  0  0  0  0  1  0  0  0  0  0  0
  187.9750  175.2400  142.1720 C   0  0  0  0  0  0  0  0  0  0  0  0
  190.0150  174.4500  143.4930 C   0  0  0  0  0  0  0  0  0  0  0  0
  190.8070  173.4880  142.2600 Cl  0  0  0  0  0  0  0  0  0  0  0  0
  188.7670  176.0050  145.5170 C   0  0  0  0  0  3  0  0  0  0  0  0
  186.9260  176.0280  142.4970 N   0  0  0  0  0  0  0  0  0  0  0  0
  190.5990  174.5700  144.7660 C   0  0  0  0  0  3  0  0  0  0  0  0
  189.9820  175.3440  145.7740 C   0  0  0  0  0  0  0  0  0  0  0  0
  188.8070  175.1210  143.2700 C   0  0  0  0  0  0  0  0  0  0  0  0
  186.1170  177.2510  144.4620 C   0  0  0  0  0  0  0  0  0  0  0  0
  184.2350  178.8290  145.8380 C   0  0  0  0  0  3  0  0  0  0  0  0
  185.7510  178.5250  143.9700 C   0  0  0  0  0  0  0  0  0  0  0  0
  184.8160  179.3020  144.6610 C   0  0  0  0  0  3  0  0  0  0  0  0
  184.5880  177.5740  146.3330 C   0  0  0  0  0  3  0  0  0  0  0  0
  186.3390  179.0600  142.7880 N   0  0  0  0  0  1  0  0  0  0  0  0
  185.5210  176.7930  145.6500 C   0  0  0  0  0  3  0  0  0  0  0  0
  190.6260  175.4640  147.1250 C   0  0  0  0  0  2  0  0  0  0  0  0
  191.6060  176.5560  147.2190 N   0  0  0  0  0  0  0  0  0  0  0  0
  191.5690  177.0690  148.4730 O   0  0  0  0  0  1  0  0  0  0  0  0
  192.9530  176.0410  146.9910 C   0  0  0  0  0  2  0  0  0  0  0  0
  194.6840  177.5500  146.2820 O   0  0  0  0  0  1  0  0  0  0  0  0
  194.1410  175.7570  144.8020 C   0  0  0  0  0  1  0  0  0  0  0  0
  193.6320  176.7540  145.8260 C   0  0  1  0  0  3  0  0  0  0  0  0
  1  2  1  0  0  0  0
  1 12  1  0  0  0  0
  2  7  1  0  0  0  0
  3  4  1  0  0  0  0
  4  8  2  0  0  0  0
  4 11  1  0  0  0  0
  5  9  2  0  0  0  0
  6  5  1  0  0  0  0
  7 10  2  0  0  0  0
  8  1  1  0  0  0  0
  9 10  1  0  0  0  0
 10 19  1  0  0  0  0
 11  5  1  0  0  0  0
 11  2  2  0  0  0  0
 12 18  1  0  0  0  0
 13 16  1  0  0  0  0
 14 12  2  0  0  0  0
 14 15  1  0  0  0  0
 15 13  2  0  0  0  0
 17 14  1  0  0  0  0
 18 16  2  0  0  0  0
 19 20  1  0  0  0  0
 20 21  1  0  0  0  0
 22 20  1  0  0  0  0
 25 24  1  6  0  0  0
 25 23  1  0  0  0  0
 25 22  1  0  0  0  0
M  END
>  <MODEL>
4

>  <REMARK>
 VINA RESULT:      -6.8      3.271      6.067
  Name = 
  5 active torsions:
  status: ('A' for Active; 'I' for Inactive)
    1  A    between atoms: N_1  and  C_5
    2  A    between atoms: C_2  and  N_15
    3  A    between atoms: C_2  and  C_21
    4  A    between atoms: C_6  and  N_15
    5  A    between atoms: C_6  and  C_23
                            x       y       z     vdW  Elec       q    Type
                         _______ _______ _______ _____ _____    ______ ____

>  <TORSDO>
F 5

$$$$
=
 OpenBabel11052417283D

 25 27  0  0  1  0  0  0  0  0999 V2000
  187.7080  176.1670  143.4130 N   0  0  0  0  0  0  0  0  0  0  0  0
  189.0540  176.0650  143.3440 C   0  0  0  0  0  0  0  0  0  0  0  0
  187.9740  173.4080  141.1080 C   0  0  0  0  0  1  0  0  0  0  0  0
  188.1870  174.5350  142.0550 C   0  0  0  0  0  0  0  0  0  0  0  0
  190.7300  174.7260  142.2220 C   0  0  0  0  0  0  0  0  0  0  0  0
  191.1920  173.4260  141.1380 Cl  0  0  0  0  0  0  0  0  0  0  0  0
  190.0230  176.8440  143.9770 C   0  0  0  0  0  3  0  0  0  0  0  0
  187.1800  175.2310  142.6280 N   0  0  0  0  0  0  0  0  0  0  0  0
  191.7230  175.4940  142.8530 C   0  0  0  0  0  3  0  0  0  0  0  0
  191.3750  176.5480  143.7250 C   0  0  0  0  0  0  0  0  0  0  0  0
  189.3950  175.0460  142.4930 C   0  0  0  0  0  0  0  0  0  0  0  0
  186.9300  177.0910  144.2050 C   0  0  0  0  0  0  0  0  0  0  0  0
  185.3830  178.8410  145.7770 C   0  0  0  0  0  3  0  0  0  0  0  0
  186.4210  178.2910  143.6550 C   0  0  0  0  0  0  0  0  0  0  0  0
  185.6550  179.1550  144.4440 C   0  0  0  0  0  3  0  0  0  0  0  0
  185.8790  177.6610  146.3300 C   0  0  0  0  0  3  0  0  0  0  0  0
  186.6970  178.6660  142.3090 N   0  0  0  0  0  1  0  0  0  0  0  0
  186.6450  176.7940  145.5490 C   0  0  0  0  0  3  0  0  0  0  0  0
  192.4530  177.3610  144.3840 C   0  0  0  0  0  2  0  0  0  0  0  0
  193.3810  176.5650  145.2000 N   0  0  0  0  0  0  0  0  0  0  0  0
  194.5700  177.2120  145.2650 O   0  0  0  0  0  1  0  0  0  0  0  0
  192.8700  176.4390  146.5620 C   0  0  0  0  0  2  0  0  0  0  0  0
  191.0250  174.9140  146.7670 O   0  0  0  0  0  1  0  0  0  0  0  0
  193.0660  174.0280  145.9030 C   0  0  0  0  0  1  0  0  0  0  0  0
  192.4140  175.0130  146.8550 C   0  0  1  0  0  3  0  0  0  0  0  0
  1 12  1  0  0  0  0
  2  1  1  0  0  0  0
  2  7  1  0  0  0  0
  3  4  1  0  0  0  0
  4 11  1  0  0  0  0
  4  8  2  0  0  0  0
  5 11  1  0  0  0  0
  5  9  2  0  0  0  0
  6  5  1  0  0  0  0
  8  1  1  0  0  0  0
  9 10  1  0  0  0  0
 10  7  2  0  0  0  0
 10 19  1  0  0  0  0
 11  2  2  0  0  0  0
 12 18  1  0  0  0  0
 13 16  1  0  0  0  0
 14 12  2  0  0  0  0
 14 15  1  0  0  0  0
 15 13  2  0  0  0  0
 17 14  1  0  0  0  0
 18 16  2  0  0  0  0
 19 20  1  0  0  0  0
 20 21  1  0  0  0  0
 20 22  1  0  0  0  0
 22 25  1  0  0  0  0
 23 25  1  0  0  0  0
 25 24  1  6  0  0  0
M  END
>  <MODEL>
5

>  <REMARK>
 VINA RESULT:      -6.7      3.311      5.776
  Name = 
  5 active torsions:
  status: ('A' for Active; 'I' for Inactive)
    1  A    between atoms: N_1  and  C_5
    2  A    between atoms: C_2  and  N_15
    3  A    between atoms: C_2  and  C_21
    4  A    between atoms: C_6  and  N_15
    5  A    between atoms: C_6  and  C_23
                            x       y       z     vdW  Elec       q    Type
                         _______ _______ _______ _____ _____    ______ ____

>  <TORSDO>
F 5

$$$$
=
 OpenBabel11052417283D

 25 27  0  0  1  0  0  0  0  0999 V2000
  190.3180  175.0010  144.4570 N   0  0  0  0  0  0  0  0  0  0  0  0
  189.7710  175.8240  145.3800 C   0  0  0  0  0  0  0  0  0  0  0  0
  193.2200  175.5960  146.5130 C   0  0  0  0  0  1  0  0  0  0  0  0
  191.8750  175.5440  145.8770 C   0  0  0  0  0  0  0  0  0  0  0  0
  190.4380  177.0550  147.3550 C   0  0  0  0  0  0  0  0  0  0  0  0
  191.6410  177.5380  148.5360 Cl  0  0  0  0  0  0  0  0  0  0  0  0
  188.4630  176.3030  145.4580 C   0  0  0  0  0  3  0  0  0  0  0  0
  191.6010  174.8290  144.7630 N   0  0  0  0  0  0  0  0  0  0  0  0
  189.1250  177.5450  147.4570 C   0  0  0  0  0  3  0  0  0  0  0  0
  188.1410  177.1740  146.5140 C   0  0  0  0  0  0  0  0  0  0  0  0
  190.7260  176.1910  146.2920 C   0  0  0  0  0  0  0  0  0  0  0  0
  189.6630  174.3700  143.3350 C   0  0  0  0  0  0  0  0  0  0  0  0
  188.3490  173.1950  141.1400 C   0  0  0  0  0  3  0  0  0  0  0  0
  189.3160  172.9990  143.3550 C   0  0  0  0  0  0  0  0  0  0  0  0
  188.6650  172.4240  142.2590 C   0  0  0  0  0  3  0  0  0  0  0  0
  188.6860  174.5480  141.1090 C   0  0  0  0  0  3  0  0  0  0  0  0
  189.6440  172.1680  144.4640 N   0  0  0  0  0  1  0  0  0  0  0  0
  189.3370  175.1290  142.1980 C   0  0  0  0  0  3  0  0  0  0  0  0
  186.7450  177.7150  146.6380 C   0  0  0  0  0  2  0  0  0  0  0  0
  185.7830  177.0880  145.7210 N   0  0  0  0  0  0  0  0  0  0  0  0
  184.8550  176.4230  146.4510 O   0  0  0  0  0  1  0  0  0  0  0  0
  185.0860  178.1120  144.9480 C   0  0  0  0  0  2  0  0  0  0  0  0
  185.8900  178.9180  142.8330 O   0  0  0  0  0  1  0  0  0  0  0  0
  185.9420  176.5570  143.1780 C   0  0  0  0  0  1  0  0  0  0  0  0
  185.2180  177.8630  143.4490 C   0  0  1  0  0  3  0  0  0  0  0  0
  1  8  1  0  0  0  0
  1  2  1  0  0  0  0
  2  7  2  0  0  0  0
  2 11  1  0  0  0  0
  4 11  1  0  0  0  0
  4  3  1  0  0  0  0
  5  9  1  0  0  0  0
  5  6  1  0  0  0  0
  7 10  1  0  0  0  0
  8  4  2  0  0  0  0
 10 19  1  0  0  0  0
 10  9  2  0  0  0  0
 11  5  2  0  0  0  0
 12 14  1  0  0  0  0
 12  1  1  0  0  0  0
 13 15  1  0  0  0  0
 14 17  1  0  0  0  0
 15 14  2  0  0  0  0
 16 13  2  0  0  0  0
 16 18  1  0  0  0  0
 18 12  2  0  0  0  0
 20 21  1  0  0  0  0
 20 19  1  0  0  0  0
 22 20  1  0  0  0  0
 23 25  1  0  0  0  0
 25 24  1  1  0  0  0
 25 22  1  0  0  0  0
M  END
>  <MODEL>
6

>  <REMARK>
 VINA RESULT:      -6.7      2.801      5.025
  Name = 
  5 active torsions:
  status: ('A' for Active; 'I' for Inactive)
    1  A    between atoms: N_1  and  C_5
    2  A    between atoms: C_2  and  N_15
    3  A    between atoms: C_2  and  C_21
    4  A    between atoms: C_6  and  N_15
    5  A    between atoms: C_6  and  C_23
                            x       y       z     vdW  Elec       q    Type
                         _______ _______ _______ _____ _____    ______ ____

>  <TORSDO>
F 5

$$$$
=
 OpenBabel11052417283D

 25 27  0  0  1  0  0  0  0  0999 V2000
  188.5950  176.9350  145.8210 N   0  0  0  0  0  0  0  0  0  0  0  0
  187.9280  176.7570  144.6580 C   0  0  0  0  0  0  0  0  0  0  0  0
  185.5800  178.7570  146.5860 C   0  0  0  0  0  1  0  0  0  0  0  0
  186.6780  177.9520  145.9870 C   0  0  0  0  0  0  0  0  0  0  0  0
  185.8180  177.3810  143.6490 C   0  0  0  0  0  0  0  0  0  0  0  0
  184.2570  178.1790  143.7090 Cl  0  0  0  0  0  0  0  0  0  0  0  0
  188.3400  176.0820  143.5090 C   0  0  0  0  0  3  0  0  0  0  0  0
  187.8300  177.6610  146.6310 N   0  0  0  0  0  0  0  0  0  0  0  0
  186.2090  176.7010  142.4830 C   0  0  0  0  0  3  0  0  0  0  0  0
  187.4630  176.0550  142.4090 C   0  0  0  0  0  0  0  0  0  0  0  0
  186.7130  177.3890  144.7240 C   0  0  0  0  0  0  0  0  0  0  0  0
  189.8970  176.4230  146.1810 C   0  0  0  0  0  0  0  0  0  0  0  0
  192.4560  175.4380  146.8220 C   0  0  0  0  0  3  0  0  0  0  0  0
  190.0430  175.2800  147.0020 C   0  0  0  0  0  0  0  0  0  0  0  0
  191.3180  174.8000  147.3160 C   0  0  0  0  0  3  0  0  0  0  0  0
  192.3250  176.5660  146.0110 C   0  0  0  0  0  3  0  0  0  0  0  0
  188.9100  174.6140  147.5520 N   0  0  0  0  0  1  0  0  0  0  0  0
  191.0560  177.0520  145.6940 C   0  0  0  0  0  3  0  0  0  0  0  0
  187.8640  175.3400  141.1510 C   0  0  0  0  0  2  0  0  0  0  0  0
  188.6390  174.1140  141.3870 N   0  0  0  0  0  0  0  0  0  0  0  0
  187.7790  173.0970  141.6410 O   0  0  0  0  0  1  0  0  0  0  0  0
  189.3980  173.7620  140.1910 C   0  0  0  0  0  2  0  0  0  0  0  0
  188.1080  173.3480  138.2070 O   0  0  0  0  0  1  0  0  0  0  0  0
  189.5680  171.6030  138.9280 C   0  0  0  0  0  1  0  0  0  0  0  0
  188.6510  172.7400  139.3390 C   0  0  1  0  0  3  0  0  0  0  0  0
  1 12  1  0  0  0  0
  1  8  1  0  0  0  0
  2 11  1  0  0  0  0
  2  1  1  0  0  0  0
  4  3  1  0  0  0  0
  4  8  2  0  0  0  0
  5  6  1  0  0  0  0
  5 11  2  0  0  0  0
  7  2  2  0  0  0  0
  9  5  1  0  0  0  0
 10  9  2  0  0  0  0
 10  7  1  0  0  0  0
 11  4  1  0  0  0  0
 12 14  1  0  0  0  0
 13 15  1  0  0  0  0
 14 15  2  0  0  0  0
 14 17  1  0  0  0  0
 16 13  2  0  0  0  0
 18 16  1  0  0  0  0
 18 12  2  0  0  0  0
 19 20  1  0  0  0  0
 19 10  1  0  0  0  0
 20 21  1  0  0  0  0
 22 20  1  0  0  0  0
 23 25  1  0  0  0  0
 25 24  1  6  0  0  0
 25 22  1  0  0  0  0
M  END
>  <MODEL>
7

>  <REMARK>
 VINA RESULT:      -6.6      3.025      5.587
  Name = 
  5 active torsions:
  status: ('A' for Active; 'I' for Inactive)
    1  A    between atoms: N_1  and  C_5
    2  A    between atoms: C_2  and  N_15
    3  A    between atoms: C_2  and  C_21
    4  A    between atoms: C_6  and  N_15
    5  A    between atoms: C_6  and  C_23
                            x       y       z     vdW  Elec       q    Type
                         _______ _______ _______ _____ _____    ______ ____

>  <TORSDO>
F 5

$$$$
=
 OpenBabel11052417283D

 25 27  0  0  1  0  0  0  0  0999 V2000
  187.7650  177.2460  146.5050 N   0  0  0  0  0  0  0  0  0  0  0  0
  187.2950  177.5130  145.2670 C   0  0  0  0  0  0  0  0  0  0  0  0
  184.5690  178.6650  147.3810 C   0  0  0  0  0  1  0  0  0  0  0  0
  185.7900  178.1350  146.7170 C   0  0  0  0  0  0  0  0  0  0  0  0
  185.3300  178.4720  144.2260 C   0  0  0  0  0  0  0  0  0  0  0  0
  183.7350  179.1950  144.3180 Cl  0  0  0  0  0  0  0  0  0  0  0  0
  187.9150  177.3090  144.0330 C   0  0  0  0  0  3  0  0  0  0  0  0
  186.8460  177.6240  147.3890 N   0  0  0  0  0  0  0  0  0  0  0  0
  185.9330  178.2700  142.9720 C   0  0  0  0  0  3  0  0  0  0  0  0
  187.2180  177.6940  142.8730 C   0  0  0  0  0  0  0  0  0  0  0  0
  186.0500  178.0790  145.3600 C   0  0  0  0  0  0  0  0  0  0  0  0
  189.0250  176.6340  146.8610 C   0  0  0  0  0  0  0  0  0  0  0  0
  191.4470  175.3830  147.5640 C   0  0  0  0  0  3  0  0  0  0  0  0
  189.9910  177.3200  147.6330 C   0  0  0  0  0  0  0  0  0  0  0  0
  191.1910  176.6910  147.9760 C   0  0  0  0  0  3  0  0  0  0  0  0
  190.5020  174.6960  146.8020 C   0  0  0  0  0  3  0  0  0  0  0  0
  189.7840  178.6660  148.0530 N   0  0  0  0  0  1  0  0  0  0  0  0
  189.3020  175.3170  146.4540 C   0  0  0  0  0  3  0  0  0  0  0  0
  187.8470  177.4930  141.5240 C   0  0  0  0  0  2  0  0  0  0  0  0
  187.3820  176.2850  140.8270 N   0  0  0  0  0  0  0  0  0  0  0  0
  187.0650  176.6130  139.5500 O   0  0  0  0  0  1  0  0  0  0  0  0
  188.4510  175.2930  140.7760 C   0  0  0  0  0  2  0  0  0  0  0  0
  188.1890  172.9200  141.0450 O   0  0  0  0  0  1  0  0  0  0  0  0
  189.2040  174.1050  142.8510 C   0  0  0  0  0  1  0  0  0  0  0  0
  188.1810  174.1350  141.7310 C   0  0  1  0  0  3  0  0  0  0  0  0
  1 12  1  0  0  0  0
  1  8  1  0  0  0  0
  2 11  1  0  0  0  0
  2  1  1  0  0  0  0
  4  3  1  0  0  0  0
  4  8  2  0  0  0  0
  5  6  1  0  0  0  0
  5 11  2  0  0  0  0
  7  2  2  0  0  0  0
  9  5  1  0  0  0  0
 10  9  2  0  0  0  0
 10  7  1  0  0  0  0
 11  4  1  0  0  0  0
 12 14  1  0  0  0  0
 13 15  1  0  0  0  0
 14 15  2  0  0  0  0
 14 17  1  0  0  0  0
 16 13  2  0  0  0  0
 18 16  1  0  0  0  0
 18 12  2  0  0  0  0
 19 10  1  0  0  0  0
 20 19  1  0  0  0  0
 21 20  1  0  0  0  0
 22 20  1  0  0  0  0
 22 25  1  0  0  0  0
 23 25  1  0  0  0  0
 25 24  1  1  0  0  0
M  END
>  <MODEL>
8

>  <REMARK>
 VINA RESULT:      -6.6      2.997      4.823
  Name = 
  5 active torsions:
  status: ('A' for Active; 'I' for Inactive)
    1  A    between atoms: N_1  and  C_5
    2  A    between atoms: C_2  and  N_15
    3  A    between atoms: C_2  and  C_21
    4  A    between atoms: C_6  and  N_15
    5  A    between atoms: C_6  and  C_23
                            x       y       z     vdW  Elec       q    Type
                         _______ _______ _______ _____ _____    ______ ____

>  <TORSDO>
F 5

$$$$
=
 OpenBabel11052417283D

 25 27  0  0  1  0  0  0  0  0999 V2000
  187.9940  177.2160  145.6970 N   0  0  0  0  0  0  0  0  0  0  0  0
  188.5980  176.4510  144.7610 C   0  0  0  0  0  0  0  0  0  0  0  0
  191.1540  176.6590  147.3410 C   0  0  0  0  0  1  0  0  0  0  0  0
  189.9800  176.7090  146.4280 C   0  0  0  0  0  0  0  0  0  0  0  0
  190.7020  175.3030  144.4190 C   0  0  0  0  0  0  0  0  0  0  0  0
  192.3140  174.8520  144.9430 Cl  0  0  0  0  0  0  0  0  0  0  0  0
  188.0950  176.0050  143.5380 C   0  0  0  0  0  3  0  0  0  0  0  0
  188.8380  177.3750  146.7120 N   0  0  0  0  0  0  0  0  0  0  0  0
  190.2190  174.8470  143.1810 C   0  0  0  0  0  3  0  0  0  0  0  0
  188.9220  175.1930  142.7410 C   0  0  0  0  0  0  0  0  0  0  0  0
  189.8540  176.1080  145.1880 C   0  0  0  0  0  0  0  0  0  0  0  0
  186.6760  177.8060  145.6420 C   0  0  0  0  0  0  0  0  0  0  0  0
  184.1350  179.0130  145.5150 C   0  0  0  0  0  3  0  0  0  0  0  0
  185.6960  177.5220  146.6220 C   0  0  0  0  0  0  0  0  0  0  0  0
  184.4360  178.1250  146.5490 C   0  0  0  0  0  3  0  0  0  0  0  0
  185.0940  179.3000  144.5430 C   0  0  0  0  0  3  0  0  0  0  0  0
  185.9490  176.6020  147.6790 N   0  0  0  0  0  1  0  0  0  0  0  0
  186.3530  178.7010  144.6080 C   0  0  0  0  0  3  0  0  0  0  0  0
  188.4220  174.6900  141.4170 C   0  0  0  0  0  2  0  0  0  0  0  0
  188.4760  173.2270  141.2800 N   0  0  0  0  0  0  0  0  0  0  0  0
  187.4060  172.6900  141.9150 O   0  0  0  0  0  1  0  0  0  0  0  0
  188.3890  172.8520  139.8720 C   0  0  0  0  0  2  0  0  0  0  0  0
  190.2600  173.4570  138.4920 O   0  0  0  0  0  1  0  0  0  0  0  0
  188.1170  174.2610  137.8160 C   0  0  0  0  0  1  0  0  0  0  0  0
  189.0300  173.9060  138.9750 C   0  0  1  0  0  3  0  0  0  0  0  0
  1  8  1  0  0  0  0
  2 11  1  0  0  0  0
  2  1  1  0  0  0  0
  4  8  2  0  0  0  0
  4  3  1  0  0  0  0
  5  6  1  0  0  0  0
  5 11  2  0  0  0  0
  7  2  2  0  0  0  0
  9  5  1  0  0  0  0
 10  9  2  0  0  0  0
 10  7  1  0  0  0  0
 11  4  1  0  0  0  0
 12  1  1  0  0  0  0
 12 14  1  0  0  0  0
 13 15  1  0  0  0  0
 14 17  1  0  0  0  0
 15 14  2  0  0  0  0
 16 18  1  0  0  0  0
 16 13  2  0  0  0  0
 18 12  2  0  0  0  0
 19 10  1  0  0  0  0
 20 19  1  0  0  0  0
 20 21  1  0  0  0  0
 22 20  1  0  0  0  0
 23 25  1  0  0  0  0
 25 24  1  6  0  0  0
 25 22  1  0  0  0  0
M  END
>  <MODEL>
9

>  <REMARK>
 VINA RESULT:      -6.6      3.423      6.644
  Name = 
  5 active torsions:
  status: ('A' for Active; 'I' for Inactive)
    1  A    between atoms: N_1  and  C_5
    2  A    between atoms: C_2  and  N_15
    3  A    between atoms: C_2  and  C_21
    4  A    between atoms: C_6  and  N_15
    5  A    between atoms: C_6  and  C_23
                            x       y       z     vdW  Elec       q    Type
                         _______ _______ _______ _____ _____    ______ ____

>  <TORSDO>
F 5

$$$$
