=
 OpenBabel11052417353D

 25 27  0  0  1  0  0  0  0  0999 V2000
  189.1270  176.0290  143.3030 N   0  0  0  0  0  0  0  0  0  0  0  0
  188.4550  177.0850  142.5360 C   0  0  0  0  0  0  0  0  0  0  0  0
  189.0550  174.4860  141.4770 C   0  0  0  0  0  3  0  0  0  0  0  0
  189.9230  176.2310  144.4690 C   0  0  0  0  0  0  0  0  0  0  0  0
  188.1490  175.3670  140.7970 N   0  0  0  0  0  0  0  0  0  0  0  0
  190.7420  175.2130  144.7520 C   0  0  0  0  0  0  0  0  0  0  0  0
  186.7820  177.3540  140.6160 C   0  0  1  0  0  3  0  0  0  0  0  0
  186.4160  177.1400  139.1880 C   0  0  0  0  0  1  0  0  0  0  0  0
  187.4450  177.8410  143.3600 C   0  0  0  0  0  3  0  0  0  0  0  0
  189.4900  174.7990  142.6950 C   0  0  0  0  0  0  0  0  0  0  0  0
  190.6500  173.8140  143.6230 S   0  0  0  0  0  0  0  0  0  0  0  0
  186.1140  178.2590  141.3400 C   0  0  0  0  0  3  0  0  0  0  0  0
  186.4010  178.4500  142.7810 C   0  0  0  0  0  0  0  0  0  0  0  0
  187.8160  176.5350  141.2730 C   0  0  0  0  0  0  0  0  0  0  0  0
  192.4340  175.2340  146.7230 N   0  0  0  0  0  0  0  0  0  0  0  0
  191.6800  175.2250  145.8460 C   0  0  0  0  0  0  0  0  0  0  0  0
  189.0750  177.3610  146.4970 C   0  0  0  0  0  1  0  0  0  0  0  0
  189.9130  177.5150  145.2430 C   0  0  0  0  0  2  0  0  0  0  0  0
  185.4560  179.2400  143.6170 C   0  0  0  0  0  2  0  0  0  0  0  0
  185.9820  179.3530  145.0380 C   0  0  0  0  0  2  0  0  0  0  0  0
  185.2100  178.4290  145.9660 C   0  0  2  0  0  3  0  0  0  0  0  0
  183.7990  178.7670  145.9250 N   0  0  0  0  0  1  0  0  0  0  0  0
  185.7150  178.5320  147.3700 C   0  0  0  0  0  0  0  0  0  0  0  0
  186.0630  179.7720  147.8840 O   0  0  0  0  0  0  0  0  0  0  0  0
  185.8190  177.5030  148.0910 O   0  0  0  0  0  1  0  0  0  0  0  0
  1  4  1  0  0  0  0
  2  1  1  0  0  0  0
  2  9  2  0  0  0  0
  3 10  2  0  0  0  0
  4  6  2  0  0  0  0
  4 18  1  0  0  0  0
  5 14  2  0  0  0  0
  5  3  1  0  0  0  0
  6 16  1  0  0  0  0
  7  8  1  1  0  0  0
  7 14  1  0  0  0  0
  7 12  1  0  0  0  0
 10  1  1  0  0  0  0
 10 11  1  0  0  0  0
 11  6  1  0  0  0  0
 12 13  2  0  0  0  0
 13  9  1  0  0  0  0
 13 19  1  0  0  0  0
 14  2  1  0  0  0  0
 16 15  3  0  0  0  0
 18 17  1  0  0  0  0
 19 20  1  0  0  0  0
 20 21  1  0  0  0  0
 21 22  1  1  0  0  0
 21 23  1  0  0  0  0
 23 24  2  0  0  0  0
 23 25  1  0  0  0  0
M  END
>  <MODEL>
1

>  <REMARK>
 VINA RESULT:      -6.7      0.000      0.000
  Name = 
  6 active torsions:
  status: ('A' for Active; 'I' for Inactive)
    1  A    between atoms: C_2  and  CA_21
    2  A    between atoms: C_5  and  C_22
    3  A    between atoms: C_6  and  C_15
    4  A    between atoms: C_6  and  C_23
    5  A    between atoms: C_10  and  C_11
    6  A    between atoms: C_15  and  CA_21
                            x       y       z     vdW  Elec       q    Type
                         _______ _______ _______ _____ _____    ______ ____

>  <TORSDO>
F 6

$$$$
=
 OpenBabel11052417353D

 25 27  0  0  1  0  0  0  0  0999 V2000
  186.1440  177.7010  143.1890 N   0  0  0  0  0  0  0  0  0  0  0  0
  186.8650  177.9570  144.4410 C   0  0  2  0  0  3  0  0  0  0  0  0
  184.2740  179.0400  143.8500 C   0  0  0  0  0  3  0  0  0  0  0  0
  186.7330  177.2620  141.9670 C   0  0  0  0  0  0  0  0  0  0  0  0
  184.8000  179.0750  145.1850 N   0  0  0  0  0  0  0  0  0  0  0  0
  185.9770  177.4830  140.8870 C   0  0  0  0  0  0  0  0  0  0  0  0
  186.3990  178.4890  146.9020 C   0  0  0  0  0  0  0  0  0  0  0  0
  185.8270  179.3960  147.9380 C   0  0  0  0  0  1  0  0  0  0  0  0
  187.5610  176.7270  144.9660 C   0  0  0  0  0  3  0  0  0  0  0  0
  184.9110  178.3470  142.9090 C   0  0  0  0  0  0  0  0  0  0  0  0
  184.3860  178.2610  141.2070 S   0  0  0  0  0  0  0  0  0  0  0  0
  187.2830  177.5520  147.2610 C   0  0  0  0  0  3  0  0  0  0  0  0
  187.8200  176.5870  146.2730 C   0  0  0  0  0  0  0  0  0  0  0  0
  185.9530  178.5510  145.4990 C   0  0  0  0  0  0  0  0  0  0  0  0
  186.7380  176.9320  138.4650 N   0  0  0  0  0  0  0  0  0  0  0  0
  186.3980  177.1780  139.5430 C   0  0  0  0  0  0  0  0  0  0  0  0
  188.0710  175.1850  141.8800 C   0  0  0  0  0  1  0  0  0  0  0  0
  188.1220  176.7010  141.8960 C   0  0  0  0  0  2  0  0  0  0  0  0
  188.5630  175.3880  146.7500 C   0  0  0  0  0  2  0  0  0  0  0  0
  189.6350  175.0030  145.7440 C   0  0  0  0  0  2  0  0  0  0  0  0
  191.0190  175.1660  146.3520 C   0  0  2  0  0  3  0  0  0  0  0  0
  190.9000  175.3390  147.7900 N   0  0  0  0  0  1  0  0  0  0  0  0
  191.7330  176.3370  145.7580 C   0  0  0  0  0  0  0  0  0  0  0  0
  193.0720  176.5460  146.0550 O   0  0  0  0  0  1  0  0  0  0  0  0
  191.1320  177.1280  144.9830 O   0  0  0  0  0  0  0  0  0  0  0  0
  1  2  1  0  0  0  0
  2  9  1  1  0  0  0
  2 14  1  0  0  0  0
  3  5  1  0  0  0  0
  4  1  1  0  0  0  0
  5 14  2  0  0  0  0
  6 11  1  0  0  0  0
  6  4  2  0  0  0  0
  7 12  2  0  0  0  0
  7  8  1  0  0  0  0
  9 13  2  0  0  0  0
 10  1  1  0  0  0  0
 10  3  2  0  0  0  0
 11 10  1  0  0  0  0
 13 19  1  0  0  0  0
 13 12  1  0  0  0  0
 14  7  1  0  0  0  0
 15 16  3  0  0  0  0
 16  6  1  0  0  0  0
 17 18  1  0  0  0  0
 18  4  1  0  0  0  0
 20 21  1  0  0  0  0
 20 19  1  0  0  0  0
 21 22  1  1  0  0  0
 23 24  1  0  0  0  0
 23 21  1  0  0  0  0
 25 23  2  0  0  0  0
M  END
>  <MODEL>
2

>  <REMARK>
 VINA RESULT:      -6.7      2.947      6.377
  Name = 
  6 active torsions:
  status: ('A' for Active; 'I' for Inactive)
    1  A    between atoms: C_2  and  CA_21
    2  A    between atoms: C_5  and  C_22
    3  A    between atoms: C_6  and  C_15
    4  A    between atoms: C_6  and  C_23
    5  A    between atoms: C_10  and  C_11
    6  A    between atoms: C_15  and  CA_21
                            x       y       z     vdW  Elec       q    Type
                         _______ _______ _______ _____ _____    ______ ____

>  <TORSDO>
F 6

$$$$
=
 OpenBabel11052417353D

 25 27  0  0  1  0  0  0  0  0999 V2000
  189.3730  176.5230  144.2990 N   0  0  0  0  0  0  0  0  0  0  0  0
  188.0010  176.7900  144.7450 C   0  0  2  0  0  3  0  0  0  0  0  0
  190.2580  176.6890  146.5150 C   0  0  0  0  0  3  0  0  0  0  0  0
  189.7380  175.8900  143.0730 C   0  0  0  0  0  0  0  0  0  0  0  0
  189.0050  177.2370  146.9500 N   0  0  0  0  0  0  0  0  0  0  0  0
  190.9810  175.3980  143.0630 C   0  0  0  0  0  0  0  0  0  0  0  0
  186.7470  178.0300  146.6020 C   0  0  0  0  0  0  0  0  0  0  0  0
  186.4410  178.2150  148.0480 C   0  0  0  0  0  1  0  0  0  0  0  0
  187.2550  177.6980  143.8020 C   0  0  0  0  0  3  0  0  0  0  0  0
  190.4330  176.3830  145.2320 C   0  0  0  0  0  0  0  0  0  0  0  0
  191.9230  175.6560  144.5750 S   0  0  0  0  0  0  0  0  0  0  0  0
  185.9320  178.5600  145.6820 C   0  0  0  0  0  3  0  0  0  0  0  0
  186.2410  178.4600  144.2360 C   0  0  0  0  0  0  0  0  0  0  0  0
  187.9730  177.3420  146.1590 C   0  0  0  0  0  0  0  0  0  0  0  0
  191.9850  174.0770  141.0650 N   0  0  0  0  0  0  0  0  0  0  0  0
  191.5390  174.6650  141.9560 C   0  0  0  0  0  0  0  0  0  0  0  0
  188.0080  174.4070  142.1160 C   0  0  0  0  0  1  0  0  0  0  0  0
  188.7720  175.7040  141.9410 C   0  0  0  0  0  2  0  0  0  0  0  0
  185.4860  179.2990  143.2660 C   0  0  0  0  0  2  0  0  0  0  0  0
  184.0690  178.7710  143.1090 C   0  0  0  0  0  2  0  0  0  0  0  0
  183.9290  178.0070  141.8030 C   0  0  2  0  0  3  0  0  0  0  0  0
  184.9090  178.4930  140.8470 N   0  0  0  0  0  1  0  0  0  0  0  0
  182.5520  178.1570  141.2380 C   0  0  0  0  0  0  0  0  0  0  0  0
  181.5540  178.7350  142.0080 O   0  0  0  0  0  1  0  0  0  0  0  0
  182.2950  177.7710  140.0660 O   0  0  0  0  0  0  0  0  0  0  0  0
  1  2  1  0  0  0  0
  1 10  1  0  0  0  0
  2  9  1  6  0  0  0
  2 14  1  0  0  0  0
  3  5  1  0  0  0  0
  4  1  1  0  0  0  0
  6  4  2  0  0  0  0
  6 11  1  0  0  0  0
  7  8  1  0  0  0  0
  9 13  2  0  0  0  0
 10  3  2  0  0  0  0
 11 10  1  0  0  0  0
 12  7  2  0  0  0  0
 13 12  1  0  0  0  0
 14  7  1  0  0  0  0
 14  5  2  0  0  0  0
 15 16  3  0  0  0  0
 16  6  1  0  0  0  0
 18 17  1  0  0  0  0
 18  4  1  0  0  0  0
 19 13  1  0  0  0  0
 20 19  1  0  0  0  0
 21 22  1  6  0  0  0
 21 20  1  0  0  0  0
 23 21  1  0  0  0  0
 23 24  1  0  0  0  0
 25 23  2  0  0  0  0
M  END
>  <MODEL>
3

>  <REMARK>
 VINA RESULT:      -6.3      3.077      4.863
  Name = 
  6 active torsions:
  status: ('A' for Active; 'I' for Inactive)
    1  A    between atoms: C_2  and  CA_21
    2  A    between atoms: C_5  and  C_22
    3  A    between atoms: C_6  and  C_15
    4  A    between atoms: C_6  and  C_23
    5  A    between atoms: C_10  and  C_11
    6  A    between atoms: C_15  and  CA_21
                            x       y       z     vdW  Elec       q    Type
                         _______ _______ _______ _____ _____    ______ ____

>  <TORSDO>
F 6

$$$$
=
 OpenBabel11052417353D

 25 27  0  0  1  0  0  0  0  0999 V2000
  187.6120  176.9080  143.7230 N   0  0  0  0  0  0  0  0  0  0  0  0
  188.2260  175.6380  143.3190 C   0  0  0  0  0  0  0  0  0  0  0  0
  186.7190  177.3120  141.5410 C   0  0  0  0  0  3  0  0  0  0  0  0
  187.3090  177.2930  145.0620 C   0  0  0  0  0  0  0  0  0  0  0  0
  187.5360  176.2460  141.0340 N   0  0  0  0  0  0  0  0  0  0  0  0
  186.4110  178.2790  145.1560 C   0  0  0  0  0  0  0  0  0  0  0  0
  189.1970  174.5000  141.2400 C   0  0  1  0  0  3  0  0  0  0  0  0
  189.0170  173.9750  139.8570 C   0  0  0  0  0  1  0  0  0  0  0  0
  189.5980  175.4470  143.9140 C   0  0  0  0  0  3  0  0  0  0  0  0
  186.7910  177.6420  142.8280 C   0  0  0  0  0  0  0  0  0  0  0  0
  185.7980  178.9130  143.5870 S   0  0  0  0  0  0  0  0  0  0  0  0
  190.2580  174.1170  141.9590 C   0  0  0  0  0  3  0  0  0  0  0  0
  190.5090  174.6720  143.3100 C   0  0  0  0  0  0  0  0  0  0  0  0
  188.2710  175.4960  141.8080 C   0  0  0  0  0  0  0  0  0  0  0  0
  185.5080  179.1910  147.4140 N   0  0  0  0  0  0  0  0  0  0  0  0
  185.9110  178.7850  146.4090 C   0  0  0  0  0  0  0  0  0  0  0  0
  189.0750  177.3340  146.7920 C   0  0  0  0  0  1  0  0  0  0  0  0
  187.8740  176.5810  146.2550 C   0  0  0  0  0  2  0  0  0  0  0  0
  191.8330  174.4550  143.9560 C   0  0  0  0  0  2  0  0  0  0  0  0
  192.1400  175.5940  144.9150 C   0  0  0  0  0  2  0  0  0  0  0  0
  192.8480  175.0690  146.1540 C   0  0  2  0  0  3  0  0  0  0  0  0
  191.9760  175.2080  147.3070 N   0  0  0  0  0  1  0  0  0  0  0  0
  194.1270  175.8050  146.3940 C   0  0  0  0  0  0  0  0  0  0  0  0
  194.0920  177.0920  146.9100 O   0  0  0  0  0  1  0  0  0  0  0  0
  195.2360  175.2610  146.1410 O   0  0  0  0  0  0  0  0  0  0  0  0
  1  4  1  0  0  0  0
  2  1  1  0  0  0  0
  2  9  2  0  0  0  0
  3 10  2  0  0  0  0
  4  6  2  0  0  0  0
  4 18  1  0  0  0  0
  5  3  1  0  0  0  0
  5 14  2  0  0  0  0
  6 16  1  0  0  0  0
  7  8  1  6  0  0  0
  7 14  1  0  0  0  0
  7 12  1  0  0  0  0
 10 11  1  0  0  0  0
 10  1  1  0  0  0  0
 11  6  1  0  0  0  0
 12 13  2  0  0  0  0
 13  9  1  0  0  0  0
 13 19  1  0  0  0  0
 14  2  1  0  0  0  0
 16 15  3  0  0  0  0
 18 17  1  0  0  0  0
 19 20  1  0  0  0  0
 20 21  1  0  0  0  0
 21 23  1  0  0  0  0
 21 22  1  1  0  0  0
 23 24  1  0  0  0  0
 25 23  2  0  0  0  0
M  END
>  <MODEL>
4

>  <REMARK>
 VINA RESULT:      -6.1      3.222      5.882
  Name = 
  6 active torsions:
  status: ('A' for Active; 'I' for Inactive)
    1  A    between atoms: C_2  and  CA_21
    2  A    between atoms: C_5  and  C_22
    3  A    between atoms: C_6  and  C_15
    4  A    between atoms: C_6  and  C_23
    5  A    between atoms: C_10  and  C_11
    6  A    between atoms: C_15  and  CA_21
                            x       y       z     vdW  Elec       q    Type
                         _______ _______ _______ _____ _____    ______ ____

>  <TORSDO>
F 6

$$$$
=
 OpenBabel11052417353D

 25 27  0  0  1  0  0  0  0  0999 V2000
  187.2230  176.9440  144.7110 N   0  0  0  0  0  0  0  0  0  0  0  0
  188.6690  176.7350  144.8450 C   0  0  2  0  0  3  0  0  0  0  0  0
  187.0200  177.8240  146.9260 C   0  0  0  0  0  3  0  0  0  0  0  0
  186.5100  177.0420  143.4790 C   0  0  0  0  0  0  0  0  0  0  0  0
  188.3530  177.3700  147.2040 N   0  0  0  0  0  0  0  0  0  0  0  0
  185.3110  177.6220  143.5890 C   0  0  0  0  0  0  0  0  0  0  0  0
  190.4240  176.2520  146.6470 C   0  0  0  0  0  0  0  0  0  0  0  0
  191.1380  176.6580  147.8900 C   0  0  0  0  0  1  0  0  0  0  0  0
  189.1230  175.4370  144.2280 C   0  0  0  0  0  3  0  0  0  0  0  0
  186.4760  177.5810  145.7360 C   0  0  0  0  0  0  0  0  0  0  0  0
  184.8510  178.1310  145.2530 S   0  0  0  0  0  0  0  0  0  0  0  0
  190.9450  175.2970  145.8680 C   0  0  0  0  0  3  0  0  0  0  0  0
  190.2290  174.8170  144.6630 C   0  0  0  0  0  0  0  0  0  0  0  0
  189.1130  176.8270  146.2940 C   0  0  0  0  0  0  0  0  0  0  0  0
  183.7520  178.0910  141.5650 N   0  0  0  0  0  0  0  0  0  0  0  0
  184.4460  177.8810  142.4660 C   0  0  0  0  0  0  0  0  0  0  0  0
  187.8470  177.7870  141.5380 C   0  0  0  0  0  1  0  0  0  0  0  0
  187.1040  176.6250  142.1670 C   0  0  0  0  0  2  0  0  0  0  0  0
  190.6830  173.5690  143.9910 C   0  0  0  0  0  2  0  0  0  0  0  0
  189.5930  172.5120  144.0580 C   0  0  0  0  0  2  0  0  0  0  0  0
  189.3720  171.8890  142.6890 C   0  0  2  0  0  3  0  0  0  0  0  0
  190.6540  171.6610  142.0460 N   0  0  0  0  0  1  0  0  0  0  0  0
  188.5220  172.7680  141.8280 C   0  0  0  0  0  0  0  0  0  0  0  0
  189.1230  173.5980  140.8920 O   0  0  0  0  0  0  0  0  0  0  0  0
  187.2670  172.7540  141.9400 O   0  0  0  0  0  1  0  0  0  0  0  0
  1  2  1  0  0  0  0
  1 10  1  0  0  0  0
  2  9  1  1  0  0  0
  2 14  1  0  0  0  0
  3  5  1  0  0  0  0
  4  6  2  0  0  0  0
  4  1  1  0  0  0  0
  6 11  1  0  0  0  0
  7  8  1  0  0  0  0
  9 13  2  0  0  0  0
 10  3  2  0  0  0  0
 11 10  1  0  0  0  0
 12  7  2  0  0  0  0
 13 12  1  0  0  0  0
 14  7  1  0  0  0  0
 14  5  2  0  0  0  0
 15 16  3  0  0  0  0
 16  6  1  0  0  0  0
 17 18  1  0  0  0  0
 18  4  1  0  0  0  0
 19 20  1  0  0  0  0
 19 13  1  0  0  0  0
 21 22  1  6  0  0  0
 21 20  1  0  0  0  0
 23 25  1  0  0  0  0
 23 21  1  0  0  0  0
 24 23  2  0  0  0  0
M  END
>  <MODEL>
5

>  <REMARK>
 VINA RESULT:      -6.1      3.537      7.106
  Name = 
  6 active torsions:
  status: ('A' for Active; 'I' for Inactive)
    1  A    between atoms: C_2  and  CA_21
    2  A    between atoms: C_5  and  C_22
    3  A    between atoms: C_6  and  C_15
    4  A    between atoms: C_6  and  C_23
    5  A    between atoms: C_10  and  C_11
    6  A    between atoms: C_15  and  CA_21
                            x       y       z     vdW  Elec       q    Type
                         _______ _______ _______ _____ _____    ______ ____

>  <TORSDO>
F 6

$$$$
=
 OpenBabel11052417353D

 25 27  0  0  1  0  0  0  0  0999 V2000
  188.2210  176.4810  143.4870 N   0  0  0  0  0  0  0  0  0  0  0  0
  188.8130  175.2900  144.1090 C   0  0  0  0  0  0  0  0  0  0  0  0
  188.1890  175.4820  141.3140 C   0  0  0  0  0  3  0  0  0  0  0  0
  187.5090  177.5080  144.1750 C   0  0  0  0  0  0  0  0  0  0  0  0
  189.0250  174.4260  141.8110 N   0  0  0  0  0  0  0  0  0  0  0  0
  186.7330  178.2560  143.3840 C   0  0  0  0  0  0  0  0  0  0  0  0
  190.3340  173.3170  143.5160 C   0  0  1  0  0  3  0  0  0  0  0  0
  190.5980  172.0920  142.7110 C   0  0  0  0  0  1  0  0  0  0  0  0
  189.8650  175.6370  145.1300 C   0  0  0  0  0  3  0  0  0  0  0  0
  187.8390  176.4810  142.1200 C   0  0  0  0  0  0  0  0  0  0  0  0
  186.7700  177.8240  141.6370 S   0  0  0  0  0  0  0  0  0  0  0  0
  191.0350  173.5370  144.6340 C   0  0  0  0  0  3  0  0  0  0  0  0
  190.8520  174.7780  145.4220 C   0  0  0  0  0  0  0  0  0  0  0  0
  189.3680  174.3360  143.0670 C   0  0  0  0  0  0  0  0  0  0  0  0
  185.1910  180.1520  144.2630 N   0  0  0  0  0  0  0  0  0  0  0  0
  185.8790  179.3090  143.8710 C   0  0  0  0  0  0  0  0  0  0  0  0
  186.4670  176.8160  146.3070 C   0  0  0  0  0  1  0  0  0  0  0  0
  187.5500  177.6600  145.6660 C   0  0  0  0  0  2  0  0  0  0  0  0
  191.8390  175.1260  146.4800 C   0  0  0  0  0  2  0  0  0  0  0  0
  193.2060  174.5620  146.1260 C   0  0  0  0  0  2  0  0  0  0  0  0
  194.2510  175.6650  146.1180 C   0  0  2  0  0  3  0  0  0  0  0  0
  193.7670  176.7990  146.8870 N   0  0  0  0  0  1  0  0  0  0  0  0
  194.5660  176.0970  144.7210 C   0  0  0  0  0  0  0  0  0  0  0  0
  193.6010  175.9730  143.7320 O   0  0  0  0  0  0  0  0  0  0  0  0
  195.6950  176.5810  144.4390 O   0  0  0  0  0  1  0  0  0  0  0  0
  1  2  1  0  0  0  0
  1  4  1  0  0  0  0
  2  9  2  0  0  0  0
  3  5  1  0  0  0  0
  3 10  2  0  0  0  0
  4 18  1  0  0  0  0
  5 14  2  0  0  0  0
  6 16  1  0  0  0  0
  6  4  2  0  0  0  0
  7  8  1  6  0  0  0
  7 12  1  0  0  0  0
  9 13  1  0  0  0  0
 10  1  1  0  0  0  0
 11 10  1  0  0  0  0
 11  6  1  0  0  0  0
 12 13  2  0  0  0  0
 13 19  1  0  0  0  0
 14  7  1  0  0  0  0
 14  2  1  0  0  0  0
 16 15  3  0  0  0  0
 18 17  1  0  0  0  0
 20 19  1  0  0  0  0
 21 20  1  0  0  0  0
 21 22  1  1  0  0  0
 23 21  1  0  0  0  0
 24 23  2  0  0  0  0
 25 23  1  0  0  0  0
M  END
>  <MODEL>
6

>  <REMARK>
 VINA RESULT:      -6.0      3.429      6.569
  Name = 
  6 active torsions:
  status: ('A' for Active; 'I' for Inactive)
    1  A    between atoms: C_2  and  CA_21
    2  A    between atoms: C_5  and  C_22
    3  A    between atoms: C_6  and  C_15
    4  A    between atoms: C_6  and  C_23
    5  A    between atoms: C_10  and  C_11
    6  A    between atoms: C_15  and  CA_21
                            x       y       z     vdW  Elec       q    Type
                         _______ _______ _______ _____ _____    ______ ____

>  <TORSDO>
F 6

$$$$
=
 OpenBabel11052417353D

 25 27  0  0  1  0  0  0  0  0999 V2000
  190.2450  175.7120  145.7170 N   0  0  0  0  0  0  0  0  0  0  0  0
  188.8000  175.8460  145.9390 C   0  0  2  0  0  3  0  0  0  0  0  0
  190.7840  177.1810  147.5260 C   0  0  0  0  0  3  0  0  0  0  0  0
  190.8800  174.6470  145.0120 C   0  0  0  0  0  0  0  0  0  0  0  0
  189.4040  177.5700  147.5930 N   0  0  0  0  0  0  0  0  0  0  0  0
  192.1840  174.5200  145.2770 C   0  0  0  0  0  0  0  0  0  0  0  0
  187.1020  177.5320  146.8510 C   0  0  0  0  0  0  0  0  0  0  0  0
  186.5800  178.3510  147.9810 C   0  0  0  0  0  1  0  0  0  0  0  0
  188.0260  175.9480  144.6500 C   0  0  0  0  0  3  0  0  0  0  0  0
  191.1810  176.3150  146.5970 C   0  0  0  0  0  0  0  0  0  0  0  0
  192.8540  175.7200  146.4390 S   0  0  0  0  0  0  0  0  0  0  0  0
  186.3300  177.3160  145.7800 C   0  0  0  0  0  3  0  0  0  0  0  0
  186.8390  176.5680  144.6070 C   0  0  0  0  0  0  0  0  0  0  0  0
  188.4830  177.0170  146.8520 C   0  0  0  0  0  0  0  0  0  0  0  0
  193.6740  172.6370  144.2860 N   0  0  0  0  0  0  0  0  0  0  0  0
  193.0110  173.4770  144.7260 C   0  0  0  0  0  0  0  0  0  0  0  0
  189.6910  172.4820  144.9320 C   0  0  0  0  0  1  0  0  0  0  0  0
  190.1240  173.6960  144.1340 C   0  0  0  0  0  2  0  0  0  0  0  0
  186.0720  176.5970  143.3310 C   0  0  0  0  0  2  0  0  0  0  0  0
  187.0060  176.3740  142.1540 C   0  0  0  0  0  2  0  0  0  0  0  0
  187.1090  177.6340  141.3100 C   0  0  2  0  0  3  0  0  0  0  0  0
  186.7190  178.7850  142.1050 N   0  0  0  0  0  1  0  0  0  0  0  0
  186.2420  177.5400  140.0950 C   0  0  0  0  0  0  0  0  0  0  0  0
  184.9440  178.0300  140.1390 O   0  0  0  0  0  1  0  0  0  0  0  0
  186.6830  177.0290  139.0310 O   0  0  0  0  0  0  0  0  0  0  0  0
  1  2  1  0  0  0  0
  1 10  1  0  0  0  0
  2  9  1  6  0  0  0
  2 14  1  0  0  0  0
  3  5  1  0  0  0  0
  4  6  2  0  0  0  0
  4  1  1  0  0  0  0
  6 11  1  0  0  0  0
  7 14  1  0  0  0  0
  7  8  1  0  0  0  0
 10  3  2  0  0  0  0
 11 10  1  0  0  0  0
 12  7  2  0  0  0  0
 13  9  2  0  0  0  0
 13 12  1  0  0  0  0
 14  5  2  0  0  0  0
 15 16  3  0  0  0  0
 16  6  1  0  0  0  0
 18 17  1  0  0  0  0
 18  4  1  0  0  0  0
 19 13  1  0  0  0  0
 20 19  1  0  0  0  0
 21 22  1  1  0  0  0
 21 20  1  0  0  0  0
 23 24  1  0  0  0  0
 23 21  1  0  0  0  0
 25 23  2  0  0  0  0
M  END
>  <MODEL>
7

>  <REMARK>
 VINA RESULT:      -5.9      3.244      5.235
  Name = 
  6 active torsions:
  status: ('A' for Active; 'I' for Inactive)
    1  A    between atoms: C_2  and  CA_21
    2  A    between atoms: C_5  and  C_22
    3  A    between atoms: C_6  and  C_15
    4  A    between atoms: C_6  and  C_23
    5  A    between atoms: C_10  and  C_11
    6  A    between atoms: C_15  and  CA_21
                            x       y       z     vdW  Elec       q    Type
                         _______ _______ _______ _____ _____    ______ ____

>  <TORSDO>
F 6

$$$$
=
 OpenBabel11052417353D

 25 27  0  0  1  0  0  0  0  0999 V2000
  190.4140  174.5810  143.0870 N   0  0  0  0  0  0  0  0  0  0  0  0
  189.7980  174.7100  144.4130 C   0  0  2  0  0  3  0  0  0  0  0  0
  192.5980  174.2380  143.9990 C   0  0  0  0  0  3  0  0  0  0  0  0
  189.7250  174.2600  141.8800 C   0  0  0  0  0  0  0  0  0  0  0  0
  192.1010  174.6460  145.2830 N   0  0  0  0  0  0  0  0  0  0  0  0
  190.5180  173.8080  140.9040 C   0  0  0  0  0  0  0  0  0  0  0  0
  190.3920  175.4570  146.7890 C   0  0  0  0  0  0  0  0  0  0  0  0
  191.2070  175.2910  148.0250 C   0  0  0  0  0  1  0  0  0  0  0  0
  188.7590  175.8010  144.4600 C   0  0  0  0  0  3  0  0  0  0  0  0
  191.7860  174.2450  142.9460 C   0  0  0  0  0  0  0  0  0  0  0  0
  192.2680  173.7200  141.3120 S   0  0  0  0  0  0  0  0  0  0  0  0
  189.2630  176.1730  146.8340 C   0  0  0  0  0  3  0  0  0  0  0  0
  188.4630  176.4210  145.6110 C   0  0  0  0  0  0  0  0  0  0  0  0
  190.8430  174.9140  145.4950 C   0  0  0  0  0  0  0  0  0  0  0  0
  189.6400  173.0100  138.5920 N   0  0  0  0  0  0  0  0  0  0  0  0
  190.0300  173.3660  139.6220 C   0  0  0  0  0  0  0  0  0  0  0  0
  187.8150  175.6700  141.1890 C   0  0  0  0  0  1  0  0  0  0  0  0
  188.2320  174.3280  141.7600 C   0  0  0  0  0  2  0  0  0  0  0  0
  187.3880  177.4510  145.6360 C   0  0  0  0  0  2  0  0  0  0  0  0
  186.8610  177.6910  144.2310 C   0  0  0  0  0  2  0  0  0  0  0  0
  185.3420  177.7310  144.2320 C   0  0  2  0  0  3  0  0  0  0  0  0
  184.8500  177.5480  142.8780 N   0  0  0  0  0  1  0  0  0  0  0  0
  184.8390  179.0270  144.7840 C   0  0  0  0  0  0  0  0  0  0  0  0
  185.2940  180.2230  144.2480 O   0  0  0  0  0  0  0  0  0  0  0  0
  183.9990  179.0400  145.7230 O   0  0  0  0  0  1  0  0  0  0  0  0
  1  2  1  0  0  0  0
  2  9  1  6  0  0  0
  2 14  1  0  0  0  0
  3  5  1  0  0  0  0
  4  1  1  0  0  0  0
  5 14  2  0  0  0  0
  6 11  1  0  0  0  0
  6  4  2  0  0  0  0
  7 12  2  0  0  0  0
  7  8  1  0  0  0  0
  9 13  2  0  0  0  0
 10  1  1  0  0  0  0
 10  3  2  0  0  0  0
 11 10  1  0  0  0  0
 13 19  1  0  0  0  0
 13 12  1  0  0  0  0
 14  7  1  0  0  0  0
 15 16  3  0  0  0  0
 16  6  1  0  0  0  0
 17 18  1  0  0  0  0
 18  4  1  0  0  0  0
 20 21  1  0  0  0  0
 20 19  1  0  0  0  0
 21 22  1  6  0  0  0
 21 23  1  0  0  0  0
 23 25  1  0  0  0  0
 24 23  2  0  0  0  0
M  END
>  <MODEL>
8

>  <REMARK>
 VINA RESULT:      -5.9      2.102      4.951
  Name = 
  6 active torsions:
  status: ('A' for Active; 'I' for Inactive)
    1  A    between atoms: C_2  and  CA_21
    2  A    between atoms: C_5  and  C_22
    3  A    between atoms: C_6  and  C_15
    4  A    between atoms: C_6  and  C_23
    5  A    between atoms: C_10  and  C_11
    6  A    between atoms: C_15  and  CA_21
                            x       y       z     vdW  Elec       q    Type
                         _______ _______ _______ _____ _____    ______ ____

>  <TORSDO>
F 6

$$$$
=
 OpenBabel11052417353D

 25 27  0  0  1  0  0  0  0  0999 V2000
  190.9270  174.6540  143.5860 N   0  0  0  0  0  0  0  0  0  0  0  0
  190.1230  175.8540  143.3300 C   0  0  0  0  0  0  0  0  0  0  0  0
  190.3280  173.6560  141.4960 C   0  0  0  0  0  3  0  0  0  0  0  0
  192.0040  174.5610  144.5160 C   0  0  0  0  0  0  0  0  0  0  0  0
  189.3120  174.6570  141.3350 N   0  0  0  0  0  0  0  0  0  0  0  0
  192.8280  173.5320  144.2950 C   0  0  0  0  0  0  0  0  0  0  0  0
  188.0240  176.5740  142.0510 C   0  0  1  0  0  3  0  0  0  0  0  0
  187.2940  176.7390  140.7630 C   0  0  0  0  0  1  0  0  0  0  0  0
  189.3890  176.3280  144.5580 C   0  0  0  0  0  3  0  0  0  0  0  0
  191.0740  173.6450  142.5980 C   0  0  0  0  0  0  0  0  0  0  0  0
  192.3940  172.4850  142.8970 S   0  0  0  0  0  0  0  0  0  0  0  0
  187.6000  177.2290  143.1380 C   0  0  0  0  0  3  0  0  0  0  0  0
  188.2550  177.0350  144.4530 C   0  0  0  0  0  0  0  0  0  0  0  0
  189.1590  175.6430  142.1750 C   0  0  0  0  0  0  0  0  0  0  0  0
  194.9690  173.0770  145.6950 N   0  0  0  0  0  0  0  0  0  0  0  0
  194.0160  173.2800  145.0710 C   0  0  0  0  0  0  0  0  0  0  0  0
  193.1240  176.7000  145.0440 C   0  0  0  0  0  1  0  0  0  0  0  0
  192.2430  175.5890  145.5810 C   0  0  0  0  0  2  0  0  0  0  0  0
  187.5890  177.5410  145.6850 C   0  0  0  0  0  2  0  0  0  0  0  0
  186.0840  177.3600  145.5770 C   0  0  0  0  0  2  0  0  0  0  0  0
  185.3690  178.6720  145.8580 C   0  0  2  0  0  3  0  0  0  0  0  0
  184.2230  178.4260  146.7170 N   0  0  0  0  0  1  0  0  0  0  0  0
  184.9210  179.3230  144.5890 C   0  0  0  0  0  0  0  0  0  0  0  0
  183.6890  178.9890  144.0450 O   0  0  0  0  0  1  0  0  0  0  0  0
  185.6480  180.1780  144.0160 O   0  0  0  0  0  0  0  0  0  0  0  0
  1  4  1  0  0  0  0
  2  1  1  0  0  0  0
  2  9  2  0  0  0  0
  3 10  2  0  0  0  0
  4 18  1  0  0  0  0
  5  3  1  0  0  0  0
  5 14  2  0  0  0  0
  6  4  2  0  0  0  0
  6 16  1  0  0  0  0
  7  8  1  1  0  0  0
  7 14  1  0  0  0  0
  7 12  1  0  0  0  0
 10 11  1  0  0  0  0
 10  1  1  0  0  0  0
 11  6  1  0  0  0  0
 12 13  2  0  0  0  0
 13  9  1  0  0  0  0
 13 19  1  0  0  0  0
 14  2  1  0  0  0  0
 16 15  3  0  0  0  0
 17 18  1  0  0  0  0
 20 19  1  0  0  0  0
 20 21  1  0  0  0  0
 21 22  1  1  0  0  0
 23 21  1  0  0  0  0
 24 23  1  0  0  0  0
 25 23  2  0  0  0  0
M  END
>  <MODEL>
9

>  <REMARK>
 VINA RESULT:      -5.7      2.054      2.775
  Name = 
  6 active torsions:
  status: ('A' for Active; 'I' for Inactive)
    1  A    between atoms: C_2  and  CA_21
    2  A    between atoms: C_5  and  C_22
    3  A    between atoms: C_6  and  C_15
    4  A    between atoms: C_6  and  C_23
    5  A    between atoms: C_10  and  C_11
    6  A    between atoms: C_15  and  CA_21
                            x       y       z     vdW  Elec       q    Type
                         _______ _______ _______ _____ _____    ______ ____

>  <TORSDO>
F 6

$$$$
