=
 OpenBabel11052418353D

 34 40  0  0  1  0  0  0  0  0999 V2000
  186.4990  177.2460  146.3400 C   0  0  0  0  0  0  0  0  0  0  0  0
  184.7200  178.3130  145.0520 C   0  0  0  0  0  0  0  0  0  0  0  0
  186.5540  177.1950  143.9170 C   0  0  0  0  0  0  0  0  0  0  0  0
  186.4790  177.1900  141.5180 C   0  0  0  0  0  0  0  0  0  0  0  0
  184.7140  178.3420  147.4670 C   0  0  0  0  0  3  0  0  0  0  0  0
  184.1110  178.6940  146.2490 C   0  0  0  0  0  3  0  0  0  0  0  0
  184.7730  178.2350  142.6810 C   0  0  0  0  0  0  0  0  0  0  0  0
  185.9290  177.5830  145.1050 C   0  0  0  0  0  0  0  0  0  0  0  0
  185.5020  177.7570  140.1320 S   0  0  0  0  0  0  0  0  0  0  0  0
  185.8810  177.6330  147.4880 N   0  0  0  0  0  0  0  0  0  0  0  0
  187.7620  176.4690  143.9170 C   0  0  0  0  0  0  0  0  0  0  0  0
  187.6930  176.5140  146.3680 C   0  0  0  0  0  3  0  0  0  0  0  0
  184.1640  178.6280  143.8400 N   0  0  0  0  0  0  0  0  0  0  0  0
  187.6770  176.4700  141.4630 C   0  0  0  0  0  3  0  0  0  0  0  0
  188.3440  176.1000  142.6610 C   0  0  0  0  0  0  0  0  0  0  0  0
  184.2690  178.5070  141.3000 C   0  0  1  0  0  3  0  0  0  0  0  0
  185.9490  177.5350  142.7200 C   0  0  0  0  0  0  0  0  0  0  0  0
  188.3170  176.1260  145.1670 C   0  0  0  0  0  3  0  0  0  0  0  0
  192.0570  175.2640  142.5520 C   0  0  0  0  0  0  0  0  0  0  0  0
  192.0200  173.8990  142.2590 C   0  0  0  0  0  3  0  0  0  0  0  0
  189.6230  175.3450  142.5440 C   0  0  0  0  0  0  0  0  0  0  0  0
  190.7930  173.2540  142.1000 C   0  0  0  0  0  3  0  0  0  0  0  0
  190.8670  175.9820  142.6900 C   0  0  0  0  0  3  0  0  0  0  0  0
  189.6020  173.9730  142.2380 C   0  0  0  0  0  3  0  0  0  0  0  0
  193.2480  175.8930  142.7020 F   0  0  0  0  0  0  0  0  0  0  0  0
  182.9120  177.8520  141.1080 C   0  0  0  0  0  2  0  0  0  0  0  0
  181.9630  178.8250  140.5900 N   0  0  0  0  0  2  0  0  0  0  0  0
  180.2830  181.0330  140.2180 F   0  0  0  0  0  0  0  0  0  0  0  0
  180.5700  178.7820  140.9090 C   0  0  0  0  0  0  0  0  0  0  0  0
  179.6480  179.8070  140.3020 C   0  0  1  0  0  3  0  0  0  0  0  0
  177.7450  178.5920  141.3360 C   0  0  0  0  0  2  0  0  0  0  0  0
  178.7300  177.7140  141.9570 N   0  0  0  0  0  2  0  0  0  0  0  0
  180.0990  177.8210  141.6510 N   0  0  0  0  0  0  0  0  0  0  0  0
  178.3680  179.9600  141.1180 C   0  0  0  0  0  2  0  0  0  0  0  0
  1 12  1  0  0  0  0
  1 10  1  0  0  0  0
  2  8  1  0  0  0  0
  2  6  2  0  0  0  0
  3  8  1  0  0  0  0
  4 17  1  0  0  0  0
  5 10  2  0  0  0  0
  6  5  1  0  0  0  0
  7 17  1  0  0  0  0
  7 13  2  0  0  0  0
  8  1  2  0  0  0  0
  9 16  1  0  0  0  0
  9  4  1  0  0  0  0
 11  3  1  0  0  0  0
 11 18  1  0  0  0  0
 13  2  1  0  0  0  0
 14  4  2  0  0  0  0
 14 15  1  0  0  0  0
 15 11  2  0  0  0  0
 16 26  1  1  0  0  0
 16  7  1  0  0  0  0
 17  3  2  0  0  0  0
 18 12  2  0  0  0  0
 19 23  1  0  0  0  0
 19 25  1  0  0  0  0
 20 19  2  0  0  0  0
 21 15  1  0  0  0  0
 21 23  2  0  0  0  0
 22 24  2  0  0  0  0
 22 20  1  0  0  0  0
 24 21  1  0  0  0  0
 27 29  1  0  0  0  0
 27 26  1  0  0  0  0
 29 33  2  0  0  0  0
 30 28  1  1  0  0  0
 30 29  1  0  0  0  0
 30 34  1  0  0  0  0
 31 32  1  0  0  0  0
 33 32  1  0  0  0  0
 34 31  1  0  0  0  0
M  END
>  <MODEL>
1

>  <REMARK>
 VINA RESULT:      -9.7      0.000      0.000
  Name = 
  3 active torsions:
  status: ('A' for Active; 'I' for Inactive)
    1  A    between atoms: N_3  and  C_17
    2  A    between atoms: C_12  and  C_28
    3  A    between atoms: C_17  and  C_29
                            x       y       z     vdW  Elec       q    Type
                         _______ _______ _______ _____ _____    ______ ____

>  <TORSDO>
F 3

$$$$
=
 OpenBabel11052418353D

 34 40  0  0  1  0  0  0  0  0999 V2000
  189.0390  174.6190  141.2600 C   0  0  0  0  0  0  0  0  0  0  0  0
  191.3400  174.3770  142.0390 C   0  0  0  0  0  0  0  0  0  0  0  0
  189.7130  175.5850  143.3780 C   0  0  0  0  0  0  0  0  0  0  0  0
  190.4980  176.4710  145.4670 C   0  0  0  0  0  0  0  0  0  0  0  0
  190.6210  173.4380  139.9340 C   0  0  0  0  0  3  0  0  0  0  0  0
  191.6340  173.6580  140.8790 C   0  0  0  0  0  3  0  0  0  0  0  0
  191.9820  175.3060  144.1250 C   0  0  0  0  0  0  0  0  0  0  0  0
  190.0260  174.8630  142.2240 C   0  0  0  0  0  0  0  0  0  0  0  0
  191.9580  176.5950  146.4920 S   0  0  0  0  0  0  0  0  0  0  0  0
  189.3580  173.9160  140.1410 N   0  0  0  0  0  0  0  0  0  0  0  0
  188.4180  176.0940  143.6080 C   0  0  0  0  0  0  0  0  0  0  0  0
  187.7410  175.1020  141.4700 C   0  0  0  0  0  3  0  0  0  0  0  0
  192.2960  174.6090  142.9930 N   0  0  0  0  0  0  0  0  0  0  0  0
  189.2310  176.9960  145.7430 C   0  0  0  0  0  3  0  0  0  0  0  0
  188.1680  176.8210  144.8160 C   0  0  0  0  0  0  0  0  0  0  0  0
  192.9250  175.6220  145.2420 C   0  0  1  0  0  3  0  0  0  0  0  0
  190.7130  175.7890  144.3120 C   0  0  0  0  0  0  0  0  0  0  0  0
  187.4330  175.8300  142.6350 C   0  0  0  0  0  3  0  0  0  0  0  0
  185.1880  179.1880  144.9490 C   0  0  0  0  0  0  0  0  0  0  0  0
  184.3580  178.5290  145.8580 C   0  0  0  0  0  3  0  0  0  0  0  0
  186.8430  177.4130  145.1540 C   0  0  0  0  0  0  0  0  0  0  0  0
  184.7650  177.3190  146.4230 C   0  0  0  0  0  3  0  0  0  0  0  0
  186.4230  178.6350  144.6020 C   0  0  0  0  0  3  0  0  0  0  0  0
  186.0010  176.7660  146.0760 C   0  0  0  0  0  3  0  0  0  0  0  0
  184.7960  180.3640  144.4030 F   0  0  0  0  0  0  0  0  0  0  0  0
  193.4300  174.3340  145.8690 C   0  0  0  0  0  2  0  0  0  0  0  0
  194.8810  174.2760  145.7790 N   0  0  0  0  0  2  0  0  0  0  0  0
  197.5370  174.2050  144.8960 F   0  0  0  0  0  0  0  0  0  0  0  0
  195.5900  173.0470  145.6040 C   0  0  0  0  0  0  0  0  0  0  0  0
  197.0960  173.0710  145.5560 C   0  0  1  0  0  3  0  0  0  0  0  0
  197.0540  170.5890  145.4870 C   0  0  0  0  0  2  0  0  0  0  0  0
  195.6000  170.6820  145.4360 N   0  0  0  0  0  2  0  0  0  0  0  0
  194.9410  171.9180  145.5650 N   0  0  0  0  0  0  0  0  0  0  0  0
  197.6520  171.8350  144.8570 C   0  0  0  0  0  2  0  0  0  0  0  0
  1 12  2  0  0  0  0
  1  8  1  0  0  0  0
  2  8  1  0  0  0  0
  2 13  1  0  0  0  0
  3 11  1  0  0  0  0
  3 17  1  0  0  0  0
  4 14  1  0  0  0  0
  4  9  1  0  0  0  0
  5 10  2  0  0  0  0
  5  6  1  0  0  0  0
  6  2  2  0  0  0  0
  7 17  1  0  0  0  0
  7 16  1  0  0  0  0
  8  3  2  0  0  0  0
 10  1  1  0  0  0  0
 11 15  1  0  0  0  0
 12 18  1  0  0  0  0
 13  7  2  0  0  0  0
 15 21  1  0  0  0  0
 15 14  2  0  0  0  0
 16 26  1  1  0  0  0
 16  9  1  0  0  0  0
 17  4  2  0  0  0  0
 18 11  2  0  0  0  0
 19 20  1  0  0  0  0
 20 22  2  0  0  0  0
 21 24  2  0  0  0  0
 23 19  2  0  0  0  0
 23 21  1  0  0  0  0
 24 22  1  0  0  0  0
 25 19  1  0  0  0  0
 27 26  1  0  0  0  0
 29 27  1  0  0  0  0
 30 28  1  6  0  0  0
 30 29  1  0  0  0  0
 32 31  1  0  0  0  0
 32 33  1  0  0  0  0
 33 29  2  0  0  0  0
 34 31  1  0  0  0  0
 34 30  1  0  0  0  0
M  END
>  <MODEL>
2

>  <REMARK>
 VINA RESULT:      -9.1      5.091     11.150
  Name = 
  3 active torsions:
  status: ('A' for Active; 'I' for Inactive)
    1  A    between atoms: N_3  and  C_17
    2  A    between atoms: C_12  and  C_28
    3  A    between atoms: C_17  and  C_29
                            x       y       z     vdW  Elec       q    Type
                         _______ _______ _______ _____ _____    ______ ____

>  <TORSDO>
F 3

$$$$
=
 OpenBabel11052418353D

 34 40  0  0  1  0  0  0  0  0999 V2000
  191.5050  176.2930  146.3080 C   0  0  0  0  0  0  0  0  0  0  0  0
  192.2210  174.6770  144.6240 C   0  0  0  0  0  0  0  0  0  0  0  0
  189.9760  175.6030  144.5590 C   0  0  0  0  0  0  0  0  0  0  0  0
  188.5670  174.8600  142.7630 C   0  0  0  0  0  0  0  0  0  0  0  0
  193.7050  175.3920  146.3900 C   0  0  0  0  0  3  0  0  0  0  0  0
  193.4690  174.6130  145.2470 C   0  0  0  0  0  3  0  0  0  0  0  0
  190.7230  174.0270  142.9030 C   0  0  0  0  0  0  0  0  0  0  0  0
  191.2310  175.5270  145.1680 C   0  0  0  0  0  0  0  0  0  0  0  0
  188.5440  173.7810  141.3370 S   0  0  0  0  0  0  0  0  0  0  0  0
  192.7310  176.2080  146.8920 N   0  0  0  0  0  0  0  0  0  0  0  0
  188.9550  176.4320  145.0650 C   0  0  0  0  0  0  0  0  0  0  0  0
  190.5120  177.1350  146.8240 C   0  0  0  0  0  3  0  0  0  0  0  0
  191.9480  173.9400  143.5010 N   0  0  0  0  0  0  0  0  0  0  0  0
  187.5210  175.6660  143.2240 C   0  0  0  0  0  3  0  0  0  0  0  0
  187.6930  176.4640  144.3870 C   0  0  0  0  0  0  0  0  0  0  0  0
  190.3010  173.2860  141.6750 C   0  0  1  0  0  3  0  0  0  0  0  0
  189.7530  174.8410  143.4260 C   0  0  0  0  0  0  0  0  0  0  0  0
  189.2490  177.2070  146.2060 C   0  0  0  0  0  3  0  0  0  0  0  0
  185.2450  179.3530  144.7770 C   0  0  0  0  0  0  0  0  0  0  0  0
  184.3900  178.8540  145.7620 C   0  0  0  0  0  3  0  0  0  0  0  0
  186.5420  177.2930  144.8410 C   0  0  0  0  0  0  0  0  0  0  0  0
  184.6090  177.5830  146.2950 C   0  0  0  0  0  3  0  0  0  0  0  0
  186.3150  178.5790  144.3230 C   0  0  0  0  0  3  0  0  0  0  0  0
  185.6790  176.8080  145.8400 C   0  0  0  0  0  3  0  0  0  0  0  0
  185.0370  180.5900  144.2630 F   0  0  0  0  0  0  0  0  0  0  0  0
  191.1830  173.6830  140.5050 C   0  0  0  0  0  2  0  0  0  0  0  0
  190.4420  173.5490  139.2600 N   0  0  0  0  0  2  0  0  0  0  0  0
  188.5610  172.9170  137.2850 F   0  0  0  0  0  0  0  0  0  0  0  0
  190.6030  172.4270  138.3900 C   0  0  0  0  0  0  0  0  0  0  0  0
  189.8230  172.3820  137.1010 C   0  0  1  0  0  3  0  0  0  0  0  0
  191.0680  170.3150  136.5120 C   0  0  0  0  0  2  0  0  0  0  0  0
  191.6930  170.3970  137.8270 N   0  0  0  0  0  2  0  0  0  0  0  0
  191.4710  171.4980  138.6740 N   0  0  0  0  0  0  0  0  0  0  0  0
  189.6920  170.9550  136.5770 C   0  0  0  0  0  2  0  0  0  0  0  0
  1 12  1  0  0  0  0
  1 10  1  0  0  0  0
  2  8  1  0  0  0  0
  2  6  2  0  0  0  0
  3 11  1  0  0  0  0
  3  8  1  0  0  0  0
  4 14  2  0  0  0  0
  4 17  1  0  0  0  0
  5 10  2  0  0  0  0
  6  5  1  0  0  0  0
  7 17  1  0  0  0  0
  7 13  2  0  0  0  0
  8  1  2  0  0  0  0
  9 16  1  0  0  0  0
  9  4  1  0  0  0  0
 11 18  1  0  0  0  0
 13  2  1  0  0  0  0
 14 15  1  0  0  0  0
 15 21  1  0  0  0  0
 15 11  2  0  0  0  0
 16 26  1  6  0  0  0
 16  7  1  0  0  0  0
 17  3  2  0  0  0  0
 18 12  2  0  0  0  0
 19 20  1  0  0  0  0
 20 22  2  0  0  0  0
 21 24  2  0  0  0  0
 23 19  2  0  0  0  0
 23 21  1  0  0  0  0
 24 22  1  0  0  0  0
 25 19  1  0  0  0  0
 27 26  1  0  0  0  0
 29 33  2  0  0  0  0
 29 27  1  0  0  0  0
 30 28  1  1  0  0  0
 30 29  1  0  0  0  0
 31 34  1  0  0  0  0
 31 32  1  0  0  0  0
 32 33  1  0  0  0  0
 34 30  1  0  0  0  0
M  END
>  <MODEL>
3

>  <REMARK>
 VINA RESULT:      -8.9      5.256      8.823
  Name = 
  3 active torsions:
  status: ('A' for Active; 'I' for Inactive)
    1  A    between atoms: N_3  and  C_17
    2  A    between atoms: C_12  and  C_28
    3  A    between atoms: C_17  and  C_29
                            x       y       z     vdW  Elec       q    Type
                         _______ _______ _______ _____ _____    ______ ____

>  <TORSDO>
F 3

$$$$
=
 OpenBabel11052418353D

 34 40  0  0  1  0  0  0  0  0999 V2000
  190.8580  173.6870  141.6910 C   0  0  0  0  0  0  0  0  0  0  0  0
  189.1010  174.8660  142.9100 C   0  0  0  0  0  0  0  0  0  0  0  0
  191.1810  174.2750  144.0200 C   0  0  0  0  0  0  0  0  0  0  0  0
  191.3880  174.9360  146.3190 C   0  0  0  0  0  0  0  0  0  0  0  0
  188.8270  174.2530  140.5910 C   0  0  0  0  0  3  0  0  0  0  0  0
  188.3200  174.8510  141.7540 C   0  0  0  0  0  3  0  0  0  0  0  0
  189.4390  175.4560  145.1830 C   0  0  0  0  0  0  0  0  0  0  0  0
  190.3840  174.2720  142.8720 C   0  0  0  0  0  0  0  0  0  0  0  0
  190.5080  175.7630  147.6380 S   0  0  0  0  0  0  0  0  0  0  0  0
  190.0710  173.6900  140.5810 N   0  0  0  0  0  0  0  0  0  0  0  0
  192.4650  173.6940  144.0340 C   0  0  0  0  0  0  0  0  0  0  0  0
  192.1370  173.1140  141.6740 C   0  0  0  0  0  3  0  0  0  0  0  0
  188.6500  175.4460  144.0670 N   0  0  0  0  0  0  0  0  0  0  0  0
  192.6670  174.3740  146.3850 C   0  0  0  0  0  3  0  0  0  0  0  0
  193.2280  173.7380  145.2450 C   0  0  0  0  0  0  0  0  0  0  0  0
  189.0700  176.0590  146.5010 C   0  0  1  0  0  3  0  0  0  0  0  0
  190.6800  174.8770  145.1600 C   0  0  0  0  0  0  0  0  0  0  0  0
  192.9340  173.1200  142.8340 C   0  0  0  0  0  3  0  0  0  0  0  0
  196.0520  171.2360  145.7630 C   0  0  0  0  0  0  0  0  0  0  0  0
  197.1700  172.0670  145.6740 C   0  0  0  0  0  3  0  0  0  0  0  0
  194.5880  173.1450  145.3760 C   0  0  0  0  0  0  0  0  0  0  0  0
  197.0060  173.4340  145.4440 C   0  0  0  0  0  3  0  0  0  0  0  0
  194.7690  171.7720  145.6180 C   0  0  0  0  0  3  0  0  0  0  0  0
  195.7240  173.9700  145.2990 C   0  0  0  0  0  3  0  0  0  0  0  0
  196.2090  169.9100  145.9910 F   0  0  0  0  0  0  0  0  0  0  0  0
  188.8410  177.5520  146.3380 C   0  0  0  0  0  2  0  0  0  0  0  0
  187.5150  177.9040  146.8220 N   0  0  0  0  0  2  0  0  0  0  0  0
  184.8260  177.8870  147.6000 F   0  0  0  0  0  0  0  0  0  0  0  0
  186.4700  178.3350  145.9480 C   0  0  0  0  0  0  0  0  0  0  0  0
  185.1350  178.7150  146.5350 C   0  0  1  0  0  3  0  0  0  0  0  0
  184.4270  179.4220  144.2620 C   0  0  0  0  0  2  0  0  0  0  0  0
  185.7120  178.9310  143.7810 N   0  0  0  0  0  2  0  0  0  0  0  0
  186.6980  178.4710  144.6730 N   0  0  0  0  0  0  0  0  0  0  0  0
  184.0230  178.6310  145.4940 C   0  0  0  0  0  2  0  0  0  0  0  0
  1  8  1  0  0  0  0
  2 13  1  0  0  0  0
  3 11  1  0  0  0  0
  3 17  1  0  0  0  0
  4 14  1  0  0  0  0
  4  9  1  0  0  0  0
  5  6  1  0  0  0  0
  6  2  2  0  0  0  0
  7 16  1  0  0  0  0
  8  2  1  0  0  0  0
  8  3  2  0  0  0  0
 10  5  2  0  0  0  0
 10  1  1  0  0  0  0
 11 15  1  0  0  0  0
 12  1  2  0  0  0  0
 12 18  1  0  0  0  0
 13  7  2  0  0  0  0
 15 21  1  0  0  0  0
 15 14  2  0  0  0  0
 16 26  1  6  0  0  0
 16  9  1  0  0  0  0
 17  7  1  0  0  0  0
 17  4  2  0  0  0  0
 18 11  2  0  0  0  0
 19 25  1  0  0  0  0
 20 19  1  0  0  0  0
 21 23  1  0  0  0  0
 22 20  2  0  0  0  0
 23 19  2  0  0  0  0
 24 21  2  0  0  0  0
 24 22  1  0  0  0  0
 26 27  1  0  0  0  0
 29 30  1  0  0  0  0
 29 27  1  0  0  0  0
 30 28  1  1  0  0  0
 31 34  1  0  0  0  0
 32 31  1  0  0  0  0
 32 33  1  0  0  0  0
 33 29  2  0  0  0  0
 34 30  1  0  0  0  0
M  END
>  <MODEL>
4

>  <REMARK>
 VINA RESULT:      -8.6      4.178      7.174
  Name = 
  3 active torsions:
  status: ('A' for Active; 'I' for Inactive)
    1  A    between atoms: N_3  and  C_17
    2  A    between atoms: C_12  and  C_28
    3  A    between atoms: C_17  and  C_29
                            x       y       z     vdW  Elec       q    Type
                         _______ _______ _______ _____ _____    ______ ____

>  <TORSDO>
F 3

$$$$
=
 OpenBabel11052418353D

 34 40  0  0  1  0  0  0  0  0999 V2000
  189.0090  174.6230  141.1940 C   0  0  0  0  0  0  0  0  0  0  0  0
  191.3020  174.3090  141.9740 C   0  0  0  0  0  0  0  0  0  0  0  0
  189.6980  175.5250  143.3350 C   0  0  0  0  0  0  0  0  0  0  0  0
  190.4960  176.3450  145.4460 C   0  0  0  0  0  0  0  0  0  0  0  0
  190.5680  173.4350  139.8460 C   0  0  0  0  0  3  0  0  0  0  0  0
  191.5830  173.6100  140.7990 C   0  0  0  0  0  3  0  0  0  0  0  0
  191.9570  175.1760  144.0830 C   0  0  0  0  0  0  0  0  0  0  0  0
  189.9980  174.8210  142.1660 C   0  0  0  0  0  0  0  0  0  0  0  0
  191.9550  176.4110  146.4780 S   0  0  0  0  0  0  0  0  0  0  0  0
  189.3160  173.9370  140.0600 N   0  0  0  0  0  0  0  0  0  0  0  0
  188.4150  176.0580  143.5720 C   0  0  0  0  0  0  0  0  0  0  0  0
  187.7220  175.1310  141.4100 C   0  0  0  0  0  3  0  0  0  0  0  0
  192.2590  174.4980  142.9360 N   0  0  0  0  0  0  0  0  0  0  0  0
  189.2400  176.8930  145.7290 C   0  0  0  0  0  3  0  0  0  0  0  0
  188.1770  176.7640  144.7960 C   0  0  0  0  0  0  0  0  0  0  0  0
  192.9040  175.4440  145.2080 C   0  0  1  0  0  3  0  0  0  0  0  0
  190.7000  175.6840  144.2760 C   0  0  0  0  0  0  0  0  0  0  0  0
  187.4270  175.8400  142.5910 C   0  0  0  0  0  3  0  0  0  0  0  0
  185.2220  179.1620  144.9180 C   0  0  0  0  0  0  0  0  0  0  0  0
  184.4060  178.5400  145.8640 C   0  0  0  0  0  3  0  0  0  0  0  0
  186.8660  177.3780  145.1430 C   0  0  0  0  0  0  0  0  0  0  0  0
  184.8140  177.3440  146.4580 C   0  0  0  0  0  3  0  0  0  0  0  0
  186.4450  178.5870  144.5630 C   0  0  0  0  0  3  0  0  0  0  0  0
  186.0370  176.7690  146.1010 C   0  0  0  0  0  3  0  0  0  0  0  0
  184.8300  180.3260  144.3450 F   0  0  0  0  0  0  0  0  0  0  0  0
  193.3760  174.1310  145.8080 C   0  0  0  0  0  2  0  0  0  0  0  0
  192.9350  173.0220  144.9760 N   0  0  0  0  0  2  0  0  0  0  0  0
  191.6920  170.7280  143.9610 F   0  0  0  0  0  0  0  0  0  0  0  0
  193.5630  171.7380  145.0130 C   0  0  0  0  0  0  0  0  0  0  0  0
  193.0670  170.6530  144.0930 C   0  0  1  0  0  3  0  0  0  0  0  0
  194.9390  169.2300  144.8910 C   0  0  0  0  0  2  0  0  0  0  0  0
  195.2740  170.3060  145.8160 N   0  0  0  0  0  2  0  0  0  0  0  0
  194.5990  171.5400  145.7780 N   0  0  0  0  0  0  0  0  0  0  0  0
  193.4470  169.2680  144.6060 C   0  0  0  0  0  2  0  0  0  0  0  0
  1 12  2  0  0  0  0
  1  8  1  0  0  0  0
  2  8  1  0  0  0  0
  2 13  1  0  0  0  0
  3 11  1  0  0  0  0
  3 17  1  0  0  0  0
  4 14  1  0  0  0  0
  4  9  1  0  0  0  0
  5 10  2  0  0  0  0
  5  6  1  0  0  0  0
  6  2  2  0  0  0  0
  7 17  1  0  0  0  0
  7 16  1  0  0  0  0
  8  3  2  0  0  0  0
 10  1  1  0  0  0  0
 11 15  1  0  0  0  0
 12 18  1  0  0  0  0
 13  7  2  0  0  0  0
 15 21  1  0  0  0  0
 15 14  2  0  0  0  0
 16 26  1  1  0  0  0
 16  9  1  0  0  0  0
 17  4  2  0  0  0  0
 18 11  2  0  0  0  0
 19 20  1  0  0  0  0
 20 22  2  0  0  0  0
 21 24  2  0  0  0  0
 23 19  2  0  0  0  0
 23 21  1  0  0  0  0
 24 22  1  0  0  0  0
 25 19  1  0  0  0  0
 27 29  1  0  0  0  0
 27 26  1  0  0  0  0
 29 33  2  0  0  0  0
 30 28  1  1  0  0  0
 30 34  1  0  0  0  0
 30 29  1  0  0  0  0
 31 32  1  0  0  0  0
 33 32  1  0  0  0  0
 34 31  1  0  0  0  0
M  END
>  <MODEL>
5

>  <REMARK>
 VINA RESULT:      -8.4      5.101     10.522
  Name = 
  3 active torsions:
  status: ('A' for Active; 'I' for Inactive)
    1  A    between atoms: N_3  and  C_17
    2  A    between atoms: C_12  and  C_28
    3  A    between atoms: C_17  and  C_29
                            x       y       z     vdW  Elec       q    Type
                         _______ _______ _______ _____ _____    ______ ____

>  <TORSDO>
F 3

$$$$
=
 OpenBabel11052418353D

 34 40  0  0  1  0  0  0  0  0999 V2000
  189.8950  176.9630  146.2940 C   0  0  0  0  0  0  0  0  0  0  0  0
  191.1280  174.8660  146.0860 C   0  0  0  0  0  0  0  0  0  0  0  0
  189.4350  175.4610  144.4480 C   0  0  0  0  0  0  0  0  0  0  0  0
  189.0920  173.9030  142.6540 C   0  0  0  0  0  0  0  0  0  0  0  0
  191.5450  176.3940  147.9090 C   0  0  0  0  0  3  0  0  0  0  0  0
  191.8300  175.1890  147.2490 C   0  0  0  0  0  3  0  0  0  0  0  0
  190.6860  173.4160  144.2610 C   0  0  0  0  0  0  0  0  0  0  0  0
  190.1490  175.7670  145.6090 C   0  0  0  0  0  0  0  0  0  0  0  0
  189.6570  172.3290  142.0200 S   0  0  0  0  0  0  0  0  0  0  0  0
  190.5960  177.2480  147.4240 N   0  0  0  0  0  0  0  0  0  0  0  0
  188.4460  176.3250  143.9350 C   0  0  0  0  0  0  0  0  0  0  0  0
  188.9260  177.8460  145.7970 C   0  0  0  0  0  3  0  0  0  0  0  0
  191.3780  173.7040  145.4040 N   0  0  0  0  0  0  0  0  0  0  0  0
  188.1030  174.7250  142.1040 C   0  0  0  0  0  3  0  0  0  0  0  0
  187.7580  175.9490  142.7360 C   0  0  0  0  0  0  0  0  0  0  0  0
  190.8660  172.1910  143.4230 C   0  0  1  0  0  3  0  0  0  0  0  0
  189.7280  174.2770  143.7950 C   0  0  0  0  0  0  0  0  0  0  0  0
  188.2110  177.5310  144.6270 C   0  0  0  0  0  3  0  0  0  0  0  0
  184.5420  177.9240  142.2310 C   0  0  0  0  0  0  0  0  0  0  0  0
  184.6600  178.2970  140.8910 C   0  0  0  0  0  3  0  0  0  0  0  0
  186.6880  176.7780  142.1140 C   0  0  0  0  0  0  0  0  0  0  0  0
  185.7810  177.9100  140.1560 C   0  0  0  0  0  3  0  0  0  0  0  0
  185.5480  177.1670  142.8370 C   0  0  0  0  0  3  0  0  0  0  0  0
  186.7880  177.1530  140.7630 C   0  0  0  0  0  3  0  0  0  0  0  0
  183.4510  178.2950  142.9450 F   0  0  0  0  0  0  0  0  0  0  0  0
  192.2830  172.1430  142.8790 C   0  0  0  0  0  2  0  0  0  0  0  0
  192.5750  173.3690  142.1520 N   0  0  0  0  0  2  0  0  0  0  0  0
  193.5840  175.2930  140.3870 F   0  0  0  0  0  0  0  0  0  0  0  0
  193.6560  174.2330  142.5090 C   0  0  0  0  0  0  0  0  0  0  0  0
  193.8680  175.5020  141.7250 C   0  0  1  0  0  3  0  0  0  0  0  0
  195.6630  176.1010  143.3330 C   0  0  0  0  0  2  0  0  0  0  0  0
  195.4440  174.8020  143.9580 N   0  0  0  0  0  2  0  0  0  0  0  0
  194.3960  173.9600  143.5460 N   0  0  0  0  0  0  0  0  0  0  0  0
  195.3000  176.0100  141.8610 C   0  0  0  0  0  2  0  0  0  0  0  0
  1 10  1  0  0  0  0
  2  6  2  0  0  0  0
  3  8  1  0  0  0  0
  4 17  1  0  0  0  0
  6  5  1  0  0  0  0
  7 13  2  0  0  0  0
  8  2  1  0  0  0  0
  8  1  2  0  0  0  0
  9  4  1  0  0  0  0
  9 16  1  0  0  0  0
 10  5  2  0  0  0  0
 11  3  1  0  0  0  0
 11 18  1  0  0  0  0
 12  1  1  0  0  0  0
 13  2  1  0  0  0  0
 14  4  2  0  0  0  0
 14 15  1  0  0  0  0
 15 11  2  0  0  0  0
 16 26  1  6  0  0  0
 16  7  1  0  0  0  0
 17  7  1  0  0  0  0
 17  3  2  0  0  0  0
 18 12  2  0  0  0  0
 19 23  1  0  0  0  0
 19 25  1  0  0  0  0
 20 19  2  0  0  0  0
 21 15  1  0  0  0  0
 21 23  2  0  0  0  0
 22 24  2  0  0  0  0
 22 20  1  0  0  0  0
 24 21  1  0  0  0  0
 27 29  1  0  0  0  0
 27 26  1  0  0  0  0
 29 33  2  0  0  0  0
 30 28  1  6  0  0  0
 30 34  1  0  0  0  0
 30 29  1  0  0  0  0
 31 32  1  0  0  0  0
 33 32  1  0  0  0  0
 34 31  1  0  0  0  0
M  END
>  <MODEL>
6

>  <REMARK>
 VINA RESULT:      -8.4      4.911      9.352
  Name = 
  3 active torsions:
  status: ('A' for Active; 'I' for Inactive)
    1  A    between atoms: N_3  and  C_17
    2  A    between atoms: C_12  and  C_28
    3  A    between atoms: C_17  and  C_29
                            x       y       z     vdW  Elec       q    Type
                         _______ _______ _______ _____ _____    ______ ____

>  <TORSDO>
F 3

$$$$
=
 OpenBabel11052418353D

 34 40  0  0  1  0  0  0  0  0999 V2000
  191.9250  176.5420  144.7620 C   0  0  0  0  0  0  0  0  0  0  0  0
  192.3500  174.5540  143.4090 C   0  0  0  0  0  0  0  0  0  0  0  0
  190.1200  175.5150  143.5110 C   0  0  0  0  0  0  0  0  0  0  0  0
  188.4270  174.4210  142.2070 C   0  0  0  0  0  0  0  0  0  0  0  0
  194.1120  175.6100  144.6770 C   0  0  0  0  0  3  0  0  0  0  0  0
  193.6870  174.5950  143.8070 C   0  0  0  0  0  3  0  0  0  0  0  0
  190.5800  173.5720  142.1700 C   0  0  0  0  0  0  0  0  0  0  0  0
  191.4630  175.5400  143.8970 C   0  0  0  0  0  0  0  0  0  0  0  0
  188.1640  173.0410  141.1010 S   0  0  0  0  0  0  0  0  0  0  0  0
  193.2340  176.5530  145.1310 N   0  0  0  0  0  0  0  0  0  0  0  0
  189.1960  176.4730  143.9740 C   0  0  0  0  0  0  0  0  0  0  0  0
  191.0300  177.5140  145.2260 C   0  0  0  0  0  3  0  0  0  0  0  0
  191.8910  173.5850  142.5550 N   0  0  0  0  0  0  0  0  0  0  0  0
  187.4710  175.3480  142.6370 C   0  0  0  0  0  3  0  0  0  0  0  0
  187.8360  176.3890  143.5320 C   0  0  0  0  0  0  0  0  0  0  0  0
  189.9570  172.5790  141.2420 C   0  0  1  0  0  3  0  0  0  0  0  0
  189.7100  174.5180  142.6440 C   0  0  0  0  0  0  0  0  0  0  0  0
  189.6780  177.4820  144.8330 C   0  0  0  0  0  3  0  0  0  0  0  0
  184.9510  177.9600  145.4570 C   0  0  0  0  0  0  0  0  0  0  0  0
  184.7430  179.1310  144.7270 C   0  0  0  0  0  3  0  0  0  0  0  0
  186.7760  177.3400  143.9670 C   0  0  0  0  0  0  0  0  0  0  0  0
  185.5390  179.4100  143.6150 C   0  0  0  0  0  3  0  0  0  0  0  0
  185.9580  177.0690  145.0770 C   0  0  0  0  0  3  0  0  0  0  0  0
  186.5470  178.5180  143.2350 C   0  0  0  0  0  3  0  0  0  0  0  0
  184.1760  177.6850  146.5350 F   0  0  0  0  0  0  0  0  0  0  0  0
  190.6200  172.6620  139.8780 C   0  0  0  0  0  2  0  0  0  0  0  0
  189.8360  173.5160  138.9990 N   0  0  0  0  0  2  0  0  0  0  0  0
  187.9490  174.5510  137.2100 F   0  0  0  0  0  0  0  0  0  0  0  0
  190.0950  173.6160  137.5970 C   0  0  0  0  0  0  0  0  0  0  0  0
  189.2580  174.5520  136.7630 C   0  0  1  0  0  3  0  0  0  0  0  0
  190.7280  174.0190  134.8340 C   0  0  0  0  0  2  0  0  0  0  0  0
  191.4080  173.0640  135.7010 N   0  0  0  0  0  2  0  0  0  0  0  0
  191.0910  172.9640  137.0680 N   0  0  0  0  0  0  0  0  0  0  0  0
  189.2860  174.1620  135.2890 C   0  0  0  0  0  2  0  0  0  0  0  0
  1 10  1  0  0  0  0
  1 12  1  0  0  0  0
  2  6  2  0  0  0  0
  2  8  1  0  0  0  0
  3  8  1  0  0  0  0
  3 11  1  0  0  0  0
  4 14  2  0  0  0  0
  4 17  1  0  0  0  0
  5 10  2  0  0  0  0
  6  5  1  0  0  0  0
  7 13  2  0  0  0  0
  7 17  1  0  0  0  0
  8  1  2  0  0  0  0
  9 16  1  0  0  0  0
  9  4  1  0  0  0  0
 11 18  1  0  0  0  0
 13  2  1  0  0  0  0
 14 15  1  0  0  0  0
 15 21  1  0  0  0  0
 15 11  2  0  0  0  0
 16 26  1  6  0  0  0
 16  7  1  0  0  0  0
 17  3  2  0  0  0  0
 18 12  2  0  0  0  0
 19 25  1  0  0  0  0
 20 19  2  0  0  0  0
 21 23  2  0  0  0  0
 22 20  1  0  0  0  0
 23 19  1  0  0  0  0
 24 22  2  0  0  0  0
 24 21  1  0  0  0  0
 27 26  1  0  0  0  0
 29 27  1  0  0  0  0
 30 28  1  1  0  0  0
 30 29  1  0  0  0  0
 31 34  1  0  0  0  0
 31 32  1  0  0  0  0
 32 33  1  0  0  0  0
 33 29  2  0  0  0  0
 34 30  1  0  0  0  0
M  END
>  <MODEL>
7

>  <REMARK>
 VINA RESULT:      -8.3      5.183      8.558
  Name = 
  3 active torsions:
  status: ('A' for Active; 'I' for Inactive)
    1  A    between atoms: N_3  and  C_17
    2  A    between atoms: C_12  and  C_28
    3  A    between atoms: C_17  and  C_29
                            x       y       z     vdW  Elec       q    Type
                         _______ _______ _______ _____ _____    ______ ____

>  <TORSDO>
F 3

$$$$
=
 OpenBabel11052418353D

 34 40  0  0  1  0  0  0  0  0999 V2000
  191.4370  176.3660  146.4320 C   0  0  0  0  0  0  0  0  0  0  0  0
  192.1960  174.7840  144.7340 C   0  0  0  0  0  0  0  0  0  0  0  0
  189.9310  175.6600  144.6700 C   0  0  0  0  0  0  0  0  0  0  0  0
  188.5460  174.9050  142.8600 C   0  0  0  0  0  0  0  0  0  0  0  0
  193.6560  175.5140  146.5130 C   0  0  0  0  0  3  0  0  0  0  0  0
  193.4420  174.7420  145.3620 C   0  0  0  0  0  3  0  0  0  0  0  0
  190.7190  174.1190  143.0000 C   0  0  0  0  0  0  0  0  0  0  0  0
  191.1850  175.6060  145.2820 C   0  0  0  0  0  0  0  0  0  0  0  0
  188.5530  173.8410  141.4220 S   0  0  0  0  0  0  0  0  0  0  0  0
  192.6620  176.3020  147.0190 N   0  0  0  0  0  0  0  0  0  0  0  0
  188.8890  176.4620  145.1800 C   0  0  0  0  0  0  0  0  0  0  0  0
  190.4230  177.1810  146.9520 C   0  0  0  0  0  3  0  0  0  0  0  0
  191.9440  174.0530  143.6030 N   0  0  0  0  0  0  0  0  0  0  0  0
  187.4800  175.6830  143.3250 C   0  0  0  0  0  3  0  0  0  0  0  0
  187.6300  176.4720  144.4960 C   0  0  0  0  0  0  0  0  0  0  0  0
  190.3190  173.3810  141.7630 C   0  0  1  0  0  3  0  0  0  0  0  0
  189.7290  174.9060  143.5270 C   0  0  0  0  0  0  0  0  0  0  0  0
  189.1620  177.2310  146.3290 C   0  0  0  0  0  3  0  0  0  0  0  0
  185.0610  179.2620  144.8350 C   0  0  0  0  0  0  0  0  0  0  0  0
  184.2720  178.7790  145.8810 C   0  0  0  0  0  3  0  0  0  0  0  0
  186.4590  177.2710  144.9540 C   0  0  0  0  0  0  0  0  0  0  0  0
  184.5740  177.5510  146.4720 C   0  0  0  0  0  3  0  0  0  0  0  0
  186.1490  178.5150  144.3780 C   0  0  0  0  0  3  0  0  0  0  0  0
  185.6620  176.8030  146.0130 C   0  0  0  0  0  3  0  0  0  0  0  0
  184.7730  180.4570  144.2640 F   0  0  0  0  0  0  0  0  0  0  0  0
  191.1970  173.8100  140.6010 C   0  0  0  0  0  2  0  0  0  0  0  0
  192.1520  172.7580  140.2890 N   0  0  0  0  0  2  0  0  0  0  0  0
  194.3670  171.0470  140.2210 F   0  0  0  0  0  0  0  0  0  0  0  0
  193.2310  172.9490  139.3710 C   0  0  0  0  0  0  0  0  0  0  0  0
  194.1550  171.7960  139.0770 C   0  0  1  0  0  3  0  0  0  0  0  0
  195.2600  173.2220  137.3700 C   0  0  0  0  0  2  0  0  0  0  0  0
  194.3820  174.3030  137.8010 N   0  0  0  0  0  2  0  0  0  0  0  0
  193.3610  174.0830  138.7430 N   0  0  0  0  0  0  0  0  0  0  0  0
  195.4980  172.2800  138.5380 C   0  0  0  0  0  2  0  0  0  0  0  0
  1 12  1  0  0  0  0
  1 10  1  0  0  0  0
  2  8  1  0  0  0  0
  2  6  2  0  0  0  0
  3 11  1  0  0  0  0
  3  8  1  0  0  0  0
  4 14  2  0  0  0  0
  4 17  1  0  0  0  0
  5 10  2  0  0  0  0
  6  5  1  0  0  0  0
  7 17  1  0  0  0  0
  7 13  2  0  0  0  0
  8  1  2  0  0  0  0
  9 16  1  0  0  0  0
  9  4  1  0  0  0  0
 11 18  1  0  0  0  0
 13  2  1  0  0  0  0
 14 15  1  0  0  0  0
 15 21  1  0  0  0  0
 15 11  2  0  0  0  0
 16 26  1  6  0  0  0
 16  7  1  0  0  0  0
 17  3  2  0  0  0  0
 18 12  2  0  0  0  0
 19 20  1  0  0  0  0
 20 22  2  0  0  0  0
 21 24  2  0  0  0  0
 23 19  2  0  0  0  0
 23 21  1  0  0  0  0
 24 22  1  0  0  0  0
 25 19  1  0  0  0  0
 27 26  1  0  0  0  0
 29 27  1  0  0  0  0
 30 29  1  0  0  0  0
 30 28  1  1  0  0  0
 31 32  1  0  0  0  0
 31 34  1  0  0  0  0
 32 33  1  0  0  0  0
 33 29  2  0  0  0  0
 34 30  1  0  0  0  0
M  END
>  <MODEL>
8

>  <REMARK>
 VINA RESULT:      -8.2      5.387      9.800
  Name = 
  3 active torsions:
  status: ('A' for Active; 'I' for Inactive)
    1  A    between atoms: N_3  and  C_17
    2  A    between atoms: C_12  and  C_28
    3  A    between atoms: C_17  and  C_29
                            x       y       z     vdW  Elec       q    Type
                         _______ _______ _______ _____ _____    ______ ____

>  <TORSDO>
F 3

$$$$
=
 OpenBabel11052418353D

 34 40  0  0  1  0  0  0  0  0999 V2000
  186.6080  177.9520  142.4370 C   0  0  0  0  0  0  0  0  0  0  0  0
  187.0810  177.6740  144.8160 C   0  0  0  0  0  0  0  0  0  0  0  0
  188.0200  176.1320  143.1900 C   0  0  0  0  0  0  0  0  0  0  0  0
  189.4230  174.3890  144.0600 C   0  0  0  0  0  0  0  0  0  0  0  0
  185.6750  179.4670  144.0160 C   0  0  0  0  0  3  0  0  0  0  0  0
  186.2910  178.7930  145.0820 C   0  0  0  0  0  3  0  0  0  0  0  0
  188.4840  175.9020  145.5390 C   0  0  0  0  0  0  0  0  0  0  0  0
  187.2350  177.2520  143.4760 C   0  0  0  0  0  0  0  0  0  0  0  0
  190.0870  173.7370  145.5870 S   0  0  0  0  0  0  0  0  0  0  0  0
  185.8450  179.0390  142.7300 N   0  0  0  0  0  0  0  0  0  0  0  0
  188.2020  175.6700  141.8710 C   0  0  0  0  0  0  0  0  0  0  0  0
  186.7830  177.5210  141.1150 C   0  0  0  0  0  3  0  0  0  0  0  0
  187.7070  176.9890  145.8250 N   0  0  0  0  0  0  0  0  0  0  0  0
  189.6360  173.8900  142.7710 C   0  0  0  0  0  3  0  0  0  0  0  0
  189.0250  174.5180  141.6520 C   0  0  0  0  0  0  0  0  0  0  0  0
  189.2240  175.0760  146.5410 C   0  0  1  0  0  3  0  0  0  0  0  0
  188.6340  175.4790  144.2450 C   0  0  0  0  0  0  0  0  0  0  0  0
  187.5760  176.3920  140.8350 C   0  0  0  0  0  3  0  0  0  0  0  0
  190.7930  173.2660  138.5200 C   0  0  0  0  0  0  0  0  0  0  0  0
  189.7080  172.8880  137.7290 C   0  0  0  0  0  3  0  0  0  0  0  0
  189.2750  173.9370  140.3040 C   0  0  0  0  0  0  0  0  0  0  0  0
  188.4070  173.0360  138.2120 C   0  0  0  0  0  3  0  0  0  0  0  0
  190.5780  173.7910  139.7980 C   0  0  0  0  0  3  0  0  0  0  0  0
  188.1920  173.5610  139.4900 C   0  0  0  0  0  3  0  0  0  0  0  0
  192.0570  173.1270  138.0510 F   0  0  0  0  0  0  0  0  0  0  0  0
  190.2470  175.9350  147.2630 C   0  0  0  0  0  2  0  0  0  0  0  0
  191.0390  176.6780  146.2950 N   0  0  0  0  0  2  0  0  0  0  0  0
  192.3040  177.6080  143.9780 F   0  0  0  0  0  0  0  0  0  0  0  0
  192.3840  176.3210  145.9700 C   0  0  0  0  0  0  0  0  0  0  0  0
  193.1470  177.1660  144.9820 C   0  0  1  0  0  3  0  0  0  0  0  0
  195.1490  175.7780  145.4640 C   0  0  0  0  0  2  0  0  0  0  0  0
  194.2960  174.9640  146.3210 N   0  0  0  0  0  2  0  0  0  0  0  0
  192.9620  175.3260  146.5790 N   0  0  0  0  0  0  0  0  0  0  0  0
  194.3040  176.3890  144.3600 C   0  0  0  0  0  2  0  0  0  0  0  0
  1 10  2  0  0  0  0
  1  8  1  0  0  0  0
  2  6  1  0  0  0  0
  2 13  1  0  0  0  0
  3  8  1  0  0  0  0
  3 17  2  0  0  0  0
  4 17  1  0  0  0  0
  4  9  1  0  0  0  0
  5  6  2  0  0  0  0
  7 13  2  0  0  0  0
  7 16  1  0  0  0  0
  8  2  2  0  0  0  0
  9 16  1  0  0  0  0
 10  5  1  0  0  0  0
 11  3  1  0  0  0  0
 12  1  1  0  0  0  0
 14  4  2  0  0  0  0
 15 11  2  0  0  0  0
 15 14  1  0  0  0  0
 16 26  1  6  0  0  0
 17  7  1  0  0  0  0
 18 12  2  0  0  0  0
 18 11  1  0  0  0  0
 19 23  1  0  0  0  0
 20 22  1  0  0  0  0
 20 19  2  0  0  0  0
 21 15  1  0  0  0  0
 22 24  2  0  0  0  0
 23 21  2  0  0  0  0
 24 21  1  0  0  0  0
 25 19  1  0  0  0  0
 27 26  1  0  0  0  0
 29 27  1  0  0  0  0
 29 33  2  0  0  0  0
 30 28  1  6  0  0  0
 30 29  1  0  0  0  0
 31 32  1  0  0  0  0
 32 33  1  0  0  0  0
 34 30  1  0  0  0  0
 34 31  1  0  0  0  0
M  END
>  <MODEL>
9

>  <REMARK>
 VINA RESULT:      -8.2      4.397      8.273
  Name = 
  3 active torsions:
  status: ('A' for Active; 'I' for Inactive)
    1  A    between atoms: N_3  and  C_17
    2  A    between atoms: C_12  and  C_28
    3  A    between atoms: C_17  and  C_29
                            x       y       z     vdW  Elec       q    Type
                         _______ _______ _______ _____ _____    ______ ____

>  <TORSDO>
F 3

$$$$
