=
 OpenBabel11052417323D

 25 29  0  0  1  0  0  0  0  0999 V2000
  186.0060  177.4200  143.3850 C   0  0  0  0  0  0  0  0  0  0  0  0
  186.4930  176.6940  144.5990 C   0  0  1  0  0  3  0  0  0  0  0  0
  184.2130  178.5750  144.5500 C   0  0  0  0  0  3  0  0  0  0  0  0
  186.2570  177.2610  142.0980 C   0  0  0  0  0  0  0  0  0  0  0  0
  186.3470  177.2300  139.3270 C   0  0  0  0  0  3  0  0  0  0  0  0
  184.7910  178.0880  145.8280 C   0  0  0  0  0  3  0  0  0  0  0  0
  185.3320  177.9960  141.3650 C   0  0  0  0  0  0  0  0  0  0  0  0
  185.3610  177.9980  139.9710 C   0  0  0  0  0  3  0  0  0  0  0  0
  186.5250  176.9220  147.1310 C   0  0  0  0  0  0  0  0  0  0  0  0
  185.8250  177.0190  148.3680 N   0  0  0  0  0  1  0  0  0  0  0  0
  187.9890  176.6480  144.7170 C   0  0  0  0  0  3  0  0  0  0  0  0
  187.2710  176.4710  140.0760 C   0  0  0  0  0  3  0  0  0  0  0  0
  184.8360  178.2610  143.4160 C   0  0  0  0  0  0  0  0  0  0  0  0
  184.4500  178.6150  142.0920 N   0  0  0  0  0  0  0  0  0  0  0  0
  187.7810  176.5820  147.1250 N   0  0  0  0  0  0  0  0  0  0  0  0
  187.2300  176.4760  141.4800 C   0  0  0  0  0  3  0  0  0  0  0  0
  188.5740  176.5280  145.9200 C   0  0  0  0  0  0  0  0  0  0  0  0
  185.8650  177.2670  145.8610 C   0  0  0  0  0  0  0  0  0  0  0  0
  192.4600  175.8560  146.6570 C   0  0  1  0  0  3  0  0  0  0  0  0
  190.0380  176.3990  146.0250 C   0  0  0  0  0  0  0  0  0  0  0  0
  190.8200  175.5410  147.3960 S   0  0  0  0  0  0  0  0  0  0  0  0
  193.1070  174.5330  146.2930 C   0  0  0  0  0  1  0  0  0  0  0  0
  190.8320  176.8960  145.1370 N   0  0  0  0  0  0  0  0  0  0  0  0
  192.1940  176.6480  145.4290 C   0  0  0  0  0  0  0  0  0  0  0  0
  193.1160  177.0900  144.6940 O   0  0  0  0  0  0  0  0  0  0  0  0
  1 13  1  0  0  0  0
  1  2  1  0  0  0  0
  2 11  1  1  0  0  0
  2 18  1  0  0  0  0
  3  6  1  0  0  0  0
  4  1  2  0  0  0  0
  5  8  2  0  0  0  0
  5 12  1  0  0  0  0
  6 18  2  0  0  0  0
  7 14  2  0  0  0  0
  7  4  1  0  0  0  0
  8  7  1  0  0  0  0
  9 10  1  0  0  0  0
 11 17  2  0  0  0  0
 12 16  2  0  0  0  0
 13  3  2  0  0  0  0
 14 13  1  0  0  0  0
 15  9  2  0  0  0  0
 16  4  1  0  0  0  0
 17 20  1  0  0  0  0
 17 15  1  0  0  0  0
 18  9  1  0  0  0  0
 19 22  1  6  0  0  0
 19 21  1  0  0  0  0
 20 21  1  0  0  0  0
 23 24  1  0  0  0  0
 23 20  2  0  0  0  0
 24 19  1  0  0  0  0
 25 24  2  0  0  0  0
M  END
>  <MODEL>
1

>  <REMARK>
 VINA RESULT:      -8.1      0.000      0.000
  Name = 
  1 active torsions:
  status: ('A' for Active; 'I' for Inactive)
    1  A    between atoms: C_6  and  C_23
                            x       y       z     vdW  Elec       q    Type
                         _______ _______ _______ _____ _____    ______ ____

>  <TORSDO>
F 1

$$$$
=
 OpenBabel11052417323D

 25 29  0  0  1  0  0  0  0  0999 V2000
  185.8890  177.5950  143.9540 C   0  0  0  0  0  0  0  0  0  0  0  0
  186.8760  177.2830  142.8740 C   0  0  0  0  0  0  0  0  0  0  0  0
  184.2180  178.5010  142.4400 C   0  0  0  0  0  3  0  0  0  0  0  0
  186.0030  177.6480  145.2690 C   0  0  0  0  0  0  0  0  0  0  0  0
  185.7770  178.0260  148.0060 C   0  0  0  0  0  3  0  0  0  0  0  0
  185.0340  177.9930  141.3080 C   0  0  0  0  0  3  0  0  0  0  0  0
  184.8740  178.2690  145.7930 C   0  0  1  0  0  3  0  0  0  0  0  0
  184.7390  178.4650  147.1670 C   0  0  0  0  0  3  0  0  0  0  0  0
  186.9500  176.7500  140.3890 C   0  0  0  0  0  0  0  0  0  0  0  0
  186.6990  177.1300  139.0390 N   0  0  0  0  0  1  0  0  0  0  0  0
  187.5580  175.9560  143.0440 C   0  0  0  0  0  3  0  0  0  0  0  0
  186.9270  177.4140  147.4670 C   0  0  0  0  0  3  0  0  0  0  0  0
  184.6430  178.2650  143.6790 C   0  0  0  0  0  0  0  0  0  0  0  0
  184.0230  178.6680  144.8960 N   0  0  0  0  0  0  0  0  0  0  0  0
  187.7840  175.7820  140.6420 N   0  0  0  0  0  0  0  0  0  0  0  0
  187.0530  177.2230  146.0800 C   0  0  0  0  0  3  0  0  0  0  0  0
  188.0380  175.2950  141.9770 C   0  0  0  0  0  0  0  0  0  0  0  0
  186.2280  177.3900  141.5010 C   0  0  0  0  0  0  0  0  0  0  0  0
  190.0080  171.8010  141.9060 C   0  0  1  0  0  3  0  0  0  0  0  0
  188.7800  174.0350  142.1560 C   0  0  0  0  0  0  0  0  0  0  0  0
  189.0670  172.9000  140.7930 S   0  0  0  0  0  0  0  0  0  0  0  0
  191.4480  171.7250  141.4340 C   0  0  0  0  0  1  0  0  0  0  0  0
  189.2610  173.6820  143.3010 N   0  0  0  0  0  0  0  0  0  0  0  0
  189.9440  172.4450  143.2430 C   0  0  0  0  0  0  0  0  0  0  0  0
  190.4470  171.9220  144.2720 O   0  0  0  0  0  0  0  0  0  0  0  0
  1  4  2  0  0  0  0
  2 11  1  0  0  0  0
  2  1  1  0  0  0  0
  3 13  1  0  0  0  0
  4  7  1  0  0  0  0
  4 16  1  0  0  0  0
  6 18  1  0  0  0  0
  6  3  2  0  0  0  0
  7  8  1  6  0  0  0
  8  5  2  0  0  0  0
  9 15  2  0  0  0  0
  9 18  1  0  0  0  0
 10  9  1  0  0  0  0
 12  5  1  0  0  0  0
 13  1  1  0  0  0  0
 13 14  2  0  0  0  0
 14  7  1  0  0  0  0
 15 17  1  0  0  0  0
 16 12  2  0  0  0  0
 17 20  1  0  0  0  0
 17 11  2  0  0  0  0
 18  2  2  0  0  0  0
 19 22  1  6  0  0  0
 19 24  1  0  0  0  0
 20 23  2  0  0  0  0
 21 19  1  0  0  0  0
 21 20  1  0  0  0  0
 24 23  1  0  0  0  0
 24 25  2  0  0  0  0
M  END
>  <MODEL>
2

>  <REMARK>
 VINA RESULT:      -8.1      3.235      5.374
  Name = 
  1 active torsions:
  status: ('A' for Active; 'I' for Inactive)
    1  A    between atoms: C_6  and  C_23
                            x       y       z     vdW  Elec       q    Type
                         _______ _______ _______ _____ _____    ______ ____

>  <TORSDO>
F 1

$$$$
=
 OpenBabel11052417323D

 25 29  0  0  1  0  0  0  0  0999 V2000
  188.8050  176.9920  144.6890 C   0  0  0  0  0  0  0  0  0  0  0  0
  188.5530  177.0770  143.2170 C   0  0  0  0  0  0  0  0  0  0  0  0
  186.7360  178.1060  145.3090 C   0  0  0  0  0  3  0  0  0  0  0  0
  189.8880  176.7010  145.3860 C   0  0  0  0  0  0  0  0  0  0  0  0
  191.8930  176.3080  147.2600 C   0  0  0  0  0  3  0  0  0  0  0  0
  186.3070  178.0010  143.8910 C   0  0  0  0  0  3  0  0  0  0  0  0
  189.6730  177.0470  146.7160 C   0  0  0  0  0  0  0  0  0  0  0  0
  190.6660  176.8550  147.6750 C   0  0  0  0  0  3  0  0  0  0  0  0
  186.6210  177.2390  141.5710 C   0  0  0  0  0  0  0  0  0  0  0  0
  185.4900  177.9410  141.0640 N   0  0  0  0  0  1  0  0  0  0  0  0
  188.9100  175.8250  142.4700 C   0  0  0  0  0  2  0  0  0  0  0  0
  192.1110  175.9760  145.9070 C   0  0  0  0  0  3  0  0  0  0  0  0
  187.9130  177.5890  145.6510 C   0  0  0  0  0  0  0  0  0  0  0  0
  188.5140  177.5890  146.9430 N   0  0  0  0  0  0  0  0  0  0  0  0
  187.1920  176.3240  140.8420 N   0  0  0  0  0  0  0  0  0  0  0  0
  191.1030  176.1770  144.9490 C   0  0  0  0  0  3  0  0  0  0  0  0
  188.2980  175.5230  141.3120 C   0  0  0  0  0  0  0  0  0  0  0  0
  187.1130  177.4850  142.9360 C   0  0  0  0  0  0  0  0  0  0  0  0
  189.2150  172.5670  138.7600 C   0  0  1  0  0  3  0  0  0  0  0  0
  188.7100  174.3380  140.5400 C   0  0  0  0  0  0  0  0  0  0  0  0
  188.3360  174.1670  138.7910 S   0  0  0  0  0  0  0  0  0  0  0  0
  190.4160  172.6740  137.8390 C   0  0  0  0  0  1  0  0  0  0  0  0
  189.3610  173.3630  141.0810 N   0  0  0  0  0  0  0  0  0  0  0  0
  189.6640  172.3360  140.1570 C   0  0  0  0  0  0  0  0  0  0  0  0
  190.2620  171.2870  140.5120 O   0  0  0  0  0  0  0  0  0  0  0  0
  1  4  1  0  0  0  0
  1 13  1  0  0  0  0
  2  1  2  0  0  0  0
  3 13  1  0  0  0  0
  4  7  1  0  0  0  0
  5  8  1  0  0  0  0
  6  3  2  0  0  0  0
  7 14  1  0  0  0  0
  7  8  2  0  0  0  0
  9 18  2  0  0  0  0
 10  9  1  0  0  0  0
 11  2  1  0  0  0  0
 12  5  2  0  0  0  0
 13 14  2  0  0  0  0
 15 17  2  0  0  0  0
 15  9  1  0  0  0  0
 16  4  2  0  0  0  0
 16 12  1  0  0  0  0
 17 11  1  0  0  0  0
 18  2  1  0  0  0  0
 18  6  1  0  0  0  0
 19 22  1  6  0  0  0
 19 21  1  0  0  0  0
 19 24  1  0  0  0  0
 20 23  2  0  0  0  0
 20 17  1  0  0  0  0
 21 20  1  0  0  0  0
 24 25  2  0  0  0  0
 24 23  1  0  0  0  0
M  END
>  <MODEL>
3

>  <REMARK>
 VINA RESULT:      -7.5      3.433      6.380
  Name = 
  1 active torsions:
  status: ('A' for Active; 'I' for Inactive)
    1  A    between atoms: C_6  and  C_23
                            x       y       z     vdW  Elec       q    Type
                         _______ _______ _______ _____ _____    ______ ____

>  <TORSDO>
F 1

$$$$
=
 OpenBabel11052417323D

 25 29  0  0  1  0  0  0  0  0999 V2000
  187.2070  176.8070  143.6700 C   0  0  0  0  0  0  0  0  0  0  0  0
  188.2250  175.8360  144.1810 C   0  0  1  0  0  3  0  0  0  0  0  0
  186.2140  177.2170  145.8500 C   0  0  0  0  0  3  0  0  0  0  0  0
  186.7970  177.0990  142.4500 C   0  0  0  0  0  0  0  0  0  0  0  0
  185.5200  177.9420  140.1380 C   0  0  0  0  0  3  0  0  0  0  0  0
  187.3430  176.4670  146.4560 C   0  0  0  0  0  3  0  0  0  0  0  0
  185.6320  177.8540  142.5350 C   0  0  0  0  0  0  0  0  0  0  0  0
  184.9760  178.2910  141.3850 C   0  0  0  0  0  3  0  0  0  0  0  0
  189.4920  175.2720  146.3120 C   0  0  0  0  0  0  0  0  0  0  0  0
  189.4860  174.8610  147.6760 N   0  0  0  0  0  1  0  0  0  0  0  0
  189.5880  176.0150  143.5760 C   0  0  0  0  0  3  0  0  0  0  0  0
  186.6910  177.1600  140.0570 C   0  0  0  0  0  3  0  0  0  0  0  0
  186.2030  177.3810  144.5290 C   0  0  0  0  0  0  0  0  0  0  0  0
  185.2180  178.0550  143.7510 N   0  0  0  0  0  0  0  0  0  0  0  0
  190.5850  175.1730  145.6120 N   0  0  0  0  0  0  0  0  0  0  0  0
  187.3420  176.7240  141.2230 C   0  0  0  0  0  3  0  0  0  0  0  0
  190.6870  175.6330  144.2470 C   0  0  0  0  0  0  0  0  0  0  0  0
  188.2950  175.8740  145.7010 C   0  0  0  0  0  0  0  0  0  0  0  0
  194.4920  176.0410  143.0440 C   0  0  1  0  0  3  0  0  0  0  0  0
  192.0150  175.7320  143.6170 C   0  0  0  0  0  0  0  0  0  0  0  0
  193.4580  176.2960  144.5280 S   0  0  0  0  0  0  0  0  0  0  0  0
  195.5220  174.9650  143.3330 C   0  0  0  0  0  1  0  0  0  0  0  0
  192.2090  175.4200  142.3800 N   0  0  0  0  0  0  0  0  0  0  0  0
  193.5570  175.5810  141.9860 C   0  0  0  0  0  0  0  0  0  0  0  0
  193.9280  175.3600  140.8030 O   0  0  0  0  0  0  0  0  0  0  0  0
  1  2  1  0  0  0  0
  1 13  1  0  0  0  0
  2 11  1  6  0  0  0
  2 18  1  0  0  0  0
  3  6  1  0  0  0  0
  4  7  1  0  0  0  0
  4  1  2  0  0  0  0
  5  8  2  0  0  0  0
  7 14  2  0  0  0  0
  8  7  1  0  0  0  0
  9 10  1  0  0  0  0
 11 17  2  0  0  0  0
 12  5  1  0  0  0  0
 12 16  2  0  0  0  0
 13  3  2  0  0  0  0
 14 13  1  0  0  0  0
 15  9  2  0  0  0  0
 16  4  1  0  0  0  0
 17 15  1  0  0  0  0
 18  9  1  0  0  0  0
 18  6  2  0  0  0  0
 19 22  1  1  0  0  0
 19 21  1  0  0  0  0
 20 17  1  0  0  0  0
 20 21  1  0  0  0  0
 23 20  2  0  0  0  0
 24 23  1  0  0  0  0
 24 19  1  0  0  0  0
 25 24  2  0  0  0  0
M  END
>  <MODEL>
4

>  <REMARK>
 VINA RESULT:      -7.4      2.208      2.854
  Name = 
  1 active torsions:
  status: ('A' for Active; 'I' for Inactive)
    1  A    between atoms: C_6  and  C_23
                            x       y       z     vdW  Elec       q    Type
                         _______ _______ _______ _____ _____    ______ ____

>  <TORSDO>
F 1

$$$$
=
 OpenBabel11052417323D

 25 29  0  0  1  0  0  0  0  0999 V2000
  186.1090  177.3200  143.4070 C   0  0  0  0  0  0  0  0  0  0  0  0
  186.6700  176.4710  144.5030 C   0  0  1  0  0  3  0  0  0  0  0  0
  184.4920  178.4420  144.8310 C   0  0  0  0  0  3  0  0  0  0  0  0
  186.2320  177.2630  142.0930 C   0  0  0  0  0  0  0  0  0  0  0  0
  186.0620  177.4700  139.3330 C   0  0  0  0  0  3  0  0  0  0  0  0
  185.1620  177.8230  146.0030 C   0  0  0  0  0  3  0  0  0  0  0  0
  185.2800  178.0970  141.5160 C   0  0  0  0  0  0  0  0  0  0  0  0
  185.1800  178.2190  140.1310 C   0  0  0  0  0  3  0  0  0  0  0  0
  186.9490  176.4760  147.0310 C   0  0  0  0  0  0  0  0  0  0  0  0
  186.3720  176.4950  148.3330 N   0  0  0  0  0  1  0  0  0  0  0  0
  188.1660  176.3530  144.4720 C   0  0  0  0  0  3  0  0  0  0  0  0
  187.0120  176.6110  139.9240 C   0  0  0  0  0  3  0  0  0  0  0  0
  184.9910  178.2030  143.6210 C   0  0  0  0  0  0  0  0  0  0  0  0
  184.5010  178.6860  142.3740 N   0  0  0  0  0  0  0  0  0  0  0  0
  188.1810  176.0860  146.8750 N   0  0  0  0  0  0  0  0  0  0  0  0
  187.1020  176.4950  141.3210 C   0  0  0  0  0  3  0  0  0  0  0  0
  188.8550  176.1050  145.5980 C   0  0  0  0  0  0  0  0  0  0  0  0
  186.1910  176.9580  145.8640 C   0  0  0  0  0  0  0  0  0  0  0  0
  192.8560  176.1030  145.3040 C   0  0  1  0  0  3  0  0  0  0  0  0
  190.3140  175.9060  145.5500 C   0  0  0  0  0  0  0  0  0  0  0  0
  191.4270  177.1850  144.9530 S   0  0  0  0  0  0  0  0  0  0  0  0
  193.7180  176.7460  146.3740 C   0  0  0  0  0  1  0  0  0  0  0  0
  190.8660  174.8050  145.9330 N   0  0  0  0  0  0  0  0  0  0  0  0
  192.2750  174.8340  145.8110 C   0  0  0  0  0  0  0  0  0  0  0  0
  192.9820  173.8340  146.1020 O   0  0  0  0  0  0  0  0  0  0  0  0
  1 13  1  0  0  0  0
  1  2  1  0  0  0  0
  2 11  1  1  0  0  0
  2 18  1  0  0  0  0
  3  6  1  0  0  0  0
  4  1  2  0  0  0  0
  5 12  1  0  0  0  0
  5  8  2  0  0  0  0
  7  4  1  0  0  0  0
  7 14  2  0  0  0  0
  8  7  1  0  0  0  0
  9 10  1  0  0  0  0
 11 17  2  0  0  0  0
 12 16  2  0  0  0  0
 13  3  2  0  0  0  0
 14 13  1  0  0  0  0
 15  9  2  0  0  0  0
 16  4  1  0  0  0  0
 17 15  1  0  0  0  0
 18  6  2  0  0  0  0
 18  9  1  0  0  0  0
 19 24  1  0  0  0  0
 19 22  1  1  0  0  0
 20 17  1  0  0  0  0
 20 23  2  0  0  0  0
 21 19  1  0  0  0  0
 21 20  1  0  0  0  0
 24 23  1  0  0  0  0
 24 25  2  0  0  0  0
M  END
>  <MODEL>
5

>  <REMARK>
 VINA RESULT:      -7.3      1.178      1.285
  Name = 
  1 active torsions:
  status: ('A' for Active; 'I' for Inactive)
    1  A    between atoms: C_6  and  C_23
                            x       y       z     vdW  Elec       q    Type
                         _______ _______ _______ _____ _____    ______ ____

>  <TORSDO>
F 1

$$$$
=
 OpenBabel11052417323D

 25 29  0  0  1  0  0  0  0  0999 V2000
  189.1440  173.9050  142.7640 C   0  0  0  0  0  0  0  0  0  0  0  0
  189.2620  175.0510  143.7190 C   0  0  1  0  0  3  0  0  0  0  0  0
  190.1790  172.2920  144.2580 C   0  0  0  0  0  3  0  0  0  0  0  0
  188.8640  173.8550  141.4740 C   0  0  0  0  0  0  0  0  0  0  0  0
  188.4780  173.2490  138.7960 C   0  0  0  0  0  3  0  0  0  0  0  0
  190.1010  173.3100  145.3370 C   0  0  0  0  0  3  0  0  0  0  0  0
  189.1670  172.5830  140.9990 C   0  0  0  0  0  0  0  0  0  0  0  0
  188.9760  172.2560  139.6570 C   0  0  0  0  0  3  0  0  0  0  0  0
  189.4150  175.5040  146.2160 C   0  0  0  0  0  0  0  0  0  0  0  0
  190.0980  175.3500  147.4570 N   0  0  0  0  0  1  0  0  0  0  0  0
  188.0430  175.9250  143.7690 C   0  0  0  0  0  3  0  0  0  0  0  0
  188.1900  174.5420  139.2800 C   0  0  0  0  0  3  0  0  0  0  0  0
  189.6870  172.6040  143.0610 C   0  0  0  0  0  0  0  0  0  0  0  0
  189.6680  171.7860  141.8950 N   0  0  0  0  0  0  0  0  0  0  0  0
  188.5370  176.4550  146.0770 N   0  0  0  0  0  0  0  0  0  0  0  0
  188.3890  174.8600  140.6340 C   0  0  0  0  0  3  0  0  0  0  0  0
  187.7560  176.6320  144.8750 C   0  0  0  0  0  0  0  0  0  0  0  0
  189.6370  174.5580  145.1100 C   0  0  0  0  0  0  0  0  0  0  0  0
  184.8000  179.3040  144.4100 C   0  0  1  0  0  3  0  0  0  0  0  0
  186.6060  177.5530  144.8910 C   0  0  0  0  0  0  0  0  0  0  0  0
  186.3290  178.7490  143.5790 S   0  0  0  0  0  0  0  0  0  0  0  0
  183.6100  179.0050  143.5180 C   0  0  0  0  0  1  0  0  0  0  0  0
  185.7400  177.5470  145.8480 N   0  0  0  0  0  0  0  0  0  0  0  0
  184.7160  178.5030  145.6570 C   0  0  0  0  0  0  0  0  0  0  0  0
  183.8020  178.6680  146.5080 O   0  0  0  0  0  0  0  0  0  0  0  0
  1 13  1  0  0  0  0
  1  2  1  0  0  0  0
  2 11  1  1  0  0  0
  2 18  1  0  0  0  0
  3  6  1  0  0  0  0
  4  1  2  0  0  0  0
  5 12  1  0  0  0  0
  5  8  2  0  0  0  0
  7  4  1  0  0  0  0
  7 14  2  0  0  0  0
  8  7  1  0  0  0  0
  9 10  1  0  0  0  0
 11 17  2  0  0  0  0
 12 16  2  0  0  0  0
 13  3  2  0  0  0  0
 14 13  1  0  0  0  0
 15  9  2  0  0  0  0
 16  4  1  0  0  0  0
 17 20  1  0  0  0  0
 17 15  1  0  0  0  0
 18  6  2  0  0  0  0
 18  9  1  0  0  0  0
 19 22  1  6  0  0  0
 19 24  1  0  0  0  0
 20 23  2  0  0  0  0
 21 19  1  0  0  0  0
 21 20  1  0  0  0  0
 24 23  1  0  0  0  0
 24 25  2  0  0  0  0
M  END
>  <MODEL>
6

>  <REMARK>
 VINA RESULT:      -7.2      3.692      6.070
  Name = 
  1 active torsions:
  status: ('A' for Active; 'I' for Inactive)
    1  A    between atoms: C_6  and  C_23
                            x       y       z     vdW  Elec       q    Type
                         _______ _______ _______ _____ _____    ______ ____

>  <TORSDO>
F 1

$$$$
=
 OpenBabel11052417323D

 25 29  0  0  1  0  0  0  0  0999 V2000
  190.2270  176.4350  145.2920 C   0  0  0  0  0  0  0  0  0  0  0  0
  189.3670  176.6640  144.0890 C   0  0  0  0  0  0  0  0  0  0  0  0
  188.4110  176.6840  146.8870 C   0  0  0  0  0  3  0  0  0  0  0  0
  191.5380  176.4140  145.4500 C   0  0  0  0  0  0  0  0  0  0  0  0
  194.1750  176.4180  146.3070 C   0  0  0  0  0  3  0  0  0  0  0  0
  187.4640  176.6680  145.7420 C   0  0  0  0  0  3  0  0  0  0  0  0
  191.8270  176.4530  146.8110 C   0  0  0  0  0  0  0  0  0  0  0  0
  193.1460  176.4520  147.2630 C   0  0  0  0  0  3  0  0  0  0  0  0
  186.9460  176.4340  143.3470 C   0  0  0  0  0  0  0  0  0  0  0  0
  185.5740  176.7910  143.4900 N   0  0  0  0  0  1  0  0  0  0  0  0
  189.6660  175.7380  142.9470 C   0  0  0  0  0  2  0  0  0  0  0  0
  193.8760  176.3970  144.9280 C   0  0  0  0  0  3  0  0  0  0  0  0
  189.7090  176.5400  146.6320 C   0  0  0  0  0  0  0  0  0  0  0  0
  190.7780  176.5350  147.5740 N   0  0  0  0  0  0  0  0  0  0  0  0
  187.3580  175.8880  142.2400 N   0  0  0  0  0  0  0  0  0  0  0  0
  192.5430  176.4010  144.4850 C   0  0  0  0  0  3  0  0  0  0  0  0
  188.7160  175.4370  142.0450 C   0  0  0  0  0  0  0  0  0  0  0  0
  187.8920  176.6090  144.4620 C   0  0  0  0  0  0  0  0  0  0  0  0
  190.0280  172.9620  139.1740 C   0  0  1  0  0  3  0  0  0  0  0  0
  189.0370  174.5960  140.8790 C   0  0  0  0  0  0  0  0  0  0  0  0
  190.5230  173.5870  140.8160 S   0  0  0  0  0  0  0  0  0  0  0  0
  189.7850  171.4670  139.2610 C   0  0  0  0  0  1  0  0  0  0  0  0
  188.2680  174.5410  139.8450 N   0  0  0  0  0  0  0  0  0  0  0  0
  188.7600  173.6650  138.8500 C   0  0  0  0  0  0  0  0  0  0  0  0
  188.1620  173.5120  137.7520 O   0  0  0  0  0  0  0  0  0  0  0  0
  1  4  1  0  0  0  0
  1 13  1  0  0  0  0
  2 18  1  0  0  0  0
  2  1  2  0  0  0  0
  4  7  1  0  0  0  0
  5  8  1  0  0  0  0
  6  3  2  0  0  0  0
  7  8  2  0  0  0  0
  7 14  1  0  0  0  0
  9 10  1  0  0  0  0
  9 18  2  0  0  0  0
 11  2  1  0  0  0  0
 12  5  2  0  0  0  0
 13  3  1  0  0  0  0
 13 14  2  0  0  0  0
 15  9  1  0  0  0  0
 16 12  1  0  0  0  0
 16  4  2  0  0  0  0
 17 15  2  0  0  0  0
 17 11  1  0  0  0  0
 18  6  1  0  0  0  0
 19 22  1  1  0  0  0
 19 21  1  0  0  0  0
 20 17  1  0  0  0  0
 21 20  1  0  0  0  0
 23 20  2  0  0  0  0
 24 19  1  0  0  0  0
 24 23  1  0  0  0  0
 25 24  2  0  0  0  0
M  END
>  <MODEL>
7

>  <REMARK>
 VINA RESULT:      -7.2      3.447      6.705
  Name = 
  1 active torsions:
  status: ('A' for Active; 'I' for Inactive)
    1  A    between atoms: C_6  and  C_23
                            x       y       z     vdW  Elec       q    Type
                         _______ _______ _______ _____ _____    ______ ____

>  <TORSDO>
F 1

$$$$
=
 OpenBabel11052417323D

 25 29  0  0  1  0  0  0  0  0999 V2000
  187.5490  177.5760  144.1860 C   0  0  0  0  0  0  0  0  0  0  0  0
  187.3530  177.7930  142.7190 C   0  0  0  0  0  0  0  0  0  0  0  0
  185.3810  178.4810  144.8120 C   0  0  0  0  0  3  0  0  0  0  0  0
  188.6200  177.2880  144.9020 C   0  0  0  0  0  0  0  0  0  0  0  0
  190.5680  176.8420  146.8240 C   0  0  0  0  0  3  0  0  0  0  0  0
  185.0210  178.4910  143.3710 C   0  0  0  0  0  3  0  0  0  0  0  0
  188.3260  177.4830  146.2480 C   0  0  0  0  0  0  0  0  0  0  0  0
  189.2900  177.2600  147.2310 C   0  0  0  0  0  3  0  0  0  0  0  0
  185.4850  177.9920  141.0050 C   0  0  0  0  0  0  0  0  0  0  0  0
  184.3280  178.6660  140.5160 N   0  0  0  0  0  1  0  0  0  0  0  0
  187.8290  176.6500  141.8700 C   0  0  0  0  0  2  0  0  0  0  0  0
  190.8660  176.6640  145.4570 C   0  0  0  0  0  3  0  0  0  0  0  0
  186.5780  178.0110  145.1580 C   0  0  0  0  0  0  0  0  0  0  0  0
  187.1230  177.9190  146.4710 N   0  0  0  0  0  0  0  0  0  0  0  0
  186.1490  177.1960  140.2190 N   0  0  0  0  0  0  0  0  0  0  0  0
  189.8870  176.8940  144.4760 C   0  0  0  0  0  3  0  0  0  0  0  0
  187.2890  176.4270  140.6600 C   0  0  0  0  0  0  0  0  0  0  0  0
  185.9010  178.1310  142.4110 C   0  0  0  0  0  0  0  0  0  0  0  0
  188.4870  173.7950  137.8800 C   0  0  1  0  0  3  0  0  0  0  0  0
  187.8160  175.3570  139.7960 C   0  0  0  0  0  0  0  0  0  0  0  0
  187.4430  175.2850  138.0390 S   0  0  0  0  0  0  0  0  0  0  0  0
  189.6590  174.1020  136.9680 C   0  0  0  0  0  1  0  0  0  0  0  0
  188.5720  174.4180  140.2560 N   0  0  0  0  0  0  0  0  0  0  0  0
  188.9720  173.5050  139.2530 C   0  0  0  0  0  0  0  0  0  0  0  0
  189.6820  172.5000  139.5230 O   0  0  0  0  0  0  0  0  0  0  0  0
  1  4  1  0  0  0  0
  1 13  1  0  0  0  0
  2  1  2  0  0  0  0
  3 13  1  0  0  0  0
  4  7  1  0  0  0  0
  5  8  1  0  0  0  0
  6  3  2  0  0  0  0
  7 14  1  0  0  0  0
  7  8  2  0  0  0  0
  9 18  2  0  0  0  0
 10  9  1  0  0  0  0
 11  2  1  0  0  0  0
 12  5  2  0  0  0  0
 13 14  2  0  0  0  0
 15 17  2  0  0  0  0
 15  9  1  0  0  0  0
 16  4  2  0  0  0  0
 16 12  1  0  0  0  0
 17 11  1  0  0  0  0
 18  2  1  0  0  0  0
 18  6  1  0  0  0  0
 19 22  1  6  0  0  0
 19 21  1  0  0  0  0
 19 24  1  0  0  0  0
 20 23  2  0  0  0  0
 20 17  1  0  0  0  0
 21 20  1  0  0  0  0
 24 25  2  0  0  0  0
 24 23  1  0  0  0  0
M  END
>  <MODEL>
8

>  <REMARK>
 VINA RESULT:      -7.2      3.308      6.315
  Name = 
  1 active torsions:
  status: ('A' for Active; 'I' for Inactive)
    1  A    between atoms: C_6  and  C_23
                            x       y       z     vdW  Elec       q    Type
                         _______ _______ _______ _____ _____    ______ ____

>  <TORSDO>
F 1

$$$$
=
 OpenBabel11052417323D

 25 29  0  0  1  0  0  0  0  0999 V2000
  188.7630  176.4040  146.0620 C   0  0  0  0  0  0  0  0  0  0  0  0
  189.3370  175.1730  145.4330 C   0  0  0  0  0  0  0  0  0  0  0  0
  190.7040  176.8370  147.4600 C   0  0  0  0  0  3  0  0  0  0  0  0
  187.5380  176.8970  146.0830 C   0  0  0  0  0  0  0  0  0  0  0  0
  185.1510  178.2330  146.5330 C   0  0  0  0  0  3  0  0  0  0  0  0
  191.4270  175.7840  146.7020 C   0  0  0  0  0  3  0  0  0  0  0  0
  187.4740  177.8990  147.0460 C   0  0  0  0  0  0  0  0  0  0  0  0
  186.2840  178.5860  147.2860 C   0  0  0  0  0  3  0  0  0  0  0  0
  191.5890  174.1270  144.8890 C   0  0  0  0  0  0  0  0  0  0  0  0
  192.8420  173.6040  145.3220 N   0  0  0  0  0  1  0  0  0  0  0  0
  189.0840  175.0750  143.9570 C   0  0  0  0  0  2  0  0  0  0  0  0
  185.2180  177.2040  145.5710 C   0  0  0  0  0  3  0  0  0  0  0  0
  189.4530  177.1210  147.1050 C   0  0  0  0  0  0  0  0  0  0  0  0
  188.5830  178.0810  147.6980 N   0  0  0  0  0  0  0  0  0  0  0  0
  191.1430  173.8330  143.7020 N   0  0  0  0  0  0  0  0  0  0  0  0
  186.4220  176.5180  145.3400 C   0  0  0  0  0  3  0  0  0  0  0  0
  189.9180  174.3780  143.1670 C   0  0  0  0  0  0  0  0  0  0  0  0
  190.8230  175.0530  145.7400 C   0  0  0  0  0  0  0  0  0  0  0  0
  189.5130  173.5380  139.2650 C   0  0  1  0  0  3  0  0  0  0  0  0
  189.6200  174.2130  141.7340 C   0  0  0  0  0  0  0  0  0  0  0  0
  190.5900  173.1260  140.6810 S   0  0  0  0  0  0  0  0  0  0  0  0
  188.7900  172.2860  138.8070 C   0  0  0  0  0  1  0  0  0  0  0  0
  188.6490  174.8410  141.1620 N   0  0  0  0  0  0  0  0  0  0  0  0
  188.5370  174.5280  139.7870 C   0  0  0  0  0  0  0  0  0  0  0  0
  187.6690  175.0750  139.0560 O   0  0  0  0  0  0  0  0  0  0  0  0
  1  4  1  0  0  0  0
  1 13  1  0  0  0  0
  2 18  1  0  0  0  0
  2  1  2  0  0  0  0
  4  7  1  0  0  0  0
  5  8  1  0  0  0  0
  6  3  2  0  0  0  0
  7  8  2  0  0  0  0
  7 14  1  0  0  0  0
  9 10  1  0  0  0  0
  9 18  2  0  0  0  0
 11  2  1  0  0  0  0
 12  5  2  0  0  0  0
 13  3  1  0  0  0  0
 13 14  2  0  0  0  0
 15  9  1  0  0  0  0
 16 12  1  0  0  0  0
 16  4  2  0  0  0  0
 17 15  2  0  0  0  0
 17 11  1  0  0  0  0
 18  6  1  0  0  0  0
 19 22  1  1  0  0  0
 19 24  1  0  0  0  0
 19 21  1  0  0  0  0
 20 17  1  0  0  0  0
 21 20  1  0  0  0  0
 23 20  2  0  0  0  0
 24 23  1  0  0  0  0
 25 24  2  0  0  0  0
M  END
>  <MODEL>
9

>  <REMARK>
 VINA RESULT:      -7.1      3.355      6.259
  Name = 
  1 active torsions:
  status: ('A' for Active; 'I' for Inactive)
    1  A    between atoms: C_6  and  C_23
                            x       y       z     vdW  Elec       q    Type
                         _______ _______ _______ _____ _____    ______ ____

>  <TORSDO>
F 1

$$$$
