=
 OpenBabel11052420273D

 34 40  0  0  1  0  0  0  0  0999 V2000
  188.0500  176.3140  144.0100 C   0  0  1  0  0  3  0  0  0  0  0  0
  184.7790  178.0940  143.1490 C   0  0  0  0  0  3  0  0  0  0  0  0
  193.1190  174.9070  142.7730 C   0  0  0  0  0  2  0  0  0  0  0  0
  185.6350  177.4320  145.3930 C   0  0  0  0  0  2  0  0  0  0  0  0
  192.8020  177.3700  144.2410 C   0  0  0  0  0  2  0  0  0  0  0  0
  190.3810  176.5220  143.3640 C   0  0  2  0  0  0  0  0  0  0  0  0
  189.3000  177.2030  143.8930 C   0  0  2  0  0  3  0  0  0  0  0  0
  190.0950  175.9510  146.0930 C   0  0  0  0  0  2  0  0  0  0  0  0
  188.5900  174.8420  147.6560 C   0  0  0  0  0  1  0  0  0  0  0  0
  194.2520  175.3430  143.7170 C   0  0  1  0  0  3  0  0  0  0  0  0
  190.2130  176.6420  144.8700 N   0  0  1  0  0  0  0  0  0  0  0  0
  190.9860  177.6450  142.7130 O   0  0  0  0  0  0  0  0  0  0  0  0
  186.9550  177.1980  146.1180 C   0  0  0  0  0  2  0  0  0  0  0  0
  187.6730  176.0020  145.5040 C   0  0  2  0  0  3  0  0  0  0  0  0
  188.8480  175.5850  146.3930 C   0  0  1  0  0  3  0  0  0  0  0  0
  184.8400  178.1160  141.7470 C   0  0  0  0  0  0  0  0  0  0  0  0
  185.9350  177.5320  141.1040 C   0  0  0  0  0  3  0  0  0  0  0  0
  193.7210  176.2900  144.8140 C   0  0  1  0  0  3  0  0  0  0  0  0
  191.8740  176.7310  143.2070 C   0  0  1  0  0  0  0  0  0  0  0  0
  192.4960  176.0170  142.1720 O   0  0  0  0  0  0  0  0  0  0  0  0
  185.8030  177.5120  143.9020 C   0  0  0  0  0  0  0  0  0  0  0  0
  186.9590  176.9370  141.8460 C   0  0  0  0  0  3  0  0  0  0  0  0
  186.9020  176.9160  143.2440 C   0  0  0  0  0  0  0  0  0  0  0  0
  194.4020  177.3340  146.8720 O   0  0  0  0  0  1  0  0  0  0  0  0
  194.8520  176.9260  145.6140 C   0  0  0  0  0  2  0  0  0  0  0  0
  194.9720  174.1220  144.3010 C   0  0  0  0  0  2  0  0  0  0  0  0
  194.1580  173.3740  145.3570 C   0  0  0  0  0  2  0  0  0  0  0  0
  193.7940  171.9800  144.8860 C   0  0  0  0  0  3  0  0  0  0  0  0
  194.5070  170.9630  145.7560 C   0  0  0  0  0  2  0  0  0  0  0  0
  195.0440  171.2890  144.3810 C   0  0  0  0  0  2  0  0  0  0  0  0
  183.8370  178.6980  140.9560 O   0  0  0  0  0  0  0  0  0  0  0  0
  181.3990  178.4620  141.3970 C   0  0  0  0  0  1  0  0  0  0  0  0
  182.5080  177.3030  139.6520 O   0  0  0  0  0  0  0  0  0  0  0  0
  182.6100  178.1140  140.6100 C   0  0  0  0  0  0  0  0  0  0  0  0
  1 23  1  1  0  0  0
  1 14  1  0  0  0  0
  2 21  1  0  0  0  0
  3 10  1  0  0  0  0
  4 13  1  0  0  0  0
  5 18  1  0  0  0  0
  6 12  1  1  0  0  0
  6  7  1  0  0  0  0
  6 11  1  0  0  0  0
  7  1  1  0  0  0  0
  7 11  1  0  0  0  0
  8 15  1  0  0  0  0
 10 26  1  0  0  0  0
 10 18  1  0  0  0  0
 11  8  1  0  0  0  0
 12 19  1  0  0  0  0
 14 13  1  0  0  0  0
 14 15  1  0  0  0  0
 15  9  1  0  0  0  0
 16  2  2  0  0  0  0
 17 16  1  0  0  0  0
 17 22  2  0  0  0  0
 18 25  1  0  0  0  0
 19  6  1  0  0  0  0
 19  5  1  0  0  0  0
 20  3  1  0  0  0  0
 20 19  1  0  0  0  0
 21  4  1  0  0  0  0
 22 23  1  0  0  0  0
 23 21  2  0  0  0  0
 25 24  1  0  0  0  0
 26 27  1  0  0  0  0
 28 27  1  0  0  0  0
 28 29  1  0  0  0  0
 30 28  1  0  0  0  0
 30 29  1  0  0  0  0
 31 16  1  0  0  0  0
 33 34  2  0  0  0  0
 34 31  1  0  0  0  0
 34 32  1  0  0  0  0
M  END
>  <MODEL>
1

>  <REMARK>
 VINA RESULT:      -7.7      0.000      0.000
  Name = 
  6 active torsions:
  status: ('A' for Active; 'I' for Inactive)
    1  A    between atoms: C_7  and  C_11
    2  A    between atoms: C_7  and  C_14
    3  A    between atoms: C_14  and  C_16
    4  A    between atoms: O_23  and  C_24
    5  A    between atoms: O_23  and  C_25
    6  A    between atoms: C_28  and  C_29
                            x       y       z     vdW  Elec       q    Type
                         _______ _______ _______ _____ _____    ______ ____

>  <TORSDO>
F 6

$$$$
=
 OpenBabel11052420273D

 34 40  0  0  1  0  0  0  0  0999 V2000
  187.8700  176.3600  144.1270 C   0  0  1  0  0  3  0  0  0  0  0  0
  184.5520  178.1140  143.4050 C   0  0  0  0  0  3  0  0  0  0  0  0
  192.9150  175.0450  142.7040 C   0  0  0  0  0  2  0  0  0  0  0  0
  185.4860  177.4180  145.6070 C   0  0  0  0  0  2  0  0  0  0  0  0
  192.6140  177.4730  144.2310 C   0  0  0  0  0  2  0  0  0  0  0  0
  190.1770  176.6120  143.4120 C   0  0  2  0  0  0  0  0  0  0  0  0
  189.1040  177.2680  143.9890 C   0  0  2  0  0  3  0  0  0  0  0  0
  189.9840  175.9820  146.1370 C   0  0  0  0  0  2  0  0  0  0  0  0
  188.5430  174.8220  147.7230 C   0  0  0  0  0  1  0  0  0  0  0  0
  194.0710  175.4760  143.6200 C   0  0  1  0  0  3  0  0  0  0  0  0
  190.0540  176.6980  144.9250 N   0  0  1  0  0  0  0  0  0  0  0  0
  190.7470  177.7550  142.7660 O   0  0  0  0  0  0  0  0  0  0  0  0
  186.8310  177.1870  146.2850 C   0  0  0  0  0  2  0  0  0  0  0  0
  187.5450  176.0130  145.6250 C   0  0  2  0  0  3  0  0  0  0  0  0
  188.7510  175.5930  146.4680 C   0  0  1  0  0  3  0  0  0  0  0  0
  184.5680  178.1650  142.0030 C   0  0  0  0  0  0  0  0  0  0  0  0
  185.6500  177.6080  141.3140 C   0  0  0  0  0  3  0  0  0  0  0  0
  193.5630  176.3930  144.7520 C   0  0  1  0  0  3  0  0  0  0  0  0
  191.6610  176.8420  143.2130 C   0  0  1  0  0  0  0  0  0  0  0  0
  192.2600  176.1580  142.1450 O   0  0  0  0  0  0  0  0  0  0  0  0
  185.6060  177.5300  144.1130 C   0  0  0  0  0  0  0  0  0  0  0  0
  186.7030  177.0120  142.0110 C   0  0  0  0  0  3  0  0  0  0  0  0
  186.6910  176.9620  143.4090 C   0  0  0  0  0  0  0  0  0  0  0  0
  194.3800  177.1660  146.8800 O   0  0  0  0  0  1  0  0  0  0  0  0
  194.7110  177.0280  145.5290 C   0  0  0  0  0  2  0  0  0  0  0  0
  194.8240  174.2530  144.1560 C   0  0  0  0  0  2  0  0  0  0  0  0
  196.2680  174.1530  143.6630 C   0  0  0  0  0  2  0  0  0  0  0  0
  196.5850  175.2500  142.6650 C   0  0  0  0  0  3  0  0  0  0  0  0
  197.8120  174.8530  141.8680 C   0  0  0  0  0  2  0  0  0  0  0  0
  197.9370  175.8460  143.0020 C   0  0  0  0  0  2  0  0  0  0  0  0
  183.5340  178.7500  141.2550 O   0  0  0  0  0  0  0  0  0  0  0  0
  181.1110  178.2110  141.4440 C   0  0  0  0  0  1  0  0  0  0  0  0
  182.4750  177.3970  139.6850 O   0  0  0  0  0  0  0  0  0  0  0  0
  182.4110  178.0900  140.7350 C   0  0  0  0  0  0  0  0  0  0  0  0
  1 23  1  1  0  0  0
  1 14  1  0  0  0  0
  2 21  1  0  0  0  0
  3 10  1  0  0  0  0
  4 13  1  0  0  0  0
  5 18  1  0  0  0  0
  6 12  1  1  0  0  0
  6  7  1  0  0  0  0
  6 11  1  0  0  0  0
  7  1  1  0  0  0  0
  7 11  1  0  0  0  0
  8 15  1  0  0  0  0
 10 26  1  0  0  0  0
 10 18  1  0  0  0  0
 11  8  1  0  0  0  0
 12 19  1  0  0  0  0
 14 13  1  0  0  0  0
 14 15  1  0  0  0  0
 15  9  1  0  0  0  0
 16  2  2  0  0  0  0
 17 16  1  0  0  0  0
 17 22  2  0  0  0  0
 18 25  1  0  0  0  0
 19  6  1  0  0  0  0
 19  5  1  0  0  0  0
 20  3  1  0  0  0  0
 20 19  1  0  0  0  0
 21  4  1  0  0  0  0
 22 23  1  0  0  0  0
 23 21  2  0  0  0  0
 25 24  1  0  0  0  0
 27 26  1  0  0  0  0
 28 30  1  0  0  0  0
 28 27  1  0  0  0  0
 29 28  1  0  0  0  0
 29 30  1  0  0  0  0
 31 16  1  0  0  0  0
 33 34  2  0  0  0  0
 34 31  1  0  0  0  0
 34 32  1  0  0  0  0
M  END
>  <MODEL>
2

>  <REMARK>
 VINA RESULT:      -7.7      1.065      1.762
  Name = 
  6 active torsions:
  status: ('A' for Active; 'I' for Inactive)
    1  A    between atoms: C_7  and  C_11
    2  A    between atoms: C_7  and  C_14
    3  A    between atoms: C_14  and  C_16
    4  A    between atoms: O_23  and  C_24
    5  A    between atoms: O_23  and  C_25
    6  A    between atoms: C_28  and  C_29
                            x       y       z     vdW  Elec       q    Type
                         _______ _______ _______ _____ _____    ______ ____

>  <TORSDO>
F 6

$$$$
=
 OpenBabel11052420273D

 34 40  0  0  1  0  0  0  0  0999 V2000
  190.3210  175.5310  142.6920 C   0  0  1  0  0  3  0  0  0  0  0  0
  186.5620  176.0680  143.1250 C   0  0  0  0  0  3  0  0  0  0  0  0
  195.4180  176.3910  144.2670 C   0  0  0  0  0  2  0  0  0  0  0  0
  187.7320  174.2240  141.9260 C   0  0  0  0  0  2  0  0  0  0  0  0
  194.1120  174.0760  145.3870 C   0  0  0  0  0  2  0  0  0  0  0  0
  192.2810  175.6250  144.1220 C   0  0  2  0  0  0  0  0  0  0  0  0
  191.0370  175.0410  143.9620 C   0  0  2  0  0  3  0  0  0  0  0  0
  192.4140  173.5030  142.2950 C   0  0  0  0  0  2  0  0  0  0  0  0
  191.6390  172.8500  140.0790 C   0  0  0  0  0  1  0  0  0  0  0  0
  196.2840  175.1780  144.6430 C   0  0  1  0  0  3  0  0  0  0  0  0
  192.1520  174.2670  143.4500 N   0  0  1  0  0  0  0  0  0  0  0  0
  192.2900  175.6140  145.5540 O   0  0  0  0  0  0  0  0  0  0  0  0
  189.0530  173.4640  141.9560 C   0  0  0  0  0  2  0  0  0  0  0  0
  190.1970  174.4060  141.6000 C   0  0  2  0  0  3  0  0  0  0  0  0
  191.4770  173.6040  141.3510 C   0  0  1  0  0  3  0  0  0  0  0  0
  186.5370  177.2890  143.8150 C   0  0  0  0  0  0  0  0  0  0  0  0
  187.7450  177.9300  144.1090 C   0  0  0  0  0  3  0  0  0  0  0  0
  195.4420  173.8850  144.6580 C   0  0  1  0  0  3  0  0  0  0  0  0
  193.5150  175.4250  144.9780 C   0  0  1  0  0  0  0  0  0  0  0  0
  194.3380  176.5460  145.1550 O   0  0  0  0  0  0  0  0  0  0  0  0
  187.7740  175.4820  142.7470 C   0  0  0  0  0  0  0  0  0  0  0  0
  188.9610  177.3600  143.7250 C   0  0  0  0  0  3  0  0  0  0  0  0
  188.9890  176.1400  143.0400 C   0  0  0  0  0  0  0  0  0  0  0  0
  196.8780  173.0990  146.4220 O   0  0  0  0  0  1  0  0  0  0  0  0
  196.2100  172.7120  145.2570 C   0  0  0  0  0  2  0  0  0  0  0  0
  197.5000  175.0690  143.7160 C   0  0  0  0  0  2  0  0  0  0  0  0
  197.3450  175.8400  142.4050 C   0  0  0  0  0  2  0  0  0  0  0  0
  197.2290  174.8980  141.2230 C   0  0  0  0  0  3  0  0  0  0  0  0
  196.5200  175.6130  140.0890 C   0  0  0  0  0  2  0  0  0  0  0  0
  195.7630  174.6280  140.9510 C   0  0  0  0  0  2  0  0  0  0  0  0
  185.3420  177.9050  144.2200 O   0  0  0  0  0  0  0  0  0  0  0  0
  185.1730  176.8390  146.4630 C   0  0  0  0  0  1  0  0  0  0  0  0
  184.0790  178.8690  145.9190 O   0  0  0  0  0  0  0  0  0  0  0  0
  184.8270  177.9370  145.5240 C   0  0  0  0  0  0  0  0  0  0  0  0
  1 23  1  1  0  0  0
  1  7  1  0  0  0  0
  2 16  1  0  0  0  0
  3 10  1  0  0  0  0
  3 20  1  0  0  0  0
  4 13  1  0  0  0  0
  4 21  1  0  0  0  0
  6 19  1  0  0  0  0
  6 12  1  1  0  0  0
  7  6  1  0  0  0  0
  8 11  1  0  0  0  0
  9 15  1  0  0  0  0
 10 18  1  0  0  0  0
 11  7  1  0  0  0  0
 11  6  1  0  0  0  0
 14 13  1  0  0  0  0
 14  1  1  0  0  0  0
 15 14  1  0  0  0  0
 15  8  1  0  0  0  0
 16 17  2  0  0  0  0
 16 31  1  0  0  0  0
 18 25  1  0  0  0  0
 18  5  1  0  0  0  0
 19 20  1  0  0  0  0
 19  5  1  0  0  0  0
 19 12  1  0  0  0  0
 21 23  1  0  0  0  0
 21  2  2  0  0  0  0
 22 17  1  0  0  0  0
 23 22  2  0  0  0  0
 25 24  1  0  0  0  0
 26 10  1  0  0  0  0
 27 26  1  0  0  0  0
 28 27  1  0  0  0  0
 29 30  1  0  0  0  0
 29 28  1  0  0  0  0
 30 28  1  0  0  0  0
 31 34  1  0  0  0  0
 34 33  2  0  0  0  0
 34 32  1  0  0  0  0
M  END
>  <MODEL>
3

>  <REMARK>
 VINA RESULT:      -7.4      2.644      4.514
  Name = 
  6 active torsions:
  status: ('A' for Active; 'I' for Inactive)
    1  A    between atoms: C_7  and  C_11
    2  A    between atoms: C_7  and  C_14
    3  A    between atoms: C_14  and  C_16
    4  A    between atoms: O_23  and  C_24
    5  A    between atoms: O_23  and  C_25
    6  A    between atoms: C_28  and  C_29
                            x       y       z     vdW  Elec       q    Type
                         _______ _______ _______ _____ _____    ______ ____

>  <TORSDO>
F 6

$$$$
=
 OpenBabel11052420273D

 34 40  0  0  1  0  0  0  0  0999 V2000
  189.6700  175.6280  144.9040 C   0  0  1  0  0  3  0  0  0  0  0  0
  186.3570  177.5090  144.6080 C   0  0  0  0  0  3  0  0  0  0  0  0
  193.9250  173.1880  142.6350 C   0  0  0  0  0  2  0  0  0  0  0  0
  187.9380  177.4560  146.5320 C   0  0  0  0  0  2  0  0  0  0  0  0
  194.2200  176.0020  143.1960 C   0  0  0  0  0  2  0  0  0  0  0  0
  191.6230  175.2860  143.5010 C   0  0  2  0  0  0  0  0  0  0  0  0
  190.8200  176.2460  144.0900 C   0  0  2  0  0  3  0  0  0  0  0  0
  192.3130  175.6320  146.1950 C   0  0  0  0  0  2  0  0  0  0  0  0
  191.4340  175.2910  148.4420 C   0  0  0  0  0  1  0  0  0  0  0  0
  195.3320  173.7250  142.9480 C   0  0  1  0  0  3  0  0  0  0  0  0
  192.0060  175.8870  144.8440 N   0  0  1  0  0  0  0  0  0  0  0  0
  191.9860  176.0530  142.3480 O   0  0  0  0  0  0  0  0  0  0  0  0
  189.4230  177.2680  146.8190 C   0  0  0  0  0  2  0  0  0  0  0  0
  189.8430  175.8500  146.4500 C   0  0  2  0  0  3  0  0  0  0  0  0
  191.2450  175.5620  146.9920 C   0  0  1  0  0  3  0  0  0  0  0  0
  185.9150  177.0890  143.3440 C   0  0  0  0  0  0  0  0  0  0  0  0
  186.6930  176.1820  142.6180 C   0  0  0  0  0  3  0  0  0  0  0  0
  195.2520  175.0300  143.7680 C   0  0  1  0  0  3  0  0  0  0  0  0
  192.9660  175.2170  142.8040 C   0  0  1  0  0  0  0  0  0  0  0  0
  193.1600  174.1360  141.9310 O   0  0  0  0  0  0  0  0  0  0  0  0
  187.5660  177.0470  145.1350 C   0  0  0  0  0  0  0  0  0  0  0  0
  187.8960  175.7030  143.1400 C   0  0  0  0  0  3  0  0  0  0  0  0
  188.3410  176.1240  144.3980 C   0  0  0  0  0  0  0  0  0  0  0  0
  196.5260  177.0570  143.5220 O   0  0  0  0  0  1  0  0  0  0  0  0
  196.6110  175.7110  143.8870 C   0  0  0  0  0  2  0  0  0  0  0  0
  196.1790  172.6530  143.6430 C   0  0  0  0  0  2  0  0  0  0  0  0
  195.5300  172.0740  144.9010 C   0  0  0  0  0  2  0  0  0  0  0  0
  195.7140  170.5710  144.9730 C   0  0  0  0  0  3  0  0  0  0  0  0
  194.9480  170.0360  146.1670 C   0  0  0  0  0  2  0  0  0  0  0  0
  196.4450  170.2250  146.2530 C   0  0  0  0  0  2  0  0  0  0  0  0
  184.7120  177.5380  142.7760 O   0  0  0  0  0  0  0  0  0  0  0  0
  183.2160  178.2910  140.9350 C   0  0  0  0  0  1  0  0  0  0  0  0
  185.5560  178.6660  140.9230 O   0  0  0  0  0  0  0  0  0  0  0  0
  184.5690  178.1810  141.5380 C   0  0  0  0  0  0  0  0  0  0  0  0
  1 23  1  6  0  0  0
  1 14  1  0  0  0  0
  2 21  1  0  0  0  0
  3 10  1  0  0  0  0
  4 13  1  0  0  0  0
  5 18  1  0  0  0  0
  6 12  1  6  0  0  0
  6  7  1  0  0  0  0
  6 11  1  0  0  0  0
  7 11  1  0  0  0  0
  7  1  1  0  0  0  0
  8 15  1  0  0  0  0
 10 26  1  0  0  0  0
 10 18  1  0  0  0  0
 11  8  1  0  0  0  0
 12 19  1  0  0  0  0
 14 13  1  0  0  0  0
 14 15  1  0  0  0  0
 15  9  1  0  0  0  0
 16  2  2  0  0  0  0
 17 22  2  0  0  0  0
 17 16  1  0  0  0  0
 18 25  1  0  0  0  0
 19  5  1  0  0  0  0
 19  6  1  0  0  0  0
 20  3  1  0  0  0  0
 20 19  1  0  0  0  0
 21  4  1  0  0  0  0
 22 23  1  0  0  0  0
 23 21  2  0  0  0  0
 24 25  1  0  0  0  0
 26 27  1  0  0  0  0
 27 28  1  0  0  0  0
 28 29  1  0  0  0  0
 28 30  1  0  0  0  0
 29 30  1  0  0  0  0
 31 16  1  0  0  0  0
 32 34  1  0  0  0  0
 33 34  2  0  0  0  0
 34 31  1  0  0  0  0
M  END
>  <MODEL>
4

>  <REMARK>
 VINA RESULT:      -7.4      1.641      2.305
  Name = 
  6 active torsions:
  status: ('A' for Active; 'I' for Inactive)
    1  A    between atoms: C_7  and  C_11
    2  A    between atoms: C_7  and  C_14
    3  A    between atoms: C_14  and  C_16
    4  A    between atoms: O_23  and  C_24
    5  A    between atoms: O_23  and  C_25
    6  A    between atoms: C_28  and  C_29
                            x       y       z     vdW  Elec       q    Type
                         _______ _______ _______ _____ _____    ______ ____

>  <TORSDO>
F 6

$$$$
=
 OpenBabel11052420273D

 34 40  0  0  1  0  0  0  0  0999 V2000
  190.1020  175.3560  144.5800 C   0  0  1  0  0  3  0  0  0  0  0  0
  187.4210  177.8220  143.4260 C   0  0  0  0  0  3  0  0  0  0  0  0
  193.9150  171.6850  143.4870 C   0  0  0  0  0  2  0  0  0  0  0  0
  188.6520  177.7780  145.5910 C   0  0  0  0  0  2  0  0  0  0  0  0
  194.8010  174.4230  143.6830 C   0  0  0  0  0  2  0  0  0  0  0  0
  192.0920  174.3510  143.6150 C   0  0  2  0  0  0  0  0  0  0  0  0
  191.4710  175.5530  143.9060 C   0  0  2  0  0  3  0  0  0  0  0  0
  192.4560  175.0230  146.3120 C   0  0  0  0  0  2  0  0  0  0  0  0
  191.2110  175.2920  148.3900 C   0  0  0  0  0  1  0  0  0  0  0  0
  195.3500  171.9530  143.9690 C   0  0  1  0  0  3  0  0  0  0  0  0
  192.4140  175.0890  144.9050 N   0  0  1  0  0  0  0  0  0  0  0  0
  192.7900  174.8000  142.4490 O   0  0  0  0  0  0  0  0  0  0  0  0
  189.9910  177.3290  146.1650 C   0  0  0  0  0  2  0  0  0  0  0  0
  190.1020  175.8110  146.0850 C   0  0  2  0  0  3  0  0  0  0  0  0
  191.3010  175.3300  146.9060 C   0  0  1  0  0  3  0  0  0  0  0  0
  187.0740  177.2860  142.1770 C   0  0  0  0  0  0  0  0  0  0  0  0
  187.7030  176.1160  141.7400 C   0  0  0  0  0  3  0  0  0  0  0  0
  195.4740  173.3710  144.5650 C   0  0  1  0  0  3  0  0  0  0  0  0
  193.4630  173.8690  143.1890 C   0  0  1  0  0  0  0  0  0  0  0  0
  193.5100  172.6320  142.5290 O   0  0  0  0  0  0  0  0  0  0  0  0
  188.3940  177.2130  144.2230 C   0  0  0  0  0  0  0  0  0  0  0  0
  188.6680  175.4910  142.5330 C   0  0  0  0  0  3  0  0  0  0  0  0
  189.0190  176.0270  143.7780 C   0  0  0  0  0  0  0  0  0  0  0  0
  197.1900  173.7920  146.2000 O   0  0  0  0  0  1  0  0  0  0  0  0
  196.9270  173.7520  144.8280 C   0  0  0  0  0  2  0  0  0  0  0  0
  195.8050  170.8670  144.9510 C   0  0  0  0  0  2  0  0  0  0  0  0
  194.6660  170.2680  145.7770 C   0  0  0  0  0  2  0  0  0  0  0  0
  194.9750  168.8410  146.1860 C   0  0  0  0  0  3  0  0  0  0  0  0
  194.5770  168.6450  147.6360 C   0  0  0  0  0  2  0  0  0  0  0  0
  196.0290  168.8580  147.2740 C   0  0  0  0  0  2  0  0  0  0  0  0
  186.1090  177.8730  141.3440 O   0  0  0  0  0  0  0  0  0  0  0  0
  183.8000  178.2910  140.5130 C   0  0  0  0  0  1  0  0  0  0  0  0
  184.2950  177.9160  142.8010 O   0  0  0  0  0  0  0  0  0  0  0  0
  184.7430  178.0150  141.6280 C   0  0  0  0  0  0  0  0  0  0  0  0
  1 23  1  6  0  0  0
  1 14  1  0  0  0  0
  2 21  1  0  0  0  0
  3 10  1  0  0  0  0
  4 13  1  0  0  0  0
  5 18  1  0  0  0  0
  6 12  1  6  0  0  0
  6  7  1  0  0  0  0
  6 11  1  0  0  0  0
  7  1  1  0  0  0  0
  7 11  1  0  0  0  0
  8 15  1  0  0  0  0
 10 18  1  0  0  0  0
 10 26  1  0  0  0  0
 11  8  1  0  0  0  0
 12 19  1  0  0  0  0
 14 13  1  0  0  0  0
 14 15  1  0  0  0  0
 15  9  1  0  0  0  0
 16  2  2  0  0  0  0
 17 16  1  0  0  0  0
 17 22  2  0  0  0  0
 18 25  1  0  0  0  0
 19  6  1  0  0  0  0
 19  5  1  0  0  0  0
 20 19  1  0  0  0  0
 20  3  1  0  0  0  0
 21  4  1  0  0  0  0
 22 23  1  0  0  0  0
 23 21  2  0  0  0  0
 25 24  1  0  0  0  0
 26 27  1  0  0  0  0
 27 28  1  0  0  0  0
 28 30  1  0  0  0  0
 28 29  1  0  0  0  0
 30 29  1  0  0  0  0
 31 34  1  0  0  0  0
 31 16  1  0  0  0  0
 32 34  1  0  0  0  0
 34 33  2  0  0  0  0
M  END
>  <MODEL>
5

>  <REMARK>
 VINA RESULT:      -7.1      1.974      3.066
  Name = 
  6 active torsions:
  status: ('A' for Active; 'I' for Inactive)
    1  A    between atoms: C_7  and  C_11
    2  A    between atoms: C_7  and  C_14
    3  A    between atoms: C_14  and  C_16
    4  A    between atoms: O_23  and  C_24
    5  A    between atoms: O_23  and  C_25
    6  A    between atoms: C_28  and  C_29
                            x       y       z     vdW  Elec       q    Type
                         _______ _______ _______ _____ _____    ______ ____

>  <TORSDO>
F 6

$$$$
=
 OpenBabel11052420273D

 34 40  0  0  1  0  0  0  0  0999 V2000
  186.4030  176.9940  144.1480 C   0  0  1  0  0  3  0  0  0  0  0  0
  183.3210  178.8910  142.9200 C   0  0  0  0  0  3  0  0  0  0  0  0
  191.2330  174.7500  143.2300 C   0  0  0  0  0  2  0  0  0  0  0  0
  184.1820  178.6820  145.2480 C   0  0  0  0  0  2  0  0  0  0  0  0
  191.2490  177.5090  144.0710 C   0  0  0  0  0  2  0  0  0  0  0  0
  188.7170  176.7680  143.4460 C   0  0  2  0  0  0  0  0  0  0  0  0
  187.7390  177.6770  143.8080 C   0  0  2  0  0  3  0  0  0  0  0  0
  188.4730  176.8950  146.2350 C   0  0  0  0  0  2  0  0  0  0  0  0
  186.9140  176.3710  148.0330 C   0  0  0  0  0  1  0  0  0  0  0  0
  192.4430  175.2600  144.0300 C   0  0  1  0  0  3  0  0  0  0  0  0
  188.6200  177.2590  144.8820 N   0  0  1  0  0  0  0  0  0  0  0  0
  189.4180  177.6270  142.5390 O   0  0  0  0  0  0  0  0  0  0  0  0
  185.4950  178.4720  145.9940 C   0  0  0  0  0  2  0  0  0  0  0  0
  186.0520  177.0890  145.6770 C   0  0  2  0  0  3  0  0  0  0  0  0
  187.2050  176.7590  146.6270 C   0  0  1  0  0  3  0  0  0  0  0  0
  183.3310  178.5740  141.5530 C   0  0  0  0  0  0  0  0  0  0  0  0
  184.3290  177.7300  141.0570 C   0  0  0  0  0  3  0  0  0  0  0  0
  192.0620  176.4940  144.8750 C   0  0  1  0  0  3  0  0  0  0  0  0
  190.2170  176.7570  143.2280 C   0  0  1  0  0  0  0  0  0  0  0  0
  190.7160  175.7520  142.3880 O   0  0  0  0  0  0  0  0  0  0  0  0
  184.3020  178.3870  143.7790 C   0  0  0  0  0  0  0  0  0  0  0  0
  185.3070  177.2120  141.9080 C   0  0  0  0  0  3  0  0  0  0  0  0
  185.3010  177.5280  143.2710 C   0  0  0  0  0  0  0  0  0  0  0  0
  193.4420  176.7890  146.8250 O   0  0  0  0  0  1  0  0  0  0  0  0
  193.2870  177.1640  145.4880 C   0  0  0  0  0  2  0  0  0  0  0  0
  193.0440  174.1360  144.8820 C   0  0  0  0  0  2  0  0  0  0  0  0
  194.1920  173.3930  144.1990 C   0  0  0  0  0  2  0  0  0  0  0  0
  195.3890  174.3000  143.9920 C   0  0  0  0  0  3  0  0  0  0  0  0
  196.6360  173.5940  144.4860 C   0  0  0  0  0  2  0  0  0  0  0  0
  195.9790  174.6520  145.3420 C   0  0  0  0  0  2  0  0  0  0  0  0
  182.3700  179.0670  140.6560 O   0  0  0  0  0  0  0  0  0  0  0  0
  180.2780  177.9160  141.3590 C   0  0  0  0  0  1  0  0  0  0  0  0
  180.3280  180.1830  140.6700 O   0  0  0  0  0  0  0  0  0  0  0  0
  180.9860  179.1290  140.8750 C   0  0  0  0  0  0  0  0  0  0  0  0
  1 23  1  6  0  0  0
  1 14  1  0  0  0  0
  2 21  1  0  0  0  0
  3 10  1  0  0  0  0
  4 13  1  0  0  0  0
  5 18  1  0  0  0  0
  6 12  1  1  0  0  0
  6  7  1  0  0  0  0
  6 11  1  0  0  0  0
  7  1  1  0  0  0  0
  7 11  1  0  0  0  0
  8 15  1  0  0  0  0
 10 18  1  0  0  0  0
 10 26  1  0  0  0  0
 11  8  1  0  0  0  0
 12 19  1  0  0  0  0
 14 13  1  0  0  0  0
 14 15  1  0  0  0  0
 15  9  1  0  0  0  0
 16  2  2  0  0  0  0
 17 16  1  0  0  0  0
 17 22  2  0  0  0  0
 18 25  1  0  0  0  0
 19  6  1  0  0  0  0
 19  5  1  0  0  0  0
 20 19  1  0  0  0  0
 20  3  1  0  0  0  0
 21  4  1  0  0  0  0
 22 23  1  0  0  0  0
 23 21  2  0  0  0  0
 25 24  1  0  0  0  0
 27 26  1  0  0  0  0
 28 27  1  0  0  0  0
 28 29  1  0  0  0  0
 28 30  1  0  0  0  0
 29 30  1  0  0  0  0
 31 34  1  0  0  0  0
 31 16  1  0  0  0  0
 33 34  2  0  0  0  0
 34 32  1  0  0  0  0
M  END
>  <MODEL>
6

>  <REMARK>
 VINA RESULT:      -7.1      1.452      2.025
  Name = 
  6 active torsions:
  status: ('A' for Active; 'I' for Inactive)
    1  A    between atoms: C_7  and  C_11
    2  A    between atoms: C_7  and  C_14
    3  A    between atoms: C_14  and  C_16
    4  A    between atoms: O_23  and  C_24
    5  A    between atoms: O_23  and  C_25
    6  A    between atoms: C_28  and  C_29
                            x       y       z     vdW  Elec       q    Type
                         _______ _______ _______ _____ _____    ______ ____

>  <TORSDO>
F 6

$$$$
=
 OpenBabel11052420273D

 34 40  0  0  1  0  0  0  0  0999 V2000
  194.1430  175.9490  142.6110 C   0  0  1  0  0  3  0  0  0  0  0  0
  196.9510  174.2270  140.6730 C   0  0  0  0  0  3  0  0  0  0  0  0
  188.9010  177.0450  143.3400 C   0  0  0  0  0  2  0  0  0  0  0  0
  196.9740  175.0510  143.0240 C   0  0  0  0  0  2  0  0  0  0  0  0
  189.9250  174.7360  144.7320 C   0  0  0  0  0  2  0  0  0  0  0  0
  191.7620  175.5950  142.9320 C   0  0  2  0  0  0  0  0  0  0  0  0
  193.0080  175.0050  143.0460 C   0  0  2  0  0  3  0  0  0  0  0  0
  193.0290  176.4160  145.2940 C   0  0  0  0  0  2  0  0  0  0  0  0
  194.9360  177.7160  146.0750 C   0  0  0  0  0  1  0  0  0  0  0  0
  188.2480  176.6510  144.6750 C   0  0  1  0  0  3  0  0  0  0  0  0
  192.5010  175.6160  144.2600 N   0  0  1  0  0  0  0  0  0  0  0  0
  191.0340  174.3970  142.6420 O   0  0  0  0  0  0  0  0  0  0  0  0
  196.0190  175.2970  144.1860 C   0  0  0  0  0  2  0  0  0  0  0  0
  195.0390  176.4060  143.8190 C   0  0  2  0  0  3  0  0  0  0  0  0
  194.2680  176.8550  145.0630 C   0  0  1  0  0  3  0  0  0  0  0  0
  196.3610  174.0790  139.4090 C   0  0  0  0  0  0  0  0  0  0  0  0
  195.0650  174.5610  139.2020 C   0  0  0  0  0  3  0  0  0  0  0  0
  189.2230  175.8260  145.5410 C   0  0  1  0  0  3  0  0  0  0  0  0
  190.3410  175.3160  143.3780 C   0  0  1  0  0  0  0  0  0  0  0  0
  189.3220  175.9110  142.6200 O   0  0  0  0  0  0  0  0  0  0  0  0
  196.2550  174.8330  141.7230 C   0  0  0  0  0  0  0  0  0  0  0  0
  194.3640  175.1800  140.2400 C   0  0  0  0  0  3  0  0  0  0  0  0
  194.9500  175.3260  141.5030 C   0  0  0  0  0  0  0  0  0  0  0  0
  189.4470  174.5410  147.5640 O   0  0  0  0  0  1  0  0  0  0  0  0
  188.5310  175.2200  146.7570 C   0  0  0  0  0  2  0  0  0  0  0  0
  187.7240  177.8900  145.4090 C   0  0  0  0  0  2  0  0  0  0  0  0
  186.2480  178.1850  145.1420 C   0  0  0  0  0  2  0  0  0  0  0  0
  185.3540  177.4550  146.1260 C   0  0  0  0  0  3  0  0  0  0  0  0
  184.0990  178.2750  146.3560 C   0  0  0  0  0  2  0  0  0  0  0  0
  185.2120  178.2950  147.3790 C   0  0  0  0  0  2  0  0  0  0  0  0
  197.0220  173.4670  138.3330 O   0  0  0  0  0  0  0  0  0  0  0  0
  197.3920  173.3610  135.8730 C   0  0  0  0  0  1  0  0  0  0  0  0
  197.9070  175.2780  137.1680 O   0  0  0  0  0  0  0  0  0  0  0  0
  197.4590  174.1010  137.1600 C   0  0  0  0  0  0  0  0  0  0  0  0
  1 23  1  6  0  0  0
  1  7  1  0  0  0  0
  1 14  1  0  0  0  0
  2 21  1  0  0  0  0
  3 10  1  0  0  0  0
  4 13  1  0  0  0  0
  5 18  1  0  0  0  0
  6 12  1  1  0  0  0
  6  7  1  0  0  0  0
  6 19  1  0  0  0  0
  6 11  1  0  0  0  0
  7 11  1  0  0  0  0
 10 26  1  0  0  0  0
 10 18  1  0  0  0  0
 11  8  1  0  0  0  0
 12 19  1  0  0  0  0
 14 13  1  0  0  0  0
 14 15  1  0  0  0  0
 15  8  1  0  0  0  0
 15  9  1  0  0  0  0
 16  2  2  0  0  0  0
 17 16  1  0  0  0  0
 17 22  2  0  0  0  0
 18 25  1  0  0  0  0
 19  5  1  0  0  0  0
 20  3  1  0  0  0  0
 20 19  1  0  0  0  0
 21  4  1  0  0  0  0
 22 23  1  0  0  0  0
 23 21  2  0  0  0  0
 25 24  1  0  0  0  0
 27 26  1  0  0  0  0
 27 28  1  0  0  0  0
 28 29  1  0  0  0  0
 28 30  1  0  0  0  0
 29 30  1  0  0  0  0
 31 16  1  0  0  0  0
 32 34  1  0  0  0  0
 34 33  2  0  0  0  0
 34 31  1  0  0  0  0
M  END
>  <MODEL>
7

>  <REMARK>
 VINA RESULT:      -6.7      3.339      9.250
  Name = 
  6 active torsions:
  status: ('A' for Active; 'I' for Inactive)
    1  A    between atoms: C_7  and  C_11
    2  A    between atoms: C_7  and  C_14
    3  A    between atoms: C_14  and  C_16
    4  A    between atoms: O_23  and  C_24
    5  A    between atoms: O_23  and  C_25
    6  A    between atoms: C_28  and  C_29
                            x       y       z     vdW  Elec       q    Type
                         _______ _______ _______ _____ _____    ______ ____

>  <TORSDO>
F 6

$$$$
=
 OpenBabel11052420273D

 34 40  0  0  1  0  0  0  0  0999 V2000
  190.7030  173.9940  143.4080 C   0  0  1  0  0  3  0  0  0  0  0  0
  194.2220  172.5360  143.0990 C   0  0  0  0  0  3  0  0  0  0  0  0
  187.3900  178.1170  144.5170 C   0  0  0  0  0  2  0  0  0  0  0  0
  192.1170  171.7340  142.0350 C   0  0  0  0  0  2  0  0  0  0  0  0
  188.2180  177.8530  141.7670 C   0  0  0  0  0  2  0  0  0  0  0  0
  189.7100  176.2090  143.3230 C   0  0  2  0  0  0  0  0  0  0  0  0
  190.4950  175.3050  142.6300 C   0  0  2  0  0  3  0  0  0  0  0  0
  188.1120  174.2920  142.0480 C   0  0  0  0  0  2  0  0  0  0  0  0
  187.5860  171.9130  142.1040 C   0  0  0  0  0  1  0  0  0  0  0  0
  186.4310  178.6040  143.4180 C   0  0  1  0  0  3  0  0  0  0  0  0
  189.0840  175.2830  142.2930 N   0  0  1  0  0  0  0  0  0  0  0  0
  190.3220  177.3950  142.8050 O   0  0  0  0  0  0  0  0  0  0  0  0
  190.7730  172.2700  141.5530 C   0  0  0  0  0  2  0  0  0  0  0  0
  189.9660  172.7770  142.7420 C   0  0  2  0  0  3  0  0  0  0  0  0
  188.5210  173.0500  142.3150 C   0  0  1  0  0  3  0  0  0  0  0  0
  194.9410  173.3670  143.9710 C   0  0  0  0  0  0  0  0  0  0  0  0
  194.2640  174.3760  144.6630 C   0  0  0  0  0  3  0  0  0  0  0  0
  186.7220  177.8920  142.0800 C   0  0  1  0  0  3  0  0  0  0  0  0
  188.9810  177.5090  143.0480 C   0  0  1  0  0  0  0  0  0  0  0  0
  188.7330  178.3300  144.1570 O   0  0  0  0  0  0  0  0  0  0  0  0
  192.8490  172.7170  142.9050 C   0  0  0  0  0  0  0  0  0  0  0  0
  192.8910  174.5580  144.4860 C   0  0  0  0  0  3  0  0  0  0  0  0
  192.1720  173.7320  143.6140 C   0  0  0  0  0  0  0  0  0  0  0  0
  185.7320  177.5870  139.9080 O   0  0  0  0  0  1  0  0  0  0  0  0
  185.9560  178.5220  140.9210 C   0  0  0  0  0  2  0  0  0  0  0  0
  184.9720  178.4390  143.8580 C   0  0  0  0  0  2  0  0  0  0  0  0
  184.6020  179.2670  145.0890 C   0  0  0  0  0  2  0  0  0  0  0  0
  183.9500  178.4080  146.1540 C   0  0  0  0  0  3  0  0  0  0  0  0
  184.8140  178.4250  147.4000 C   0  0  0  0  0  2  0  0  0  0  0  0
  184.8580  177.2370  146.4660 C   0  0  0  0  0  2  0  0  0  0  0  0
  196.3210  173.2240  144.1860 O   0  0  0  0  0  0  0  0  0  0  0  0
  197.2040  171.3340  145.5450 C   0  0  0  0  0  1  0  0  0  0  0  0
  197.2620  173.5860  146.2830 O   0  0  0  0  0  0  0  0  0  0  0  0
  196.9350  172.7850  145.3680 C   0  0  0  0  0  0  0  0  0  0  0  0
  1 23  1  6  0  0  0
  2 16  1  0  0  0  0
  4 21  1  0  0  0  0
  5 18  1  0  0  0  0
  5 19  1  0  0  0  0
  6 12  1  6  0  0  0
  7  6  1  0  0  0  0
  7  1  1  0  0  0  0
  8 11  1  0  0  0  0
  8 15  1  0  0  0  0
  9 15  1  0  0  0  0
 10 26  1  0  0  0  0
 10  3  1  0  0  0  0
 11  7  1  0  0  0  0
 11  6  1  0  0  0  0
 12 19  1  0  0  0  0
 13  4  1  0  0  0  0
 13 14  1  0  0  0  0
 14  1  1  0  0  0  0
 15 14  1  0  0  0  0
 16 31  1  0  0  0  0
 16 17  2  0  0  0  0
 18 10  1  0  0  0  0
 19  6  1  0  0  0  0
 19 20  1  0  0  0  0
 20  3  1  0  0  0  0
 21  2  2  0  0  0  0
 21 23  1  0  0  0  0
 22 17  1  0  0  0  0
 23 22  2  0  0  0  0
 24 25  1  0  0  0  0
 25 18  1  0  0  0  0
 26 27  1  0  0  0  0
 27 28  1  0  0  0  0
 28 30  1  0  0  0  0
 28 29  1  0  0  0  0
 30 29  1  0  0  0  0
 31 34  1  0  0  0  0
 34 32  1  0  0  0  0
 34 33  2  0  0  0  0
M  END
>  <MODEL>
8

>  <REMARK>
 VINA RESULT:      -6.5      2.559      9.358
  Name = 
  6 active torsions:
  status: ('A' for Active; 'I' for Inactive)
    1  A    between atoms: C_7  and  C_11
    2  A    between atoms: C_7  and  C_14
    3  A    between atoms: C_14  and  C_16
    4  A    between atoms: O_23  and  C_24
    5  A    between atoms: O_23  and  C_25
    6  A    between atoms: C_28  and  C_29
                            x       y       z     vdW  Elec       q    Type
                         _______ _______ _______ _____ _____    ______ ____

>  <TORSDO>
F 6

$$$$
=
 OpenBabel11052420273D

 34 40  0  0  1  0  0  0  0  0999 V2000
  194.3880  175.0490  143.2620 C   0  0  1  0  0  3  0  0  0  0  0  0
  197.3390  172.8500  142.2340 C   0  0  0  0  0  3  0  0  0  0  0  0
  189.1250  176.2650  143.0770 C   0  0  0  0  0  2  0  0  0  0  0  0
  197.1410  174.3440  144.2170 C   0  0  0  0  0  2  0  0  0  0  0  0
  189.9490  174.4930  145.1970 C   0  0  0  0  0  2  0  0  0  0  0  0
  191.9790  174.7860  143.4240 C   0  0  2  0  0  0  0  0  0  0  0  0
  193.1940  174.2700  143.8390 C   0  0  2  0  0  3  0  0  0  0  0  0
  193.0170  176.2920  145.5480 C   0  0  0  0  0  2  0  0  0  0  0  0
  194.8630  177.7850  146.0970 C   0  0  0  0  0  1  0  0  0  0  0  0
  188.3300  176.2860  144.3930 C   0  0  1  0  0  3  0  0  0  0  0  0
  192.5790  175.2130  144.7540 N   0  0  1  0  0  0  0  0  0  0  0  0
  191.2580  173.5500  143.4330 O   0  0  0  0  0  0  0  0  0  0  0  0
  196.0780  174.9200  145.1450 C   0  0  0  0  0  2  0  0  0  0  0  0
  195.1660  175.8580  144.3620 C   0  0  2  0  0  3  0  0  0  0  0  0
  194.2820  176.6530  145.3260 C   0  0  1  0  0  3  0  0  0  0  0  0
  196.8780  172.3220  141.0180 C   0  0  0  0  0  0  0  0  0  0  0  0
  195.6210  172.7080  140.5420 C   0  0  0  0  0  3  0  0  0  0  0  0
  189.1930  175.7700  145.5640 C   0  0  1  0  0  3  0  0  0  0  0  0
  190.5140  174.6420  143.7830 C   0  0  1  0  0  0  0  0  0  0  0  0
  189.5920  174.9720  142.7790 O   0  0  0  0  0  0  0  0  0  0  0  0
  196.5530  173.7380  142.9740 C   0  0  0  0  0  0  0  0  0  0  0  0
  194.8320  173.6040  141.2670 C   0  0  0  0  0  3  0  0  0  0  0  0
  195.2890  174.1290  142.4820 C   0  0  0  0  0  0  0  0  0  0  0  0
  188.9520  174.5790  147.6410 O   0  0  0  0  0  1  0  0  0  0  0  0
  188.3660  175.5510  146.8260 C   0  0  0  0  0  2  0  0  0  0  0  0
  187.7620  177.6840  144.6620 C   0  0  0  0  0  2  0  0  0  0  0  0
  186.2370  177.7170  144.7750 C   0  0  0  0  0  2  0  0  0  0  0  0
  185.7570  179.0400  145.3390 C   0  0  0  0  0  3  0  0  0  0  0  0
  184.2410  179.0390  145.3760 C   0  0  0  0  0  2  0  0  0  0  0  0
  184.9690  179.7730  144.2730 C   0  0  0  0  0  2  0  0  0  0  0  0
  197.6320  171.4210  140.2500 O   0  0  0  0  0  0  0  0  0  0  0  0
  197.2450  170.5780  137.9410 C   0  0  0  0  0  1  0  0  0  0  0  0
  196.5670  169.3860  139.8750 O   0  0  0  0  0  0  0  0  0  0  0  0
  197.1240  170.4180  139.4130 C   0  0  0  0  0  0  0  0  0  0  0  0
  1 23  1  1  0  0  0
  1  7  1  0  0  0  0
  1 14  1  0  0  0  0
  2 21  1  0  0  0  0
  3 10  1  0  0  0  0
  4 13  1  0  0  0  0
  5 18  1  0  0  0  0
  6 12  1  1  0  0  0
  6 19  1  0  0  0  0
  6  7  1  0  0  0  0
  6 11  1  0  0  0  0
  7 11  1  0  0  0  0
 10 26  1  0  0  0  0
 10 18  1  0  0  0  0
 11  8  1  0  0  0  0
 12 19  1  0  0  0  0
 14 13  1  0  0  0  0
 14 15  1  0  0  0  0
 15  8  1  0  0  0  0
 15  9  1  0  0  0  0
 16  2  2  0  0  0  0
 17 16  1  0  0  0  0
 17 22  2  0  0  0  0
 18 25  1  0  0  0  0
 19  5  1  0  0  0  0
 20  3  1  0  0  0  0
 20 19  1  0  0  0  0
 21  4  1  0  0  0  0
 22 23  1  0  0  0  0
 23 21  2  0  0  0  0
 25 24  1  0  0  0  0
 26 27  1  0  0  0  0
 27 28  1  0  0  0  0
 28 29  1  0  0  0  0
 30 28  1  0  0  0  0
 30 29  1  0  0  0  0
 31 16  1  0  0  0  0
 32 34  1  0  0  0  0
 34 33  2  0  0  0  0
 34 31  1  0  0  0  0
M  END
>  <MODEL>
9

>  <REMARK>
 VINA RESULT:      -6.4      3.229      9.614
  Name = 
  6 active torsions:
  status: ('A' for Active; 'I' for Inactive)
    1  A    between atoms: C_7  and  C_11
    2  A    between atoms: C_7  and  C_14
    3  A    between atoms: C_14  and  C_16
    4  A    between atoms: O_23  and  C_24
    5  A    between atoms: O_23  and  C_25
    6  A    between atoms: C_28  and  C_29
                            x       y       z     vdW  Elec       q    Type
                         _______ _______ _______ _____ _____    ______ ____

>  <TORSDO>
F 6

$$$$
