=
 OpenBabel11052418173D

 28 29  0  0  1  0  0  0  0  0999 V2000
  186.5890  178.6330  147.9370 C   0  0  0  0  0  1  0  0  0  0  0  0
  188.9010  176.9830  145.7160 N   0  0  1  0  0  0  0  0  0  0  0  0
  187.8790  175.3100  147.3230 F   0  0  0  0  0  0  0  0  0  0  0  0
  186.9820  178.6250  145.6590 O   0  0  0  0  0  0  0  0  0  0  0  0
  188.4710  177.1460  144.4040 O   0  0  0  0  0  0  0  0  0  0  0  0
  186.7040  177.6930  146.6400 C   0  0  1  0  0  0  0  0  0  0  0  0
  187.9360  176.6620  146.8020 C   0  0  2  0  0  3  0  0  0  0  0  0
  187.1690  177.8350  144.4900 C   0  0  2  0  0  3  0  0  0  0  0  0
  190.7900  175.7630  147.0370 C   0  0  0  0  0  3  0  0  0  0  0  0
  191.4040  177.0880  144.8930 C   0  0  0  0  0  0  0  0  0  0  0  0
  193.1310  176.0040  146.2760 C   0  0  0  0  0  0  0  0  0  0  0  0
  190.3190  176.4580  145.7560 C   0  0  2  0  0  3  0  0  0  0  0  0
  192.6850  176.8100  145.1240 C   0  0  0  0  0  3  0  0  0  0  0  0
  191.1410  177.7810  143.7600 F   0  0  0  0  0  0  0  0  0  0  0  0
  194.3500  175.8490  146.3850 O   0  0  0  0  0  0  0  0  0  0  0  0
  192.1170  175.5140  147.2400 C   0  0  0  0  0  3  0  0  0  0  0  0
  186.7280  178.4320  143.2530 C   0  0  2  0  0  3  0  0  0  0  0  0
  185.8540  179.4540  143.6250 O   0  0  0  0  0  1  0  0  0  0  0  0
  185.6030  176.3000  142.9870 O   0  0  0  0  0  1  0  0  0  0  0  0
  186.0130  177.4890  142.3370 C   0  0  2  0  0  3  0  0  0  0  0  0
  186.8720  177.2540  141.1020 C   0  0  0  0  0  0  0  0  0  0  0  0
  186.4430  177.5780  140.0030 O   0  0  0  0  0  0  0  0  0  0  0  0
  188.1070  176.5340  141.1810 O   0  0  0  0  0  0  0  0  0  0  0  0
  188.2830  175.1700  141.0550 C   0  0  0  0  0  0  0  0  0  0  0  0
  188.3410  174.6830  139.9200 O   0  0  0  0  0  0  0  0  0  0  0  0
  188.2780  174.1990  142.2580 C   0  0  0  0  0  1  0  0  0  0  0  0
  184.3510  177.8920  146.5280 O   0  0  0  0  0  1  0  0  0  0  0  0
  185.4050  176.9550  146.3810 C   0  0  0  0  0  2  0  0  0  0  0  0
  2  5  1  6  0  0  0
  2 12  1  0  0  0  0
  2  7  1  0  0  0  0
  4  6  1  0  0  0  0
  5  8  1  0  0  0  0
  6  7  1  0  0  0  0
  6  1  1  1  0  0  0
  7  3  1  6  0  0  0
  8 17  1  6  0  0  0
  8  4  1  0  0  0  0
  9 16  2  0  0  0  0
 10 13  2  0  0  0  0
 10 12  1  0  0  0  0
 11 15  2  0  0  0  0
 11 16  1  0  0  0  0
 12  9  1  1  0  0  0
 13 11  1  0  0  0  0
 14 10  1  0  0  0  0
 17 18  1  1  0  0  0
 20 19  1  1  0  0  0
 20 17  1  0  0  0  0
 21 23  1  0  0  0  0
 21 20  1  0  0  0  0
 22 21  2  0  0  0  0
 24 23  1  0  0  0  0
 24 26  1  0  0  0  0
 25 24  2  0  0  0  0
 28 27  1  0  0  0  0
 28  6  1  0  0  0  0
M  END
>  <MODEL>
1

>  <REMARK>
 VINA RESULT:      -7.0      0.000      0.000
  Name = 
  7 active torsions:
  status: ('A' for Active; 'I' for Inactive)
    1  A    between atoms: C_1  and  C_11
    2  A    between atoms: C_1  and  C_27
    3  A    between atoms: C_3  and  C_11
    4  A    between atoms: C_3  and  O_28
    5  A    between atoms: C_6  and  O_28
    6  A    between atoms: N_10  and  C_13
    7  A    between atoms: C_20  and  C_21
                            x       y       z     vdW  Elec       q    Type
                         _______ _______ _______ _____ _____    ______ ____

>  <TORSDO>
F 7

$$$$
=
 OpenBabel11052418173D

 28 29  0  0  1  0  0  0  0  0999 V2000
  191.2850  175.2810  147.9930 C   0  0  0  0  0  1  0  0  0  0  0  0
  188.6220  176.4030  145.8360 N   0  0  1  0  0  0  0  0  0  0  0  0
  190.3230  178.2520  146.1680 F   0  0  0  0  0  0  0  0  0  0  0  0
  190.1810  174.4390  146.1450 O   0  0  0  0  0  0  0  0  0  0  0  0
  188.5780  175.5960  144.7040 O   0  0  0  0  0  0  0  0  0  0  0  0
  190.8840  175.5840  146.4670 C   0  0  1  0  0  0  0  0  0  0  0  0
  189.9200  176.8760  146.3860 C   0  0  2  0  0  3  0  0  0  0  0  0
  189.7330  174.6850  144.8160 C   0  0  2  0  0  3  0  0  0  0  0  0
  186.2770  176.8060  146.9030 C   0  0  0  0  0  3  0  0  0  0  0  0
  186.9320  178.1210  144.7660 C   0  0  0  0  0  0  0  0  0  0  0  0
  184.6970  178.3410  145.7780 C   0  0  0  0  0  0  0  0  0  0  0  0
  187.3760  177.2560  145.9360 C   0  0  2  0  0  3  0  0  0  0  0  0
  185.7120  178.6530  144.7540 C   0  0  0  0  0  3  0  0  0  0  0  0
  187.7770  178.5530  143.8000 F   0  0  0  0  0  0  0  0  0  0  0  0
  183.5990  178.8820  145.6290 O   0  0  0  0  0  0  0  0  0  0  0  0
  185.0330  177.3660  146.8440 C   0  0  0  0  0  3  0  0  0  0  0  0
  189.6660  173.5300  143.9530 C   0  0  2  0  0  3  0  0  0  0  0  0
  190.5650  172.6100  144.4950 O   0  0  0  0  0  1  0  0  0  0  0  0
  190.8790  174.9390  142.3960 O   0  0  0  0  0  1  0  0  0  0  0  0
  190.0450  173.8030  142.5310 C   0  0  2  0  0  3  0  0  0  0  0  0
  188.7810  173.8580  141.6850 C   0  0  0  0  0  0  0  0  0  0  0  0
  188.1530  172.8290  141.4780 O   0  0  0  0  0  0  0  0  0  0  0  0
  188.3900  175.0590  141.0090 O   0  0  0  0  0  0  0  0  0  0  0  0
  187.4680  175.9920  141.4390 C   0  0  0  0  0  0  0  0  0  0  0  0
  186.6960  175.6840  142.3540 O   0  0  0  0  0  0  0  0  0  0  0  0
  187.2580  177.3590  140.7470 C   0  0  0  0  0  1  0  0  0  0  0  0
  193.0870  176.4360  146.3880 O   0  0  0  0  0  1  0  0  0  0  0  0
  192.1150  175.7660  145.6020 C   0  0  0  0  0  2  0  0  0  0  0  0
  2  5  1  6  0  0  0
  2 12  1  0  0  0  0
  2  7  1  0  0  0  0
  4  6  1  0  0  0  0
  5  8  1  0  0  0  0
  6  1  1  1  0  0  0
  7  3  1  6  0  0  0
  7  6  1  0  0  0  0
  8 17  1  1  0  0  0
  8  4  1  0  0  0  0
 10 12  1  0  0  0  0
 11 16  1  0  0  0  0
 12  9  1  6  0  0  0
 13 10  2  0  0  0  0
 13 11  1  0  0  0  0
 14 10  1  0  0  0  0
 15 11  2  0  0  0  0
 16  9  2  0  0  0  0
 17 18  1  1  0  0  0
 20 19  1  1  0  0  0
 20 17  1  0  0  0  0
 21 20  1  0  0  0  0
 22 21  2  0  0  0  0
 23 24  1  0  0  0  0
 23 21  1  0  0  0  0
 24 25  2  0  0  0  0
 26 24  1  0  0  0  0
 28 27  1  0  0  0  0
 28  6  1  0  0  0  0
M  END
>  <MODEL>
2

>  <REMARK>
 VINA RESULT:      -6.8      2.008      5.519
  Name = 
  7 active torsions:
  status: ('A' for Active; 'I' for Inactive)
    1  A    between atoms: C_1  and  C_11
    2  A    between atoms: C_1  and  C_27
    3  A    between atoms: C_3  and  C_11
    4  A    between atoms: C_3  and  O_28
    5  A    between atoms: C_6  and  O_28
    6  A    between atoms: N_10  and  C_13
    7  A    between atoms: C_20  and  C_21
                            x       y       z     vdW  Elec       q    Type
                         _______ _______ _______ _____ _____    ______ ____

>  <TORSDO>
F 7

$$$$
=
 OpenBabel11052418173D

 28 29  0  0  1  0  0  0  0  0999 V2000
  192.0600  175.6270  146.8370 C   0  0  0  0  0  1  0  0  0  0  0  0
  188.8990  176.3340  145.2530 N   0  0  1  0  0  0  0  0  0  0  0  0
  190.4950  178.2770  144.9360 F   0  0  0  0  0  0  0  0  0  0  0  0
  190.6230  174.4950  145.4250 O   0  0  0  0  0  0  0  0  0  0  0  0
  188.6530  175.3770  144.2740 O   0  0  0  0  0  0  0  0  0  0  0  0
  191.2980  175.7000  145.4250 C   0  0  1  0  0  0  0  0  0  0  0  0
  190.2520  176.9300  145.4150 C   0  0  2  0  0  3  0  0  0  0  0  0
  189.8650  174.5360  144.2210 C   0  0  2  0  0  3  0  0  0  0  0  0
  186.7360  176.6680  146.6720 C   0  0  0  0  0  3  0  0  0  0  0  0
  186.9970  177.9720  144.4450 C   0  0  0  0  0  0  0  0  0  0  0  0
  184.9420  178.1260  145.7930 C   0  0  0  0  0  0  0  0  0  0  0  0
  187.6530  177.1420  145.5390 C   0  0  2  0  0  3  0  0  0  0  0  0
  185.7710  178.4580  144.6190 C   0  0  0  0  0  3  0  0  0  0  0  0
  187.6640  178.4180  143.3530 F   0  0  0  0  0  0  0  0  0  0  0  0
  183.8140  178.6240  145.8130 O   0  0  0  0  0  0  0  0  0  0  0  0
  185.4780  177.1810  146.8030 C   0  0  0  0  0  3  0  0  0  0  0  0
  189.6830  173.2710  143.5510 C   0  0  2  0  0  3  0  0  0  0  0  0
  190.6010  172.4030  144.1420 O   0  0  0  0  0  1  0  0  0  0  0  0
  190.4920  174.5470  141.6540 O   0  0  0  0  0  1  0  0  0  0  0  0
  189.9350  173.3160  142.0760 C   0  0  2  0  0  3  0  0  0  0  0  0
  188.6560  172.9320  141.3450 C   0  0  0  0  0  0  0  0  0  0  0  0
  187.6220  172.7880  141.9830 O   0  0  0  0  0  0  0  0  0  0  0  0
  188.6670  172.5970  139.9530 O   0  0  0  0  0  0  0  0  0  0  0  0
  188.5710  173.4690  138.8870 C   0  0  0  0  0  0  0  0  0  0  0  0
  188.1270  174.6040  139.0890 O   0  0  0  0  0  0  0  0  0  0  0  0
  188.8660  173.0580  137.4260 C   0  0  0  0  0  1  0  0  0  0  0  0
  193.2610  176.7620  144.6500 O   0  0  0  0  0  1  0  0  0  0  0  0
  192.2800  175.8090  144.2770 C   0  0  0  0  0  2  0  0  0  0  0  0
  2  5  1  6  0  0  0
  2  7  1  0  0  0  0
  2 12  1  0  0  0  0
  6  4  1  0  0  0  0
  6  1  1  1  0  0  0
  7  3  1  6  0  0  0
  7  6  1  0  0  0  0
  8 17  1  1  0  0  0
  8  5  1  0  0  0  0
  8  4  1  0  0  0  0
  9 16  2  0  0  0  0
 10 13  2  0  0  0  0
 10 12  1  0  0  0  0
 11 15  2  0  0  0  0
 11 16  1  0  0  0  0
 12  9  1  6  0  0  0
 13 11  1  0  0  0  0
 14 10  1  0  0  0  0
 17 18  1  1  0  0  0
 20 19  1  6  0  0  0
 20 17  1  0  0  0  0
 21 22  2  0  0  0  0
 21 20  1  0  0  0  0
 23 21  1  0  0  0  0
 24 25  2  0  0  0  0
 24 23  1  0  0  0  0
 26 24  1  0  0  0  0
 28 27  1  0  0  0  0
 28  6  1  0  0  0  0
M  END
>  <MODEL>
3

>  <REMARK>
 VINA RESULT:      -6.7      2.236      5.677
  Name = 
  7 active torsions:
  status: ('A' for Active; 'I' for Inactive)
    1  A    between atoms: C_1  and  C_11
    2  A    between atoms: C_1  and  C_27
    3  A    between atoms: C_3  and  C_11
    4  A    between atoms: C_3  and  O_28
    5  A    between atoms: C_6  and  O_28
    6  A    between atoms: N_10  and  C_13
    7  A    between atoms: C_20  and  C_21
                            x       y       z     vdW  Elec       q    Type
                         _______ _______ _______ _____ _____    ______ ____

>  <TORSDO>
F 7

$$$$
=
 OpenBabel11052418173D

 28 29  0  0  1  0  0  0  0  0999 V2000
  191.1240  175.5960  148.0710 C   0  0  0  0  0  1  0  0  0  0  0  0
  192.0640  176.2800  144.6580 N   0  0  1  0  0  0  0  0  0  0  0  0
  192.3880  173.8220  145.1840 F   0  0  0  0  0  0  0  0  0  0  0  0
  190.1930  176.7400  146.2920 O   0  0  0  0  0  0  0  0  0  0  0  0
  190.9630  176.7780  143.9700 O   0  0  0  0  0  0  0  0  0  0  0  0
  190.6580  175.4630  146.5400 C   0  0  1  0  0  0  0  0  0  0  0  0
  191.9250  175.1330  145.5950 C   0  0  2  0  0  3  0  0  0  0  0  0
  189.8320  176.7020  144.9150 C   0  0  2  0  0  3  0  0  0  0  0  0
  193.2970  176.1570  142.3620 C   0  0  0  0  0  3  0  0  0  0  0  0
  194.6950  176.4040  144.5320 C   0  0  0  0  0  0  0  0  0  0  0  0
  195.7690  176.1580  142.3300 C   0  0  0  0  0  0  0  0  0  0  0  0
  193.3330  176.4830  143.8590 C   0  0  2  0  0  3  0  0  0  0  0  0
  195.8000  176.3140  143.7960 C   0  0  0  0  0  3  0  0  0  0  0  0
  194.8800  176.6130  145.8580 F   0  0  0  0  0  0  0  0  0  0  0  0
  196.8670  176.0570  141.7760 O   0  0  0  0  0  0  0  0  0  0  0  0
  194.4560  176.0570  141.6490 C   0  0  0  0  0  3  0  0  0  0  0  0
  188.6910  177.5050  144.5440 C   0  0  2  0  0  3  0  0  0  0  0  0
  188.0090  177.7520  145.7350 O   0  0  0  0  0  1  0  0  0  0  0  0
  188.1690  175.5260  143.2420 O   0  0  0  0  0  1  0  0  0  0  0  0
  187.7610  176.8390  143.5790 C   0  0  2  0  0  3  0  0  0  0  0  0
  187.5610  177.7520  142.3770 C   0  0  0  0  0  0  0  0  0  0  0  0
  188.3280  177.6690  141.4270 O   0  0  0  0  0  0  0  0  0  0  0  0
  186.5880  178.8020  142.3940 O   0  0  0  0  0  0  0  0  0  0  0  0
  185.4550  178.8720  143.1800 C   0  0  0  0  0  0  0  0  0  0  0  0
  184.4700  178.1960  142.8610 O   0  0  0  0  0  0  0  0  0  0  0  0
  185.3030  179.8540  144.3650 C   0  0  0  0  0  1  0  0  0  0  0  0
  188.8870  174.3340  147.6230 O   0  0  0  0  0  1  0  0  0  0  0  0
  189.5740  174.4150  146.3860 C   0  0  0  0  0  2  0  0  0  0  0  0
  2  5  1  6  0  0  0
  2  7  1  0  0  0  0
  4  6  1  0  0  0  0
  5  8  1  0  0  0  0
  6  1  1  1  0  0  0
  7  3  1  6  0  0  0
  7  6  1  0  0  0  0
  8 17  1  6  0  0  0
  8  4  1  0  0  0  0
 10 14  1  0  0  0  0
 11 13  1  0  0  0  0
 12  9  1  6  0  0  0
 12 10  1  0  0  0  0
 12  2  1  0  0  0  0
 13 10  2  0  0  0  0
 15 11  2  0  0  0  0
 16 11  1  0  0  0  0
 16  9  2  0  0  0  0
 17 18  1  1  0  0  0
 20 19  1  6  0  0  0
 20 17  1  0  0  0  0
 21 23  1  0  0  0  0
 21 20  1  0  0  0  0
 22 21  2  0  0  0  0
 23 24  1  0  0  0  0
 24 26  1  0  0  0  0
 25 24  2  0  0  0  0
 28  6  1  0  0  0  0
 28 27  1  0  0  0  0
M  END
>  <MODEL>
4

>  <REMARK>
 VINA RESULT:      -6.6      2.717      4.320
  Name = 
  7 active torsions:
  status: ('A' for Active; 'I' for Inactive)
    1  A    between atoms: C_1  and  C_11
    2  A    between atoms: C_1  and  C_27
    3  A    between atoms: C_3  and  C_11
    4  A    between atoms: C_3  and  O_28
    5  A    between atoms: C_6  and  O_28
    6  A    between atoms: N_10  and  C_13
    7  A    between atoms: C_20  and  C_21
                            x       y       z     vdW  Elec       q    Type
                         _______ _______ _______ _____ _____    ______ ____

>  <TORSDO>
F 7

$$$$
=
 OpenBabel11052418173D

 28 29  0  0  1  0  0  0  0  0999 V2000
  191.7880  176.3660  147.3420 C   0  0  0  0  0  1  0  0  0  0  0  0
  188.8450  176.2570  145.2610 N   0  0  1  0  0  0  0  0  0  0  0  0
  190.0650  178.4560  144.9450 F   0  0  0  0  0  0  0  0  0  0  0  0
  190.8420  174.8400  145.8860 O   0  0  0  0  0  0  0  0  0  0  0  0
  188.9490  175.1890  144.3760 O   0  0  0  0  0  0  0  0  0  0  0  0
  191.2620  176.1550  145.8390 C   0  0  1  0  0  0  0  0  0  0  0  0
  190.0140  177.1340  145.5400 C   0  0  2  0  0  3  0  0  0  0  0  0
  190.2930  174.6190  144.5920 C   0  0  2  0  0  3  0  0  0  0  0  0
  187.0470  177.8040  144.1770 C   0  0  0  0  0  3  0  0  0  0  0  0
  186.6500  176.8970  146.5740 C   0  0  0  0  0  0  0  0  0  0  0  0
  185.0710  178.4600  145.5120 C   0  0  0  0  0  0  0  0  0  0  0  0
  187.4370  176.8080  145.2750 C   0  0  2  0  0  3  0  0  0  0  0  0
  185.5330  177.6190  146.6310 C   0  0  0  0  0  3  0  0  0  0  0  0
  186.9110  176.1200  147.6530 F   0  0  0  0  0  0  0  0  0  0  0  0
  184.0350  179.1000  145.7110 O   0  0  0  0  0  0  0  0  0  0  0  0
  185.9020  178.5380  144.2860 C   0  0  0  0  0  3  0  0  0  0  0  0
  190.4690  173.2900  144.0550 C   0  0  2  0  0  3  0  0  0  0  0  0
  191.6060  172.7840  144.6850 O   0  0  0  0  0  1  0  0  0  0  0  0
  191.1990  174.4600  142.0600 O   0  0  0  0  0  1  0  0  0  0  0  0
  190.6740  173.2500  142.5730 C   0  0  2  0  0  3  0  0  0  0  0  0
  189.3780  172.8060  141.9080 C   0  0  0  0  0  0  0  0  0  0  0  0
  188.5190  172.2520  142.5800 O   0  0  0  0  0  0  0  0  0  0  0  0
  189.2030  172.8920  140.4890 O   0  0  0  0  0  0  0  0  0  0  0  0
  188.6320  173.9330  139.7840 C   0  0  0  0  0  0  0  0  0  0  0  0
  188.2650  174.9370  140.4040 O   0  0  0  0  0  0  0  0  0  0  0  0
  188.3040  173.8570  138.2750 C   0  0  0  0  0  1  0  0  0  0  0  0
  193.5400  175.7510  145.3560 O   0  0  0  0  0  1  0  0  0  0  0  0
  192.3760  176.3680  144.8340 C   0  0  0  0  0  2  0  0  0  0  0  0
  2  5  1  6  0  0  0
  2 12  1  0  0  0  0
  2  7  1  0  0  0  0
  5  8  1  0  0  0  0
  6  4  1  0  0  0  0
  6  1  1  1  0  0  0
  7  3  1  6  0  0  0
  7  6  1  0  0  0  0
  8 17  1  1  0  0  0
  8  4  1  0  0  0  0
  9 16  2  0  0  0  0
 10 13  2  0  0  0  0
 10 14  1  0  0  0  0
 11 15  2  0  0  0  0
 11 13  1  0  0  0  0
 12  9  1  1  0  0  0
 12 10  1  0  0  0  0
 16 11  1  0  0  0  0
 17 18  1  1  0  0  0
 20 19  1  6  0  0  0
 20 17  1  0  0  0  0
 21 20  1  0  0  0  0
 21 22  2  0  0  0  0
 23 21  1  0  0  0  0
 24 25  2  0  0  0  0
 24 23  1  0  0  0  0
 26 24  1  0  0  0  0
 28 27  1  0  0  0  0
 28  6  1  0  0  0  0
M  END
>  <MODEL>
5

>  <REMARK>
 VINA RESULT:      -6.6      2.103      5.886
  Name = 
  7 active torsions:
  status: ('A' for Active; 'I' for Inactive)
    1  A    between atoms: C_1  and  C_11
    2  A    between atoms: C_1  and  C_27
    3  A    between atoms: C_3  and  C_11
    4  A    between atoms: C_3  and  O_28
    5  A    between atoms: C_6  and  O_28
    6  A    between atoms: N_10  and  C_13
    7  A    between atoms: C_20  and  C_21
                            x       y       z     vdW  Elec       q    Type
                         _______ _______ _______ _____ _____    ______ ____

>  <TORSDO>
F 7

$$$$
=
 OpenBabel11052418173D

 28 29  0  0  1  0  0  0  0  0999 V2000
  184.5230  177.3600  146.8220 C   0  0  0  0  0  1  0  0  0  0  0  0
  186.9340  177.4210  144.1410 N   0  0  1  0  0  0  0  0  0  0  0  0
  186.1220  179.7680  144.6470 F   0  0  0  0  0  0  0  0  0  0  0  0
  186.6090  176.4380  146.4450 O   0  0  0  0  0  0  0  0  0  0  0  0
  188.1440  176.9130  144.6010 O   0  0  0  0  0  0  0  0  0  0  0  0
  186.0480  177.7000  146.4480 C   0  0  1  0  0  0  0  0  0  0  0  0
  186.1310  178.3560  144.9750 C   0  0  2  0  0  3  0  0  0  0  0  0
  187.9550  176.6710  146.0440 C   0  0  2  0  0  3  0  0  0  0  0  0
  185.7600  178.2520  141.9650 C   0  0  0  0  0  3  0  0  0  0  0  0
  187.6670  176.5040  141.7800 C   0  0  0  0  0  0  0  0  0  0  0  0
  186.4160  177.2590  139.7970 C   0  0  0  0  0  0  0  0  0  0  0  0
  186.9360  177.5310  142.6320 C   0  0  2  0  0  3  0  0  0  0  0  0
  187.4470  176.4460  140.4690 C   0  0  0  0  0  3  0  0  0  0  0  0
  188.6910  175.7490  142.2440 F   0  0  0  0  0  0  0  0  0  0  0  0
  186.3000  177.0840  138.5810 O   0  0  0  0  0  0  0  0  0  0  0  0
  185.5620  178.1500  140.6180 C   0  0  0  0  0  3  0  0  0  0  0  0
  188.9450  175.8050  146.6370 C   0  0  2  0  0  3  0  0  0  0  0  0
  188.2730  175.1080  147.6420 O   0  0  0  0  0  1  0  0  0  0  0  0
  189.8460  177.8990  147.4650 O   0  0  0  0  0  1  0  0  0  0  0  0
  190.1100  176.5270  147.2400 C   0  0  2  0  0  3  0  0  0  0  0  0
  191.3450  176.2650  146.3890 C   0  0  0  0  0  0  0  0  0  0  0  0
  192.4550  176.4080  146.8840 O   0  0  0  0  0  0  0  0  0  0  0  0
  191.2390  175.9980  144.9860 O   0  0  0  0  0  0  0  0  0  0  0  0
  191.6320  176.8220  143.9510 C   0  0  0  0  0  0  0  0  0  0  0  0
  192.4830  176.4090  143.1550 O   0  0  0  0  0  0  0  0  0  0  0  0
  191.1630  178.2890  143.8080 C   0  0  0  0  0  1  0  0  0  0  0  0
  185.7800  179.6820  147.7070 O   0  0  0  0  0  1  0  0  0  0  0  0
  186.6780  178.6080  147.4860 C   0  0  0  0  0  2  0  0  0  0  0  0
  2  5  1  1  0  0  0
  2  7  1  0  0  0  0
  4  6  1  0  0  0  0
  5  8  1  0  0  0  0
  6  1  1  1  0  0  0
  6 28  1  0  0  0  0
  7  3  1  1  0  0  0
  7  6  1  0  0  0  0
  8  4  1  0  0  0  0
  8 17  1  6  0  0  0
 10 14  1  0  0  0  0
 10 12  1  0  0  0  0
 11 13  1  0  0  0  0
 11 16  1  0  0  0  0
 12  9  1  6  0  0  0
 12  2  1  0  0  0  0
 13 10  2  0  0  0  0
 15 11  2  0  0  0  0
 16  9  2  0  0  0  0
 17 20  1  0  0  0  0
 17 18  1  1  0  0  0
 20 19  1  6  0  0  0
 21 22  2  0  0  0  0
 21 20  1  0  0  0  0
 23 21  1  0  0  0  0
 24 23  1  0  0  0  0
 25 24  2  0  0  0  0
 26 24  1  0  0  0  0
 28 27  1  0  0  0  0
M  END
>  <MODEL>
6

>  <REMARK>
 VINA RESULT:      -6.5      2.226      5.782
  Name = 
  7 active torsions:
  status: ('A' for Active; 'I' for Inactive)
    1  A    between atoms: C_1  and  C_11
    2  A    between atoms: C_1  and  C_27
    3  A    between atoms: C_3  and  C_11
    4  A    between atoms: C_3  and  O_28
    5  A    between atoms: C_6  and  O_28
    6  A    between atoms: N_10  and  C_13
    7  A    between atoms: C_20  and  C_21
                            x       y       z     vdW  Elec       q    Type
                         _______ _______ _______ _____ _____    ______ ____

>  <TORSDO>
F 7

$$$$
=
 OpenBabel11052418173D

 28 29  0  0  1  0  0  0  0  0999 V2000
  189.3140  174.6090  146.9880 C   0  0  0  0  0  1  0  0  0  0  0  0
  188.7500  177.2920  144.6470 N   0  0  1  0  0  0  0  0  0  0  0  0
  187.7980  177.8920  146.9180 F   0  0  0  0  0  0  0  0  0  0  0  0
  190.5910  175.7530  145.4390 O   0  0  0  0  0  0  0  0  0  0  0  0
  189.9750  177.7590  144.1820 O   0  0  0  0  0  0  0  0  0  0  0  0
  189.8100  176.0670  146.5340 C   0  0  1  0  0  0  0  0  0  0  0  0
  188.5510  176.9730  146.0860 C   0  0  2  0  0  3  0  0  0  0  0  0
  191.0010  177.0240  144.9460 C   0  0  2  0  0  3  0  0  0  0  0  0
  186.1840  177.6060  144.3040 C   0  0  0  0  0  3  0  0  0  0  0  0
  187.7830  178.0190  142.3040 C   0  0  0  0  0  0  0  0  0  0  0  0
  185.3380  178.1700  142.0490 C   0  0  0  0  0  0  0  0  0  0  0  0
  187.6150  177.8310  143.8050 C   0  0  2  0  0  3  0  0  0  0  0  0
  186.7180  178.2320  141.5340 C   0  0  0  0  0  3  0  0  0  0  0  0
  188.9890  178.1750  141.7070 F   0  0  0  0  0  0  0  0  0  0  0  0
  184.4450  178.3590  141.2200 O   0  0  0  0  0  0  0  0  0  0  0  0
  185.1210  177.8200  143.4740 C   0  0  0  0  0  3  0  0  0  0  0  0
  192.3230  177.0760  144.3690 C   0  0  2  0  0  3  0  0  0  0  0  0
  192.1620  176.6900  143.0380 O   0  0  0  0  0  1  0  0  0  0  0  0
  193.8110  176.6830  146.2440 O   0  0  0  0  0  1  0  0  0  0  0  0
  193.3140  176.1650  145.0240 C   0  0  2  0  0  3  0  0  0  0  0  0
  194.3990  175.8110  144.0150 C   0  0  0  0  0  0  0  0  0  0  0  0
  194.4320  174.6830  143.5430 O   0  0  0  0  0  0  0  0  0  0  0  0
  195.4640  176.7210  143.7180 O   0  0  0  0  0  0  0  0  0  0  0  0
  196.4370  176.5730  142.7500 C   0  0  0  0  0  0  0  0  0  0  0  0
  196.1900  176.9500  141.5990 O   0  0  0  0  0  0  0  0  0  0  0  0
  197.7760  175.8390  142.9970 C   0  0  0  0  0  1  0  0  0  0  0  0
  191.3340  175.7320  148.3090 O   0  0  0  0  0  1  0  0  0  0  0  0
  190.6050  176.7430  147.6330 C   0  0  0  0  0  2  0  0  0  0  0  0
  2  5  1  1  0  0  0
  2  7  1  0  0  0  0
  4  6  1  0  0  0  0
  5  8  1  0  0  0  0
  6  1  1  1  0  0  0
  6 28  1  0  0  0  0
  7  6  1  0  0  0  0
  7  3  1  1  0  0  0
  8 17  1  6  0  0  0
  8  4  1  0  0  0  0
 10 12  1  0  0  0  0
 11 16  1  0  0  0  0
 12  9  1  6  0  0  0
 12  2  1  0  0  0  0
 13 11  1  0  0  0  0
 13 10  2  0  0  0  0
 14 10  1  0  0  0  0
 15 11  2  0  0  0  0
 16  9  2  0  0  0  0
 17 18  1  6  0  0  0
 17 20  1  0  0  0  0
 20 19  1  1  0  0  0
 21 20  1  0  0  0  0
 22 21  2  0  0  0  0
 23 21  1  0  0  0  0
 24 26  1  0  0  0  0
 24 23  1  0  0  0  0
 25 24  2  0  0  0  0
 28 27  1  0  0  0  0
M  END
>  <MODEL>
7

>  <REMARK>
 VINA RESULT:      -6.5      2.575      6.677
  Name = 
  7 active torsions:
  status: ('A' for Active; 'I' for Inactive)
    1  A    between atoms: C_1  and  C_11
    2  A    between atoms: C_1  and  C_27
    3  A    between atoms: C_3  and  C_11
    4  A    between atoms: C_3  and  O_28
    5  A    between atoms: C_6  and  O_28
    6  A    between atoms: N_10  and  C_13
    7  A    between atoms: C_20  and  C_21
                            x       y       z     vdW  Elec       q    Type
                         _______ _______ _______ _____ _____    ______ ____

>  <TORSDO>
F 7

$$$$
=
 OpenBabel11052418173D

 28 29  0  0  1  0  0  0  0  0999 V2000
  189.3160  173.9240  140.0090 C   0  0  0  0  0  1  0  0  0  0  0  0
  188.7370  175.9590  142.9290 N   0  0  1  0  0  0  0  0  0  0  0  0
  186.7630  174.4220  142.5220 F   0  0  0  0  0  0  0  0  0  0  0  0
  190.5250  174.5070  141.8910 O   0  0  0  0  0  0  0  0  0  0  0  0
  189.7270  175.7010  143.8710 O   0  0  0  0  0  0  0  0  0  0  0  0
  189.3030  173.9240  141.6160 C   0  0  1  0  0  0  0  0  0  0  0  0
  188.1020  174.8510  142.1660 C   0  0  2  0  0  3  0  0  0  0  0  0
  190.5370  174.6030  143.3110 C   0  0  2  0  0  3  0  0  0  0  0  0
  187.4220  177.3090  144.7320 C   0  0  0  0  0  3  0  0  0  0  0  0
  187.1960  177.9840  142.2370 C   0  0  0  0  0  0  0  0  0  0  0  0
  185.9020  179.1180  144.0000 C   0  0  0  0  0  0  0  0  0  0  0  0
  187.9530  177.1990  143.2990 C   0  0  2  0  0  3  0  0  0  0  0  0
  186.3010  178.9010  142.5960 C   0  0  0  0  0  3  0  0  0  0  0  0
  187.5120  177.9460  140.9210 F   0  0  0  0  0  0  0  0  0  0  0  0
  185.0410  179.9810  144.1870 O   0  0  0  0  0  0  0  0  0  0  0  0
  186.4910  178.2540  145.0520 C   0  0  0  0  0  3  0  0  0  0  0  0
  191.8250  174.4330  143.9400 C   0  0  2  0  0  3  0  0  0  0  0  0
  191.6700  173.3580  144.8160 O   0  0  0  0  0  1  0  0  0  0  0  0
  193.1570  176.4600  143.9600 O   0  0  0  0  0  1  0  0  0  0  0  0
  192.2940  175.6270  144.7110 C   0  0  2  0  0  3  0  0  0  0  0  0
  192.8840  175.1580  146.0340 C   0  0  0  0  0  0  0  0  0  0  0  0
  194.0400  174.7590  146.0670 O   0  0  0  0  0  0  0  0  0  0  0  0
  192.0740  175.0380  147.2090 O   0  0  0  0  0  0  0  0  0  0  0  0
  190.8500  175.6340  147.4390 C   0  0  0  0  0  0  0  0  0  0  0  0
  190.8280  176.8020  147.8450 O   0  0  0  0  0  0  0  0  0  0  0  0
  189.5050  174.8770  147.3450 C   0  0  0  0  0  1  0  0  0  0  0  0
  190.0080  171.6850  141.3450 O   0  0  0  0  0  1  0  0  0  0  0  0
  189.2010  172.5150  142.1630 C   0  0  0  0  0  2  0  0  0  0  0  0
  2 12  1  0  0  0  0
  2  5  1  1  0  0  0
  4  8  1  0  0  0  0
  6  1  1  6  0  0  0
  6  4  1  0  0  0  0
  6 28  1  0  0  0  0
  6  7  1  0  0  0  0
  7  3  1  1  0  0  0
  7  2  1  0  0  0  0
  8  5  1  0  0  0  0
  8 17  1  6  0  0  0
  9 16  2  0  0  0  0
 10 13  2  0  0  0  0
 10 12  1  0  0  0  0
 11 15  2  0  0  0  0
 11 16  1  0  0  0  0
 12  9  1  1  0  0  0
 13 11  1  0  0  0  0
 14 10  1  0  0  0  0
 17 20  1  0  0  0  0
 17 18  1  1  0  0  0
 20 19  1  6  0  0  0
 20 21  1  0  0  0  0
 21 22  2  0  0  0  0
 21 23  1  0  0  0  0
 23 24  1  0  0  0  0
 24 25  2  0  0  0  0
 26 24  1  0  0  0  0
 27 28  1  0  0  0  0
M  END
>  <MODEL>
8

>  <REMARK>
 VINA RESULT:      -6.4      2.524      6.966
  Name = 
  7 active torsions:
  status: ('A' for Active; 'I' for Inactive)
    1  A    between atoms: C_1  and  C_11
    2  A    between atoms: C_1  and  C_27
    3  A    between atoms: C_3  and  C_11
    4  A    between atoms: C_3  and  O_28
    5  A    between atoms: C_6  and  O_28
    6  A    between atoms: N_10  and  C_13
    7  A    between atoms: C_20  and  C_21
                            x       y       z     vdW  Elec       q    Type
                         _______ _______ _______ _____ _____    ______ ____

>  <TORSDO>
F 7

$$$$
=
 OpenBabel11052418173D

 28 29  0  0  1  0  0  0  0  0999 V2000
  188.4530  178.2890  147.4590 C   0  0  0  0  0  1  0  0  0  0  0  0
  190.6900  176.0020  145.7960 N   0  0  1  0  0  0  0  0  0  0  0  0
  189.5650  174.8610  147.7590 F   0  0  0  0  0  0  0  0  0  0  0  0
  188.8640  177.6680  145.2710 O   0  0  0  0  0  0  0  0  0  0  0  0
  190.2810  175.8390  144.4770 O   0  0  0  0  0  0  0  0  0  0  0  0
  188.5270  177.0390  146.4540 C   0  0  1  0  0  0  0  0  0  0  0  0
  189.7000  176.0250  146.9050 C   0  0  2  0  0  3  0  0  0  0  0  0
  189.0180  176.5920  144.3520 C   0  0  2  0  0  3  0  0  0  0  0  0
  193.2160  176.4170  146.2950 C   0  0  0  0  0  3  0  0  0  0  0  0
  192.4770  174.1110  145.3680 C   0  0  0  0  0  0  0  0  0  0  0  0
  194.8500  174.6410  145.7560 C   0  0  0  0  0  0  0  0  0  0  0  0
  192.0770  175.4350  146.0020 C   0  0  2  0  0  3  0  0  0  0  0  0
  193.7570  173.7500  145.3250 C   0  0  0  0  0  3  0  0  0  0  0  0
  191.5800  173.1630  145.0040 F   0  0  0  0  0  0  0  0  0  0  0  0
  195.9920  174.1900  145.6350 O   0  0  0  0  0  0  0  0  0  0  0  0
  194.5160  176.0090  146.2210 C   0  0  0  0  0  3  0  0  0  0  0  0
  188.6210  176.8670  142.9920 C   0  0  2  0  0  3  0  0  0  0  0  0
  188.7470  178.2480  142.8420 O   0  0  0  0  0  1  0  0  0  0  0  0
  187.0880  175.0870  142.3870 O   0  0  0  0  0  1  0  0  0  0  0  0
  187.2140  176.4680  142.6710 C   0  0  2  0  0  3  0  0  0  0  0  0
  186.6830  177.3770  141.5710 C   0  0  0  0  0  0  0  0  0  0  0  0
  187.1310  177.2710  140.4380 O   0  0  0  0  0  0  0  0  0  0  0  0
  185.7790  178.4480  141.8640 O   0  0  0  0  0  0  0  0  0  0  0  0
  185.0800  178.6490  143.0370 C   0  0  0  0  0  0  0  0  0  0  0  0
  183.8970  178.2920  143.0900 O   0  0  0  0  0  0  0  0  0  0  0  0
  185.6560  179.4180  144.2480 C   0  0  0  0  0  1  0  0  0  0  0  0
  186.2700  177.0590  147.1550 O   0  0  0  0  0  1  0  0  0  0  0  0
  187.1930  176.3260  146.3670 C   0  0  0  0  0  2  0  0  0  0  0  0
  2  5  1  6  0  0  0
  2 12  1  0  0  0  0
  2  7  1  0  0  0  0
  4  6  1  0  0  0  0
  6  7  1  0  0  0  0
  6  1  1  1  0  0  0
  7  3  1  6  0  0  0
  8 17  1  6  0  0  0
  8  5  1  0  0  0  0
  8  4  1  0  0  0  0
 10 12  1  0  0  0  0
 11 16  1  0  0  0  0
 12  9  1  6  0  0  0
 13 10  2  0  0  0  0
 13 11  1  0  0  0  0
 14 10  1  0  0  0  0
 15 11  2  0  0  0  0
 16  9  2  0  0  0  0
 17 18  1  1  0  0  0
 20 19  1  6  0  0  0
 20 17  1  0  0  0  0
 21 23  1  0  0  0  0
 21 20  1  0  0  0  0
 22 21  2  0  0  0  0
 23 24  1  0  0  0  0
 24 25  2  0  0  0  0
 24 26  1  0  0  0  0
 28  6  1  0  0  0  0
 28 27  1  0  0  0  0
M  END
>  <MODEL>
9

>  <REMARK>
 VINA RESULT:      -6.3      1.975      3.021
  Name = 
  7 active torsions:
  status: ('A' for Active; 'I' for Inactive)
    1  A    between atoms: C_1  and  C_11
    2  A    between atoms: C_1  and  C_27
    3  A    between atoms: C_3  and  C_11
    4  A    between atoms: C_3  and  O_28
    5  A    between atoms: C_6  and  O_28
    6  A    between atoms: N_10  and  C_13
    7  A    between atoms: C_20  and  C_21
                            x       y       z     vdW  Elec       q    Type
                         _______ _______ _______ _____ _____    ______ ____

>  <TORSDO>
F 7

$$$$
