=
 OpenBabel11052420353D

 34 39  0  0  1  0  0  0  0  0999 V2000
  191.4340  177.0880  145.3560 C   0  0  1  0  0  3  0  0  0  0  0  0
  192.7180  175.7750  141.9630 C   0  0  0  0  0  2  0  0  0  0  0  0
  193.8160  176.0500  144.2210 N   0  0  0  0  0  2  0  0  0  0  0  0
  189.5460  175.8600  146.4810 C   0  0  1  0  0  3  0  0  0  0  0  0
  190.0330  177.2060  145.9570 C   0  0  0  0  0  2  0  0  0  0  0  0
  191.8780  175.0630  146.8220 N   0  0  0  0  0  0  0  0  0  0  0  0
  191.7610  174.0360  145.7870 C   0  0  0  0  0  1  0  0  0  0  0  0
  190.5680  175.2560  147.4520 C   0  0  0  0  0  2  0  0  0  0  0  0
  193.7440  176.1810  145.6440 C   0  0  0  0  0  0  0  0  0  0  0  0
  192.4040  176.3450  146.3020 C   0  0  1  0  0  3  0  0  0  0  0  0
  194.7900  176.1140  146.3400 O   0  0  0  0  0  0  0  0  0  0  0  0
  191.9560  174.5110  141.6910 C   0  0  0  0  0  3  0  0  0  0  0  0
  190.6650  174.2710  142.0020 C   0  0  0  0  0  0  0  0  0  0  0  0
  189.7480  175.1920  142.7890 C   0  0  0  0  0  2  0  0  0  0  0  0
  192.6420  176.1630  143.4050 C   0  0  0  0  0  0  0  0  0  0  0  0
  190.2500  176.6070  143.0650 C   0  0  0  0  0  2  0  0  0  0  0  0
  191.4750  176.5730  143.9320 C   0  0  0  0  0  0  0  0  0  0  0  0
  190.1200  172.9260  141.6440 C   0  0  0  0  0  2  0  0  0  0  0  0
  187.7910  172.5360  142.0200 O   0  0  0  0  0  1  0  0  0  0  0  0
  189.0450  172.4920  142.6290 C   0  0  0  0  0  2  0  0  0  0  0  0
  188.1550  175.9650  147.1090 C   0  0  0  0  0  2  0  0  0  0  0  0
  185.2040  178.0160  145.9170 C   0  0  0  0  0  3  0  0  0  0  0  0
  187.1970  176.4030  144.8680 N   0  0  0  0  0  0  0  0  0  0  0  0
  184.3980  178.1170  142.3020 C   0  0  0  0  0  0  0  0  0  0  0  0
  184.3310  178.3650  143.6810 C   0  0  0  0  0  3  0  0  0  0  0  0
  185.2660  177.7880  144.5420 C   0  0  0  0  0  0  0  0  0  0  0  0
  186.3650  176.7310  142.6510 C   0  0  0  0  0  3  0  0  0  0  0  0
  186.2880  176.9640  144.0260 C   0  0  0  0  0  0  0  0  0  0  0  0
  185.4260  177.3100  141.7920 C   0  0  0  0  0  3  0  0  0  0  0  0
  187.1490  176.6160  146.2120 C   0  0  0  0  0  0  0  0  0  0  0  0
  186.1480  177.4280  146.7600 C   0  0  0  0  0  3  0  0  0  0  0  0
  183.4240  178.7690  141.3690 C   0  0  1  0  0  3  0  0  0  0  0  0
  183.1160  177.8880  140.2440 C   0  0  0  0  0  2  0  0  0  0  0  0
  182.1600  178.0100  141.3510 N   0  0  0  0  0  2  0  0  0  0  0  0
  1  5  1  1  0  0  0
  1 10  1  0  0  0  0
  2 15  1  0  0  0  0
  3  9  1  0  0  0  0
  4 21  1  1  0  0  0
  4  8  1  0  0  0  0
  5  4  1  0  0  0  0
  6  8  1  0  0  0  0
  7  6  1  0  0  0  0
  9 11  2  0  0  0  0
 10  9  1  6  0  0  0
 10  6  1  0  0  0  0
 12  2  1  0  0  0  0
 12 13  2  0  0  0  0
 13 14  1  0  0  0  0
 14 16  1  0  0  0  0
 15 17  2  0  0  0  0
 15  3  1  0  0  0  0
 16 17  1  0  0  0  0
 17  1  1  0  0  0  0
 18 13  1  0  0  0  0
 18 20  1  0  0  0  0
 19 20  1  0  0  0  0
 22 31  1  0  0  0  0
 23 30  1  0  0  0  0
 24 25  2  0  0  0  0
 25 26  1  0  0  0  0
 26 22  2  0  0  0  0
 27 28  1  0  0  0  0
 28 26  1  0  0  0  0
 28 23  2  0  0  0  0
 29 24  1  0  0  0  0
 29 27  2  0  0  0  0
 30 31  2  0  0  0  0
 30 21  1  0  0  0  0
 32 24  1  1  0  0  0
 33 34  1  0  0  0  0
 33 32  1  0  0  0  0
 34 32  1  0  0  0  0
M  END
>  <MODEL>
1

>  <REMARK>
 VINA RESULT:      -8.0      0.000      0.000
  Name = 
  5 active torsions:
  status: ('A' for Active; 'I' for Inactive)
    1  A    between atoms: C_3  and  C_24
    2  A    between atoms: C_3  and  C_25
    3  A    between atoms: C_7  and  C_11
    4  A    between atoms: C_8  and  C_18
    5  A    between atoms: C_18  and  C_30
                            x       y       z     vdW  Elec       q    Type
                         _______ _______ _______ _____ _____    ______ ____

>  <TORSDO>
F 5

$$$$
=
 OpenBabel11052420353D

 34 39  0  0  1  0  0  0  0  0999 V2000
  193.6860  172.9240  142.8240 C   0  0  1  0  0  3  0  0  0  0  0  0
  195.8150  174.5400  145.6050 C   0  0  0  0  0  2  0  0  0  0  0  0
  196.0540  174.4600  143.0920 N   0  0  0  0  0  2  0  0  0  0  0  0
  191.3120  173.7070  142.5220 C   0  0  1  0  0  3  0  0  0  0  0  0
  192.2170  172.5030  142.7570 C   0  0  0  0  0  2  0  0  0  0  0  0
  193.1500  174.9700  141.4180 N   0  0  0  0  0  0  0  0  0  0  0  0
  193.2100  175.9690  142.4850 C   0  0  0  0  0  1  0  0  0  0  0  0
  191.7690  174.4940  141.2870 C   0  0  0  0  0  2  0  0  0  0  0  0
  195.5000  174.2910  141.7840 C   0  0  0  0  0  0  0  0  0  0  0  0
  194.0760  173.8370  141.6400 C   0  0  1  0  0  3  0  0  0  0  0  0
  196.1870  174.5630  140.7660 O   0  0  0  0  0  0  0  0  0  0  0  0
  194.9640  175.6210  146.2060 C   0  0  0  0  0  3  0  0  0  0  0  0
  193.6290  175.5780  146.3920 C   0  0  0  0  0  0  0  0  0  0  0  0
  192.6960  174.4710  145.9310 C   0  0  0  0  0  2  0  0  0  0  0  0
  195.3040  174.1180  144.2660 C   0  0  0  0  0  0  0  0  0  0  0  0
  193.3400  173.1880  145.4110 C   0  0  0  0  0  2  0  0  0  0  0  0
  194.1340  173.4620  144.1670 C   0  0  0  0  0  0  0  0  0  0  0  0
  192.9890  176.7850  147.0000 C   0  0  0  0  0  2  0  0  0  0  0  0
  191.4280  177.2890  148.7390 O   0  0  0  0  0  1  0  0  0  0  0  0
  191.6720  176.4270  147.6690 C   0  0  0  0  0  2  0  0  0  0  0  0
  189.8410  173.3010  142.4270 C   0  0  0  0  0  2  0  0  0  0  0  0
  186.9720  175.7680  142.5610 C   0  0  0  0  0  3  0  0  0  0  0  0
  189.1020  174.9430  144.1270 N   0  0  0  0  0  0  0  0  0  0  0  0
  186.5820  177.9490  145.5300 C   0  0  0  0  0  0  0  0  0  0  0  0
  186.3440  177.3600  144.2810 C   0  0  0  0  0  3  0  0  0  0  0  0
  187.1900  176.3550  143.8070 C   0  0  0  0  0  0  0  0  0  0  0  0
  188.5070  176.4960  145.8440 C   0  0  0  0  0  3  0  0  0  0  0  0
  188.2800  175.9210  144.5920 C   0  0  0  0  0  0  0  0  0  0  0  0
  187.6580  177.5020  146.3140 C   0  0  0  0  0  3  0  0  0  0  0  0
  188.9020  174.3610  142.9120 C   0  0  0  0  0  0  0  0  0  0  0  0
  187.8310  174.7660  142.1070 C   0  0  0  0  0  3  0  0  0  0  0  0
  185.6520  178.9960  146.0610 C   0  0  1  0  0  3  0  0  0  0  0  0
  184.3280  178.8670  145.4550 C   0  0  0  0  0  2  0  0  0  0  0  0
  184.5550  178.3590  146.8130 N   0  0  0  0  0  2  0  0  0  0  0  0
  1  5  1  1  0  0  0
  1 17  1  0  0  0  0
  2 12  1  0  0  0  0
  3 15  1  0  0  0  0
  4 21  1  6  0  0  0
  4  5  1  0  0  0  0
  6 10  1  0  0  0  0
  6  7  1  0  0  0  0
  8  6  1  0  0  0  0
  8  4  1  0  0  0  0
  9  3  1  0  0  0  0
 10  9  1  1  0  0  0
 10  1  1  0  0  0  0
 11  9  2  0  0  0  0
 12 13  2  0  0  0  0
 13 18  1  0  0  0  0
 14 13  1  0  0  0  0
 15  2  1  0  0  0  0
 16 14  1  0  0  0  0
 17 15  2  0  0  0  0
 17 16  1  0  0  0  0
 18 20  1  0  0  0  0
 20 19  1  0  0  0  0
 21 30  1  0  0  0  0
 22 26  1  0  0  0  0
 23 28  1  0  0  0  0
 24 29  1  0  0  0  0
 25 24  2  0  0  0  0
 26 25  1  0  0  0  0
 26 28  2  0  0  0  0
 27 29  2  0  0  0  0
 28 27  1  0  0  0  0
 30 23  2  0  0  0  0
 31 22  2  0  0  0  0
 31 30  1  0  0  0  0
 32 24  1  6  0  0  0
 32 34  1  0  0  0  0
 33 32  1  0  0  0  0
 33 34  1  0  0  0  0
M  END
>  <MODEL>
2

>  <REMARK>
 VINA RESULT:      -8.0      2.782      5.107
  Name = 
  5 active torsions:
  status: ('A' for Active; 'I' for Inactive)
    1  A    between atoms: C_3  and  C_24
    2  A    between atoms: C_3  and  C_25
    3  A    between atoms: C_7  and  C_11
    4  A    between atoms: C_8  and  C_18
    5  A    between atoms: C_18  and  C_30
                            x       y       z     vdW  Elec       q    Type
                         _______ _______ _______ _____ _____    ______ ____

>  <TORSDO>
F 5

$$$$
=
 OpenBabel11052420353D

 34 39  0  0  1  0  0  0  0  0999 V2000
  193.6950  172.3690  142.6800 C   0  0  1  0  0  3  0  0  0  0  0  0
  196.1680  173.6720  145.3390 C   0  0  0  0  0  2  0  0  0  0  0  0
  196.3150  173.4420  142.8280 N   0  0  0  0  0  2  0  0  0  0  0  0
  191.5020  173.5710  142.3900 C   0  0  1  0  0  3  0  0  0  0  0  0
  192.1720  172.2290  142.6630 C   0  0  0  0  0  2  0  0  0  0  0  0
  193.5110  174.4170  141.1900 N   0  0  0  0  0  0  0  0  0  0  0  0
  193.7880  175.4310  142.2080 C   0  0  0  0  0  1  0  0  0  0  0  0
  192.0620  174.2050  141.1100 C   0  0  0  0  0  2  0  0  0  0  0  0
  195.7020  173.3240  141.5400 C   0  0  0  0  0  0  0  0  0  0  0  0
  194.2150  173.1400  141.4460 C   0  0  1  0  0  3  0  0  0  0  0  0
  196.3980  173.4180  140.4970 O   0  0  0  0  0  0  0  0  0  0  0  0
  195.5520  174.9180  145.9050 C   0  0  0  0  0  3  0  0  0  0  0  0
  194.2380  175.1360  146.1190 C   0  0  0  0  0  0  0  0  0  0  0  0
  193.1020  174.2050  145.7300 C   0  0  0  0  0  2  0  0  0  0  0  0
  195.5480  173.2970  144.0310 C   0  0  0  0  0  0  0  0  0  0  0  0
  193.4780  172.8030  145.2580 C   0  0  0  0  0  2  0  0  0  0  0  0
  194.2740  172.8700  143.9880 C   0  0  0  0  0  0  0  0  0  0  0  0
  193.8530  176.4660  146.6820 C   0  0  0  0  0  2  0  0  0  0  0  0
  191.8220  176.7510  147.9110 O   0  0  0  0  0  1  0  0  0  0  0  0
  192.3470  176.6710  146.6210 C   0  0  0  0  0  2  0  0  0  0  0  0
  189.9780  173.4450  142.3440 C   0  0  0  0  0  2  0  0  0  0  0  0
  189.0820  175.6880  145.2590 C   0  0  0  0  0  3  0  0  0  0  0  0
  188.1610  175.0850  142.7180 N   0  0  0  0  0  0  0  0  0  0  0  0
  186.1000  177.8740  145.0260 C   0  0  0  0  0  0  0  0  0  0  0  0
  187.2520  177.2570  145.5330 C   0  0  0  0  0  3  0  0  0  0  0  0
  187.9420  176.3190  144.7630 C   0  0  0  0  0  0  0  0  0  0  0  0
  186.3500  176.6270  142.9530 C   0  0  0  0  0  3  0  0  0  0  0  0
  187.4870  175.9990  143.4650 C   0  0  0  0  0  0  0  0  0  0  0  0
  185.6620  177.5650  143.7290 C   0  0  0  0  0  3  0  0  0  0  0  0
  189.2750  174.4610  143.1890 C   0  0  0  0  0  0  0  0  0  0  0  0
  189.7550  174.7520  144.4720 C   0  0  0  0  0  3  0  0  0  0  0  0
  185.3830  178.9130  145.8320 C   0  0  1  0  0  3  0  0  0  0  0  0
  183.9550  178.9180  145.5170 C   0  0  0  0  0  2  0  0  0  0  0  0
  184.4240  178.2680  146.7460 N   0  0  0  0  0  2  0  0  0  0  0  0
  1  5  1  1  0  0  0
  1 17  1  0  0  0  0
  2 12  1  0  0  0  0
  3 15  1  0  0  0  0
  4 21  1  6  0  0  0
  4  5  1  0  0  0  0
  6 10  1  0  0  0  0
  6  7  1  0  0  0  0
  8  6  1  0  0  0  0
  8  4  1  0  0  0  0
  9  3  1  0  0  0  0
 10  9  1  1  0  0  0
 10  1  1  0  0  0  0
 11  9  2  0  0  0  0
 12 13  2  0  0  0  0
 13 18  1  0  0  0  0
 14 13  1  0  0  0  0
 15  2  1  0  0  0  0
 16 14  1  0  0  0  0
 17 15  2  0  0  0  0
 17 16  1  0  0  0  0
 20 18  1  0  0  0  0
 20 19  1  0  0  0  0
 21 30  1  0  0  0  0
 23 30  2  0  0  0  0
 23 28  1  0  0  0  0
 24 25  1  0  0  0  0
 26 22  1  0  0  0  0
 26 25  2  0  0  0  0
 27 28  2  0  0  0  0
 27 29  1  0  0  0  0
 28 26  1  0  0  0  0
 29 24  2  0  0  0  0
 30 31  1  0  0  0  0
 31 22  2  0  0  0  0
 32 24  1  6  0  0  0
 32 34  1  0  0  0  0
 33 32  1  0  0  0  0
 33 34  1  0  0  0  0
M  END
>  <MODEL>
3

>  <REMARK>
 VINA RESULT:      -7.7      2.734      5.137
  Name = 
  5 active torsions:
  status: ('A' for Active; 'I' for Inactive)
    1  A    between atoms: C_3  and  C_24
    2  A    between atoms: C_3  and  C_25
    3  A    between atoms: C_7  and  C_11
    4  A    between atoms: C_8  and  C_18
    5  A    between atoms: C_18  and  C_30
                            x       y       z     vdW  Elec       q    Type
                         _______ _______ _______ _____ _____    ______ ____

>  <TORSDO>
F 5

$$$$
=
 OpenBabel11052420353D

 34 39  0  0  1  0  0  0  0  0999 V2000
  194.4580  175.3330  143.6120 C   0  0  1  0  0  3  0  0  0  0  0  0
  193.1340  174.4340  140.1020 C   0  0  0  0  0  2  0  0  0  0  0  0
  195.1910  173.7330  141.3880 N   0  0  0  0  0  2  0  0  0  0  0  0
  193.0610  174.7220  145.6150 C   0  0  1  0  0  3  0  0  0  0  0  0
  193.7720  175.8500  144.8770 C   0  0  0  0  0  2  0  0  0  0  0  0
  194.5980  173.0190  144.6490 N   0  0  0  0  0  0  0  0  0  0  0  0
  193.5330  172.3860  143.8710 C   0  0  0  0  0  1  0  0  0  0  0  0
  194.0260  173.5610  145.8870 C   0  0  0  0  0  2  0  0  0  0  0  0
  195.9030  173.5540  142.6170 C   0  0  0  0  0  0  0  0  0  0  0  0
  195.3100  174.0750  143.8940 C   0  0  1  0  0  3  0  0  0  0  0  0
  196.9930  172.9260  142.6310 O   0  0  0  0  0  0  0  0  0  0  0  0
  191.8620  173.6670  140.3210 C   0  0  0  0  0  3  0  0  0  0  0  0
  190.9510  173.8890  141.2910 C   0  0  0  0  0  0  0  0  0  0  0  0
  191.0780  174.8890  142.4270 C   0  0  0  0  0  2  0  0  0  0  0  0
  193.9680  174.4810  141.3410 C   0  0  0  0  0  0  0  0  0  0  0  0
  192.2280  175.8910  142.3500 C   0  0  0  0  0  2  0  0  0  0  0  0
  193.5500  175.1830  142.4090 C   0  0  0  0  0  0  0  0  0  0  0  0
  189.7600  172.9850  141.3230 C   0  0  0  0  0  2  0  0  0  0  0  0
  188.4250  174.4970  140.0380 O   0  0  0  0  0  1  0  0  0  0  0  0
  188.4670  173.7810  141.2350 C   0  0  0  0  0  2  0  0  0  0  0  0
  192.3890  175.2170  146.8970 C   0  0  0  0  0  2  0  0  0  0  0  0
  188.6260  175.2620  147.3140 C   0  0  0  0  0  3  0  0  0  0  0  0
  190.5780  176.4630  145.7570 N   0  0  0  0  0  0  0  0  0  0  0  0
  186.5770  177.4370  145.1240 C   0  0  0  0  0  0  0  0  0  0  0  0
  186.9260  176.5160  146.1220 C   0  0  0  0  0  3  0  0  0  0  0  0
  188.2660  176.1850  146.3330 C   0  0  0  0  0  0  0  0  0  0  0  0
  188.9270  177.7180  144.5680 C   0  0  0  0  0  3  0  0  0  0  0  0
  189.2740  176.7870  145.5500 C   0  0  0  0  0  0  0  0  0  0  0  0
  187.5840  178.0450  144.3590 C   0  0  0  0  0  3  0  0  0  0  0  0
  190.9450  175.5630  146.7110 C   0  0  0  0  0  0  0  0  0  0  0  0
  189.9720  174.9450  147.5060 C   0  0  0  0  0  3  0  0  0  0  0  0
  185.1450  177.8280  144.9240 C   0  0  1  0  0  3  0  0  0  0  0  0
  184.4360  177.8660  146.2020 C   0  0  0  0  0  2  0  0  0  0  0  0
  184.8800  179.1200  145.5810 N   0  0  0  0  0  2  0  0  0  0  0  0
  1 10  1  0  0  0  0
  1  5  1  1  0  0  0
  2 12  1  0  0  0  0
  2 15  1  0  0  0  0
  3  9  1  0  0  0  0
  4  8  1  0  0  0  0
  4 21  1  1  0  0  0
  5  4  1  0  0  0  0
  6  8  1  0  0  0  0
  7  6  1  0  0  0  0
  9 11  2  0  0  0  0
 10  9  1  6  0  0  0
 10  6  1  0  0  0  0
 12 13  2  0  0  0  0
 13 18  1  0  0  0  0
 13 14  1  0  0  0  0
 15  3  1  0  0  0  0
 15 17  2  0  0  0  0
 16 17  1  0  0  0  0
 16 14  1  0  0  0  0
 17  1  1  0  0  0  0
 19 20  1  0  0  0  0
 20 18  1  0  0  0  0
 22 31  1  0  0  0  0
 23 30  1  0  0  0  0
 24 25  2  0  0  0  0
 25 26  1  0  0  0  0
 26 22  2  0  0  0  0
 27 28  1  0  0  0  0
 28 23  2  0  0  0  0
 28 26  1  0  0  0  0
 29 27  2  0  0  0  0
 29 24  1  0  0  0  0
 30 21  1  0  0  0  0
 30 31  2  0  0  0  0
 32 24  1  1  0  0  0
 32 34  1  0  0  0  0
 32 33  1  0  0  0  0
 34 33  1  0  0  0  0
M  END
>  <MODEL>
4

>  <REMARK>
 VINA RESULT:      -7.7      2.379      3.706
  Name = 
  5 active torsions:
  status: ('A' for Active; 'I' for Inactive)
    1  A    between atoms: C_3  and  C_24
    2  A    between atoms: C_3  and  C_25
    3  A    between atoms: C_7  and  C_11
    4  A    between atoms: C_8  and  C_18
    5  A    between atoms: C_18  and  C_30
                            x       y       z     vdW  Elec       q    Type
                         _______ _______ _______ _____ _____    ______ ____

>  <TORSDO>
F 5

$$$$
=
 OpenBabel11052420353D

 34 39  0  0  1  0  0  0  0  0999 V2000
  194.0320  174.8320  145.4890 C   0  0  1  0  0  3  0  0  0  0  0  0
  196.3350  176.6500  142.9850 C   0  0  0  0  0  2  0  0  0  0  0  0
  196.7830  174.9710  144.8180 N   0  0  0  0  0  2  0  0  0  0  0  0
  192.2540  173.2950  144.5860 C   0  0  1  0  0  3  0  0  0  0  0  0
  192.5380  174.5030  145.4710 C   0  0  0  0  0  2  0  0  0  0  0  0
  194.5580  172.4150  144.9150 N   0  0  0  0  0  0  0  0  0  0  0  0
  194.9190  172.6150  143.5110 C   0  0  0  0  0  1  0  0  0  0  0  0
  193.1270  172.1040  144.9990 C   0  0  0  0  0  2  0  0  0  0  0  0
  196.3510  173.9280  145.6970 C   0  0  0  0  0  0  0  0  0  0  0  0
  194.8930  173.5790  145.7650 C   0  0  1  0  0  3  0  0  0  0  0  0
  197.1920  173.2810  146.3720 O   0  0  0  0  0  0  0  0  0  0  0  0
  195.9600  176.1360  141.6250 C   0  0  0  0  0  3  0  0  0  0  0  0
  194.7190  175.8140  141.2060 C   0  0  0  0  0  0  0  0  0  0  0  0
  193.4610  175.8010  142.0590 C   0  0  0  0  0  2  0  0  0  0  0  0
  195.8390  175.7490  144.0690 C   0  0  0  0  0  0  0  0  0  0  0  0
  193.5570  176.4170  143.4530 C   0  0  0  0  0  2  0  0  0  0  0  0
  194.5200  175.6440  144.3060 C   0  0  0  0  0  0  0  0  0  0  0  0
  194.5850  175.3080  139.8060 C   0  0  0  0  0  2  0  0  0  0  0  0
  195.7750  175.2560  137.7320 O   0  0  0  0  0  1  0  0  0  0  0  0
  195.9400  175.2380  139.1180 C   0  0  0  0  0  2  0  0  0  0  0  0
  190.7670  172.9360  144.5760 C   0  0  0  0  0  2  0  0  0  0  0  0
  188.7540  175.3350  146.7060 C   0  0  0  0  0  3  0  0  0  0  0  0
  189.3420  174.8890  144.0360 N   0  0  0  0  0  0  0  0  0  0  0  0
  186.8130  178.0330  145.0700 C   0  0  0  0  0  0  0  0  0  0  0  0
  187.3640  177.2180  146.0690 C   0  0  0  0  0  3  0  0  0  0  0  0
  188.2090  176.1610  145.7240 C   0  0  0  0  0  0  0  0  0  0  0  0
  187.9850  176.7420  143.3750 C   0  0  0  0  0  3  0  0  0  0  0  0
  188.5200  175.9190  144.3690 C   0  0  0  0  0  0  0  0  0  0  0  0
  187.1390  177.7990  143.7260 C   0  0  0  0  0  3  0  0  0  0  0  0
  189.8820  174.0730  144.9840 C   0  0  0  0  0  0  0  0  0  0  0  0
  189.5950  174.2830  146.3380 C   0  0  0  0  0  3  0  0  0  0  0  0
  185.9430  179.1950  145.4390 C   0  0  1  0  0  3  0  0  0  0  0  0
  185.2420  179.7100  144.2630 C   0  0  0  0  0  2  0  0  0  0  0  0
  184.5260  178.8530  145.2160 N   0  0  0  0  0  2  0  0  0  0  0  0
  1  5  1  6  0  0  0
  1 10  1  0  0  0  0
  2 15  1  0  0  0  0
  3  9  1  0  0  0  0
  4 21  1  1  0  0  0
  4  8  1  0  0  0  0
  4  5  1  0  0  0  0
  6  8  1  0  0  0  0
  6 10  1  0  0  0  0
  7  6  1  0  0  0  0
  9 11  2  0  0  0  0
 10  9  1  6  0  0  0
 12  2  1  0  0  0  0
 13 12  2  0  0  0  0
 13 14  1  0  0  0  0
 14 16  1  0  0  0  0
 15 17  2  0  0  0  0
 15  3  1  0  0  0  0
 16 17  1  0  0  0  0
 17  1  1  0  0  0  0
 18 13  1  0  0  0  0
 19 20  1  0  0  0  0
 20 18  1  0  0  0  0
 21 30  1  0  0  0  0
 23 28  2  0  0  0  0
 23 30  1  0  0  0  0
 24 25  2  0  0  0  0
 26 25  1  0  0  0  0
 26 22  2  0  0  0  0
 27 29  2  0  0  0  0
 27 28  1  0  0  0  0
 28 26  1  0  0  0  0
 29 24  1  0  0  0  0
 30 31  2  0  0  0  0
 31 22  1  0  0  0  0
 32 24  1  6  0  0  0
 33 34  1  0  0  0  0
 33 32  1  0  0  0  0
 34 32  1  0  0  0  0
M  END
>  <MODEL>
5

>  <REMARK>
 VINA RESULT:      -7.6      2.923      4.377
  Name = 
  5 active torsions:
  status: ('A' for Active; 'I' for Inactive)
    1  A    between atoms: C_3  and  C_24
    2  A    between atoms: C_3  and  C_25
    3  A    between atoms: C_7  and  C_11
    4  A    between atoms: C_8  and  C_18
    5  A    between atoms: C_18  and  C_30
                            x       y       z     vdW  Elec       q    Type
                         _______ _______ _______ _____ _____    ______ ____

>  <TORSDO>
F 5

$$$$
=
 OpenBabel11052420353D

 34 39  0  0  1  0  0  0  0  0999 V2000
  194.1400  174.4620  143.1660 C   0  0  1  0  0  3  0  0  0  0  0  0
  197.6070  172.8040  143.5050 C   0  0  0  0  0  2  0  0  0  0  0  0
  196.8200  175.1920  143.7380 N   0  0  0  0  0  2  0  0  0  0  0  0
  192.3140  173.7600  144.7500 C   0  0  1  0  0  3  0  0  0  0  0  0
  192.7160  173.9180  143.2880 C   0  0  0  0  0  2  0  0  0  0  0  0
  193.9200  175.5230  145.4620 N   0  0  0  0  0  0  0  0  0  0  0  0
  194.7520  174.5750  146.2030 C   0  0  0  0  0  1  0  0  0  0  0  0
  192.5240  175.0730  145.5140 C   0  0  0  0  0  2  0  0  0  0  0  0
  195.7890  176.1570  143.9720 C   0  0  0  0  0  0  0  0  0  0  0  0
  194.3610  175.7020  144.0610 C   0  0  1  0  0  3  0  0  0  0  0  0
  196.0830  177.3670  144.1460 O   0  0  0  0  0  0  0  0  0  0  0  0
  197.5230  171.9060  144.7060 C   0  0  0  0  0  3  0  0  0  0  0  0
  196.4500  171.1870  145.0940 C   0  0  0  0  0  0  0  0  0  0  0  0
  195.0710  171.2230  144.4580 C   0  0  0  0  0  2  0  0  0  0  0  0
  196.5060  173.8140  143.4960 C   0  0  0  0  0  0  0  0  0  0  0  0
  194.9340  171.9620  143.1290 C   0  0  0  0  0  2  0  0  0  0  0  0
  195.2340  173.4220  143.3040 C   0  0  0  0  0  0  0  0  0  0  0  0
  196.5950  170.3700  146.3380 C   0  0  0  0  0  2  0  0  0  0  0  0
  195.5320  168.7340  147.7200 O   0  0  0  0  0  1  0  0  0  0  0  0
  195.3580  169.5200  146.5810 C   0  0  0  0  0  2  0  0  0  0  0  0
  190.8830  173.2410  144.8910 C   0  0  0  0  0  2  0  0  0  0  0  0
  188.5440  175.3920  146.9510 C   0  0  0  0  0  3  0  0  0  0  0  0
  189.4200  175.1600  144.3330 N   0  0  0  0  0  0  0  0  0  0  0  0
  186.6400  178.1080  145.3010 C   0  0  0  0  0  0  0  0  0  0  0  0
  187.1300  177.2500  146.2970 C   0  0  0  0  0  3  0  0  0  0  0  0
  188.0580  176.2590  145.9740 C   0  0  0  0  0  0  0  0  0  0  0  0
  188.0410  176.9920  143.6570 C   0  0  0  0  0  3  0  0  0  0  0  0
  188.5160  176.1260  144.6450 C   0  0  0  0  0  0  0  0  0  0  0  0
  187.1110  177.9820  143.9850 C   0  0  0  0  0  3  0  0  0  0  0  0
  189.9030  174.3050  145.2770 C   0  0  0  0  0  0  0  0  0  0  0  0
  189.4710  174.4070  146.6050 C   0  0  0  0  0  3  0  0  0  0  0  0
  185.6780  179.2010  145.6520 C   0  0  1  0  0  3  0  0  0  0  0  0
  184.7610  179.4590  144.5430 C   0  0  0  0  0  2  0  0  0  0  0  0
  184.3040  178.6680  145.6910 N   0  0  0  0  0  2  0  0  0  0  0  0
  1  5  1  1  0  0  0
  1 17  1  0  0  0  0
  1 10  1  0  0  0  0
  2 12  1  0  0  0  0
  3  9  1  0  0  0  0
  4 21  1  6  0  0  0
  4  8  1  0  0  0  0
  5  4  1  0  0  0  0
  6  8  1  0  0  0  0
  6  7  1  0  0  0  0
  9 11  2  0  0  0  0
 10  9  1  1  0  0  0
 10  6  1  0  0  0  0
 12 13  2  0  0  0  0
 13 18  1  0  0  0  0
 14 13  1  0  0  0  0
 15  2  1  0  0  0  0
 15  3  1  0  0  0  0
 16 17  1  0  0  0  0
 16 14  1  0  0  0  0
 17 15  2  0  0  0  0
 18 20  1  0  0  0  0
 20 19  1  0  0  0  0
 21 30  1  0  0  0  0
 23 28  2  0  0  0  0
 23 30  1  0  0  0  0
 24 25  2  0  0  0  0
 26 25  1  0  0  0  0
 26 22  2  0  0  0  0
 27 29  2  0  0  0  0
 27 28  1  0  0  0  0
 28 26  1  0  0  0  0
 29 24  1  0  0  0  0
 30 31  2  0  0  0  0
 31 22  1  0  0  0  0
 32 24  1  6  0  0  0
 32 34  1  0  0  0  0
 33 32  1  0  0  0  0
 33 34  1  0  0  0  0
M  END
>  <MODEL>
6

>  <REMARK>
 VINA RESULT:      -7.6      3.365      4.968
  Name = 
  5 active torsions:
  status: ('A' for Active; 'I' for Inactive)
    1  A    between atoms: C_3  and  C_24
    2  A    between atoms: C_3  and  C_25
    3  A    between atoms: C_7  and  C_11
    4  A    between atoms: C_8  and  C_18
    5  A    between atoms: C_18  and  C_30
                            x       y       z     vdW  Elec       q    Type
                         _______ _______ _______ _____ _____    ______ ____

>  <TORSDO>
F 5

$$$$
=
 OpenBabel11052420353D

 34 39  0  0  1  0  0  0  0  0999 V2000
  190.2060  177.1670  145.5800 C   0  0  1  0  0  3  0  0  0  0  0  0
  193.3770  175.1680  146.4950 C   0  0  0  0  0  2  0  0  0  0  0  0
  190.9530  174.9370  147.1660 N   0  0  0  0  0  2  0  0  0  0  0  0
  189.4800  177.2280  143.1710 C   0  0  1  0  0  3  0  0  0  0  0  0
  189.8540  178.0610  144.3910 C   0  0  0  0  0  2  0  0  0  0  0  0
  188.7730  175.3160  144.5970 N   0  0  0  0  0  0  0  0  0  0  0  0
  189.8550  174.4560  144.1170 C   0  0  0  0  0  1  0  0  0  0  0  0
  188.3720  176.2260  143.5180 C   0  0  0  0  0  2  0  0  0  0  0  0
  189.5590  175.1710  146.9370 C   0  0  0  0  0  0  0  0  0  0  0  0
  189.1390  176.0740  145.8140 C   0  0  1  0  0  3  0  0  0  0  0  0
  188.6960  174.5900  147.6440 O   0  0  0  0  0  0  0  0  0  0  0  0
  193.8310  174.5050  145.2270 C   0  0  0  0  0  3  0  0  0  0  0  0
  193.7600  175.0220  143.9830 C   0  0  0  0  0  0  0  0  0  0  0  0
  193.1060  176.3380  143.5970 C   0  0  0  0  0  2  0  0  0  0  0  0
  191.9550  175.6200  146.4000 C   0  0  0  0  0  0  0  0  0  0  0  0
  192.6870  177.2690  144.7330 C   0  0  0  0  0  2  0  0  0  0  0  0
  191.6230  176.6280  145.5750 C   0  0  0  0  0  0  0  0  0  0  0  0
  194.2640  174.1690  142.8640 C   0  0  0  0  0  2  0  0  0  0  0  0
  195.8670  174.6180  141.1470 O   0  0  0  0  0  1  0  0  0  0  0  0
  195.7090  174.5040  142.5290 C   0  0  0  0  0  2  0  0  0  0  0  0
  189.1000  178.1080  141.9790 C   0  0  0  0  0  2  0  0  0  0  0  0
  185.8780  177.5980  140.0550 C   0  0  0  0  0  3  0  0  0  0  0  0
  186.7140  178.4140  142.5670 N   0  0  0  0  0  0  0  0  0  0  0  0
  182.6410  178.3450  141.6950 C   0  0  0  0  0  0  0  0  0  0  0  0
  183.5730  177.9500  140.7250 C   0  0  0  0  0  3  0  0  0  0  0  0
  184.9390  177.9760  141.0140 C   0  0  0  0  0  0  0  0  0  0  0  0
  184.4530  178.7650  143.2600 C   0  0  0  0  0  3  0  0  0  0  0  0
  185.3830  178.3890  142.2890 C   0  0  0  0  0  0  0  0  0  0  0  0
  183.0870  178.7380  142.9660 C   0  0  0  0  0  3  0  0  0  0  0  0
  187.6420  178.0480  141.6410 C   0  0  0  0  0  0  0  0  0  0  0  0
  187.2390  177.6340  140.3660 C   0  0  0  0  0  3  0  0  0  0  0  0
  181.1730  178.2760  141.4040 C   0  0  1  0  0  3  0  0  0  0  0  0
  180.4550  179.3370  142.1090 C   0  0  0  0  0  2  0  0  0  0  0  0
  180.7470  179.4860  140.6780 N   0  0  0  0  0  2  0  0  0  0  0  0
  1  5  1  6  0  0  0
  1 10  1  0  0  0  0
  4 21  1  6  0  0  0
  4  8  1  0  0  0  0
  4  5  1  0  0  0  0
  6 10  1  0  0  0  0
  7  6  1  0  0  0  0
  8  6  1  0  0  0  0
  9  3  1  0  0  0  0
  9 11  2  0  0  0  0
 10  9  1  1  0  0  0
 12  2  1  0  0  0  0
 13 12  2  0  0  0  0
 14 13  1  0  0  0  0
 14 16  1  0  0  0  0
 15  2  1  0  0  0  0
 15  3  1  0  0  0  0
 16 17  1  0  0  0  0
 17  1  1  0  0  0  0
 17 15  2  0  0  0  0
 18 13  1  0  0  0  0
 19 20  1  0  0  0  0
 20 18  1  0  0  0  0
 22 31  2  0  0  0  0
 22 26  1  0  0  0  0
 24 29  1  0  0  0  0
 25 26  1  0  0  0  0
 25 24  2  0  0  0  0
 26 28  2  0  0  0  0
 28 23  1  0  0  0  0
 28 27  1  0  0  0  0
 29 27  2  0  0  0  0
 30 21  1  0  0  0  0
 30 23  2  0  0  0  0
 31 30  1  0  0  0  0
 32 24  1  1  0  0  0
 32 33  1  0  0  0  0
 34 32  1  0  0  0  0
 34 33  1  0  0  0  0
M  END
>  <MODEL>
7

>  <REMARK>
 VINA RESULT:      -7.5      2.315      4.161
  Name = 
  5 active torsions:
  status: ('A' for Active; 'I' for Inactive)
    1  A    between atoms: C_3  and  C_24
    2  A    between atoms: C_3  and  C_25
    3  A    between atoms: C_7  and  C_11
    4  A    between atoms: C_8  and  C_18
    5  A    between atoms: C_18  and  C_30
                            x       y       z     vdW  Elec       q    Type
                         _______ _______ _______ _____ _____    ______ ____

>  <TORSDO>
F 5

$$$$
=
 OpenBabel11052420353D

 34 39  0  0  1  0  0  0  0  0999 V2000
  196.0510  174.0130  145.4540 C   0  0  1  0  0  3  0  0  0  0  0  0
  197.5760  173.7370  141.9200 C   0  0  0  0  0  2  0  0  0  0  0  0
  196.8110  172.0100  143.5960 N   0  0  0  0  0  2  0  0  0  0  0  0
  193.8340  175.1750  145.7160 C   0  0  1  0  0  3  0  0  0  0  0  0
  195.2890  175.1300  146.1680 C   0  0  0  0  0  2  0  0  0  0  0  0
  193.8690  172.7630  145.1040 N   0  0  0  0  0  0  0  0  0  0  0  0
  193.7030  173.0430  143.6770 C   0  0  0  0  0  1  0  0  0  0  0  0
  193.1750  173.7990  145.8760 C   0  0  0  0  0  2  0  0  0  0  0  0
  196.0310  171.6220  144.7320 C   0  0  0  0  0  0  0  0  0  0  0  0
  195.2890  172.6700  145.5090 C   0  0  1  0  0  3  0  0  0  0  0  0
  195.9340  170.4080  145.0480 O   0  0  0  0  0  0  0  0  0  0  0  0
  196.5580  174.3180  140.9820 C   0  0  0  0  0  3  0  0  0  0  0  0
  195.7490  175.3680  141.2290 C   0  0  0  0  0  0  0  0  0  0  0  0
  195.6240  176.1120  142.5480 C   0  0  0  0  0  2  0  0  0  0  0  0
  196.9700  173.3900  143.2420 C   0  0  0  0  0  0  0  0  0  0  0  0
  196.6570  175.7960  143.6270 C   0  0  0  0  0  2  0  0  0  0  0  0
  196.5440  174.3650  144.0640 C   0  0  0  0  0  0  0  0  0  0  0  0
  194.7990  175.7640  140.1430 C   0  0  0  0  0  2  0  0  0  0  0  0
  192.8950  174.3410  139.8830 O   0  0  0  0  0  1  0  0  0  0  0  0
  194.2100  174.5400  139.4600 C   0  0  0  0  0  2  0  0  0  0  0  0
  193.0490  176.2700  146.4400 C   0  0  0  0  0  2  0  0  0  0  0  0
  190.7230  177.4240  143.6830 C   0  0  0  0  0  3  0  0  0  0  0  0
  190.6250  176.7740  146.3740 N   0  0  0  0  0  0  0  0  0  0  0  0
  187.1430  178.0010  144.4440 C   0  0  0  0  0  0  0  0  0  0  0  0
  188.3470  177.9120  143.7310 C   0  0  0  0  0  3  0  0  0  0  0  0
  189.5160  177.5050  144.3770 C   0  0  0  0  0  0  0  0  0  0  0  0
  188.2820  177.2410  146.4530 C   0  0  0  0  0  3  0  0  0  0  0  0
  189.4850  177.1700  145.7480 C   0  0  0  0  0  0  0  0  0  0  0  0
  187.1140  177.6500  145.8020 C   0  0  0  0  0  3  0  0  0  0  0  0
  191.8110  176.6910  145.7100 C   0  0  0  0  0  0  0  0  0  0  0  0
  191.8800  177.0160  144.3500 C   0  0  0  0  0  3  0  0  0  0  0  0
  185.8790  178.3940  143.7440 C   0  0  1  0  0  3  0  0  0  0  0  0
  184.8030  178.6220  144.7080 C   0  0  0  0  0  2  0  0  0  0  0  0
  185.5030  179.7690  144.1190 N   0  0  0  0  0  2  0  0  0  0  0  0
  1 10  1  0  0  0  0
  1  5  1  6  0  0  0
  2 15  1  0  0  0  0
  3  9  1  0  0  0  0
  4  8  1  0  0  0  0
  4  5  1  0  0  0  0
  4 21  1  1  0  0  0
  6 10  1  0  0  0  0
  6  8  1  0  0  0  0
  7  6  1  0  0  0  0
  9 11  2  0  0  0  0
 10  9  1  6  0  0  0
 12 13  2  0  0  0  0
 12  2  1  0  0  0  0
 13 14  1  0  0  0  0
 14 16  1  0  0  0  0
 15  3  1  0  0  0  0
 15 17  2  0  0  0  0
 16 17  1  0  0  0  0
 17  1  1  0  0  0  0
 18 13  1  0  0  0  0
 20 19  1  0  0  0  0
 20 18  1  0  0  0  0
 22 31  2  0  0  0  0
 22 26  1  0  0  0  0
 24 29  1  0  0  0  0
 25 26  1  0  0  0  0
 25 24  2  0  0  0  0
 26 28  2  0  0  0  0
 28 23  1  0  0  0  0
 28 27  1  0  0  0  0
 29 27  2  0  0  0  0
 30 23  2  0  0  0  0
 30 21  1  0  0  0  0
 31 30  1  0  0  0  0
 32 34  1  0  0  0  0
 32 24  1  1  0  0  0
 32 33  1  0  0  0  0
 34 33  1  0  0  0  0
M  END
>  <MODEL>
8

>  <REMARK>
 VINA RESULT:      -7.5      3.174      4.952
  Name = 
  5 active torsions:
  status: ('A' for Active; 'I' for Inactive)
    1  A    between atoms: C_3  and  C_24
    2  A    between atoms: C_3  and  C_25
    3  A    between atoms: C_7  and  C_11
    4  A    between atoms: C_8  and  C_18
    5  A    between atoms: C_18  and  C_30
                            x       y       z     vdW  Elec       q    Type
                         _______ _______ _______ _____ _____    ______ ____

>  <TORSDO>
F 5

$$$$
=
 OpenBabel11052420353D

 34 39  0  0  1  0  0  0  0  0999 V2000
  195.2370  175.7950  144.2840 C   0  0  1  0  0  3  0  0  0  0  0  0
  194.9100  174.5550  140.6450 C   0  0  0  0  0  2  0  0  0  0  0  0
  196.3560  173.8220  142.5820 N   0  0  0  0  0  2  0  0  0  0  0  0
  193.2270  175.6350  145.7910 C   0  0  1  0  0  3  0  0  0  0  0  0
  194.2870  176.5600  145.2060 C   0  0  0  0  0  2  0  0  0  0  0  0
  194.7100  173.6520  145.5400 N   0  0  0  0  0  0  0  0  0  0  0  0
  193.8460  173.0360  144.5340 C   0  0  0  0  0  1  0  0  0  0  0  0
  193.8800  174.4260  146.4710 C   0  0  0  0  0  2  0  0  0  0  0  0
  196.6300  173.7420  143.9840 C   0  0  0  0  0  0  0  0  0  0  0  0
  195.7660  174.5030  144.9470 C   0  0  1  0  0  3  0  0  0  0  0  0
  197.5580  173.0060  144.4070 O   0  0  0  0  0  0  0  0  0  0  0  0
  193.5310  173.9740  140.5260 C   0  0  0  0  0  3  0  0  0  0  0  0
  192.4150  174.4310  141.1290 C   0  0  0  0  0  0  0  0  0  0  0  0
  192.3430  175.5630  142.1390 C   0  0  0  0  0  2  0  0  0  0  0  0
  195.3300  174.6860  142.0730 C   0  0  0  0  0  0  0  0  0  0  0  0
  193.6000  176.4100  142.3290 C   0  0  0  0  0  2  0  0  0  0  0  0
  194.7200  175.5760  142.8760 C   0  0  0  0  0  0  0  0  0  0  0  0
  191.1480  173.6790  140.8730 C   0  0  0  0  0  2  0  0  0  0  0  0
  188.8610  173.6790  141.5690 O   0  0  0  0  0  1  0  0  0  0  0  0
  190.1690  173.8480  142.0240 C   0  0  0  0  0  2  0  0  0  0  0  0
  192.2830  176.3800  146.7360 C   0  0  0  0  0  2  0  0  0  0  0  0
  189.7880  177.6990  144.2120 C   0  0  0  0  0  3  0  0  0  0  0  0
  189.8200  176.6320  146.7680 N   0  0  0  0  0  0  0  0  0  0  0  0
  186.1870  177.7750  145.0790 C   0  0  0  0  0  0  0  0  0  0  0  0
  187.3770  177.9240  144.3520 C   0  0  0  0  0  3  0  0  0  0  0  0
  188.5960  177.5450  144.9180 C   0  0  0  0  0  0  0  0  0  0  0  0
  187.4440  176.8350  146.9360 C   0  0  0  0  0  3  0  0  0  0  0  0
  188.6310  176.9990  146.2190 C   0  0  0  0  0  0  0  0  0  0  0  0
  186.2260  177.2160  146.3660 C   0  0  0  0  0  3  0  0  0  0  0  0
  190.9920  176.7770  146.0900 C   0  0  0  0  0  0  0  0  0  0  0  0
  190.9960  177.3150  144.7980 C   0  0  0  0  0  3  0  0  0  0  0  0
  184.8730  178.1380  144.4590 C   0  0  1  0  0  3  0  0  0  0  0  0
  184.0640  178.9280  145.3860 C   0  0  0  0  0  2  0  0  0  0  0  0
  184.7800  179.6000  144.2970 N   0  0  0  0  0  2  0  0  0  0  0  0
  1 10  1  0  0  0  0
  1  5  1  1  0  0  0
  2 15  1  0  0  0  0
  3  9  1  0  0  0  0
  4  8  1  0  0  0  0
  4 21  1  1  0  0  0
  5  4  1  0  0  0  0
  6  8  1  0  0  0  0
  7  6  1  0  0  0  0
  9 11  2  0  0  0  0
 10  9  1  6  0  0  0
 10  6  1  0  0  0  0
 12  2  1  0  0  0  0
 12 13  2  0  0  0  0
 13 14  1  0  0  0  0
 14 16  1  0  0  0  0
 15  3  1  0  0  0  0
 15 17  2  0  0  0  0
 16 17  1  0  0  0  0
 17  1  1  0  0  0  0
 18 13  1  0  0  0  0
 18 20  1  0  0  0  0
 19 20  1  0  0  0  0
 22 31  2  0  0  0  0
 22 26  1  0  0  0  0
 24 29  1  0  0  0  0
 25 26  1  0  0  0  0
 25 24  2  0  0  0  0
 26 28  2  0  0  0  0
 28 23  1  0  0  0  0
 28 27  1  0  0  0  0
 29 27  2  0  0  0  0
 30 21  1  0  0  0  0
 30 23  2  0  0  0  0
 31 30  1  0  0  0  0
 32 24  1  1  0  0  0
 32 33  1  0  0  0  0
 34 32  1  0  0  0  0
 34 33  1  0  0  0  0
M  END
>  <MODEL>
9

>  <REMARK>
 VINA RESULT:      -7.5      2.140      3.654
  Name = 
  5 active torsions:
  status: ('A' for Active; 'I' for Inactive)
    1  A    between atoms: C_3  and  C_24
    2  A    between atoms: C_3  and  C_25
    3  A    between atoms: C_7  and  C_11
    4  A    between atoms: C_8  and  C_18
    5  A    between atoms: C_18  and  C_30
                            x       y       z     vdW  Elec       q    Type
                         _______ _______ _______ _____ _____    ______ ____

>  <TORSDO>
F 5

$$$$
