=
 OpenBabel11052421363D

 32 36  0  0  1  0  0  0  0  0999 V2000
  185.4910  178.3780  142.7350 C   0  0  0  0  0  2  0  0  0  0  0  0
  189.8900  175.9700  143.0410 C   0  0  0  0  0  0  0  0  0  0  0  0
  190.3930  177.5810  148.3540 C   0  0  0  0  0  3  0  0  0  0  0  0
  191.5900  176.8790  148.2990 C   0  0  0  0  0  3  0  0  0  0  0  0
  187.5180  176.7800  141.6800 C   0  0  0  0  0  0  0  0  0  0  0  0
  188.9600  176.9430  143.6560 C   0  0  0  0  0  0  0  0  0  0  0  0
  186.8610  178.4560  143.3860 C   0  0  0  0  0  2  0  0  0  0  0  0
  189.6230  177.7180  147.2020 C   0  0  0  0  0  3  0  0  0  0  0  0
  189.0670  177.4110  144.8990 C   0  0  0  0  0  3  0  0  0  0  0  0
  190.0240  177.1600  145.9800 C   0  0  0  0  0  0  0  0  0  0  0  0
  191.8440  175.8380  144.6850 C   0  0  0  0  0  0  0  0  0  0  0  0
  186.6670  177.2030  139.3900 C   0  0  0  0  0  1  0  0  0  0  0  0
  186.2860  177.1240  140.8640 C   0  0  2  0  0  3  0  0  0  0  0  0
  187.7650  177.3640  142.8710 C   0  0  0  0  0  0  0  0  0  0  0  0
  188.3820  175.7860  141.2010 O   0  0  0  0  0  0  0  0  0  0  0  0
  185.6520  178.3840  141.2840 N   0  0  0  0  0  0  0  0  0  0  0  0
  192.0080  176.3260  147.0910 C   0  0  0  0  0  3  0  0  0  0  0  0
  191.2510  176.4490  145.9080 C   0  0  0  0  0  0  0  0  0  0  0  0
  189.5660  175.4430  141.8600 C   0  0  0  0  0  3  0  0  0  0  0  0
  191.2240  175.6260  143.5220 C   0  0  0  0  0  3  0  0  0  0  0  0
  195.5470  175.4630  143.7170 C   0  0  0  0  0  0  0  0  0  0  0  0
  195.6930  174.0050  143.8280 C   0  0  0  0  0  3  0  0  0  0  0  0
  193.3920  173.8330  144.6340 C   0  0  0  0  0  0  0  0  0  0  0  0
  194.8480  171.8570  144.2710 O   0  0  0  0  0  1  0  0  0  0  0  0
  194.6790  173.2360  144.2270 C   0  0  0  0  0  0  0  0  0  0  0  0
  194.1890  176.0950  143.8000 C   0  0  0  0  0  2  0  0  0  0  0  0
  196.5540  176.1770  143.4750 O   0  0  0  0  0  0  0  0  0  0  0  0
  192.4340  173.0830  144.9620 O   0  0  0  0  0  0  0  0  0  0  0  0
  193.2700  175.3360  144.7670 C   0  0  1  0  0  3  0  0  0  0  0  0
  184.3020  178.4090  140.7310 C   0  0  0  0  0  2  0  0  0  0  0  0
  183.2740  178.1980  141.8310 C   0  0  0  0  0  2  0  0  0  0  0  0
  181.8750  178.1820  141.2490 C   0  0  0  0  0  1  0  0  0  0  0  0
  1  7  1  0  0  0  0
  2 20  1  0  0  0  0
  2  6  1  0  0  0  0
  4  3  1  0  0  0  0
  5 14  2  0  0  0  0
  6  9  2  0  0  0  0
  8  3  2  0  0  0  0
  9 10  1  0  0  0  0
 10  8  1  0  0  0  0
 11 18  1  0  0  0  0
 13 12  1  6  0  0  0
 13 16  1  0  0  0  0
 13  5  1  0  0  0  0
 14  7  1  0  0  0  0
 14  6  1  0  0  0  0
 15  5  1  0  0  0  0
 15 19  1  0  0  0  0
 16  1  1  0  0  0  0
 17  4  2  0  0  0  0
 18 10  2  0  0  0  0
 18 17  1  0  0  0  0
 19  2  2  0  0  0  0
 20 11  2  0  0  0  0
 21 26  1  0  0  0  0
 21 22  1  0  0  0  0
 22 25  2  0  0  0  0
 23 29  1  0  0  0  0
 23 28  2  0  0  0  0
 25 24  1  0  0  0  0
 25 23  1  0  0  0  0
 26 29  1  0  0  0  0
 27 21  2  0  0  0  0
 29 11  1  6  0  0  0
 30 16  1  0  0  0  0
 30 31  1  0  0  0  0
 32 31  1  0  0  0  0
M  END
>  <MODEL>
1

>  <REMARK>
 VINA RESULT:      -8.0      0.000      0.000
  Name = 
  3 active torsions:
  status: ('A' for Active; 'I' for Inactive)
    1  A    between atoms: C_1  and  C_10
    2  A    between atoms: C_10  and  N_24
    3  A    between atoms: C_16  and  C_32
                            x       y       z     vdW  Elec       q    Type
                         _______ _______ _______ _____ _____    ______ ____

>  <TORSDO>
F 3

$$$$
=
 OpenBabel11052421363D

 32 36  0  0  1  0  0  0  0  0999 V2000
  187.4350  177.3340  145.8060 C   0  0  0  0  0  2  0  0  0  0  0  0
  190.6490  175.0900  142.6630 C   0  0  0  0  0  0  0  0  0  0  0  0
  194.7290  175.7030  146.4100 C   0  0  0  0  0  3  0  0  0  0  0  0
  195.5070  175.0720  145.4490 C   0  0  0  0  0  3  0  0  0  0  0  0
  188.0690  176.0440  143.4170 C   0  0  0  0  0  0  0  0  0  0  0  0
  190.4690  175.8940  143.8920 C   0  0  0  0  0  0  0  0  0  0  0  0
  188.8870  177.3450  145.3630 C   0  0  0  0  0  2  0  0  0  0  0  0
  193.4050  176.0210  146.1240 C   0  0  0  0  0  3  0  0  0  0  0  0
  191.4240  176.1260  144.7910 C   0  0  0  0  0  3  0  0  0  0  0  0
  192.8280  175.7170  144.8820 C   0  0  0  0  0  0  0  0  0  0  0  0
  193.1760  174.7330  142.5060 C   0  0  0  0  0  0  0  0  0  0  0  0
  185.9500  176.8510  142.4130 C   0  0  0  0  0  1  0  0  0  0  0  0
  186.6480  176.4830  143.7180 C   0  0  2  0  0  3  0  0  0  0  0  0
  189.1030  176.4050  144.2030 C   0  0  0  0  0  0  0  0  0  0  0  0
  188.2890  175.1920  142.3270 O   0  0  0  0  0  0  0  0  0  0  0  0
  186.5830  177.6170  144.6550 N   0  0  0  0  0  0  0  0  0  0  0  0
  194.9540  174.7710  144.2070 C   0  0  0  0  0  3  0  0  0  0  0  0
  193.6150  175.0810  143.8860 C   0  0  0  0  0  0  0  0  0  0  0  0
  189.5690  174.7790  141.9450 C   0  0  0  0  0  3  0  0  0  0  0  0
  191.9200  174.7170  142.0530 C   0  0  0  0  0  3  0  0  0  0  0  0
  195.0530  174.5010  139.1580 C   0  0  0  0  0  0  0  0  0  0  0  0
  195.2610  173.0480  139.0820 C   0  0  0  0  0  3  0  0  0  0  0  0
  194.2490  172.7860  141.2910 C   0  0  0  0  0  0  0  0  0  0  0  0
  195.0340  170.8670  139.9280 O   0  0  0  0  0  1  0  0  0  0  0  0
  194.8590  172.2390  140.0630 C   0  0  0  0  0  0  0  0  0  0  0  0
  194.1600  175.0820  140.2130 C   0  0  0  0  0  2  0  0  0  0  0  0
  195.5630  175.2530  138.2880 O   0  0  0  0  0  0  0  0  0  0  0  0
  193.8340  171.9980  142.1840 O   0  0  0  0  0  0  0  0  0  0  0  0
  194.2330  174.2820  141.5200 C   0  0  1  0  0  3  0  0  0  0  0  0
  185.2210  177.6910  145.1710 C   0  0  0  0  0  2  0  0  0  0  0  0
  184.8060  179.1400  145.3670 C   0  0  0  0  0  2  0  0  0  0  0  0
  185.3290  179.9970  144.2320 C   0  0  0  0  0  1  0  0  0  0  0  0
  2  6  1  0  0  0  0
  4  3  2  0  0  0  0
  5 13  1  0  0  0  0
  5 14  2  0  0  0  0
  6 14  1  0  0  0  0
  6  9  2  0  0  0  0
  7  1  1  0  0  0  0
  8  3  1  0  0  0  0
  9 10  1  0  0  0  0
 10  8  2  0  0  0  0
 11 18  1  0  0  0  0
 13 12  1  6  0  0  0
 13 16  1  0  0  0  0
 14  7  1  0  0  0  0
 15  5  1  0  0  0  0
 16 30  1  0  0  0  0
 16  1  1  0  0  0  0
 17  4  1  0  0  0  0
 18 17  2  0  0  0  0
 18 10  1  0  0  0  0
 19 15  1  0  0  0  0
 19  2  2  0  0  0  0
 20 11  2  0  0  0  0
 20  2  1  0  0  0  0
 21 26  1  0  0  0  0
 22 21  1  0  0  0  0
 22 25  2  0  0  0  0
 23 29  1  0  0  0  0
 23 28  2  0  0  0  0
 24 25  1  0  0  0  0
 25 23  1  0  0  0  0
 26 29  1  0  0  0  0
 27 21  2  0  0  0  0
 29 11  1  1  0  0  0
 30 31  1  0  0  0  0
 32 31  1  0  0  0  0
M  END
>  <MODEL>
2

>  <REMARK>
 VINA RESULT:      -7.4      2.603      3.647
  Name = 
  3 active torsions:
  status: ('A' for Active; 'I' for Inactive)
    1  A    between atoms: C_1  and  C_10
    2  A    between atoms: C_10  and  N_24
    3  A    between atoms: C_16  and  C_32
                            x       y       z     vdW  Elec       q    Type
                         _______ _______ _______ _____ _____    ______ ____

>  <TORSDO>
F 3

$$$$
=
 OpenBabel11052421363D

 32 36  0  0  1  0  0  0  0  0999 V2000
  186.4930  176.5550  142.7080 C   0  0  0  0  0  2  0  0  0  0  0  0
  190.9750  174.9520  144.3140 C   0  0  0  0  0  0  0  0  0  0  0  0
  192.0470  172.8950  139.2450 C   0  0  0  0  0  3  0  0  0  0  0  0
  193.2500  172.5070  139.8190 C   0  0  0  0  0  3  0  0  0  0  0  0
  188.4750  176.2820  144.6490 C   0  0  0  0  0  0  0  0  0  0  0  0
  189.9420  174.9000  143.2550 C   0  0  0  0  0  0  0  0  0  0  0  0
  187.5010  175.4330  142.5330 C   0  0  0  0  0  2  0  0  0  0  0  0
  191.0700  173.4930  140.0360 C   0  0  0  0  0  3  0  0  0  0  0  0
  190.1220  174.3650  142.0480 C   0  0  0  0  0  3  0  0  0  0  0  0
  191.2690  173.7170  141.4060 C   0  0  0  0  0  0  0  0  0  0  0  0
  192.8430  173.4340  143.4490 C   0  0  0  0  0  0  0  0  0  0  0  0
  186.8350  176.8730  146.4130 C   0  0  0  0  0  1  0  0  0  0  0  0
  187.1910  177.0380  144.9400 C   0  0  2  0  0  3  0  0  0  0  0  0
  188.6380  175.5720  143.5140 C   0  0  0  0  0  0  0  0  0  0  0  0
  189.5310  176.3810  145.5650 O   0  0  0  0  0  0  0  0  0  0  0  0
  186.0630  176.5980  144.1020 N   0  0  0  0  0  0  0  0  0  0  0  0
  193.4620  172.7130  141.1800 C   0  0  0  0  0  3  0  0  0  0  0  0
  192.4900  173.3140  142.0070 C   0  0  0  0  0  0  0  0  0  0  0  0
  190.7290  175.6780  145.4050 C   0  0  0  0  0  3  0  0  0  0  0  0
  192.2000  174.1610  144.3670 C   0  0  0  0  0  3  0  0  0  0  0  0
  195.0440  171.2540  145.7270 C   0  0  0  0  0  0  0  0  0  0  0  0
  196.2520  172.0890  145.7900 C   0  0  0  0  0  3  0  0  0  0  0  0
  195.2470  173.6660  144.2160 C   0  0  0  0  0  0  0  0  0  0  0  0
  197.4820  174.0130  145.2360 O   0  0  0  0  0  1  0  0  0  0  0  0
  196.3390  173.2330  145.1090 C   0  0  0  0  0  0  0  0  0  0  0  0
  193.7880  171.7880  145.1060 C   0  0  0  0  0  2  0  0  0  0  0  0
  195.0400  170.1170  146.2650 O   0  0  0  0  0  0  0  0  0  0  0  0
  195.3330  174.7730  143.6200 O   0  0  0  0  0  0  0  0  0  0  0  0
  194.0920  172.7290  143.9320 C   0  0  1  0  0  3  0  0  0  0  0  0
  185.0300  177.6250  144.1730 C   0  0  0  0  0  2  0  0  0  0  0  0
  185.4920  178.8920  143.4700 C   0  0  0  0  0  2  0  0  0  0  0  0
  185.2890  180.0960  144.3670 C   0  0  0  0  0  1  0  0  0  0  0  0
  1 16  1  0  0  0  0
  2 20  1  0  0  0  0
  2 19  2  0  0  0  0
  3  4  2  0  0  0  0
  3  8  1  0  0  0  0
  4 17  1  0  0  0  0
  5 13  1  0  0  0  0
  5 15  1  0  0  0  0
  6 14  1  0  0  0  0
  6  2  1  0  0  0  0
  7  1  1  0  0  0  0
  7 14  1  0  0  0  0
  8 10  2  0  0  0  0
  9  6  2  0  0  0  0
 10 18  1  0  0  0  0
 10  9  1  0  0  0  0
 11 20  2  0  0  0  0
 13 12  1  1  0  0  0
 14  5  2  0  0  0  0
 16 30  1  0  0  0  0
 16 13  1  0  0  0  0
 17 18  2  0  0  0  0
 18 11  1  0  0  0  0
 19 15  1  0  0  0  0
 21 22  1  0  0  0  0
 21 27  2  0  0  0  0
 23 25  1  0  0  0  0
 25 24  1  0  0  0  0
 25 22  2  0  0  0  0
 26 21  1  0  0  0  0
 28 23  2  0  0  0  0
 29 11  1  1  0  0  0
 29 23  1  0  0  0  0
 29 26  1  0  0  0  0
 31 30  1  0  0  0  0
 31 32  1  0  0  0  0
M  END
>  <MODEL>
3

>  <REMARK>
 VINA RESULT:      -7.4      2.394      4.839
  Name = 
  3 active torsions:
  status: ('A' for Active; 'I' for Inactive)
    1  A    between atoms: C_1  and  C_10
    2  A    between atoms: C_10  and  N_24
    3  A    between atoms: C_16  and  C_32
                            x       y       z     vdW  Elec       q    Type
                         _______ _______ _______ _____ _____    ______ ____

>  <TORSDO>
F 3

$$$$
=
 OpenBabel11052421363D

 32 36  0  0  1  0  0  0  0  0999 V2000
  191.6700  171.6550  140.9080 C   0  0  0  0  0  2  0  0  0  0  0  0
  188.7900  175.3710  142.6800 C   0  0  0  0  0  0  0  0  0  0  0  0
  191.9530  175.6280  147.2620 C   0  0  0  0  0  3  0  0  0  0  0  0
  191.0780  176.6410  147.6310 C   0  0  0  0  0  3  0  0  0  0  0  0
  189.5550  173.4600  140.7050 C   0  0  0  0  0  0  0  0  0  0  0  0
  189.8370  174.3650  142.9660 C   0  0  0  0  0  0  0  0  0  0  0  0
  191.1080  172.2300  142.1960 C   0  0  0  0  0  2  0  0  0  0  0  0
  191.7250  174.9160  146.0880 C   0  0  0  0  0  3  0  0  0  0  0  0
  190.5800  174.3400  144.0720 C   0  0  0  0  0  3  0  0  0  0  0  0
  190.6290  175.1970  145.2600 C   0  0  0  0  0  0  0  0  0  0  0  0
  188.4880  176.6160  144.8930 C   0  0  0  0  0  0  0  0  0  0  0  0
  188.5970  172.1350  138.8420 C   0  0  0  0  0  1  0  0  0  0  0  0
  189.8820  172.5050  139.5720 C   0  0  2  0  0  3  0  0  0  0  0  0
  190.1540  173.3620  141.9100 C   0  0  0  0  0  0  0  0  0  0  0  0
  188.6500  174.5020  140.4620 O   0  0  0  0  0  0  0  0  0  0  0  0
  190.5660  171.2840  140.0290 N   0  0  0  0  0  0  0  0  0  0  0  0
  189.9800  176.9280  146.8250 C   0  0  0  0  0  3  0  0  0  0  0  0
  189.7210  176.2230  145.6300 C   0  0  0  0  0  0  0  0  0  0  0  0
  188.2500  175.3950  141.4600 C   0  0  0  0  0  3  0  0  0  0  0  0
  188.1610  176.2630  143.6470 C   0  0  0  0  0  3  0  0  0  0  0  0
  185.6210  177.7270  147.2030 C   0  0  0  0  0  0  0  0  0  0  0  0
  184.9250  178.6660  146.3120 C   0  0  0  0  0  3  0  0  0  0  0  0
  186.6540  178.3430  144.6160 C   0  0  0  0  0  0  0  0  0  0  0  0
  184.6710  179.7910  144.2640 O   0  0  0  0  0  1  0  0  0  0  0  0
  185.3880  178.9330  145.0890 C   0  0  0  0  0  0  0  0  0  0  0  0
  186.7190  176.8550  146.6720 C   0  0  0  0  0  2  0  0  0  0  0  0
  185.2430  177.5990  148.3950 O   0  0  0  0  0  0  0  0  0  0  0  0
  187.0470  178.5730  143.4400 O   0  0  0  0  0  0  0  0  0  0  0  0
  187.5280  177.5650  145.5780 C   0  0  1  0  0  3  0  0  0  0  0  0
  191.1740  170.6520  138.8640 C   0  0  0  0  0  2  0  0  0  0  0  0
  190.9130  169.1540  138.8760 C   0  0  0  0  0  2  0  0  0  0  0  0
  190.4410  168.6900  137.5130 C   0  0  0  0  0  1  0  0  0  0  0  0
  1  7  1  0  0  0  0
  2  6  1  0  0  0  0
  2 20  1  0  0  0  0
  3  4  1  0  0  0  0
  5 14  2  0  0  0  0
  6  9  2  0  0  0  0
  8  3  2  0  0  0  0
  9 10  1  0  0  0  0
 10 18  2  0  0  0  0
 10  8  1  0  0  0  0
 11 18  1  0  0  0  0
 13 12  1  1  0  0  0
 13 16  1  0  0  0  0
 13  5  1  0  0  0  0
 14  7  1  0  0  0  0
 14  6  1  0  0  0  0
 15  5  1  0  0  0  0
 15 19  1  0  0  0  0
 16  1  1  0  0  0  0
 17  4  2  0  0  0  0
 18 17  1  0  0  0  0
 19  2  2  0  0  0  0
 20 11  2  0  0  0  0
 21 27  2  0  0  0  0
 22 21  1  0  0  0  0
 23 25  1  0  0  0  0
 23 29  1  0  0  0  0
 24 25  1  0  0  0  0
 25 22  2  0  0  0  0
 26 21  1  0  0  0  0
 28 23  2  0  0  0  0
 29 11  1  6  0  0  0
 29 26  1  0  0  0  0
 30 31  1  0  0  0  0
 30 16  1  0  0  0  0
 32 31  1  0  0  0  0
M  END
>  <MODEL>
4

>  <REMARK>
 VINA RESULT:      -7.3      3.911      7.446
  Name = 
  3 active torsions:
  status: ('A' for Active; 'I' for Inactive)
    1  A    between atoms: C_1  and  C_10
    2  A    between atoms: C_10  and  N_24
    3  A    between atoms: C_16  and  C_32
                            x       y       z     vdW  Elec       q    Type
                         _______ _______ _______ _____ _____    ______ ____

>  <TORSDO>
F 3

$$$$
=
 OpenBabel11052421363D

 32 36  0  0  1  0  0  0  0  0999 V2000
  185.8370  178.3920  142.4490 C   0  0  0  0  0  2  0  0  0  0  0  0
  189.7620  175.2590  142.5760 C   0  0  0  0  0  0  0  0  0  0  0  0
  190.8290  176.8180  147.8200 C   0  0  0  0  0  3  0  0  0  0  0  0
  191.8800  175.9180  147.7180 C   0  0  0  0  0  3  0  0  0  0  0  0
  187.4950  176.4550  141.3240 C   0  0  0  0  0  0  0  0  0  0  0  0
  189.0510  176.3870  143.2180 C   0  0  0  0  0  0  0  0  0  0  0  0
  187.2330  178.2380  143.0270 C   0  0  0  0  0  2  0  0  0  0  0  0
  190.0320  177.0740  146.7080 C   0  0  0  0  0  3  0  0  0  0  0  0
  189.3050  176.8420  144.4430 C   0  0  0  0  0  3  0  0  0  0  0  0
  190.2620  176.4410  145.4780 C   0  0  0  0  0  0  0  0  0  0  0  0
  191.7520  174.8070  144.1180 C   0  0  0  0  0  0  0  0  0  0  0  0
  186.6060  176.9930  139.0730 C   0  0  0  0  0  1  0  0  0  0  0  0
  186.2980  176.9980  140.5660 C   0  0  2  0  0  3  0  0  0  0  0  0
  187.9050  177.0000  142.4880 C   0  0  0  0  0  0  0  0  0  0  0  0
  188.1460  175.3200  140.8220 O   0  0  0  0  0  0  0  0  0  0  0  0
  185.9160  178.3540  140.9930 N   0  0  0  0  0  0  0  0  0  0  0  0
  192.1300  175.2860  146.5020 C   0  0  0  0  0  3  0  0  0  0  0  0
  191.3410  175.5260  145.3570 C   0  0  0  0  0  0  0  0  0  0  0  0
  189.2880  174.7830  141.4240 C   0  0  0  0  0  3  0  0  0  0  0  0
  191.0410  174.6940  142.9930 C   0  0  0  0  0  3  0  0  0  0  0  0
  194.4760  172.4210  145.4100 C   0  0  0  0  0  0  0  0  0  0  0  0
  195.6680  173.2540  145.1970 C   0  0  0  0  0  3  0  0  0  0  0  0
  194.2790  174.9770  144.1590 C   0  0  0  0  0  0  0  0  0  0  0  0
  196.7230  175.2350  144.5010 O   0  0  0  0  0  1  0  0  0  0  0  0
  195.5760  174.4630  144.6400 C   0  0  0  0  0  0  0  0  0  0  0  0
  193.1050  173.0060  145.2460 C   0  0  0  0  0  2  0  0  0  0  0  0
  194.6050  171.2350  145.8070 O   0  0  0  0  0  0  0  0  0  0  0  0
  194.2100  176.1410  143.6790 O   0  0  0  0  0  0  0  0  0  0  0  0
  193.0710  174.0650  144.1360 C   0  0  1  0  0  3  0  0  0  0  0  0
  184.5630  178.6080  140.5100 C   0  0  0  0  0  2  0  0  0  0  0  0
  183.5410  178.1900  141.5550 C   0  0  0  0  0  2  0  0  0  0  0  0
  182.1500  178.1710  140.9540 C   0  0  0  0  0  1  0  0  0  0  0  0
  1  7  1  0  0  0  0
  2 20  1  0  0  0  0
  2  6  1  0  0  0  0
  4  3  1  0  0  0  0
  5 14  2  0  0  0  0
  6  9  2  0  0  0  0
  8  3  2  0  0  0  0
  9 10  1  0  0  0  0
 10  8  1  0  0  0  0
 11 18  1  0  0  0  0
 13 12  1  6  0  0  0
 13 16  1  0  0  0  0
 13  5  1  0  0  0  0
 14  7  1  0  0  0  0
 14  6  1  0  0  0  0
 15  5  1  0  0  0  0
 15 19  1  0  0  0  0
 16  1  1  0  0  0  0
 17  4  2  0  0  0  0
 18 10  2  0  0  0  0
 18 17  1  0  0  0  0
 19  2  2  0  0  0  0
 20 11  2  0  0  0  0
 21 27  2  0  0  0  0
 22 21  1  0  0  0  0
 23 25  1  0  0  0  0
 24 25  1  0  0  0  0
 25 22  2  0  0  0  0
 26 21  1  0  0  0  0
 28 23  2  0  0  0  0
 29 11  1  1  0  0  0
 29 23  1  0  0  0  0
 29 26  1  0  0  0  0
 30 16  1  0  0  0  0
 30 31  1  0  0  0  0
 32 31  1  0  0  0  0
M  END
>  <MODEL>
5

>  <REMARK>
 VINA RESULT:      -7.3      1.020      1.873
  Name = 
  3 active torsions:
  status: ('A' for Active; 'I' for Inactive)
    1  A    between atoms: C_1  and  C_10
    2  A    between atoms: C_10  and  N_24
    3  A    between atoms: C_16  and  C_32
                            x       y       z     vdW  Elec       q    Type
                         _______ _______ _______ _____ _____    ______ ____

>  <TORSDO>
F 3

$$$$
=
 OpenBabel11052421363D

 32 36  0  0  1  0  0  0  0  0999 V2000
  187.3130  178.1670  145.5040 C   0  0  0  0  0  2  0  0  0  0  0  0
  188.9040  174.4350  142.5400 C   0  0  0  0  0  0  0  0  0  0  0  0
  193.4010  173.7970  145.7700 C   0  0  0  0  0  3  0  0  0  0  0  0
  193.7220  172.7890  144.8710 C   0  0  0  0  0  3  0  0  0  0  0  0
  187.0380  176.4420  143.3300 C   0  0  0  0  0  0  0  0  0  0  0  0
  189.2330  175.3890  143.6220 C   0  0  0  0  0  0  0  0  0  0  0  0
  188.5730  177.5290  144.9460 C   0  0  0  0  0  2  0  0  0  0  0  0
  192.2780  174.5870  145.5440 C   0  0  0  0  0  3  0  0  0  0  0  0
  190.3230  175.3220  144.3840 C   0  0  0  0  0  3  0  0  0  0  0  0
  191.4550  174.3920  144.4270 C   0  0  0  0  0  0  0  0  0  0  0  0
  191.0410  173.0630  142.2360 C   0  0  0  0  0  0  0  0  0  0  0  0
  185.2790  177.9100  142.3820 C   0  0  0  0  0  1  0  0  0  0  0  0
  185.9610  177.4560  143.6680 C   0  0  2  0  0  3  0  0  0  0  0  0
  188.2350  176.4470  143.9520 C   0  0  0  0  0  0  0  0  0  0  0  0
  186.7480  175.4460  142.3890 O   0  0  0  0  0  0  0  0  0  0  0  0
  186.4800  178.6250  144.3960 N   0  0  0  0  0  0  0  0  0  0  0  0
  192.9210  172.5860  143.7500 C   0  0  0  0  0  3  0  0  0  0  0  0
  191.7780  173.3720  143.4940 C   0  0  0  0  0  0  0  0  0  0  0  0
  187.6960  174.5040  141.9790 C   0  0  0  0  0  3  0  0  0  0  0  0
  189.8260  173.5030  141.8990 C   0  0  0  0  0  3  0  0  0  0  0  0
  192.2220  171.7000  138.8400 C   0  0  0  0  0  0  0  0  0  0  0  0
  191.7930  170.3000  138.9640 C   0  0  0  0  0  3  0  0  0  0  0  0
  191.0440  170.7290  141.2500 C   0  0  0  0  0  0  0  0  0  0  0  0
  190.7820  168.5300  140.1330 O   0  0  0  0  0  1  0  0  0  0  0  0
  191.2140  169.8490  140.0780 C   0  0  0  0  0  0  0  0  0  0  0  0
  191.7900  172.7150  139.8560 C   0  0  0  0  0  2  0  0  0  0  0  0
  192.8880  172.0650  137.8370 O   0  0  0  0  0  0  0  0  0  0  0  0
  190.4520  170.2940  142.2750 O   0  0  0  0  0  0  0  0  0  0  0  0
  191.6830  172.1020  141.2590 C   0  0  1  0  0  3  0  0  0  0  0  0
  185.3450  179.3100  145.0040 C   0  0  0  0  0  2  0  0  0  0  0  0
  185.3030  179.0420  146.5010 C   0  0  0  0  0  2  0  0  0  0  0  0
  184.0590  178.2530  146.8590 C   0  0  0  0  0  1  0  0  0  0  0  0
  2  6  1  0  0  0  0
  4  3  2  0  0  0  0
  5 13  1  0  0  0  0
  5 14  2  0  0  0  0
  6 14  1  0  0  0  0
  6  9  2  0  0  0  0
  7  1  1  0  0  0  0
  8  3  1  0  0  0  0
  9 10  1  0  0  0  0
 10  8  2  0  0  0  0
 11 18  1  0  0  0  0
 13 12  1  6  0  0  0
 13 16  1  0  0  0  0
 14  7  1  0  0  0  0
 15  5  1  0  0  0  0
 16 30  1  0  0  0  0
 16  1  1  0  0  0  0
 17  4  1  0  0  0  0
 18 17  2  0  0  0  0
 18 10  1  0  0  0  0
 19 15  1  0  0  0  0
 19  2  2  0  0  0  0
 20 11  2  0  0  0  0
 20  2  1  0  0  0  0
 21 22  1  0  0  0  0
 21 26  1  0  0  0  0
 22 25  2  0  0  0  0
 23 29  1  0  0  0  0
 23 28  2  0  0  0  0
 25 24  1  0  0  0  0
 25 23  1  0  0  0  0
 26 29  1  0  0  0  0
 27 21  2  0  0  0  0
 29 11  1  1  0  0  0
 30 31  1  0  0  0  0
 31 32  1  0  0  0  0
M  END
>  <MODEL>
6

>  <REMARK>
 VINA RESULT:      -7.2      3.394      4.572
  Name = 
  3 active torsions:
  status: ('A' for Active; 'I' for Inactive)
    1  A    between atoms: C_1  and  C_10
    2  A    between atoms: C_10  and  N_24
    3  A    between atoms: C_16  and  C_32
                            x       y       z     vdW  Elec       q    Type
                         _______ _______ _______ _____ _____    ______ ____

>  <TORSDO>
F 3

$$$$
=
 OpenBabel11052421363D

 32 36  0  0  1  0  0  0  0  0999 V2000
  186.1770  177.4270  143.1180 C   0  0  0  0  0  2  0  0  0  0  0  0
  190.2000  174.4380  143.4640 C   0  0  0  0  0  0  0  0  0  0  0  0
  188.8640  172.0870  138.5900 C   0  0  0  0  0  3  0  0  0  0  0  0
  190.0040  171.3260  138.8130 C   0  0  0  0  0  3  0  0  0  0  0  0
  188.4930  176.5300  144.3840 C   0  0  0  0  0  0  0  0  0  0  0  0
  188.9170  174.7220  142.7830 C   0  0  0  0  0  0  0  0  0  0  0  0
  186.6690  176.0310  142.7790 C   0  0  0  0  0  2  0  0  0  0  0  0
  188.4360  172.9850  139.5640 C   0  0  0  0  0  3  0  0  0  0  0  0
  188.5180  174.1450  141.6510 C   0  0  0  0  0  3  0  0  0  0  0  0
  189.1290  173.1450  140.7720 C   0  0  0  0  0  0  0  0  0  0  0  0
  191.1130  172.3750  142.2590 C   0  0  0  0  0  0  0  0  0  0  0  0
  187.7890  177.6530  146.4790 C   0  0  0  0  0  1  0  0  0  0  0  0
  187.6780  177.6730  144.9590 C   0  0  2  0  0  3  0  0  0  0  0  0
  188.0470  175.7940  143.3450 C   0  0  0  0  0  0  0  0  0  0  0  0
  189.7650  176.2800  144.9170 O   0  0  0  0  0  0  0  0  0  0  0  0
  186.2610  177.6260  144.5610 N   0  0  0  0  0  0  0  0  0  0  0  0
  190.7000  171.4650  140.0110 C   0  0  0  0  0  3  0  0  0  0  0  0
  190.2900  172.3650  141.0170 C   0  0  0  0  0  0  0  0  0  0  0  0
  190.5620  175.2170  144.4850 C   0  0  0  0  0  3  0  0  0  0  0  0
  191.0630  173.2840  143.2360 C   0  0  0  0  0  3  0  0  0  0  0  0
  193.2200  169.6960  144.0380 C   0  0  0  0  0  0  0  0  0  0  0  0
  194.5550  170.0410  143.5280 C   0  0  0  0  0  3  0  0  0  0  0  0
  193.5690  171.7720  142.1120 C   0  0  0  0  0  0  0  0  0  0  0  0
  196.0110  171.3540  142.2330 O   0  0  0  0  0  1  0  0  0  0  0  0
  194.7260  171.0320  142.6510 C   0  0  0  0  0  0  0  0  0  0  0  0
  192.0560  170.6070  143.7850 C   0  0  0  0  0  2  0  0  0  0  0  0
  193.0690  168.6730  144.7540 O   0  0  0  0  0  0  0  0  0  0  0  0
  193.7600  172.7340  141.3210 O   0  0  0  0  0  0  0  0  0  0  0  0
  192.1640  171.2990  142.4190 C   0  0  1  0  0  3  0  0  0  0  0  0
  185.6820  178.9390  144.8210 C   0  0  0  0  0  2  0  0  0  0  0  0
  184.2320  178.8020  145.2580 C   0  0  0  0  0  2  0  0  0  0  0  0
  184.1560  178.2330  146.6610 C   0  0  0  0  0  1  0  0  0  0  0  0
  1 16  1  0  0  0  0
  2 19  2  0  0  0  0
  3  4  2  0  0  0  0
  3  8  1  0  0  0  0
  4 17  1  0  0  0  0
  5 15  1  0  0  0  0
  5 13  1  0  0  0  0
  6 14  1  0  0  0  0
  6  2  1  0  0  0  0
  7  1  1  0  0  0  0
  7 14  1  0  0  0  0
  8 10  2  0  0  0  0
  9  6  2  0  0  0  0
 10 18  1  0  0  0  0
 10  9  1  0  0  0  0
 11 20  2  0  0  0  0
 13 12  1  1  0  0  0
 14  5  2  0  0  0  0
 16 30  1  0  0  0  0
 16 13  1  0  0  0  0
 17 18  2  0  0  0  0
 18 11  1  0  0  0  0
 19 15  1  0  0  0  0
 20  2  1  0  0  0  0
 21 27  2  0  0  0  0
 22 21  1  0  0  0  0
 23 29  1  0  0  0  0
 23 25  1  0  0  0  0
 24 25  1  0  0  0  0
 25 22  2  0  0  0  0
 26 21  1  0  0  0  0
 28 23  2  0  0  0  0
 29 11  1  1  0  0  0
 29 26  1  0  0  0  0
 30 31  1  0  0  0  0
 31 32  1  0  0  0  0
M  END
>  <MODEL>
7

>  <REMARK>
 VINA RESULT:      -7.0      3.018      5.484
  Name = 
  3 active torsions:
  status: ('A' for Active; 'I' for Inactive)
    1  A    between atoms: C_1  and  C_10
    2  A    between atoms: C_10  and  N_24
    3  A    between atoms: C_16  and  C_32
                            x       y       z     vdW  Elec       q    Type
                         _______ _______ _______ _____ _____    ______ ____

>  <TORSDO>
F 3

$$$$
=
 OpenBabel11052421363D

 32 36  0  0  1  0  0  0  0  0999 V2000
  192.9580  170.9800  143.3820 C   0  0  0  0  0  2  0  0  0  0  0  0
  189.4950  174.6180  143.2670 C   0  0  0  0  0  0  0  0  0  0  0  0
  191.4450  176.6160  148.0920 C   0  0  0  0  0  3  0  0  0  0  0  0
  190.4410  177.5630  147.9360 C   0  0  0  0  0  3  0  0  0  0  0  0
  190.8360  172.3430  142.1920 C   0  0  0  0  0  0  0  0  0  0  0  0
  190.5080  173.8910  144.0640 C   0  0  0  0  0  0  0  0  0  0  0  0
  192.0670  171.8190  144.2810 C   0  0  0  0  0  2  0  0  0  0  0  0
  191.5520  175.5720  147.1780 C   0  0  0  0  0  3  0  0  0  0  0  0
  190.9640  174.2880  145.2510 C   0  0  0  0  0  3  0  0  0  0  0  0
  190.6710  175.4490  146.0950 C   0  0  0  0  0  0  0  0  0  0  0  0
  188.5890  176.3950  144.8680 C   0  0  0  0  0  0  0  0  0  0  0  0
  190.4430  170.4180  140.6790 C   0  0  0  0  0  1  0  0  0  0  0  0
  191.4880  171.1560  141.5070 C   0  0  2  0  0  3  0  0  0  0  0  0
  191.1350  172.6790  143.4640 C   0  0  0  0  0  0  0  0  0  0  0  0
  189.9480  173.1360  141.4540 O   0  0  0  0  0  0  0  0  0  0  0  0
  192.1230  170.2240  142.4540 N   0  0  0  0  0  0  0  0  0  0  0  0
  189.5510  177.4520  146.8710 C   0  0  0  0  0  3  0  0  0  0  0  0
  189.6340  176.4040  145.9300 C   0  0  0  0  0  0  0  0  0  0  0  0
  189.2620  174.2160  142.0180 C   0  0  0  0  0  3  0  0  0  0  0  0
  188.5940  175.6570  143.7560 C   0  0  0  0  0  3  0  0  0  0  0  0
  185.0930  177.6390  145.8760 C   0  0  0  0  0  0  0  0  0  0  0  0
  184.7030  178.3340  144.6410 C   0  0  0  0  0  3  0  0  0  0  0  0
  186.9020  177.8680  143.6830 C   0  0  0  0  0  0  0  0  0  0  0  0
  185.1060  179.0410  142.4370 O   0  0  0  0  0  1  0  0  0  0  0  0
  185.5350  178.4160  143.6010 C   0  0  0  0  0  0  0  0  0  0  0  0
  186.3280  176.7890  145.9080 C   0  0  0  0  0  2  0  0  0  0  0  0
  184.3470  177.6950  146.8880 O   0  0  0  0  0  0  0  0  0  0  0  0
  187.6530  177.9170  142.6710 O   0  0  0  0  0  0  0  0  0  0  0  0
  187.4310  177.3610  145.0070 C   0  0  1  0  0  3  0  0  0  0  0  0
  193.0330  169.3720  141.6970 C   0  0  0  0  0  2  0  0  0  0  0  0
  194.3480  170.0940  141.4440 C   0  0  0  0  0  2  0  0  0  0  0  0
  194.6690  170.1000  139.9640 C   0  0  0  0  0  1  0  0  0  0  0  0
  1  7  1  0  0  0  0
  2 20  1  0  0  0  0
  2  6  1  0  0  0  0
  4  3  1  0  0  0  0
  5 14  2  0  0  0  0
  6  9  2  0  0  0  0
  8  3  2  0  0  0  0
  9 10  1  0  0  0  0
 10  8  1  0  0  0  0
 11 18  1  0  0  0  0
 13 12  1  1  0  0  0
 13  5  1  0  0  0  0
 13 16  1  0  0  0  0
 14  6  1  0  0  0  0
 14  7  1  0  0  0  0
 15 19  1  0  0  0  0
 15  5  1  0  0  0  0
 16  1  1  0  0  0  0
 17  4  2  0  0  0  0
 18 10  2  0  0  0  0
 18 17  1  0  0  0  0
 19  2  2  0  0  0  0
 20 11  2  0  0  0  0
 21 26  1  0  0  0  0
 21 27  2  0  0  0  0
 22 21  1  0  0  0  0
 23 29  1  0  0  0  0
 24 25  1  0  0  0  0
 25 23  1  0  0  0  0
 25 22  2  0  0  0  0
 28 23  2  0  0  0  0
 29 11  1  6  0  0  0
 29 26  1  0  0  0  0
 30 16  1  0  0  0  0
 31 30  1  0  0  0  0
 32 31  1  0  0  0  0
M  END
>  <MODEL>
8

>  <REMARK>
 VINA RESULT:      -6.9      3.525      7.986
  Name = 
  3 active torsions:
  status: ('A' for Active; 'I' for Inactive)
    1  A    between atoms: C_1  and  C_10
    2  A    between atoms: C_10  and  N_24
    3  A    between atoms: C_16  and  C_32
                            x       y       z     vdW  Elec       q    Type
                         _______ _______ _______ _____ _____    ______ ____

>  <TORSDO>
F 3

$$$$
=
 OpenBabel11052421363D

 32 36  0  0  1  0  0  0  0  0999 V2000
  195.4580  174.9300  142.3100 C   0  0  0  0  0  2  0  0  0  0  0  0
  191.1960  176.3910  144.5330 C   0  0  0  0  0  0  0  0  0  0  0  0
  188.2660  173.3220  140.9180 C   0  0  0  0  0  3  0  0  0  0  0  0
  187.1720  173.8040  141.6220 C   0  0  0  0  0  3  0  0  0  0  0  0
  194.0340  176.3150  144.2660 C   0  0  0  0  0  0  0  0  0  0  0  0
  191.8290  175.7430  143.3630 C   0  0  0  0  0  0  0  0  0  0  0  0
  194.0050  175.2650  142.0200 C   0  0  0  0  0  2  0  0  0  0  0  0
  189.5430  173.7770  141.2350 C   0  0  0  0  0  3  0  0  0  0  0  0
  191.1710  175.0510  142.4340 C   0  0  0  0  0  3  0  0  0  0  0  0
  189.7560  174.7150  142.2560 C   0  0  0  0  0  0  0  0  0  0  0  0
  188.6880  176.2540  144.0510 C   0  0  0  0  0  0  0  0  0  0  0  0
  196.0490  177.6650  144.7830 C   0  0  0  0  0  1  0  0  0  0  0  0
  195.5520  176.3290  144.2430 C   0  0  2  0  0  3  0  0  0  0  0  0
  193.3150  175.7830  143.2570 C   0  0  0  0  0  0  0  0  0  0  0  0
  193.3780  176.8170  145.3980 O   0  0  0  0  0  0  0  0  0  0  0  0
  196.1070  176.0960  142.9000 N   0  0  0  0  0  0  0  0  0  0  0  0
  187.3630  174.7430  142.6330 C   0  0  0  0  0  3  0  0  0  0  0  0
  188.6440  175.2240  142.9760 C   0  0  0  0  0  0  0  0  0  0  0  0
  191.9850  176.8920  145.4840 C   0  0  0  0  0  3  0  0  0  0  0  0
  189.7760  176.6820  144.6970 C   0  0  0  0  0  3  0  0  0  0  0  0
  185.9670  178.9160  144.5980 C   0  0  0  0  0  0  0  0  0  0  0  0
  185.6380  178.6590  146.0080 C   0  0  0  0  0  3  0  0  0  0  0  0
  187.1850  176.7670  146.0260 C   0  0  0  0  0  0  0  0  0  0  0  0
  185.9200  177.4980  148.0310 O   0  0  0  0  0  1  0  0  0  0  0  0
  186.2280  177.6740  146.6880 C   0  0  0  0  0  0  0  0  0  0  0  0
  187.1520  178.2500  143.9650 C   0  0  0  0  0  2  0  0  0  0  0  0
  185.2990  179.7560  143.9430 O   0  0  0  0  0  0  0  0  0  0  0  0
  187.7640  175.8730  146.7010 O   0  0  0  0  0  0  0  0  0  0  0  0
  187.3740  176.8380  144.5250 C   0  0  1  0  0  3  0  0  0  0  0  0
  197.5120  175.7370  143.0560 C   0  0  0  0  0  2  0  0  0  0  0  0
  197.6590  174.2340  143.2360 C   0  0  0  0  0  2  0  0  0  0  0  0
  197.9410  173.9020  144.6870 C   0  0  0  0  0  1  0  0  0  0  0  0
  1 16  1  0  0  0  0
  2 20  1  0  0  0  0
  2 19  2  0  0  0  0
  3  8  2  0  0  0  0
  3  4  1  0  0  0  0
  4 17  2  0  0  0  0
  5 15  1  0  0  0  0
  6  2  1  0  0  0  0
  7  1  1  0  0  0  0
  7 14  1  0  0  0  0
  8 10  1  0  0  0  0
  9  6  2  0  0  0  0
 10  9  1  0  0  0  0
 10 18  2  0  0  0  0
 11 20  2  0  0  0  0
 13  5  1  0  0  0  0
 13 12  1  6  0  0  0
 14  6  1  0  0  0  0
 14  5  2  0  0  0  0
 15 19  1  0  0  0  0
 16 30  1  0  0  0  0
 16 13  1  0  0  0  0
 17 18  1  0  0  0  0
 18 11  1  0  0  0  0
 21 22  1  0  0  0  0
 22 25  2  0  0  0  0
 23 25  1  0  0  0  0
 23 28  2  0  0  0  0
 25 24  1  0  0  0  0
 26 29  1  0  0  0  0
 26 21  1  0  0  0  0
 27 21  2  0  0  0  0
 29 11  1  1  0  0  0
 29 23  1  0  0  0  0
 30 31  1  0  0  0  0
 31 32  1  0  0  0  0
M  END
>  <MODEL>
9

>  <REMARK>
 VINA RESULT:      -6.9      3.368      8.751
  Name = 
  3 active torsions:
  status: ('A' for Active; 'I' for Inactive)
    1  A    between atoms: C_1  and  C_10
    2  A    between atoms: C_10  and  N_24
    3  A    between atoms: C_16  and  C_32
                            x       y       z     vdW  Elec       q    Type
                         _______ _______ _______ _____ _____    ______ ____

>  <TORSDO>
F 3

$$$$
