=
 OpenBabel11052420223D

 34 37  0  0  0  0  0  0  0  0999 V2000
  187.9730  176.4710  145.6580 C   0  0  0  0  0  0  0  0  0  0  0  0
  187.3680  175.9400  141.9250 C   0  0  0  0  0  3  0  0  0  0  0  0
  188.7570  173.7750  141.6420 C   0  0  0  0  0  0  0  0  0  0  0  0
  186.1080  177.0490  143.6680 N   0  0  0  0  0  0  0  0  0  0  0  0
  186.4660  177.5740  147.2780 C   0  0  0  0  0  3  0  0  0  0  0  0
  184.3710  178.5170  146.5250 C   0  0  0  0  0  3  0  0  0  0  0  0
  189.4980  171.7810  143.0800 C   0  0  0  0  0  1  0  0  0  0  0  0
  185.2760  178.2520  147.5530 C   0  0  0  0  0  3  0  0  0  0  0  0
  185.8470  177.4330  144.9410 C   0  0  0  0  0  0  0  0  0  0  0  0
  186.7670  177.1450  145.9770 C   0  0  0  0  0  0  0  0  0  0  0  0
  184.6570  178.1090  145.2210 C   0  0  0  0  0  3  0  0  0  0  0  0
  188.0500  174.8650  141.6710 C   0  0  0  0  0  0  0  0  0  0  0  0
  188.7480  172.9410  140.4060 C   0  0  0  0  0  1  0  0  0  0  0  0
  189.2960  173.2480  142.9230 C   0  0  0  0  0  0  0  0  0  0  0  0
  189.6180  174.0310  143.9680 C   0  0  0  0  0  3  0  0  0  0  0  0
  187.2440  176.3910  143.3250 C   0  0  0  0  0  0  0  0  0  0  0  0
  189.5740  175.5370  143.9690 C   0  0  0  0  0  2  0  0  0  0  0  0
  188.2210  176.1110  144.3200 C   0  0  0  0  0  0  0  0  0  0  0  0
  188.9580  176.1470  146.6080 O   0  0  0  0  0  0  0  0  0  0  0  0
  190.0620  176.9750  146.9560 C   0  0  0  0  0  2  0  0  0  0  0  0
  191.0390  176.2010  147.8310 C   0  0  0  0  0  2  0  0  0  0  0  0
  194.4680  176.4630  146.2410 C   0  0  0  0  0  3  0  0  0  0  0  0
  192.4050  174.5890  146.4630 C   0  0  0  0  0  3  0  0  0  0  0  0
  194.5850  175.2170  145.6160 C   0  0  0  0  0  3  0  0  0  0  0  0
  193.5520  174.2800  145.7250 C   0  0  0  0  0  0  0  0  0  0  0  0
  192.2790  175.8440  147.0760 C   0  0  0  0  0  0  0  0  0  0  0  0
  193.3150  176.7770  146.9670 C   0  0  0  0  0  3  0  0  0  0  0  0
  193.6660  172.9630  145.0340 C   0  0  0  0  0  2  0  0  0  0  0  0
  193.4110  173.3220  142.5350 C   0  0  0  0  0  0  0  0  0  0  0  0
  194.6360  173.6010  142.4150 O   0  0  0  0  0  0  0  0  0  0  0  0
  192.8750  172.9610  143.8100 N   0  0  0  0  0  2  0  0  0  0  0  0
  192.5330  173.3580  141.3640 C   0  0  0  0  0  0  0  0  0  0  0  0
  192.3410  172.3180  140.6800 O   0  0  0  0  0  0  0  0  0  0  0  0
  191.9180  174.5130  141.0110 F   0  0  0  0  0  0  0  0  0  0  0  0
  1 10  1  0  0  0  0
  1 19  1  0  0  0  0
  2 16  1  0  0  0  0
  3 12  2  0  0  0  0
  3 14  1  0  0  0  0
  4  9  1  0  0  0  0
  5  8  1  0  0  0  0
  6  8  2  0  0  0  0
  9 11  2  0  0  0  0
  9 10  1  0  0  0  0
 10  5  2  0  0  0  0
 11  6  1  0  0  0  0
 12  2  2  0  0  0  0
 13  3  1  0  0  0  0
 14  7  1  0  0  0  0
 14 15  2  0  0  0  0
 15 17  1  0  0  0  0
 16  4  2  0  0  0  0
 16 18  1  0  0  0  0
 17 18  1  0  0  0  0
 18  1  2  0  0  0  0
 19 20  1  0  0  0  0
 20 21  1  0  0  0  0
 22 27  1  0  0  0  0
 23 26  1  0  0  0  0
 24 25  1  0  0  0  0
 24 22  2  0  0  0  0
 25 23  2  0  0  0  0
 26 21  1  0  0  0  0
 27 26  2  0  0  0  0
 28 25  1  0  0  0  0
 29 31  1  0  0  0  0
 30 29  2  0  0  0  0
 31 28  1  0  0  0  0
 32 29  1  0  0  0  0
 33 32  2  0  0  0  0
 34 32  1  0  0  0  0
M  END
>  <MODEL>
1

>  <REMARK>
 VINA RESULT:      -8.0      0.000      0.000
  Name = 
  7 active torsions:
  status: ('A' for Active; 'I' for Inactive)
    1  A    between atoms: C_1  and  O_9
    2  A    between atoms: C_7  and  C_11
    3  A    between atoms: C_8  and  O_9
    4  A    between atoms: C_8  and  C_18
    5  A    between atoms: C_18  and  C_30
    6  A    between atoms: C_26  and  C_28
    7  A    between atoms: C_26  and  N_29
                            x       y       z     vdW  Elec       q    Type
                         _______ _______ _______ _____ _____    ______ ____

>  <TORSDO>
F 7

$$$$
=
 OpenBabel11052420223D

 34 37  0  0  0  0  0  0  0  0999 V2000
  187.6210  176.9260  144.9810 C   0  0  0  0  0  0  0  0  0  0  0  0
  187.2120  176.6280  141.1960 C   0  0  0  0  0  3  0  0  0  0  0  0
  188.6530  174.5070  140.8460 C   0  0  0  0  0  0  0  0  0  0  0  0
  185.8470  177.6020  142.9410 N   0  0  0  0  0  0  0  0  0  0  0  0
  186.0160  177.8980  146.5910 C   0  0  0  0  0  3  0  0  0  0  0  0
  183.9440  178.8560  145.7940 C   0  0  0  0  0  3  0  0  0  0  0  0
  189.3590  172.4360  142.1890 C   0  0  0  0  0  1  0  0  0  0  0  0
  184.8010  178.5380  146.8480 C   0  0  0  0  0  3  0  0  0  0  0  0
  185.5160  177.8990  144.2210 C   0  0  0  0  0  0  0  0  0  0  0  0
  186.3890  177.5590  145.2810 C   0  0  0  0  0  0  0  0  0  0  0  0
  184.3010  178.5380  144.4830 C   0  0  0  0  0  3  0  0  0  0  0  0
  187.9260  175.5820  140.9090 C   0  0  0  0  0  0  0  0  0  0  0  0
  188.7200  173.7560  139.5600 C   0  0  0  0  0  1  0  0  0  0  0  0
  189.1380  173.9070  142.1160 C   0  0  0  0  0  0  0  0  0  0  0  0
  189.3940  174.6260  143.2240 C   0  0  0  0  0  3  0  0  0  0  0  0
  187.0110  176.9860  142.6140 C   0  0  0  0  0  0  0  0  0  0  0  0
  189.3210  176.1270  143.3190 C   0  0  0  0  0  2  0  0  0  0  0  0
  187.9420  176.6570  143.6370 C   0  0  0  0  0  0  0  0  0  0  0  0
  188.5640  176.5560  145.9570 O   0  0  0  0  0  0  0  0  0  0  0  0
  188.3520  175.5820  146.9720 C   0  0  0  0  0  2  0  0  0  0  0  0
  189.4550  174.5330  146.9280 C   0  0  0  0  0  2  0  0  0  0  0  0
  192.4090  176.7750  147.7010 C   0  0  0  0  0  3  0  0  0  0  0  0
  191.7170  174.7950  145.8550 C   0  0  0  0  0  3  0  0  0  0  0  0
  193.3090  176.4130  146.6950 C   0  0  0  0  0  3  0  0  0  0  0  0
  192.9630  175.4240  145.7690 C   0  0  0  0  0  0  0  0  0  0  0  0
  190.8070  175.1680  146.8530 C   0  0  0  0  0  0  0  0  0  0  0  0
  191.1580  176.1550  147.7790 C   0  0  0  0  0  3  0  0  0  0  0  0
  193.9120  175.0600  144.6780 C   0  0  0  0  0  2  0  0  0  0  0  0
  195.4260  173.1480  145.3800 C   0  0  0  0  0  0  0  0  0  0  0  0
  194.6010  172.2930  144.9580 O   0  0  0  0  0  0  0  0  0  0  0  0
  195.1560  174.5450  145.2370 N   0  0  0  0  0  2  0  0  0  0  0  0
  196.6740  172.7140  146.0130 C   0  0  0  0  0  0  0  0  0  0  0  0
  197.1750  171.5940  145.7310 O   0  0  0  0  0  0  0  0  0  0  0  0
  197.2980  173.5200  146.9070 F   0  0  0  0  0  0  0  0  0  0  0  0
  1 10  1  0  0  0  0
  1 19  1  0  0  0  0
  2 16  1  0  0  0  0
  3 12  2  0  0  0  0
  3 14  1  0  0  0  0
  4  9  1  0  0  0  0
  5  8  1  0  0  0  0
  6  8  2  0  0  0  0
  9 11  2  0  0  0  0
  9 10  1  0  0  0  0
 10  5  2  0  0  0  0
 11  6  1  0  0  0  0
 12  2  2  0  0  0  0
 13  3  1  0  0  0  0
 14  7  1  0  0  0  0
 14 15  2  0  0  0  0
 15 17  1  0  0  0  0
 16  4  2  0  0  0  0
 16 18  1  0  0  0  0
 17 18  1  0  0  0  0
 18  1  2  0  0  0  0
 19 20  1  0  0  0  0
 21 20  1  0  0  0  0
 22 27  1  0  0  0  0
 23 26  1  0  0  0  0
 24 22  2  0  0  0  0
 25 23  2  0  0  0  0
 25 24  1  0  0  0  0
 26 21  1  0  0  0  0
 26 27  2  0  0  0  0
 28 31  1  0  0  0  0
 28 25  1  0  0  0  0
 29 32  1  0  0  0  0
 30 29  2  0  0  0  0
 31 29  1  0  0  0  0
 32 34  1  0  0  0  0
 33 32  2  0  0  0  0
M  END
>  <MODEL>
2

>  <REMARK>
 VINA RESULT:      -8.0      2.129      2.648
  Name = 
  7 active torsions:
  status: ('A' for Active; 'I' for Inactive)
    1  A    between atoms: C_1  and  O_9
    2  A    between atoms: C_7  and  C_11
    3  A    between atoms: C_8  and  O_9
    4  A    between atoms: C_8  and  C_18
    5  A    between atoms: C_18  and  C_30
    6  A    between atoms: C_26  and  C_28
    7  A    between atoms: C_26  and  N_29
                            x       y       z     vdW  Elec       q    Type
                         _______ _______ _______ _____ _____    ______ ____

>  <TORSDO>
F 7

$$$$
=
 OpenBabel11052420223D

 34 37  0  0  0  0  0  0  0  0999 V2000
  187.9850  176.4950  145.7290 C   0  0  0  0  0  0  0  0  0  0  0  0
  187.4560  175.9040  141.9930 C   0  0  0  0  0  3  0  0  0  0  0  0
  188.8730  173.7500  141.7680 C   0  0  0  0  0  0  0  0  0  0  0  0
  186.1530  177.0240  143.6960 N   0  0  0  0  0  0  0  0  0  0  0  0
  186.4360  177.6050  147.3050 C   0  0  0  0  0  3  0  0  0  0  0  0
  184.3460  178.5150  146.4980 C   0  0  0  0  0  3  0  0  0  0  0  0
  189.6070  171.7850  143.2490 C   0  0  0  0  0  1  0  0  0  0  0  0
  185.2340  178.2740  147.5470 C   0  0  0  0  0  3  0  0  0  0  0  0
  185.8630  177.4240  144.9580 C   0  0  0  0  0  0  0  0  0  0  0  0
  186.7670  177.1600  146.0150 C   0  0  0  0  0  0  0  0  0  0  0  0
  184.6610  178.0910  145.2060 C   0  0  0  0  0  3  0  0  0  0  0  0
  188.1540  174.8320  141.7680 C   0  0  0  0  0  0  0  0  0  0  0  0
  188.8960  172.8980  140.5440 C   0  0  0  0  0  1  0  0  0  0  0  0
  189.3930  173.2470  143.0660 C   0  0  0  0  0  0  0  0  0  0  0  0
  189.6880  174.0480  144.1060 C   0  0  0  0  0  3  0  0  0  0  0  0
  187.3020  176.3740  143.3840 C   0  0  0  0  0  0  0  0  0  0  0  0
  189.6270  175.5540  144.0840 C   0  0  0  0  0  2  0  0  0  0  0  0
  188.2620  176.1180  144.4010 C   0  0  0  0  0  0  0  0  0  0  0  0
  188.9550  176.1950  146.7020 O   0  0  0  0  0  0  0  0  0  0  0  0
  190.1060  176.9840  146.9790 C   0  0  0  0  0  2  0  0  0  0  0  0
  191.0940  176.1900  147.8230 C   0  0  0  0  0  2  0  0  0  0  0  0
  194.4750  176.4160  146.1290 C   0  0  0  0  0  3  0  0  0  0  0  0
  192.4060  174.5600  146.4220 C   0  0  0  0  0  3  0  0  0  0  0  0
  194.5640  175.1670  145.5070 C   0  0  0  0  0  3  0  0  0  0  0  0
  193.5270  174.2390  145.6510 C   0  0  0  0  0  0  0  0  0  0  0  0
  192.3080  175.8180  147.0320 C   0  0  0  0  0  0  0  0  0  0  0  0
  193.3480  176.7430  146.8880 C   0  0  0  0  0  3  0  0  0  0  0  0
  193.6100  172.9180  144.9640 C   0  0  0  0  0  2  0  0  0  0  0  0
  194.3310  170.5670  145.5930 C   0  0  0  0  0  0  0  0  0  0  0  0
  193.5860  170.0650  144.7070 O   0  0  0  0  0  0  0  0  0  0  0  0
  194.4130  171.9870  145.7460 N   0  0  0  0  0  2  0  0  0  0  0  0
  195.1240  169.6980  146.4640 C   0  0  0  0  0  0  0  0  0  0  0  0
  196.3430  169.4950  146.2220 O   0  0  0  0  0  0  0  0  0  0  0  0
  194.5490  169.1090  147.5400 F   0  0  0  0  0  0  0  0  0  0  0  0
  1 10  1  0  0  0  0
  1 19  1  0  0  0  0
  2 16  1  0  0  0  0
  3 12  2  0  0  0  0
  3 14  1  0  0  0  0
  4  9  1  0  0  0  0
  5  8  1  0  0  0  0
  6  8  2  0  0  0  0
  9 11  2  0  0  0  0
  9 10  1  0  0  0  0
 10  5  2  0  0  0  0
 11  6  1  0  0  0  0
 12  2  2  0  0  0  0
 13  3  1  0  0  0  0
 14  7  1  0  0  0  0
 14 15  2  0  0  0  0
 16  4  2  0  0  0  0
 16 18  1  0  0  0  0
 17 15  1  0  0  0  0
 17 18  1  0  0  0  0
 18  1  2  0  0  0  0
 19 20  1  0  0  0  0
 20 21  1  0  0  0  0
 22 27  1  0  0  0  0
 23 26  1  0  0  0  0
 24 25  1  0  0  0  0
 24 22  2  0  0  0  0
 25 23  2  0  0  0  0
 26 21  1  0  0  0  0
 27 26  2  0  0  0  0
 28 25  1  0  0  0  0
 28 31  1  0  0  0  0
 29 31  1  0  0  0  0
 29 32  1  0  0  0  0
 30 29  2  0  0  0  0
 32 34  1  0  0  0  0
 33 32  2  0  0  0  0
M  END
>  <MODEL>
3

>  <REMARK>
 VINA RESULT:      -7.9      2.173      2.565
  Name = 
  7 active torsions:
  status: ('A' for Active; 'I' for Inactive)
    1  A    between atoms: C_1  and  O_9
    2  A    between atoms: C_7  and  C_11
    3  A    between atoms: C_8  and  O_9
    4  A    between atoms: C_8  and  C_18
    5  A    between atoms: C_18  and  C_30
    6  A    between atoms: C_26  and  C_28
    7  A    between atoms: C_26  and  N_29
                            x       y       z     vdW  Elec       q    Type
                         _______ _______ _______ _____ _____    ______ ____

>  <TORSDO>
F 7

$$$$
=
 OpenBabel11052420223D

 34 37  0  0  0  0  0  0  0  0999 V2000
  191.0610  174.3620  145.6090 C   0  0  0  0  0  0  0  0  0  0  0  0
  194.4590  175.9840  146.2430 C   0  0  0  0  0  3  0  0  0  0  0  0
  195.7500  174.8870  144.2860 C   0  0  0  0  0  0  0  0  0  0  0  0
  192.1870  176.6430  146.7480 N   0  0  0  0  0  0  0  0  0  0  0  0
  188.8330  175.2920  146.1430 C   0  0  0  0  0  3  0  0  0  0  0  0
  188.6570  177.4360  147.2480 C   0  0  0  0  0  3  0  0  0  0  0  0
  195.2370  173.9390  141.9550 C   0  0  0  0  0  1  0  0  0  0  0  0
  188.0490  176.3110  146.6890 C   0  0  0  0  0  3  0  0  0  0  0  0
  190.8370  176.5240  146.7200 C   0  0  0  0  0  0  0  0  0  0  0  0
  190.2330  175.3840  146.1380 C   0  0  0  0  0  0  0  0  0  0  0  0
  190.0490  177.5420  147.2630 C   0  0  0  0  0  3  0  0  0  0  0  0
  195.2010  175.4770  145.3050 C   0  0  0  0  0  0  0  0  0  0  0  0
  197.1240  175.2900  143.8720 C   0  0  0  0  0  1  0  0  0  0  0  0
  194.8870  174.0660  143.3970 C   0  0  0  0  0  0  0  0  0  0  0  0
  193.7890  173.4170  143.8250 C   0  0  0  0  0  3  0  0  0  0  0  0
  193.0120  175.6930  146.2410 C   0  0  0  0  0  0  0  0  0  0  0  0
  193.3270  173.3470  145.2570 C   0  0  0  0  0  2  0  0  0  0  0  0
  192.4590  174.5090  145.6800 C   0  0  0  0  0  0  0  0  0  0  0  0
  190.5640  173.1850  145.0200 O   0  0  0  0  0  0  0  0  0  0  0  0
  189.6920  173.1370  143.8980 C   0  0  0  0  0  2  0  0  0  0  0  0
  190.2600  173.9720  142.7580 C   0  0  0  0  0  2  0  0  0  0  0  0
  189.9480  177.7480  142.7770 C   0  0  0  0  0  3  0  0  0  0  0  0
  188.2700  175.5130  142.7030 C   0  0  0  0  0  3  0  0  0  0  0  0
  188.5600  177.9160  142.7590 C   0  0  0  0  0  3  0  0  0  0  0  0
  187.7200  176.7990  142.7250 C   0  0  0  0  0  0  0  0  0  0  0  0
  189.6610  175.3420  142.7370 C   0  0  0  0  0  0  0  0  0  0  0  0
  190.4980  176.4620  142.7690 C   0  0  0  0  0  3  0  0  0  0  0  0
  186.2390  176.9800  142.7360 C   0  0  0  0  0  2  0  0  0  0  0  0
  185.4650  178.4860  144.6260 C   0  0  0  0  0  0  0  0  0  0  0  0
  185.5460  179.5080  143.8910 O   0  0  0  0  0  0  0  0  0  0  0  0
  185.7630  177.1910  144.0980 N   0  0  0  0  0  2  0  0  0  0  0  0
  185.0530  178.6190  146.0250 C   0  0  0  0  0  0  0  0  0  0  0  0
  184.1160  177.9150  146.4840 O   0  0  0  0  0  0  0  0  0  0  0  0
  185.6840  179.5030  146.8370 F   0  0  0  0  0  0  0  0  0  0  0  0
  1 18  2  0  0  0  0
  1 10  1  0  0  0  0
  3 12  2  0  0  0  0
  5  8  1  0  0  0  0
  6 11  1  0  0  0  0
  7 14  1  0  0  0  0
  8  6  2  0  0  0  0
  9  4  1  0  0  0  0
  9 11  2  0  0  0  0
 10  5  2  0  0  0  0
 10  9  1  0  0  0  0
 12  2  2  0  0  0  0
 13  3  1  0  0  0  0
 14 15  2  0  0  0  0
 14  3  1  0  0  0  0
 15 17  1  0  0  0  0
 16  2  1  0  0  0  0
 16  4  2  0  0  0  0
 17 18  1  0  0  0  0
 18 16  1  0  0  0  0
 19  1  1  0  0  0  0
 20 19  1  0  0  0  0
 21 20  1  0  0  0  0
 23 25  2  0  0  0  0
 23 26  1  0  0  0  0
 24 22  2  0  0  0  0
 25 28  1  0  0  0  0
 25 24  1  0  0  0  0
 26 21  1  0  0  0  0
 26 27  2  0  0  0  0
 27 22  1  0  0  0  0
 28 31  1  0  0  0  0
 29 32  1  0  0  0  0
 30 29  2  0  0  0  0
 31 29  1  0  0  0  0
 32 33  2  0  0  0  0
 32 34  1  0  0  0  0
M  END
>  <MODEL>
4

>  <REMARK>
 VINA RESULT:      -7.8      2.727      6.898
  Name = 
  7 active torsions:
  status: ('A' for Active; 'I' for Inactive)
    1  A    between atoms: C_1  and  O_9
    2  A    between atoms: C_7  and  C_11
    3  A    between atoms: C_8  and  O_9
    4  A    between atoms: C_8  and  C_18
    5  A    between atoms: C_18  and  C_30
    6  A    between atoms: C_26  and  C_28
    7  A    between atoms: C_26  and  N_29
                            x       y       z     vdW  Elec       q    Type
                         _______ _______ _______ _____ _____    ______ ____

>  <TORSDO>
F 7

$$$$
=
 OpenBabel11052420223D

 34 37  0  0  0  0  0  0  0  0999 V2000
  187.6540  176.5370  145.3670 C   0  0  0  0  0  0  0  0  0  0  0  0
  187.4550  176.5830  141.5540 C   0  0  0  0  0  3  0  0  0  0  0  0
  188.7650  174.3970  141.1010 C   0  0  0  0  0  0  0  0  0  0  0  0
  186.0580  177.5090  143.2990 N   0  0  0  0  0  0  0  0  0  0  0  0
  186.0260  177.4900  146.9650 C   0  0  0  0  0  3  0  0  0  0  0  0
  184.0770  178.6610  146.1420 C   0  0  0  0  0  3  0  0  0  0  0  0
  189.2420  172.1760  142.2970 C   0  0  0  0  0  1  0  0  0  0  0  0
  184.8450  178.1950  147.2100 C   0  0  0  0  0  3  0  0  0  0  0  0
  185.6720  177.7230  144.5800 C   0  0  0  0  0  0  0  0  0  0  0  0
  186.4530  177.2330  145.6530 C   0  0  0  0  0  0  0  0  0  0  0  0
  184.4900  178.4260  144.8300 C   0  0  0  0  0  3  0  0  0  0  0  0
  188.1110  175.5140  141.2170 C   0  0  0  0  0  0  0  0  0  0  0  0
  188.8570  173.7510  139.7610 C   0  0  0  0  0  1  0  0  0  0  0  0
  189.1290  173.6600  142.3390 C   0  0  0  0  0  0  0  0  0  0  0  0
  189.3660  174.2640  143.5170 C   0  0  0  0  0  3  0  0  0  0  0  0
  187.1940  176.8370  142.9850 C   0  0  0  0  0  0  0  0  0  0  0  0
  189.3920  175.7540  143.7370 C   0  0  0  0  0  2  0  0  0  0  0  0
  188.0370  176.3570  144.0240 C   0  0  0  0  0  0  0  0  0  0  0  0
  188.5090  176.0190  146.3570 O   0  0  0  0  0  0  0  0  0  0  0  0
  189.6150  176.7100  146.9260 C   0  0  0  0  0  2  0  0  0  0  0  0
  190.5800  175.7190  147.5610 C   0  0  0  0  0  2  0  0  0  0  0  0
  194.0940  176.7940  146.6380 C   0  0  0  0  0  3  0  0  0  0  0  0
  192.2390  174.8450  145.8800 C   0  0  0  0  0  3  0  0  0  0  0  0
  194.4060  175.8920  145.6170 C   0  0  0  0  0  3  0  0  0  0  0  0
  193.4780  174.9180  145.2350 C   0  0  0  0  0  0  0  0  0  0  0  0
  191.9180  175.7590  146.8930 C   0  0  0  0  0  0  0  0  0  0  0  0
  192.8510  176.7290  147.2740 C   0  0  0  0  0  3  0  0  0  0  0  0
  193.8000  173.9760  144.1250 C   0  0  0  0  0  2  0  0  0  0  0  0
  193.9230  175.2780  141.9500 C   0  0  0  0  0  0  0  0  0  0  0  0
  192.6660  175.3060  141.8560 O   0  0  0  0  0  0  0  0  0  0  0  0
  194.5490  174.6600  143.0780 N   0  0  0  0  0  2  0  0  0  0  0  0
  194.7510  175.8880  140.9080 C   0  0  0  0  0  0  0  0  0  0  0  0
  194.9760  175.2740  139.8320 O   0  0  0  0  0  0  0  0  0  0  0  0
  195.2790  177.1220  141.0960 F   0  0  0  0  0  0  0  0  0  0  0  0
  1 10  1  0  0  0  0
  1 19  1  0  0  0  0
  2 16  1  0  0  0  0
  3 12  2  0  0  0  0
  3 14  1  0  0  0  0
  4  9  1  0  0  0  0
  5  8  1  0  0  0  0
  6  8  2  0  0  0  0
  7 14  1  0  0  0  0
  9 11  2  0  0  0  0
  9 10  1  0  0  0  0
 10  5  2  0  0  0  0
 11  6  1  0  0  0  0
 12  2  2  0  0  0  0
 13  3  1  0  0  0  0
 14 15  2  0  0  0  0
 15 17  1  0  0  0  0
 16  4  2  0  0  0  0
 16 18  1  0  0  0  0
 17 18  1  0  0  0  0
 18  1  2  0  0  0  0
 19 20  1  0  0  0  0
 20 21  1  0  0  0  0
 22 27  1  0  0  0  0
 23 26  1  0  0  0  0
 24 22  2  0  0  0  0
 25 24  1  0  0  0  0
 25 23  2  0  0  0  0
 26 27  2  0  0  0  0
 26 21  1  0  0  0  0
 28 25  1  0  0  0  0
 29 31  1  0  0  0  0
 30 29  2  0  0  0  0
 31 28  1  0  0  0  0
 32 34  1  0  0  0  0
 32 29  1  0  0  0  0
 33 32  2  0  0  0  0
M  END
>  <MODEL>
5

>  <REMARK>
 VINA RESULT:      -7.7      1.428      1.501
  Name = 
  7 active torsions:
  status: ('A' for Active; 'I' for Inactive)
    1  A    between atoms: C_1  and  O_9
    2  A    between atoms: C_7  and  C_11
    3  A    between atoms: C_8  and  O_9
    4  A    between atoms: C_8  and  C_18
    5  A    between atoms: C_18  and  C_30
    6  A    between atoms: C_26  and  C_28
    7  A    between atoms: C_26  and  N_29
                            x       y       z     vdW  Elec       q    Type
                         _______ _______ _______ _____ _____    ______ ____

>  <TORSDO>
F 7

$$$$
=
 OpenBabel11052420223D

 34 37  0  0  0  0  0  0  0  0999 V2000
  190.8070  174.2930  145.2630 C   0  0  0  0  0  0  0  0  0  0  0  0
  192.4150  171.9700  142.6930 C   0  0  0  0  0  3  0  0  0  0  0  0
  190.3750  171.7080  141.1220 C   0  0  0  0  0  0  0  0  0  0  0  0
  193.3040  173.6240  144.2190 N   0  0  0  0  0  0  0  0  0  0  0  0
  191.9350  175.9930  146.6590 C   0  0  0  0  0  3  0  0  0  0  0  0
  194.3330  176.2700  146.5160 C   0  0  0  0  0  3  0  0  0  0  0  0
  188.2960  173.0580  140.4530 C   0  0  0  0  0  1  0  0  0  0  0  0
  193.1050  176.6370  147.0680 C   0  0  0  0  0  3  0  0  0  0  0  0
  193.2250  174.6080  145.1470 C   0  0  0  0  0  0  0  0  0  0  0  0
  191.9710  174.9800  145.6890 C   0  0  0  0  0  0  0  0  0  0  0  0
  194.3920  175.2570  145.5580 C   0  0  0  0  0  3  0  0  0  0  0  0
  191.4500  171.7580  141.8500 C   0  0  0  0  0  0  0  0  0  0  0  0
  190.4400  171.0540  139.7840 C   0  0  0  0  0  1  0  0  0  0  0  0
  189.2190  172.5590  141.5090 C   0  0  0  0  0  0  0  0  0  0  0  0
  188.9520  172.9110  142.7790 C   0  0  0  0  0  3  0  0  0  0  0  0
  192.2110  172.9520  143.7770 C   0  0  0  0  0  0  0  0  0  0  0  0
  189.7110  172.4310  143.9890 C   0  0  0  0  0  2  0  0  0  0  0  0
  190.9320  173.2580  144.3160 C   0  0  0  0  0  0  0  0  0  0  0  0
  189.5160  174.5750  145.7450 O   0  0  0  0  0  0  0  0  0  0  0  0
  188.7650  175.7430  145.4360 C   0  0  0  0  0  2  0  0  0  0  0  0
  187.9330  176.1630  146.6400 C   0  0  0  0  0  2  0  0  0  0  0  0
  184.5320  177.8310  146.6160 C   0  0  0  0  0  3  0  0  0  0  0  0
  186.8670  177.8240  145.0790 C   0  0  0  0  0  3  0  0  0  0  0  0
  184.6070  178.6070  145.4560 C   0  0  0  0  0  3  0  0  0  0  0  0
  185.7730  178.6030  144.6850 C   0  0  0  0  0  0  0  0  0  0  0  0
  186.7870  177.0320  146.2330 C   0  0  0  0  0  0  0  0  0  0  0  0
  185.6200  177.0420  147.0030 C   0  0  0  0  0  3  0  0  0  0  0  0
  185.8410  179.4090  143.4320 C   0  0  0  0  0  2  0  0  0  0  0  0
  186.0010  177.9600  141.3540 C   0  0  0  0  0  0  0  0  0  0  0  0
  184.7460  177.9440  141.2270 O   0  0  0  0  0  0  0  0  0  0  0  0
  186.6090  178.7030  142.4140 N   0  0  0  0  0  2  0  0  0  0  0  0
  186.8440  177.2240  140.4100 C   0  0  0  0  0  0  0  0  0  0  0  0
  186.6460  177.3220  139.1700 O   0  0  0  0  0  0  0  0  0  0  0  0
  187.8450  176.4330  140.8670 F   0  0  0  0  0  0  0  0  0  0  0  0
  1 10  1  0  0  0  0
  1 19  1  0  0  0  0
  2 16  1  0  0  0  0
  3 14  1  0  0  0  0
  3 12  2  0  0  0  0
  4  9  1  0  0  0  0
  5  8  1  0  0  0  0
  6  8  2  0  0  0  0
  7 14  1  0  0  0  0
  9 11  2  0  0  0  0
  9 10  1  0  0  0  0
 10  5  2  0  0  0  0
 11  6  1  0  0  0  0
 12  2  2  0  0  0  0
 13  3  1  0  0  0  0
 14 15  2  0  0  0  0
 15 17  1  0  0  0  0
 16  4  2  0  0  0  0
 16 18  1  0  0  0  0
 17 18  1  0  0  0  0
 18  1  2  0  0  0  0
 20 19  1  0  0  0  0
 20 21  1  0  0  0  0
 22 27  1  0  0  0  0
 23 26  1  0  0  0  0
 24 22  2  0  0  0  0
 25 23  2  0  0  0  0
 25 24  1  0  0  0  0
 26 21  1  0  0  0  0
 26 27  2  0  0  0  0
 28 25  1  0  0  0  0
 29 31  1  0  0  0  0
 30 29  2  0  0  0  0
 31 28  1  0  0  0  0
 32 34  1  0  0  0  0
 32 29  1  0  0  0  0
 33 32  2  0  0  0  0
M  END
>  <MODEL>
6

>  <REMARK>
 VINA RESULT:      -7.7      2.393      6.818
  Name = 
  7 active torsions:
  status: ('A' for Active; 'I' for Inactive)
    1  A    between atoms: C_1  and  O_9
    2  A    between atoms: C_7  and  C_11
    3  A    between atoms: C_8  and  O_9
    4  A    between atoms: C_8  and  C_18
    5  A    between atoms: C_18  and  C_30
    6  A    between atoms: C_26  and  C_28
    7  A    between atoms: C_26  and  N_29
                            x       y       z     vdW  Elec       q    Type
                         _______ _______ _______ _____ _____    ______ ____

>  <TORSDO>
F 7

$$$$
=
 OpenBabel11052420223D

 34 37  0  0  0  0  0  0  0  0999 V2000
  188.1120  177.4660  144.9230 C   0  0  0  0  0  0  0  0  0  0  0  0
  186.6390  177.0100  141.4300 C   0  0  0  0  0  3  0  0  0  0  0  0
  188.3530  175.2870  140.5410 C   0  0  0  0  0  0  0  0  0  0  0  0
  185.6910  177.6640  143.5580 N   0  0  0  0  0  0  0  0  0  0  0  0
  186.9010  178.0580  146.9950 C   0  0  0  0  0  3  0  0  0  0  0  0
  184.5210  178.4810  146.9190 C   0  0  0  0  0  3  0  0  0  0  0  0
  189.8980  173.4680  141.4890 C   0  0  0  0  0  1  0  0  0  0  0  0
  185.7100  178.3960  147.6440 C   0  0  0  0  0  3  0  0  0  0  0  0
  185.7100  177.8970  144.8930 C   0  0  0  0  0  0  0  0  0  0  0  0
  186.9210  177.7940  145.6180 C   0  0  0  0  0  0  0  0  0  0  0  0
  184.5210  178.2330  145.5460 C   0  0  0  0  0  3  0  0  0  0  0  0
  187.4520  176.1580  140.8820 C   0  0  0  0  0  0  0  0  0  0  0  0
  188.1940  174.5490  139.2550 C   0  0  0  0  0  1  0  0  0  0  0  0
  189.3300  174.8430  141.5690 C   0  0  0  0  0  0  0  0  0  0  0  0
  189.7410  175.6220  142.5860 C   0  0  0  0  0  3  0  0  0  0  0  0
  186.8070  177.3360  142.8600 C   0  0  0  0  0  0  0  0  0  0  0  0
  189.3540  177.0650  142.7820 C   0  0  0  0  0  2  0  0  0  0  0  0
  188.0570  177.2570  143.5320 C   0  0  0  0  0  0  0  0  0  0  0  0
  189.3680  177.3500  145.5450 O   0  0  0  0  0  0  0  0  0  0  0  0
  189.7140  176.3660  146.5130 C   0  0  0  0  0  2  0  0  0  0  0  0
  189.0840  175.0290  146.1480 C   0  0  0  0  0  2  0  0  0  0  0  0
  190.6280  171.9450  144.5790 C   0  0  0  0  0  3  0  0  0  0  0  0
  191.4420  174.4660  145.4710 C   0  0  0  0  0  3  0  0  0  0  0  0
  191.9760  172.3100  144.5080 C   0  0  0  0  0  3  0  0  0  0  0  0
  192.3850  173.5690  144.9560 C   0  0  0  0  0  0  0  0  0  0  0  0
  190.0930  174.0960  145.5590 C   0  0  0  0  0  0  0  0  0  0  0  0
  189.6880  172.8360  145.1070 C   0  0  0  0  0  3  0  0  0  0  0  0
  193.8270  173.9460  144.9070 C   0  0  0  0  0  2  0  0  0  0  0  0
  194.6470  176.3420  145.0720 C   0  0  0  0  0  0  0  0  0  0  0  0
  194.9360  176.3650  143.8450 O   0  0  0  0  0  0  0  0  0  0  0  0
  194.0580  175.1760  145.6540 N   0  0  0  0  0  2  0  0  0  0  0  0
  194.9050  177.5160  145.9090 C   0  0  0  0  0  0  0  0  0  0  0  0
  195.3990  178.5600  145.4070 O   0  0  0  0  0  0  0  0  0  0  0  0
  194.6100  177.4850  147.2310 F   0  0  0  0  0  0  0  0  0  0  0  0
  1 19  1  0  0  0  0
  1 10  1  0  0  0  0
  2 16  1  0  0  0  0
  3 12  2  0  0  0  0
  3 14  1  0  0  0  0
  4  9  1  0  0  0  0
  5  8  1  0  0  0  0
  6  8  2  0  0  0  0
  7 14  1  0  0  0  0
  9 11  2  0  0  0  0
  9 10  1  0  0  0  0
 10  5  2  0  0  0  0
 11  6  1  0  0  0  0
 12  2  2  0  0  0  0
 13  3  1  0  0  0  0
 14 15  2  0  0  0  0
 15 17  1  0  0  0  0
 16 18  1  0  0  0  0
 16  4  2  0  0  0  0
 17 18  1  0  0  0  0
 18  1  2  0  0  0  0
 19 20  1  0  0  0  0
 21 20  1  0  0  0  0
 22 27  1  0  0  0  0
 23 26  1  0  0  0  0
 24 22  2  0  0  0  0
 24 25  1  0  0  0  0
 25 23  2  0  0  0  0
 26 21  1  0  0  0  0
 27 26  2  0  0  0  0
 28 25  1  0  0  0  0
 28 31  1  0  0  0  0
 29 31  1  0  0  0  0
 29 32  1  0  0  0  0
 30 29  2  0  0  0  0
 32 34  1  0  0  0  0
 33 32  2  0  0  0  0
M  END
>  <MODEL>
7

>  <REMARK>
 VINA RESULT:      -7.6      2.226      3.240
  Name = 
  7 active torsions:
  status: ('A' for Active; 'I' for Inactive)
    1  A    between atoms: C_1  and  O_9
    2  A    between atoms: C_7  and  C_11
    3  A    between atoms: C_8  and  O_9
    4  A    between atoms: C_8  and  C_18
    5  A    between atoms: C_18  and  C_30
    6  A    between atoms: C_26  and  C_28
    7  A    between atoms: C_26  and  N_29
                            x       y       z     vdW  Elec       q    Type
                         _______ _______ _______ _____ _____    ______ ____

>  <TORSDO>
F 7

$$$$
=
 OpenBabel11052420223D

 34 37  0  0  0  0  0  0  0  0999 V2000
  191.3220  175.3010  145.2790 C   0  0  0  0  0  0  0  0  0  0  0  0
  190.5820  172.3520  142.9690 C   0  0  0  0  0  3  0  0  0  0  0  0
  188.6180  173.4100  141.6560 C   0  0  0  0  0  0  0  0  0  0  0  0
  192.5730  173.0940  144.1260 N   0  0  0  0  0  0  0  0  0  0  0  0
  193.4990  175.9130  146.2790 C   0  0  0  0  0  3  0  0  0  0  0  0
  195.4410  174.5310  145.8710 C   0  0  0  0  0  3  0  0  0  0  0  0
  187.8180  175.7540  140.9800 C   0  0  0  0  0  1  0  0  0  0  0  0
  194.8570  175.6480  146.4710 C   0  0  0  0  0  3  0  0  0  0  0  0
  193.3080  173.9370  144.8910 C   0  0  0  0  0  0  0  0  0  0  0  0
  192.7060  175.0740  145.4810 C   0  0  0  0  0  0  0  0  0  0  0  0
  194.6680  173.6770  145.0830 C   0  0  0  0  0  3  0  0  0  0  0  0
  189.5790  172.7810  142.2640 C   0  0  0  0  0  0  0  0  0  0  0  0
  188.0130  172.8000  140.4380 C   0  0  0  0  0  1  0  0  0  0  0  0
  188.3700  174.8320  142.0100 C   0  0  0  0  0  0  0  0  0  0  0  0
  188.6180  175.3450  143.2290 C   0  0  0  0  0  3  0  0  0  0  0  0
  191.2490  173.2850  143.8990 C   0  0  0  0  0  0  0  0  0  0  0  0
  189.0860  174.5550  144.4230 C   0  0  0  0  0  2  0  0  0  0  0  0
  190.5850  174.3890  144.5000 C   0  0  0  0  0  0  0  0  0  0  0  0
  190.6240  176.3910  145.8300 O   0  0  0  0  0  0  0  0  0  0  0  0
  189.8590  176.3520  147.0290 C   0  0  0  0  0  2  0  0  0  0  0  0
  189.0370  177.6260  147.1670 C   0  0  0  0  0  2  0  0  0  0  0  0
  185.4700  176.6480  146.3500 C   0  0  0  0  0  3  0  0  0  0  0  0
  187.5520  178.1110  145.1940 C   0  0  0  0  0  3  0  0  0  0  0  0
  185.2980  177.2340  145.0920 C   0  0  0  0  0  3  0  0  0  0  0  0
  186.3400  177.9630  144.5110 C   0  0  0  0  0  0  0  0  0  0  0  0
  187.7320  177.5120  146.4480 C   0  0  0  0  0  0  0  0  0  0  0  0
  186.6860  176.7850  147.0260 C   0  0  0  0  0  3  0  0  0  0  0  0
  186.1660  178.5620  143.1570 C   0  0  0  0  0  2  0  0  0  0  0  0
  184.4320  178.2910  141.3230 C   0  0  0  0  0  0  0  0  0  0  0  0
  185.3260  178.2640  140.4340 O   0  0  0  0  0  0  0  0  0  0  0  0
  184.7900  178.4020  142.7030 N   0  0  0  0  0  2  0  0  0  0  0  0
  183.0200  178.1990  140.9470 C   0  0  0  0  0  0  0  0  0  0  0  0
  182.1260  178.6580  141.7070 O   0  0  0  0  0  0  0  0  0  0  0  0
  182.6670  177.6200  139.7740 F   0  0  0  0  0  0  0  0  0  0  0  0
  1 10  1  0  0  0  0
  1 19  1  0  0  0  0
  2 16  1  0  0  0  0
  3 14  1  0  0  0  0
  3 12  2  0  0  0  0
  4  9  1  0  0  0  0
  5  8  1  0  0  0  0
  6  8  2  0  0  0  0
  7 14  1  0  0  0  0
  9 11  2  0  0  0  0
  9 10  1  0  0  0  0
 10  5  2  0  0  0  0
 11  6  1  0  0  0  0
 12  2  2  0  0  0  0
 13  3  1  0  0  0  0
 14 15  2  0  0  0  0
 15 17  1  0  0  0  0
 16  4  2  0  0  0  0
 16 18  1  0  0  0  0
 17 18  1  0  0  0  0
 18  1  2  0  0  0  0
 19 20  1  0  0  0  0
 20 21  1  0  0  0  0
 22 27  1  0  0  0  0
 23 26  1  0  0  0  0
 24 22  2  0  0  0  0
 25 24  1  0  0  0  0
 25 23  2  0  0  0  0
 26 27  2  0  0  0  0
 26 21  1  0  0  0  0
 28 25  1  0  0  0  0
 29 31  1  0  0  0  0
 30 29  2  0  0  0  0
 31 28  1  0  0  0  0
 32 29  1  0  0  0  0
 32 33  2  0  0  0  0
 34 32  1  0  0  0  0
M  END
>  <MODEL>
8

>  <REMARK>
 VINA RESULT:      -7.5      3.011      7.287
  Name = 
  7 active torsions:
  status: ('A' for Active; 'I' for Inactive)
    1  A    between atoms: C_1  and  O_9
    2  A    between atoms: C_7  and  C_11
    3  A    between atoms: C_8  and  O_9
    4  A    between atoms: C_8  and  C_18
    5  A    between atoms: C_18  and  C_30
    6  A    between atoms: C_26  and  C_28
    7  A    between atoms: C_26  and  N_29
                            x       y       z     vdW  Elec       q    Type
                         _______ _______ _______ _____ _____    ______ ____

>  <TORSDO>
F 7

$$$$
=
 OpenBabel11052420223D

 34 37  0  0  0  0  0  0  0  0999 V2000
  187.6450  176.4210  144.4050 C   0  0  0  0  0  0  0  0  0  0  0  0
  189.9450  176.8050  147.4290 C   0  0  0  0  0  3  0  0  0  0  0  0
  192.1910  176.3330  146.2330 C   0  0  0  0  0  0  0  0  0  0  0  0
  187.7710  177.7100  146.8730 N   0  0  0  0  0  0  0  0  0  0  0  0
  185.4760  177.5430  144.0190 C   0  0  0  0  0  3  0  0  0  0  0  0
  184.5740  179.0280  145.7010 C   0  0  0  0  0  3  0  0  0  0  0  0
  193.1830  176.5630  143.8750 C   0  0  0  0  0  1  0  0  0  0  0  0
  184.4660  178.4030  144.4580 C   0  0  0  0  0  3  0  0  0  0  0  0
  186.6990  177.9300  146.0730 C   0  0  0  0  0  0  0  0  0  0  0  0
  186.6100  177.3000  144.8090 C   0  0  0  0  0  0  0  0  0  0  0  0
  185.6880  178.7920  146.5070 C   0  0  0  0  0  3  0  0  0  0  0  0
  191.1210  176.5660  146.9310 C   0  0  0  0  0  0  0  0  0  0  0  0
  193.5250  176.5380  146.8660 C   0  0  0  0  0  1  0  0  0  0  0  0
  192.0530  176.1690  144.7620 C   0  0  0  0  0  0  0  0  0  0  0  0
  190.9490  175.6770  144.1730 C   0  0  0  0  0  3  0  0  0  0  0  0
  188.7880  176.8860  146.5160 C   0  0  0  0  0  0  0  0  0  0  0  0
  189.7440  175.1400  144.9010 C   0  0  0  0  0  2  0  0  0  0  0  0
  188.7300  176.1960  145.2740 C   0  0  0  0  0  0  0  0  0  0  0  0
  187.6490  175.7360  143.1770 O   0  0  0  0  0  0  0  0  0  0  0  0
  188.1300  176.2640  141.9470 C   0  0  0  0  0  2  0  0  0  0  0  0
  188.2390  175.1560  140.9080 C   0  0  0  0  0  2  0  0  0  0  0  0
  189.0300  171.8880  142.6540 C   0  0  0  0  0  3  0  0  0  0  0  0
  190.3900  173.9000  141.2710 C   0  0  0  0  0  3  0  0  0  0  0  0
  190.4180  171.8140  142.4980 C   0  0  0  0  0  3  0  0  0  0  0  0
  191.0990  172.8210  141.8080 C   0  0  0  0  0  0  0  0  0  0  0  0
  189.0020  173.9850  141.4400 C   0  0  0  0  0  0  0  0  0  0  0  0
  188.3230  172.9740  142.1280 C   0  0  0  0  0  3  0  0  0  0  0  0
  192.5820  172.7550  141.6680 C   0  0  0  0  0  2  0  0  0  0  0  0
  193.7850  172.2950  143.8550 C   0  0  0  0  0  0  0  0  0  0  0  0
  193.7880  171.0540  143.6330 O   0  0  0  0  0  0  0  0  0  0  0  0
  193.2300  173.1990  142.8960 N   0  0  0  0  0  2  0  0  0  0  0  0
  194.3600  172.8200  145.0950 C   0  0  0  0  0  0  0  0  0  0  0  0
  195.6060  172.8080  145.2750 O   0  0  0  0  0  0  0  0  0  0  0  0
  193.5510  173.3240  146.0580 F   0  0  0  0  0  0  0  0  0  0  0  0
  1 10  2  0  0  0  0
  1 18  1  0  0  0  0
  3 13  1  0  0  0  0
  3 12  2  0  0  0  0
  5  8  2  0  0  0  0
  5 10  1  0  0  0  0
  6 11  2  0  0  0  0
  7 14  1  0  0  0  0
  8  6  1  0  0  0  0
  9 11  1  0  0  0  0
  9  4  2  0  0  0  0
 10  9  1  0  0  0  0
 12  2  2  0  0  0  0
 14  3  1  0  0  0  0
 15 14  2  0  0  0  0
 15 17  1  0  0  0  0
 16  4  1  0  0  0  0
 16  2  1  0  0  0  0
 17 18  1  0  0  0  0
 18 16  2  0  0  0  0
 19  1  1  0  0  0  0
 20 19  1  0  0  0  0
 21 26  1  0  0  0  0
 21 20  1  0  0  0  0
 23 26  2  0  0  0  0
 23 25  1  0  0  0  0
 24 22  1  0  0  0  0
 25 24  2  0  0  0  0
 26 27  1  0  0  0  0
 27 22  2  0  0  0  0
 28 25  1  0  0  0  0
 28 31  1  0  0  0  0
 29 32  1  0  0  0  0
 30 29  2  0  0  0  0
 31 29  1  0  0  0  0
 32 33  2  0  0  0  0
 32 34  1  0  0  0  0
M  END
>  <MODEL>
9

>  <REMARK>
 VINA RESULT:      -7.4      1.834      4.807
  Name = 
  7 active torsions:
  status: ('A' for Active; 'I' for Inactive)
    1  A    between atoms: C_1  and  O_9
    2  A    between atoms: C_7  and  C_11
    3  A    between atoms: C_8  and  O_9
    4  A    between atoms: C_8  and  C_18
    5  A    between atoms: C_18  and  C_30
    6  A    between atoms: C_26  and  C_28
    7  A    between atoms: C_26  and  N_29
                            x       y       z     vdW  Elec       q    Type
                         _______ _______ _______ _____ _____    ______ ____

>  <TORSDO>
F 7

$$$$
