=
 OpenBabel11052420363D

 34 37  0  0  1  0  0  0  0  0999 V2000
  189.5450  175.6030  146.0390 C   0  0  1  0  0  0  0  0  0  0  0  0
  190.6370  175.5780  142.6310 C   0  0  0  0  0  2  0  0  0  0  0  0
  191.3790  176.5580  144.7800 C   0  0  1  0  0  3  0  0  0  0  0  0
  189.2500  174.6890  147.2310 C   0  0  0  0  0  1  0  0  0  0  0  0
  190.8450  176.4040  146.1980 C   0  0  2  0  0  3  0  0  0  0  0  0
  191.0220  174.3400  141.8270 C   0  0  0  0  0  2  0  0  0  0  0  0
  190.2900  173.0590  142.2700 C   0  0  1  0  0  3  0  0  0  0  0  0
  190.5530  172.6120  143.7140 C   0  0  0  0  0  2  0  0  0  0  0  0
  190.9400  175.3570  144.0460 N   0  0  1  0  0  0  0  0  0  0  0  0
  189.7110  173.3340  144.7780 C   0  0  0  0  0  2  0  0  0  0  0  0
  189.7210  174.8720  144.6870 C   0  0  1  0  0  3  0  0  0  0  0  0
  188.8850  172.7500  141.7160 C   0  0  0  0  0  3  0  0  0  0  0  0
  188.4450  173.8060  140.7180 C   0  0  0  0  0  2  0  0  0  0  0  0
  188.8670  172.4380  140.2280 C   0  0  0  0  0  2  0  0  0  0  0  0
  192.8050  174.7720  146.5000 C   0  0  0  0  0  1  0  0  0  0  0  0
  191.9000  175.8070  147.1540 C   0  0  0  0  0  3  0  0  0  0  0  0
  192.7450  176.9050  147.7690 C   0  0  0  0  0  1  0  0  0  0  0  0
  190.8950  177.8360  144.2150 C   0  0  0  0  0  0  0  0  0  0  0  0
  190.4980  178.8830  143.7630 C   0  0  0  0  0  3  0  0  0  0  0  0
  188.4100  176.6310  145.9560 C   0  0  0  0  0  2  0  0  0  0  0  0
  187.1140  176.0850  146.3490 N   0  0  0  0  0  0  0  0  0  0  0  0
  186.2390  176.3230  145.2100 C   0  0  0  0  0  2  0  0  0  0  0  0
  186.4900  178.3230  141.5090 C   0  0  2  0  0  3  0  0  0  0  0  0
  187.3930  177.1840  141.7220 N   0  0  0  0  0  2  0  0  0  0  0  0
  186.8990  176.3420  142.8160 C   0  0  0  0  0  2  0  0  0  0  0  0
  186.3270  178.4720  143.9980 C   0  0  0  0  0  3  0  0  0  0  0  0
  186.9670  177.1140  144.1370 C   0  0  1  0  0  3  0  0  0  0  0  0
  186.1160  179.0250  142.7970 C   0  0  0  0  0  3  0  0  0  0  0  0
  185.2770  177.9500  140.6500 C   0  0  0  0  0  2  0  0  0  0  0  0
  182.9920  178.4260  140.5120 C   0  0  0  0  0  1  0  0  0  0  0  0
  184.0400  177.9940  141.4170 N   0  0  0  0  0  2  0  0  0  0  0  0
  186.6130  176.8990  147.4490 C   0  0  0  0  0  2  0  0  0  0  0  0
  186.3090  179.3490  147.7510 C   0  0  0  0  0  1  0  0  0  0  0  0
  187.3090  178.2520  147.4570 C   0  0  0  0  0  2  0  0  0  0  0  0
  1  5  1  0  0  0  0
  1  4  1  1  0  0  0
  3 18  1  6  0  0  0
  3  5  1  0  0  0  0
  5 16  1  1  0  0  0
  6  7  1  0  0  0  0
  6  2  1  0  0  0  0
  7 12  1  1  0  0  0
  7  8  1  0  0  0  0
  8 10  1  0  0  0  0
  9  2  1  6  0  0  0
  9 11  1  0  0  0  0
  9  3  1  0  0  0  0
 11 10  1  1  0  0  0
 11  1  1  0  0  0  0
 13 12  1  0  0  0  0
 14 13  1  0  0  0  0
 14 12  1  0  0  0  0
 15 16  1  0  0  0  0
 16 17  1  0  0  0  0
 19 18  3  0  0  0  0
 20  1  1  0  0  0  0
 20 21  1  0  0  0  0
 21 32  1  0  0  0  0
 22 21  1  0  0  0  0
 23 29  1  1  0  0  0
 23 24  1  0  0  0  0
 23 28  1  0  0  0  0
 24 25  1  0  0  0  0
 25 27  1  0  0  0  0
 26 27  1  0  0  0  0
 27 22  1  1  0  0  0
 28 26  2  0  0  0  0
 29 31  1  0  0  0  0
 30 31  1  0  0  0  0
 32 34  1  0  0  0  0
 34 33  1  0  0  0  0
M  END
>  <MODEL>
1

>  <REMARK>
 VINA RESULT:      -6.3      0.000      0.000
  Name = 
  11 active torsions:
  status: ('A' for Active; 'I' for Inactive)
    1  A    between atoms: C_1  and  C_8
    2  A    between atoms: C_3  and  C_25
    3  A    between atoms: C_5  and  C_19
    4  A    between atoms: C_6  and  N_18
    5  A    between atoms: C_6  and  C_28
    6  A    between atoms: C_7  and  C_11
    7  A    between atoms: C_8  and  N_18
    8  A    between atoms: C_11  and  N_21
    9  A    between atoms: C_12  and  C_20
   10  A    between atoms: N_18  and  C_30
   11  A    between atoms: C_30  and  C_31
                            x       y       z     vdW  Elec       q    Type
                         _______ _______ _______ _____ _____    ______ ____

>  <TORSDO>
F 11

$$$$
=
 OpenBabel11052420363D

 34 37  0  0  1  0  0  0  0  0999 V2000
  191.1520  176.0400  143.4530 C   0  0  1  0  0  0  0  0  0  0  0  0
  189.5020  174.3420  146.1360 C   0  0  0  0  0  2  0  0  0  0  0  0
  191.7470  174.3630  145.0940 C   0  0  1  0  0  3  0  0  0  0  0  0
  191.5500  177.4310  142.9530 C   0  0  0  0  0  1  0  0  0  0  0  0
  192.3380  175.2250  143.9860 C   0  0  2  0  0  3  0  0  0  0  0  0
  188.8840  175.0040  147.3640 C   0  0  0  0  0  2  0  0  0  0  0  0
  188.3740  176.4350  147.1080 C   0  0  1  0  0  3  0  0  0  0  0  0
  189.4420  177.4520  146.6860 C   0  0  0  0  0  2  0  0  0  0  0  0
  190.6350  175.1420  145.6670 N   0  0  1  0  0  0  0  0  0  0  0  0
  189.8040  177.4280  145.1920 C   0  0  0  0  0  2  0  0  0  0  0  0
  190.1400  176.0350  144.6240 C   0  0  1  0  0  3  0  0  0  0  0  0
  186.9680  176.6520  146.5160 C   0  0  0  0  0  3  0  0  0  0  0  0
  185.9550  176.9560  147.6050 C   0  0  0  0  0  2  0  0  0  0  0  0
  186.4370  178.0650  146.6950 C   0  0  0  0  0  2  0  0  0  0  0  0
  193.9080  175.8060  145.9340 C   0  0  0  0  0  1  0  0  0  0  0  0
  193.5590  176.0380  144.4700 C   0  0  0  0  0  3  0  0  0  0  0  0
  194.7700  175.7460  143.6060 C   0  0  0  0  0  1  0  0  0  0  0  0
  191.3560  173.0520  144.5330 C   0  0  0  0  0  0  0  0  0  0  0  0
  191.0420  171.9780  144.0810 C   0  0  0  0  0  3  0  0  0  0  0  0
  190.5960  175.2620  142.2530 C   0  0  0  0  0  2  0  0  0  0  0  0
  189.1620  175.0070  142.3520 N   0  0  0  0  0  0  0  0  0  0  0  0
  188.9620  173.7080  141.7260 C   0  0  0  0  0  2  0  0  0  0  0  0
  190.0010  171.8670  138.0800 C   0  0  2  0  0  3  0  0  0  0  0  0
  191.0960  172.2170  138.9960 N   0  0  0  0  0  2  0  0  0  0  0  0
  190.5790  172.4190  140.3520 C   0  0  0  0  0  2  0  0  0  0  0  0
  188.6450  173.5880  139.2810 C   0  0  0  0  0  3  0  0  0  0  0  0
  189.6700  173.6510  140.3840 C   0  0  1  0  0  3  0  0  0  0  0  0
  188.8000  172.7780  138.2260 C   0  0  0  0  0  3  0  0  0  0  0  0
  189.6430  170.3790  138.1450 C   0  0  0  0  0  2  0  0  0  0  0  0
  190.6310  168.5700  139.2510 C   0  0  0  0  0  1  0  0  0  0  0  0
  190.8330  169.5400  138.1910 N   0  0  0  0  0  2  0  0  0  0  0  0
  188.4850  175.9920  141.5180 C   0  0  0  0  0  2  0  0  0  0  0  0
  187.2860  177.8450  142.6640 C   0  0  0  0  0  1  0  0  0  0  0  0
  187.1790  176.4180  142.1710 C   0  0  0  0  0  2  0  0  0  0  0  0
  1  4  1  6  0  0  0
  1  5  1  0  0  0  0
  1 11  1  0  0  0  0
  2  6  1  0  0  0  0
  3 18  1  6  0  0  0
  3  9  1  0  0  0  0
  5 16  1  1  0  0  0
  5  3  1  0  0  0  0
  7 12  1  6  0  0  0
  7  6  1  0  0  0  0
  8  7  1  0  0  0  0
  9  2  1  6  0  0  0
 10  8  1  0  0  0  0
 11 10  1  1  0  0  0
 11  9  1  0  0  0  0
 12 14  1  0  0  0  0
 12 13  1  0  0  0  0
 14 13  1  0  0  0  0
 16 15  1  0  0  0  0
 17 16  1  0  0  0  0
 19 18  3  0  0  0  0
 20 21  1  0  0  0  0
 20  1  1  0  0  0  0
 22 21  1  0  0  0  0
 23 29  1  1  0  0  0
 23 28  1  0  0  0  0
 23 24  1  0  0  0  0
 24 25  1  0  0  0  0
 25 27  1  0  0  0  0
 26 27  1  0  0  0  0
 27 22  1  1  0  0  0
 28 26  2  0  0  0  0
 29 31  1  0  0  0  0
 31 30  1  0  0  0  0
 32 34  1  0  0  0  0
 32 21  1  0  0  0  0
 34 33  1  0  0  0  0
M  END
>  <MODEL>
2

>  <REMARK>
 VINA RESULT:      -6.0      2.492      6.240
  Name = 
  11 active torsions:
  status: ('A' for Active; 'I' for Inactive)
    1  A    between atoms: C_1  and  C_8
    2  A    between atoms: C_3  and  C_25
    3  A    between atoms: C_5  and  C_19
    4  A    between atoms: C_6  and  N_18
    5  A    between atoms: C_6  and  C_28
    6  A    between atoms: C_7  and  C_11
    7  A    between atoms: C_8  and  N_18
    8  A    between atoms: C_11  and  N_21
    9  A    between atoms: C_12  and  C_20
   10  A    between atoms: N_18  and  C_30
   11  A    between atoms: C_30  and  C_31
                            x       y       z     vdW  Elec       q    Type
                         _______ _______ _______ _____ _____    ______ ____

>  <TORSDO>
F 11

$$$$
=
 OpenBabel11052420363D

 34 37  0  0  1  0  0  0  0  0999 V2000
  189.9850  176.7820  143.9890 C   0  0  1  0  0  0  0  0  0  0  0  0
  189.9930  173.4220  145.2220 C   0  0  0  0  0  2  0  0  0  0  0  0
  189.0350  175.6080  145.8800 C   0  0  1  0  0  3  0  0  0  0  0  0
  189.5920  177.6350  142.7800 C   0  0  0  0  0  1  0  0  0  0  0  0
  189.0470  176.9650  145.1890 C   0  0  2  0  0  3  0  0  0  0  0  0
  189.4630  172.1990  144.4800 C   0  0  0  0  0  2  0  0  0  0  0  0
  189.5550  172.3140  142.9470 C   0  0  1  0  0  3  0  0  0  0  0  0
  188.7480  173.4570  142.3190 C   0  0  0  0  0  2  0  0  0  0  0  0
  189.2340  174.6080  144.8170 N   0  0  1  0  0  0  0  0  0  0  0  0
  189.4350  174.8310  142.3570 C   0  0  0  0  0  2  0  0  0  0  0  0
  189.9740  175.2550  143.7380 C   0  0  1  0  0  3  0  0  0  0  0  0
  190.8690  171.9450  142.2300 C   0  0  0  0  0  3  0  0  0  0  0  0
  191.5960  170.8280  142.9560 C   0  0  0  0  0  2  0  0  0  0  0  0
  190.8810  170.5380  141.6540 C   0  0  0  0  0  2  0  0  0  0  0  0
  186.7110  176.3970  144.2860 C   0  0  0  0  0  1  0  0  0  0  0  0
  187.6220  177.4680  144.8700 C   0  0  0  0  0  3  0  0  0  0  0  0
  186.9780  178.0650  146.1050 C   0  0  0  0  0  1  0  0  0  0  0  0
  190.0650  175.5930  146.9400 C   0  0  0  0  0  0  0  0  0  0  0  0
  190.9090  175.5910  147.8040 C   0  0  0  0  0  3  0  0  0  0  0  0
  191.3730  177.2460  144.4470 C   0  0  0  0  0  2  0  0  0  0  0  0
  192.4300  176.2910  144.1270 N   0  0  0  0  0  0  0  0  0  0  0  0
  193.4820  176.5460  145.1000 C   0  0  0  0  0  2  0  0  0  0  0  0
  195.2210  172.7160  145.3750 C   0  0  2  0  0  3  0  0  0  0  0  0
  193.7780  172.8230  145.6350 N   0  0  0  0  0  2  0  0  0  0  0  0
  193.2530  174.0730  145.0800 C   0  0  0  0  0  2  0  0  0  0  0  0
  195.3480  175.1520  145.9190 C   0  0  0  0  0  3  0  0  0  0  0  0
  193.8480  175.2670  145.8330 C   0  0  1  0  0  3  0  0  0  0  0  0
  195.9740  173.9860  145.7150 C   0  0  0  0  0  3  0  0  0  0  0  0
  195.5210  172.1950  143.9660 C   0  0  0  0  0  2  0  0  0  0  0  0
  196.1730  170.0290  144.5570 C   0  0  0  0  0  1  0  0  0  0  0  0
  195.1740  170.7870  143.8280 N   0  0  0  0  0  2  0  0  0  0  0  0
  192.9620  176.6520  142.8190 C   0  0  0  0  0  2  0  0  0  0  0  0
  194.7100  175.2010  141.8070 C   0  0  0  0  0  1  0  0  0  0  0  0
  193.2220  175.3980  141.9980 C   0  0  0  0  0  2  0  0  0  0  0  0
  1  4  1  6  0  0  0
  1 20  1  0  0  0  0
  1  5  1  0  0  0  0
  3 18  1  1  0  0  0
  5 16  1  6  0  0  0
  5  3  1  0  0  0  0
  6  2  1  0  0  0  0
  7 12  1  1  0  0  0
  7  6  1  0  0  0  0
  8 10  1  0  0  0  0
  8  7  1  0  0  0  0
  9  2  1  1  0  0  0
  9  3  1  0  0  0  0
 11 10  1  6  0  0  0
 11  1  1  0  0  0  0
 11  9  1  0  0  0  0
 12 13  1  0  0  0  0
 14 12  1  0  0  0  0
 14 13  1  0  0  0  0
 15 16  1  0  0  0  0
 16 17  1  0  0  0  0
 18 19  3  0  0  0  0
 21 20  1  0  0  0  0
 21 22  1  0  0  0  0
 23 29  1  6  0  0  0
 23 24  1  0  0  0  0
 23 28  1  0  0  0  0
 25 24  1  0  0  0  0
 25 27  1  0  0  0  0
 27 22  1  6  0  0  0
 27 26  1  0  0  0  0
 28 26  2  0  0  0  0
 31 29  1  0  0  0  0
 31 30  1  0  0  0  0
 32 21  1  0  0  0  0
 33 34  1  0  0  0  0
 34 32  1  0  0  0  0
M  END
>  <MODEL>
3

>  <REMARK>
 VINA RESULT:      -6.0      2.548      7.187
  Name = 
  11 active torsions:
  status: ('A' for Active; 'I' for Inactive)
    1  A    between atoms: C_1  and  C_8
    2  A    between atoms: C_3  and  C_25
    3  A    between atoms: C_5  and  C_19
    4  A    between atoms: C_6  and  N_18
    5  A    between atoms: C_6  and  C_28
    6  A    between atoms: C_7  and  C_11
    7  A    between atoms: C_8  and  N_18
    8  A    between atoms: C_11  and  N_21
    9  A    between atoms: C_12  and  C_20
   10  A    between atoms: N_18  and  C_30
   11  A    between atoms: C_30  and  C_31
                            x       y       z     vdW  Elec       q    Type
                         _______ _______ _______ _____ _____    ______ ____

>  <TORSDO>
F 11

$$$$
=
 OpenBabel11052420363D

 34 37  0  0  1  0  0  0  0  0999 V2000
  190.7940  174.4880  144.3250 C   0  0  1  0  0  0  0  0  0  0  0  0
  193.4950  176.7950  144.7560 C   0  0  0  0  0  2  0  0  0  0  0  0
  191.1130  176.6290  145.4080 C   0  0  1  0  0  3  0  0  0  0  0  0
  190.3660  173.0460  144.6100 C   0  0  0  0  0  1  0  0  0  0  0  0
  190.0890  175.5170  145.2200 C   0  0  2  0  0  3  0  0  0  0  0  0
  194.8200  176.4980  145.4510 C   0  0  0  0  0  2  0  0  0  0  0  0
  195.2530  175.0220  145.3580 C   0  0  1  0  0  3  0  0  0  0  0  0
  194.3020  174.0100  146.0100 C   0  0  0  0  0  2  0  0  0  0  0  0
  192.4350  175.9810  145.3530 N   0  0  1  0  0  0  0  0  0  0  0  0
  193.0990  173.6020  145.1440 C   0  0  0  0  0  2  0  0  0  0  0  0
  192.2990  174.7740  144.5420 C   0  0  1  0  0  3  0  0  0  0  0  0
  196.0110  174.5250  144.1110 C   0  0  0  0  0  3  0  0  0  0  0  0
  196.9650  175.5840  143.5910 C   0  0  0  0  0  2  0  0  0  0  0  0
  197.5090  174.3760  144.3220 C   0  0  0  0  0  2  0  0  0  0  0  0
  190.5170  175.1690  147.7280 C   0  0  0  0  0  1  0  0  0  0  0  0
  189.5490  174.9900  146.5670 C   0  0  0  0  0  3  0  0  0  0  0  0
  188.2250  175.6470  146.9030 C   0  0  0  0  0  1  0  0  0  0  0  0
  190.8940  177.6690  144.3790 C   0  0  0  0  0  0  0  0  0  0  0  0
  190.7240  178.5200  143.5400 C   0  0  0  0  0  3  0  0  0  0  0  0
  190.3830  174.8130  142.8840 C   0  0  0  0  0  2  0  0  0  0  0  0
  189.7570  173.6850  142.1990 N   0  0  0  0  0  0  0  0  0  0  0  0
  190.3980  173.6280  140.8930 C   0  0  0  0  0  2  0  0  0  0  0  0
  192.3560  170.1500  142.2470 C   0  0  2  0  0  3  0  0  0  0  0  0
  193.0840  171.0110  141.3040 N   0  0  0  0  0  2  0  0  0  0  0  0
  192.4930  172.3510  141.2790 C   0  0  0  0  0  2  0  0  0  0  0  0
  190.2690  171.2100  141.3730 C   0  0  0  0  0  3  0  0  0  0  0  0
  191.0790  172.2850  140.6940 C   0  0  1  0  0  3  0  0  0  0  0  0
  190.8540  170.2320  142.0760 C   0  0  0  0  0  3  0  0  0  0  0  0
  192.8120  170.3580  143.6940 C   0  0  0  0  0  2  0  0  0  0  0  0
  194.3290  169.8210  145.3920 C   0  0  0  0  0  1  0  0  0  0  0  0
  193.9410  169.5010  144.0310 N   0  0  0  0  0  2  0  0  0  0  0  0
  188.3600  174.0310  141.9740 C   0  0  0  0  0  2  0  0  0  0  0  0
  186.9620  175.9260  142.7760 C   0  0  0  0  0  1  0  0  0  0  0  0
  188.1890  175.5430  141.9780 C   0  0  0  0  0  2  0  0  0  0  0  0
  1 11  1  0  0  0  0
  1  4  1  1  0  0  0
  1  5  1  0  0  0  0
  2  6  1  0  0  0  0
  3 18  1  6  0  0  0
  5  3  1  0  0  0  0
  5 16  1  1  0  0  0
  7 12  1  6  0  0  0
  7  6  1  0  0  0  0
  7  8  1  0  0  0  0
  9  2  1  6  0  0  0
  9  3  1  0  0  0  0
 10  8  1  0  0  0  0
 11 10  1  1  0  0  0
 11  9  1  0  0  0  0
 12 14  1  0  0  0  0
 13 12  1  0  0  0  0
 13 14  1  0  0  0  0
 16 17  1  0  0  0  0
 16 15  1  0  0  0  0
 19 18  3  0  0  0  0
 20  1  1  0  0  0  0
 21 20  1  0  0  0  0
 22 21  1  0  0  0  0
 23 29  1  1  0  0  0
 24 23  1  0  0  0  0
 25 24  1  0  0  0  0
 26 28  2  0  0  0  0
 27 22  1  1  0  0  0
 27 25  1  0  0  0  0
 27 26  1  0  0  0  0
 28 23  1  0  0  0  0
 29 31  1  0  0  0  0
 31 30  1  0  0  0  0
 32 34  1  0  0  0  0
 32 21  1  0  0  0  0
 34 33  1  0  0  0  0
M  END
>  <MODEL>
4

>  <REMARK>
 VINA RESULT:      -5.9      2.822      6.872
  Name = 
  11 active torsions:
  status: ('A' for Active; 'I' for Inactive)
    1  A    between atoms: C_1  and  C_8
    2  A    between atoms: C_3  and  C_25
    3  A    between atoms: C_5  and  C_19
    4  A    between atoms: C_6  and  N_18
    5  A    between atoms: C_6  and  C_28
    6  A    between atoms: C_7  and  C_11
    7  A    between atoms: C_8  and  N_18
    8  A    between atoms: C_11  and  N_21
    9  A    between atoms: C_12  and  C_20
   10  A    between atoms: N_18  and  C_30
   11  A    between atoms: C_30  and  C_31
                            x       y       z     vdW  Elec       q    Type
                         _______ _______ _______ _____ _____    ______ ____

>  <TORSDO>
F 11

$$$$
=
 OpenBabel11052420363D

 34 37  0  0  1  0  0  0  0  0999 V2000
  190.4300  174.2680  144.2860 C   0  0  1  0  0  0  0  0  0  0  0  0
  193.3230  176.3740  144.3190 C   0  0  0  0  0  2  0  0  0  0  0  0
  191.0110  176.4330  145.2000 C   0  0  1  0  0  3  0  0  0  0  0  0
  189.9270  172.8830  144.6990 C   0  0  0  0  0  1  0  0  0  0  0  0
  189.8940  175.3970  145.1770 C   0  0  2  0  0  3  0  0  0  0  0  0
  194.6840  176.0110  144.9040 C   0  0  0  0  0  2  0  0  0  0  0  0
  194.9960  174.5020  144.8620 C   0  0  1  0  0  3  0  0  0  0  0  0
  194.0410  173.6070  145.6620 C   0  0  0  0  0  2  0  0  0  0  0  0
  192.2690  175.6800  145.0620 N   0  0  1  0  0  0  0  0  0  0  0  0
  192.7320  173.2490  144.9400 C   0  0  0  0  0  2  0  0  0  0  0  0
  191.9660  174.4460  144.3430 C   0  0  1  0  0  3  0  0  0  0  0  0
  195.5890  173.8790  143.5840 C   0  0  0  0  0  3  0  0  0  0  0  0
  196.5810  174.8210  142.9240 C   0  0  0  0  0  2  0  0  0  0  0  0
  197.0820  173.6030  143.6700 C   0  0  0  0  0  2  0  0  0  0  0  0
  190.5140  175.2260  147.6640 C   0  0  0  0  0  1  0  0  0  0  0  0
  189.4510  174.9900  146.5990 C   0  0  0  0  0  3  0  0  0  0  0  0
  188.1740  175.7100  146.9870 C   0  0  0  0  0  1  0  0  0  0  0  0
  190.7690  177.4300  144.1340 C   0  0  0  0  0  0  0  0  0  0  0  0
  190.5770  178.2500  143.2690 C   0  0  0  0  0  3  0  0  0  0  0  0
  189.9050  174.5460  142.8720 C   0  0  0  0  0  2  0  0  0  0  0  0
  188.4510  174.4460  142.7720 N   0  0  0  0  0  0  0  0  0  0  0  0
  188.2080  173.4390  141.7490 C   0  0  0  0  0  2  0  0  0  0  0  0
  190.3450  171.7480  138.5330 C   0  0  2  0  0  3  0  0  0  0  0  0
  190.9600  171.6730  139.8660 N   0  0  0  0  0  2  0  0  0  0  0  0
  189.9470  171.8800  140.9050 C   0  0  0  0  0  2  0  0  0  0  0  0
  189.0030  173.6600  139.4230 C   0  0  0  0  0  3  0  0  0  0  0  0
  189.4120  173.3130  140.8320 C   0  0  1  0  0  3  0  0  0  0  0  0
  189.4350  172.9480  138.3740 C   0  0  0  0  0  3  0  0  0  0  0  0
  189.6820  170.4290  138.1250 C   0  0  0  0  0  2  0  0  0  0  0  0
  190.7730  170.2520  136.0630 C   0  0  0  0  0  1  0  0  0  0  0  0
  190.5830  169.5940  137.3420 N   0  0  0  0  0  2  0  0  0  0  0  0
  187.9610  175.7140  142.2470 C   0  0  0  0  0  2  0  0  0  0  0  0
  186.9740  177.3630  143.8270 C   0  0  0  0  0  1  0  0  0  0  0  0
  186.7000  176.1330  142.9890 C   0  0  0  0  0  2  0  0  0  0  0  0
  1 11  1  0  0  0  0
  1  4  1  1  0  0  0
  1  5  1  0  0  0  0
  2  6  1  0  0  0  0
  3 18  1  6  0  0  0
  5  3  1  0  0  0  0
  5 16  1  1  0  0  0
  7 12  1  6  0  0  0
  7  6  1  0  0  0  0
  7  8  1  0  0  0  0
  9  2  1  6  0  0  0
  9  3  1  0  0  0  0
 10  8  1  0  0  0  0
 11 10  1  1  0  0  0
 11  9  1  0  0  0  0
 12 14  1  0  0  0  0
 13 12  1  0  0  0  0
 13 14  1  0  0  0  0
 16 17  1  0  0  0  0
 16 15  1  0  0  0  0
 19 18  3  0  0  0  0
 20  1  1  0  0  0  0
 21 20  1  0  0  0  0
 22 21  1  0  0  0  0
 23 29  1  1  0  0  0
 23 24  1  0  0  0  0
 24 25  1  0  0  0  0
 26 27  1  0  0  0  0
 27 25  1  0  0  0  0
 27 22  1  1  0  0  0
 28 23  1  0  0  0  0
 28 26  2  0  0  0  0
 30 31  1  0  0  0  0
 31 29  1  0  0  0  0
 32 21  1  0  0  0  0
 32 34  1  0  0  0  0
 34 33  1  0  0  0  0
M  END
>  <MODEL>
5

>  <REMARK>
 VINA RESULT:      -5.8      2.906      5.814
  Name = 
  11 active torsions:
  status: ('A' for Active; 'I' for Inactive)
    1  A    between atoms: C_1  and  C_8
    2  A    between atoms: C_3  and  C_25
    3  A    between atoms: C_5  and  C_19
    4  A    between atoms: C_6  and  N_18
    5  A    between atoms: C_6  and  C_28
    6  A    between atoms: C_7  and  C_11
    7  A    between atoms: C_8  and  N_18
    8  A    between atoms: C_11  and  N_21
    9  A    between atoms: C_12  and  C_20
   10  A    between atoms: N_18  and  C_30
   11  A    between atoms: C_30  and  C_31
                            x       y       z     vdW  Elec       q    Type
                         _______ _______ _______ _____ _____    ______ ____

>  <TORSDO>
F 11

$$$$
=
 OpenBabel11052420363D

 34 37  0  0  1  0  0  0  0  0999 V2000
  189.7480  175.1320  145.4090 C   0  0  1  0  0  0  0  0  0  0  0  0
  192.5120  177.0980  144.2650 C   0  0  0  0  0  2  0  0  0  0  0  0
  190.1770  177.4780  144.9910 C   0  0  1  0  0  3  0  0  0  0  0  0
  189.3160  174.1650  146.5140 C   0  0  0  0  0  1  0  0  0  0  0  0
  189.1240  176.5270  145.5460 C   0  0  2  0  0  3  0  0  0  0  0  0
  193.8760  177.1990  144.9420 C   0  0  0  0  0  2  0  0  0  0  0  0
  194.2760  175.9330  145.7260 C   0  0  1  0  0  3  0  0  0  0  0  0
  193.3530  175.5580  146.8920 C   0  0  0  0  0  2  0  0  0  0  0  0
  191.4800  176.8530  145.2750 N   0  0  1  0  0  0  0  0  0  0  0  0
  192.0880  174.7820  146.4920 C   0  0  0  0  0  2  0  0  0  0  0  0
  191.2700  175.4100  145.3470 C   0  0  1  0  0  3  0  0  0  0  0  0
  194.9400  174.7550  144.9870 C   0  0  0  0  0  3  0  0  0  0  0  0
  196.0170  175.2410  144.0340 C   0  0  0  0  0  2  0  0  0  0  0  0
  196.4080  174.5640  145.3300 C   0  0  0  0  0  2  0  0  0  0  0  0
  189.6000  177.9170  147.6530 C   0  0  0  0  0  1  0  0  0  0  0  0
  188.6660  176.9310  146.9650 C   0  0  0  0  0  3  0  0  0  0  0  0
  187.2620  177.5020  146.9290 C   0  0  0  0  0  1  0  0  0  0  0  0
  189.9070  177.7170  143.5570 C   0  0  0  0  0  0  0  0  0  0  0  0
  189.6960  177.9140  142.3850 C   0  0  0  0  0  3  0  0  0  0  0  0
  189.2470  174.5620  144.0760 C   0  0  0  0  0  2  0  0  0  0  0  0
  190.3010  173.9160  143.2980 N   0  0  0  0  0  0  0  0  0  0  0  0
  190.0760  174.3410  141.9240 C   0  0  0  0  0  2  0  0  0  0  0  0
  189.4620  172.4310  138.2170 C   0  0  2  0  0  3  0  0  0  0  0  0
  188.3360  172.4510  139.1610 N   0  0  0  0  0  2  0  0  0  0  0  0
  188.5360  173.4950  140.1690 C   0  0  0  0  0  2  0  0  0  0  0  0
  190.9380  172.7990  140.2000 C   0  0  0  0  0  3  0  0  0  0  0  0
  189.7410  173.1470  141.0480 C   0  0  1  0  0  3  0  0  0  0  0  0
  190.8090  172.4670  138.9090 C   0  0  0  0  0  3  0  0  0  0  0  0
  189.3190  173.4920  137.1200 C   0  0  0  0  0  2  0  0  0  0  0  0
  189.3160  171.6940  135.6240 C   0  0  0  0  0  1  0  0  0  0  0  0
  189.8510  173.0240  135.8480 N   0  0  0  0  0  2  0  0  0  0  0  0
  190.0600  172.4800  143.3460 C   0  0  0  0  0  2  0  0  0  0  0  0
  192.4850  172.1540  143.7920 C   0  0  0  0  0  1  0  0  0  0  0  0
  191.0840  171.8080  144.2480 C   0  0  0  0  0  2  0  0  0  0  0  0
  1  5  1  0  0  0  0
  1  4  1  1  0  0  0
  2  6  1  0  0  0  0
  3 18  1  6  0  0  0
  3  9  1  0  0  0  0
  3  5  1  0  0  0  0
  5 16  1  1  0  0  0
  6  7  1  0  0  0  0
  7 12  1  6  0  0  0
  7  8  1  0  0  0  0
  9  2  1  6  0  0  0
  9 11  1  0  0  0  0
 10  8  1  0  0  0  0
 11  1  1  0  0  0  0
 11 10  1  1  0  0  0
 12 14  1  0  0  0  0
 13 12  1  0  0  0  0
 13 14  1  0  0  0  0
 16 15  1  0  0  0  0
 17 16  1  0  0  0  0
 19 18  3  0  0  0  0
 20  1  1  0  0  0  0
 21 32  1  0  0  0  0
 21 20  1  0  0  0  0
 22 21  1  0  0  0  0
 23 29  1  6  0  0  0
 23 28  1  0  0  0  0
 23 24  1  0  0  0  0
 24 25  1  0  0  0  0
 25 27  1  0  0  0  0
 26 27  1  0  0  0  0
 27 22  1  6  0  0  0
 28 26  2  0  0  0  0
 30 31  1  0  0  0  0
 31 29  1  0  0  0  0
 32 34  1  0  0  0  0
 33 34  1  0  0  0  0
M  END
>  <MODEL>
6

>  <REMARK>
 VINA RESULT:      -5.8      2.771      5.973
  Name = 
  11 active torsions:
  status: ('A' for Active; 'I' for Inactive)
    1  A    between atoms: C_1  and  C_8
    2  A    between atoms: C_3  and  C_25
    3  A    between atoms: C_5  and  C_19
    4  A    between atoms: C_6  and  N_18
    5  A    between atoms: C_6  and  C_28
    6  A    between atoms: C_7  and  C_11
    7  A    between atoms: C_8  and  N_18
    8  A    between atoms: C_11  and  N_21
    9  A    between atoms: C_12  and  C_20
   10  A    between atoms: N_18  and  C_30
   11  A    between atoms: C_30  and  C_31
                            x       y       z     vdW  Elec       q    Type
                         _______ _______ _______ _____ _____    ______ ____

>  <TORSDO>
F 11

$$$$
=
 OpenBabel11052420363D

 34 37  0  0  1  0  0  0  0  0999 V2000
  193.6870  174.1580  142.6310 C   0  0  1  0  0  0  0  0  0  0  0  0
  193.0650  174.4070  146.1470 C   0  0  0  0  0  2  0  0  0  0  0  0
  195.0150  174.5090  144.6250 C   0  0  1  0  0  3  0  0  0  0  0  0
  193.3440  174.8000  141.2840 C   0  0  0  0  0  1  0  0  0  0  0  0
  195.1130  174.4710  143.1050 C   0  0  2  0  0  3  0  0  0  0  0  0
  192.1780  175.4480  146.8240 C   0  0  0  0  0  2  0  0  0  0  0  0
  191.0250  175.9530  145.9360 C   0  0  1  0  0  3  0  0  0  0  0  0
  191.4460  176.6670  144.6460 C   0  0  0  0  0  2  0  0  0  0  0  0
  193.6530  174.9800  144.9340 N   0  0  1  0  0  0  0  0  0  0  0  0
  191.7970  175.7340  143.4760 C   0  0  0  0  0  2  0  0  0  0  0  0
  192.7950  174.6090  143.8130 C   0  0  1  0  0  3  0  0  0  0  0  0
  189.7090  175.1540  145.8640 C   0  0  0  0  0  3  0  0  0  0  0  0
  189.2680  174.6970  147.2430 C   0  0  0  0  0  2  0  0  0  0  0  0
  188.5380  175.8320  146.5570 C   0  0  0  0  0  2  0  0  0  0  0  0
  196.2880  176.7020  143.5980 C   0  0  0  0  0  1  0  0  0  0  0  0
  195.7540  175.7540  142.5320 C   0  0  0  0  0  3  0  0  0  0  0  0
  196.8640  175.4060  141.5590 C   0  0  0  0  0  1  0  0  0  0  0  0
  195.3420  173.1720  145.1650 C   0  0  0  0  0  0  0  0  0  0  0  0
  195.6080  172.0770  145.5970 C   0  0  0  0  0  3  0  0  0  0  0  0
  193.6160  172.6380  142.4470 C   0  0  0  0  0  2  0  0  0  0  0  0
  192.6120  172.2260  141.4700 N   0  0  0  0  0  0  0  0  0  0  0  0
  191.5210  171.6680  142.2550 C   0  0  0  0  0  2  0  0  0  0  0  0
  188.1190  174.0440  141.5190 C   0  0  2  0  0  3  0  0  0  0  0  0
  187.8970  172.7040  142.0790 N   0  0  0  0  0  2  0  0  0  0  0  0
  189.1320  172.1950  142.6820 C   0  0  0  0  0  2  0  0  0  0  0  0
  190.3240  173.1840  140.7180 C   0  0  0  0  0  3  0  0  0  0  0  0
  190.1860  171.9650  141.5950 C   0  0  1  0  0  3  0  0  0  0  0  0
  189.3760  174.1290  140.6790 C   0  0  0  0  0  3  0  0  0  0  0  0
  188.0290  175.1410  142.5850 C   0  0  0  0  0  2  0  0  0  0  0  0
  188.1900  177.4220  143.0750 C   0  0  0  0  0  1  0  0  0  0  0  0
  188.5400  176.4130  142.0930 N   0  0  0  0  0  2  0  0  0  0  0  0
  193.1820  171.1330  140.6920 C   0  0  0  0  0  2  0  0  0  0  0  0
  192.2460  170.9370  138.3960 C   0  0  0  0  0  1  0  0  0  0  0  0
  193.3410  171.5540  139.2390 C   0  0  0  0  0  2  0  0  0  0  0  0
  1  4  1  6  0  0  0
  1  5  1  0  0  0  0
  1 11  1  0  0  0  0
  2  6  1  0  0  0  0
  3  9  1  0  0  0  0
  3 18  1  1  0  0  0
  5 16  1  6  0  0  0
  5  3  1  0  0  0  0
  7 12  1  6  0  0  0
  7  6  1  0  0  0  0
  8  7  1  0  0  0  0
  9  2  1  1  0  0  0
 10  8  1  0  0  0  0
 11 10  1  6  0  0  0
 11  9  1  0  0  0  0
 12 14  1  0  0  0  0
 12 13  1  0  0  0  0
 14 13  1  0  0  0  0
 16 15  1  0  0  0  0
 17 16  1  0  0  0  0
 18 19  3  0  0  0  0
 20  1  1  0  0  0  0
 21 22  1  0  0  0  0
 21 20  1  0  0  0  0
 23 24  1  0  0  0  0
 23 29  1  1  0  0  0
 24 25  1  0  0  0  0
 26 27  1  0  0  0  0
 27 22  1  1  0  0  0
 27 25  1  0  0  0  0
 28 26  2  0  0  0  0
 28 23  1  0  0  0  0
 31 29  1  0  0  0  0
 31 30  1  0  0  0  0
 32 21  1  0  0  0  0
 33 34  1  0  0  0  0
 34 32  1  0  0  0  0
M  END
>  <MODEL>
7

>  <REMARK>
 VINA RESULT:      -5.7      2.914      6.709
  Name = 
  11 active torsions:
  status: ('A' for Active; 'I' for Inactive)
    1  A    between atoms: C_1  and  C_8
    2  A    between atoms: C_3  and  C_25
    3  A    between atoms: C_5  and  C_19
    4  A    between atoms: C_6  and  N_18
    5  A    between atoms: C_6  and  C_28
    6  A    between atoms: C_7  and  C_11
    7  A    between atoms: C_8  and  N_18
    8  A    between atoms: C_11  and  N_21
    9  A    between atoms: C_12  and  C_20
   10  A    between atoms: N_18  and  C_30
   11  A    between atoms: C_30  and  C_31
                            x       y       z     vdW  Elec       q    Type
                         _______ _______ _______ _____ _____    ______ ____

>  <TORSDO>
F 11

$$$$
=
 OpenBabel11052420363D

 34 37  0  0  1  0  0  0  0  0999 V2000
  190.0490  175.2820  143.3340 C   0  0  1  0  0  0  0  0  0  0  0  0
  187.4560  177.1010  145.0010 C   0  0  0  0  0  2  0  0  0  0  0  0
  189.8490  176.5840  145.3650 C   0  0  1  0  0  3  0  0  0  0  0  0
  190.8360  175.2090  142.0230 C   0  0  0  0  0  1  0  0  0  0  0  0
  190.8670  175.8510  144.5010 C   0  0  2  0  0  3  0  0  0  0  0  0
  186.6910  178.2910  144.4280 C   0  0  0  0  0  2  0  0  0  0  0  0
  186.5660  178.2680  142.8920 C   0  0  1  0  0  3  0  0  0  0  0  0
  187.8900  178.3220  142.1200 C   0  0  0  0  0  2  0  0  0  0  0  0
  188.8100  177.0750  144.4430 N   0  0  1  0  0  0  0  0  0  0  0  0
  188.6110  176.9720  141.9750 C   0  0  0  0  0  2  0  0  0  0  0  0
  188.7910  176.1830  143.2870 C   0  0  1  0  0  3  0  0  0  0  0  0
  185.4330  177.4610  142.2290 C   0  0  0  0  0  3  0  0  0  0  0  0
  184.0750  178.0630  142.5420 C   0  0  0  0  0  2  0  0  0  0  0  0
  184.6730  178.2320  141.1620 C   0  0  0  0  0  2  0  0  0  0  0  0
  191.6730  178.1960  143.8290 C   0  0  0  0  0  1  0  0  0  0  0  0
  192.0610  176.7520  144.1200 C   0  0  0  0  0  3  0  0  0  0  0  0
  193.1220  176.7190  145.2030 C   0  0  0  0  0  1  0  0  0  0  0  0
  189.3570  175.6680  146.4170 C   0  0  0  0  0  0  0  0  0  0  0  0
  188.9470  174.9190  147.2700 C   0  0  0  0  0  3  0  0  0  0  0  0
  189.6730  173.8480  143.7260 C   0  0  0  0  0  2  0  0  0  0  0  0
  190.5770  172.8470  143.1670 N   0  0  0  0  0  0  0  0  0  0  0  0
  189.7150  171.7700  142.7030 C   0  0  0  0  0  2  0  0  0  0  0  0
  191.1410  172.3190  138.7750 C   0  0  2  0  0  3  0  0  0  0  0  0
  189.8430  171.6480  138.9340 N   0  0  0  0  0  2  0  0  0  0  0  0
  189.2870  171.9240  140.2620 C   0  0  0  0  0  2  0  0  0  0  0  0
  191.6150  171.6390  141.1330 C   0  0  0  0  0  3  0  0  0  0  0  0
  190.1650  171.2800  141.3380 C   0  0  1  0  0  3  0  0  0  0  0  0
  192.0600  172.1080  139.9600 C   0  0  0  0  0  3  0  0  0  0  0  0
  190.9880  173.7930  138.3840 C   0  0  0  0  0  2  0  0  0  0  0  0
  190.6750  174.5390  136.1900 C   0  0  0  0  0  1  0  0  0  0  0  0
  189.9920  173.9710  137.3370 N   0  0  0  0  0  2  0  0  0  0  0  0
  191.3720  172.3140  144.2670 C   0  0  0  0  0  2  0  0  0  0  0  0
  193.3870  173.1320  145.4730 C   0  0  0  0  0  1  0  0  0  0  0  0
  192.8220  172.7510  144.1220 C   0  0  0  0  0  2  0  0  0  0  0  0
  1  4  1  6  0  0  0
  1 20  1  0  0  0  0
  1  5  1  0  0  0  0
  3 18  1  1  0  0  0
  5 16  1  6  0  0  0
  5  3  1  0  0  0  0
  6  2  1  0  0  0  0
  7 12  1  1  0  0  0
  7  6  1  0  0  0  0
  8  7  1  0  0  0  0
  9  2  1  1  0  0  0
  9  3  1  0  0  0  0
 10  8  1  0  0  0  0
 11 10  1  6  0  0  0
 11  1  1  0  0  0  0
 11  9  1  0  0  0  0
 12 13  1  0  0  0  0
 14 12  1  0  0  0  0
 14 13  1  0  0  0  0
 15 16  1  0  0  0  0
 16 17  1  0  0  0  0
 18 19  3  0  0  0  0
 21 20  1  0  0  0  0
 21 32  1  0  0  0  0
 22 21  1  0  0  0  0
 23 29  1  1  0  0  0
 23 24  1  0  0  0  0
 23 28  1  0  0  0  0
 24 25  1  0  0  0  0
 25 27  1  0  0  0  0
 26 27  1  0  0  0  0
 27 22  1  1  0  0  0
 28 26  2  0  0  0  0
 30 31  1  0  0  0  0
 31 29  1  0  0  0  0
 34 32  1  0  0  0  0
 34 33  1  0  0  0  0
M  END
>  <MODEL>
8

>  <REMARK>
 VINA RESULT:      -5.7      2.399      6.222
  Name = 
  11 active torsions:
  status: ('A' for Active; 'I' for Inactive)
    1  A    between atoms: C_1  and  C_8
    2  A    between atoms: C_3  and  C_25
    3  A    between atoms: C_5  and  C_19
    4  A    between atoms: C_6  and  N_18
    5  A    between atoms: C_6  and  C_28
    6  A    between atoms: C_7  and  C_11
    7  A    between atoms: C_8  and  N_18
    8  A    between atoms: C_11  and  N_21
    9  A    between atoms: C_12  and  C_20
   10  A    between atoms: N_18  and  C_30
   11  A    between atoms: C_30  and  C_31
                            x       y       z     vdW  Elec       q    Type
                         _______ _______ _______ _____ _____    ______ ____

>  <TORSDO>
F 11

$$$$
=
 OpenBabel11052420363D

 34 37  0  0  1  0  0  0  0  0999 V2000
  191.7390  175.1890  142.8850 C   0  0  1  0  0  0  0  0  0  0  0  0
  195.1460  174.8640  143.9300 C   0  0  0  0  0  2  0  0  0  0  0  0
  192.9020  174.3330  144.8280 C   0  0  1  0  0  3  0  0  0  0  0  0
  190.7560  174.7700  141.7880 C   0  0  0  0  0  1  0  0  0  0  0  0
  191.5130  174.4550  144.2130 C   0  0  2  0  0  3  0  0  0  0  0  0
  196.2290  174.0660  143.2090 C   0  0  0  0  0  2  0  0  0  0  0  0
  196.0190  173.9710  141.6850 C   0  0  1  0  0  3  0  0  0  0  0  0
  194.7330  173.2660  141.2370 C   0  0  0  0  0  2  0  0  0  0  0  0
  193.8420  174.2410  143.6970 N   0  0  1  0  0  0  0  0  0  0  0  0
  193.4740  174.1480  141.2480 C   0  0  0  0  0  2  0  0  0  0  0  0
  193.2280  174.9200  142.5590 C   0  0  1  0  0  3  0  0  0  0  0  0
  196.5140  175.1100  140.7730 C   0  0  0  0  0  3  0  0  0  0  0  0
  197.9350  175.5160  141.1230 C   0  0  0  0  0  2  0  0  0  0  0  0
  197.6690  174.7140  139.8670 C   0  0  0  0  0  2  0  0  0  0  0  0
  191.7300  171.8960  144.2640 C   0  0  0  0  0  1  0  0  0  0  0  0
  190.7960  173.0900  144.1230 C   0  0  0  0  0  3  0  0  0  0  0  0
  189.6930  172.9980  145.1590 C   0  0  0  0  0  1  0  0  0  0  0  0
  193.1340  175.4810  145.7310 C   0  0  0  0  0  0  0  0  0  0  0  0
  193.3140  176.4190  146.4690 C   0  0  0  0  0  3  0  0  0  0  0  0
  191.5070  176.6780  143.1670 C   0  0  0  0  0  2  0  0  0  0  0  0
  190.1320  176.9780  143.5570 N   0  0  0  0  0  0  0  0  0  0  0  0
  189.5980  177.7960  142.4780 C   0  0  0  0  0  2  0  0  0  0  0  0
  185.6090  177.1910  143.6940 C   0  0  2  0  0  3  0  0  0  0  0  0
  186.2960  176.0630  143.0510 N   0  0  0  0  0  2  0  0  0  0  0  0
  187.7480  176.2600  143.0960 C   0  0  0  0  0  2  0  0  0  0  0  0
  187.2890  178.6630  142.5740 C   0  0  0  0  0  3  0  0  0  0  0  0
  188.1370  177.4640  142.2330 C   0  0  1  0  0  3  0  0  0  0  0  0
  186.1320  178.5360  143.2360 C   0  0  0  0  0  3  0  0  0  0  0  0
  185.5620  177.0490  145.2190 C   0  0  0  0  0  2  0  0  0  0  0  0
  184.0680  178.6320  146.0740 C   0  0  0  0  0  1  0  0  0  0  0  0
  185.4760  178.3450  145.8780 N   0  0  0  0  0  2  0  0  0  0  0  0
  190.1890  177.8220  144.7440 C   0  0  0  0  0  2  0  0  0  0  0  0
  189.9810  177.3320  147.1740 C   0  0  0  0  0  1  0  0  0  0  0  0
  189.2870  177.2570  145.8310 C   0  0  0  0  0  2  0  0  0  0  0  0
  1  4  1  6  0  0  0
  1 20  1  0  0  0  0
  1  5  1  0  0  0  0
  3 18  1  6  0  0  0
  5 16  1  6  0  0  0
  5  3  1  0  0  0  0
  6  2  1  0  0  0  0
  7 12  1  1  0  0  0
  7  6  1  0  0  0  0
  8 10  1  0  0  0  0
  8  7  1  0  0  0  0
  9  2  1  1  0  0  0
  9  3  1  0  0  0  0
 11 10  1  6  0  0  0
 11  1  1  0  0  0  0
 11  9  1  0  0  0  0
 12 13  1  0  0  0  0
 14 12  1  0  0  0  0
 14 13  1  0  0  0  0
 16 15  1  0  0  0  0
 16 17  1  0  0  0  0
 18 19  3  0  0  0  0
 20 21  1  0  0  0  0
 21 32  1  0  0  0  0
 22 21  1  0  0  0  0
 23 29  1  1  0  0  0
 24 25  1  0  0  0  0
 24 23  1  0  0  0  0
 26 28  2  0  0  0  0
 27 22  1  1  0  0  0
 27 26  1  0  0  0  0
 27 25  1  0  0  0  0
 28 23  1  0  0  0  0
 29 31  1  0  0  0  0
 31 30  1  0  0  0  0
 32 34  1  0  0  0  0
 34 33  1  0  0  0  0
M  END
>  <MODEL>
9

>  <REMARK>
 VINA RESULT:      -5.7      2.897      4.737
  Name = 
  11 active torsions:
  status: ('A' for Active; 'I' for Inactive)
    1  A    between atoms: C_1  and  C_8
    2  A    between atoms: C_3  and  C_25
    3  A    between atoms: C_5  and  C_19
    4  A    between atoms: C_6  and  N_18
    5  A    between atoms: C_6  and  C_28
    6  A    between atoms: C_7  and  C_11
    7  A    between atoms: C_8  and  N_18
    8  A    between atoms: C_11  and  N_21
    9  A    between atoms: C_12  and  C_20
   10  A    between atoms: N_18  and  C_30
   11  A    between atoms: C_30  and  C_31
                            x       y       z     vdW  Elec       q    Type
                         _______ _______ _______ _____ _____    ______ ____

>  <TORSDO>
F 11

$$$$
