=
 OpenBabel11052418503D

 34 39  0  0  1  0  0  0  0  0999 V2000
  191.9290  173.8380  140.9710 C   0  0  0  0  0  0  0  0  0  0  0  0
  190.0400  173.3600  142.4470 C   0  0  0  0  0  0  0  0  0  0  0  0
  191.9890  174.5690  143.3450 N   0  0  0  0  0  0  0  0  0  0  0  0
  192.8910  175.5460  146.7840 C   0  0  0  0  0  3  0  0  0  0  0  0
  189.8930  172.6950  140.0830 C   0  0  0  0  0  3  0  0  0  0  0  0
  189.3700  172.6980  141.3130 C   0  0  0  0  0  3  0  0  0  0  0  0
  190.4560  175.5180  145.1150 C   0  0  0  0  0  2  0  0  0  0  0  0
  191.2500  173.9290  142.2870 C   0  0  0  0  0  0  0  0  0  0  0  0
  189.2990  175.9820  147.2750 C   0  0  0  0  0  3  0  0  0  0  0  0
  191.7090  175.6990  147.4020 C   0  0  0  0  0  3  0  0  0  0  0  0
  191.1800  173.4000  139.7470 C   0  0  0  0  0  2  0  0  0  0  0  0
  193.3870  174.7950  143.1730 C   0  0  0  0  0  0  0  0  0  0  0  0
  193.2200  174.1830  140.8730 C   0  0  0  0  0  3  0  0  0  0  0  0
  189.4030  173.3370  143.6810 O   0  0  0  0  0  1  0  0  0  0  0  0
  192.8740  175.5010  145.2900 C   0  0  1  0  0  3  0  0  0  0  0  0
  194.0930  175.1770  144.4310 C   0  0  1  0  0  3  0  0  0  0  0  0
  190.4360  175.7380  146.6230 C   0  0  0  0  0  0  0  0  0  0  0  0
  191.6950  174.7010  144.7620 C   0  0  2  0  0  3  0  0  0  0  0  0
  193.9680  174.6210  142.0230 N   0  0  0  0  0  0  0  0  0  0  0  0
  196.4610  171.9490  146.0230 C   0  0  0  0  0  3  0  0  0  0  0  0
  195.1870  171.6800  145.5180 C   0  0  0  0  0  0  0  0  0  0  0  0
  194.9020  174.0310  144.9780 C   0  0  0  0  0  0  0  0  0  0  0  0
  196.9570  173.2560  146.0080 C   0  0  0  0  0  3  0  0  0  0  0  0
  194.4080  172.7170  144.9970 C   0  0  0  0  0  3  0  0  0  0  0  0
  196.1790  174.2940  145.4880 C   0  0  0  0  0  3  0  0  0  0  0  0
  194.7060  170.4130  145.5320 F   0  0  0  0  0  0  0  0  0  0  0  0
  187.9600  176.0600  146.6080 C   0  0  0  0  0  2  0  0  0  0  0  0
  186.4310  178.5430  148.0860 O   0  0  0  0  0  0  0  0  0  0  0  0
  187.5770  177.5050  146.2960 C   0  0  2  0  0  3  0  0  0  0  0  0
  186.3380  177.9120  147.0470 C   0  0  0  0  0  0  0  0  0  0  0  0
  184.8830  177.7230  145.0470 C   0  0  0  0  0  2  0  0  0  0  0  0
  186.0540  177.0750  144.3130 C   0  0  0  0  0  2  0  0  0  0  0  0
  187.3740  177.6890  144.7890 C   0  0  0  0  0  2  0  0  0  0  0  0
  184.9900  177.4780  146.5500 C   0  0  0  0  0  2  0  0  0  0  0  0
  1  8  1  0  0  0  0
  2 14  1  0  0  0  0
  3 18  1  0  0  0  0
  4 10  2  0  0  0  0
  5  6  2  0  0  0  0
  6  2  1  0  0  0  0
  7 17  1  0  0  0  0
  8  2  2  0  0  0  0
  8  3  1  0  0  0  0
 11  5  1  0  0  0  0
 11  1  1  0  0  0  0
 12  3  1  0  0  0  0
 12 16  1  0  0  0  0
 13  1  2  0  0  0  0
 13 19  1  0  0  0  0
 15  4  1  1  0  0  0
 16 22  1  1  0  0  0
 16 15  1  0  0  0  0
 17  9  2  0  0  0  0
 17 10  1  0  0  0  0
 18  7  1  6  0  0  0
 18 15  1  0  0  0  0
 19 12  2  0  0  0  0
 21 26  1  0  0  0  0
 21 20  2  0  0  0  0
 22 24  2  0  0  0  0
 22 25  1  0  0  0  0
 23 20  1  0  0  0  0
 24 21  1  0  0  0  0
 25 23  2  0  0  0  0
 27  9  1  0  0  0  0
 29 27  1  6  0  0  0
 29 30  1  0  0  0  0
 30 28  2  0  0  0  0
 31 34  1  0  0  0  0
 32 33  1  0  0  0  0
 32 31  1  0  0  0  0
 33 29  1  0  0  0  0
 34 30  1  0  0  0  0
M  END
>  <MODEL>
1

>  <REMARK>
 VINA RESULT:      -8.9      0.000      0.000
  Name = 
  3 active torsions:
  status: ('A' for Active; 'I' for Inactive)
    1  A    between atoms: C_3  and  C_13
    2  A    between atoms: C_3  and  C_17
    3  A    between atoms: C_12  and  C_28
                            x       y       z     vdW  Elec       q    Type
                         _______ _______ _______ _____ _____    ______ ____

>  <TORSDO>
F 3

$$$$
=
 OpenBabel11052418503D

 34 39  0  0  1  0  0  0  0  0999 V2000
  191.0470  173.5980  139.9580 C   0  0  0  0  0  0  0  0  0  0  0  0
  189.0180  173.5650  141.3200 C   0  0  0  0  0  0  0  0  0  0  0  0
  190.9150  174.9690  142.0250 N   0  0  0  0  0  0  0  0  0  0  0  0
  191.5290  176.8730  145.1220 C   0  0  0  0  0  3  0  0  0  0  0  0
  189.0660  172.2600  139.2340 C   0  0  0  0  0  3  0  0  0  0  0  0
  188.4340  172.6120  140.3580 C   0  0  0  0  0  3  0  0  0  0  0  0
  189.2570  176.3860  143.3020 C   0  0  0  0  0  2  0  0  0  0  0  0
  190.2550  174.0590  141.1230 C   0  0  0  0  0  0  0  0  0  0  0  0
  187.9230  177.4460  145.1240 C   0  0  0  0  0  3  0  0  0  0  0  0
  190.3010  177.1990  145.5560 C   0  0  0  0  0  3  0  0  0  0  0  0
  190.3990  172.8360  138.8390 C   0  0  0  0  0  2  0  0  0  0  0  0
  192.3290  175.1310  141.9320 C   0  0  0  0  0  0  0  0  0  0  0  0
  192.3520  173.8950  139.8920 C   0  0  0  0  0  3  0  0  0  0  0  0
  188.2710  173.8940  142.4430 O   0  0  0  0  0  1  0  0  0  0  0  0
  191.6470  176.4090  143.7070 C   0  0  1  0  0  3  0  0  0  0  0  0
  192.9280  175.8490  143.0950 C   0  0  1  0  0  3  0  0  0  0  0  0
  189.1070  177.0230  144.6790 C   0  0  0  0  0  0  0  0  0  0  0  0
  190.4960  175.4970  143.3130 C   0  0  2  0  0  3  0  0  0  0  0  0
  193.0060  174.6370  140.9390 N   0  0  0  0  0  0  0  0  0  0  0  0
  195.0310  173.1950  145.7580 C   0  0  0  0  0  3  0  0  0  0  0  0
  193.9060  172.7290  145.0730 C   0  0  0  0  0  0  0  0  0  0  0  0
  193.6480  174.9020  144.0170 C   0  0  0  0  0  0  0  0  0  0  0  0
  195.4650  174.5110  145.5760 C   0  0  0  0  0  3  0  0  0  0  0  0
  193.2160  173.5780  144.2040 C   0  0  0  0  0  3  0  0  0  0  0  0
  194.7740  175.3620  144.7080 C   0  0  0  0  0  3  0  0  0  0  0  0
  193.4860  171.4530  145.2490 F   0  0  0  0  0  0  0  0  0  0  0  0
  186.6540  177.3390  144.3350 C   0  0  0  0  0  2  0  0  0  0  0  0
  184.3940  179.6920  144.5310 O   0  0  0  0  0  0  0  0  0  0  0  0
  186.3210  178.6540  143.6350 C   0  0  2  0  0  3  0  0  0  0  0  0
  184.8430  178.9370  143.6860 C   0  0  0  0  0  0  0  0  0  0  0  0
  184.4830  178.2780  141.3230 C   0  0  0  0  0  2  0  0  0  0  0  0
  185.9150  177.7490  141.3000 C   0  0  0  0  0  2  0  0  0  0  0  0
  186.8090  178.6230  142.1830 C   0  0  0  0  0  2  0  0  0  0  0  0
  183.9170  178.2320  142.7400 C   0  0  0  0  0  2  0  0  0  0  0  0
  1  8  1  0  0  0  0
  2 14  1  0  0  0  0
  3 18  1  0  0  0  0
  4 10  2  0  0  0  0
  5  6  2  0  0  0  0
  6  2  1  0  0  0  0
  7 17  1  0  0  0  0
  8  2  2  0  0  0  0
  8  3  1  0  0  0  0
 11  5  1  0  0  0  0
 11  1  1  0  0  0  0
 12  3  1  0  0  0  0
 12 16  1  0  0  0  0
 13  1  2  0  0  0  0
 13 19  1  0  0  0  0
 15  4  1  1  0  0  0
 16 15  1  0  0  0  0
 16 22  1  1  0  0  0
 17  9  2  0  0  0  0
 17 10  1  0  0  0  0
 18  7  1  6  0  0  0
 18 15  1  0  0  0  0
 19 12  2  0  0  0  0
 21 26  1  0  0  0  0
 21 20  2  0  0  0  0
 22 24  2  0  0  0  0
 22 25  1  0  0  0  0
 23 20  1  0  0  0  0
 24 21  1  0  0  0  0
 25 23  2  0  0  0  0
 27  9  1  0  0  0  0
 29 30  1  0  0  0  0
 29 27  1  6  0  0  0
 30 28  2  0  0  0  0
 31 34  1  0  0  0  0
 32 31  1  0  0  0  0
 32 33  1  0  0  0  0
 33 29  1  0  0  0  0
 34 30  1  0  0  0  0
M  END
>  <MODEL>
2

>  <REMARK>
 VINA RESULT:      -8.3      1.834      2.394
  Name = 
  3 active torsions:
  status: ('A' for Active; 'I' for Inactive)
    1  A    between atoms: C_3  and  C_13
    2  A    between atoms: C_3  and  C_17
    3  A    between atoms: C_12  and  C_28
                            x       y       z     vdW  Elec       q    Type
                         _______ _______ _______ _____ _____    ______ ____

>  <TORSDO>
F 3

$$$$
=
 OpenBabel11052418503D

 34 39  0  0  1  0  0  0  0  0999 V2000
  192.6320  173.8910  144.8920 C   0  0  0  0  0  0  0  0  0  0  0  0
  191.7690  176.1780  144.9380 C   0  0  0  0  0  0  0  0  0  0  0  0
  190.7750  174.5510  143.3780 N   0  0  0  0  0  0  0  0  0  0  0  0
  188.3470  174.9620  140.6340 C   0  0  0  0  0  3  0  0  0  0  0  0
  193.5460  175.5500  146.5190 C   0  0  0  0  0  3  0  0  0  0  0  0
  192.7550  176.4880  145.9890 C   0  0  0  0  0  3  0  0  0  0  0  0
  188.6870  175.9740  143.3860 C   0  0  0  0  0  2  0  0  0  0  0  0
  191.6860  174.9350  144.4260 C   0  0  1  0  0  3  0  0  0  0  0  0
  186.8700  177.5560  142.7370 C   0  0  0  0  0  3  0  0  0  0  0  0
  187.6080  176.0190  141.0060 C   0  0  0  0  0  3  0  0  0  0  0  0
  193.4660  174.1010  146.1210 C   0  0  0  0  0  3  0  0  0  0  0  0
  191.0200  173.3450  142.6560 C   0  0  0  0  0  0  0  0  0  0  0  0
  192.7150  172.7340  144.2200 C   0  0  0  0  0  3  0  0  0  0  0  0
  190.9700  177.2130  144.4710 O   0  0  0  0  0  1  0  0  0  0  0  0
  189.1850  174.3160  141.6890 C   0  0  1  0  0  3  0  0  0  0  0  0
  190.2020  173.2110  141.4160 C   0  0  1  0  0  3  0  0  0  0  0  0
  187.6910  176.5630  142.3930 C   0  0  0  0  0  0  0  0  0  0  0  0
  189.8330  175.3420  142.6030 C   0  0  2  0  0  3  0  0  0  0  0  0
  191.9190  172.4910  143.0450 N   0  0  0  0  0  0  0  0  0  0  0  0
  192.4970  173.9340  137.8430 C   0  0  0  0  0  3  0  0  0  0  0  0
  193.0340  174.2810  139.0840 C   0  0  0  0  0  0  0  0  0  0  0  0
  191.0250  173.4700  140.1820 C   0  0  0  0  0  0  0  0  0  0  0  0
  191.2260  173.3570  137.7670 C   0  0  0  0  0  3  0  0  0  0  0  0
  192.3020  174.0510  140.2520 C   0  0  0  0  0  3  0  0  0  0  0  0
  190.4920  173.1270  138.9350 C   0  0  0  0  0  3  0  0  0  0  0  0
  194.2660  174.8410  139.1570 F   0  0  0  0  0  0  0  0  0  0  0  0
  186.8470  178.1780  144.1000 C   0  0  0  0  0  2  0  0  0  0  0  0
  183.9920  179.1430  145.3650 O   0  0  0  0  0  0  0  0  0  0  0  0
  185.7300  177.5920  144.9600 C   0  0  2  0  0  3  0  0  0  0  0  0
  185.0410  178.6650  145.7600 C   0  0  0  0  0  0  0  0  0  0  0  0
  186.1840  178.0370  147.8690 C   0  0  0  0  0  2  0  0  0  0  0  0
  187.0790  177.1070  147.0540 C   0  0  0  0  0  2  0  0  0  0  0  0
  186.2870  176.5080  145.8890 C   0  0  0  0  0  2  0  0  0  0  0  0
  185.6850  179.1940  147.0070 C   0  0  0  0  0  2  0  0  0  0  0  0
  1 11  1  0  0  0  0
  2  6  2  0  0  0  0
  3  8  1  0  0  0  0
  4 10  2  0  0  0  0
  6  5  1  0  0  0  0
  8  1  1  6  0  0  0
  8  2  1  0  0  0  0
  9 27  1  0  0  0  0
 10 17  1  0  0  0  0
 11  5  2  0  0  0  0
 12 19  2  0  0  0  0
 12  3  1  0  0  0  0
 13  1  2  0  0  0  0
 14  2  1  0  0  0  0
 15  4  1  6  0  0  0
 15 18  1  0  0  0  0
 16 22  1  6  0  0  0
 16 15  1  0  0  0  0
 16 12  1  0  0  0  0
 17  9  2  0  0  0  0
 17  7  1  0  0  0  0
 18  3  1  0  0  0  0
 18  7  1  1  0  0  0
 19 13  1  0  0  0  0
 20 21  1  0  0  0  0
 21 26  1  0  0  0  0
 21 24  2  0  0  0  0
 22 24  1  0  0  0  0
 23 20  2  0  0  0  0
 23 25  1  0  0  0  0
 25 22  2  0  0  0  0
 28 30  2  0  0  0  0
 29 27  1  1  0  0  0
 29 30  1  0  0  0  0
 29 33  1  0  0  0  0
 30 34  1  0  0  0  0
 32 31  1  0  0  0  0
 33 32  1  0  0  0  0
 34 31  1  0  0  0  0
M  END
>  <MODEL>
3

>  <REMARK>
 VINA RESULT:      -8.2      2.400      5.407
  Name = 
  3 active torsions:
  status: ('A' for Active; 'I' for Inactive)
    1  A    between atoms: C_3  and  C_13
    2  A    between atoms: C_3  and  C_17
    3  A    between atoms: C_12  and  C_28
                            x       y       z     vdW  Elec       q    Type
                         _______ _______ _______ _____ _____    ______ ____

>  <TORSDO>
F 3

$$$$
=
 OpenBabel11052418503D

 34 39  0  0  1  0  0  0  0  0999 V2000
  193.5320  174.3740  145.4450 C   0  0  0  0  0  0  0  0  0  0  0  0
  192.2510  176.2540  144.5490 C   0  0  0  0  0  0  0  0  0  0  0  0
  191.4850  173.9560  144.0990 N   0  0  0  0  0  0  0  0  0  0  0  0
  188.8430  172.6480  141.8840 C   0  0  0  0  0  3  0  0  0  0  0  0
  194.2190  176.7210  145.9510 C   0  0  0  0  0  3  0  0  0  0  0  0
  193.2280  177.1660  145.1710 C   0  0  0  0  0  3  0  0  0  0  0  0
  189.1680  174.9060  143.7590 C   0  0  0  0  0  2  0  0  0  0  0  0
  192.3740  174.9200  144.6950 C   0  0  1  0  0  3  0  0  0  0  0  0
  187.0420  175.7090  142.7310 C   0  0  0  0  0  3  0  0  0  0  0  0
  187.9420  173.6410  141.8270 C   0  0  0  0  0  3  0  0  0  0  0  0
  194.3910  175.2660  146.2920 C   0  0  0  0  0  3  0  0  0  0  0  0
  191.9080  172.5980  143.9960 C   0  0  0  0  0  0  0  0  0  0  0  0
  193.7900  173.0600  145.3860 C   0  0  0  0  0  3  0  0  0  0  0  0
  191.2390  176.8120  143.7810 O   0  0  0  0  0  1  0  0  0  0  0  0
  189.8590  172.7170  142.9780 C   0  0  1  0  0  3  0  0  0  0  0  0
  191.0480  171.7680  143.1010 C   0  0  1  0  0  3  0  0  0  0  0  0
  188.0130  174.7960  142.7700 C   0  0  0  0  0  0  0  0  0  0  0  0
  190.3590  174.1350  143.1980 C   0  0  2  0  0  3  0  0  0  0  0  0
  192.9780  172.1700  144.5960 N   0  0  0  0  0  0  0  0  0  0  0  0
  192.9330  170.9500  139.3140 C   0  0  0  0  0  3  0  0  0  0  0  0
  193.1570  172.1780  139.9400 C   0  0  0  0  0  0  0  0  0  0  0  0
  191.7210  171.5040  141.7810 C   0  0  0  0  0  0  0  0  0  0  0  0
  192.1050  169.9990  139.9170 C   0  0  0  0  0  3  0  0  0  0  0  0
  192.5540  172.4570  141.1690 C   0  0  0  0  0  3  0  0  0  0  0  0
  191.5000  170.2770  141.1470 C   0  0  0  0  0  3  0  0  0  0  0  0
  193.9600  173.1000  139.3560 F   0  0  0  0  0  0  0  0  0  0  0  0
  186.9920  176.9050  143.6320 C   0  0  0  0  0  2  0  0  0  0  0  0
  184.0700  178.3310  143.2970 O   0  0  0  0  0  0  0  0  0  0  0  0
  185.6690  176.9750  144.3910 C   0  0  2  0  0  3  0  0  0  0  0  0
  184.9600  178.2770  144.1280 C   0  0  0  0  0  0  0  0  0  0  0  0
  185.5880  179.2360  146.3270 C   0  0  0  0  0  2  0  0  0  0  0  0
  186.5160  178.0420  146.5320 C   0  0  0  0  0  2  0  0  0  0  0  0
  185.9070  176.7910  145.8930 C   0  0  0  0  0  2  0  0  0  0  0  0
  185.4010  179.5220  144.8390 C   0  0  0  0  0  2  0  0  0  0  0  0
  1 11  1  0  0  0  0
  2  6  2  0  0  0  0
  3  8  1  0  0  0  0
  5 11  2  0  0  0  0
  6  5  1  0  0  0  0
  8  2  1  6  0  0  0
  8  1  1  0  0  0  0
  9 17  2  0  0  0  0
  9 27  1  0  0  0  0
 10  4  2  0  0  0  0
 10 17  1  0  0  0  0
 12  3  1  0  0  0  0
 12 19  2  0  0  0  0
 13  1  2  0  0  0  0
 14  2  1  0  0  0  0
 15  4  1  6  0  0  0
 15 16  1  0  0  0  0
 15 18  1  0  0  0  0
 16 22  1  6  0  0  0
 16 12  1  0  0  0  0
 17  7  1  0  0  0  0
 18  7  1  1  0  0  0
 18  3  1  0  0  0  0
 19 13  1  0  0  0  0
 20 23  2  0  0  0  0
 20 21  1  0  0  0  0
 21 24  2  0  0  0  0
 23 25  1  0  0  0  0
 24 22  1  0  0  0  0
 25 22  2  0  0  0  0
 26 21  1  0  0  0  0
 28 30  2  0  0  0  0
 29 27  1  6  0  0  0
 29 33  1  0  0  0  0
 30 29  1  0  0  0  0
 30 34  1  0  0  0  0
 31 32  1  0  0  0  0
 33 32  1  0  0  0  0
 34 31  1  0  0  0  0
M  END
>  <MODEL>
4

>  <REMARK>
 VINA RESULT:      -8.1      2.456      5.073
  Name = 
  3 active torsions:
  status: ('A' for Active; 'I' for Inactive)
    1  A    between atoms: C_3  and  C_13
    2  A    between atoms: C_3  and  C_17
    3  A    between atoms: C_12  and  C_28
                            x       y       z     vdW  Elec       q    Type
                         _______ _______ _______ _____ _____    ______ ____

>  <TORSDO>
F 3

$$$$
=
 OpenBabel11052418503D

 34 39  0  0  1  0  0  0  0  0999 V2000
  190.5320  173.2250  139.4290 C   0  0  0  0  0  0  0  0  0  0  0  0
  192.4600  174.1650  140.6020 C   0  0  0  0  0  0  0  0  0  0  0  0
  190.3090  173.9750  141.7870 N   0  0  0  0  0  0  0  0  0  0  0  0
  189.2030  175.2490  145.0660 C   0  0  0  0  0  3  0  0  0  0  0  0
  192.7550  173.3530  138.2970 C   0  0  0  0  0  3  0  0  0  0  0  0
  193.2550  173.9650  139.3750 C   0  0  0  0  0  3  0  0  0  0  0  0
  191.6190  173.9720  143.9490 C   0  0  0  0  0  2  0  0  0  0  0  0
  191.1670  173.7910  140.6440 C   0  0  0  0  0  0  0  0  0  0  0  0
  192.6450  174.6390  146.1220 C   0  0  0  0  0  3  0  0  0  0  0  0
  190.3290  175.2970  145.7950 C   0  0  0  0  0  3  0  0  0  0  0  0
  191.3630  172.7810  138.2610 C   0  0  0  0  0  2  0  0  0  0  0  0
  188.8960  173.9020  141.6100 C   0  0  0  0  0  0  0  0  0  0  0  0
  189.2000  173.0810  139.3910 C   0  0  0  0  0  3  0  0  0  0  0  0
  193.0760  174.7830  141.6810 O   0  0  0  0  0  1  0  0  0  0  0  0
  189.2450  174.4420  143.8080 C   0  0  1  0  0  3  0  0  0  0  0  0
  188.1180  174.4030  142.7800 C   0  0  1  0  0  3  0  0  0  0  0  0
  191.5810  174.6390  145.3190 C   0  0  0  0  0  0  0  0  0  0  0  0
  190.5580  174.6210  143.0650 C   0  0  2  0  0  3  0  0  0  0  0  0
  188.3700  173.4820  140.4980 N   0  0  0  0  0  0  0  0  0  0  0  0
  186.4890  178.3050  141.9510 C   0  0  0  0  0  3  0  0  0  0  0  0
  185.7840  177.4300  142.7810 C   0  0  0  0  0  0  0  0  0  0  0  0
  187.5300  175.7630  142.5090 C   0  0  0  0  0  0  0  0  0  0  0  0
  187.7120  177.9120  141.4000 C   0  0  0  0  0  3  0  0  0  0  0  0
  186.3010  176.1620  143.0600 C   0  0  0  0  0  3  0  0  0  0  0  0
  188.2300  176.6440  141.6780 C   0  0  0  0  0  3  0  0  0  0  0  0
  184.5990  177.8110  143.3150 F   0  0  0  0  0  0  0  0  0  0  0  0
  193.9530  174.0010  145.7660 C   0  0  0  0  0  2  0  0  0  0  0  0
  194.5650  177.2070  145.9420 O   0  0  0  0  0  0  0  0  0  0  0  0
  195.1280  174.9160  146.1010 C   0  0  2  0  0  3  0  0  0  0  0  0
  195.0190  176.2290  145.3740 C   0  0  0  0  0  0  0  0  0  0  0  0
  196.7450  175.6170  143.7010 C   0  0  0  0  0  2  0  0  0  0  0  0
  196.7110  174.1950  144.2530 C   0  0  0  0  0  2  0  0  0  0  0  0
  196.4530  174.2260  145.7620 C   0  0  0  0  0  2  0  0  0  0  0  0
  195.4040  176.3130  143.9260 C   0  0  0  0  0  2  0  0  0  0  0  0
  1  8  1  0  0  0  0
  2  8  2  0  0  0  0
  2 14  1  0  0  0  0
  3 18  1  0  0  0  0
  4 10  2  0  0  0  0
  5  6  2  0  0  0  0
  6  2  1  0  0  0  0
  7 17  1  0  0  0  0
  8  3  1  0  0  0  0
 11  5  1  0  0  0  0
 11  1  1  0  0  0  0
 12  3  1  0  0  0  0
 12 16  1  0  0  0  0
 13  1  2  0  0  0  0
 13 19  1  0  0  0  0
 15  4  1  1  0  0  0
 16 22  1  6  0  0  0
 16 15  1  0  0  0  0
 17 10  1  0  0  0  0
 17  9  2  0  0  0  0
 18 15  1  0  0  0  0
 18  7  1  1  0  0  0
 19 12  2  0  0  0  0
 20 21  1  0  0  0  0
 21 24  2  0  0  0  0
 21 26  1  0  0  0  0
 22 24  1  0  0  0  0
 23 25  1  0  0  0  0
 23 20  2  0  0  0  0
 25 22  2  0  0  0  0
 27  9  1  0  0  0  0
 29 27  1  6  0  0  0
 30 28  2  0  0  0  0
 30 29  1  0  0  0  0
 31 34  1  0  0  0  0
 31 32  1  0  0  0  0
 32 33  1  0  0  0  0
 33 29  1  0  0  0  0
 34 30  1  0  0  0  0
M  END
>  <MODEL>
5

>  <REMARK>
 VINA RESULT:      -7.9      3.347      7.281
  Name = 
  3 active torsions:
  status: ('A' for Active; 'I' for Inactive)
    1  A    between atoms: C_3  and  C_13
    2  A    between atoms: C_3  and  C_17
    3  A    between atoms: C_12  and  C_28
                            x       y       z     vdW  Elec       q    Type
                         _______ _______ _______ _____ _____    ______ ____

>  <TORSDO>
F 3

$$$$
=
 OpenBabel11052418503D

 34 39  0  0  1  0  0  0  0  0999 V2000
  193.5360  174.2850  145.2010 C   0  0  0  0  0  0  0  0  0  0  0  0
  192.3050  176.3610  144.8100 C   0  0  0  0  0  0  0  0  0  0  0  0
  191.3790  174.2390  143.9690 N   0  0  0  0  0  0  0  0  0  0  0  0
  188.5160  173.5260  141.7570 C   0  0  0  0  0  3  0  0  0  0  0  0
  194.3900  176.4470  146.1130 C   0  0  0  0  0  3  0  0  0  0  0  0
  193.3750  177.0840  145.5230 C   0  0  0  0  0  3  0  0  0  0  0  0
  189.1020  175.3340  144.0170 C   0  0  0  0  0  2  0  0  0  0  0  0
  192.3620  175.0220  144.6740 C   0  0  1  0  0  3  0  0  0  0  0  0
  186.9580  176.4200  143.3480 C   0  0  0  0  0  3  0  0  0  0  0  0
  187.6710  174.5460  141.9760 C   0  0  0  0  0  3  0  0  0  0  0  0
  194.5030  174.9470  146.1380 C   0  0  0  0  0  3  0  0  0  0  0  0
  191.7140  172.9140  143.5590 C   0  0  0  0  0  0  0  0  0  0  0  0
  193.7130  173.0020  144.8580 C   0  0  0  0  0  3  0  0  0  0  0  0
  191.2750  177.1070  144.2550 O   0  0  0  0  0  1  0  0  0  0  0  0
  189.6090  173.3260  142.7570 C   0  0  1  0  0  3  0  0  0  0  0  0
  190.7470  172.3240  142.5880 C   0  0  1  0  0  3  0  0  0  0  0  0
  187.8750  175.4790  143.1230 C   0  0  0  0  0  0  0  0  0  0  0  0
  190.2040  174.6460  143.2170 C   0  0  2  0  0  3  0  0  0  0  0  0
  192.7980  172.3280  143.9720 N   0  0  0  0  0  0  0  0  0  0  0  0
  192.3970  172.3430  138.6090 C   0  0  0  0  0  3  0  0  0  0  0  0
  191.6030  171.2690  139.0160 C   0  0  0  0  0  0  0  0  0  0  0  0
  191.3090  172.3090  141.1920 C   0  0  0  0  0  0  0  0  0  0  0  0
  192.6500  173.3990  139.4890 C   0  0  0  0  0  3  0  0  0  0  0  0
  191.0590  171.2500  140.3030 C   0  0  0  0  0  3  0  0  0  0  0  0
  192.1070  173.3810  140.7770 C   0  0  0  0  0  3  0  0  0  0  0  0
  191.3580  170.2460  138.1630 F   0  0  0  0  0  0  0  0  0  0  0  0
  187.0400  177.4060  144.4730 C   0  0  0  0  0  2  0  0  0  0  0  0
  183.9990  178.2970  145.2740 O   0  0  0  0  0  0  0  0  0  0  0  0
  186.0160  177.0960  145.5620 C   0  0  2  0  0  3  0  0  0  0  0  0
  185.1000  178.2670  145.7960 C   0  0  0  0  0  0  0  0  0  0  0  0
  186.2430  178.9320  147.8940 C   0  0  0  0  0  2  0  0  0  0  0  0
  187.3340  177.9150  147.5690 C   0  0  0  0  0  2  0  0  0  0  0  0
  186.7230  176.7020  146.8620 C   0  0  0  0  0  2  0  0  0  0  0  0
  185.5750  179.4310  146.6150 C   0  0  0  0  0  2  0  0  0  0  0  0
  1 11  1  0  0  0  0
  2  6  2  0  0  0  0
  3  8  1  0  0  0  0
  4 10  2  0  0  0  0
  5 11  2  0  0  0  0
  6  5  1  0  0  0  0
  8  2  1  6  0  0  0
  8  1  1  0  0  0  0
  9 27  1  0  0  0  0
 10 17  1  0  0  0  0
 12  3  1  0  0  0  0
 12 19  2  0  0  0  0
 13  1  2  0  0  0  0
 14  2  1  0  0  0  0
 15  4  1  6  0  0  0
 15 18  1  0  0  0  0
 16 22  1  6  0  0  0
 16 15  1  0  0  0  0
 16 12  1  0  0  0  0
 17  9  2  0  0  0  0
 17  7  1  0  0  0  0
 18  3  1  0  0  0  0
 18  7  1  1  0  0  0
 19 13  1  0  0  0  0
 20 21  2  0  0  0  0
 20 23  1  0  0  0  0
 21 24  1  0  0  0  0
 23 25  2  0  0  0  0
 24 22  2  0  0  0  0
 25 22  1  0  0  0  0
 26 21  1  0  0  0  0
 28 30  2  0  0  0  0
 29 27  1  6  0  0  0
 29 30  1  0  0  0  0
 29 33  1  0  0  0  0
 30 34  1  0  0  0  0
 32 31  1  0  0  0  0
 33 32  1  0  0  0  0
 34 31  1  0  0  0  0
M  END
>  <MODEL>
6

>  <REMARK>
 VINA RESULT:      -7.8      2.386      5.111
  Name = 
  3 active torsions:
  status: ('A' for Active; 'I' for Inactive)
    1  A    between atoms: C_3  and  C_13
    2  A    between atoms: C_3  and  C_17
    3  A    between atoms: C_12  and  C_28
                            x       y       z     vdW  Elec       q    Type
                         _______ _______ _______ _____ _____    ______ ____

>  <TORSDO>
F 3

$$$$
=
 OpenBabel11052418503D

 34 39  0  0  1  0  0  0  0  0999 V2000
  194.1980  175.3430  145.1340 C   0  0  0  0  0  0  0  0  0  0  0  0
  193.6200  173.1910  144.1290 C   0  0  0  0  0  0  0  0  0  0  0  0
  192.1760  175.1410  143.7040 N   0  0  0  0  0  0  0  0  0  0  0  0
  188.8850  175.4370  142.0680 C   0  0  0  0  0  3  0  0  0  0  0  0
  195.6810  173.3600  145.4630 C   0  0  0  0  0  3  0  0  0  0  0  0
  194.8120  172.6120  144.7760 C   0  0  0  0  0  3  0  0  0  0  0  0
  191.4100  173.9830  141.5920 C   0  0  0  0  0  2  0  0  0  0  0  0
  193.3330  174.4990  144.2740 C   0  0  1  0  0  3  0  0  0  0  0  0
  190.0580  172.7390  139.9050 C   0  0  0  0  0  3  0  0  0  0  0  0
  188.8670  174.4280  141.1830 C   0  0  0  0  0  3  0  0  0  0  0  0
  195.5390  174.8530  145.5950 C   0  0  0  0  0  3  0  0  0  0  0  0
  191.7650  176.4060  144.2170 C   0  0  0  0  0  0  0  0  0  0  0  0
  193.7850  176.5710  145.4750 C   0  0  0  0  0  3  0  0  0  0  0  0
  192.7920  172.3380  143.4110 O   0  0  0  0  0  1  0  0  0  0  0  0
  190.2140  175.8130  142.6400 C   0  0  1  0  0  3  0  0  0  0  0  0
  190.4030  176.8220  143.7690 C   0  0  1  0  0  3  0  0  0  0  0  0
  190.1110  173.6720  140.8560 C   0  0  0  0  0  0  0  0  0  0  0  0
  191.0630  174.5910  142.9470 C   0  0  2  0  0  3  0  0  0  0  0  0
  192.5110  177.0820  145.0390 N   0  0  0  0  0  0  0  0  0  0  0  0
  187.4550  176.4150  146.8840 C   0  0  0  0  0  3  0  0  0  0  0  0
  188.5290  175.5230  146.8360 C   0  0  0  0  0  0  0  0  0  0  0  0
  189.3890  176.6620  144.8690 C   0  0  0  0  0  0  0  0  0  0  0  0
  187.3450  177.4290  145.9280 C   0  0  0  0  0  3  0  0  0  0  0  0
  189.4940  175.6440  145.8320 C   0  0  0  0  0  3  0  0  0  0  0  0
  188.3090  177.5510  144.9230 C   0  0  0  0  0  3  0  0  0  0  0  0
  188.6360  174.5410  147.7620 F   0  0  0  0  0  0  0  0  0  0  0  0
  191.2380  171.9230  139.4760 C   0  0  0  0  0  2  0  0  0  0  0  0
  192.6850  168.9920  139.5360 O   0  0  0  0  0  0  0  0  0  0  0  0
  190.8540  170.4630  139.2530 C   0  0  2  0  0  3  0  0  0  0  0  0
  192.0280  169.6620  138.7570 C   0  0  0  0  0  0  0  0  0  0  0  0
  191.2010  169.6160  136.4200 C   0  0  0  0  0  2  0  0  0  0  0  0
  190.1320  170.6260  136.8260 C   0  0  0  0  0  2  0  0  0  0  0  0
  189.6860  170.3640  138.2670 C   0  0  0  0  0  2  0  0  0  0  0  0
  192.4310  169.7460  137.3150 C   0  0  0  0  0  2  0  0  0  0  0  0
  1 13  2  0  0  0  0
  1 11  1  0  0  0  0
  2  6  2  0  0  0  0
  3 12  1  0  0  0  0
  3  8  1  0  0  0  0
  5 11  2  0  0  0  0
  6  5  1  0  0  0  0
  8  2  1  1  0  0  0
  8  1  1  0  0  0  0
  9 17  2  0  0  0  0
 10  4  2  0  0  0  0
 12 19  2  0  0  0  0
 14  2  1  0  0  0  0
 15  4  1  1  0  0  0
 15 18  1  0  0  0  0
 15 16  1  0  0  0  0
 16 12  1  0  0  0  0
 16 22  1  1  0  0  0
 17 10  1  0  0  0  0
 17  7  1  0  0  0  0
 18  7  1  6  0  0  0
 18  3  1  0  0  0  0
 19 13  1  0  0  0  0
 21 20  1  0  0  0  0
 21 26  1  0  0  0  0
 22 25  2  0  0  0  0
 22 24  1  0  0  0  0
 23 20  2  0  0  0  0
 24 21  2  0  0  0  0
 25 23  1  0  0  0  0
 27  9  1  0  0  0  0
 29 27  1  6  0  0  0
 30 29  1  0  0  0  0
 30 28  2  0  0  0  0
 31 32  1  0  0  0  0
 31 34  1  0  0  0  0
 32 33  1  0  0  0  0
 33 29  1  0  0  0  0
 34 30  1  0  0  0  0
M  END
>  <MODEL>
7

>  <REMARK>
 VINA RESULT:      -7.7      2.759      7.943
  Name = 
  3 active torsions:
  status: ('A' for Active; 'I' for Inactive)
    1  A    between atoms: C_3  and  C_13
    2  A    between atoms: C_3  and  C_17
    3  A    between atoms: C_12  and  C_28
                            x       y       z     vdW  Elec       q    Type
                         _______ _______ _______ _____ _____    ______ ____

>  <TORSDO>
F 3

$$$$
=
 OpenBabel11052418503D

 34 39  0  0  1  0  0  0  0  0999 V2000
  192.7510  175.1510  145.2710 C   0  0  0  0  0  0  0  0  0  0  0  0
  191.8310  173.2100  144.1040 C   0  0  0  0  0  0  0  0  0  0  0  0
  190.8160  175.4240  143.7370 N   0  0  0  0  0  0  0  0  0  0  0  0
  187.7440  176.4430  141.9700 C   0  0  0  0  0  3  0  0  0  0  0  0
  193.8050  172.9030  145.5410 C   0  0  0  0  0  3  0  0  0  0  0  0
  192.8510  172.3760  144.7680 C   0  0  0  0  0  3  0  0  0  0  0  0
  189.9670  174.5530  141.5220 C   0  0  0  0  0  2  0  0  0  0  0  0
  191.7930  174.5390  144.3190 C   0  0  1  0  0  3  0  0  0  0  0  0
  188.5030  173.6890  139.6960 C   0  0  0  0  0  3  0  0  0  0  0  0
  187.5850  175.5050  141.0220 C   0  0  0  0  0  3  0  0  0  0  0  0
  193.9440  174.3850  145.7620 C   0  0  0  0  0  3  0  0  0  0  0  0
  190.6250  176.7160  144.3100 C   0  0  0  0  0  0  0  0  0  0  0  0
  192.5620  176.4160  145.6700 C   0  0  0  0  0  3  0  0  0  0  0  0
  190.9000  172.5750  143.2940 O   0  0  0  0  0  1  0  0  0  0  0  0
  189.0840  176.5220  142.6270 C   0  0  1  0  0  3  0  0  0  0  0  0
  189.3970  177.4120  143.8260 C   0  0  1  0  0  3  0  0  0  0  0  0
  188.6780  174.5410  140.7070 C   0  0  0  0  0  0  0  0  0  0  0  0
  189.6640  175.1430  142.8950 C   0  0  2  0  0  3  0  0  0  0  0  0
  191.4370  177.1880  145.2090 N   0  0  0  0  0  0  0  0  0  0  0  0
  186.3200  177.3090  146.8400 C   0  0  0  0  0  3  0  0  0  0  0  0
  186.2380  178.2470  145.8080 C   0  0  0  0  0  0  0  0  0  0  0  0
  188.3070  177.3930  144.8650 C   0  0  0  0  0  0  0  0  0  0  0  0
  187.3930  176.4150  146.8880 C   0  0  0  0  0  3  0  0  0  0  0  0
  187.2280  178.2910  144.8230 C   0  0  0  0  0  3  0  0  0  0  0  0
  188.3840  176.4580  145.9030 C   0  0  0  0  0  3  0  0  0  0  0  0
  185.1980  179.1140  145.7620 F   0  0  0  0  0  0  0  0  0  0  0  0
  189.5290  172.6830  139.2720 C   0  0  0  0  0  2  0  0  0  0  0  0
  188.9710  174.1480  136.4040 O   0  0  0  0  0  0  0  0  0  0  0  0
  190.3360  173.1800  138.0750 C   0  0  2  0  0  3  0  0  0  0  0  0
  189.5170  173.1380  136.8130 C   0  0  0  0  0  0  0  0  0  0  0  0
  190.6480  171.0980  135.9700 C   0  0  0  0  0  2  0  0  0  0  0  0
  191.3210  170.9630  137.3330 C   0  0  0  0  0  2  0  0  0  0  0  0
  191.6130  172.3500  137.9120 C   0  0  0  0  0  2  0  0  0  0  0  0
  189.3160  171.8340  136.0990 C   0  0  0  0  0  2  0  0  0  0  0  0
  1 13  2  0  0  0  0
  1 11  1  0  0  0  0
  2  6  2  0  0  0  0
  3 12  1  0  0  0  0
  3  8  1  0  0  0  0
  5 11  2  0  0  0  0
  6  5  1  0  0  0  0
  8  2  1  1  0  0  0
  8  1  1  0  0  0  0
  9 17  2  0  0  0  0
 10  4  2  0  0  0  0
 12 19  2  0  0  0  0
 14  2  1  0  0  0  0
 15  4  1  1  0  0  0
 15 18  1  0  0  0  0
 15 16  1  0  0  0  0
 16 12  1  0  0  0  0
 16 22  1  1  0  0  0
 17 10  1  0  0  0  0
 17  7  1  0  0  0  0
 18  7  1  6  0  0  0
 18  3  1  0  0  0  0
 19 13  1  0  0  0  0
 20 23  1  0  0  0  0
 21 20  2  0  0  0  0
 22 25  1  0  0  0  0
 24 22  2  0  0  0  0
 24 21  1  0  0  0  0
 25 23  2  0  0  0  0
 26 21  1  0  0  0  0
 27  9  1  0  0  0  0
 28 30  2  0  0  0  0
 29 27  1  1  0  0  0
 30 29  1  0  0  0  0
 31 34  1  0  0  0  0
 31 32  1  0  0  0  0
 32 33  1  0  0  0  0
 33 29  1  0  0  0  0
 34 30  1  0  0  0  0
M  END
>  <MODEL>
8

>  <REMARK>
 VINA RESULT:      -7.7      3.288      8.068
  Name = 
  3 active torsions:
  status: ('A' for Active; 'I' for Inactive)
    1  A    between atoms: C_3  and  C_13
    2  A    between atoms: C_3  and  C_17
    3  A    between atoms: C_12  and  C_28
                            x       y       z     vdW  Elec       q    Type
                         _______ _______ _______ _____ _____    ______ ____

>  <TORSDO>
F 3

$$$$
=
 OpenBabel11052418503D

 34 39  0  0  1  0  0  0  0  0999 V2000
  192.6420  175.4190  145.3020 C   0  0  0  0  0  0  0  0  0  0  0  0
  191.8170  173.3820  144.2310 C   0  0  0  0  0  0  0  0  0  0  0  0
  190.6850  175.5220  143.7750 N   0  0  0  0  0  0  0  0  0  0  0  0
  187.5530  176.3010  141.9920 C   0  0  0  0  0  3  0  0  0  0  0  0
  193.8130  173.2430  145.6630 C   0  0  0  0  0  3  0  0  0  0  0  0
  192.8820  172.6330  144.9220 C   0  0  0  0  0  3  0  0  0  0  0  0
  189.8680  174.5100  141.6080 C   0  0  0  0  0  2  0  0  0  0  0  0
  191.7100  174.7160  144.3870 C   0  0  1  0  0  3  0  0  0  0  0  0
  188.4400  173.4900  139.8360 C   0  0  0  0  0  3  0  0  0  0  0  0
  187.4360  175.3150  141.0880 C   0  0  0  0  0  3  0  0  0  0  0  0
  193.8760  174.7380  145.8160 C   0  0  0  0  0  3  0  0  0  0  0  0
  190.4310  176.8270  144.2920 C   0  0  0  0  0  0  0  0  0  0  0  0
  192.3890  176.6890  145.6470 C   0  0  0  0  0  3  0  0  0  0  0  0
  190.9140  172.6640  143.4580 O   0  0  0  0  0  1  0  0  0  0  0  0
  188.8910  176.4780  142.6320 C   0  0  1  0  0  3  0  0  0  0  0  0
  189.1650  177.4360  143.7880 C   0  0  1  0  0  3  0  0  0  0  0  0
  188.5770  174.3940  140.8060 C   0  0  0  0  0  0  0  0  0  0  0  0
  189.5440  175.1450  142.9570 C   0  0  2  0  0  3  0  0  0  0  0  0
  191.2220  177.3800  145.1610 N   0  0  0  0  0  0  0  0  0  0  0  0
  186.1150  177.3050  146.8280 C   0  0  0  0  0  3  0  0  0  0  0  0
  186.0270  178.2570  145.8090 C   0  0  0  0  0  0  0  0  0  0  0  0
  188.0850  177.4080  144.8360 C   0  0  0  0  0  0  0  0  0  0  0  0
  187.1840  176.4060  146.8540 C   0  0  0  0  0  3  0  0  0  0  0  0
  187.0080  178.3100  144.8160 C   0  0  0  0  0  3  0  0  0  0  0  0
  188.1670  176.4580  145.8610 C   0  0  0  0  0  3  0  0  0  0  0  0
  184.9900  179.1290  145.7840 F   0  0  0  0  0  0  0  0  0  0  0  0
  189.5130  172.5210  139.4480 C   0  0  0  0  0  2  0  0  0  0  0  0
  189.9430  170.3440  137.0480 O   0  0  0  0  0  0  0  0  0  0  0  0
  189.7500  172.5250  137.9400 C   0  0  2  0  0  3  0  0  0  0  0  0
  190.5260  171.3100  137.5080 C   0  0  0  0  0  0  0  0  0  0  0  0
  192.6440  172.5720  137.2420 C   0  0  0  0  0  2  0  0  0  0  0  0
  191.9630  173.7660  137.9050 C   0  0  0  0  0  2  0  0  0  0  0  0
  190.4820  173.8040  137.5190 C   0  0  0  0  0  2  0  0  0  0  0  0
  192.0120  171.2640  137.7110 C   0  0  0  0  0  2  0  0  0  0  0  0
  1 13  2  0  0  0  0
  1 11  1  0  0  0  0
  2  6  2  0  0  0  0
  3 12  1  0  0  0  0
  3  8  1  0  0  0  0
  5 11  2  0  0  0  0
  6  5  1  0  0  0  0
  8  2  1  1  0  0  0
  8  1  1  0  0  0  0
  9 17  2  0  0  0  0
 10  4  2  0  0  0  0
 12 19  2  0  0  0  0
 14  2  1  0  0  0  0
 15  4  1  1  0  0  0
 15 18  1  0  0  0  0
 15 16  1  0  0  0  0
 16 12  1  0  0  0  0
 16 22  1  1  0  0  0
 17 10  1  0  0  0  0
 17  7  1  0  0  0  0
 18  7  1  6  0  0  0
 18  3  1  0  0  0  0
 19 13  1  0  0  0  0
 20 23  1  0  0  0  0
 21 20  2  0  0  0  0
 22 25  1  0  0  0  0
 24 22  2  0  0  0  0
 24 21  1  0  0  0  0
 25 23  2  0  0  0  0
 26 21  1  0  0  0  0
 27  9  1  0  0  0  0
 28 30  2  0  0  0  0
 29 27  1  1  0  0  0
 30 34  1  0  0  0  0
 30 29  1  0  0  0  0
 31 34  1  0  0  0  0
 31 32  1  0  0  0  0
 33 32  1  0  0  0  0
 33 29  1  0  0  0  0
M  END
>  <MODEL>
9

>  <REMARK>
 VINA RESULT:      -7.6      3.261      8.159
  Name = 
  3 active torsions:
  status: ('A' for Active; 'I' for Inactive)
    1  A    between atoms: C_3  and  C_13
    2  A    between atoms: C_3  and  C_17
    3  A    between atoms: C_12  and  C_28
                            x       y       z     vdW  Elec       q    Type
                         _______ _______ _______ _____ _____    ______ ____

>  <TORSDO>
F 3

$$$$
