=
 OpenBabel11052418083D

 28 31  0  0  1  0  0  0  0  0999 V2000
  185.4630  177.2510  146.0470 C   0  0  1  0  0  3  0  0  0  0  0  0
  188.0400  174.2520  142.5810 C   0  0  0  0  0  3  0  0  0  0  0  0
  186.3890  179.6510  142.5570 F   0  0  0  0  0  0  0  0  0  0  0  0
  187.7650  175.4430  140.4800 C   0  0  0  0  0  0  0  0  0  0  0  0
  186.7790  176.3560  142.5230 C   0  0  0  0  0  0  0  0  0  0  0  0
  189.0110  173.3670  140.5460 C   0  0  0  0  0  0  0  0  0  0  0  0
  187.5260  175.3500  141.8730 C   0  0  0  0  0  0  0  0  0  0  0  0
  186.5180  177.5090  140.3930 C   0  0  0  0  0  3  0  0  0  0  0  0
  188.5050  174.4530  139.8280 C   0  0  0  0  0  3  0  0  0  0  0  0
  184.9290  178.1910  143.7650 C   0  0  2  0  0  3  0  0  0  0  0  0
  186.4380  176.2130  143.9880 C   0  0  0  0  0  2  0  0  0  0  0  0
  187.2600  176.5190  139.7520 C   0  0  0  0  0  3  0  0  0  0  0  0
  183.6680  178.8880  145.4980 C   0  0  0  0  0  2  0  0  0  0  0  0
  185.5260  178.5760  142.4120 C   0  0  2  0  0  3  0  0  0  0  0  0
  184.4110  179.3370  144.3950 O   0  0  0  0  0  0  0  0  0  0  0  0
  189.7470  172.3870  139.8940 O   0  0  0  0  0  1  0  0  0  0  0  0
  188.7790  173.2660  141.9190 C   0  0  0  0  0  3  0  0  0  0  0  0
  186.2620  177.4340  141.7660 C   0  0  0  0  0  0  0  0  0  0  0  0
  184.6190  178.4070  146.5870 C   0  0  0  0  0  2  0  0  0  0  0  0
  186.0100  177.5280  144.6370 C   0  0  2  0  0  3  0  0  0  0  0  0
  186.5550  176.8000  147.0300 C   0  0  2  0  0  3  0  0  0  0  0  0
  186.1310  176.8870  148.3590 O   0  0  0  0  0  1  0  0  0  0  0  0
  187.9630  177.3910  146.8310 C   0  0  0  0  0  2  0  0  0  0  0  0
  188.7020  175.0830  146.8040 O   0  0  0  0  0  1  0  0  0  0  0  0
  189.1210  176.4040  146.6270 C   0  0  1  0  0  3  0  0  0  0  0  0
  189.8720  176.5970  145.3370 C   0  0  0  0  0  0  0  0  0  0  0  0
  190.5940  175.5950  144.8410 C   0  0  0  0  0  2  0  0  0  0  0  0
  189.7100  177.8380  144.5210 C   0  0  0  0  0  1  0  0  0  0  0  0
  1 19  1  0  0  0  0
  1 21  1  1  0  0  0
  4  7  1  0  0  0  0
  5 11  1  0  0  0  0
  6 17  2  0  0  0  0
  7  5  1  0  0  0  0
  7  2  2  0  0  0  0
  8 18  1  0  0  0  0
  9  4  2  0  0  0  0
  9  6  1  0  0  0  0
 10 15  1  1  0  0  0
 10 20  1  0  0  0  0
 12  8  2  0  0  0  0
 12  4  1  0  0  0  0
 13 19  1  0  0  0  0
 14  3  1  1  0  0  0
 14 10  1  0  0  0  0
 15 13  1  0  0  0  0
 16  6  1  0  0  0  0
 17  2  1  0  0  0  0
 18 14  1  0  0  0  0
 18  5  2  0  0  0  0
 20 11  1  6  0  0  0
 20  1  1  0  0  0  0
 21 22  1  1  0  0  0
 23 21  1  0  0  0  0
 25 24  1  6  0  0  0
 25 23  1  0  0  0  0
 26 25  1  0  0  0  0
 27 26  2  0  0  0  0
 28 26  1  0  0  0  0
M  END
>  <MODEL>
1

>  <REMARK>
 VINA RESULT:      -7.6      0.000      0.000
  Name = 
  4 active torsions:
  status: ('A' for Active; 'I' for Inactive)
    1  A    between atoms: C_1  and  C_2
    2  A    between atoms: C_2  and  C_3
    3  A    between atoms: C_3  and  C_11
    4  A    between atoms: C_6  and  C_11
                            x       y       z     vdW  Elec       q    Type
                         _______ _______ _______ _____ _____    ______ ____

>  <TORSDO>
F 4

$$$$
=
 OpenBabel11052418083D

 28 31  0  0  1  0  0  0  0  0999 V2000
  187.5910  177.6250  143.0490 C   0  0  1  0  0  3  0  0  0  0  0  0
  192.6300  176.3840  143.8980 C   0  0  0  0  0  3  0  0  0  0  0  0
  187.9650  176.0070  147.0550 F   0  0  0  0  0  0  0  0  0  0  0  0
  192.7920  176.2790  146.3200 C   0  0  0  0  0  0  0  0  0  0  0  0
  190.6460  176.8160  145.2760 C   0  0  0  0  0  0  0  0  0  0  0  0
  194.7440  175.8520  144.9520 C   0  0  0  0  0  0  0  0  0  0  0  0
  192.0150  176.4940  145.1550 C   0  0  0  0  0  0  0  0  0  0  0  0
  190.8580  176.7120  147.7010 C   0  0  0  0  0  3  0  0  0  0  0  0
  194.1470  175.9590  146.2110 C   0  0  0  0  0  3  0  0  0  0  0  0
  187.9660  177.8550  145.5360 C   0  0  2  0  0  3  0  0  0  0  0  0
  189.8370  177.1430  144.0430 C   0  0  0  0  0  2  0  0  0  0  0  0
  192.2080  176.3890  147.5810 C   0  0  0  0  0  3  0  0  0  0  0  0
  186.0740  178.7340  144.6830 C   0  0  0  0  0  2  0  0  0  0  0  0
  188.6060  177.1990  146.7600 C   0  0  2  0  0  3  0  0  0  0  0  0
  186.5710  177.9130  145.7080 O   0  0  0  0  0  0  0  0  0  0  0  0
  196.0910  175.5320  144.8490 O   0  0  0  0  0  1  0  0  0  0  0  0
  193.9870  176.0640  143.7980 C   0  0  0  0  0  3  0  0  0  0  0  0
  190.0740  176.9370  146.5650 C   0  0  0  0  0  0  0  0  0  0  0  0
  186.1360  177.9860  143.3580 C   0  0  0  0  0  2  0  0  0  0  0  0
  188.3290  177.0560  144.2720 C   0  0  2  0  0  3  0  0  0  0  0  0
  187.7320  176.7360  141.8030 C   0  0  2  0  0  3  0  0  0  0  0  0
  187.1140  177.3010  140.6850 O   0  0  0  0  0  1  0  0  0  0  0  0
  187.3870  175.2440  141.9650 C   0  0  0  0  0  2  0  0  0  0  0  0
  188.6260  174.5290  140.0090 O   0  0  0  0  0  1  0  0  0  0  0  0
  188.3520  174.2250  141.3440 C   0  0  1  0  0  3  0  0  0  0  0  0
  189.6050  173.9990  142.1470 C   0  0  0  0  0  0  0  0  0  0  0  0
  190.7870  174.3110  141.6220 C   0  0  0  0  0  2  0  0  0  0  0  0
  189.5460  173.5700  143.5770 C   0  0  0  0  0  1  0  0  0  0  0  0
  1 21  1  6  0  0  0
  1 19  1  0  0  0  0
  1 20  1  0  0  0  0
  2  7  1  0  0  0  0
  4 12  1  0  0  0  0
  5 18  2  0  0  0  0
  6  9  2  0  0  0  0
  7  5  1  0  0  0  0
  7  4  2  0  0  0  0
  9  4  1  0  0  0  0
 10 15  1  1  0  0  0
 10 14  1  0  0  0  0
 11  5  1  0  0  0  0
 12  8  2  0  0  0  0
 13 15  1  0  0  0  0
 14  3  1  6  0  0  0
 16  6  1  0  0  0  0
 17  2  2  0  0  0  0
 17  6  1  0  0  0  0
 18 14  1  0  0  0  0
 18  8  1  0  0  0  0
 19 13  1  0  0  0  0
 20 11  1  6  0  0  0
 20 10  1  0  0  0  0
 21 22  1  6  0  0  0
 21 23  1  0  0  0  0
 25 24  1  6  0  0  0
 25 23  1  0  0  0  0
 25 26  1  0  0  0  0
 26 28  1  0  0  0  0
 27 26  2  0  0  0  0
M  END
>  <MODEL>
2

>  <REMARK>
 VINA RESULT:      -7.5      2.901      5.883
  Name = 
  4 active torsions:
  status: ('A' for Active; 'I' for Inactive)
    1  A    between atoms: C_1  and  C_2
    2  A    between atoms: C_2  and  C_3
    3  A    between atoms: C_3  and  C_11
    4  A    between atoms: C_6  and  C_11
                            x       y       z     vdW  Elec       q    Type
                         _______ _______ _______ _____ _____    ______ ____

>  <TORSDO>
F 4

$$$$
=
 OpenBabel11052418083D

 28 31  0  0  1  0  0  0  0  0999 V2000
  186.5490  178.4840  144.6600 C   0  0  1  0  0  3  0  0  0  0  0  0
  191.4380  177.0230  143.3870 C   0  0  0  0  0  3  0  0  0  0  0  0
  187.7980  175.3250  147.3540 F   0  0  0  0  0  0  0  0  0  0  0  0
  192.2380  175.9030  145.3890 C   0  0  0  0  0  0  0  0  0  0  0  0
  189.9720  176.8220  145.3450 C   0  0  0  0  0  0  0  0  0  0  0  0
  193.6770  176.1030  143.4510 C   0  0  0  0  0  0  0  0  0  0  0  0
  191.2070  176.5880  144.7020 C   0  0  0  0  0  0  0  0  0  0  0  0
  190.8210  175.7020  147.3350 C   0  0  0  0  0  3  0  0  0  0  0  0
  193.4630  175.6650  144.7610 C   0  0  0  0  0  3  0  0  0  0  0  0
  187.6130  177.6420  146.7900 C   0  0  2  0  0  3  0  0  0  0  0  0
  188.9040  177.6370  144.6530 C   0  0  0  0  0  2  0  0  0  0  0  0
  192.0380  175.4660  146.6980 C   0  0  0  0  0  3  0  0  0  0  0  0
  185.6820  178.7920  146.9740 C   0  0  0  0  0  2  0  0  0  0  0  0
  188.4750  176.5330  147.3910 C   0  0  2  0  0  3  0  0  0  0  0  0
  186.3350  177.6160  147.3780 O   0  0  0  0  0  0  0  0  0  0  0  0
  194.8950  175.8630  142.8300 O   0  0  0  0  0  1  0  0  0  0  0  0
  192.6670  176.7810  142.7660 C   0  0  0  0  0  3  0  0  0  0  0  0
  189.7920  176.3840  146.6790 C   0  0  0  0  0  0  0  0  0  0  0  0
  185.2890  178.6750  145.5070 C   0  0  0  0  0  2  0  0  0  0  0  0
  187.5170  177.4550  145.2650 C   0  0  2  0  0  3  0  0  0  0  0  0
  186.2360  178.2070  143.1800 C   0  0  2  0  0  3  0  0  0  0  0  0
  185.0140  178.7610  142.7920 O   0  0  0  0  0  1  0  0  0  0  0  0
  186.3970  176.7560  142.6910 C   0  0  0  0  0  2  0  0  0  0  0  0
  188.0590  177.6410  141.1660 O   0  0  0  0  0  1  0  0  0  0  0  0
  187.2770  176.5210  141.4560 C   0  0  1  0  0  3  0  0  0  0  0  0
  188.0910  175.2550  141.5150 C   0  0  0  0  0  0  0  0  0  0  0  0
  188.3640  174.7050  142.6960 C   0  0  0  0  0  2  0  0  0  0  0  0
  188.4760  174.5190  140.2730 C   0  0  0  0  0  1  0  0  0  0  0  0
  1 21  1  6  0  0  0
  1 20  1  0  0  0  0
  1 19  1  0  0  0  0
  2  7  1  0  0  0  0
  4 12  1  0  0  0  0
  5 18  2  0  0  0  0
  6  9  2  0  0  0  0
  7  5  1  0  0  0  0
  7  4  2  0  0  0  0
  9  4  1  0  0  0  0
 10 15  1  1  0  0  0
 10 14  1  0  0  0  0
 11  5  1  0  0  0  0
 12  8  2  0  0  0  0
 13 15  1  0  0  0  0
 14  3  1  6  0  0  0
 16  6  1  0  0  0  0
 17  2  2  0  0  0  0
 17  6  1  0  0  0  0
 18  8  1  0  0  0  0
 18 14  1  0  0  0  0
 19 13  1  0  0  0  0
 20 11  1  6  0  0  0
 20 10  1  0  0  0  0
 21 22  1  1  0  0  0
 23 21  1  0  0  0  0
 25 24  1  1  0  0  0
 25 26  1  0  0  0  0
 25 23  1  0  0  0  0
 26 27  2  0  0  0  0
 28 26  1  0  0  0  0
M  END
>  <MODEL>
3

>  <REMARK>
 VINA RESULT:      -7.5      2.567      5.306
  Name = 
  4 active torsions:
  status: ('A' for Active; 'I' for Inactive)
    1  A    between atoms: C_1  and  C_2
    2  A    between atoms: C_2  and  C_3
    3  A    between atoms: C_3  and  C_11
    4  A    between atoms: C_6  and  C_11
                            x       y       z     vdW  Elec       q    Type
                         _______ _______ _______ _____ _____    ______ ____

>  <TORSDO>
F 4

$$$$
=
 OpenBabel11052418083D

 28 31  0  0  1  0  0  0  0  0999 V2000
  191.7680  176.0400  145.3540 C   0  0  1  0  0  3  0  0  0  0  0  0
  187.8320  177.4940  142.1850 C   0  0  0  0  0  3  0  0  0  0  0  0
  188.9630  178.4320  147.6360 F   0  0  0  0  0  0  0  0  0  0  0  0
  186.0480  178.0850  143.7250 C   0  0  0  0  0  0  0  0  0  0  0  0
  188.1980  177.3200  144.6050 C   0  0  0  0  0  0  0  0  0  0  0  0
  185.6960  178.2560  141.3350 C   0  0  0  0  0  0  0  0  0  0  0  0
  187.3700  177.6300  143.5040 C   0  0  0  0  0  0  0  0  0  0  0  0
  186.3760  177.9110  146.1120 C   0  0  0  0  0  3  0  0  0  0  0  0
  185.2210  178.3950  142.6420 C   0  0  0  0  0  3  0  0  0  0  0  0
  189.7380  176.3180  146.8300 C   0  0  2  0  0  3  0  0  0  0  0  0
  189.5740  176.7420  144.3750 C   0  0  0  0  0  2  0  0  0  0  0  0
  185.5620  178.2220  145.0250 C   0  0  0  0  0  3  0  0  0  0  0  0
  191.5250  175.2600  147.7070 C   0  0  0  0  0  2  0  0  0  0  0  0
  188.5370  177.2140  147.1320 C   0  0  2  0  0  3  0  0  0  0  0  0
  190.5880  176.2760  147.9510 O   0  0  0  0  0  0  0  0  0  0  0  0
  184.8720  178.5670  140.2620 O   0  0  0  0  0  1  0  0  0  0  0  0
  186.9980  177.8060  141.1070 C   0  0  0  0  0  3  0  0  0  0  0  0
  187.6830  177.4520  145.9170 C   0  0  0  0  0  0  0  0  0  0  0  0
  192.5190  175.7290  146.6510 C   0  0  0  0  0  2  0  0  0  0  0  0
  190.4860  176.8530  145.5960 C   0  0  2  0  0  3  0  0  0  0  0  0
  192.6720  176.6640  144.2780 C   0  0  2  0  0  3  0  0  0  0  0  0
  192.5080  176.0460  143.0360 O   0  0  0  0  0  1  0  0  0  0  0  0
  194.1570  176.8570  144.6380 C   0  0  0  0  0  2  0  0  0  0  0  0
  196.3820  176.6420  143.7020 O   0  0  0  0  0  1  0  0  0  0  0  0
  195.1790  175.9670  143.9180 C   0  0  1  0  0  3  0  0  0  0  0  0
  195.3870  174.6240  144.5670 C   0  0  0  0  0  0  0  0  0  0  0  0
  195.9750  174.5550  145.7580 C   0  0  0  0  0  2  0  0  0  0  0  0
  194.8150  173.3770  143.9740 C   0  0  0  0  0  1  0  0  0  0  0  0
  1 21  1  6  0  0  0
  1 20  1  0  0  0  0
  1 19  1  0  0  0  0
  2  7  1  0  0  0  0
  4 12  1  0  0  0  0
  5 18  2  0  0  0  0
  6  9  2  0  0  0  0
  7  4  2  0  0  0  0
  7  5  1  0  0  0  0
  9  4  1  0  0  0  0
 10 14  1  0  0  0  0
 10 15  1  1  0  0  0
 11  5  1  0  0  0  0
 12  8  2  0  0  0  0
 13 15  1  0  0  0  0
 14  3  1  6  0  0  0
 16  6  1  0  0  0  0
 17  6  1  0  0  0  0
 17  2  2  0  0  0  0
 18  8  1  0  0  0  0
 18 14  1  0  0  0  0
 19 13  1  0  0  0  0
 20 11  1  6  0  0  0
 20 10  1  0  0  0  0
 21 22  1  6  0  0  0
 21 23  1  0  0  0  0
 25 24  1  1  0  0  0
 25 26  1  0  0  0  0
 25 23  1  0  0  0  0
 26 27  2  0  0  0  0
 28 26  1  0  0  0  0
M  END
>  <MODEL>
4

>  <REMARK>
 VINA RESULT:      -7.2      3.344      6.152
  Name = 
  4 active torsions:
  status: ('A' for Active; 'I' for Inactive)
    1  A    between atoms: C_1  and  C_2
    2  A    between atoms: C_2  and  C_3
    3  A    between atoms: C_3  and  C_11
    4  A    between atoms: C_6  and  C_11
                            x       y       z     vdW  Elec       q    Type
                         _______ _______ _______ _____ _____    ______ ____

>  <TORSDO>
F 4

$$$$
=
 OpenBabel11052418083D

 28 31  0  0  1  0  0  0  0  0999 V2000
  187.1380  176.4670  146.2140 C   0  0  1  0  0  3  0  0  0  0  0  0
  188.1640  174.8050  141.3310 C   0  0  0  0  0  3  0  0  0  0  0  0
  186.4440  179.7430  143.4600 F   0  0  0  0  0  0  0  0  0  0  0  0
  186.9990  176.4090  139.9260 C   0  0  0  0  0  0  0  0  0  0  0  0
  186.9120  176.6490  142.3580 C   0  0  0  0  0  0  0  0  0  0  0  0
  188.2390  174.5880  138.9210 C   0  0  0  0  0  0  0  0  0  0  0  0
  187.3610  175.9510  141.2160 C   0  0  0  0  0  0  0  0  0  0  0  0
  185.7480  178.2260  140.9110 C   0  0  0  0  0  3  0  0  0  0  0  0
  187.4400  175.7270  138.7890 C   0  0  0  0  0  3  0  0  0  0  0  0
  185.6720  177.8350  144.6790 C   0  0  2  0  0  3  0  0  0  0  0  0
  187.2130  176.1100  143.7370 C   0  0  0  0  0  2  0  0  0  0  0  0
  186.1970  177.5400  139.7830 C   0  0  0  0  0  3  0  0  0  0  0  0
  185.2150  177.9010  146.8850 C   0  0  0  0  0  2  0  0  0  0  0  0
  185.6410  178.6190  143.3660 C   0  0  2  0  0  3  0  0  0  0  0  0
  185.4170  178.7070  145.7540 O   0  0  0  0  0  0  0  0  0  0  0  0
  188.6760  173.9140  137.7890 O   0  0  0  0  0  1  0  0  0  0  0  0
  188.6000  174.1280  140.1890 C   0  0  0  0  0  3  0  0  0  0  0  0
  186.0860  177.7870  142.1950 C   0  0  0  0  0  0  0  0  0  0  0  0
  186.5490  177.3210  147.3390 C   0  0  0  0  0  2  0  0  0  0  0  0
  187.0410  177.1520  144.8410 C   0  0  2  0  0  3  0  0  0  0  0  0
  188.5560  175.9620  146.5280 C   0  0  2  0  0  3  0  0  0  0  0  0
  188.5590  175.0220  147.5610 O   0  0  0  0  0  1  0  0  0  0  0  0
  189.6530  177.0280  146.7100 C   0  0  0  0  0  2  0  0  0  0  0  0
  191.6190  175.6880  146.2500 O   0  0  0  0  0  1  0  0  0  0  0  0
  190.9430  176.8570  145.8960 C   0  0  1  0  0  3  0  0  0  0  0  0
  190.7500  176.9780  144.4080 C   0  0  0  0  0  0  0  0  0  0  0  0
  190.5130  178.1730  143.8720 C   0  0  0  0  0  2  0  0  0  0  0  0
  190.9630  175.8130  143.4980 C   0  0  0  0  0  1  0  0  0  0  0  0
  1 21  1  1  0  0  0
  1 19  1  0  0  0  0
  4  7  1  0  0  0  0
  5 11  1  0  0  0  0
  6 17  1  0  0  0  0
  7  2  1  0  0  0  0
  7  5  2  0  0  0  0
  8 18  2  0  0  0  0
  9  6  2  0  0  0  0
  9  4  1  0  0  0  0
 10 20  1  0  0  0  0
 10 15  1  1  0  0  0
 12  4  2  0  0  0  0
 12  8  1  0  0  0  0
 13 19  1  0  0  0  0
 14  3  1  1  0  0  0
 14 10  1  0  0  0  0
 15 13  1  0  0  0  0
 16  6  1  0  0  0  0
 17  2  2  0  0  0  0
 18  5  1  0  0  0  0
 18 14  1  0  0  0  0
 20 11  1  6  0  0  0
 20  1  1  0  0  0  0
 21 23  1  0  0  0  0
 21 22  1  1  0  0  0
 25 24  1  6  0  0  0
 25 23  1  0  0  0  0
 26 25  1  0  0  0  0
 27 26  2  0  0  0  0
 28 26  1  0  0  0  0
M  END
>  <MODEL>
5

>  <REMARK>
 VINA RESULT:      -7.1      1.321      1.878
  Name = 
  4 active torsions:
  status: ('A' for Active; 'I' for Inactive)
    1  A    between atoms: C_1  and  C_2
    2  A    between atoms: C_2  and  C_3
    3  A    between atoms: C_3  and  C_11
    4  A    between atoms: C_6  and  C_11
                            x       y       z     vdW  Elec       q    Type
                         _______ _______ _______ _____ _____    ______ ____

>  <TORSDO>
F 4

$$$$
=
 OpenBabel11052418083D

 28 31  0  0  1  0  0  0  0  0999 V2000
  187.3570  176.8360  144.6030 C   0  0  1  0  0  3  0  0  0  0  0  0
  192.3530  176.3780  143.0260 C   0  0  0  0  0  3  0  0  0  0  0  0
  189.3810  174.0240  147.2100 F   0  0  0  0  0  0  0  0  0  0  0  0
  193.4840  175.4650  144.9730 C   0  0  0  0  0  0  0  0  0  0  0  0
  191.0810  175.9070  145.0710 C   0  0  0  0  0  0  0  0  0  0  0  0
  194.7310  175.9300  142.9500 C   0  0  0  0  0  0  0  0  0  0  0  0
  192.2950  175.9200  144.3520 C   0  0  0  0  0  0  0  0  0  0  0  0
  192.2590  175.0040  147.0040 C   0  0  0  0  0  3  0  0  0  0  0  0
  194.6910  175.4720  144.2700 C   0  0  0  0  0  3  0  0  0  0  0  0
  188.6970  176.2500  146.6610 C   0  0  2  0  0  3  0  0  0  0  0  0
  189.8300  176.4810  144.4480 C   0  0  0  0  0  2  0  0  0  0  0  0
  193.4570  175.0120  146.2910 C   0  0  0  0  0  3  0  0  0  0  0  0
  186.5890  176.9880  146.9670 C   0  0  0  0  0  2  0  0  0  0  0  0
  189.8010  175.3440  147.2060 C   0  0  2  0  0  3  0  0  0  0  0  0
  187.4890  175.9730  147.3280 O   0  0  0  0  0  0  0  0  0  0  0  0
  195.9330  175.9340  142.2540 O   0  0  0  0  0  1  0  0  0  0  0  0
  193.5650  176.3820  142.3300 C   0  0  0  0  0  3  0  0  0  0  0  0
  191.0740  175.4570  146.4130 C   0  0  0  0  0  0  0  0  0  0  0  0
  186.1390  176.7770  145.5270 C   0  0  0  0  0  2  0  0  0  0  0  0
  188.5480  176.0300  145.1450 C   0  0  2  0  0  3  0  0  0  0  0  0
  187.0170  176.4840  143.1450 C   0  0  2  0  0  3  0  0  0  0  0  0
  187.5450  175.2470  142.7680 O   0  0  0  0  0  1  0  0  0  0  0  0
  187.2740  177.5720  142.0850 C   0  0  0  0  0  2  0  0  0  0  0  0
  185.4220  177.6540  140.5240 O   0  0  0  0  0  1  0  0  0  0  0  0
  186.0570  178.3450  141.5580 C   0  0  1  0  0  3  0  0  0  0  0  0
  185.0950  178.7780  142.6320 C   0  0  0  0  0  0  0  0  0  0  0  0
  183.8900  178.2160  142.6990 C   0  0  0  0  0  2  0  0  0  0  0  0
  185.5100  179.7170  143.7170 C   0  0  0  0  0  1  0  0  0  0  0  0
  1 21  1  6  0  0  0
  1 20  1  0  0  0  0
  1 19  1  0  0  0  0
  2  7  1  0  0  0  0
  4 12  1  0  0  0  0
  5 18  2  0  0  0  0
  6  9  2  0  0  0  0
  7  4  2  0  0  0  0
  7  5  1  0  0  0  0
  9  4  1  0  0  0  0
 10 14  1  0  0  0  0
 10 15  1  1  0  0  0
 11  5  1  0  0  0  0
 12  8  2  0  0  0  0
 13 15  1  0  0  0  0
 14  3  1  6  0  0  0
 16  6  1  0  0  0  0
 17  6  1  0  0  0  0
 17  2  2  0  0  0  0
 18  8  1  0  0  0  0
 18 14  1  0  0  0  0
 19 13  1  0  0  0  0
 20 11  1  6  0  0  0
 20 10  1  0  0  0  0
 21 22  1  6  0  0  0
 23 21  1  0  0  0  0
 25 24  1  6  0  0  0
 25 23  1  0  0  0  0
 25 26  1  0  0  0  0
 26 27  2  0  0  0  0
 26 28  1  0  0  0  0
M  END
>  <MODEL>
6

>  <REMARK>
 VINA RESULT:      -7.0      3.088      6.091
  Name = 
  4 active torsions:
  status: ('A' for Active; 'I' for Inactive)
    1  A    between atoms: C_1  and  C_2
    2  A    between atoms: C_2  and  C_3
    3  A    between atoms: C_3  and  C_11
    4  A    between atoms: C_6  and  C_11
                            x       y       z     vdW  Elec       q    Type
                         _______ _______ _______ _____ _____    ______ ____

>  <TORSDO>
F 4

$$$$
=
 OpenBabel11052418083D

 28 31  0  0  1  0  0  0  0  0999 V2000
  187.4100  177.9000  144.3830 C   0  0  1  0  0  3  0  0  0  0  0  0
  192.4350  176.6120  143.5240 C   0  0  0  0  0  3  0  0  0  0  0  0
  188.5500  174.8080  147.2010 F   0  0  0  0  0  0  0  0  0  0  0  0
  193.1110  175.5360  145.5950 C   0  0  0  0  0  0  0  0  0  0  0  0
  190.8240  176.3710  145.3590 C   0  0  0  0  0  0  0  0  0  0  0  0
  194.6940  175.7760  143.7780 C   0  0  0  0  0  0  0  0  0  0  0  0
  192.1140  176.1780  144.8200 C   0  0  0  0  0  0  0  0  0  0  0  0
  191.5490  175.2970  147.4220 C   0  0  0  0  0  3  0  0  0  0  0  0
  194.3910  175.3390  145.0700 C   0  0  0  0  0  3  0  0  0  0  0  0
  188.3270  177.1130  146.6000 C   0  0  2  0  0  3  0  0  0  0  0  0
  189.7870  177.1400  144.5750 C   0  0  0  0  0  2  0  0  0  0  0  0
  192.8210  175.1020  146.8880 C   0  0  0  0  0  3  0  0  0  0  0  0
  186.3480  178.1920  146.6170 C   0  0  0  0  0  2  0  0  0  0  0  0
  189.1780  176.0410  147.2810 C   0  0  2  0  0  3  0  0  0  0  0  0
  187.0070  177.0440  147.0840 O   0  0  0  0  0  0  0  0  0  0  0  0
  195.9660  175.5770  143.2590 O   0  0  0  0  0  1  0  0  0  0  0  0
  193.7180  176.4110  143.0060 C   0  0  0  0  0  3  0  0  0  0  0  0
  190.5520  175.9360  146.6780 C   0  0  0  0  0  0  0  0  0  0  0  0
  186.0790  178.0500  145.1240 C   0  0  0  0  0  2  0  0  0  0  0  0
  188.3620  176.9110  145.0750 C   0  0  2  0  0  3  0  0  0  0  0  0
  187.2280  177.6010  142.8860 C   0  0  2  0  0  3  0  0  0  0  0  0
  187.7590  178.6130  142.0830 O   0  0  0  0  0  1  0  0  0  0  0  0
  185.8230  177.1710  142.4240 C   0  0  0  0  0  2  0  0  0  0  0  0
  185.3010  177.6930  140.1160 O   0  0  0  0  0  1  0  0  0  0  0  0
  185.0920  178.0920  141.4370 C   0  0  1  0  0  3  0  0  0  0  0  0
  183.6340  178.2930  141.7510 C   0  0  0  0  0  0  0  0  0  0  0  0
  183.2710  178.6700  142.9750 C   0  0  0  0  0  2  0  0  0  0  0  0
  182.5910  178.2220  140.6830 C   0  0  0  0  0  1  0  0  0  0  0  0
  1 21  1  6  0  0  0
  1 20  1  0  0  0  0
  1 19  1  0  0  0  0
  2  7  1  0  0  0  0
  4 12  1  0  0  0  0
  5 18  2  0  0  0  0
  6  9  2  0  0  0  0
  7  5  1  0  0  0  0
  7  4  2  0  0  0  0
  9  4  1  0  0  0  0
 10 15  1  1  0  0  0
 10 14  1  0  0  0  0
 11  5  1  0  0  0  0
 12  8  2  0  0  0  0
 13 15  1  0  0  0  0
 14  3  1  6  0  0  0
 16  6  1  0  0  0  0
 17  2  2  0  0  0  0
 17  6  1  0  0  0  0
 18 14  1  0  0  0  0
 18  8  1  0  0  0  0
 19 13  1  0  0  0  0
 20 11  1  6  0  0  0
 20 10  1  0  0  0  0
 21 22  1  6  0  0  0
 23 21  1  0  0  0  0
 25 24  1  6  0  0  0
 25 26  1  0  0  0  0
 25 23  1  0  0  0  0
 26 27  2  0  0  0  0
 28 26  1  0  0  0  0
M  END
>  <MODEL>
7

>  <REMARK>
 VINA RESULT:      -7.0      3.078      6.284
  Name = 
  4 active torsions:
  status: ('A' for Active; 'I' for Inactive)
    1  A    between atoms: C_1  and  C_2
    2  A    between atoms: C_2  and  C_3
    3  A    between atoms: C_3  and  C_11
    4  A    between atoms: C_6  and  C_11
                            x       y       z     vdW  Elec       q    Type
                         _______ _______ _______ _____ _____    ______ ____

>  <TORSDO>
F 4

$$$$
=
 OpenBabel11052418083D

 28 31  0  0  1  0  0  0  0  0999 V2000
  185.5850  178.6600  143.1610 C   0  0  1  0  0  3  0  0  0  0  0  0
  189.0710  174.8190  142.2970 C   0  0  0  0  0  3  0  0  0  0  0  0
  186.1190  176.4210  146.8350 F   0  0  0  0  0  0  0  0  0  0  0  0
  189.8290  174.2240  144.5280 C   0  0  0  0  0  0  0  0  0  0  0  0
  188.1550  175.9860  144.2520 C   0  0  0  0  0  0  0  0  0  0  0  0
  190.7260  173.0760  142.5930 C   0  0  0  0  0  0  0  0  0  0  0  0
  189.0110  175.0160  143.6860 C   0  0  0  0  0  0  0  0  0  0  0  0
  188.9540  175.3650  146.4690 C   0  0  0  0  0  3  0  0  0  0  0  0
  190.6780  173.2600  143.9780 C   0  0  0  0  0  3  0  0  0  0  0  0
  186.7150  178.2200  145.3760 C   0  0  2  0  0  3  0  0  0  0  0  0
  187.3540  176.9000  143.3550 C   0  0  0  0  0  2  0  0  0  0  0  0
  189.7940  174.4040  145.9100 C   0  0  0  0  0  3  0  0  0  0  0  0
  185.4840  180.0990  145.1910 C   0  0  0  0  0  2  0  0  0  0  0  0
  187.1990  177.1240  146.3260 C   0  0  2  0  0  3  0  0  0  0  0  0
  185.7070  178.9760  146.0030 O   0  0  0  0  0  0  0  0  0  0  0  0
  191.5700  172.1160  142.0510 O   0  0  0  0  0  1  0  0  0  0  0  0
  189.9240  173.8530  141.7550 C   0  0  0  0  0  3  0  0  0  0  0  0
  188.1430  176.1650  145.6560 C   0  0  0  0  0  0  0  0  0  0  0  0
  184.7390  179.6750  143.9320 C   0  0  0  0  0  2  0  0  0  0  0  0
  186.1940  177.5840  144.0750 C   0  0  2  0  0  3  0  0  0  0  0  0
  184.8460  178.0640  141.9520 C   0  0  2  0  0  3  0  0  0  0  0  0
  185.2500  178.6520  140.7500 O   0  0  0  0  0  1  0  0  0  0  0  0
  183.3140  177.9490  142.0550 C   0  0  0  0  0  2  0  0  0  0  0  0
  182.6330  177.5230  139.7690 O   0  0  0  0  0  1  0  0  0  0  0  0
  182.4890  178.4040  140.8430 C   0  0  1  0  0  3  0  0  0  0  0  0
  181.0450  178.6920  141.1570 C   0  0  0  0  0  0  0  0  0  0  0  0
  180.7390  179.4140  142.2330 C   0  0  0  0  0  2  0  0  0  0  0  0
  179.9530  178.3130  140.2120 C   0  0  0  0  0  1  0  0  0  0  0  0
  1 21  1  6  0  0  0
  1 19  1  0  0  0  0
  1 20  1  0  0  0  0
  2  7  1  0  0  0  0
  4 12  1  0  0  0  0
  5 18  2  0  0  0  0
  6  9  2  0  0  0  0
  7  5  1  0  0  0  0
  7  4  2  0  0  0  0
  9  4  1  0  0  0  0
 10 15  1  1  0  0  0
 10 14  1  0  0  0  0
 11  5  1  0  0  0  0
 12  8  2  0  0  0  0
 13 15  1  0  0  0  0
 14  3  1  6  0  0  0
 16  6  1  0  0  0  0
 17  2  2  0  0  0  0
 17  6  1  0  0  0  0
 18 14  1  0  0  0  0
 18  8  1  0  0  0  0
 19 13  1  0  0  0  0
 20 11  1  6  0  0  0
 20 10  1  0  0  0  0
 21 22  1  6  0  0  0
 21 23  1  0  0  0  0
 25 24  1  6  0  0  0
 25 26  1  0  0  0  0
 25 23  1  0  0  0  0
 26 27  2  0  0  0  0
 28 26  1  0  0  0  0
M  END
>  <MODEL>
8

>  <REMARK>
 VINA RESULT:      -6.5      2.796      5.729
  Name = 
  4 active torsions:
  status: ('A' for Active; 'I' for Inactive)
    1  A    between atoms: C_1  and  C_2
    2  A    between atoms: C_2  and  C_3
    3  A    between atoms: C_3  and  C_11
    4  A    between atoms: C_6  and  C_11
                            x       y       z     vdW  Elec       q    Type
                         _______ _______ _______ _____ _____    ______ ____

>  <TORSDO>
F 4

$$$$
=
 OpenBabel11052418083D

 28 31  0  0  1  0  0  0  0  0999 V2000
  186.5660  177.3910  144.9130 C   0  0  1  0  0  3  0  0  0  0  0  0
  189.1910  173.0840  143.4280 C   0  0  0  0  0  3  0  0  0  0  0  0
  188.0360  177.9860  140.8770 F   0  0  0  0  0  0  0  0  0  0  0  0
  189.2280  173.2450  141.0040 C   0  0  0  0  0  0  0  0  0  0  0  0
  188.1330  174.9960  142.3140 C   0  0  0  0  0  0  0  0  0  0  0  0
  190.2720  171.3620  142.1130 C   0  0  0  0  0  0  0  0  0  0  0  0
  188.8480  173.7800  142.2590 C   0  0  0  0  0  0  0  0  0  0  0  0
  188.1840  175.1110  139.8800 C   0  0  0  0  0  3  0  0  0  0  0  0
  189.9370  172.0430  140.9390 C   0  0  0  0  0  3  0  0  0  0  0  0
  186.3420  177.2580  142.4010 C   0  0  2  0  0  3  0  0  0  0  0  0
  187.6400  175.5220  143.6410 C   0  0  0  0  0  2  0  0  0  0  0  0
  188.8940  173.9130  139.8270 C   0  0  0  0  0  3  0  0  0  0  0  0
  184.9860  178.6900  143.4920 C   0  0  0  0  0  2  0  0  0  0  0  0
  187.1000  176.9900  141.1010 C   0  0  2  0  0  3  0  0  0  0  0  0
  185.8690  178.5830  142.4060 O   0  0  0  0  0  0  0  0  0  0  0  0
  190.9780  170.1680  142.0440 O   0  0  0  0  0  1  0  0  0  0  0  0
  189.9000  171.8810  143.3540 C   0  0  0  0  0  3  0  0  0  0  0  0
  187.7900  175.6540  141.1080 C   0  0  0  0  0  0  0  0  0  0  0  0
  185.7800  178.6990  144.7920 C   0  0  0  0  0  2  0  0  0  0  0  0
  187.2700  177.0030  143.6020 C   0  0  2  0  0  3  0  0  0  0  0  0
  187.5140  177.3760  146.1240 C   0  0  2  0  0  3  0  0  0  0  0  0
  186.9160  177.9200  147.2630 O   0  0  0  0  0  1  0  0  0  0  0  0
  188.9400  177.9140  145.9030 C   0  0  0  0  0  2  0  0  0  0  0  0
  189.6570  175.6640  146.4460 O   0  0  0  0  0  1  0  0  0  0  0  0
  190.0940  176.9050  145.9790 C   0  0  1  0  0  3  0  0  0  0  0  0
  190.8910  176.7900  144.7070 C   0  0  0  0  0  0  0  0  0  0  0  0
  191.5400  175.6590  144.4400 C   0  0  0  0  0  2  0  0  0  0  0  0
  190.8530  177.8590  143.6640 C   0  0  0  0  0  1  0  0  0  0  0  0
  1 21  1  1  0  0  0
  4  7  1  0  0  0  0
  5 11  1  0  0  0  0
  6 17  2  0  0  0  0
  7  5  1  0  0  0  0
  7  2  2  0  0  0  0
  8 18  1  0  0  0  0
  9  4  2  0  0  0  0
  9  6  1  0  0  0  0
 10 15  1  6  0  0  0
 10 20  1  0  0  0  0
 12  8  2  0  0  0  0
 12  4  1  0  0  0  0
 13 19  1  0  0  0  0
 14  3  1  1  0  0  0
 14 18  1  0  0  0  0
 14 10  1  0  0  0  0
 15 13  1  0  0  0  0
 16  6  1  0  0  0  0
 17  2  1  0  0  0  0
 18  5  2  0  0  0  0
 19  1  1  0  0  0  0
 20 11  1  1  0  0  0
 20  1  1  0  0  0  0
 21 22  1  1  0  0  0
 23 25  1  0  0  0  0
 23 21  1  0  0  0  0
 25 24  1  6  0  0  0
 26 25  1  0  0  0  0
 27 26  2  0  0  0  0
 28 26  1  0  0  0  0
M  END
>  <MODEL>
9

>  <REMARK>
 VINA RESULT:      -6.5      1.518      2.199
  Name = 
  4 active torsions:
  status: ('A' for Active; 'I' for Inactive)
    1  A    between atoms: C_1  and  C_2
    2  A    between atoms: C_2  and  C_3
    3  A    between atoms: C_3  and  C_11
    4  A    between atoms: C_6  and  C_11
                            x       y       z     vdW  Elec       q    Type
                         _______ _______ _______ _____ _____    ______ ____

>  <TORSDO>
F 4

$$$$
