=
 OpenBabel11052421403D

 32 36  0  0  1  0  0  0  0  0999 V2000
  195.2290  175.5010  144.5740 C   0  0  0  0  0  0  0  0  0  0  0  0
  190.2260  175.8280  144.9940 C   0  0  0  0  0  0  0  0  0  0  0  0
  188.5560  177.1610  146.3410 C   0  0  0  0  0  0  0  0  0  0  0  0
  187.1760  177.6460  146.5280 C   0  0  0  0  0  0  0  0  0  0  0  0
  192.5800  175.5310  145.4720 C   0  0  0  0  0  0  0  0  0  0  0  0
  191.8570  176.0370  143.2450 N   0  0  0  0  0  0  0  0  0  0  0  0
  184.5300  178.4850  146.9190 C   0  0  0  0  0  3  0  0  0  0  0  0
  194.1930  175.7740  143.6740 C   0  0  0  0  0  3  0  0  0  0  0  0
  190.5540  176.0630  143.6360 C   0  0  0  0  0  0  0  0  0  0  0  0
  189.4890  176.2420  142.5790 C   0  0  2  0  0  3  0  0  0  0  0  0
  187.7770  175.7720  144.3690 C   0  0  2  0  0  3  0  0  0  0  0  0
  185.5660  179.0840  147.6390 C   0  0  0  0  0  3  0  0  0  0  0  0
  194.9400  175.2540  145.9220 C   0  0  0  0  0  3  0  0  0  0  0  0
  192.8680  175.7880  144.1170 C   0  0  0  0  0  0  0  0  0  0  0  0
  186.8860  178.6640  147.4470 C   0  0  0  0  0  3  0  0  0  0  0  0
  193.6160  175.2660  146.3720 C   0  0  0  0  0  3  0  0  0  0  0  0
  188.1290  176.6450  143.1540 C   0  0  1  0  0  3  0  0  0  0  0  0
  186.4160  176.0410  144.8300 N   0  0  0  0  0  2  0  0  0  0  0  0
  191.2560  175.5550  145.9020 C   0  0  0  0  0  3  0  0  0  0  0  0
  189.5080  177.7370  146.9370 O   0  0  0  0  0  0  0  0  0  0  0  0
  184.8120  177.4730  145.9960 C   0  0  0  0  0  3  0  0  0  0  0  0
  188.8070  175.9190  145.5070 C   0  0  1  0  0  3  0  0  0  0  0  0
  186.1310  177.0590  145.7920 C   0  0  0  0  0  0  0  0  0  0  0  0
  188.2130  175.0780  140.9220 O   0  0  0  0  0  1  0  0  0  0  0  0
  189.3340  174.9770  141.7470 C   0  0  0  0  0  2  0  0  0  0  0  0
  187.2710  178.5990  142.5610 C   0  0  0  0  0  1  0  0  0  0  0  0
  188.1330  178.0050  143.4830 O   0  0  0  0  0  0  0  0  0  0  0  0
  196.6410  175.5110  144.1060 C   0  0  0  0  0  2  0  0  0  0  0  0
  197.3890  174.5420  144.8260 O   0  0  0  0  0  0  0  0  0  0  0  0
  197.4480  173.2030  144.4340 C   0  0  0  0  0  0  0  0  0  0  0  0
  197.7680  172.9210  143.2510 O   0  0  0  0  0  0  0  0  0  0  0  0
  197.1400  172.0950  145.3860 C   0  0  0  0  0  1  0  0  0  0  0  0
  1 13  1  0  0  0  0
  2 19  1  0  0  0  0
  3  4  1  0  0  0  0
  3 20  2  0  0  0  0
  4 15  1  0  0  0  0
  5 19  2  0  0  0  0
  5 16  1  0  0  0  0
  6  9  1  0  0  0  0
  6 14  2  0  0  0  0
  7 12  1  0  0  0  0
  8 14  1  0  0  0  0
  8  1  2  0  0  0  0
  9  2  2  0  0  0  0
 10 25  1  1  0  0  0
 10 17  1  0  0  0  0
 10  9  1  0  0  0  0
 11 18  1  1  0  0  0
 11 22  1  0  0  0  0
 13 16  2  0  0  0  0
 14  5  1  0  0  0  0
 15 12  2  0  0  0  0
 17 27  1  1  0  0  0
 17 11  1  0  0  0  0
 18 23  1  0  0  0  0
 21  7  2  0  0  0  0
 22  2  1  6  0  0  0
 22  3  1  0  0  0  0
 23 21  1  0  0  0  0
 23  4  2  0  0  0  0
 24 25  1  0  0  0  0
 26 27  1  0  0  0  0
 28  1  1  0  0  0  0
 28 29  1  0  0  0  0
 30 29  1  0  0  0  0
 30 32  1  0  0  0  0
 31 30  2  0  0  0  0
M  END
>  <MODEL>
1

>  <REMARK>
 VINA RESULT:      -7.4      0.000      0.000
  Name = 
  5 active torsions:
  status: ('A' for Active; 'I' for Inactive)
    1  A    between atoms: C_1  and  O_10
    2  A    between atoms: C_2  and  C_24
    3  A    between atoms: O_10  and  C_24
    4  A    between atoms: C_13  and  C_15
    5  A    between atoms: O_25  and  C_26
                            x       y       z     vdW  Elec       q    Type
                         _______ _______ _______ _____ _____    ______ ____

>  <TORSDO>
F 5

$$$$
=
 OpenBabel11052421403D

 32 36  0  0  1  0  0  0  0  0999 V2000
  186.6360  177.7420  143.5750 C   0  0  0  0  0  0  0  0  0  0  0  0
  190.8030  175.0870  144.5270 C   0  0  0  0  0  0  0  0  0  0  0  0
  192.7810  174.2030  143.2300 C   0  0  0  0  0  0  0  0  0  0  0  0
  194.1540  173.6650  143.2220 C   0  0  0  0  0  0  0  0  0  0  0  0
  188.6860  175.8390  143.6250 C   0  0  0  0  0  0  0  0  0  0  0  0
  189.8010  177.1230  145.3130 N   0  0  0  0  0  0  0  0  0  0  0  0
  196.7300  172.5580  143.2300 C   0  0  0  0  0  3  0  0  0  0  0  0
  187.7240  177.9160  144.4370 C   0  0  0  0  0  3  0  0  0  0  0  0
  190.8210  176.2230  145.3720 C   0  0  0  0  0  0  0  0  0  0  0  0
  191.8950  176.4220  146.4170 C   0  0  2  0  0  3  0  0  0  0  0  0
  192.8040  174.1630  145.7640 C   0  0  2  0  0  3  0  0  0  0  0  0
  196.1710  173.0180  142.0350 C   0  0  0  0  0  3  0  0  0  0  0  0
  186.5800  176.6250  142.7320 C   0  0  0  0  0  3  0  0  0  0  0  0
  188.7500  176.9670  144.4670 C   0  0  0  0  0  0  0  0  0  0  0  0
  194.8850  173.5680  142.0300 C   0  0  0  0  0  3  0  0  0  0  0  0
  187.6030  175.6710  142.7580 C   0  0  0  0  0  3  0  0  0  0  0  0
  193.1620  175.6080  146.1420 C   0  0  1  0  0  3  0  0  0  0  0  0
  194.0050  173.3380  145.6520 N   0  0  0  0  0  2  0  0  0  0  0  0
  189.7190  174.9060  143.6600 C   0  0  0  0  0  3  0  0  0  0  0  0
  192.2900  174.6810  142.1700 O   0  0  0  0  0  0  0  0  0  0  0  0
  196.0090  172.6570  144.4240 C   0  0  0  0  0  3  0  0  0  0  0  0
  191.9410  174.0930  144.4870 C   0  0  1  0  0  3  0  0  0  0  0  0
  194.7280  173.2170  144.4250 C   0  0  0  0  0  0  0  0  0  0  0  0
  191.5660  177.1620  148.6690 O   0  0  0  0  0  1  0  0  0  0  0  0
  191.3670  176.0860  147.8050 C   0  0  0  0  0  2  0  0  0  0  0  0
  194.5720  177.2790  145.7880 C   0  0  0  0  0  1  0  0  0  0  0  0
  193.9210  176.2280  145.1430 O   0  0  0  0  0  0  0  0  0  0  0  0
  185.5580  178.7650  143.5250 C   0  0  0  0  0  2  0  0  0  0  0  0
  185.5460  179.5050  144.7370 O   0  0  0  0  0  0  0  0  0  0  0  0
  184.8860  179.0520  145.8810 C   0  0  0  0  0  0  0  0  0  0  0  0
  183.6920  178.6650  145.7910 O   0  0  0  0  0  0  0  0  0  0  0  0
  185.5620  179.0140  147.2110 C   0  0  0  0  0  1  0  0  0  0  0  0
  1  8  1  0  0  0  0
  2  9  1  0  0  0  0
  4  3  1  0  0  0  0
  4 23  1  0  0  0  0
  5 19  1  0  0  0  0
  5 14  1  0  0  0  0
  6  9  2  0  0  0  0
  7 21  1  0  0  0  0
  8 14  2  0  0  0  0
  9 10  1  0  0  0  0
 10 25  1  1  0  0  0
 11 18  1  6  0  0  0
 11 17  1  0  0  0  0
 12  7  2  0  0  0  0
 13 16  1  0  0  0  0
 13  1  2  0  0  0  0
 14  6  1  0  0  0  0
 15 12  1  0  0  0  0
 15  4  2  0  0  0  0
 16  5  2  0  0  0  0
 17 27  1  6  0  0  0
 17 10  1  0  0  0  0
 19  2  2  0  0  0  0
 20  3  2  0  0  0  0
 21 23  2  0  0  0  0
 22  3  1  6  0  0  0
 22  2  1  0  0  0  0
 22 11  1  0  0  0  0
 23 18  1  0  0  0  0
 25 24  1  0  0  0  0
 27 26  1  0  0  0  0
 28  1  1  0  0  0  0
 28 29  1  0  0  0  0
 29 30  1  0  0  0  0
 30 32  1  0  0  0  0
 31 30  2  0  0  0  0
M  END
>  <MODEL>
2

>  <REMARK>
 VINA RESULT:      -7.3      2.343      8.859
  Name = 
  5 active torsions:
  status: ('A' for Active; 'I' for Inactive)
    1  A    between atoms: C_1  and  O_10
    2  A    between atoms: C_2  and  C_24
    3  A    between atoms: O_10  and  C_24
    4  A    between atoms: C_13  and  C_15
    5  A    between atoms: O_25  and  C_26
                            x       y       z     vdW  Elec       q    Type
                         _______ _______ _______ _____ _____    ______ ____

>  <TORSDO>
F 5

$$$$
=
 OpenBabel11052421403D

 32 36  0  0  1  0  0  0  0  0999 V2000
  188.4010  177.2330  145.2660 C   0  0  0  0  0  0  0  0  0  0  0  0
  192.8630  174.9650  145.7900 C   0  0  0  0  0  0  0  0  0  0  0  0
  193.8630  172.6960  145.3100 C   0  0  0  0  0  0  0  0  0  0  0  0
  195.0570  171.8510  145.1220 C   0  0  0  0  0  0  0  0  0  0  0  0
  190.5110  175.5210  145.9340 C   0  0  0  0  0  0  0  0  0  0  0  0
  192.0110  176.9340  144.7100 N   0  0  0  0  0  0  0  0  0  0  0  0
  197.3350  170.2390  144.8550 C   0  0  0  0  0  3  0  0  0  0  0  0
  189.6930  177.5110  144.8070 C   0  0  0  0  0  3  0  0  0  0  0  0
  193.0670  176.1300  145.0100 C   0  0  0  0  0  0  0  0  0  0  0  0
  194.4480  176.5680  144.5800 C   0  0  2  0  0  3  0  0  0  0  0  0
  195.3660  174.6430  145.9240 C   0  0  2  0  0  3  0  0  0  0  0  0
  196.0880  169.7590  144.4480 C   0  0  0  0  0  3  0  0  0  0  0  0
  188.1640  176.0950  146.0480 C   0  0  0  0  0  3  0  0  0  0  0  0
  190.7510  176.6600  145.1390 C   0  0  0  0  0  0  0  0  0  0  0  0
  194.9510  170.5610  144.5830 C   0  0  0  0  0  3  0  0  0  0  0  0
  189.2180  175.2400  146.3850 C   0  0  0  0  0  3  0  0  0  0  0  0
  195.4780  175.4360  144.6130 C   0  0  1  0  0  3  0  0  0  0  0  0
  196.4430  173.6620  146.0350 N   0  0  0  0  0  2  0  0  0  0  0  0
  191.5730  174.6790  146.2520 C   0  0  0  0  0  3  0  0  0  0  0  0
  192.7420  172.3000  144.8880 O   0  0  0  0  0  0  0  0  0  0  0  0
  197.4490  171.5270  145.3880 C   0  0  0  0  0  3  0  0  0  0  0  0
  193.9780  173.9910  146.0910 C   0  0  1  0  0  3  0  0  0  0  0  0
  196.3170  172.3370  145.5130 C   0  0  0  0  0  0  0  0  0  0  0  0
  194.5550  177.5400  146.7650 O   0  0  0  0  0  1  0  0  0  0  0  0
  194.9400  177.7260  145.4370 C   0  0  0  0  0  2  0  0  0  0  0  0
  196.2030  175.1120  142.5450 C   0  0  0  0  0  1  0  0  0  0  0  0
  195.3160  174.6090  143.4960 O   0  0  0  0  0  0  0  0  0  0  0  0
  187.2720  178.1240  144.8900 C   0  0  0  0  0  2  0  0  0  0  0  0
  186.0850  177.6910  145.5380 O   0  0  0  0  0  0  0  0  0  0  0  0
  185.3100  178.5450  146.3250 C   0  0  0  0  0  0  0  0  0  0  0  0
  184.1790  178.9070  145.9110 O   0  0  0  0  0  0  0  0  0  0  0  0
  185.7900  179.0410  147.6490 C   0  0  0  0  0  1  0  0  0  0  0  0
  1 13  1  0  0  0  0
  2 22  1  0  0  0  0
  2 19  1  0  0  0  0
  4  3  1  0  0  0  0
  4 23  1  0  0  0  0
  5 19  2  0  0  0  0
  5 16  1  0  0  0  0
  6  9  1  0  0  0  0
  6 14  2  0  0  0  0
  7 21  1  0  0  0  0
  8 14  1  0  0  0  0
  8  1  2  0  0  0  0
  9  2  2  0  0  0  0
 10 17  1  0  0  0  0
 10  9  1  0  0  0  0
 10 25  1  1  0  0  0
 11 18  1  6  0  0  0
 11 22  1  0  0  0  0
 12 15  1  0  0  0  0
 12  7  2  0  0  0  0
 13 16  2  0  0  0  0
 14  5  1  0  0  0  0
 15  4  2  0  0  0  0
 17 27  1  6  0  0  0
 17 11  1  0  0  0  0
 20  3  2  0  0  0  0
 21 23  2  0  0  0  0
 22  3  1  6  0  0  0
 23 18  1  0  0  0  0
 25 24  1  0  0  0  0
 26 27  1  0  0  0  0
 28  1  1  0  0  0  0
 28 29  1  0  0  0  0
 29 30  1  0  0  0  0
 30 32  1  0  0  0  0
 31 30  2  0  0  0  0
M  END
>  <MODEL>
3

>  <REMARK>
 VINA RESULT:      -7.3      2.378      9.124
  Name = 
  5 active torsions:
  status: ('A' for Active; 'I' for Inactive)
    1  A    between atoms: C_1  and  O_10
    2  A    between atoms: C_2  and  C_24
    3  A    between atoms: O_10  and  C_24
    4  A    between atoms: C_13  and  C_15
    5  A    between atoms: O_25  and  C_26
                            x       y       z     vdW  Elec       q    Type
                         _______ _______ _______ _____ _____    ______ ____

>  <TORSDO>
F 5

$$$$
=
 OpenBabel11052421403D

 32 36  0  0  1  0  0  0  0  0999 V2000
  186.2980  177.6590  143.3260 C   0  0  0  0  0  0  0  0  0  0  0  0
  190.6170  175.3520  144.4830 C   0  0  0  0  0  0  0  0  0  0  0  0
  192.7150  174.6210  143.2810 C   0  0  0  0  0  0  0  0  0  0  0  0
  194.1250  174.1940  143.3380 C   0  0  0  0  0  0  0  0  0  0  0  0
  188.4890  175.9270  143.4830 C   0  0  0  0  0  0  0  0  0  0  0  0
  189.4230  177.3060  145.2060 N   0  0  0  0  0  0  0  0  0  0  0  0
  196.7780  173.2970  143.4680 C   0  0  0  0  0  3  0  0  0  0  0  0
  187.3300  177.9240  144.2330 C   0  0  0  0  0  3  0  0  0  0  0  0
  190.5080  176.4920  145.3170 C   0  0  0  0  0  0  0  0  0  0  0  0
  191.5150  176.7820  146.4050 C   0  0  2  0  0  3  0  0  0  0  0  0
  192.6290  174.5990  145.8150 C   0  0  2  0  0  3  0  0  0  0  0  0
  196.2370  173.7030  142.2460 C   0  0  0  0  0  3  0  0  0  0  0  0
  186.3670  176.5360  142.4930 C   0  0  0  0  0  3  0  0  0  0  0  0
  188.4260  177.0620  144.3160 C   0  0  0  0  0  0  0  0  0  0  0  0
  194.9130  174.1480  142.1800 C   0  0  0  0  0  3  0  0  0  0  0  0
  187.4610  175.6670  142.5730 C   0  0  0  0  0  3  0  0  0  0  0  0
  192.8540  176.0700  146.1940 C   0  0  1  0  0  3  0  0  0  0  0  0
  193.8960  173.8720  145.7630 N   0  0  0  0  0  2  0  0  0  0  0  0
  189.5900  175.0790  143.5730 C   0  0  0  0  0  3  0  0  0  0  0  0
  192.2340  175.0510  142.1960 O   0  0  0  0  0  0  0  0  0  0  0  0
  196.0000  173.3450  144.6290 C   0  0  0  0  0  3  0  0  0  0  0  0
  191.8320  174.4520  144.5030 C   0  0  1  0  0  3  0  0  0  0  0  0
  194.6790  173.8010  144.5690 C   0  0  0  0  0  0  0  0  0  0  0  0
  191.5680  177.1790  148.7650 O   0  0  0  0  0  1  0  0  0  0  0  0
  190.9560  176.4140  147.7720 C   0  0  0  0  0  2  0  0  0  0  0  0
  194.5680  177.4520  145.9400 C   0  0  0  0  0  1  0  0  0  0  0  0
  193.6050  176.7420  145.2220 O   0  0  0  0  0  0  0  0  0  0  0  0
  185.1450  178.5920  143.2200 C   0  0  0  0  0  2  0  0  0  0  0  0
  184.0280  177.9100  142.6660 O   0  0  0  0  0  0  0  0  0  0  0  0
  183.4460  178.2930  141.4560 C   0  0  0  0  0  0  0  0  0  0  0  0
  184.1850  178.6500  140.5030 O   0  0  0  0  0  0  0  0  0  0  0  0
  181.9660  178.2880  141.2640 C   0  0  0  0  0  1  0  0  0  0  0  0
  1  8  1  0  0  0  0
  2 22  1  0  0  0  0
  2  9  1  0  0  0  0
  3  4  1  0  0  0  0
  4 23  1  0  0  0  0
  5 19  1  0  0  0  0
  5 14  1  0  0  0  0
  6  9  2  0  0  0  0
  7 21  1  0  0  0  0
  8 14  2  0  0  0  0
  9 10  1  0  0  0  0
 10 25  1  1  0  0  0
 11 18  1  6  0  0  0
 11 17  1  0  0  0  0
 12  7  2  0  0  0  0
 13 16  1  0  0  0  0
 13  1  2  0  0  0  0
 14  6  1  0  0  0  0
 15 12  1  0  0  0  0
 15  4  2  0  0  0  0
 16  5  2  0  0  0  0
 17 27  1  6  0  0  0
 17 10  1  0  0  0  0
 19  2  2  0  0  0  0
 20  3  2  0  0  0  0
 22  3  1  6  0  0  0
 22 11  1  0  0  0  0
 23 21  2  0  0  0  0
 23 18  1  0  0  0  0
 25 24  1  0  0  0  0
 27 26  1  0  0  0  0
 28  1  1  0  0  0  0
 29 28  1  0  0  0  0
 30 29  1  0  0  0  0
 31 30  2  0  0  0  0
 32 30  1  0  0  0  0
M  END
>  <MODEL>
4

>  <REMARK>
 VINA RESULT:      -7.2      2.654      9.074
  Name = 
  5 active torsions:
  status: ('A' for Active; 'I' for Inactive)
    1  A    between atoms: C_1  and  O_10
    2  A    between atoms: C_2  and  C_24
    3  A    between atoms: O_10  and  C_24
    4  A    between atoms: C_13  and  C_15
    5  A    between atoms: O_25  and  C_26
                            x       y       z     vdW  Elec       q    Type
                         _______ _______ _______ _____ _____    ______ ____

>  <TORSDO>
F 5

$$$$
=
 OpenBabel11052421403D

 32 36  0  0  1  0  0  0  0  0999 V2000
  187.3510  177.0630  146.8230 C   0  0  0  0  0  0  0  0  0  0  0  0
  191.6680  175.7550  144.5940 C   0  0  0  0  0  0  0  0  0  0  0  0
  194.0000  175.0930  145.3010 C   0  0  0  0  0  0  0  0  0  0  0  0
  195.2970  174.4730  144.9720 C   0  0  0  0  0  0  0  0  0  0  0  0
  189.9990  176.8780  145.9400 C   0  0  0  0  0  0  0  0  0  0  0  0
  189.3920  174.9890  144.5960 N   0  0  0  0  0  0  0  0  0  0  0  0
  197.7870  173.3710  144.3040 C   0  0  0  0  0  3  0  0  0  0  0  0
  187.7150  176.0540  145.9260 C   0  0  0  0  0  3  0  0  0  0  0  0
  190.6670  174.8610  144.1390 C   0  0  0  0  0  0  0  0  0  0  0  0
  190.9490  173.8220  143.0780 C   0  0  2  0  0  3  0  0  0  0  0  0
  193.2700  174.7900  142.8930 C   0  0  2  0  0  3  0  0  0  0  0  0
  197.4640  173.6090  145.6420 C   0  0  0  0  0  3  0  0  0  0  0  0
  188.3120  177.9710  147.2860 C   0  0  0  0  0  3  0  0  0  0  0  0
  189.0360  175.9580  145.4800 C   0  0  0  0  0  0  0  0  0  0  0  0
  196.2240  174.1600  145.9760 C   0  0  0  0  0  3  0  0  0  0  0  0
  189.6360  177.8810  146.8420 C   0  0  0  0  0  3  0  0  0  0  0  0
  192.4380  173.4990  142.9310 C   0  0  1  0  0  3  0  0  0  0  0  0
  194.6710  174.5010  142.5960 N   0  0  0  0  0  2  0  0  0  0  0  0
  191.3130  176.7670  145.4920 C   0  0  0  0  0  3  0  0  0  0  0  0
  193.6710  175.2530  146.5090 O   0  0  0  0  0  0  0  0  0  0  0  0
  196.8650  173.6750  143.2970 C   0  0  0  0  0  3  0  0  0  0  0  0
  193.1170  175.6170  144.1850 C   0  0  1  0  0  3  0  0  0  0  0  0
  195.6190  174.2160  143.6280 C   0  0  0  0  0  0  0  0  0  0  0  0
  189.3990  173.3710  141.3110 O   0  0  0  0  0  1  0  0  0  0  0  0
  190.3890  174.2590  141.7320 C   0  0  0  0  0  2  0  0  0  0  0  0
  192.0920  171.4930  143.8050 C   0  0  0  0  0  1  0  0  0  0  0  0
  192.8490  172.6530  143.9680 O   0  0  0  0  0  0  0  0  0  0  0  0
  185.9510  177.1480  147.3170 C   0  0  0  0  0  2  0  0  0  0  0  0
  185.4480  178.4590  147.1030 O   0  0  0  0  0  0  0  0  0  0  0  0
  184.8780  178.8500  145.8890 C   0  0  0  0  0  0  0  0  0  0  0  0
  183.6390  178.7160  145.7190 O   0  0  0  0  0  0  0  0  0  0  0  0
  185.7040  179.4230  144.7860 C   0  0  0  0  0  1  0  0  0  0  0  0
  1 13  1  0  0  0  0
  1 28  1  0  0  0  0
  2 19  1  0  0  0  0
  3 20  2  0  0  0  0
  4  3  1  0  0  0  0
  4 15  1  0  0  0  0
  5 16  1  0  0  0  0
  6 14  2  0  0  0  0
  7 12  1  0  0  0  0
  8  1  2  0  0  0  0
  9  2  2  0  0  0  0
  9  6  1  0  0  0  0
 10 25  1  6  0  0  0
 10  9  1  0  0  0  0
 11 18  1  1  0  0  0
 11 17  1  0  0  0  0
 11 22  1  0  0  0  0
 12 15  2  0  0  0  0
 14  8  1  0  0  0  0
 14  5  1  0  0  0  0
 16 13  2  0  0  0  0
 17 10  1  0  0  0  0
 17 27  1  1  0  0  0
 18 23  1  0  0  0  0
 19  5  2  0  0  0  0
 21 23  1  0  0  0  0
 21  7  2  0  0  0  0
 22  2  1  1  0  0  0
 22  3  1  0  0  0  0
 23  4  2  0  0  0  0
 24 25  1  0  0  0  0
 26 27  1  0  0  0  0
 29 28  1  0  0  0  0
 30 29  1  0  0  0  0
 31 30  2  0  0  0  0
 32 30  1  0  0  0  0
M  END
>  <MODEL>
5

>  <REMARK>
 VINA RESULT:      -7.0      2.361      8.549
  Name = 
  5 active torsions:
  status: ('A' for Active; 'I' for Inactive)
    1  A    between atoms: C_1  and  O_10
    2  A    between atoms: C_2  and  C_24
    3  A    between atoms: O_10  and  C_24
    4  A    between atoms: C_13  and  C_15
    5  A    between atoms: O_25  and  C_26
                            x       y       z     vdW  Elec       q    Type
                         _______ _______ _______ _____ _____    ______ ____

>  <TORSDO>
F 5

$$$$
=
 OpenBabel11052421403D

 32 36  0  0  1  0  0  0  0  0999 V2000
  196.2600  174.5940  144.8450 C   0  0  0  0  0  0  0  0  0  0  0  0
  191.7100  176.7370  144.9820 C   0  0  0  0  0  0  0  0  0  0  0  0
  189.5770  176.6620  143.6310 C   0  0  0  0  0  0  0  0  0  0  0  0
  188.1310  176.9300  143.5290 C   0  0  0  0  0  0  0  0  0  0  0  0
  193.9060  175.9970  144.2830 C   0  0  0  0  0  0  0  0  0  0  0  0
  193.0750  175.4210  146.4550 N   0  0  0  0  0  0  0  0  0  0  0  0
  185.4000  177.5280  143.3180 C   0  0  0  0  0  3  0  0  0  0  0  0
  195.2400  174.6490  145.8000 C   0  0  0  0  0  3  0  0  0  0  0  0
  191.9120  176.0910  146.2260 C   0  0  0  0  0  0  0  0  0  0  0  0
  190.9150  176.2070  147.3550 C   0  0  2  0  0  3  0  0  0  0  0  0
  189.6040  177.7930  145.8990 C   0  0  2  0  0  3  0  0  0  0  0  0
  186.0050  176.6860  142.3820 C   0  0  0  0  0  3  0  0  0  0  0  0
  196.0980  175.2290  143.6080 C   0  0  0  0  0  3  0  0  0  0  0  0
  194.0620  175.3500  145.5260 C   0  0  0  0  0  0  0  0  0  0  0  0
  187.3680  176.3890  142.4850 C   0  0  0  0  0  3  0  0  0  0  0  0
  194.9230  175.9330  143.3270 C   0  0  0  0  0  3  0  0  0  0  0  0
  189.5180  176.6190  146.8870 C   0  0  1  0  0  3  0  0  0  0  0  0
  188.2730  178.2960  145.5660 N   0  0  0  0  0  2  0  0  0  0  0  0
  192.7250  176.6860  144.0200 C   0  0  0  0  0  3  0  0  0  0  0  0
  190.1220  175.8520  142.8310 O   0  0  0  0  0  0  0  0  0  0  0  0
  186.1540  178.0670  144.3650 C   0  0  0  0  0  3  0  0  0  0  0  0
  190.4120  177.4310  144.6360 C   0  0  1  0  0  3  0  0  0  0  0  0
  187.5140  177.7630  144.4790 C   0  0  0  0  0  0  0  0  0  0  0  0
  190.4640  178.1980  148.6040 O   0  0  0  0  0  1  0  0  0  0  0  0
  191.4050  177.1860  148.4130 C   0  0  0  0  0  2  0  0  0  0  0  0
  188.9260  174.5240  147.2950 C   0  0  0  0  0  1  0  0  0  0  0  0
  188.8590  175.5210  146.3220 O   0  0  0  0  0  0  0  0  0  0  0  0
  197.5020  173.8250  145.1290 C   0  0  0  0  0  2  0  0  0  0  0  0
  197.1890  172.6890  145.9220 O   0  0  0  0  0  0  0  0  0  0  0  0
  197.1730  171.3950  145.3970 C   0  0  0  0  0  0  0  0  0  0  0  0
  197.6950  171.1790  144.2740 O   0  0  0  0  0  0  0  0  0  0  0  0
  196.5500  170.2580  146.1380 C   0  0  0  0  0  1  0  0  0  0  0  0
  1 28  1  0  0  0  0
  1  8  1  0  0  0  0
  2  9  1  0  0  0  0
  4  3  1  0  0  0  0
  4 23  1  0  0  0  0
  5 14  1  0  0  0  0
  7 21  1  0  0  0  0
  9  6  2  0  0  0  0
  9 10  1  0  0  0  0
 10 25  1  1  0  0  0
 11 18  1  6  0  0  0
 11 17  1  0  0  0  0
 12 15  1  0  0  0  0
 12  7  2  0  0  0  0
 13  1  2  0  0  0  0
 14  8  2  0  0  0  0
 14  6  1  0  0  0  0
 15  4  2  0  0  0  0
 16 13  1  0  0  0  0
 16  5  2  0  0  0  0
 17 27  1  6  0  0  0
 17 10  1  0  0  0  0
 19  5  1  0  0  0  0
 19  2  2  0  0  0  0
 20  3  2  0  0  0  0
 21 23  2  0  0  0  0
 22  3  1  6  0  0  0
 22  2  1  0  0  0  0
 22 11  1  0  0  0  0
 23 18  1  0  0  0  0
 25 24  1  0  0  0  0
 27 26  1  0  0  0  0
 28 29  1  0  0  0  0
 30 29  1  0  0  0  0
 30 32  1  0  0  0  0
 31 30  2  0  0  0  0
M  END
>  <MODEL>
6

>  <REMARK>
 VINA RESULT:      -6.8      1.985      3.803
  Name = 
  5 active torsions:
  status: ('A' for Active; 'I' for Inactive)
    1  A    between atoms: C_1  and  O_10
    2  A    between atoms: C_2  and  C_24
    3  A    between atoms: O_10  and  C_24
    4  A    between atoms: C_13  and  C_15
    5  A    between atoms: O_25  and  C_26
                            x       y       z     vdW  Elec       q    Type
                         _______ _______ _______ _____ _____    ______ ____

>  <TORSDO>
F 5

$$$$
=
 OpenBabel11052421403D

 32 36  0  0  1  0  0  0  0  0999 V2000
  189.4360  172.3490  138.9420 C   0  0  0  0  0  0  0  0  0  0  0  0
  188.8180  175.6130  142.7210 C   0  0  0  0  0  0  0  0  0  0  0  0
  186.9060  176.5310  144.0910 C   0  0  0  0  0  0  0  0  0  0  0  0
  186.4330  177.2280  145.3020 C   0  0  0  0  0  0  0  0  0  0  0  0
  188.6710  174.4770  140.5890 C   0  0  0  0  0  0  0  0  0  0  0  0
  190.0800  173.6090  142.3220 N   0  0  0  0  0  0  0  0  0  0  0  0
  185.5580  178.6350  147.5640 C   0  0  0  0  0  3  0  0  0  0  0  0
  189.9500  172.4430  140.2400 C   0  0  0  0  0  3  0  0  0  0  0  0
  189.7370  174.6270  143.1580 C   0  0  0  0  0  0  0  0  0  0  0  0
  190.4310  174.7220  144.4970 C   0  0  2  0  0  3  0  0  0  0  0  0
  189.2990  176.9530  144.8100 C   0  0  2  0  0  3  0  0  0  0  0  0
  184.6390  177.9350  146.7770 C   0  0  0  0  0  3  0  0  0  0  0  0
  188.5340  173.3110  138.4740 C   0  0  0  0  0  3  0  0  0  0  0  0
  189.5730  173.5040  141.0660 C   0  0  0  0  0  0  0  0  0  0  0  0
  185.0740  177.2360  145.6470 C   0  0  0  0  0  3  0  0  0  0  0  0
  188.1530  174.3770  139.2950 C   0  0  0  0  0  3  0  0  0  0  0  0
  189.7070  175.6360  145.4880 C   0  0  1  0  0  3  0  0  0  0  0  0
  188.7480  177.8940  145.7830 N   0  0  0  0  0  2  0  0  0  0  0  0
  188.2980  175.5260  141.4250 C   0  0  0  0  0  3  0  0  0  0  0  0
  186.0970  175.8430  143.4090 O   0  0  0  0  0  0  0  0  0  0  0  0
  186.9150  178.6270  147.2280 C   0  0  0  0  0  3  0  0  0  0  0  0
  188.3360  176.7230  143.6270 C   0  0  1  0  0  3  0  0  0  0  0  0
  187.3560  177.9190  146.1060 C   0  0  0  0  0  0  0  0  0  0  0  0
  192.5070  175.2430  145.5670 O   0  0  0  0  0  1  0  0  0  0  0  0
  191.8690  175.1940  144.3280 C   0  0  0  0  0  2  0  0  0  0  0  0
  188.9910  174.6180  147.3210 C   0  0  0  0  0  1  0  0  0  0  0  0
  188.6000  174.9730  146.0300 O   0  0  0  0  0  0  0  0  0  0  0  0
  189.8190  171.2040  138.0730 C   0  0  0  0  0  2  0  0  0  0  0  0
  190.9830  171.5360  137.3310 O   0  0  0  0  0  0  0  0  0  0  0  0
  191.0240  171.4680  135.9370 C   0  0  0  0  0  0  0  0  0  0  0  0
  192.1380  171.4530  135.3530 O   0  0  0  0  0  0  0  0  0  0  0  0
  189.7760  171.4110  135.1200 C   0  0  0  0  0  1  0  0  0  0  0  0
  1  8  1  0  0  0  0
  2  9  1  0  0  0  0
  3  4  1  0  0  0  0
  4 15  2  0  0  0  0
  4 23  1  0  0  0  0
  5 14  1  0  0  0  0
  5 19  1  0  0  0  0
  6  9  2  0  0  0  0
  8 14  2  0  0  0  0
  9 10  1  0  0  0  0
 10 25  1  6  0  0  0
 10 17  1  0  0  0  0
 11 17  1  0  0  0  0
 11 18  1  1  0  0  0
 12  7  2  0  0  0  0
 13  1  2  0  0  0  0
 13 16  1  0  0  0  0
 14  6  1  0  0  0  0
 15 12  1  0  0  0  0
 16  5  2  0  0  0  0
 17 27  1  6  0  0  0
 18 23  1  0  0  0  0
 19  2  2  0  0  0  0
 20  3  2  0  0  0  0
 21  7  1  0  0  0  0
 22  2  1  1  0  0  0
 22  3  1  0  0  0  0
 22 11  1  0  0  0  0
 23 21  2  0  0  0  0
 25 24  1  0  0  0  0
 27 26  1  0  0  0  0
 28  1  1  0  0  0  0
 29 28  1  0  0  0  0
 30 29  1  0  0  0  0
 31 30  2  0  0  0  0
 32 30  1  0  0  0  0
M  END
>  <MODEL>
7

>  <REMARK>
 VINA RESULT:      -6.8      3.306      6.117
  Name = 
  5 active torsions:
  status: ('A' for Active; 'I' for Inactive)
    1  A    between atoms: C_1  and  O_10
    2  A    between atoms: C_2  and  C_24
    3  A    between atoms: O_10  and  C_24
    4  A    between atoms: C_13  and  C_15
    5  A    between atoms: O_25  and  C_26
                            x       y       z     vdW  Elec       q    Type
                         _______ _______ _______ _____ _____    ______ ____

>  <TORSDO>
F 5

$$$$
=
 OpenBabel11052421403D

 32 36  0  0  1  0  0  0  0  0999 V2000
  184.7120  178.2200  141.0730 C   0  0  0  0  0  0  0  0  0  0  0  0
  188.3760  176.4320  144.0210 C   0  0  0  0  0  0  0  0  0  0  0  0
  190.8910  176.6100  144.1780 C   0  0  0  0  0  0  0  0  0  0  0  0
  192.1270  176.4470  144.9650 C   0  0  0  0  0  0  0  0  0  0  0  0
  186.9920  176.9750  142.1120 C   0  0  0  0  0  0  0  0  0  0  0  0
  186.3590  177.7030  144.3050 N   0  0  0  0  0  0  0  0  0  0  0  0
  194.4750  176.0460  146.4440 C   0  0  0  0  0  3  0  0  0  0  0  0
  184.9730  178.2820  142.4460 C   0  0  0  0  0  3  0  0  0  0  0  0
  187.4550  177.1130  144.8550 C   0  0  0  0  0  0  0  0  0  0  0  0
  187.5970  177.1200  146.3590 C   0  0  2  0  0  3  0  0  0  0  0  0
  189.5700  175.5760  146.0790 C   0  0  2  0  0  3  0  0  0  0  0  0
  194.5090  176.8010  145.2690 C   0  0  0  0  0  3  0  0  0  0  0  0
  185.5960  177.5470  140.2210 C   0  0  0  0  0  3  0  0  0  0  0  0
  186.1090  177.6600  142.9700 C   0  0  0  0  0  0  0  0  0  0  0  0
  193.3390  176.9990  144.5290 C   0  0  0  0  0  3  0  0  0  0  0  0
  186.7340  176.9220  140.7390 C   0  0  0  0  0  3  0  0  0  0  0  0
  189.0150  176.7940  146.8330 C   0  0  1  0  0  3  0  0  0  0  0  0
  190.8580  175.1600  146.6300 N   0  0  0  0  0  2  0  0  0  0  0  0
  188.1240  176.3660  142.6460 C   0  0  0  0  0  3  0  0  0  0  0  0
  190.8950  177.3420  143.1500 O   0  0  0  0  0  0  0  0  0  0  0  0
  193.2680  175.4970  146.8880 C   0  0  0  0  0  3  0  0  0  0  0  0
  189.6510  175.8230  144.5580 C   0  0  1  0  0  3  0  0  0  0  0  0
  192.0940  175.7030  146.1580 C   0  0  0  0  0  0  0  0  0  0  0  0
  185.9030  176.7900  148.0170 O   0  0  0  0  0  1  0  0  0  0  0  0
  186.6130  176.1520  147.0000 C   0  0  0  0  0  2  0  0  0  0  0  0
  190.1110  178.3420  147.9790 C   0  0  0  0  0  1  0  0  0  0  0  0
  189.8410  177.9140  146.6790 O   0  0  0  0  0  0  0  0  0  0  0  0
  183.5160  178.9040  140.5130 C   0  0  0  0  0  2  0  0  0  0  0  0
  182.3660  178.0950  140.7130 O   0  0  0  0  0  0  0  0  0  0  0  0
  181.1760  178.6060  141.2360 C   0  0  0  0  0  0  0  0  0  0  0  0
  181.1980  179.2120  142.3380 O   0  0  0  0  0  0  0  0  0  0  0  0
  179.8760  178.4510  140.5190 C   0  0  0  0  0  1  0  0  0  0  0  0
  1  8  1  0  0  0  0
  2  9  1  0  0  0  0
  3 22  1  0  0  0  0
  3  4  1  0  0  0  0
  4 23  1  0  0  0  0
  5 19  1  0  0  0  0
  5 14  1  0  0  0  0
  6  9  2  0  0  0  0
  7 21  1  0  0  0  0
  8 14  2  0  0  0  0
  9 10  1  0  0  0  0
 10 17  1  0  0  0  0
 10 25  1  1  0  0  0
 11 18  1  1  0  0  0
 11 17  1  0  0  0  0
 12  7  2  0  0  0  0
 13 16  1  0  0  0  0
 13  1  2  0  0  0  0
 14  6  1  0  0  0  0
 15  4  2  0  0  0  0
 15 12  1  0  0  0  0
 16  5  2  0  0  0  0
 17 27  1  6  0  0  0
 19  2  2  0  0  0  0
 20  3  2  0  0  0  0
 22  2  1  1  0  0  0
 22 11  1  0  0  0  0
 23 18  1  0  0  0  0
 23 21  2  0  0  0  0
 25 24  1  0  0  0  0
 27 26  1  0  0  0  0
 28 29  1  0  0  0  0
 28  1  1  0  0  0  0
 29 30  1  0  0  0  0
 30 31  2  0  0  0  0
 32 30  1  0  0  0  0
M  END
>  <MODEL>
8

>  <REMARK>
 VINA RESULT:      -6.8      3.068      9.114
  Name = 
  5 active torsions:
  status: ('A' for Active; 'I' for Inactive)
    1  A    between atoms: C_1  and  O_10
    2  A    between atoms: C_2  and  C_24
    3  A    between atoms: O_10  and  C_24
    4  A    between atoms: C_13  and  C_15
    5  A    between atoms: O_25  and  C_26
                            x       y       z     vdW  Elec       q    Type
                         _______ _______ _______ _____ _____    ______ ____

>  <TORSDO>
F 5

$$$$
=
 OpenBabel11052421403D

 32 36  0  0  1  0  0  0  0  0999 V2000
  187.0650  177.0140  144.1330 C   0  0  0  0  0  0  0  0  0  0  0  0
  191.7610  175.4910  143.1620 C   0  0  0  0  0  0  0  0  0  0  0  0
  193.8810  175.0570  144.4620 C   0  0  0  0  0  0  0  0  0  0  0  0
  195.2170  174.4370  144.5400 C   0  0  0  0  0  0  0  0  0  0  0  0
  189.8410  176.7740  143.8880 C   0  0  0  0  0  0  0  0  0  0  0  0
  189.5370  174.6530  142.8160 N   0  0  0  0  0  0  0  0  0  0  0  0
  197.7900  173.3290  144.6360 C   0  0  0  0  0  3  0  0  0  0  0  0
  187.6130  175.8750  143.5360 C   0  0  0  0  0  3  0  0  0  0  0  0
  190.8820  174.4930  142.6750 C   0  0  0  0  0  0  0  0  0  0  0  0
  191.3860  173.2920  141.9090 C   0  0  2  0  0  3  0  0  0  0  0  0
  193.6930  174.2980  142.0510 C   0  0  2  0  0  3  0  0  0  0  0  0
  197.1840  173.7910  145.8070 C   0  0  0  0  0  3  0  0  0  0  0  0
  187.9030  178.0260  144.6160 C   0  0  0  0  0  3  0  0  0  0  0  0
  188.9990  175.7500  143.4090 C   0  0  0  0  0  0  0  0  0  0  0  0
  195.9020  174.3460  145.7590 C   0  0  0  0  0  3  0  0  0  0  0  0
  189.2910  177.9090  144.4920 C   0  0  0  0  0  3  0  0  0  0  0  0
  192.8700  173.0040  142.1460 C   0  0  1  0  0  3  0  0  0  0  0  0
  195.1250  174.0140  142.1210 N   0  0  0  0  0  2  0  0  0  0  0  0
  191.2200  176.6340  143.7620 C   0  0  0  0  0  3  0  0  0  0  0  0
  193.2970  175.4190  145.5210 O   0  0  0  0  0  0  0  0  0  0  0  0
  197.1120  173.4120  143.4170 C   0  0  0  0  0  3  0  0  0  0  0  0
  193.2630  175.3380  143.1060 C   0  0  1  0  0  3  0  0  0  0  0  0
  195.8240  173.9550  143.3670 C   0  0  0  0  0  0  0  0  0  0  0  0
  191.7670  172.4390  139.7050 O   0  0  0  0  0  1  0  0  0  0  0  0
  191.1340  173.4580  140.4160 C   0  0  0  0  0  2  0  0  0  0  0  0
  192.4080  171.1410  143.2510 C   0  0  0  0  0  1  0  0  0  0  0  0
  193.0430  172.3750  143.3850 O   0  0  0  0  0  0  0  0  0  0  0  0
  185.5900  177.1330  144.2900 C   0  0  0  0  0  2  0  0  0  0  0  0
  185.2490  177.0500  145.6670 O   0  0  0  0  0  0  0  0  0  0  0  0
  184.7550  178.1450  146.3800 C   0  0  0  0  0  0  0  0  0  0  0  0
  183.7080  178.7170  145.9820 O   0  0  0  0  0  0  0  0  0  0  0  0
  185.4390  178.6530  147.6050 C   0  0  0  0  0  1  0  0  0  0  0  0
  1 28  1  0  0  0  0
  1 13  1  0  0  0  0
  2 19  1  0  0  0  0
  3  4  1  0  0  0  0
  3 20  2  0  0  0  0
  4 15  1  0  0  0  0
  5 16  1  0  0  0  0
  6 14  2  0  0  0  0
  7 12  1  0  0  0  0
  8  1  2  0  0  0  0
  9  6  1  0  0  0  0
  9  2  2  0  0  0  0
 10 25  1  6  0  0  0
 10 17  1  0  0  0  0
 10  9  1  0  0  0  0
 11 18  1  1  0  0  0
 11 17  1  0  0  0  0
 11 22  1  0  0  0  0
 14  8  1  0  0  0  0
 14  5  1  0  0  0  0
 15 12  2  0  0  0  0
 16 13  2  0  0  0  0
 17 27  1  1  0  0  0
 18 23  1  0  0  0  0
 19  5  2  0  0  0  0
 21  7  2  0  0  0  0
 22  2  1  1  0  0  0
 22  3  1  0  0  0  0
 23 21  1  0  0  0  0
 23  4  2  0  0  0  0
 24 25  1  0  0  0  0
 26 27  1  0  0  0  0
 28 29  1  0  0  0  0
 29 30  1  0  0  0  0
 30 32  1  0  0  0  0
 31 30  2  0  0  0  0
M  END
>  <MODEL>
9

>  <REMARK>
 VINA RESULT:      -6.6      2.593      8.682
  Name = 
  5 active torsions:
  status: ('A' for Active; 'I' for Inactive)
    1  A    between atoms: C_1  and  O_10
    2  A    between atoms: C_2  and  C_24
    3  A    between atoms: O_10  and  C_24
    4  A    between atoms: C_13  and  C_15
    5  A    between atoms: O_25  and  C_26
                            x       y       z     vdW  Elec       q    Type
                         _______ _______ _______ _____ _____    ______ ____

>  <TORSDO>
F 5

$$$$
