=
 OpenBabel11052421343D

 32 36  0  0  1  0  0  0  0  0999 V2000
  184.6010  178.3380  146.3300 C   0  0  1  0  0  3  0  0  0  0  0  0
  189.1950  176.6320  145.1890 C   0  0  0  0  0  0  0  0  0  0  0  0
  188.4280  173.5500  141.3930 C   0  0  0  0  0  2  0  0  0  0  0  0
  189.6530  174.0980  140.8200 N   0  0  0  0  0  2  0  0  0  0  0  0
  187.2930  177.8240  146.2760 C   0  0  1  0  0  3  0  0  0  0  0  0
  186.7810  176.1260  144.5550 C   0  0  0  0  0  2  0  0  0  0  0  0
  184.9650  176.8490  146.1770 C   0  0  0  0  0  2  0  0  0  0  0  0
  187.7710  174.5910  142.2890 C   0  0  0  0  0  2  0  0  0  0  0  0
  188.2730  175.9560  144.3510 C   0  0  0  0  0  0  0  0  0  0  0  0
  188.7500  175.1970  143.2630 C   0  0  0  0  0  0  0  0  0  0  0  0
  191.0470  175.7500  143.8890 C   0  0  0  0  0  0  0  0  0  0  0  0
  185.6780  179.1600  147.0780 C   0  0  0  0  0  2  0  0  0  0  0  0
  186.4610  176.5890  145.9680 C   0  0  2  0  0  3  0  0  0  0  0  0
  186.8150  178.4120  147.4520 O   0  0  0  0  0  0  0  0  0  0  0  0
  190.6560  174.2570  141.8770 C   0  0  1  0  0  3  0  0  0  0  0  0
  190.1430  175.0950  143.0290 C   0  0  0  0  0  0  0  0  0  0  0  0
  188.7520  177.4150  146.3980 C   0  0  0  0  0  2  0  0  0  0  0  0
  191.0980  172.9530  142.3490 N   0  0  0  0  0  1  0  0  0  0  0  0
  190.5620  176.5160  144.9500 C   0  0  0  0  0  3  0  0  0  0  0  0
  184.3520  178.9740  144.9680 C   0  0  0  0  0  2  0  0  0  0  0  0
  185.6060  179.6460  144.4360 C   0  0  2  0  0  3  0  0  0  0  0  0
  185.3990  181.0110  144.3230 F   0  0  0  0  0  0  0  0  0  0  0  0
  184.7350  178.3460  142.5050 C   0  0  0  0  0  1  0  0  0  0  0  0
  185.9400  179.0680  143.0750 C   0  0  0  0  0  2  0  0  0  0  0  0
  192.5350  175.6650  143.6670 C   0  0  0  0  0  2  0  0  0  0  0  0
  194.7370  177.6080  145.6700 O   0  0  0  0  0  1  0  0  0  0  0  0
  194.6430  176.6110  144.7000 C   0  0  1  0  0  3  0  0  0  0  0  0
  193.9720  174.4840  145.4750 C   0  0  2  0  0  3  0  0  0  0  0  0
  195.2630  174.3220  144.9600 O   0  0  0  0  0  0  0  0  0  0  0  0
  195.7850  175.6250  144.8740 C   0  0  0  0  0  2  0  0  0  0  0  0
  193.1120  173.2570  145.2190 C   0  0  0  0  0  1  0  0  0  0  0  0
  193.4050  175.7890  144.9370 C   0  0  2  0  0  3  0  0  0  0  0  0
  1 20  1  6  0  0  0
  1 12  1  0  0  0  0
  2 17  1  0  0  0  0
  3  8  1  0  0  0  0
  4  3  1  0  0  0  0
  4 15  1  0  0  0  0
  5 17  1  1  0  0  0
  5 14  1  0  0  0  0
  7  1  1  0  0  0  0
  8 10  1  0  0  0  0
  9  6  1  0  0  0  0
  9  2  2  0  0  0  0
 10  9  1  0  0  0  0
 11 19  2  0  0  0  0
 12 14  1  0  0  0  0
 13  6  1  6  0  0  0
 13  7  1  0  0  0  0
 13  5  1  0  0  0  0
 15 18  1  1  0  0  0
 15 16  1  0  0  0  0
 16 10  2  0  0  0  0
 16 11  1  0  0  0  0
 19  2  1  0  0  0  0
 21 22  1  6  0  0  0
 21 20  1  0  0  0  0
 23 24  1  0  0  0  0
 24 21  1  0  0  0  0
 25 11  1  0  0  0  0
 27 30  1  0  0  0  0
 27 32  1  0  0  0  0
 27 26  1  1  0  0  0
 28 31  1  6  0  0  0
 29 28  1  0  0  0  0
 30 29  1  0  0  0  0
 32 25  1  6  0  0  0
 32 28  1  0  0  0  0
M  END
>  <MODEL>
1

>  <REMARK>
 VINA RESULT:      -8.5      0.000      0.000
  Name = 
  5 active torsions:
  status: ('A' for Active; 'I' for Inactive)
    1  A    between atoms: C_1  and  C_20
    2  A    between atoms: C_1  and  C_24
    3  A    between atoms: C_2  and  C_24
    4  A    between atoms: C_16  and  C_27
    5  A    between atoms: C_27  and  C_32
                            x       y       z     vdW  Elec       q    Type
                         _______ _______ _______ _____ _____    ______ ____

>  <TORSDO>
F 5

$$$$
=
 OpenBabel11052421343D

 32 36  0  0  1  0  0  0  0  0999 V2000
  184.6050  178.2680  146.3490 C   0  0  1  0  0  3  0  0  0  0  0  0
  189.2690  176.8020  145.1560 C   0  0  0  0  0  0  0  0  0  0  0  0
  188.6160  173.6410  141.4030 C   0  0  0  0  0  2  0  0  0  0  0  0
  189.8010  174.2490  140.8060 N   0  0  0  0  0  2  0  0  0  0  0  0
  187.3200  177.9000  146.2590 C   0  0  1  0  0  3  0  0  0  0  0  0
  186.8770  176.1580  144.5630 C   0  0  0  0  0  2  0  0  0  0  0  0
  185.0480  176.7990  146.2050 C   0  0  0  0  0  2  0  0  0  0  0  0
  187.9160  174.6540  142.2990 C   0  0  0  0  0  2  0  0  0  0  0  0
  188.3730  176.0670  144.3390 C   0  0  0  0  0  0  0  0  0  0  0  0
  188.8750  175.3230  143.2520 C   0  0  0  0  0  0  0  0  0  0  0  0
  191.1470  176.0080  143.8380 C   0  0  0  0  0  0  0  0  0  0  0  0
  185.6460  179.1550  147.0720 C   0  0  0  0  0  2  0  0  0  0  0  0
  186.5530  176.6180  145.9770 C   0  0  2  0  0  3  0  0  0  0  0  0
  186.8280  178.4740  147.4360 O   0  0  0  0  0  0  0  0  0  0  0  0
  190.8090  174.4730  141.8470 C   0  0  1  0  0  3  0  0  0  0  0  0
  190.2670  175.2950  142.9980 C   0  0  0  0  0  0  0  0  0  0  0  0
  188.8010  177.5730  146.3630 C   0  0  0  0  0  2  0  0  0  0  0  0
  191.3290  173.2010  142.3250 N   0  0  0  0  0  1  0  0  0  0  0  0
  190.6360  176.7580  144.8970 C   0  0  0  0  0  3  0  0  0  0  0  0
  184.3020  178.8740  144.9850 C   0  0  0  0  0  2  0  0  0  0  0  0
  185.5070  179.6160  144.4310 C   0  0  2  0  0  3  0  0  0  0  0  0
  185.2240  180.9680  144.3290 F   0  0  0  0  0  0  0  0  0  0  0  0
  184.6840  178.2460  142.5270 C   0  0  0  0  0  1  0  0  0  0  0  0
  185.8440  179.0630  143.0600 C   0  0  0  0  0  2  0  0  0  0  0  0
  192.6340  176.0010  143.5930 C   0  0  0  0  0  2  0  0  0  0  0  0
  193.1170  172.9040  145.2700 O   0  0  0  0  0  1  0  0  0  0  0  0
  192.6080  174.1980  145.3690 C   0  0  1  0  0  3  0  0  0  0  0  0
  194.2060  175.9110  145.6550 C   0  0  2  0  0  3  0  0  0  0  0  0
  193.4080  175.9260  146.8050 O   0  0  0  0  0  0  0  0  0  0  0  0
  192.7430  174.6870  146.8000 C   0  0  0  0  0  2  0  0  0  0  0  0
  194.6420  177.3140  145.2620 C   0  0  0  0  0  1  0  0  0  0  0  0
  193.4650  175.1420  144.5720 C   0  0  2  0  0  3  0  0  0  0  0  0
  1 20  1  6  0  0  0
  1 12  1  0  0  0  0
  2 17  1  0  0  0  0
  3  8  1  0  0  0  0
  4  3  1  0  0  0  0
  4 15  1  0  0  0  0
  5 17  1  1  0  0  0
  5 14  1  0  0  0  0
  7  1  1  0  0  0  0
  8 10  1  0  0  0  0
  9  6  1  0  0  0  0
  9  2  2  0  0  0  0
 10  9  1  0  0  0  0
 11 19  2  0  0  0  0
 12 14  1  0  0  0  0
 13  6  1  6  0  0  0
 13  7  1  0  0  0  0
 13  5  1  0  0  0  0
 15 18  1  1  0  0  0
 15 16  1  0  0  0  0
 16 10  2  0  0  0  0
 16 11  1  0  0  0  0
 19  2  1  0  0  0  0
 21 22  1  6  0  0  0
 21 20  1  0  0  0  0
 23 24  1  0  0  0  0
 24 21  1  0  0  0  0
 25 11  1  0  0  0  0
 27 26  1  1  0  0  0
 27 30  1  0  0  0  0
 28 31  1  6  0  0  0
 28 29  1  0  0  0  0
 30 29  1  0  0  0  0
 32 25  1  1  0  0  0
 32 27  1  0  0  0  0
 32 28  1  0  0  0  0
M  END
>  <MODEL>
2

>  <REMARK>
 VINA RESULT:      -8.3      0.804      1.590
  Name = 
  5 active torsions:
  status: ('A' for Active; 'I' for Inactive)
    1  A    between atoms: C_1  and  C_20
    2  A    between atoms: C_1  and  C_24
    3  A    between atoms: C_2  and  C_24
    4  A    between atoms: C_16  and  C_27
    5  A    between atoms: C_27  and  C_32
                            x       y       z     vdW  Elec       q    Type
                         _______ _______ _______ _____ _____    ______ ____

>  <TORSDO>
F 5

$$$$
=
 OpenBabel11052421343D

 32 36  0  0  1  0  0  0  0  0999 V2000
  185.1950  178.6200  146.3540 C   0  0  1  0  0  3  0  0  0  0  0  0
  189.5570  176.2160  145.6380 C   0  0  0  0  0  0  0  0  0  0  0  0
  188.8880  173.7390  141.4050 C   0  0  0  0  0  2  0  0  0  0  0  0
  190.2630  174.1060  141.0810 N   0  0  0  0  0  2  0  0  0  0  0  0
  187.7360  177.6220  146.6010 C   0  0  1  0  0  3  0  0  0  0  0  0
  187.2220  176.2360  144.6210 C   0  0  0  0  0  2  0  0  0  0  0  0
  185.3230  177.1130  146.0600 C   0  0  0  0  0  2  0  0  0  0  0  0
  188.2830  174.7860  142.3310 C   0  0  0  0  0  2  0  0  0  0  0  0
  188.6780  175.8130  144.6020 C   0  0  0  0  0  0  0  0  0  0  0  0
  189.1850  175.0950  143.5000 C   0  0  0  0  0  0  0  0  0  0  0  0
  191.4150  175.1430  144.5000 C   0  0  0  0  0  0  0  0  0  0  0  0
  186.2640  179.1450  147.3420 C   0  0  0  0  0  2  0  0  0  0  0  0
  186.7670  176.6010  146.0250 C   0  0  2  0  0  3  0  0  0  0  0  0
  187.1850  178.1640  147.7680 O   0  0  0  0  0  0  0  0  0  0  0  0
  191.0990  173.9650  142.2760 C   0  0  1  0  0  3  0  0  0  0  0  0
  190.5600  174.7600  143.4470 C   0  0  0  0  0  0  0  0  0  0  0  0
  189.0680  176.9380  146.8670 C   0  0  0  0  0  2  0  0  0  0  0  0
  191.2350  172.5600  142.6310 N   0  0  0  0  0  1  0  0  0  0  0  0
  190.9050  175.8720  145.5750 C   0  0  0  0  0  3  0  0  0  0  0  0
  185.2750  179.4280  145.0660 C   0  0  0  0  0  2  0  0  0  0  0  0
  183.9840  179.3270  144.2710 C   0  0  2  0  0  3  0  0  0  0  0  0
  182.9500  178.9160  145.0960 F   0  0  0  0  0  0  0  0  0  0  0  0
  185.4650  178.5990  142.4120 C   0  0  0  0  0  1  0  0  0  0  0  0
  184.1680  178.3250  143.1490 C   0  0  0  0  0  2  0  0  0  0  0  0
  192.8830  174.8060  144.4730 C   0  0  0  0  0  2  0  0  0  0  0  0
  194.4340  176.3880  141.6930 O   0  0  0  0  0  1  0  0  0  0  0  0
  194.5920  175.4660  142.7270 C   0  0  1  0  0  3  0  0  0  0  0  0
  194.9030  176.3820  144.8800 C   0  0  2  0  0  3  0  0  0  0  0  0
  196.0710  175.6680  144.5880 O   0  0  0  0  0  0  0  0  0  0  0  0
  196.0370  175.4730  143.1960 C   0  0  0  0  0  2  0  0  0  0  0  0
  194.5510  176.2920  146.3570 C   0  0  0  0  0  1  0  0  0  0  0  0
  193.8100  175.9160  143.9300 C   0  0  2  0  0  3  0  0  0  0  0  0
  1 20  1  6  0  0  0
  1 12  1  0  0  0  0
  2 17  1  0  0  0  0
  3  8  1  0  0  0  0
  4  3  1  0  0  0  0
  4 15  1  0  0  0  0
  5 17  1  1  0  0  0
  5 14  1  0  0  0  0
  7  1  1  0  0  0  0
  8 10  1  0  0  0  0
  9  6  1  0  0  0  0
  9  2  2  0  0  0  0
 10  9  1  0  0  0  0
 11 19  2  0  0  0  0
 12 14  1  0  0  0  0
 13  6  1  6  0  0  0
 13  7  1  0  0  0  0
 13  5  1  0  0  0  0
 15 18  1  1  0  0  0
 15 16  1  0  0  0  0
 16 10  2  0  0  0  0
 16 11  1  0  0  0  0
 19  2  1  0  0  0  0
 21 20  1  0  0  0  0
 21 22  1  1  0  0  0
 23 24  1  0  0  0  0
 24 21  1  0  0  0  0
 25 11  1  0  0  0  0
 27 26  1  6  0  0  0
 27 30  1  0  0  0  0
 27 32  1  0  0  0  0
 28 31  1  1  0  0  0
 29 28  1  0  0  0  0
 30 29  1  0  0  0  0
 32 25  1  1  0  0  0
 32 28  1  0  0  0  0
M  END
>  <MODEL>
3

>  <REMARK>
 VINA RESULT:      -8.1      1.288      1.529
  Name = 
  5 active torsions:
  status: ('A' for Active; 'I' for Inactive)
    1  A    between atoms: C_1  and  C_20
    2  A    between atoms: C_1  and  C_24
    3  A    between atoms: C_2  and  C_24
    4  A    between atoms: C_16  and  C_27
    5  A    between atoms: C_27  and  C_32
                            x       y       z     vdW  Elec       q    Type
                         _______ _______ _______ _____ _____    ______ ____

>  <TORSDO>
F 5

$$$$
=
 OpenBabel11052421343D

 32 36  0  0  1  0  0  0  0  0999 V2000
  185.6270  179.0950  143.4120 C   0  0  1  0  0  3  0  0  0  0  0  0
  188.5940  175.0340  143.2960 C   0  0  0  0  0  0  0  0  0  0  0  0
  192.7120  176.4820  145.6300 C   0  0  0  0  0  2  0  0  0  0  0  0
  192.7230  175.1560  146.2390 N   0  0  0  0  0  2  0  0  0  0  0  0
  186.6840  176.6050  142.9740 C   0  0  1  0  0  3  0  0  0  0  0  0
  188.7830  177.4930  143.9310 C   0  0  0  0  0  2  0  0  0  0  0  0
  187.0890  179.0970  142.9270 C   0  0  0  0  0  2  0  0  0  0  0  0
  191.2810  176.8790  145.2910 C   0  0  0  0  0  2  0  0  0  0  0  0
  189.3380  176.0830  143.8920 C   0  0  0  0  0  0  0  0  0  0  0  0
  190.5570  175.7920  144.5360 C   0  0  0  0  0  0  0  0  0  0  0  0
  190.3060  173.4360  143.9390 C   0  0  0  0  0  0  0  0  0  0  0  0
  184.8250  177.8600  142.9380 C   0  0  0  0  0  2  0  0  0  0  0  0
  187.7270  177.7050  142.8570 C   0  0  2  0  0  3  0  0  0  0  0  0
  185.5800  176.9390  142.1820 O   0  0  0  0  0  0  0  0  0  0  0  0
  192.3670  174.1550  145.2300 C   0  0  1  0  0  3  0  0  0  0  0  0
  191.0430  174.4620  144.5620 C   0  0  0  0  0  0  0  0  0  0  0  0
  187.3110  175.2870  142.5470 C   0  0  0  0  0  2  0  0  0  0  0  0
  193.4270  174.0420  144.2390 N   0  0  0  0  0  1  0  0  0  0  0  0
  189.0890  173.7330  143.3230 C   0  0  0  0  0  3  0  0  0  0  0  0
  185.5640  179.1720  144.9320 C   0  0  0  0  0  2  0  0  0  0  0  0
  184.5000  178.2410  145.4880 C   0  0  2  0  0  3  0  0  0  0  0  0
  183.3420  178.9510  145.7540 F   0  0  0  0  0  0  0  0  0  0  0  0
  186.2990  176.8510  146.4950 C   0  0  0  0  0  1  0  0  0  0  0  0
  185.0130  177.6080  146.7670 C   0  0  0  0  0  2  0  0  0  0  0  0
  190.7920  172.0100  143.9510 C   0  0  0  0  0  2  0  0  0  0  0  0
  190.5520  171.4520  140.4480 O   0  0  0  0  0  1  0  0  0  0  0  0
  190.4560  170.8750  141.7130 C   0  0  1  0  0  3  0  0  0  0  0  0
  192.5050  170.4360  142.8010 C   0  0  2  0  0  3  0  0  0  0  0  0
  191.8900  169.1940  142.6140 O   0  0  0  0  0  0  0  0  0  0  0  0
  190.8980  169.4230  141.6440 C   0  0  0  0  0  2  0  0  0  0  0  0
  193.2800  170.4830  144.1090 C   0  0  0  0  0  1  0  0  0  0  0  0
  191.4490  171.5200  142.6410 C   0  0  2  0  0  3  0  0  0  0  0  0
  1 20  1  1  0  0  0
  2 19  2  0  0  0  0
  2  9  1  0  0  0  0
  3  4  1  0  0  0  0
  5 17  1  6  0  0  0
  7  1  1  0  0  0  0
  8  3  1  0  0  0  0
  9  6  1  0  0  0  0
  9 10  2  0  0  0  0
 10 16  1  0  0  0  0
 10  8  1  0  0  0  0
 11 25  1  0  0  0  0
 11 16  2  0  0  0  0
 12  1  1  0  0  0  0
 13  7  1  1  0  0  0
 13  5  1  0  0  0  0
 13  6  1  0  0  0  0
 14 12  1  0  0  0  0
 14  5  1  0  0  0  0
 15 18  1  6  0  0  0
 15  4  1  0  0  0  0
 16 15  1  0  0  0  0
 17  2  1  0  0  0  0
 19 11  1  0  0  0  0
 20 21  1  0  0  0  0
 21 22  1  1  0  0  0
 21 24  1  0  0  0  0
 23 24  1  0  0  0  0
 27 26  1  6  0  0  0
 27 32  1  0  0  0  0
 28 31  1  1  0  0  0
 29 28  1  0  0  0  0
 30 27  1  0  0  0  0
 30 29  1  0  0  0  0
 32 28  1  0  0  0  0
 32 25  1  1  0  0  0
M  END
>  <MODEL>
4

>  <REMARK>
 VINA RESULT:      -8.0      2.920      4.661
  Name = 
  5 active torsions:
  status: ('A' for Active; 'I' for Inactive)
    1  A    between atoms: C_1  and  C_20
    2  A    between atoms: C_1  and  C_24
    3  A    between atoms: C_2  and  C_24
    4  A    between atoms: C_16  and  C_27
    5  A    between atoms: C_27  and  C_32
                            x       y       z     vdW  Elec       q    Type
                         _______ _______ _______ _____ _____    ______ ____

>  <TORSDO>
F 5

$$$$
=
 OpenBabel11052421343D

 32 36  0  0  1  0  0  0  0  0999 V2000
  195.2710  175.1660  145.1640 C   0  0  1  0  0  3  0  0  0  0  0  0
  190.4330  176.5450  145.0450 C   0  0  0  0  0  0  0  0  0  0  0  0
  188.7270  174.5950  140.8270 C   0  0  0  0  0  2  0  0  0  0  0  0
  187.5130  174.2780  141.5730 N   0  0  0  0  0  2  0  0  0  0  0  0
  192.8170  176.2550  145.7180 C   0  0  1  0  0  3  0  0  0  0  0  0
  192.1250  175.4550  143.4840 C   0  0  0  0  0  2  0  0  0  0  0  0
  194.5880  175.8500  143.9630 C   0  0  0  0  0  2  0  0  0  0  0  0
  189.9170  174.6320  141.7770 C   0  0  0  0  0  2  0  0  0  0  0  0
  190.7080  175.8630  143.8330 C   0  0  0  0  0  0  0  0  0  0  0  0
  189.6420  175.4780  142.9950 C   0  0  0  0  0  0  0  0  0  0  0  0
  188.0570  176.5010  144.5490 C   0  0  0  0  0  0  0  0  0  0  0  0
  194.8500  175.7590  146.5290 C   0  0  0  0  0  2  0  0  0  0  0  0
  193.1470  176.2970  144.2340 C   0  0  2  0  0  3  0  0  0  0  0  0
  193.8910  176.7910  146.4370 O   0  0  0  0  0  0  0  0  0  0  0  0
  187.1670  175.4070  142.4410 C   0  0  1  0  0  3  0  0  0  0  0  0
  188.3100  175.7960  143.3550 C   0  0  0  0  0  0  0  0  0  0  0  0
  191.5310  177.0300  145.9570 C   0  0  0  0  0  2  0  0  0  0  0  0
  186.7420  176.5450  141.6380 N   0  0  0  0  0  1  0  0  0  0  0  0
  189.1190  176.8570  145.3810 C   0  0  0  0  0  3  0  0  0  0  0  0
  194.9840  173.6710  145.1650 C   0  0  0  0  0  2  0  0  0  0  0  0
  196.1310  172.8890  145.7830 C   0  0  2  0  0  3  0  0  0  0  0  0
  197.3220  173.5680  145.5950 F   0  0  0  0  0  0  0  0  0  0  0  0
  196.7780  170.5100  146.1000 C   0  0  0  0  0  1  0  0  0  0  0  0
  196.2130  171.5250  145.1250 C   0  0  0  0  0  2  0  0  0  0  0  0
  186.6510  176.8520  144.9630 C   0  0  0  0  0  2  0  0  0  0  0  0
  186.6610  178.3730  148.1760 O   0  0  0  0  0  1  0  0  0  0  0  0
  185.8710  177.8470  147.1560 C   0  0  1  0  0  3  0  0  0  0  0  0
  185.6140  179.2140  145.2480 C   0  0  2  0  0  3  0  0  0  0  0  0
  184.3340  179.0580  145.7910 O   0  0  0  0  0  0  0  0  0  0  0  0
  184.5500  178.5960  147.1010 C   0  0  0  0  0  2  0  0  0  0  0  0
  185.5710  179.2720  143.7290 C   0  0  0  0  0  1  0  0  0  0  0  0
  186.5110  178.1270  145.8240 C   0  0  2  0  0  3  0  0  0  0  0  0
  1 20  1  1  0  0  0
  1 12  1  0  0  0  0
  2 19  1  0  0  0  0
  2 17  1  0  0  0  0
  3  4  1  0  0  0  0
  3  8  1  0  0  0  0
  4 15  1  0  0  0  0
  5 17  1  6  0  0  0
  5 14  1  0  0  0  0
  6  9  1  0  0  0  0
  7 13  1  0  0  0  0
  7  1  1  0  0  0  0
  8 10  1  0  0  0  0
  9  2  2  0  0  0  0
 10 16  2  0  0  0  0
 10  9  1  0  0  0  0
 11 25  1  0  0  0  0
 11 19  2  0  0  0  0
 13  6  1  6  0  0  0
 13  5  1  0  0  0  0
 14 12  1  0  0  0  0
 15 18  1  6  0  0  0
 15 16  1  0  0  0  0
 16 11  1  0  0  0  0
 20 21  1  0  0  0  0
 21 22  1  6  0  0  0
 24 21  1  0  0  0  0
 24 23  1  0  0  0  0
 27 26  1  1  0  0  0
 28 31  1  6  0  0  0
 28 29  1  0  0  0  0
 28 32  1  0  0  0  0
 29 30  1  0  0  0  0
 30 27  1  0  0  0  0
 32 25  1  6  0  0  0
 32 27  1  0  0  0  0
M  END
>  <MODEL>
5

>  <REMARK>
 VINA RESULT:      -7.9      3.035      8.251
  Name = 
  5 active torsions:
  status: ('A' for Active; 'I' for Inactive)
    1  A    between atoms: C_1  and  C_20
    2  A    between atoms: C_1  and  C_24
    3  A    between atoms: C_2  and  C_24
    4  A    between atoms: C_16  and  C_27
    5  A    between atoms: C_27  and  C_32
                            x       y       z     vdW  Elec       q    Type
                         _______ _______ _______ _____ _____    ______ ____

>  <TORSDO>
F 5

$$$$
=
 OpenBabel11052421343D

 32 36  0  0  1  0  0  0  0  0999 V2000
  185.0790  179.3840  144.2560 C   0  0  1  0  0  3  0  0  0  0  0  0
  188.0910  175.6460  142.7460 C   0  0  0  0  0  0  0  0  0  0  0  0
  192.5070  176.8100  144.6540 C   0  0  0  0  0  2  0  0  0  0  0  0
  192.6570  175.3860  144.9370 N   0  0  0  0  0  2  0  0  0  0  0  0
  186.1130  177.1230  143.1000 C   0  0  1  0  0  3  0  0  0  0  0  0
  188.3200  177.9130  143.8840 C   0  0  0  0  0  2  0  0  0  0  0  0
  186.4370  179.5860  143.5560 C   0  0  0  0  0  2  0  0  0  0  0  0
  191.0300  177.1790  144.6480 C   0  0  0  0  0  2  0  0  0  0  0  0
  188.8970  176.5850  143.4370 C   0  0  0  0  0  0  0  0  0  0  0  0
  190.2160  176.2390  143.7930 C   0  0  0  0  0  0  0  0  0  0  0  0
  189.9290  174.0600  142.7250 C   0  0  0  0  0  0  0  0  0  0  0  0
  184.2410  178.2330  143.6490 C   0  0  0  0  0  2  0  0  0  0  0  0
  187.0900  178.2870  143.0690 C   0  0  2  0  0  3  0  0  0  0  0  0
  184.8810  177.5510  142.5930 O   0  0  0  0  0  0  0  0  0  0  0  0
  192.1610  174.6090  143.7970 C   0  0  1  0  0  3  0  0  0  0  0  0
  190.7340  174.9700  143.4390 C   0  0  0  0  0  0  0  0  0  0  0  0
  186.6920  175.9740  142.2900 C   0  0  0  0  0  2  0  0  0  0  0  0
  193.0380  174.7850  142.6490 N   0  0  0  0  0  1  0  0  0  0  0  0
  188.6180  174.4050  142.3970 C   0  0  0  0  0  3  0  0  0  0  0  0
  185.2760  179.1210  145.7430 C   0  0  0  0  0  2  0  0  0  0  0  0
  184.4530  177.9320  146.2070 C   0  0  2  0  0  3  0  0  0  0  0  0
  183.6850  178.2870  147.3040 F   0  0  0  0  0  0  0  0  0  0  0  0
  186.7330  177.3510  147.0090 C   0  0  0  0  0  1  0  0  0  0  0  0
  185.3860  176.7980  146.5860 C   0  0  0  0  0  2  0  0  0  0  0  0
  190.4480  172.7000  142.3350 C   0  0  0  0  0  2  0  0  0  0  0  0
  190.0140  173.1090  138.8300 O   0  0  0  0  0  1  0  0  0  0  0  0
  189.9900  172.2090  139.8950 C   0  0  1  0  0  3  0  0  0  0  0  0
  192.0980  171.5270  140.7120 C   0  0  2  0  0  3  0  0  0  0  0  0
  191.4750  170.3720  140.2270 O   0  0  0  0  0  0  0  0  0  0  0  0
  190.4310  170.8390  139.4100 C   0  0  0  0  0  2  0  0  0  0  0  0
  192.9440  171.2310  141.9400 C   0  0  0  0  0  1  0  0  0  0  0  0
  191.0320  172.5950  140.9090 C   0  0  2  0  0  3  0  0  0  0  0  0
  1 20  1  1  0  0  0
  2  9  1  0  0  0  0
  3  4  1  0  0  0  0
  5 17  1  6  0  0  0
  7  1  1  0  0  0  0
  8  3  1  0  0  0  0
  9 10  2  0  0  0  0
  9  6  1  0  0  0  0
 10  8  1  0  0  0  0
 11 16  2  0  0  0  0
 12  1  1  0  0  0  0
 13  5  1  0  0  0  0
 13  7  1  1  0  0  0
 13  6  1  0  0  0  0
 14  5  1  0  0  0  0
 14 12  1  0  0  0  0
 15 18  1  6  0  0  0
 15  4  1  0  0  0  0
 16 10  1  0  0  0  0
 16 15  1  0  0  0  0
 17  2  1  0  0  0  0
 19 11  1  0  0  0  0
 19  2  2  0  0  0  0
 20 21  1  0  0  0  0
 21 24  1  0  0  0  0
 21 22  1  1  0  0  0
 24 23  1  0  0  0  0
 25 11  1  0  0  0  0
 27 26  1  6  0  0  0
 27 32  1  0  0  0  0
 28 32  1  0  0  0  0
 28 31  1  1  0  0  0
 29 28  1  0  0  0  0
 30 27  1  0  0  0  0
 30 29  1  0  0  0  0
 32 25  1  1  0  0  0
M  END
>  <MODEL>
6

>  <REMARK>
 VINA RESULT:      -7.8      2.911      4.706
  Name = 
  5 active torsions:
  status: ('A' for Active; 'I' for Inactive)
    1  A    between atoms: C_1  and  C_20
    2  A    between atoms: C_1  and  C_24
    3  A    between atoms: C_2  and  C_24
    4  A    between atoms: C_16  and  C_27
    5  A    between atoms: C_27  and  C_32
                            x       y       z     vdW  Elec       q    Type
                         _______ _______ _______ _____ _____    ______ ____

>  <TORSDO>
F 5

$$$$
=
 OpenBabel11052421343D

 32 36  0  0  1  0  0  0  0  0999 V2000
  184.9390  179.4460  144.2850 C   0  0  1  0  0  3  0  0  0  0  0  0
  187.9810  175.9220  142.3760 C   0  0  0  0  0  0  0  0  0  0  0  0
  192.4960  177.2830  143.8800 C   0  0  0  0  0  2  0  0  0  0  0  0
  192.7490  175.8630  144.1030 N   0  0  0  0  0  2  0  0  0  0  0  0
  185.9720  177.2770  142.9660 C   0  0  1  0  0  3  0  0  0  0  0  0
  188.2000  178.1690  143.5540 C   0  0  0  0  0  2  0  0  0  0  0  0
  186.2080  179.7410  143.4620 C   0  0  0  0  0  2  0  0  0  0  0  0
  191.0080  177.5680  144.0300 C   0  0  0  0  0  2  0  0  0  0  0  0
  188.8000  176.8870  143.0130 C   0  0  0  0  0  0  0  0  0  0  0  0
  190.1650  176.6060  143.2290 C   0  0  0  0  0  0  0  0  0  0  0  0
  189.8900  174.4410  142.1280 C   0  0  0  0  0  0  0  0  0  0  0  0
  184.1070  178.2660  143.7280 C   0  0  0  0  0  2  0  0  0  0  0  0
  186.8780  178.4940  142.8750 C   0  0  2  0  0  3  0  0  0  0  0  0
  184.6750  177.6470  142.5930 O   0  0  0  0  0  0  0  0  0  0  0  0
  192.1840  175.0880  142.9940 C   0  0  1  0  0  3  0  0  0  0  0  0
  190.7120  175.3770  142.7870 C   0  0  0  0  0  0  0  0  0  0  0  0
  186.5290  176.1830  142.0680 C   0  0  0  0  0  2  0  0  0  0  0  0
  192.9330  175.3410  141.7730 N   0  0  0  0  0  1  0  0  0  0  0  0
  188.5360  174.7210  141.9400 C   0  0  0  0  0  3  0  0  0  0  0  0
  185.2950  179.1580  145.7370 C   0  0  0  0  0  2  0  0  0  0  0  0
  184.4720  178.0060  146.2890 C   0  0  2  0  0  3  0  0  0  0  0  0
  183.8330  178.3960  147.4540 F   0  0  0  0  0  0  0  0  0  0  0  0
  186.8100  177.3240  146.7880 C   0  0  0  0  0  1  0  0  0  0  0  0
  185.3900  176.8350  146.5810 C   0  0  0  0  0  2  0  0  0  0  0  0
  190.4400  173.1230  141.6480 C   0  0  0  0  0  2  0  0  0  0  0  0
  189.7350  171.8400  144.8890 O   0  0  0  0  0  1  0  0  0  0  0  0
  190.7230  172.0660  143.9310 C   0  0  1  0  0  3  0  0  0  0  0  0
  190.7290  170.5830  142.0930 C   0  0  2  0  0  3  0  0  0  0  0  0
  191.9520  170.3980  142.7470 O   0  0  0  0  0  0  0  0  0  0  0  0
  191.7730  170.9720  144.0180 C   0  0  0  0  0  2  0  0  0  0  0  0
  190.8750  170.4350  140.5870 C   0  0  0  0  0  1  0  0  0  0  0  0
  190.1390  171.9080  142.5540 C   0  0  2  0  0  3  0  0  0  0  0  0
  1 20  1  1  0  0  0
  2  9  1  0  0  0  0
  3  8  1  0  0  0  0
  3  4  1  0  0  0  0
  5 17  1  6  0  0  0
  7  1  1  0  0  0  0
  9 10  2  0  0  0  0
  9  6  1  0  0  0  0
 10  8  1  0  0  0  0
 11 16  2  0  0  0  0
 12  1  1  0  0  0  0
 13  5  1  0  0  0  0
 13  7  1  1  0  0  0
 13  6  1  0  0  0  0
 14  5  1  0  0  0  0
 14 12  1  0  0  0  0
 15 18  1  6  0  0  0
 15  4  1  0  0  0  0
 16 15  1  0  0  0  0
 16 10  1  0  0  0  0
 17  2  1  0  0  0  0
 19 11  1  0  0  0  0
 19  2  2  0  0  0  0
 20 21  1  0  0  0  0
 21 24  1  0  0  0  0
 21 22  1  1  0  0  0
 24 23  1  0  0  0  0
 25 11  1  0  0  0  0
 27 30  1  0  0  0  0
 27 26  1  1  0  0  0
 28 31  1  6  0  0  0
 28 32  1  0  0  0  0
 28 29  1  0  0  0  0
 29 30  1  0  0  0  0
 32 25  1  6  0  0  0
 32 27  1  0  0  0  0
M  END
>  <MODEL>
7

>  <REMARK>
 VINA RESULT:      -7.8      2.727      4.378
  Name = 
  5 active torsions:
  status: ('A' for Active; 'I' for Inactive)
    1  A    between atoms: C_1  and  C_20
    2  A    between atoms: C_1  and  C_24
    3  A    between atoms: C_2  and  C_24
    4  A    between atoms: C_16  and  C_27
    5  A    between atoms: C_27  and  C_32
                            x       y       z     vdW  Elec       q    Type
                         _______ _______ _______ _____ _____    ______ ____

>  <TORSDO>
F 5

$$$$
=
 OpenBabel11052421343D

 32 36  0  0  1  0  0  0  0  0999 V2000
  187.7390  177.1090  146.5500 C   0  0  1  0  0  3  0  0  0  0  0  0
  192.4470  175.3350  146.4870 C   0  0  0  0  0  0  0  0  0  0  0  0
  192.1300  171.1690  143.8330 C   0  0  0  0  0  2  0  0  0  0  0  0
  193.4050  171.5590  143.2390 N   0  0  0  0  0  2  0  0  0  0  0  0
  190.4250  176.7250  146.9350 C   0  0  1  0  0  3  0  0  0  0  0  0
  190.1210  174.5450  145.8120 C   0  0  0  0  0  2  0  0  0  0  0  0
  188.1320  175.6670  146.9220 C   0  0  0  0  0  2  0  0  0  0  0  0
  191.3680  172.4110  144.2740 C   0  0  0  0  0  2  0  0  0  0  0  0
  191.6290  174.3850  145.8250 C   0  0  0  0  0  0  0  0  0  0  0  0
  192.2290  173.3400  145.0940 C   0  0  0  0  0  0  0  0  0  0  0  0
  194.4380  174.1660  145.7350 C   0  0  0  0  0  0  0  0  0  0  0  0
  188.7190  178.1740  147.0970 C   0  0  0  0  0  2  0  0  0  0  0  0
  189.6450  175.4200  146.9610 C   0  0  2  0  0  3  0  0  0  0  0  0
  189.8160  177.6370  147.8040 O   0  0  0  0  0  0  0  0  0  0  0  0
  194.2840  172.0920  144.2840 C   0  0  1  0  0  3  0  0  0  0  0  0
  193.6400  173.2310  145.0460 C   0  0  0  0  0  0  0  0  0  0  0  0
  191.8670  176.4430  147.3280 C   0  0  0  0  0  2  0  0  0  0  0  0
  194.6850  171.0290  145.1930 N   0  0  0  0  0  1  0  0  0  0  0  0
  193.8320  175.2090  146.4370 C   0  0  0  0  0  3  0  0  0  0  0  0
  187.6340  177.2640  145.0380 C   0  0  0  0  0  2  0  0  0  0  0  0
  186.3100  177.8920  144.6380 C   0  0  2  0  0  3  0  0  0  0  0  0
  186.4500  179.2660  144.5340 F   0  0  0  0  0  0  0  0  0  0  0  0
  184.2160  178.6580  145.7380 C   0  0  0  0  0  1  0  0  0  0  0  0
  185.2670  177.5650  145.6880 C   0  0  0  0  0  2  0  0  0  0  0  0
  195.9420  174.0810  145.7020 C   0  0  0  0  0  2  0  0  0  0  0  0
  196.0680  177.1300  143.8780 O   0  0  0  0  0  1  0  0  0  0  0  0
  195.6540  175.7980  143.8650 C   0  0  1  0  0  3  0  0  0  0  0  0
  197.3570  174.1970  143.5310 C   0  0  2  0  0  3  0  0  0  0  0  0
  196.4860  174.0730  142.4430 O   0  0  0  0  0  0  0  0  0  0  0  0
  195.7290  175.2580  142.4480 C   0  0  0  0  0  2  0  0  0  0  0  0
  197.9270  172.8500  143.9450 C   0  0  0  0  0  1  0  0  0  0  0  0
  196.6350  174.9560  144.6340 C   0  0  2  0  0  3  0  0  0  0  0  0
  1 20  1  6  0  0  0
  1  7  1  0  0  0  0
  1 12  1  0  0  0  0
  2 17  1  0  0  0  0
  3  8  1  0  0  0  0
  4  3  1  0  0  0  0
  4 15  1  0  0  0  0
  5 13  1  0  0  0  0
  5 17  1  1  0  0  0
  5 14  1  0  0  0  0
  6  9  1  0  0  0  0
  7 13  1  0  0  0  0
  8 10  1  0  0  0  0
  9  2  2  0  0  0  0
 10  9  1  0  0  0  0
 11 19  2  0  0  0  0
 12 14  1  0  0  0  0
 13  6  1  6  0  0  0
 15 16  1  0  0  0  0
 15 18  1  1  0  0  0
 16 10  2  0  0  0  0
 16 11  1  0  0  0  0
 19  2  1  0  0  0  0
 21 22  1  1  0  0  0
 21 20  1  0  0  0  0
 21 24  1  0  0  0  0
 24 23  1  0  0  0  0
 25 11  1  0  0  0  0
 27 26  1  6  0  0  0
 27 32  1  0  0  0  0
 28 31  1  1  0  0  0
 28 32  1  0  0  0  0
 29 30  1  0  0  0  0
 29 28  1  0  0  0  0
 30 27  1  0  0  0  0
 32 25  1  1  0  0  0
M  END
>  <MODEL>
8

>  <REMARK>
 VINA RESULT:      -7.4      2.357      3.747
  Name = 
  5 active torsions:
  status: ('A' for Active; 'I' for Inactive)
    1  A    between atoms: C_1  and  C_20
    2  A    between atoms: C_1  and  C_24
    3  A    between atoms: C_2  and  C_24
    4  A    between atoms: C_16  and  C_27
    5  A    between atoms: C_27  and  C_32
                            x       y       z     vdW  Elec       q    Type
                         _______ _______ _______ _____ _____    ______ ____

>  <TORSDO>
F 5

$$$$
=
 OpenBabel11052421343D

 32 36  0  0  1  0  0  0  0  0999 V2000
  187.0830  177.5030  142.8520 C   0  0  1  0  0  3  0  0  0  0  0  0
  190.8060  174.2830  143.8940 C   0  0  0  0  0  0  0  0  0  0  0  0
  194.5210  177.1830  145.4060 C   0  0  0  0  0  2  0  0  0  0  0  0
  194.7900  176.1590  146.4100 N   0  0  0  0  0  2  0  0  0  0  0  0
  188.6240  175.2610  143.1850 C   0  0  1  0  0  3  0  0  0  0  0  0
  190.4900  176.8020  143.6880 C   0  0  0  0  0  2  0  0  0  0  0  0
  188.5220  177.6290  142.3130 C   0  0  0  0  0  2  0  0  0  0  0  0
  193.0440  177.1630  145.0360 C   0  0  0  0  0  2  0  0  0  0  0  0
  191.3170  175.5920  144.0770 C   0  0  0  0  0  0  0  0  0  0  0  0
  192.5620  175.7700  144.7130 C   0  0  0  0  0  0  0  0  0  0  0  0
  192.7950  173.3460  144.9250 C   0  0  0  0  0  0  0  0  0  0  0  0
  186.5510  176.0500  142.8470 C   0  0  0  0  0  2  0  0  0  0  0  0
  189.4270  176.4420  142.6620 C   0  0  2  0  0  3  0  0  0  0  0  0
  187.4850  175.0970  142.3890 O   0  0  0  0  0  0  0  0  0  0  0  0
  194.6540  174.8330  145.8000 C   0  0  1  0  0  3  0  0  0  0  0  0
  193.3040  174.6430  145.1420 C   0  0  0  0  0  0  0  0  0  0  0  0
  189.5080  174.0240  143.1740 C   0  0  0  0  0  2  0  0  0  0  0  0
  195.7270  174.6090  144.8430 N   0  0  0  0  0  1  0  0  0  0  0  0
  191.5510  173.1840  144.3130 C   0  0  0  0  0  3  0  0  0  0  0  0
  186.9880  178.0600  144.2660 C   0  0  0  0  0  2  0  0  0  0  0  0
  185.9960  177.2720  145.1040 C   0  0  2  0  0  3  0  0  0  0  0  0
  184.9150  178.0720  145.4350 F   0  0  0  0  0  0  0  0  0  0  0  0
  188.1110  177.3010  146.4090 C   0  0  0  0  0  1  0  0  0  0  0  0
  186.6820  176.7950  146.3690 C   0  0  0  0  0  2  0  0  0  0  0  0
  193.5580  172.1260  145.3710 C   0  0  0  0  0  2  0  0  0  0  0  0
  193.2980  170.3090  142.3260 O   0  0  0  0  0  1  0  0  0  0  0  0
  193.3770  170.2200  143.7150 C   0  0  1  0  0  3  0  0  0  0  0  0
  195.5150  170.5830  144.6480 C   0  0  2  0  0  3  0  0  0  0  0  0
  195.1670  169.2670  144.9710 O   0  0  0  0  0  0  0  0  0  0  0  0
  194.1110  168.9480  144.1000 C   0  0  0  0  0  2  0  0  0  0  0  0
  196.3150  171.2380  145.7630 C   0  0  0  0  0  1  0  0  0  0  0  0
  194.2490  171.3250  144.2450 C   0  0  2  0  0  3  0  0  0  0  0  0
  1 20  1  1  0  0  0
  2  9  2  0  0  0  0
  2 19  1  0  0  0  0
  3  4  1  0  0  0  0
  5 17  1  6  0  0  0
  6  9  1  0  0  0  0
  7  1  1  0  0  0  0
  8  3  1  0  0  0  0
  9 10  1  0  0  0  0
 10  8  1  0  0  0  0
 10 16  2  0  0  0  0
 11 16  1  0  0  0  0
 11 25  1  0  0  0  0
 12  1  1  0  0  0  0
 13  7  1  1  0  0  0
 13  5  1  0  0  0  0
 13  6  1  0  0  0  0
 14 12  1  0  0  0  0
 14  5  1  0  0  0  0
 15 18  1  6  0  0  0
 15  4  1  0  0  0  0
 16 15  1  0  0  0  0
 17  2  1  0  0  0  0
 19 11  2  0  0  0  0
 20 21  1  0  0  0  0
 21 22  1  1  0  0  0
 21 24  1  0  0  0  0
 24 23  1  0  0  0  0
 27 26  1  6  0  0  0
 27 30  1  0  0  0  0
 27 32  1  0  0  0  0
 28 29  1  0  0  0  0
 28 31  1  1  0  0  0
 30 29  1  0  0  0  0
 32 28  1  0  0  0  0
 32 25  1  1  0  0  0
M  END
>  <MODEL>
9

>  <REMARK>
 VINA RESULT:      -7.2      2.986      5.050
  Name = 
  5 active torsions:
  status: ('A' for Active; 'I' for Inactive)
    1  A    between atoms: C_1  and  C_20
    2  A    between atoms: C_1  and  C_24
    3  A    between atoms: C_2  and  C_24
    4  A    between atoms: C_16  and  C_27
    5  A    between atoms: C_27  and  C_32
                            x       y       z     vdW  Elec       q    Type
                         _______ _______ _______ _____ _____    ______ ____

>  <TORSDO>
F 5

$$$$
