=
 OpenBabel11052418083D

 28 32  0  0  1  0  0  0  0  0999 V2000
  189.2600  173.8950  142.5640 C   0  0  0  0  0  0  0  0  0  0  0  0
  186.4810  176.7950  145.9240 C   0  0  0  0  0  3  0  0  0  0  0  0
  186.7440  176.9750  139.8630 O   0  0  0  0  0  0  0  0  0  0  0  0
  185.0110  178.0570  144.4580 C   0  0  0  0  0  0  0  0  0  0  0  0
  186.7710  176.6610  143.4900 C   0  0  0  0  0  0  0  0  0  0  0  0
  184.7280  178.1780  146.8600 C   0  0  0  0  0  0  0  0  0  0  0  0
  186.0960  177.1630  144.6240 C   0  0  0  0  0  0  0  0  0  0  0  0
  185.2850  177.9580  142.0600 C   0  0  0  0  0  3  0  0  0  0  0  0
  184.3350  178.5570  145.5740 C   0  0  0  0  0  3  0  0  0  0  0  0
  187.9900  175.4210  141.1540 C   0  0  0  0  0  0  0  0  0  0  0  0
  187.9840  175.7770  143.6660 C   0  0  0  0  0  2  0  0  0  0  0  0
  184.6160  178.4500  143.1790 C   0  0  0  0  0  3  0  0  0  0  0  0
  189.3530  173.6850  140.1490 C   0  0  0  0  0  3  0  0  0  0  0  0
  187.0260  176.5250  141.0070 C   0  0  0  0  0  0  0  0  0  0  0  0
  188.4760  174.7600  140.0190 C   0  0  0  0  0  3  0  0  0  0  0  0
  184.0700  178.6650  147.9390 F   0  0  0  0  0  0  0  0  0  0  0  0
  185.8000  177.3000  147.0350 C   0  0  0  0  0  3  0  0  0  0  0  0
  186.3590  177.0690  142.2040 C   0  0  0  0  0  0  0  0  0  0  0  0
  189.7420  173.2540  141.4180 C   0  0  0  0  0  3  0  0  0  0  0  0
  188.3880  174.9970  142.4380 C   0  0  0  0  0  0  0  0  0  0  0  0
  189.6970  173.3960  143.9090 C   0  0  0  0  0  2  0  0  0  0  0  0
  191.1600  174.2740  144.5310 S   0  0  2  0  0  0  0  0  0  0  0  0
  192.1070  173.1640  144.9740 O   0  0  0  0  0  0  0  0  0  0  0  0
  190.7380  176.6060  146.1220 C   0  0  1  0  0  3  0  0  0  0  0  0
  189.4710  174.5680  146.8120 C   0  0  0  0  0  1  0  0  0  0  0  0
  190.6480  175.1400  146.0510 C   0  0  1  0  0  0  0  0  0  0  0  0
  192.0200  175.7190  147.1230 S   0  0  0  0  0  0  0  0  0  0  0  0
  191.3340  177.1590  144.9880 O   0  0  0  0  0  1  0  0  0  0  0  0
  1 21  1  0  0  0  0
  2 17  1  0  0  0  0
  3 14  2  0  0  0  0
  4  7  1  0  0  0  0
  4  9  2  0  0  0  0
  5 11  1  0  0  0  0
  5  7  1  0  0  0  0
  6 17  2  0  0  0  0
  6 16  1  0  0  0  0
  7  2  2  0  0  0  0
  8 18  1  0  0  0  0
  8 12  2  0  0  0  0
  9  6  1  0  0  0  0
 10 20  2  0  0  0  0
 12  4  1  0  0  0  0
 13 19  1  0  0  0  0
 14 10  1  0  0  0  0
 14 18  1  0  0  0  0
 15 13  2  0  0  0  0
 15 10  1  0  0  0  0
 18  5  2  0  0  0  0
 19  1  2  0  0  0  0
 20  1  1  0  0  0  0
 20 11  1  0  0  0  0
 21 22  1  0  0  0  0
 22 23  2  1  0  0  0
 22 26  1  0  0  0  0
 24 28  1  6  0  0  0
 24 27  1  0  0  0  0
 26 24  1  0  0  0  0
 26 25  1  1  0  0  0
 26 27  1  0  0  0  0
M  END
>  <MODEL>
1

>  <REMARK>
 VINA RESULT:      -8.5      0.000      0.000
  Name = 
  3 active torsions:
  status: ('A' for Active; 'I' for Inactive)
    1  A    between atoms: C_1  and  C_2
    2  A    between atoms: C_2  and  S_3
    3  A    between atoms: S_3  and  C_11
                            x       y       z     vdW  Elec       q    Type
                         _______ _______ _______ _____ _____    ______ ____

>  <TORSDO>
F 3

$$$$
=
 OpenBabel11052418083D

 28 32  0  0  1  0  0  0  0  0999 V2000
  190.7330  175.4780  144.6320 C   0  0  0  0  0  0  0  0  0  0  0  0
  186.7110  177.1650  141.7340 C   0  0  0  0  0  3  0  0  0  0  0  0
  187.1260  176.2380  147.7180 O   0  0  0  0  0  0  0  0  0  0  0  0
  185.0860  177.8390  143.4090 C   0  0  0  0  0  0  0  0  0  0  0  0
  187.1400  176.7090  144.1070 C   0  0  0  0  0  0  0  0  0  0  0  0
  184.6750  178.2910  141.0650 C   0  0  0  0  0  0  0  0  0  0  0  0
  186.3240  177.2330  143.0820 C   0  0  0  0  0  0  0  0  0  0  0  0
  185.4740  177.3870  145.7500 C   0  0  0  0  0  3  0  0  0  0  0  0
  184.2730  178.3630  142.4010 C   0  0  0  0  0  3  0  0  0  0  0  0
  188.9420  175.8690  146.2350 C   0  0  0  0  0  0  0  0  0  0  0  0
  188.4190  175.9840  143.7550 C   0  0  0  0  0  2  0  0  0  0  0  0
  184.6700  177.9080  144.7380 C   0  0  0  0  0  3  0  0  0  0  0  0
  191.1510  175.2330  147.0090 C   0  0  0  0  0  3  0  0  0  0  0  0
  187.5600  176.2810  146.5340 C   0  0  0  0  0  0  0  0  0  0  0  0
  189.8280  175.5800  147.2800 C   0  0  0  0  0  3  0  0  0  0  0  0
  183.8830  178.8000  140.0920 F   0  0  0  0  0  0  0  0  0  0  0  0
  185.8920  177.6910  140.7320 C   0  0  0  0  0  3  0  0  0  0  0  0
  186.7030  176.7870  145.4470 C   0  0  0  0  0  0  0  0  0  0  0  0
  191.6010  175.1840  145.6900 C   0  0  0  0  0  3  0  0  0  0  0  0
  189.3880  175.8100  144.8990 C   0  0  0  0  0  0  0  0  0  0  0  0
  191.2580  175.4190  143.2290 C   0  0  0  0  0  2  0  0  0  0  0  0
  191.7330  173.7380  142.7370 S   0  0  2  0  0  0  0  0  0  0  0  0
  192.4890  173.9260  141.4250 O   0  0  0  0  0  0  0  0  0  0  0  0
  189.4550  172.1330  143.3550 C   0  0  1  0  0  3  0  0  0  0  0  0
  189.3000  173.4920  141.2670 C   0  0  0  0  0  1  0  0  0  0  0  0
  190.1940  172.8590  142.3110 C   0  0  1  0  0  0  0  0  0  0  0  0
  190.3480  171.0370  142.1580 S   0  0  0  0  0  0  0  0  0  0  0  0
  190.1260  172.1290  144.5790 O   0  0  0  0  0  1  0  0  0  0  0  0
  1 20  2  0  0  0  0
  1 19  1  0  0  0  0
  2  7  1  0  0  0  0
  4 12  1  0  0  0  0
  5 18  2  0  0  0  0
  6  9  2  0  0  0  0
  7  4  2  0  0  0  0
  7  5  1  0  0  0  0
  9  4  1  0  0  0  0
 10 14  1  0  0  0  0
 10 15  2  0  0  0  0
 11  5  1  0  0  0  0
 11 20  1  0  0  0  0
 12  8  2  0  0  0  0
 13 15  1  0  0  0  0
 14  3  2  0  0  0  0
 16  6  1  0  0  0  0
 17  6  1  0  0  0  0
 17  2  2  0  0  0  0
 18  8  1  0  0  0  0
 18 14  1  0  0  0  0
 19 13  2  0  0  0  0
 20 10  1  0  0  0  0
 21  1  1  0  0  0  0
 22 23  2  6  0  0  0
 22 21  1  0  0  0  0
 24 28  1  1  0  0  0
 26 25  1  6  0  0  0
 26 22  1  0  0  0  0
 26 24  1  0  0  0  0
 27 26  1  0  0  0  0
 27 24  1  0  0  0  0
M  END
>  <MODEL>
2

>  <REMARK>
 VINA RESULT:      -8.0      2.649      4.803
  Name = 
  3 active torsions:
  status: ('A' for Active; 'I' for Inactive)
    1  A    between atoms: C_1  and  C_2
    2  A    between atoms: C_2  and  S_3
    3  A    between atoms: S_3  and  C_11
                            x       y       z     vdW  Elec       q    Type
                         _______ _______ _______ _____ _____    ______ ____

>  <TORSDO>
F 3

$$$$
=
 OpenBabel11052418083D

 28 32  0  0  1  0  0  0  0  0999 V2000
  190.4770  173.9290  143.5990 C   0  0  0  0  0  0  0  0  0  0  0  0
  187.0710  176.8270  146.3230 C   0  0  0  0  0  3  0  0  0  0  0  0
  187.6210  176.0050  140.3350 O   0  0  0  0  0  0  0  0  0  0  0  0
  185.4880  177.5380  144.6230 C   0  0  0  0  0  0  0  0  0  0  0  0
  187.5080  176.3290  143.9600 C   0  0  0  0  0  0  0  0  0  0  0  0
  185.0610  178.0190  146.9580 C   0  0  0  0  0  0  0  0  0  0  0  0
  186.6990  176.8920  144.9710 C   0  0  0  0  0  0  0  0  0  0  0  0
  185.9020  177.0780  142.2880 C   0  0  0  0  0  3  0  0  0  0  0  0
  184.6790  178.0950  145.6170 C   0  0  0  0  0  3  0  0  0  0  0  0
  189.0420  174.9420  141.9100 C   0  0  0  0  0  0  0  0  0  0  0  0
  188.8430  175.7170  144.3170 C   0  0  0  0  0  2  0  0  0  0  0  0
  185.1010  177.6290  143.2860 C   0  0  0  0  0  3  0  0  0  0  0  0
  190.7330  173.3270  141.2630 C   0  0  0  0  0  3  0  0  0  0  0  0
  187.9140  175.8160  141.5480 C   0  0  0  0  0  0  0  0  0  0  0  0
  189.6930  174.1910  140.9230 C   0  0  0  0  0  3  0  0  0  0  0  0
  184.2740  178.5600  147.9180 F   0  0  0  0  0  0  0  0  0  0  0  0
  186.2560  177.3870  147.3110 C   0  0  0  0  0  3  0  0  0  0  0  0
  187.1020  176.4310  142.6120 C   0  0  0  0  0  0  0  0  0  0  0  0
  191.1210  173.1960  142.5960 C   0  0  0  0  0  3  0  0  0  0  0  0
  189.4380  174.8210  143.2590 C   0  0  0  0  0  0  0  0  0  0  0  0
  190.9200  173.7540  145.0200 C   0  0  0  0  0  2  0  0  0  0  0  0
  192.3750  174.7630  145.4200 S   0  0  2  0  0  0  0  0  0  0  0  0
  192.4050  175.8320  144.3330 O   0  0  0  0  0  0  0  0  0  0  0  0
  195.1560  174.1520  145.6220 C   0  0  1  0  0  3  0  0  0  0  0  0
  193.6390  172.2150  145.2000 C   0  0  0  0  0  1  0  0  0  0  0  0
  193.8390  173.7140  145.1380 C   0  0  1  0  0  0  0  0  0  0  0  0
  194.9480  174.2650  143.7850 S   0  0  0  0  0  0  0  0  0  0  0  0
  195.1230  175.4330  146.1730 O   0  0  0  0  0  1  0  0  0  0  0  0
  1 21  1  0  0  0  0
  2 17  1  0  0  0  0
  3 14  2  0  0  0  0
  4  7  1  0  0  0  0
  4  9  2  0  0  0  0
  5 11  1  0  0  0  0
  5  7  1  0  0  0  0
  6 17  2  0  0  0  0
  6 16  1  0  0  0  0
  7  2  2  0  0  0  0
  8 18  1  0  0  0  0
  8 12  2  0  0  0  0
  9  6  1  0  0  0  0
 10 20  2  0  0  0  0
 12  4  1  0  0  0  0
 13 19  1  0  0  0  0
 14 10  1  0  0  0  0
 14 18  1  0  0  0  0
 15 13  2  0  0  0  0
 15 10  1  0  0  0  0
 18  5  2  0  0  0  0
 19  1  2  0  0  0  0
 20  1  1  0  0  0  0
 20 11  1  0  0  0  0
 21 22  1  0  0  0  0
 22 23  2  6  0  0  0
 24 28  1  1  0  0  0
 26 25  1  1  0  0  0
 26 22  1  0  0  0  0
 26 24  1  0  0  0  0
 27 26  1  0  0  0  0
 27 24  1  0  0  0  0
M  END
>  <MODEL>
3

>  <REMARK>
 VINA RESULT:      -7.8      1.972      2.273
  Name = 
  3 active torsions:
  status: ('A' for Active; 'I' for Inactive)
    1  A    between atoms: C_1  and  C_2
    2  A    between atoms: C_2  and  S_3
    3  A    between atoms: S_3  and  C_11
                            x       y       z     vdW  Elec       q    Type
                         _______ _______ _______ _____ _____    ______ ____

>  <TORSDO>
F 3

$$$$
=
 OpenBabel11052418083D

 28 32  0  0  1  0  0  0  0  0999 V2000
  191.5430  176.5610  144.8420 C   0  0  0  0  0  0  0  0  0  0  0  0
  187.3780  177.5750  141.8360 C   0  0  0  0  0  3  0  0  0  0  0  0
  187.7060  175.9330  147.6700 O   0  0  0  0  0  0  0  0  0  0  0  0
  185.5470  177.5680  143.4330 C   0  0  0  0  0  0  0  0  0  0  0  0
  187.7860  176.9060  144.1620 C   0  0  0  0  0  0  0  0  0  0  0  0
  185.1550  178.2330  141.1370 C   0  0  0  0  0  0  0  0  0  0  0  0
  186.9150  177.3490  143.1430 C   0  0  0  0  0  0  0  0  0  0  0  0
  185.9160  176.8970  145.7240 C   0  0  0  0  0  3  0  0  0  0  0  0
  184.6780  178.0090  142.4310 C   0  0  0  0  0  3  0  0  0  0  0  0
  189.6310  176.2510  146.3180 C   0  0  0  0  0  0  0  0  0  0  0  0
  189.2270  176.5860  143.8360 C   0  0  0  0  0  2  0  0  0  0  0  0
  185.0580  177.3380  144.7190 C   0  0  0  0  0  3  0  0  0  0  0  0
  191.8850  176.0910  147.1980 C   0  0  0  0  0  3  0  0  0  0  0  0
  188.1750  176.2540  146.5440 C   0  0  0  0  0  0  0  0  0  0  0  0
  190.5060  176.0500  147.3930 C   0  0  0  0  0  3  0  0  0  0  0  0
  184.3090  178.6600  140.1690 F   0  0  0  0  0  0  0  0  0  0  0  0
  186.5020  178.0150  140.8400 C   0  0  0  0  0  3  0  0  0  0  0  0
  187.2740  176.6780  145.4570 C   0  0  0  0  0  0  0  0  0  0  0  0
  192.4010  176.3470  145.9270 C   0  0  0  0  0  3  0  0  0  0  0  0
  190.1470  176.5000  145.0290 C   0  0  0  0  0  0  0  0  0  0  0  0
  192.1390  176.8400  143.4940 C   0  0  0  0  0  2  0  0  0  0  0  0
  193.3100  175.5540  142.9760 S   0  0  2  0  0  0  0  0  0  0  0  0
  193.8960  176.0810  141.6700 O   0  0  0  0  0  0  0  0  0  0  0  0
  192.1560  172.9980  143.5050 C   0  0  1  0  0  3  0  0  0  0  0  0
  191.1070  174.3100  141.6580 C   0  0  0  0  0  1  0  0  0  0  0  0
  192.3220  174.0880  142.5320 C   0  0  1  0  0  0  0  0  0  0  0  0
  193.2910  172.5920  142.0980 S   0  0  0  0  0  0  0  0  0  0  0  0
  192.9060  173.1990  144.6650 O   0  0  0  0  0  1  0  0  0  0  0  0
  1 20  2  0  0  0  0
  1 19  1  0  0  0  0
  2  7  1  0  0  0  0
  4 12  1  0  0  0  0
  5 18  2  0  0  0  0
  6  9  2  0  0  0  0
  7  4  2  0  0  0  0
  7  5  1  0  0  0  0
  9  4  1  0  0  0  0
 10 14  1  0  0  0  0
 10 15  2  0  0  0  0
 11  5  1  0  0  0  0
 11 20  1  0  0  0  0
 12  8  2  0  0  0  0
 13 15  1  0  0  0  0
 14  3  2  0  0  0  0
 16  6  1  0  0  0  0
 17  6  1  0  0  0  0
 17  2  2  0  0  0  0
 18  8  1  0  0  0  0
 18 14  1  0  0  0  0
 19 13  2  0  0  0  0
 20 10  1  0  0  0  0
 21  1  1  0  0  0  0
 22 23  2  6  0  0  0
 22 21  1  0  0  0  0
 24 28  1  1  0  0  0
 26 25  1  6  0  0  0
 26 22  1  0  0  0  0
 26 24  1  0  0  0  0
 27 26  1  0  0  0  0
 27 24  1  0  0  0  0
M  END
>  <MODEL>
4

>  <REMARK>
 VINA RESULT:      -7.5      2.846      4.946
  Name = 
  3 active torsions:
  status: ('A' for Active; 'I' for Inactive)
    1  A    between atoms: C_1  and  C_2
    2  A    between atoms: C_2  and  S_3
    3  A    between atoms: S_3  and  C_11
                            x       y       z     vdW  Elec       q    Type
                         _______ _______ _______ _____ _____    ______ ____

>  <TORSDO>
F 3

$$$$
=
 OpenBabel11052418083D

 28 32  0  0  1  0  0  0  0  0999 V2000
  187.7170  176.3200  142.6330 C   0  0  0  0  0  0  0  0  0  0  0  0
  192.7490  175.9140  144.0240 C   0  0  0  0  0  3  0  0  0  0  0  0
  187.9010  177.6010  147.2640 O   0  0  0  0  0  0  0  0  0  0  0  0
  192.6700  176.2410  146.4300 C   0  0  0  0  0  0  0  0  0  0  0  0
  190.6400  176.5570  145.1030 C   0  0  0  0  0  0  0  0  0  0  0  0
  194.7450  175.6000  145.3580 C   0  0  0  0  0  0  0  0  0  0  0  0
  192.0130  176.2360  145.1760 C   0  0  0  0  0  0  0  0  0  0  0  0
  190.6130  176.8920  147.5160 C   0  0  0  0  0  3  0  0  0  0  0  0
  194.0280  175.9220  146.5130 C   0  0  0  0  0  3  0  0  0  0  0  0
  187.7580  176.9570  144.9840 C   0  0  0  0  0  0  0  0  0  0  0  0
  189.9560  176.6400  143.7580 C   0  0  0  0  0  2  0  0  0  0  0  0
  191.9670  176.5710  147.5890 C   0  0  0  0  0  3  0  0  0  0  0  0
  185.6440  176.7780  143.8080 C   0  0  0  0  0  3  0  0  0  0  0  0
  188.5020  177.1880  146.2340 C   0  0  0  0  0  0  0  0  0  0  0  0
  186.3600  177.0400  144.9750 C   0  0  0  0  0  3  0  0  0  0  0  0
  196.0610  175.2910  145.4420 F   0  0  0  0  0  0  0  0  0  0  0  0
  194.1060  175.5970  144.1160 C   0  0  0  0  0  3  0  0  0  0  0  0
  189.9440  176.8890  146.2850 C   0  0  0  0  0  0  0  0  0  0  0  0
  186.3210  176.4180  142.6430 C   0  0  0  0  0  3  0  0  0  0  0  0
  188.4480  176.6040  143.8060 C   0  0  0  0  0  0  0  0  0  0  0  0
  188.4050  175.9240  141.3610 C   0  0  0  0  0  2  0  0  0  0  0  0
  188.3300  174.1360  141.0620 S   0  0  2  0  0  0  0  0  0  0  0  0
  188.1870  173.5250  142.4520 O   0  0  0  0  0  0  0  0  0  0  0  0
  190.2250  173.5550  139.0070 C   0  0  1  0  0  3  0  0  0  0  0  0
  191.1760  174.0860  141.2540 C   0  0  0  0  0  1  0  0  0  0  0  0
  189.9730  173.6330  140.4540 C   0  0  1  0  0  0  0  0  0  0  0  0
  190.0880  171.9070  139.8430 S   0  0  0  0  0  0  0  0  0  0  0  0
  189.0740  173.7900  138.2530 O   0  0  0  0  0  1  0  0  0  0  0  0
  1 19  2  0  0  0  0
  1 20  1  0  0  0  0
  2 17  2  0  0  0  0
  2  7  1  0  0  0  0
  4  9  1  0  0  0  0
  4 12  1  0  0  0  0
  5  7  1  0  0  0  0
  5 18  2  0  0  0  0
  6 16  1  0  0  0  0
  6  9  2  0  0  0  0
  7  4  2  0  0  0  0
  8 12  2  0  0  0  0
 10 14  1  0  0  0  0
 11 20  1  0  0  0  0
 11  5  1  0  0  0  0
 13 15  2  0  0  0  0
 14 18  1  0  0  0  0
 14  3  2  0  0  0  0
 15 10  1  0  0  0  0
 17  6  1  0  0  0  0
 18  8  1  0  0  0  0
 19 13  1  0  0  0  0
 20 10  2  0  0  0  0
 21  1  1  0  0  0  0
 22 21  1  0  0  0  0
 22 23  2  1  0  0  0
 24 28  1  6  0  0  0
 24 27  1  0  0  0  0
 24 26  1  0  0  0  0
 26 22  1  0  0  0  0
 26 25  1  1  0  0  0
 27 26  1  0  0  0  0
M  END
>  <MODEL>
5

>  <REMARK>
 VINA RESULT:      -7.5      3.578      6.853
  Name = 
  3 active torsions:
  status: ('A' for Active; 'I' for Inactive)
    1  A    between atoms: C_1  and  C_2
    2  A    between atoms: C_2  and  S_3
    3  A    between atoms: S_3  and  C_11
                            x       y       z     vdW  Elec       q    Type
                         _______ _______ _______ _____ _____    ______ ____

>  <TORSDO>
F 3

$$$$
=
 OpenBabel11052418083D

 28 32  0  0  1  0  0  0  0  0999 V2000
  191.0610  174.3590  145.0520 C   0  0  0  0  0  0  0  0  0  0  0  0
  186.4230  176.7010  145.7040 C   0  0  0  0  0  3  0  0  0  0  0  0
  191.6470  177.4250  148.7080 O   0  0  0  0  0  0  0  0  0  0  0  0
  186.9240  178.4480  147.3160 C   0  0  0  0  0  0  0  0  0  0  0  0
  188.6410  176.8000  146.7510 C   0  0  0  0  0  0  0  0  0  0  0  0
  184.7410  178.3460  146.2730 C   0  0  0  0  0  0  0  0  0  0  0  0
  187.3340  177.3070  146.5840 C   0  0  0  0  0  0  0  0  0  0  0  0
  189.0920  178.5580  148.3760 C   0  0  0  0  0  3  0  0  0  0  0  0
  185.6340  178.9590  147.1560 C   0  0  0  0  0  3  0  0  0  0  0  0
  191.4110  175.9130  146.8940 C   0  0  0  0  0  0  0  0  0  0  0  0
  189.0540  175.5320  146.0390 C   0  0  0  0  0  2  0  0  0  0  0  0
  187.8040  179.0620  148.2070 C   0  0  0  0  0  3  0  0  0  0  0  0
  193.2760  174.6450  146.0000 C   0  0  0  0  0  3  0  0  0  0  0  0
  190.8990  176.9410  147.8150 C   0  0  0  0  0  0  0  0  0  0  0  0
  192.7730  175.5840  146.8990 C   0  0  0  0  0  3  0  0  0  0  0  0
  183.4910  178.8450  146.1200 F   0  0  0  0  0  0  0  0  0  0  0  0
  185.1350  177.2180  145.5500 C   0  0  0  0  0  3  0  0  0  0  0  0
  189.5180  177.4330  147.6570 C   0  0  0  0  0  0  0  0  0  0  0  0
  192.4230  174.0370  145.0790 C   0  0  0  0  0  3  0  0  0  0  0  0
  190.5420  175.2930  145.9720 C   0  0  0  0  0  0  0  0  0  0  0  0
  190.1800  173.6870  144.0420 C   0  0  0  0  0  2  0  0  0  0  0  0
  190.2640  174.4820  142.4120 S   0  0  2  0  0  0  0  0  0  0  0  0
  190.4440  175.9640  142.7230 O   0  0  0  0  0  0  0  0  0  0  0  0
  188.1710  173.0190  141.1360 C   0  0  1  0  0  3  0  0  0  0  0  0
  187.4900  175.1370  142.2680 C   0  0  0  0  0  1  0  0  0  0  0  0
  188.6110  174.3200  141.6610 C   0  0  1  0  0  0  0  0  0  0  0  0
  188.5850  174.2630  139.8270 S   0  0  0  0  0  0  0  0  0  0  0  0
  189.1770  172.0530  141.1940 O   0  0  0  0  0  1  0  0  0  0  0  0
  1 19  2  0  0  0  0
  1 20  1  0  0  0  0
  2  7  1  0  0  0  0
  4 12  1  0  0  0  0
  5 18  2  0  0  0  0
  6  9  2  0  0  0  0
  7  5  1  0  0  0  0
  7  4  2  0  0  0  0
  9  4  1  0  0  0  0
 10 15  1  0  0  0  0
 10 14  1  0  0  0  0
 11  5  1  0  0  0  0
 12  8  2  0  0  0  0
 13 15  2  0  0  0  0
 14  3  2  0  0  0  0
 16  6  1  0  0  0  0
 17  2  2  0  0  0  0
 17  6  1  0  0  0  0
 18 14  1  0  0  0  0
 18  8  1  0  0  0  0
 19 13  1  0  0  0  0
 20 11  1  0  0  0  0
 20 10  2  0  0  0  0
 21  1  1  0  0  0  0
 22 23  2  1  0  0  0
 22 21  1  0  0  0  0
 24 28  1  6  0  0  0
 24 26  1  0  0  0  0
 26 25  1  1  0  0  0
 26 22  1  0  0  0  0
 27 24  1  0  0  0  0
 27 26  1  0  0  0  0
M  END
>  <MODEL>
6

>  <REMARK>
 VINA RESULT:      -7.5      2.325      5.281
  Name = 
  3 active torsions:
  status: ('A' for Active; 'I' for Inactive)
    1  A    between atoms: C_1  and  C_2
    2  A    between atoms: C_2  and  S_3
    3  A    between atoms: S_3  and  C_11
                            x       y       z     vdW  Elec       q    Type
                         _______ _______ _______ _____ _____    ______ ____

>  <TORSDO>
F 3

$$$$
=
 OpenBabel11052418083D

 28 32  0  0  1  0  0  0  0  0999 V2000
  186.9410  177.6260  145.1230 C   0  0  0  0  0  0  0  0  0  0  0  0
  189.3160  173.3160  143.3350 C   0  0  0  0  0  3  0  0  0  0  0  0
  186.1150  177.5480  140.3880 O   0  0  0  0  0  0  0  0  0  0  0  0
  189.1330  173.5610  140.9250 C   0  0  0  0  0  0  0  0  0  0  0  0
  187.9870  175.1510  142.3890 C   0  0  0  0  0  0  0  0  0  0  0  0
  190.4480  171.7580  141.8660 C   0  0  0  0  0  0  0  0  0  0  0  0
  188.8100  174.0150  142.2260 C   0  0  0  0  0  0  0  0  0  0  0  0
  187.8170  175.3470  139.9660 C   0  0  0  0  0  3  0  0  0  0  0  0
  189.9490  172.4400  140.7540 C   0  0  0  0  0  3  0  0  0  0  0  0
  186.5150  177.6400  142.7250 C   0  0  0  0  0  0  0  0  0  0  0  0
  187.5670  175.5840  143.7750 C   0  0  0  0  0  2  0  0  0  0  0  0
  188.6330  174.2280  139.8060 C   0  0  0  0  0  3  0  0  0  0  0  0
  185.8020  179.5080  144.0990 C   0  0  0  0  0  3  0  0  0  0  0  0
  186.6620  177.0230  141.3960 C   0  0  0  0  0  0  0  0  0  0  0  0
  185.9060  178.8950  142.8510 C   0  0  0  0  0  3  0  0  0  0  0  0
  191.2380  170.6720  141.6960 F   0  0  0  0  0  0  0  0  0  0  0  0
  190.1310  172.1950  143.1550 C   0  0  0  0  0  3  0  0  0  0  0  0
  187.4890  175.8130  141.2470 C   0  0  0  0  0  0  0  0  0  0  0  0
  186.3200  178.8760  145.2300 C   0  0  0  0  0  3  0  0  0  0  0  0
  187.0300  176.9920  143.8670 C   0  0  0  0  0  0  0  0  0  0  0  0
  187.4890  176.9840  146.3620 C   0  0  0  0  0  2  0  0  0  0  0  0
  189.2230  177.4310  146.6640 S   0  0  2  0  0  0  0  0  0  0  0  0
  189.7300  177.9150  145.3100 O   0  0  0  0  0  0  0  0  0  0  0  0
  191.1920  175.8650  148.0120 C   0  0  1  0  0  3  0  0  0  0  0  0
  189.3140  174.5950  146.9660 C   0  0  0  0  0  1  0  0  0  0  0  0
  190.1140  175.8790  147.0120 C   0  0  1  0  0  0  0  0  0  0  0  0
  191.7820  175.7480  146.2600 S   0  0  0  0  0  0  0  0  0  0  0  0
  191.4720  177.1370  148.5130 O   0  0  0  0  0  1  0  0  0  0  0  0
  1 19  1  0  0  0  0
  1 21  1  0  0  0  0
  3 14  2  0  0  0  0
  4  7  1  0  0  0  0
  5 11  1  0  0  0  0
  6 17  2  0  0  0  0
  7  5  1  0  0  0  0
  7  2  2  0  0  0  0
  8 18  1  0  0  0  0
  9  4  2  0  0  0  0
  9  6  1  0  0  0  0
 10 15  2  0  0  0  0
 10 20  1  0  0  0  0
 11 20  1  0  0  0  0
 12  8  2  0  0  0  0
 12  4  1  0  0  0  0
 13 19  2  0  0  0  0
 14 10  1  0  0  0  0
 15 13  1  0  0  0  0
 16  6  1  0  0  0  0
 17  2  1  0  0  0  0
 18 14  1  0  0  0  0
 18  5  2  0  0  0  0
 20  1  2  0  0  0  0
 21 22  1  0  0  0  0
 22 23  2  6  0  0  0
 22 26  1  0  0  0  0
 24 28  1  6  0  0  0
 26 25  1  6  0  0  0
 26 24  1  0  0  0  0
 27 26  1  0  0  0  0
 27 24  1  0  0  0  0
M  END
>  <MODEL>
7

>  <REMARK>
 VINA RESULT:      -7.4      2.828      5.551
  Name = 
  3 active torsions:
  status: ('A' for Active; 'I' for Inactive)
    1  A    between atoms: C_1  and  C_2
    2  A    between atoms: C_2  and  S_3
    3  A    between atoms: S_3  and  C_11
                            x       y       z     vdW  Elec       q    Type
                         _______ _______ _______ _____ _____    ______ ____

>  <TORSDO>
F 3

$$$$
=
 OpenBabel11052418083D

 28 32  0  0  1  0  0  0  0  0999 V2000
  190.4140  176.8200  144.5360 C   0  0  0  0  0  0  0  0  0  0  0  0
  186.0380  177.5860  141.7640 C   0  0  0  0  0  3  0  0  0  0  0  0
  186.9500  177.6530  147.7640 O   0  0  0  0  0  0  0  0  0  0  0  0
  184.4560  178.3310  143.4500 C   0  0  0  0  0  0  0  0  0  0  0  0
  186.6720  177.5550  144.1350 C   0  0  0  0  0  0  0  0  0  0  0  0
  183.8410  178.3650  141.1080 C   0  0  0  0  0  0  0  0  0  0  0  0
  185.7330  177.8210  143.1150 C   0  0  0  0  0  0  0  0  0  0  0  0
  185.0470  178.2940  145.7920 C   0  0  0  0  0  3  0  0  0  0  0  0
  183.5210  178.6000  142.4470 C   0  0  0  0  0  3  0  0  0  0  0  0
  188.6970  177.2580  146.2070 C   0  0  0  0  0  0  0  0  0  0  0  0
  188.0030  176.9280  143.7890 C   0  0  0  0  0  2  0  0  0  0  0  0
  184.1210  178.5610  144.7850 C   0  0  0  0  0  3  0  0  0  0  0  0
  191.0120  176.9960  146.8810 C   0  0  0  0  0  3  0  0  0  0  0  0
  187.2980  177.5580  146.5550 C   0  0  0  0  0  0  0  0  0  0  0  0
  189.6780  177.2340  147.2060 C   0  0  0  0  0  3  0  0  0  0  0  0
  182.9320  178.6270  140.1390 F   0  0  0  0  0  0  0  0  0  0  0  0
  185.0970  177.8580  140.7670 C   0  0  0  0  0  3  0  0  0  0  0  0
  186.3170  177.7920  145.4800 C   0  0  0  0  0  0  0  0  0  0  0  0
  191.3770  176.7910  145.5500 C   0  0  0  0  0  3  0  0  0  0  0  0
  189.0590  177.0410  144.8610 C   0  0  0  0  0  0  0  0  0  0  0  0
  190.8500  176.6020  143.1180 C   0  0  0  0  0  2  0  0  0  0  0  0
  191.1190  174.8470  142.7390 S   0  0  2  0  0  0  0  0  0  0  0  0
  190.2440  174.1050  143.7430 O   0  0  0  0  0  0  0  0  0  0  0  0
  193.4160  173.1560  142.8530 C   0  0  1  0  0  3  0  0  0  0  0  0
  193.8440  175.6010  143.1230 C   0  0  0  0  0  1  0  0  0  0  0  0
  192.8430  174.4680  143.1930 C   0  0  1  0  0  0  0  0  0  0  0  0
  193.0470  173.3790  144.6550 S   0  0  0  0  0  0  0  0  0  0  0  0
  192.4750  172.2930  142.2890 O   0  0  0  0  0  1  0  0  0  0  0  0
  1 20  2  0  0  0  0
  1 19  1  0  0  0  0
  2  7  1  0  0  0  0
  4 12  1  0  0  0  0
  5 18  2  0  0  0  0
  6  9  2  0  0  0  0
  7  4  2  0  0  0  0
  7  5  1  0  0  0  0
  9  4  1  0  0  0  0
 10 14  1  0  0  0  0
 10 15  2  0  0  0  0
 11  5  1  0  0  0  0
 11 20  1  0  0  0  0
 12  8  2  0  0  0  0
 13 15  1  0  0  0  0
 14  3  2  0  0  0  0
 16  6  1  0  0  0  0
 17  6  1  0  0  0  0
 17  2  2  0  0  0  0
 18  8  1  0  0  0  0
 18 14  1  0  0  0  0
 19 13  2  0  0  0  0
 20 10  1  0  0  0  0
 21  1  1  0  0  0  0
 22 21  1  0  0  0  0
 22 26  1  0  0  0  0
 22 23  2  1  0  0  0
 24 28  1  6  0  0  0
 24 26  1  0  0  0  0
 24 27  1  0  0  0  0
 26 25  1  6  0  0  0
 26 27  1  0  0  0  0
M  END
>  <MODEL>
8

>  <REMARK>
 VINA RESULT:      -7.4      2.956      4.789
  Name = 
  3 active torsions:
  status: ('A' for Active; 'I' for Inactive)
    1  A    between atoms: C_1  and  C_2
    2  A    between atoms: C_2  and  S_3
    3  A    between atoms: S_3  and  C_11
                            x       y       z     vdW  Elec       q    Type
                         _______ _______ _______ _____ _____    ______ ____

>  <TORSDO>
F 3

$$$$
=
 OpenBabel11052418083D

 28 32  0  0  1  0  0  0  0  0999 V2000
  186.2410  177.5390  145.8330 C   0  0  0  0  0  0  0  0  0  0  0  0
  190.1360  174.4110  144.2610 C   0  0  0  0  0  3  0  0  0  0  0  0
  189.9990  178.6240  148.6280 O   0  0  0  0  0  0  0  0  0  0  0  0
  191.8460  174.7930  145.9440 C   0  0  0  0  0  0  0  0  0  0  0  0
  189.8170  176.1590  145.9540 C   0  0  0  0  0  0  0  0  0  0  0  0
  192.1490  173.0660  144.2740 C   0  0  0  0  0  0  0  0  0  0  0  0
  190.5880  175.1240  145.3830 C   0  0  0  0  0  0  0  0  0  0  0  0
  191.5660  176.5200  147.6110 C   0  0  0  0  0  3  0  0  0  0  0  0
  192.6150  173.7690  145.3880 C   0  0  0  0  0  3  0  0  0  0  0  0
  188.1110  178.1080  147.2860 C   0  0  0  0  0  0  0  0  0  0  0  0
  188.5160  176.5750  145.3060 C   0  0  0  0  0  2  0  0  0  0  0  0
  192.3260  175.4950  147.0500 C   0  0  0  0  0  3  0  0  0  0  0  0
  185.9350  179.1170  147.6500 C   0  0  0  0  0  3  0  0  0  0  0  0
  189.5090  177.9160  147.7070 C   0  0  0  0  0  0  0  0  0  0  0  0
  187.2720  178.9630  148.0130 C   0  0  0  0  0  3  0  0  0  0  0  0
  192.8980  172.0740  143.7380 F   0  0  0  0  0  0  0  0  0  0  0  0
  190.9120  173.3880  143.7110 C   0  0  0  0  0  3  0  0  0  0  0  0
  190.3180  176.8590  147.0730 C   0  0  0  0  0  0  0  0  0  0  0  0
  185.4230  178.4050  146.5650 C   0  0  0  0  0  3  0  0  0  0  0  0
  187.6000  177.3950  146.1820 C   0  0  0  0  0  0  0  0  0  0  0  0
  185.6490  176.7880  144.6780 C   0  0  0  0  0  2  0  0  0  0  0  0
  185.8190  177.6860  143.1090 S   0  0  2  0  0  0  0  0  0  0  0  0
  184.4490  177.5590  142.4500 O   0  0  0  0  0  0  0  0  0  0  0  0
  188.2390  177.3260  141.6380 C   0  0  1  0  0  3  0  0  0  0  0  0
  187.0660  175.2370  142.3410 C   0  0  0  0  0  1  0  0  0  0  0  0
  186.9690  176.7230  142.0730 C   0  0  1  0  0  0  0  0  0  0  0  0
  186.9760  177.1630  140.2920 S   0  0  0  0  0  0  0  0  0  0  0  0
  188.3490  178.6660  142.0130 O   0  0  0  0  0  1  0  0  0  0  0  0
  1 20  2  0  0  0  0
  1 19  1  0  0  0  0
  2  7  1  0  0  0  0
  4 12  1  0  0  0  0
  5 18  2  0  0  0  0
  6  9  2  0  0  0  0
  7  4  2  0  0  0  0
  7  5  1  0  0  0  0
  9  4  1  0  0  0  0
 10 14  1  0  0  0  0
 10 15  2  0  0  0  0
 11  5  1  0  0  0  0
 11 20  1  0  0  0  0
 12  8  2  0  0  0  0
 13 15  1  0  0  0  0
 14  3  2  0  0  0  0
 16  6  1  0  0  0  0
 17  2  2  0  0  0  0
 17  6  1  0  0  0  0
 18  8  1  0  0  0  0
 18 14  1  0  0  0  0
 19 13  2  0  0  0  0
 20 10  1  0  0  0  0
 21  1  1  0  0  0  0
 22 23  2  6  0  0  0
 22 21  1  0  0  0  0
 24 28  1  1  0  0  0
 24 26  1  0  0  0  0
 26 25  1  1  0  0  0
 26 22  1  0  0  0  0
 27 24  1  0  0  0  0
 27 26  1  0  0  0  0
M  END
>  <MODEL>
9

>  <REMARK>
 VINA RESULT:      -7.3      3.684      7.366
  Name = 
  3 active torsions:
  status: ('A' for Active; 'I' for Inactive)
    1  A    between atoms: C_1  and  C_2
    2  A    between atoms: C_2  and  S_3
    3  A    between atoms: S_3  and  C_11
                            x       y       z     vdW  Elec       q    Type
                         _______ _______ _______ _____ _____    ______ ____

>  <TORSDO>
F 3

$$$$
