=
 OpenBabel11052418283D

 27 30  0  0  1  0  0  0  0  0999 V2000
  187.7180  176.8450  144.8230 C   0  0  1  0  0  3  0  0  0  0  0  0
  189.1090  176.5340  145.3940 C   0  0  1  0  0  3  0  0  0  0  0  0
  192.9390  175.1240  146.4900 C   0  0  0  0  0  3  0  0  0  0  0  0
  195.3410  175.2660  146.3170 O   0  0  0  0  0  1  0  0  0  0  0  0
  189.1690  175.1920  146.1310 C   0  0  0  0  0  2  0  0  0  0  0  0
  192.6890  176.7170  144.2000 C   0  0  0  0  0  3  0  0  0  0  0  0
  193.9570  176.3840  144.6880 C   0  0  0  0  0  3  0  0  0  0  0  0
  191.5430  176.2630  144.8600 C   0  0  0  0  0  0  0  0  0  0  0  0
  194.0820  175.5910  145.8330 C   0  0  0  0  0  0  0  0  0  0  0  0
  191.6700  175.4470  146.0010 C   0  0  0  0  0  0  0  0  0  0  0  0
  190.1890  176.6010  144.3090 C   0  0  0  0  0  2  0  0  0  0  0  0
  190.5020  174.9900  146.6890 N   0  0  0  0  0  2  0  0  0  0  0  0
  184.9180  178.2500  147.7760 C   0  0  0  0  0  3  0  0  0  0  0  0
  186.7310  177.3160  145.8540 C   0  0  0  0  0  0  0  0  0  0  0  0
  187.0910  178.3580  146.7160 C   0  0  0  0  0  3  0  0  0  0  0  0
  186.1880  178.8240  147.6750 C   0  0  0  0  0  3  0  0  0  0  0  0
  184.5500  177.2110  146.9170 C   0  0  0  0  0  3  0  0  0  0  0  0
  185.4530  176.7450  145.9570 C   0  0  0  0  0  3  0  0  0  0  0  0
  187.8050  177.7940  143.7170 N   0  0  0  0  0  2  0  0  0  0  0  0
  184.3940  178.8980  143.4980 C   0  0  0  0  0  3  0  0  0  0  0  0
  184.1340  178.1640  141.1240 C   0  0  0  0  0  0  0  0  0  0  0  0
  183.2140  178.2720  140.0910 O   0  0  0  0  0  1  0  0  0  0  0  0
  186.6840  178.1700  142.9140 C   0  0  0  0  0  0  0  0  0  0  0  0
  183.6550  178.4220  142.4980 C   0  0  0  0  0  3  0  0  0  0  0  0
  185.3750  177.7630  140.8170 C   0  0  0  0  0  3  0  0  0  0  0  0
  186.4990  177.5430  141.7520 C   0  0  0  0  0  3  0  0  0  0  0  0
  185.8150  179.3190  143.3250 C   0  0  0  0  0  2  0  0  0  0  0  0
  1 19  1  6  0  0  0
  1 14  1  0  0  0  0
  2  1  1  6  0  0  0
  2  5  1  0  0  0  0
  5 12  1  0  0  0  0
  6  7  2  0  0  0  0
  6  8  1  0  0  0  0
  7  9  1  0  0  0  0
  8 10  2  0  0  0  0
  9  4  1  0  0  0  0
  9  3  2  0  0  0  0
 10  3  1  0  0  0  0
 10 12  1  0  0  0  0
 11  8  1  0  0  0  0
 11  2  1  0  0  0  0
 14 18  2  0  0  0  0
 14 15  1  0  0  0  0
 15 16  2  0  0  0  0
 16 13  1  0  0  0  0
 17 13  2  0  0  0  0
 18 17  1  0  0  0  0
 21 24  1  0  0  0  0
 22 21  1  0  0  0  0
 23 27  1  0  0  0  0
 23 19  1  0  0  0  0
 24 20  2  0  0  0  0
 25 21  2  0  0  0  0
 25 26  1  0  0  0  0
 26 23  2  0  0  0  0
 27 20  1  0  0  0  0
M  END
>  <MODEL>
1

>  <REMARK>
 VINA RESULT:      -8.0      0.000      0.000
  Name = 
  4 active torsions:
  status: ('A' for Active; 'I' for Inactive)
    1  A    between atoms: N_1  and  C_15
    2  A    between atoms: N_1  and  C_18
    3  A    between atoms: C_2  and  C_15
    4  A    between atoms: C_9  and  C_15
                            x       y       z     vdW  Elec       q    Type
                         _______ _______ _______ _____ _____    ______ ____

>  <TORSDO>
F 4

$$$$
=
 OpenBabel11052418283D

 27 30  0  0  1  0  0  0  0  0999 V2000
  187.8810  177.3800  144.5840 C   0  0  1  0  0  3  0  0  0  0  0  0
  187.8170  176.4740  143.3460 C   0  0  1  0  0  3  0  0  0  0  0  0
  188.3490  174.1410  139.8640 C   0  0  0  0  0  3  0  0  0  0  0  0
  188.7380  171.9960  138.8300 O   0  0  0  0  0  1  0  0  0  0  0  0
  188.0580  177.2300  142.0360 C   0  0  0  0  0  2  0  0  0  0  0  0
  189.1480  173.0860  142.3320 C   0  0  0  0  0  3  0  0  0  0  0  0
  189.1460  172.2770  141.1910 C   0  0  0  0  0  3  0  0  0  0  0  0
  188.7430  174.4220  142.2440 C   0  0  0  0  0  0  0  0  0  0  0  0
  188.7450  172.8030  139.9590 C   0  0  0  0  0  0  0  0  0  0  0  0
  188.3590  174.9560  140.9980 C   0  0  0  0  0  0  0  0  0  0  0  0
  188.7800  175.2880  143.4690 C   0  0  0  0  0  2  0  0  0  0  0  0
  187.9310  176.3170  140.9040 N   0  0  0  0  0  2  0  0  0  0  0  0
  184.0070  178.6370  145.9790 C   0  0  0  0  0  3  0  0  0  0  0  0
  186.5330  177.8100  145.0900 C   0  0  0  0  0  0  0  0  0  0  0  0
  185.9270  178.9440  144.5380 C   0  0  0  0  0  3  0  0  0  0  0  0
  184.6680  179.3580  144.9800 C   0  0  0  0  0  3  0  0  0  0  0  0
  184.6040  177.5020  146.5340 C   0  0  0  0  0  3  0  0  0  0  0  0
  185.8630  177.0880  146.0910 C   0  0  0  0  0  3  0  0  0  0  0  0
  188.6620  176.7590  145.6490 N   0  0  0  0  0  2  0  0  0  0  0  0
  191.8950  177.1660  144.1390 C   0  0  0  0  0  3  0  0  0  0  0  0
  193.1300  176.4920  146.2050 C   0  0  0  0  0  0  0  0  0  0  0  0
  194.4330  176.4560  146.6790 O   0  0  0  0  0  1  0  0  0  0  0  0
  190.0730  176.9360  145.7940 C   0  0  0  0  0  0  0  0  0  0  0  0
  192.9350  176.5920  144.7430 C   0  0  0  0  0  3  0  0  0  0  0  0
  192.1360  176.3600  147.0940 C   0  0  0  0  0  3  0  0  0  0  0  0
  190.6850  176.3320  146.8140 C   0  0  0  0  0  3  0  0  0  0  0  0
  190.8120  177.8700  144.8860 C   0  0  0  0  0  2  0  0  0  0  0  0
  1 14  1  0  0  0  0
  1 19  1  1  0  0  0
  2 11  1  0  0  0  0
  2  1  1  1  0  0  0
  3  9  2  0  0  0  0
  3 10  1  0  0  0  0
  4  9  1  0  0  0  0
  5  2  1  0  0  0  0
  7  6  2  0  0  0  0
  8  6  1  0  0  0  0
  8 11  1  0  0  0  0
  9  7  1  0  0  0  0
 10  8  2  0  0  0  0
 12 10  1  0  0  0  0
 12  5  1  0  0  0  0
 13 17  1  0  0  0  0
 14 18  1  0  0  0  0
 15 16  1  0  0  0  0
 15 14  2  0  0  0  0
 16 13  2  0  0  0  0
 18 17  2  0  0  0  0
 19 23  1  0  0  0  0
 20 24  2  0  0  0  0
 20 27  1  0  0  0  0
 21 22  1  0  0  0  0
 21 25  2  0  0  0  0
 23 26  2  0  0  0  0
 24 21  1  0  0  0  0
 26 25  1  0  0  0  0
 27 23  1  0  0  0  0
M  END
>  <MODEL>
2

>  <REMARK>
 VINA RESULT:      -7.7      2.964      6.394
  Name = 
  4 active torsions:
  status: ('A' for Active; 'I' for Inactive)
    1  A    between atoms: N_1  and  C_15
    2  A    between atoms: N_1  and  C_18
    3  A    between atoms: C_2  and  C_15
    4  A    between atoms: C_9  and  C_15
                            x       y       z     vdW  Elec       q    Type
                         _______ _______ _______ _____ _____    ______ ____

>  <TORSDO>
F 4

$$$$
=
 OpenBabel11052418283D

 27 30  0  0  1  0  0  0  0  0999 V2000
  189.3290  177.2620  143.9080 C   0  0  1  0  0  3  0  0  0  0  0  0
  187.8230  177.3380  143.6150 C   0  0  1  0  0  3  0  0  0  0  0  0
  183.7940  178.2640  142.7430 C   0  0  0  0  0  3  0  0  0  0  0  0
  181.9860  178.4150  141.1530 O   0  0  0  0  0  1  0  0  0  0  0  0
  187.0420  178.1060  144.6860 C   0  0  0  0  0  2  0  0  0  0  0  0
  185.6230  178.0700  140.6320 C   0  0  0  0  0  3  0  0  0  0  0  0
  184.2560  178.1980  140.3660 C   0  0  0  0  0  3  0  0  0  0  0  0
  186.0790  178.0300  141.9540 C   0  0  0  0  0  0  0  0  0  0  0  0
  183.3420  178.2930  141.4200 C   0  0  0  0  0  0  0  0  0  0  0  0
  185.1600  178.1460  143.0140 C   0  0  0  0  0  0  0  0  0  0  0  0
  187.5510  177.9230  142.2250 C   0  0  0  0  0  2  0  0  0  0  0  0
  185.6170  178.0920  144.3680 N   0  0  0  0  0  2  0  0  0  0  0  0
  190.3210  175.1770  147.5410 C   0  0  0  0  0  3  0  0  0  0  0  0
  189.6640  176.5170  145.1690 C   0  0  0  0  0  0  0  0  0  0  0  0
  190.8410  176.8360  145.8560 C   0  0  0  0  0  3  0  0  0  0  0  0
  191.1700  176.1670  147.0390 C   0  0  0  0  0  3  0  0  0  0  0  0
  189.1430  174.8550  146.8610 C   0  0  0  0  0  3  0  0  0  0  0  0
  188.8140  175.5230  145.6790 C   0  0  0  0  0  3  0  0  0  0  0  0
  190.0570  176.7110  142.7690 N   0  0  0  0  0  2  0  0  0  0  0  0
  188.1750  173.7240  142.1080 C   0  0  0  0  0  3  0  0  0  0  0  0
  190.1320  172.2120  142.4650 C   0  0  0  0  0  0  0  0  0  0  0  0
  190.4600  170.8730  142.3100 O   0  0  0  0  0  1  0  0  0  0  0  0
  190.0330  175.3250  142.4170 C   0  0  0  0  0  0  0  0  0  0  0  0
  188.6970  172.5650  142.5060 C   0  0  0  0  0  3  0  0  0  0  0  0
  191.1320  173.0850  142.6410 C   0  0  0  0  0  3  0  0  0  0  0  0
  191.0170  174.5420  142.8620 C   0  0  0  0  0  3  0  0  0  0  0  0
  188.9880  174.8050  141.4790 C   0  0  0  0  0  2  0  0  0  0  0  0
  1 19  1  6  0  0  0
  1 14  1  0  0  0  0
  2  1  1  1  0  0  0
  2  5  1  0  0  0  0
  3 10  1  0  0  0  0
  4  9  1  0  0  0  0
  6  8  1  0  0  0  0
  7  6  2  0  0  0  0
  7  9  1  0  0  0  0
  8 11  1  0  0  0  0
  8 10  2  0  0  0  0
  9  3  2  0  0  0  0
 10 12  1  0  0  0  0
 11  2  1  0  0  0  0
 12  5  1  0  0  0  0
 14 18  2  0  0  0  0
 14 15  1  0  0  0  0
 15 16  2  0  0  0  0
 16 13  1  0  0  0  0
 17 13  2  0  0  0  0
 18 17  1  0  0  0  0
 20 24  2  0  0  0  0
 21 24  1  0  0  0  0
 21 25  2  0  0  0  0
 22 21  1  0  0  0  0
 23 19  1  0  0  0  0
 23 26  2  0  0  0  0
 25 26  1  0  0  0  0
 27 20  1  0  0  0  0
 27 23  1  0  0  0  0
M  END
>  <MODEL>
3

>  <REMARK>
 VINA RESULT:      -7.5      2.672      7.191
  Name = 
  4 active torsions:
  status: ('A' for Active; 'I' for Inactive)
    1  A    between atoms: N_1  and  C_15
    2  A    between atoms: N_1  and  C_18
    3  A    between atoms: C_2  and  C_15
    4  A    between atoms: C_9  and  C_15
                            x       y       z     vdW  Elec       q    Type
                         _______ _______ _______ _____ _____    ______ ____

>  <TORSDO>
F 4

$$$$
=
 OpenBabel11052418283D

 27 30  0  0  1  0  0  0  0  0999 V2000
  190.4580  174.9760  145.3730 C   0  0  1  0  0  3  0  0  0  0  0  0
  189.0300  175.5100  145.5610 C   0  0  1  0  0  3  0  0  0  0  0  0
  185.4230  177.5380  146.4200 C   0  0  0  0  0  3  0  0  0  0  0  0
  183.6400  179.0060  145.7250 O   0  0  0  0  0  1  0  0  0  0  0  0
  188.5970  175.5610  147.0290 C   0  0  0  0  0  2  0  0  0  0  0  0
  186.9530  178.3720  144.2280 C   0  0  0  0  0  3  0  0  0  0  0  0
  185.6750  178.9010  144.4340 C   0  0  0  0  0  3  0  0  0  0  0  0
  187.4670  177.4180  145.1130 C   0  0  0  0  0  0  0  0  0  0  0  0
  184.9100  178.4830  145.5270 C   0  0  0  0  0  0  0  0  0  0  0  0
  186.7040  177.0120  146.2250 C   0  0  0  0  0  0  0  0  0  0  0  0
  188.8520  176.8810  144.8980 C   0  0  0  0  0  2  0  0  0  0  0  0
  187.2170  176.0270  147.1250 N   0  0  0  0  0  2  0  0  0  0  0  0
  190.8260  172.0620  142.2260 C   0  0  0  0  0  3  0  0  0  0  0  0
  190.5880  173.9750  144.2600 C   0  0  0  0  0  0  0  0  0  0  0  0
  191.1020  172.7040  144.5430 C   0  0  0  0  0  3  0  0  0  0  0  0
  191.2220  171.7500  143.5300 C   0  0  0  0  0  3  0  0  0  0  0  0
  190.3090  173.3280  141.9360 C   0  0  0  0  0  3  0  0  0  0  0  0
  190.1900  174.2820  142.9490 C   0  0  0  0  0  3  0  0  0  0  0  0
  191.4080  176.0710  145.2010 N   0  0  0  0  0  2  0  0  0  0  0  0
  194.0670  174.9230  143.0770 C   0  0  0  0  0  3  0  0  0  0  0  0
  195.7110  174.7430  144.9500 C   0  0  0  0  0  0  0  0  0  0  0  0
  197.0660  174.5080  145.1330 O   0  0  0  0  0  1  0  0  0  0  0  0
  192.8060  175.8690  144.9810 C   0  0  0  0  0  0  0  0  0  0  0  0
  195.1140  174.3410  143.6590 C   0  0  0  0  0  3  0  0  0  0  0  0
  195.0180  175.2470  145.9800 C   0  0  0  0  0  3  0  0  0  0  0  0
  193.5700  175.5410  146.0240 C   0  0  0  0  0  3  0  0  0  0  0  0
  193.4020  176.1370  143.6330 C   0  0  0  0  0  2  0  0  0  0  0  0
  1 19  1  6  0  0  0
  2  1  1  1  0  0  0
  2  5  1  0  0  0  0
  5 12  1  0  0  0  0
  6  7  2  0  0  0  0
  6  8  1  0  0  0  0
  7  9  1  0  0  0  0
  8 10  2  0  0  0  0
  9  4  1  0  0  0  0
  9  3  2  0  0  0  0
 10  3  1  0  0  0  0
 10 12  1  0  0  0  0
 11  8  1  0  0  0  0
 11  2  1  0  0  0  0
 13 16  1  0  0  0  0
 14 15  1  0  0  0  0
 14  1  1  0  0  0  0
 16 15  2  0  0  0  0
 17 13  2  0  0  0  0
 17 18  1  0  0  0  0
 18 14  2  0  0  0  0
 20 27  1  0  0  0  0
 20 24  2  0  0  0  0
 21 22  1  0  0  0  0
 21 25  2  0  0  0  0
 23 19  1  0  0  0  0
 23 26  2  0  0  0  0
 24 21  1  0  0  0  0
 25 26  1  0  0  0  0
 27 23  1  0  0  0  0
M  END
>  <MODEL>
4

>  <REMARK>
 VINA RESULT:      -7.3      2.513      8.301
  Name = 
  4 active torsions:
  status: ('A' for Active; 'I' for Inactive)
    1  A    between atoms: N_1  and  C_15
    2  A    between atoms: N_1  and  C_18
    3  A    between atoms: C_2  and  C_15
    4  A    between atoms: C_9  and  C_15
                            x       y       z     vdW  Elec       q    Type
                         _______ _______ _______ _____ _____    ______ ____

>  <TORSDO>
F 4

$$$$
=
 OpenBabel11052418283D

 27 30  0  0  1  0  0  0  0  0999 V2000
  189.5260  176.9530  143.8440 C   0  0  1  0  0  3  0  0  0  0  0  0
  188.0200  177.1060  143.5780 C   0  0  1  0  0  3  0  0  0  0  0  0
  184.0290  178.2360  142.7740 C   0  0  0  0  0  3  0  0  0  0  0  0
  182.2010  178.4680  141.2160 O   0  0  0  0  0  1  0  0  0  0  0  0
  187.3010  177.9230  144.6560 C   0  0  0  0  0  2  0  0  0  0  0  0
  185.8050  177.9270  140.6300 C   0  0  0  0  0  3  0  0  0  0  0  0
  184.4410  178.1250  140.3890 C   0  0  0  0  0  3  0  0  0  0  0  0
  186.2830  177.8740  141.9430 C   0  0  0  0  0  0  0  0  0  0  0  0
  183.5540  178.2770  141.4590 C   0  0  0  0  0  0  0  0  0  0  0  0
  185.3920  178.0480  143.0200 C   0  0  0  0  0  0  0  0  0  0  0  0
  187.7530  177.6930  142.1880 C   0  0  0  0  0  2  0  0  0  0  0  0
  185.8720  177.9810  144.3660 N   0  0  0  0  0  2  0  0  0  0  0  0
  190.4300  175.1920  147.6660 C   0  0  0  0  0  3  0  0  0  0  0  0
  189.8470  176.3580  145.1860 C   0  0  0  0  0  0  0  0  0  0  0  0
  189.1770  175.1990  145.5950 C   0  0  0  0  0  3  0  0  0  0  0  0
  189.4660  174.6180  146.8320 C   0  0  0  0  0  3  0  0  0  0  0  0
  191.1040  176.3480  147.2630 C   0  0  0  0  0  3  0  0  0  0  0  0
  190.8150  176.9290  146.0260 C   0  0  0  0  0  3  0  0  0  0  0  0
  190.1730  176.2010  142.7730 N   0  0  0  0  0  2  0  0  0  0  0  0
  192.3940  173.8200  144.2890 C   0  0  0  0  0  3  0  0  0  0  0  0
  194.4540  175.0780  143.6400 C   0  0  0  0  0  0  0  0  0  0  0  0
  195.8300  174.9060  143.6530 O   0  0  0  0  0  1  0  0  0  0  0  0
  191.4840  175.6410  142.8880 C   0  0  0  0  0  0  0  0  0  0  0  0
  193.6480  174.2070  144.5210 C   0  0  0  0  0  3  0  0  0  0  0  0
  193.9520  176.0680  142.8900 C   0  0  0  0  0  3  0  0  0  0  0  0
  192.5320  176.4550  142.7560 C   0  0  0  0  0  3  0  0  0  0  0  0
  191.6600  174.1620  143.0360 C   0  0  0  0  0  2  0  0  0  0  0  0
  1 19  1  6  0  0  0
  1 14  1  0  0  0  0
  2  1  1  1  0  0  0
  2  5  1  0  0  0  0
  3 10  1  0  0  0  0
  4  9  1  0  0  0  0
  6  8  1  0  0  0  0
  7  6  2  0  0  0  0
  7  9  1  0  0  0  0
  8 11  1  0  0  0  0
  8 10  2  0  0  0  0
  9  3  2  0  0  0  0
 10 12  1  0  0  0  0
 11  2  1  0  0  0  0
 12  5  1  0  0  0  0
 14 15  2  0  0  0  0
 14 18  1  0  0  0  0
 15 16  1  0  0  0  0
 16 13  2  0  0  0  0
 17 13  1  0  0  0  0
 18 17  2  0  0  0  0
 19 23  1  0  0  0  0
 20 24  2  0  0  0  0
 21 22  1  0  0  0  0
 21 24  1  0  0  0  0
 23 27  1  0  0  0  0
 25 21  2  0  0  0  0
 26 23  2  0  0  0  0
 26 25  1  0  0  0  0
 27 20  1  0  0  0  0
M  END
>  <MODEL>
5

>  <REMARK>
 VINA RESULT:      -7.3      2.033      7.913
  Name = 
  4 active torsions:
  status: ('A' for Active; 'I' for Inactive)
    1  A    between atoms: N_1  and  C_15
    2  A    between atoms: N_1  and  C_18
    3  A    between atoms: C_2  and  C_15
    4  A    between atoms: C_9  and  C_15
                            x       y       z     vdW  Elec       q    Type
                         _______ _______ _______ _____ _____    ______ ____

>  <TORSDO>
F 4

$$$$
=
 OpenBabel11052418283D

 27 30  0  0  1  0  0  0  0  0999 V2000
  189.3470  175.5350  144.3490 C   0  0  1  0  0  3  0  0  0  0  0  0
  189.6080  174.7060  143.0820 C   0  0  1  0  0  3  0  0  0  0  0  0
  189.6710  172.1310  139.7330 C   0  0  0  0  0  3  0  0  0  0  0  0
  189.3300  171.7720  137.3710 O   0  0  0  0  0  1  0  0  0  0  0  0
  189.7470  173.2070  143.3640 C   0  0  0  0  0  2  0  0  0  0  0  0
  188.2320  174.5270  139.5680 C   0  0  0  0  0  3  0  0  0  0  0  0
  188.4190  173.7420  138.4260 C   0  0  0  0  0  3  0  0  0  0  0  0
  188.7700  174.1210  140.7930 C   0  0  0  0  0  0  0  0  0  0  0  0
  189.1410  172.5460  138.5070 C   0  0  0  0  0  0  0  0  0  0  0  0
  189.4780  172.9070  140.8790 C   0  0  0  0  0  0  0  0  0  0  0  0
  188.5350  174.9580  142.0170 C   0  0  0  0  0  2  0  0  0  0  0  0
  190.0430  172.4940  142.1260 N   0  0  0  0  0  2  0  0  0  0  0  0
  192.7860  175.9150  146.9100 C   0  0  0  0  0  3  0  0  0  0  0  0
  190.5410  175.6500  145.2540 C   0  0  0  0  0  0  0  0  0  0  0  0
  191.7010  176.2690  144.7750 C   0  0  0  0  0  3  0  0  0  0  0  0
  192.8220  176.4010  145.6000 C   0  0  0  0  0  3  0  0  0  0  0  0
  191.6300  175.2980  147.3950 C   0  0  0  0  0  3  0  0  0  0  0  0
  190.5100  175.1660  146.5710 C   0  0  0  0  0  3  0  0  0  0  0  0
  188.8200  176.8540  144.0140 N   0  0  0  0  0  2  0  0  0  0  0  0
  186.4150  176.7730  146.6800 C   0  0  0  0  0  3  0  0  0  0  0  0
  184.8420  178.3400  145.5330 C   0  0  0  0  0  0  0  0  0  0  0  0
  183.6770  179.0400  145.8100 O   0  0  0  0  0  1  0  0  0  0  0  0
  187.7020  177.4460  144.6800 C   0  0  0  0  0  0  0  0  0  0  0  0
  185.1830  177.2020  146.4130 C   0  0  0  0  0  3  0  0  0  0  0  0
  185.5420  178.6920  144.4460 C   0  0  0  0  0  3  0  0  0  0  0  0
  186.7820  178.0670  143.9410 C   0  0  0  0  0  3  0  0  0  0  0  0
  187.6390  177.4620  146.1760 C   0  0  0  0  0  2  0  0  0  0  0  0
  1 19  1  6  0  0  0
  1 14  1  0  0  0  0
  2  5  1  0  0  0  0
  2  1  1  1  0  0  0
  3 10  1  0  0  0  0
  4  9  1  0  0  0  0
  6  8  1  0  0  0  0
  7  9  1  0  0  0  0
  7  6  2  0  0  0  0
  8 10  2  0  0  0  0
  8 11  1  0  0  0  0
  9  3  2  0  0  0  0
 10 12  1  0  0  0  0
 11  2  1  0  0  0  0
 12  5  1  0  0  0  0
 13 17  1  0  0  0  0
 14 18  1  0  0  0  0
 15 14  2  0  0  0  0
 15 16  1  0  0  0  0
 16 13  2  0  0  0  0
 18 17  2  0  0  0  0
 19 23  1  0  0  0  0
 21 22  1  0  0  0  0
 21 24  1  0  0  0  0
 23 27  1  0  0  0  0
 24 20  2  0  0  0  0
 25 21  2  0  0  0  0
 26 25  1  0  0  0  0
 26 23  2  0  0  0  0
 27 20  1  0  0  0  0
M  END
>  <MODEL>
6

>  <REMARK>
 VINA RESULT:      -7.3      3.703      5.830
  Name = 
  4 active torsions:
  status: ('A' for Active; 'I' for Inactive)
    1  A    between atoms: N_1  and  C_15
    2  A    between atoms: N_1  and  C_18
    3  A    between atoms: C_2  and  C_15
    4  A    between atoms: C_9  and  C_15
                            x       y       z     vdW  Elec       q    Type
                         _______ _______ _______ _____ _____    ______ ____

>  <TORSDO>
F 4

$$$$
=
 OpenBabel11052418283D

 27 30  0  0  1  0  0  0  0  0999 V2000
  188.9910  175.2710  144.2690 C   0  0  1  0  0  3  0  0  0  0  0  0
  189.4510  174.3900  143.0980 C   0  0  1  0  0  3  0  0  0  0  0  0
  190.0670  171.6460  139.9440 C   0  0  0  0  0  3  0  0  0  0  0  0
  190.0520  171.1440  137.5840 O   0  0  0  0  0  1  0  0  0  0  0  0
  189.6210  172.9180  143.4840 C   0  0  0  0  0  2  0  0  0  0  0  0
  188.5530  173.9510  139.4540 C   0  0  0  0  0  3  0  0  0  0  0  0
  188.9230  173.1160  138.3940 C   0  0  0  0  0  3  0  0  0  0  0  0
  188.9460  173.6400  140.7600 C   0  0  0  0  0  0  0  0  0  0  0  0
  189.6820  171.9670  138.6380 C   0  0  0  0  0  0  0  0  0  0  0  0
  189.6920  172.4720  141.0070 C   0  0  0  0  0  0  0  0  0  0  0  0
  188.5150  174.5270  141.8920 C   0  0  0  0  0  2  0  0  0  0  0  0
  190.1080  172.1560  142.3390 N   0  0  0  0  0  2  0  0  0  0  0  0
  192.0190  175.8900  147.2660 C   0  0  0  0  0  3  0  0  0  0  0  0
  190.0400  175.4700  145.3260 C   0  0  0  0  0  0  0  0  0  0  0  0
  191.2540  176.0720  144.9760 C   0  0  0  0  0  3  0  0  0  0  0  0
  192.2410  176.2810  145.9420 C   0  0  0  0  0  3  0  0  0  0  0  0
  190.8080  175.2900  147.6230 C   0  0  0  0  0  3  0  0  0  0  0  0
  189.8200  175.0800  146.6570 C   0  0  0  0  0  3  0  0  0  0  0  0
  188.4830  176.5540  143.7930 N   0  0  0  0  0  2  0  0  0  0  0  0
  186.0220  179.1570  143.5380 C   0  0  0  0  0  3  0  0  0  0  0  0
  184.7720  178.4040  145.5660 C   0  0  0  0  0  0  0  0  0  0  0  0
  183.5840  178.6840  146.2260 O   0  0  0  0  0  1  0  0  0  0  0  0
  187.1900  177.0620  144.1320 C   0  0  0  0  0  0  0  0  0  0  0  0
  185.2810  179.4140  144.6150 C   0  0  0  0  0  3  0  0  0  0  0  0
  185.4160  177.2740  145.8880 C   0  0  0  0  0  3  0  0  0  0  0  0
  186.7050  176.7950  145.3460 C   0  0  0  0  0  3  0  0  0  0  0  0
  186.3660  177.7720  143.1030 C   0  0  0  0  0  2  0  0  0  0  0  0
  1 19  1  6  0  0  0
  1 14  1  0  0  0  0
  2  5  1  0  0  0  0
  2  1  1  1  0  0  0
  3 10  1  0  0  0  0
  4  9  1  0  0  0  0
  6  8  1  0  0  0  0
  7  9  1  0  0  0  0
  7  6  2  0  0  0  0
  8 10  2  0  0  0  0
  8 11  1  0  0  0  0
  9  3  2  0  0  0  0
 10 12  1  0  0  0  0
 11  2  1  0  0  0  0
 12  5  1  0  0  0  0
 13 17  1  0  0  0  0
 14 18  1  0  0  0  0
 15 14  2  0  0  0  0
 15 16  1  0  0  0  0
 16 13  2  0  0  0  0
 18 17  2  0  0  0  0
 19 23  1  0  0  0  0
 20 24  2  0  0  0  0
 21 25  2  0  0  0  0
 21 22  1  0  0  0  0
 23 26  2  0  0  0  0
 24 21  1  0  0  0  0
 26 25  1  0  0  0  0
 27 20  1  0  0  0  0
 27 23  1  0  0  0  0
M  END
>  <MODEL>
7

>  <REMARK>
 VINA RESULT:      -7.2      3.972      5.614
  Name = 
  4 active torsions:
  status: ('A' for Active; 'I' for Inactive)
    1  A    between atoms: N_1  and  C_15
    2  A    between atoms: N_1  and  C_18
    3  A    between atoms: C_2  and  C_15
    4  A    between atoms: C_9  and  C_15
                            x       y       z     vdW  Elec       q    Type
                         _______ _______ _______ _____ _____    ______ ____

>  <TORSDO>
F 4

$$$$
=
 OpenBabel11052418283D

 27 30  0  0  1  0  0  0  0  0999 V2000
  188.0880  176.7840  144.5760 C   0  0  1  0  0  3  0  0  0  0  0  0
  187.5180  176.7740  143.1490 C   0  0  1  0  0  3  0  0  0  0  0  0
  186.5900  177.0460  139.0360 C   0  0  0  0  0  3  0  0  0  0  0  0
  186.4420  176.0160  136.8590 O   0  0  0  0  0  1  0  0  0  0  0  0
  187.3040  178.1800  142.5790 C   0  0  0  0  0  2  0  0  0  0  0  0
  188.1770  174.9170  139.9250 C   0  0  0  0  0  3  0  0  0  0  0  0
  187.7060  174.9390  138.6080 C   0  0  0  0  0  3  0  0  0  0  0  0
  187.8490  175.9550  140.8030 C   0  0  0  0  0  0  0  0  0  0  0  0
  186.9110  176.0000  138.1650 C   0  0  0  0  0  0  0  0  0  0  0  0
  187.0660  177.0340  140.3500 C   0  0  0  0  0  0  0  0  0  0  0  0
  188.3860  175.9360  142.2050 C   0  0  0  0  0  2  0  0  0  0  0  0
  186.7150  178.0920  141.2460 N   0  0  0  0  0  2  0  0  0  0  0  0
  185.2490  177.9410  147.5980 C   0  0  0  0  0  3  0  0  0  0  0  0
  187.0850  177.1710  145.6260 C   0  0  0  0  0  0  0  0  0  0  0  0
  187.5100  177.9130  146.7330 C   0  0  0  0  0  3  0  0  0  0  0  0
  186.5950  178.2970  147.7170 C   0  0  0  0  0  3  0  0  0  0  0  0
  184.8170  177.2010  146.4930 C   0  0  0  0  0  3  0  0  0  0  0  0
  185.7320  176.8170  145.5090 C   0  0  0  0  0  3  0  0  0  0  0  0
  188.7130  175.5060  144.8990 N   0  0  0  0  0  2  0  0  0  0  0  0
  190.9070  176.1300  147.6740 C   0  0  0  0  0  3  0  0  0  0  0  0
  192.9830  175.8230  146.3160 C   0  0  0  0  0  0  0  0  0  0  0  0
  194.3540  175.7300  146.5090 O   0  0  0  0  0  1  0  0  0  0  0  0
  190.0100  175.3930  145.4920 C   0  0  0  0  0  0  0  0  0  0  0  0
  192.1780  176.4220  147.4020 C   0  0  0  0  0  3  0  0  0  0  0  0
  192.4890  175.4340  145.1330 C   0  0  0  0  0  3  0  0  0  0  0  0
  191.0770  175.4790  144.6970 C   0  0  0  0  0  3  0  0  0  0  0  0
  190.1470  175.0710  146.9480 C   0  0  0  0  0  2  0  0  0  0  0  0
  1 19  1  1  0  0  0
  1 14  1  0  0  0  0
  2  1  1  1  0  0  0
  3 10  1  0  0  0  0
  4  9  1  0  0  0  0
  5  2  1  0  0  0  0
  6  8  1  0  0  0  0
  7  6  2  0  0  0  0
  8 11  1  0  0  0  0
  9  7  1  0  0  0  0
  9  3  2  0  0  0  0
 10  8  2  0  0  0  0
 10 12  1  0  0  0  0
 11  2  1  0  0  0  0
 12  5  1  0  0  0  0
 13 16  1  0  0  0  0
 14 15  1  0  0  0  0
 15 16  2  0  0  0  0
 17 13  2  0  0  0  0
 18 14  2  0  0  0  0
 18 17  1  0  0  0  0
 19 23  1  0  0  0  0
 21 22  1  0  0  0  0
 21 24  1  0  0  0  0
 23 27  1  0  0  0  0
 24 20  2  0  0  0  0
 25 21  2  0  0  0  0
 26 25  1  0  0  0  0
 26 23  2  0  0  0  0
 27 20  1  0  0  0  0
M  END
>  <MODEL>
8

>  <REMARK>
 VINA RESULT:      -7.1      2.125      7.001
  Name = 
  4 active torsions:
  status: ('A' for Active; 'I' for Inactive)
    1  A    between atoms: N_1  and  C_15
    2  A    between atoms: N_1  and  C_18
    3  A    between atoms: C_2  and  C_15
    4  A    between atoms: C_9  and  C_15
                            x       y       z     vdW  Elec       q    Type
                         _______ _______ _______ _____ _____    ______ ____

>  <TORSDO>
F 4

$$$$
=
 OpenBabel11052418283D

 27 30  0  0  1  0  0  0  0  0999 V2000
  190.8230  175.9560  143.8640 C   0  0  1  0  0  3  0  0  0  0  0  0
  189.5620  176.7930  144.1270 C   0  0  1  0  0  3  0  0  0  0  0  0
  185.7370  178.5410  144.5360 C   0  0  0  0  0  3  0  0  0  0  0  0
  183.7920  179.0100  145.8840 O   0  0  0  0  0  1  0  0  0  0  0  0
  188.8730  177.2600  142.8410 C   0  0  0  0  0  2  0  0  0  0  0  0
  186.5400  176.5970  146.3850 C   0  0  0  0  0  3  0  0  0  0  0  0
  185.3600  177.3190  146.5940 C   0  0  0  0  0  3  0  0  0  0  0  0
  187.3260  176.8500  145.2570 C   0  0  0  0  0  0  0  0  0  0  0  0
  184.9610  178.2920  145.6720 C   0  0  0  0  0  0  0  0  0  0  0  0
  186.9120  177.8150  144.3180 C   0  0  0  0  0  0  0  0  0  0  0  0
  188.5730  176.0470  145.0280 C   0  0  0  0  0  2  0  0  0  0  0  0
  187.7180  178.0890  143.1690 N   0  0  0  0  0  2  0  0  0  0  0  0
  194.0470  176.7870  146.5930 C   0  0  0  0  0  3  0  0  0  0  0  0
  191.9580  176.2590  144.8020 C   0  0  0  0  0  0  0  0  0  0  0  0
  191.7370  176.1930  146.1820 C   0  0  0  0  0  3  0  0  0  0  0  0
  192.7780  176.4570  147.0760 C   0  0  0  0  0  3  0  0  0  0  0  0
  194.2760  176.8520  145.2160 C   0  0  0  0  0  3  0  0  0  0  0  0
  193.2350  176.5880  144.3220 C   0  0  0  0  0  3  0  0  0  0  0  0
  190.5150  174.5290  143.8650 N   0  0  0  0  0  2  0  0  0  0  0  0
  191.4850  173.6610  140.5170 C   0  0  0  0  0  3  0  0  0  0  0  0
  189.2330  172.7550  139.9210 C   0  0  0  0  0  0  0  0  0  0  0  0
  188.6270  172.0590  138.8850 O   0  0  0  0  0  1  0  0  0  0  0  0
  190.2800  173.7750  142.6720 C   0  0  0  0  0  0  0  0  0  0  0  0
  190.5140  173.4330  139.6330 C   0  0  0  0  0  3  0  0  0  0  0  0
  188.5840  172.8290  141.0910 C   0  0  0  0  0  3  0  0  0  0  0  0
  189.0180  173.5430  142.3100 C   0  0  0  0  0  3  0  0  0  0  0  0
  191.4290  173.1710  141.9250 C   0  0  0  0  0  2  0  0  0  0  0  0
  1 19  1  1  0  0  0
  1 14  1  0  0  0  0
  2  1  1  6  0  0  0
  2 11  1  0  0  0  0
  3  9  1  0  0  0  0
  5 12  1  0  0  0  0
  5  2  1  0  0  0  0
  6  7  1  0  0  0  0
  8  6  2  0  0  0  0
  9  4  1  0  0  0  0
  9  7  2  0  0  0  0
 10  3  2  0  0  0  0
 10  8  1  0  0  0  0
 11  8  1  0  0  0  0
 12 10  1  0  0  0  0
 13 16  1  0  0  0  0
 14 15  1  0  0  0  0
 15 16  2  0  0  0  0
 17 13  2  0  0  0  0
 18 14  2  0  0  0  0
 18 17  1  0  0  0  0
 20 27  1  0  0  0  0
 21 25  2  0  0  0  0
 22 21  1  0  0  0  0
 23 19  1  0  0  0  0
 24 21  1  0  0  0  0
 24 20  2  0  0  0  0
 25 26  1  0  0  0  0
 26 23  2  0  0  0  0
 27 23  1  0  0  0  0
M  END
>  <MODEL>
9

>  <REMARK>
 VINA RESULT:      -7.1      3.300      7.104
  Name = 
  4 active torsions:
  status: ('A' for Active; 'I' for Inactive)
    1  A    between atoms: N_1  and  C_15
    2  A    between atoms: N_1  and  C_18
    3  A    between atoms: C_2  and  C_15
    4  A    between atoms: C_9  and  C_15
                            x       y       z     vdW  Elec       q    Type
                         _______ _______ _______ _____ _____    ______ ____

>  <TORSDO>
F 4

$$$$
