=
 OpenBabel11052421153D

 43 48  0  0  1  0  0  0  0  0999 V2000
  188.5850  176.0550  145.9900 C   0  0  0  0  0  0  0  0  0  0  0  0
  189.9820  173.2660  141.9540 C   0  0  0  0  0  0  0  0  0  0  0  0
  191.1150  172.1070  143.8740 C   0  0  0  0  0  3  0  0  0  0  0  0
  188.9880  175.2280  143.7200 C   0  0  0  0  0  0  0  0  0  0  0  0
  189.2180  175.0260  146.5520 C   0  0  0  0  0  3  0  0  0  0  0  0
  187.9630  177.0960  146.8500 C   0  0  0  0  0  1  0  0  0  0  0  0
  189.6600  174.0960  144.2390 C   0  0  0  0  0  0  0  0  0  0  0  0
  188.4830  176.1640  144.5270 C   0  0  0  0  0  3  0  0  0  0  0  0
  189.8800  173.9500  145.7330 C   0  0  0  0  0  3  0  0  0  0  0  0
  191.5180  171.0580  143.1550 C   0  0  0  0  0  0  0  0  0  0  0  0
  190.1740  173.1220  143.3540 C   0  0  0  0  0  0  0  0  0  0  0  0
  189.3510  174.4250  141.4710 C   0  0  0  0  0  3  0  0  0  0  0  0
  190.4210  172.3270  141.0890 C   0  0  1  0  0  3  0  0  0  0  0  0
  190.6810  170.6330  141.6330 S   0  0  0  0  0  0  0  0  0  0  0  0
  188.8570  175.3900  142.3430 C   0  0  0  0  0  3  0  0  0  0  0  0
  192.5910  170.1460  143.6650 C   0  0  1  0  0  3  0  0  0  0  0  0
  192.3690  168.8470  143.2060 O   0  0  0  0  0  1  0  0  0  0  0  0
  193.9820  170.6070  143.2440 C   0  0  0  0  0  2  0  0  0  0  0  0
  195.8200  170.1780  145.1650 O   0  0  0  0  0  0  0  0  0  0  0  0
  194.9060  171.2460  144.6330 S   0  0  0  0  0  0  0  0  0  0  0  0
  193.9340  171.6560  145.7040 O   0  0  0  0  0  0  0  0  0  0  0  0
  195.8500  172.6250  144.1390 N   0  0  0  0  0  0  0  0  0  0  0  0
  195.4130  173.4540  143.0460 C   0  0  0  0  0  0  0  0  0  0  0  0
  196.2460  174.1530  142.4090 O   0  0  0  0  0  0  0  0  0  0  0  0
  197.3680  174.2900  145.0950 C   0  0  0  0  0  2  0  0  0  0  0  0
  197.1790  172.8280  144.7210 C   0  0  0  0  0  3  0  0  0  0  0  0
  197.0580  173.2770  146.1700 C   0  0  0  0  0  2  0  0  0  0  0  0
  193.9650  173.5550  142.6860 C   0  0  0  0  0  2  0  0  0  0  0  0
  193.3690  174.7850  143.2810 C   0  0  0  0  0  0  0  0  0  0  0  0
  192.7830  176.1040  145.2290 C   0  0  0  0  0  3  0  0  0  0  0  0
  192.1850  176.8850  143.0150 C   0  0  0  0  0  3  0  0  0  0  0  0
  192.1910  177.0650  144.4020 C   0  0  0  0  0  3  0  0  0  0  0  0
  192.7720  175.7450  142.4560 C   0  0  0  0  0  3  0  0  0  0  0  0
  193.3710  174.9650  144.6690 C   0  0  0  0  0  3  0  0  0  0  0  0
  190.4820  172.5710  139.6100 C   0  0  0  0  0  2  0  0  0  0  0  0
  194.0850  173.2390  139.0070 C   0  0  0  0  0  2  0  0  0  0  0  0
  193.9650  173.8230  137.6010 C   0  0  1  0  0  3  0  0  0  0  0  0
  191.4900  173.8120  137.9030 C   0  0  0  0  0  2  0  0  0  0  0  0
  192.8110  172.4700  139.3490 C   0  0  0  0  0  2  0  0  0  0  0  0
  191.6560  173.3650  139.2860 N   0  0  0  0  0  0  0  0  0  0  0  0
  192.6900  174.6570  137.4810 C   0  0  0  0  0  2  0  0  0  0  0  0
  195.7530  174.9460  138.5930 C   0  0  0  0  0  1  0  0  0  0  0  0
  195.1190  174.6560  137.3180 N   0  0  0  0  0  2  0  0  0  0  0  0
  1  5  1  0  0  0  0
  1  6  1  0  0  0  0
  2 11  1  0  0  0  0
  4  7  1  0  0  0  0
  4  8  1  0  0  0  0
  7  9  1  0  0  0  0
  8  1  2  0  0  0  0
  9  5  2  0  0  0  0
 10 16  1  0  0  0  0
 10  3  2  0  0  0  0
 11  3  1  0  0  0  0
 11  7  2  0  0  0  0
 12  2  2  0  0  0  0
 12 15  1  0  0  0  0
 13 35  1  6  0  0  0
 13 14  1  0  0  0  0
 13  2  1  0  0  0  0
 14 10  1  0  0  0  0
 15  4  2  0  0  0  0
 16 17  1  6  0  0  0
 18 16  1  0  0  0  0
 18 20  1  0  0  0  0
 20 19  2  0  0  0  0
 20 21  2  0  0  0  0
 22 20  1  0  0  0  0
 22 26  1  0  0  0  0
 23 22  1  0  0  0  0
 24 23  2  0  0  0  0
 25 27  1  0  0  0  0
 26 25  1  0  0  0  0
 26 27  1  0  0  0  0
 28 23  1  0  0  0  0
 28 29  1  0  0  0  0
 29 34  1  0  0  0  0
 31 32  2  0  0  0  0
 32 30  1  0  0  0  0
 33 31  1  0  0  0  0
 33 29  2  0  0  0  0
 34 30  2  0  0  0  0
 36 39  1  0  0  0  0
 37 43  1  1  0  0  0
 37 36  1  0  0  0  0
 38 40  1  0  0  0  0
 40 39  1  0  0  0  0
 40 35  1  0  0  0  0
 41 37  1  0  0  0  0
 41 38  1  0  0  0  0
 43 42  1  0  0  0  0
M  END
>  <MODEL>
1

>  <REMARK>
 VINA RESULT:      -6.2      0.000      0.000
  Name = 
  10 active torsions:
  status: ('A' for Active; 'I' for Inactive)
    1  A    between atoms: C_1  and  C_34
    2  A    between atoms: C_1  and  N_35
    3  A    between atoms: C_2  and  C_6
    4  A    between atoms: C_2  and  C_27
    5  A    between atoms: N_4  and  S_12
    6  A    between atoms: N_4  and  C_15
    7  A    between atoms: C_6  and  S_12
    8  A    between atoms: C_11  and  C_14
    9  A    between atoms: C_14  and  C_22
   10  A    between atoms: C_19  and  N_37
                            x       y       z     vdW  Elec       q    Type
                         _______ _______ _______ _____ _____    ______ ____

>  <TORSDO>
F 10

$$$$
=
 OpenBabel11052421153D

 43 48  0  0  1  0  0  0  0  0999 V2000
  188.1620  176.2830  146.3390 C   0  0  0  0  0  0  0  0  0  0  0  0
  189.9740  173.6640  142.3540 C   0  0  0  0  0  0  0  0  0  0  0  0
  190.9170  172.4310  144.3300 C   0  0  0  0  0  3  0  0  0  0  0  0
  188.7960  175.5500  144.0890 C   0  0  0  0  0  0  0  0  0  0  0  0
  188.7420  175.2330  146.9190 C   0  0  0  0  0  3  0  0  0  0  0  0
  187.4500  177.2860  147.1740 C   0  0  0  0  0  1  0  0  0  0  0  0
  189.4190  174.3990  144.6270 C   0  0  0  0  0  0  0  0  0  0  0  0
  188.2060  176.4500  144.8790 C   0  0  0  0  0  3  0  0  0  0  0  0
  189.4890  174.1930  146.1280 C   0  0  0  0  0  3  0  0  0  0  0  0
  191.3960  171.4120  143.6130 C   0  0  0  0  0  0  0  0  0  0  0  0
  190.0260  173.4640  143.7590 C   0  0  0  0  0  0  0  0  0  0  0  0
  189.3880  174.8400  141.8580 C   0  0  0  0  0  3  0  0  0  0  0  0
  190.5040  172.7620  141.5010 C   0  0  1  0  0  3  0  0  0  0  0  0
  190.7180  171.0480  141.9990 S   0  0  0  0  0  0  0  0  0  0  0  0
  188.8020  175.7680  142.7130 C   0  0  0  0  0  3  0  0  0  0  0  0
  192.4190  170.4830  144.1910 C   0  0  1  0  0  3  0  0  0  0  0  0
  192.8350  169.5710  143.2200 O   0  0  0  0  0  1  0  0  0  0  0  0
  193.6270  171.2310  144.7420 C   0  0  0  0  0  2  0  0  0  0  0  0
  194.1950  171.6480  142.1420 O   0  0  0  0  0  0  0  0  0  0  0  0
  194.8640  171.4940  143.4790 S   0  0  0  0  0  0  0  0  0  0  0  0
  195.7770  170.2990  143.4500 O   0  0  0  0  0  0  0  0  0  0  0  0
  195.7870  172.9280  143.8360 N   0  0  0  0  0  0  0  0  0  0  0  0
  195.3510  174.2130  143.3550 C   0  0  0  0  0  0  0  0  0  0  0  0
  196.1810  175.1530  143.2200 O   0  0  0  0  0  0  0  0  0  0  0  0
  197.2060  173.7320  145.6610 C   0  0  0  0  0  2  0  0  0  0  0  0
  197.1020  172.7940  144.4680 C   0  0  0  0  0  3  0  0  0  0  0  0
  196.9530  172.2610  145.8860 C   0  0  0  0  0  2  0  0  0  0  0  0
  193.9080  174.4820  143.0700 C   0  0  0  0  0  2  0  0  0  0  0  0
  193.2910  175.2380  144.1970 C   0  0  0  0  0  0  0  0  0  0  0  0
  192.8600  175.4920  146.5690 C   0  0  0  0  0  3  0  0  0  0  0  0
  191.8990  177.0570  144.9910 C   0  0  0  0  0  3  0  0  0  0  0  0
  192.0770  176.6210  146.3070 C   0  0  0  0  0  3  0  0  0  0  0  0
  192.5030  176.3650  143.9370 C   0  0  0  0  0  3  0  0  0  0  0  0
  193.4660  174.8000  145.5160 C   0  0  0  0  0  3  0  0  0  0  0  0
  190.7110  173.0660  140.0460 C   0  0  0  0  0  2  0  0  0  0  0  0
  189.7930  170.4270  137.6010 C   0  0  0  0  0  2  0  0  0  0  0  0
  191.0610  170.4700  136.7490 C   0  0  1  0  0  3  0  0  0  0  0  0
  192.0500  171.9940  138.4560 C   0  0  0  0  0  2  0  0  0  0  0  0
  189.6930  171.7060  138.4300 C   0  0  0  0  0  2  0  0  0  0  0  0
  190.8650  171.8300  139.2970 N   0  0  0  0  0  0  0  0  0  0  0  0
  192.2810  170.7300  137.6300 C   0  0  0  0  0  2  0  0  0  0  0  0
  191.2590  168.1670  137.0670 C   0  0  0  0  0  1  0  0  0  0  0  0
  191.2240  169.2070  136.0530 N   0  0  0  0  0  2  0  0  0  0  0  0
  1  5  1  0  0  0  0
  1  6  1  0  0  0  0
  2 11  1  0  0  0  0
  4  7  1  0  0  0  0
  4  8  1  0  0  0  0
  7  9  1  0  0  0  0
  8  1  2  0  0  0  0
  9  5  2  0  0  0  0
 10 16  1  0  0  0  0
 10  3  2  0  0  0  0
 11  3  1  0  0  0  0
 11  7  2  0  0  0  0
 12  2  2  0  0  0  0
 12 15  1  0  0  0  0
 13 35  1  6  0  0  0
 13 14  1  0  0  0  0
 13  2  1  0  0  0  0
 14 10  1  0  0  0  0
 15  4  2  0  0  0  0
 16 17  1  6  0  0  0
 16 18  1  0  0  0  0
 19 20  2  0  0  0  0
 20 22  1  0  0  0  0
 20 18  1  0  0  0  0
 21 20  2  0  0  0  0
 22 26  1  0  0  0  0
 23 22  1  0  0  0  0
 24 23  2  0  0  0  0
 25 27  1  0  0  0  0
 26 25  1  0  0  0  0
 26 27  1  0  0  0  0
 28 23  1  0  0  0  0
 28 29  1  0  0  0  0
 29 34  1  0  0  0  0
 31 32  2  0  0  0  0
 32 30  1  0  0  0  0
 33 29  2  0  0  0  0
 33 31  1  0  0  0  0
 34 30  2  0  0  0  0
 36 39  1  0  0  0  0
 37 43  1  1  0  0  0
 37 36  1  0  0  0  0
 37 41  1  0  0  0  0
 38 40  1  0  0  0  0
 39 40  1  0  0  0  0
 40 35  1  0  0  0  0
 41 38  1  0  0  0  0
 43 42  1  0  0  0  0
M  END
>  <MODEL>
2

>  <REMARK>
 VINA RESULT:      -6.2      1.704      2.422
  Name = 
  10 active torsions:
  status: ('A' for Active; 'I' for Inactive)
    1  A    between atoms: C_1  and  C_34
    2  A    between atoms: C_1  and  N_35
    3  A    between atoms: C_2  and  C_6
    4  A    between atoms: C_2  and  C_27
    5  A    between atoms: N_4  and  S_12
    6  A    between atoms: N_4  and  C_15
    7  A    between atoms: C_6  and  S_12
    8  A    between atoms: C_11  and  C_14
    9  A    between atoms: C_14  and  C_22
   10  A    between atoms: C_19  and  N_37
                            x       y       z     vdW  Elec       q    Type
                         _______ _______ _______ _____ _____    ______ ____

>  <TORSDO>
F 10

$$$$
=
 OpenBabel11052421153D

 43 48  0  0  1  0  0  0  0  0999 V2000
  189.1710  177.1430  145.5740 C   0  0  0  0  0  0  0  0  0  0  0  0
  194.0010  175.5820  145.0740 C   0  0  0  0  0  0  0  0  0  0  0  0
  193.3730  176.2640  142.7390 C   0  0  0  0  0  3  0  0  0  0  0  0
  191.3880  176.1720  145.9540 C   0  0  0  0  0  0  0  0  0  0  0  0
  189.4540  177.4680  144.3130 C   0  0  0  0  0  3  0  0  0  0  0  0
  187.8420  177.4880  146.1440 C   0  0  0  0  0  1  0  0  0  0  0  0
  191.7710  176.5010  144.6320 C   0  0  0  0  0  0  0  0  0  0  0  0
  190.1670  176.4590  146.4120 C   0  0  0  0  0  3  0  0  0  0  0  0
  190.7760  177.1330  143.6770 C   0  0  0  0  0  3  0  0  0  0  0  0
  194.6080  176.1510  142.2480 C   0  0  0  0  0  0  0  0  0  0  0  0
  193.0740  176.1880  144.1850 C   0  0  0  0  0  0  0  0  0  0  0  0
  193.5730  175.2290  146.3640 C   0  0  0  0  0  3  0  0  0  0  0  0
  195.2670  175.3170  144.6880 C   0  0  1  0  0  3  0  0  0  0  0  0
  196.0230  176.2350  143.3380 S   0  0  0  0  0  0  0  0  0  0  0  0
  192.2850  175.5240  146.8000 C   0  0  0  0  0  3  0  0  0  0  0  0
  194.8420  176.0750  140.7700 C   0  0  1  0  0  3  0  0  0  0  0  0
  196.2020  175.9000  140.5130 O   0  0  0  0  0  1  0  0  0  0  0  0
  194.0490  174.9460  140.1220 C   0  0  0  0  0  2  0  0  0  0  0  0
  195.8900  173.4080  141.3450 O   0  0  0  0  0  0  0  0  0  0  0  0
  194.9460  173.4020  140.1750 S   0  0  0  0  0  0  0  0  0  0  0  0
  195.7280  173.2610  138.8980 O   0  0  0  0  0  0  0  0  0  0  0  0
  193.8340  172.0700  140.3320 N   0  0  0  0  0  0  0  0  0  0  0  0
  193.4260  171.6110  141.6330 C   0  0  0  0  0  0  0  0  0  0  0  0
  193.0000  170.4340  141.7850 O   0  0  0  0  0  0  0  0  0  0  0  0
  191.9570  171.1010  139.0960 C   0  0  0  0  0  2  0  0  0  0  0  0
  193.4640  171.3030  139.1390 C   0  0  0  0  0  3  0  0  0  0  0  0
  192.5960  172.1490  138.2180 C   0  0  0  0  0  2  0  0  0  0  0  0
  193.4330  172.5300  142.8130 C   0  0  0  0  0  2  0  0  0  0  0  0
  192.0410  172.9240  143.1700 C   0  0  0  0  0  0  0  0  0  0  0  0
  190.2370  173.0290  144.7870 C   0  0  0  0  0  3  0  0  0  0  0  0
  189.8870  173.8350  142.5300 C   0  0  0  0  0  3  0  0  0  0  0  0
  189.4030  173.6030  143.8210 C   0  0  0  0  0  3  0  0  0  0  0  0
  191.2030  173.4940  142.2050 C   0  0  0  0  0  3  0  0  0  0  0  0
  191.5540  172.6880  144.4620 C   0  0  0  0  0  3  0  0  0  0  0  0
  196.1800  174.4400  145.4930 C   0  0  0  0  0  2  0  0  0  0  0  0
  197.9410  171.4690  144.1280 C   0  0  0  0  0  2  0  0  0  0  0  0
  197.2370  170.3990  144.9590 C   0  0  1  0  0  3  0  0  0  0  0  0
  195.6780  172.1710  145.7610 C   0  0  0  0  0  2  0  0  0  0  0  0
  197.7340  172.8360  144.7760 C   0  0  0  0  0  2  0  0  0  0  0  0
  196.3050  173.1380  144.8600 N   0  0  0  0  0  0  0  0  0  0  0  0
  195.7700  170.7680  145.1650 C   0  0  0  0  0  2  0  0  0  0  0  0
  196.1910  169.0370  143.3790 C   0  0  0  0  0  1  0  0  0  0  0  0
  197.3260  169.1170  144.2830 N   0  0  0  0  0  2  0  0  0  0  0  0
  1  6  1  0  0  0  0
  1  8  1  0  0  0  0
  2 12  1  0  0  0  0
  3 11  1  0  0  0  0
  4  8  2  0  0  0  0
  4 15  1  0  0  0  0
  5  1  2  0  0  0  0
  7  4  1  0  0  0  0
  9  5  1  0  0  0  0
  9  7  2  0  0  0  0
 10  3  2  0  0  0  0
 10 14  1  0  0  0  0
 11  7  1  0  0  0  0
 11  2  2  0  0  0  0
 12 15  2  0  0  0  0
 13  2  1  0  0  0  0
 13 35  1  1  0  0  0
 14 13  1  0  0  0  0
 16 17  1  1  0  0  0
 16 10  1  0  0  0  0
 18 20  1  0  0  0  0
 18 16  1  0  0  0  0
 20 22  1  0  0  0  0
 20 19  2  0  0  0  0
 21 20  2  0  0  0  0
 22 23  1  0  0  0  0
 23 24  2  0  0  0  0
 23 28  1  0  0  0  0
 25 26  1  0  0  0  0
 26 22  1  0  0  0  0
 27 25  1  0  0  0  0
 27 26  1  0  0  0  0
 28 29  1  0  0  0  0
 29 34  1  0  0  0  0
 31 32  2  0  0  0  0
 32 30  1  0  0  0  0
 33 31  1  0  0  0  0
 33 29  2  0  0  0  0
 34 30  2  0  0  0  0
 36 39  1  0  0  0  0
 36 37  1  0  0  0  0
 37 43  1  6  0  0  0
 37 41  1  0  0  0  0
 39 40  1  0  0  0  0
 40 35  1  0  0  0  0
 40 38  1  0  0  0  0
 41 38  1  0  0  0  0
 42 43  1  0  0  0  0
M  END
>  <MODEL>
3

>  <REMARK>
 VINA RESULT:      -6.1      2.214      5.983
  Name = 
  10 active torsions:
  status: ('A' for Active; 'I' for Inactive)
    1  A    between atoms: C_1  and  C_34
    2  A    between atoms: C_1  and  N_35
    3  A    between atoms: C_2  and  C_6
    4  A    between atoms: C_2  and  C_27
    5  A    between atoms: N_4  and  S_12
    6  A    between atoms: N_4  and  C_15
    7  A    between atoms: C_6  and  S_12
    8  A    between atoms: C_11  and  C_14
    9  A    between atoms: C_14  and  C_22
   10  A    between atoms: C_19  and  N_37
                            x       y       z     vdW  Elec       q    Type
                         _______ _______ _______ _____ _____    ______ ____

>  <TORSDO>
F 10

$$$$
=
 OpenBabel11052421153D

 43 48  0  0  1  0  0  0  0  0999 V2000
  195.8160  173.8400  145.7490 C   0  0  0  0  0  0  0  0  0  0  0  0
  191.3850  175.6840  144.0200 C   0  0  0  0  0  0  0  0  0  0  0  0
  191.1430  173.2040  143.6940 C   0  0  0  0  0  3  0  0  0  0  0  0
  194.0110  175.3060  144.9740 C   0  0  0  0  0  0  0  0  0  0  0  0
  195.1090  172.7350  145.5210 C   0  0  0  0  0  3  0  0  0  0  0  0
  197.1820  173.7360  146.3260 C   0  0  0  0  0  1  0  0  0  0  0  0
  193.1910  174.1810  144.7220 C   0  0  0  0  0  0  0  0  0  0  0  0
  195.2510  175.1650  145.4500 C   0  0  0  0  0  3  0  0  0  0  0  0
  193.7270  172.7760  144.9260 C   0  0  0  0  0  3  0  0  0  0  0  0
  189.8520  173.2560  143.3630 C   0  0  0  0  0  0  0  0  0  0  0  0
  191.8810  174.3690  144.2260 C   0  0  0  0  0  0  0  0  0  0  0  0
  192.2420  176.7750  144.2370 C   0  0  0  0  0  3  0  0  0  0  0  0
  190.1210  175.8930  143.5930 C   0  0  1  0  0  3  0  0  0  0  0  0
  188.8480  174.6510  143.8580 S   0  0  0  0  0  0  0  0  0  0  0  0
  193.5360  176.5890  144.7130 C   0  0  0  0  0  3  0  0  0  0  0  0
  189.1880  172.0990  142.6800 C   0  0  1  0  0  3  0  0  0  0  0  0
  187.9770  172.5070  142.1210 O   0  0  0  0  0  1  0  0  0  0  0  0
  190.0710  171.4880  141.5990 C   0  0  0  0  0  2  0  0  0  0  0  0
  190.2060  173.9380  140.4890 O   0  0  0  0  0  0  0  0  0  0  0  0
  190.0760  172.4870  140.1180 S   0  0  0  0  0  0  0  0  0  0  0  0
  188.7780  172.2680  139.3910 O   0  0  0  0  0  0  0  0  0  0  0  0
  191.4070  172.0280  139.0910 N   0  0  0  0  0  0  0  0  0  0  0  0
  192.7650  172.2470  139.5170 C   0  0  0  0  0  0  0  0  0  0  0  0
  193.6890  172.3350  138.6650 O   0  0  0  0  0  0  0  0  0  0  0  0
  191.9540  170.3500  137.3950 C   0  0  0  0  0  2  0  0  0  0  0  0
  191.1350  171.5900  137.7200 C   0  0  0  0  0  3  0  0  0  0  0  0
  190.4870  170.2130  137.7250 C   0  0  0  0  0  2  0  0  0  0  0  0
  193.1180  172.3070  140.9690 C   0  0  0  0  0  2  0  0  0  0  0  0
  193.9950  173.4820  141.2390 C   0  0  0  0  0  0  0  0  0  0  0  0
  194.3610  175.8790  141.2210 C   0  0  0  0  0  3  0  0  0  0  0  0
  196.1380  174.3890  141.9200 C   0  0  0  0  0  3  0  0  0  0  0  0
  195.6670  175.6840  141.6830 C   0  0  0  0  0  3  0  0  0  0  0  0
  195.3040  173.2890  141.6960 C   0  0  0  0  0  3  0  0  0  0  0  0
  193.5260  174.7790  140.9980 C   0  0  0  0  0  3  0  0  0  0  0  0
  189.6560  177.2340  143.1060 C   0  0  0  0  0  2  0  0  0  0  0  0
  186.5140  178.1680  144.8500 C   0  0  0  0  0  2  0  0  0  0  0  0
  185.9030  179.0340  143.7490 C   0  0  1  0  0  3  0  0  0  0  0  0
  187.7380  178.2630  142.2480 C   0  0  0  0  0  2  0  0  0  0  0  0
  188.0090  177.9950  144.5920 C   0  0  0  0  0  2  0  0  0  0  0  0
  188.2190  177.3580  143.2920 N   0  0  0  0  0  0  0  0  0  0  0  0
  186.2280  178.4500  142.3760 C   0  0  0  0  0  2  0  0  0  0  0  0
  184.1960  178.8700  145.3320 C   0  0  0  0  0  1  0  0  0  0  0  0
  184.4630  179.1000  143.9230 N   0  0  0  0  0  2  0  0  0  0  0  0
  1  6  1  0  0  0  0
  2 11  2  0  0  0  0
  2 12  1  0  0  0  0
  3 11  1  0  0  0  0
  4  8  1  0  0  0  0
  5  1  1  0  0  0  0
  7  9  1  0  0  0  0
  7  4  2  0  0  0  0
  8  1  2  0  0  0  0
  9  5  2  0  0  0  0
 10  3  2  0  0  0  0
 10 14  1  0  0  0  0
 11  7  1  0  0  0  0
 12 15  2  0  0  0  0
 13 35  1  1  0  0  0
 13 14  1  0  0  0  0
 13  2  1  0  0  0  0
 15  4  1  0  0  0  0
 16 17  1  6  0  0  0
 16 10  1  0  0  0  0
 18 16  1  0  0  0  0
 20 19  2  0  0  0  0
 20 18  1  0  0  0  0
 21 20  2  0  0  0  0
 22 23  1  0  0  0  0
 22 20  1  0  0  0  0
 23 28  1  0  0  0  0
 24 23  2  0  0  0  0
 25 26  1  0  0  0  0
 25 27  1  0  0  0  0
 26 27  1  0  0  0  0
 26 22  1  0  0  0  0
 28 29  1  0  0  0  0
 29 33  1  0  0  0  0
 30 32  2  0  0  0  0
 32 31  1  0  0  0  0
 33 31  2  0  0  0  0
 34 30  1  0  0  0  0
 34 29  2  0  0  0  0
 35 40  1  0  0  0  0
 37 43  1  1  0  0  0
 37 36  1  0  0  0  0
 38 41  1  0  0  0  0
 38 40  1  0  0  0  0
 39 36  1  0  0  0  0
 40 39  1  0  0  0  0
 41 37  1  0  0  0  0
 43 42  1  0  0  0  0
M  END
>  <MODEL>
4

>  <REMARK>
 VINA RESULT:      -6.0      3.305      6.961
  Name = 
  10 active torsions:
  status: ('A' for Active; 'I' for Inactive)
    1  A    between atoms: C_1  and  C_34
    2  A    between atoms: C_1  and  N_35
    3  A    between atoms: C_2  and  C_6
    4  A    between atoms: C_2  and  C_27
    5  A    between atoms: N_4  and  S_12
    6  A    between atoms: N_4  and  C_15
    7  A    between atoms: C_6  and  S_12
    8  A    between atoms: C_11  and  C_14
    9  A    between atoms: C_14  and  C_22
   10  A    between atoms: C_19  and  N_37
                            x       y       z     vdW  Elec       q    Type
                         _______ _______ _______ _____ _____    ______ ____

>  <TORSDO>
F 10

$$$$
=
 OpenBabel11052421153D

 43 48  0  0  1  0  0  0  0  0999 V2000
  190.3840  172.1020  138.2000 C   0  0  0  0  0  0  0  0  0  0  0  0
  190.0210  174.3900  142.7440 C   0  0  0  0  0  0  0  0  0  0  0  0
  192.3980  174.8370  142.0640 C   0  0  0  0  0  3  0  0  0  0  0  0
  189.6320  172.8690  140.4020 C   0  0  0  0  0  0  0  0  0  0  0  0
  191.5500  172.7380  138.3000 C   0  0  0  0  0  3  0  0  0  0  0  0
  190.0650  171.3390  136.9650 C   0  0  0  0  0  1  0  0  0  0  0  0
  190.8380  173.5870  140.5760 C   0  0  0  0  0  0  0  0  0  0  0  0
  189.4040  172.1590  139.2940 C   0  0  0  0  0  3  0  0  0  0  0  0
  191.9350  173.5140  139.5310 C   0  0  0  0  0  3  0  0  0  0  0  0
  192.6470  175.6850  143.0620 C   0  0  0  0  0  0  0  0  0  0  0  0
  191.0410  174.3340  141.7580 C   0  0  0  0  0  0  0  0  0  0  0  0
  188.8550  173.6280  142.5580 C   0  0  0  0  0  3  0  0  0  0  0  0
  190.1690  175.1350  143.8600 C   0  0  1  0  0  3  0  0  0  0  0  0
  191.3030  176.5310  143.8850 S   0  0  0  0  0  0  0  0  0  0  0  0
  188.6610  172.8820  141.4010 C   0  0  0  0  0  3  0  0  0  0  0  0
  194.0540  176.0410  143.4330 C   0  0  1  0  0  3  0  0  0  0  0  0
  194.0600  176.8010  144.6030 O   0  0  0  0  0  1  0  0  0  0  0  0
  194.9280  174.8060  143.6200 C   0  0  0  0  0  2  0  0  0  0  0  0
  193.3940  174.4470  145.8050 O   0  0  0  0  0  0  0  0  0  0  0  0
  194.7610  174.1320  145.2670 S   0  0  0  0  0  0  0  0  0  0  0  0
  195.8060  174.7610  146.1470 O   0  0  0  0  0  0  0  0  0  0  0  0
  194.9880  172.4040  145.2310 N   0  0  0  0  0  0  0  0  0  0  0  0
  193.8680  171.5270  145.0130 C   0  0  0  0  0  0  0  0  0  0  0  0
  193.9160  170.3300  145.4050 O   0  0  0  0  0  0  0  0  0  0  0  0
  196.7830  170.8980  144.5240 C   0  0  0  0  0  2  0  0  0  0  0  0
  196.2890  171.8460  145.6070 C   0  0  0  0  0  3  0  0  0  0  0  0
  197.3580  172.2900  144.6190 C   0  0  0  0  0  2  0  0  0  0  0  0
  192.6580  171.9910  144.2660 C   0  0  0  0  0  2  0  0  0  0  0  0
  192.5100  171.2250  142.9960 C   0  0  0  0  0  0  0  0  0  0  0  0
  193.3780  170.5550  140.8340 C   0  0  0  0  0  3  0  0  0  0  0  0
  191.1800  169.8190  141.5350 C   0  0  0  0  0  3  0  0  0  0  0  0
  192.2030  169.8400  140.5820 C   0  0  0  0  0  3  0  0  0  0  0  0
  191.3330  170.5130  142.7390 C   0  0  0  0  0  3  0  0  0  0  0  0
  193.5320  171.2470  142.0390 C   0  0  0  0  0  3  0  0  0  0  0  0
  189.2460  175.0040  145.0360 C   0  0  0  0  0  2  0  0  0  0  0  0
  186.7710  177.7260  144.5300 C   0  0  0  0  0  2  0  0  0  0  0  0
  186.1800  177.7460  145.9390 C   0  0  1  0  0  3  0  0  0  0  0  0
  187.9860  176.1710  146.6240 C   0  0  0  0  0  2  0  0  0  0  0  0
  187.5160  176.4120  144.3090 C   0  0  0  0  0  2  0  0  0  0  0  0
  188.5880  176.2740  145.2950 N   0  0  0  0  0  0  0  0  0  0  0  0
  187.2690  177.4730  146.9740 C   0  0  0  0  0  2  0  0  0  0  0  0
  184.1920  178.9550  145.7650 C   0  0  0  0  0  1  0  0  0  0  0  0
  185.5770  179.0410  146.1970 N   0  0  0  0  0  2  0  0  0  0  0  0
  1  5  2  0  0  0  0
  1  8  1  0  0  0  0
  2 13  1  0  0  0  0
  3 10  2  0  0  0  0
  4  7  1  0  0  0  0
  4 15  1  0  0  0  0
  5  9  1  0  0  0  0
  6  1  1  0  0  0  0
  7 11  1  0  0  0  0
  8  4  2  0  0  0  0
  9  7  2  0  0  0  0
 10 16  1  0  0  0  0
 10 14  1  0  0  0  0
 11  3  1  0  0  0  0
 11  2  2  0  0  0  0
 12  2  1  0  0  0  0
 13 14  1  0  0  0  0
 13 35  1  6  0  0  0
 15 12  2  0  0  0  0
 16 18  1  0  0  0  0
 16 17  1  1  0  0  0
 18 20  1  0  0  0  0
 20 19  2  0  0  0  0
 20 21  2  0  0  0  0
 22 20  1  0  0  0  0
 22 26  1  0  0  0  0
 23 22  1  0  0  0  0
 23 24  2  0  0  0  0
 25 27  1  0  0  0  0
 25 26  1  0  0  0  0
 27 26  1  0  0  0  0
 28 23  1  0  0  0  0
 29 28  1  0  0  0  0
 30 34  1  0  0  0  0
 31 33  2  0  0  0  0
 32 30  2  0  0  0  0
 32 31  1  0  0  0  0
 33 29  1  0  0  0  0
 34 29  2  0  0  0  0
 35 40  1  0  0  0  0
 36 37  1  0  0  0  0
 37 43  1  1  0  0  0
 37 41  1  0  0  0  0
 38 41  1  0  0  0  0
 39 36  1  0  0  0  0
 39 40  1  0  0  0  0
 40 38  1  0  0  0  0
 42 43  1  0  0  0  0
M  END
>  <MODEL>
5

>  <REMARK>
 VINA RESULT:      -5.9      2.913      6.837
  Name = 
  10 active torsions:
  status: ('A' for Active; 'I' for Inactive)
    1  A    between atoms: C_1  and  C_34
    2  A    between atoms: C_1  and  N_35
    3  A    between atoms: C_2  and  C_6
    4  A    between atoms: C_2  and  C_27
    5  A    between atoms: N_4  and  S_12
    6  A    between atoms: N_4  and  C_15
    7  A    between atoms: C_6  and  S_12
    8  A    between atoms: C_11  and  C_14
    9  A    between atoms: C_14  and  C_22
   10  A    between atoms: C_19  and  N_37
                            x       y       z     vdW  Elec       q    Type
                         _______ _______ _______ _____ _____    ______ ____

>  <TORSDO>
F 10

$$$$
=
 OpenBabel11052421153D

 43 48  0  0  1  0  0  0  0  0999 V2000
  191.1010  176.7980  147.9970 C   0  0  0  0  0  0  0  0  0  0  0  0
  189.3270  174.7720  143.6650 C   0  0  0  0  0  0  0  0  0  0  0  0
  190.9630  173.0480  144.4780 C   0  0  0  0  0  3  0  0  0  0  0  0
  189.9900  176.4350  145.8440 C   0  0  0  0  0  0  0  0  0  0  0  0
  191.6410  175.5810  148.0020 C   0  0  0  0  0  3  0  0  0  0  0  0
  191.3360  177.7130  149.1450 C   0  0  0  0  0  1  0  0  0  0  0  0
  190.5110  175.1220  145.7830 C   0  0  0  0  0  0  0  0  0  0  0  0
  190.2630  177.2410  146.8730 C   0  0  0  0  0  3  0  0  0  0  0  0
  191.4510  174.6160  146.8620 C   0  0  0  0  0  3  0  0  0  0  0  0
  190.6260  172.1300  143.5710 C   0  0  0  0  0  0  0  0  0  0  0  0
  190.1950  174.2940  144.6830 C   0  0  0  0  0  0  0  0  0  0  0  0
  188.8650  176.0970  143.7340 C   0  0  0  0  0  3  0  0  0  0  0  0
  188.9700  173.9870  142.6270 C   0  0  1  0  0  3  0  0  0  0  0  0
  189.0270  172.1950  142.7730 S   0  0  0  0  0  0  0  0  0  0  0  0
  189.1880  176.9160  144.8120 C   0  0  0  0  0  3  0  0  0  0  0  0
  191.5220  170.9630  143.2910 C   0  0  1  0  0  3  0  0  0  0  0  0
  190.8880  170.0740  142.4230 O   0  0  0  0  0  1  0  0  0  0  0  0
  192.8570  171.3960  142.6950 C   0  0  0  0  0  2  0  0  0  0  0  0
  194.6170  169.5700  143.6020 O   0  0  0  0  0  0  0  0  0  0  0  0
  194.2170  171.0060  143.7870 S   0  0  0  0  0  0  0  0  0  0  0  0
  193.7670  171.2250  145.2050 O   0  0  0  0  0  0  0  0  0  0  0  0
  195.5780  172.0380  143.4380 N   0  0  0  0  0  0  0  0  0  0  0  0
  195.3800  173.3180  142.8100 C   0  0  0  0  0  0  0  0  0  0  0  0
  196.3210  173.8620  142.1730 O   0  0  0  0  0  0  0  0  0  0  0  0
  197.7650  172.4970  144.4340 C   0  0  0  0  0  2  0  0  0  0  0  0
  196.9350  171.5170  143.6200 C   0  0  0  0  0  3  0  0  0  0  0  0
  197.2080  171.2600  145.0950 C   0  0  0  0  0  2  0  0  0  0  0  0
  194.0870  174.0550  142.9510 C   0  0  0  0  0  2  0  0  0  0  0  0
  194.1750  175.0450  144.0620 C   0  0  0  0  0  0  0  0  0  0  0  0
  194.9410  175.6480  146.2820 C   0  0  0  0  0  3  0  0  0  0  0  0
  193.5710  177.1920  145.0140 C   0  0  0  0  0  3  0  0  0  0  0  0
  194.2840  176.8790  146.1750 C   0  0  0  0  0  3  0  0  0  0  0  0
  193.5150  176.2750  143.9600 C   0  0  0  0  0  3  0  0  0  0  0  0
  194.8850  174.7320  145.2270 C   0  0  0  0  0  3  0  0  0  0  0  0
  188.2890  174.5360  141.4080 C   0  0  0  0  0  2  0  0  0  0  0  0
  188.6040  173.7960  137.7830 C   0  0  0  0  0  2  0  0  0  0  0  0
  190.1280  173.7230  137.7080 C   0  0  1  0  0  3  0  0  0  0  0  0
  190.1680  173.8490  140.1970 C   0  0  0  0  0  2  0  0  0  0  0  0
  188.1900  174.5150  139.0650 C   0  0  0  0  0  2  0  0  0  0  0  0
  188.7070  173.7960  140.2290 N   0  0  0  0  0  0  0  0  0  0  0  0
  190.6910  173.0910  138.9780 C   0  0  0  0  0  2  0  0  0  0  0  0
  190.6260  173.8510  135.4320 C   0  0  0  0  0  1  0  0  0  0  0  0
  190.5230  172.9350  136.5550 N   0  0  0  0  0  2  0  0  0  0  0  0
  1  5  1  0  0  0  0
  1  6  1  0  0  0  0
  2 12  2  0  0  0  0
  2 11  1  0  0  0  0
  3 11  1  0  0  0  0
  4  8  1  0  0  0  0
  7  4  1  0  0  0  0
  7  9  1  0  0  0  0
  8  1  2  0  0  0  0
  9  5  2  0  0  0  0
 10  3  2  0  0  0  0
 11  7  2  0  0  0  0
 12 15  1  0  0  0  0
 13 35  1  1  0  0  0
 13 14  1  0  0  0  0
 13  2  1  0  0  0  0
 14 10  1  0  0  0  0
 15  4  2  0  0  0  0
 16 17  1  6  0  0  0
 16 10  1  0  0  0  0
 18 16  1  0  0  0  0
 18 20  1  0  0  0  0
 19 20  2  0  0  0  0
 20 21  2  0  0  0  0
 22 26  1  0  0  0  0
 22 20  1  0  0  0  0
 23 28  1  0  0  0  0
 23 22  1  0  0  0  0
 24 23  2  0  0  0  0
 25 27  1  0  0  0  0
 26 25  1  0  0  0  0
 26 27  1  0  0  0  0
 28 29  1  0  0  0  0
 29 34  1  0  0  0  0
 31 32  2  0  0  0  0
 32 30  1  0  0  0  0
 33 29  2  0  0  0  0
 33 31  1  0  0  0  0
 34 30  2  0  0  0  0
 36 39  1  0  0  0  0
 37 43  1  6  0  0  0
 37 36  1  0  0  0  0
 37 41  1  0  0  0  0
 38 40  1  0  0  0  0
 39 40  1  0  0  0  0
 40 35  1  0  0  0  0
 41 38  1  0  0  0  0
 42 43  1  0  0  0  0
M  END
>  <MODEL>
6

>  <REMARK>
 VINA RESULT:      -5.8      1.928      2.771
  Name = 
  10 active torsions:
  status: ('A' for Active; 'I' for Inactive)
    1  A    between atoms: C_1  and  C_34
    2  A    between atoms: C_1  and  N_35
    3  A    between atoms: C_2  and  C_6
    4  A    between atoms: C_2  and  C_27
    5  A    between atoms: N_4  and  S_12
    6  A    between atoms: N_4  and  C_15
    7  A    between atoms: C_6  and  S_12
    8  A    between atoms: C_11  and  C_14
    9  A    between atoms: C_14  and  C_22
   10  A    between atoms: C_19  and  N_37
                            x       y       z     vdW  Elec       q    Type
                         _______ _______ _______ _____ _____    ______ ____

>  <TORSDO>
F 10

$$$$
=
 OpenBabel11052421153D

 43 48  0  0  1  0  0  0  0  0999 V2000
  187.8580  177.4400  144.0780 C   0  0  0  0  0  0  0  0  0  0  0  0
  190.1500  173.5690  141.6730 C   0  0  0  0  0  0  0  0  0  0  0  0
  192.0110  175.2260  142.0000 C   0  0  0  0  0  3  0  0  0  0  0  0
  188.3290  175.3780  142.8420 C   0  0  0  0  0  0  0  0  0  0  0  0
  189.1410  177.7960  144.1090 C   0  0  0  0  0  3  0  0  0  0  0  0
  186.8390  178.2970  144.7380 C   0  0  0  0  0  1  0  0  0  0  0  0
  189.7120  175.6760  142.8490 C   0  0  0  0  0  0  0  0  0  0  0  0
  187.4420  176.1990  143.4080 C   0  0  0  0  0  3  0  0  0  0  0  0
  190.2160  176.9760  143.4470 C   0  0  0  0  0  3  0  0  0  0  0  0
  192.9760  174.3990  141.5940 C   0  0  0  0  0  0  0  0  0  0  0  0
  190.6230  174.7790  142.2470 C   0  0  0  0  0  0  0  0  0  0  0  0
  188.7670  173.3270  141.6430 C   0  0  0  0  0  3  0  0  0  0  0  0
  191.0040  172.6720  141.1340 C   0  0  1  0  0  3  0  0  0  0  0  0
  192.7280  172.6290  141.6450 S   0  0  0  0  0  0  0  0  0  0  0  0
  187.8690  174.2170  142.2240 C   0  0  0  0  0  3  0  0  0  0  0  0
  194.3230  174.9250  141.2040 C   0  0  1  0  0  3  0  0  0  0  0  0
  194.3250  175.2770  139.8550 O   0  0  0  0  0  1  0  0  0  0  0  0
  194.7350  176.1270  142.0470 C   0  0  0  0  0  2  0  0  0  0  0  0
  196.8780  177.1650  143.3050 O   0  0  0  0  0  0  0  0  0  0  0  0
  196.3040  175.8510  142.8560 S   0  0  0  0  0  0  0  0  0  0  0  0
  197.2390  175.2030  141.8730 O   0  0  0  0  0  0  0  0  0  0  0  0
  196.0900  174.8090  144.2360 N   0  0  0  0  0  0  0  0  0  0  0  0
  195.3790  175.2740  145.3980 C   0  0  0  0  0  0  0  0  0  0  0  0
  195.5810  174.7390  146.5200 O   0  0  0  0  0  0  0  0  0  0  0  0
  195.9310  172.4770  144.9630 C   0  0  0  0  0  2  0  0  0  0  0  0
  196.7960  173.5250  144.2790 C   0  0  0  0  0  3  0  0  0  0  0  0
  196.0480  172.4850  143.4590 C   0  0  0  0  0  2  0  0  0  0  0  0
  194.3450  176.3500  145.2900 C   0  0  0  0  0  2  0  0  0  0  0  0
  193.0200  175.8400  145.7450 C   0  0  0  0  0  0  0  0  0  0  0  0
  191.3080  174.1240  145.7190 C   0  0  0  0  0  3  0  0  0  0  0  0
  190.9550  176.1660  146.9720 C   0  0  0  0  0  3  0  0  0  0  0  0
  190.5030  174.9130  146.5470 C   0  0  0  0  0  3  0  0  0  0  0  0
  192.2110  176.6300  146.5700 C   0  0  0  0  0  3  0  0  0  0  0  0
  192.5650  174.5870  145.3170 C   0  0  0  0  0  3  0  0  0  0  0  0
  190.5290  171.5300  140.2850 C   0  0  0  0  0  2  0  0  0  0  0  0
  191.4820  171.0670  136.7260 C   0  0  0  0  0  2  0  0  0  0  0  0
  190.0970  171.2440  136.1060 C   0  0  1  0  0  3  0  0  0  0  0  0
  189.2770  171.9450  138.3530 C   0  0  0  0  0  2  0  0  0  0  0  0
  191.3390  170.7730  138.2180 C   0  0  0  0  0  2  0  0  0  0  0  0
  190.6410  171.8770  138.8780 N   0  0  0  0  0  0  0  0  0  0  0  0
  189.3070  172.3040  136.8690 C   0  0  0  0  0  2  0  0  0  0  0  0
  190.4950  173.0720  134.7110 C   0  0  0  0  0  1  0  0  0  0  0  0
  190.2320  171.6430  134.7170 N   0  0  0  0  0  2  0  0  0  0  0  0
  1  5  1  0  0  0  0
  1  6  1  0  0  0  0
  2 11  1  0  0  0  0
  3 11  1  0  0  0  0
  4  7  1  0  0  0  0
  4  8  1  0  0  0  0
  7  9  1  0  0  0  0
  8  1  2  0  0  0  0
  9  5  2  0  0  0  0
 10 14  1  0  0  0  0
 10  3  2  0  0  0  0
 11  7  2  0  0  0  0
 12  2  2  0  0  0  0
 12 15  1  0  0  0  0
 13 35  1  1  0  0  0
 13 14  1  0  0  0  0
 13  2  1  0  0  0  0
 15  4  2  0  0  0  0
 16 17  1  6  0  0  0
 16 10  1  0  0  0  0
 16 18  1  0  0  0  0
 18 20  1  0  0  0  0
 20 19  2  0  0  0  0
 20 22  1  0  0  0  0
 21 20  2  0  0  0  0
 22 26  1  0  0  0  0
 22 23  1  0  0  0  0
 23 24  2  0  0  0  0
 26 25  1  0  0  0  0
 27 26  1  0  0  0  0
 27 25  1  0  0  0  0
 28 23  1  0  0  0  0
 28 29  1  0  0  0  0
 29 33  1  0  0  0  0
 30 32  2  0  0  0  0
 32 31  1  0  0  0  0
 33 31  2  0  0  0  0
 34 30  1  0  0  0  0
 34 29  2  0  0  0  0
 36 39  1  0  0  0  0
 37 43  1  6  0  0  0
 37 36  1  0  0  0  0
 37 41  1  0  0  0  0
 38 40  1  0  0  0  0
 39 40  1  0  0  0  0
 40 35  1  0  0  0  0
 41 38  1  0  0  0  0
 42 43  1  0  0  0  0
M  END
>  <MODEL>
7

>  <REMARK>
 VINA RESULT:      -5.7      2.681      3.805
  Name = 
  10 active torsions:
  status: ('A' for Active; 'I' for Inactive)
    1  A    between atoms: C_1  and  C_34
    2  A    between atoms: C_1  and  N_35
    3  A    between atoms: C_2  and  C_6
    4  A    between atoms: C_2  and  C_27
    5  A    between atoms: N_4  and  S_12
    6  A    between atoms: N_4  and  C_15
    7  A    between atoms: C_6  and  S_12
    8  A    between atoms: C_11  and  C_14
    9  A    between atoms: C_14  and  C_22
   10  A    between atoms: C_19  and  N_37
                            x       y       z     vdW  Elec       q    Type
                         _______ _______ _______ _____ _____    ______ ____

>  <TORSDO>
F 10

$$$$
=
 OpenBabel11052421153D

 43 48  0  0  1  0  0  0  0  0999 V2000
  190.9780  172.3430  138.6370 C   0  0  0  0  0  0  0  0  0  0  0  0
  190.1980  174.5680  143.1600 C   0  0  0  0  0  0  0  0  0  0  0  0
  192.6060  175.0910  142.6700 C   0  0  0  0  0  3  0  0  0  0  0  0
  190.0360  173.0630  140.7800 C   0  0  0  0  0  0  0  0  0  0  0  0
  192.1140  173.0120  138.8330 C   0  0  0  0  0  3  0  0  0  0  0  0
  190.7780  171.5850  137.3740 C   0  0  0  0  0  1  0  0  0  0  0  0
  191.2030  173.8140  141.0550 C   0  0  0  0  0  0  0  0  0  0  0  0
  189.9150  172.3590  139.6530 C   0  0  0  0  0  3  0  0  0  0  0  0
  192.3790  173.7850  140.0960 C   0  0  0  0  0  3  0  0  0  0  0  0
  192.7520  175.9350  143.6920 C   0  0  0  0  0  0  0  0  0  0  0  0
  191.2920  174.5530  142.2550 C   0  0  0  0  0  0  0  0  0  0  0  0
  189.0730  173.7750  142.8780 C   0  0  0  0  0  3  0  0  0  0  0  0
  190.2370  175.3040  144.2910 C   0  0  1  0  0  3  0  0  0  0  0  0
  191.3230  176.7320  144.4160 S   0  0  0  0  0  0  0  0  0  0  0  0
  188.9910  173.0360  141.7010 C   0  0  0  0  0  3  0  0  0  0  0  0
  194.1150  176.3280  144.1740 C   0  0  1  0  0  3  0  0  0  0  0  0
  194.0040  177.2240  145.2370 O   0  0  0  0  0  1  0  0  0  0  0  0
  194.9400  175.1200  144.6060 C   0  0  0  0  0  2  0  0  0  0  0  0
  197.5640  174.5410  144.7830 O   0  0  0  0  0  0  0  0  0  0  0  0
  196.5520  175.1210  143.8350 S   0  0  0  0  0  0  0  0  0  0  0  0
  196.9240  176.5410  143.5100 O   0  0  0  0  0  0  0  0  0  0  0  0
  196.5160  174.1750  142.3720 N   0  0  0  0  0  0  0  0  0  0  0  0
  196.4290  172.7390  142.4350 C   0  0  0  0  0  0  0  0  0  0  0  0
  196.8300  172.0390  141.4670 O   0  0  0  0  0  0  0  0  0  0  0  0
  195.8070  174.2920  140.0330 C   0  0  0  0  0  2  0  0  0  0  0  0
  196.7590  174.8350  141.0870 C   0  0  0  0  0  3  0  0  0  0  0  0
  195.5350  175.6350  140.6650 C   0  0  0  0  0  2  0  0  0  0  0  0
  195.8090  172.0540  143.6100 C   0  0  0  0  0  2  0  0  0  0  0  0
  194.4220  171.6190  143.2810 C   0  0  0  0  0  0  0  0  0  0  0  0
  192.0940  171.3640  143.9120 C   0  0  0  0  0  3  0  0  0  0  0  0
  192.8600  170.5530  141.7620 C   0  0  0  0  0  3  0  0  0  0  0  0
  191.8300  170.7400  142.6880 C   0  0  0  0  0  3  0  0  0  0  0  0
  194.1550  170.9900  142.0590 C   0  0  0  0  0  3  0  0  0  0  0  0
  193.3890  171.8020  144.2090 C   0  0  0  0  0  3  0  0  0  0  0  0
  189.2300  175.1330  145.3900 C   0  0  0  0  0  2  0  0  0  0  0  0
  186.7250  177.7860  144.7010 C   0  0  0  0  0  2  0  0  0  0  0  0
  186.0130  177.7680  146.0530 C   0  0  1  0  0  3  0  0  0  0  0  0
  187.8010  176.2390  146.8760 C   0  0  0  0  0  2  0  0  0  0  0  0
  187.5270  176.4980  144.5310 C   0  0  0  0  0  2  0  0  0  0  0  0
  188.5130  176.3790  145.6060 N   0  0  0  0  0  0  0  0  0  0  0  0
  187.0160  177.5130  147.1760 C   0  0  0  0  0  2  0  0  0  0  0  0
  184.0690  178.9720  145.5880 C   0  0  0  0  0  1  0  0  0  0  0  0
  185.3490  179.0410  146.2720 N   0  0  0  0  0  2  0  0  0  0  0  0
  1  5  2  0  0  0  0
  1  8  1  0  0  0  0
  2 13  1  0  0  0  0
  3 10  2  0  0  0  0
  4  7  1  0  0  0  0
  4 15  1  0  0  0  0
  5  9  1  0  0  0  0
  6  1  1  0  0  0  0
  7 11  1  0  0  0  0
  8  4  2  0  0  0  0
  9  7  2  0  0  0  0
 10 16  1  0  0  0  0
 10 14  1  0  0  0  0
 11  3  1  0  0  0  0
 11  2  2  0  0  0  0
 12  2  1  0  0  0  0
 13 14  1  0  0  0  0
 13 35  1  6  0  0  0
 15 12  2  0  0  0  0
 16 18  1  0  0  0  0
 16 17  1  1  0  0  0
 20 18  1  0  0  0  0
 20 19  2  0  0  0  0
 21 20  2  0  0  0  0
 22 23  1  0  0  0  0
 22 20  1  0  0  0  0
 23 28  1  0  0  0  0
 24 23  2  0  0  0  0
 25 27  1  0  0  0  0
 25 26  1  0  0  0  0
 26 22  1  0  0  0  0
 27 26  1  0  0  0  0
 29 28  1  0  0  0  0
 29 34  1  0  0  0  0
 30 34  2  0  0  0  0
 31 33  1  0  0  0  0
 31 32  2  0  0  0  0
 32 30  1  0  0  0  0
 33 29  2  0  0  0  0
 35 40  1  0  0  0  0
 36 37  1  0  0  0  0
 37 43  1  1  0  0  0
 37 41  1  0  0  0  0
 38 41  1  0  0  0  0
 39 36  1  0  0  0  0
 39 40  1  0  0  0  0
 40 38  1  0  0  0  0
 42 43  1  0  0  0  0
M  END
>  <MODEL>
8

>  <REMARK>
 VINA RESULT:      -5.6      2.996      6.882
  Name = 
  10 active torsions:
  status: ('A' for Active; 'I' for Inactive)
    1  A    between atoms: C_1  and  C_34
    2  A    between atoms: C_1  and  N_35
    3  A    between atoms: C_2  and  C_6
    4  A    between atoms: C_2  and  C_27
    5  A    between atoms: N_4  and  S_12
    6  A    between atoms: N_4  and  C_15
    7  A    between atoms: C_6  and  S_12
    8  A    between atoms: C_11  and  C_14
    9  A    between atoms: C_14  and  C_22
   10  A    between atoms: C_19  and  N_37
                            x       y       z     vdW  Elec       q    Type
                         _______ _______ _______ _____ _____    ______ ____

>  <TORSDO>
F 10

$$$$
=
 OpenBabel11052421153D

 43 48  0  0  1  0  0  0  0  0999 V2000
  191.2080  176.9310  148.2450 C   0  0  0  0  0  0  0  0  0  0  0  0
  189.3440  175.9670  143.5950 C   0  0  0  0  0  0  0  0  0  0  0  0
  190.4300  173.7950  144.2410 C   0  0  0  0  0  3  0  0  0  0  0  0
  190.2200  177.1280  146.0120 C   0  0  0  0  0  0  0  0  0  0  0  0
  191.4260  175.6240  148.1080 C   0  0  0  0  0  3  0  0  0  0  0  0
  191.5670  177.6100  149.5180 C   0  0  0  0  0  1  0  0  0  0  0  0
  190.4020  175.7420  145.7960 C   0  0  0  0  0  0  0  0  0  0  0  0
  190.6000  177.7070  147.1530 C   0  0  0  0  0  3  0  0  0  0  0  0
  191.0960  174.8860  146.8390 C   0  0  0  0  0  3  0  0  0  0  0  0
  189.9500  173.1120  143.2010 C   0  0  0  0  0  0  0  0  0  0  0  0
  189.9810  175.1630  144.5780 C   0  0  0  0  0  0  0  0  0  0  0  0
  189.2220  177.3480  143.8240 C   0  0  0  0  0  3  0  0  0  0  0  0
  188.8890  175.4310  142.4430 C   0  0  1  0  0  3  0  0  0  0  0  0
  188.4870  173.6810  142.3440 S   0  0  0  0  0  0  0  0  0  0  0  0
  189.6490  177.9200  145.0180 C   0  0  0  0  0  3  0  0  0  0  0  0
  190.5490  171.7960  142.8070 C   0  0  1  0  0  3  0  0  0  0  0  0
  189.6980  171.1340  141.9210 O   0  0  0  0  0  1  0  0  0  0  0  0
  191.9240  171.9600  142.1700 C   0  0  0  0  0  2  0  0  0  0  0  0
  193.3830  169.8060  142.8670 O   0  0  0  0  0  0  0  0  0  0  0  0
  193.2070  171.2610  143.1990 S   0  0  0  0  0  0  0  0  0  0  0  0
  192.7930  171.4020  144.6380 O   0  0  0  0  0  0  0  0  0  0  0  0
  194.7100  172.1030  142.9360 N   0  0  0  0  0  0  0  0  0  0  0  0
  194.7100  173.4920  142.5550 C   0  0  0  0  0  0  0  0  0  0  0  0
  195.7040  173.9830  141.9560 O   0  0  0  0  0  0  0  0  0  0  0  0
  197.0430  172.1090  143.6750 C   0  0  0  0  0  2  0  0  0  0  0  0
  195.9630  171.3440  142.9250 C   0  0  0  0  0  3  0  0  0  0  0  0
  196.3500  170.9460  144.3420 C   0  0  0  0  0  2  0  0  0  0  0  0
  193.5710  174.3910  142.9160 C   0  0  0  0  0  2  0  0  0  0  0  0
  193.8990  175.1730  144.1420 C   0  0  0  0  0  0  0  0  0  0  0  0
  194.7960  175.2730  146.3920 C   0  0  0  0  0  3  0  0  0  0  0  0
  193.8320  177.2540  145.3860 C   0  0  0  0  0  3  0  0  0  0  0  0
  194.4540  176.6270  146.4700 C   0  0  0  0  0  3  0  0  0  0  0  0
  193.5530  176.5270  144.2240 C   0  0  0  0  0  3  0  0  0  0  0  0
  194.5190  174.5460  145.2300 C   0  0  0  0  0  3  0  0  0  0  0  0
  188.4670  176.2800  141.2800 C   0  0  0  0  0  2  0  0  0  0  0  0
  185.1900  177.1700  142.7810 C   0  0  0  0  0  2  0  0  0  0  0  0
  184.7830  178.2550  141.7860 C   0  0  1  0  0  3  0  0  0  0  0  0
  186.7450  177.5960  140.3980 C   0  0  0  0  0  2  0  0  0  0  0  0
  186.6920  176.9170  142.6730 C   0  0  0  0  0  2  0  0  0  0  0  0
  187.0290  176.4920  141.3150 N   0  0  0  0  0  0  0  0  0  0  0  0
  185.2460  177.8840  140.3790 C   0  0  0  0  0  2  0  0  0  0  0  0
  182.8530  177.9420  140.5120 C   0  0  0  0  0  1  0  0  0  0  0  0
  183.3400  178.4130  141.7980 N   0  0  0  0  0  2  0  0  0  0  0  0
  1  6  1  0  0  0  0
  2 12  2  0  0  0  0
  2 11  1  0  0  0  0
  3 11  1  0  0  0  0
  4  8  1  0  0  0  0
  5  1  1  0  0  0  0
  7  4  1  0  0  0  0
  7  9  1  0  0  0  0
  8  1  2  0  0  0  0
  9  5  2  0  0  0  0
 10  3  2  0  0  0  0
 11  7  2  0  0  0  0
 12 15  1  0  0  0  0
 13 35  1  1  0  0  0
 13  2  1  0  0  0  0
 14 13  1  0  0  0  0
 14 10  1  0  0  0  0
 15  4  2  0  0  0  0
 16 17  1  6  0  0  0
 16 10  1  0  0  0  0
 18 16  1  0  0  0  0
 18 20  1  0  0  0  0
 19 20  2  0  0  0  0
 20 21  2  0  0  0  0
 22 20  1  0  0  0  0
 23 28  1  0  0  0  0
 23 22  1  0  0  0  0
 24 23  2  0  0  0  0
 25 27  1  0  0  0  0
 26 22  1  0  0  0  0
 26 25  1  0  0  0  0
 26 27  1  0  0  0  0
 28 29  1  0  0  0  0
 29 33  2  0  0  0  0
 29 34  1  0  0  0  0
 30 32  1  0  0  0  0
 31 32  2  0  0  0  0
 33 31  1  0  0  0  0
 34 30  2  0  0  0  0
 35 40  1  0  0  0  0
 37 43  1  6  0  0  0
 37 36  1  0  0  0  0
 38 40  1  0  0  0  0
 39 36  1  0  0  0  0
 40 39  1  0  0  0  0
 41 38  1  0  0  0  0
 41 37  1  0  0  0  0
 42 43  1  0  0  0  0
M  END
>  <MODEL>
9

>  <REMARK>
 VINA RESULT:      -5.6      3.074      5.031
  Name = 
  10 active torsions:
  status: ('A' for Active; 'I' for Inactive)
    1  A    between atoms: C_1  and  C_34
    2  A    between atoms: C_1  and  N_35
    3  A    between atoms: C_2  and  C_6
    4  A    between atoms: C_2  and  C_27
    5  A    between atoms: N_4  and  S_12
    6  A    between atoms: N_4  and  C_15
    7  A    between atoms: C_6  and  S_12
    8  A    between atoms: C_11  and  C_14
    9  A    between atoms: C_14  and  C_22
   10  A    between atoms: C_19  and  N_37
                            x       y       z     vdW  Elec       q    Type
                         _______ _______ _______ _____ _____    ______ ____

>  <TORSDO>
F 10

$$$$
