=
 OpenBabel11052417103D

 30 32  0  0  1  0  0  0  0  0999 V2000
  189.2310  172.6450  141.7270 C   0  0  0  0  0  0  0  0  0  0  0  0
  189.9540  171.5020  141.8440 N   0  0  0  0  0  0  0  0  0  0  0  0
  188.2440  172.8080  140.2800 Cl  0  0  0  0  0  0  0  0  0  0  0  0
  190.1840  173.3840  143.8310 C   0  0  0  0  0  0  0  0  0  0  0  0
  190.7750  171.2860  142.8970 C   0  0  0  0  0  3  0  0  0  0  0  0
  189.3260  173.6440  142.7310 C   0  0  0  0  0  0  0  0  0  0  0  0
  190.8860  172.2180  143.8720 N   0  0  0  0  0  0  0  0  0  0  0  0
  190.7200  175.2340  147.8490 C   0  0  0  0  0  3  0  0  0  0  0  0
  191.8810  175.5850  147.2970 C   0  0  0  0  0  3  0  0  0  0  0  0
  189.4340  175.2520  147.0950 C   0  0  0  0  0  2  0  0  0  0  0  0
  191.4070  175.3750  144.8710 C   0  0  0  0  0  3  0  0  0  0  0  0
  189.4660  174.2840  145.9610 C   0  0  0  0  0  3  0  0  0  0  0  0
  192.0710  175.9630  145.8770 C   0  0  0  0  0  0  0  0  0  0  0  0
  190.3500  174.3350  144.9580 C   0  0  0  0  0  0  0  0  0  0  0  0
  195.0400  175.4750  146.1020 O   0  0  0  0  0  1  0  0  0  0  0  0
  194.5220  176.6560  145.5830 C   0  0  0  0  0  0  0  0  0  0  0  0
  193.1090  176.8820  145.5120 N   0  0  0  0  0  2  0  0  0  0  0  0
  195.3100  177.5480  145.1790 O   0  0  0  0  0  0  0  0  0  0  0  0
  189.0600  176.0270  142.0060 C   0  0  0  0  0  3  0  0  0  0  0  0
  188.6350  174.9560  142.6580 C   0  0  0  0  0  3  0  0  0  0  0  0
  188.2450  177.2700  142.0300 C   0  0  0  0  0  2  0  0  0  0  0  0
  186.8000  176.9740  141.6130 C   0  0  2  0  0  3  0  0  0  0  0  0
  186.5190  177.4870  140.2070 C   0  0  0  0  0  1  0  0  0  0  0  0
  185.9240  178.9120  144.4930 C   0  0  0  0  0  2  0  0  0  0  0  0
  185.7980  177.4880  142.5590 N   0  0  0  0  0  0  0  0  0  0  0  0
  186.1150  177.4930  144.9520 C   0  0  2  0  0  0  0  0  0  0  0  0
  185.7880  176.6370  143.7480 C   0  0  0  0  0  2  0  0  0  0  0  0
  186.1200  178.8500  142.9970 C   0  0  0  0  0  2  0  0  0  0  0  0
  185.1830  177.1760  146.1030 C   0  0  0  0  0  1  0  0  0  0  0  0
  187.4280  177.2910  145.3330 F   0  0  0  0  0  0  0  0  0  0  0  0
  1  2  2  0  0  0  0
  1  6  1  0  0  0  0
  2  5  1  0  0  0  0
  3  1  1  0  0  0  0
  4  7  1  0  0  0  0
  4 14  1  0  0  0  0
  5  7  2  0  0  0  0
  6  4  2  0  0  0  0
  9  8  2  0  0  0  0
 10  8  1  0  0  0  0
 11 14  1  0  0  0  0
 11 13  2  0  0  0  0
 12 10  1  0  0  0  0
 13  9  1  0  0  0  0
 14 12  2  0  0  0  0
 16 15  1  0  0  0  0
 17 16  1  0  0  0  0
 17 13  1  0  0  0  0
 18 16  2  0  0  0  0
 19 21  1  0  0  0  0
 19 20  2  0  0  0  0
 20  6  1  0  0  0  0
 22 23  1  6  0  0  0
 22 21  1  0  0  0  0
 22 25  1  0  0  0  0
 24 26  1  0  0  0  0
 25 28  1  0  0  0  0
 25 27  1  0  0  0  0
 26 30  1  0  0  0  0
 26 29  1  1  0  0  0
 27 26  1  0  0  0  0
 28 24  1  0  0  0  0
M  END
>  <MODEL>
1

>  <REMARK>
 VINA RESULT:      -7.6      0.000      0.000
  Name = 
  6 active torsions:
  status: ('A' for Active; 'I' for Inactive)
    1  A    between atoms: C_1  and  C_4
    2  A    between atoms: C_4  and  C_27
    3  A    between atoms: C_5  and  C_22
    4  A    between atoms: N_8  and  C_27
    5  A    between atoms: N_16  and  C_25
    6  A    between atoms: C_19  and  C_29
                            x       y       z     vdW  Elec       q    Type
                         _______ _______ _______ _____ _____    ______ ____

>  <TORSDO>
F 6

$$$$
=
 OpenBabel11052417103D

 30 32  0  0  1  0  0  0  0  0999 V2000
  185.1900  177.9480  145.3670 C   0  0  0  0  0  0  0  0  0  0  0  0
  184.5600  178.9270  144.6700 N   0  0  0  0  0  0  0  0  0  0  0  0
  184.4350  177.4450  146.8760 Cl  0  0  0  0  0  0  0  0  0  0  0  0
  186.9140  177.9320  143.6610 C   0  0  0  0  0  0  0  0  0  0  0  0
  185.0690  179.4160  143.5160 C   0  0  0  0  0  3  0  0  0  0  0  0
  186.4110  177.4110  144.8810 C   0  0  0  0  0  0  0  0  0  0  0  0
  186.2300  178.9230  143.0250 N   0  0  0  0  0  0  0  0  0  0  0  0
  190.9650  176.2380  142.9090 C   0  0  0  0  0  3  0  0  0  0  0  0
  190.2270  175.2820  142.3470 C   0  0  0  0  0  3  0  0  0  0  0  0
  190.6370  177.6860  142.7810 C   0  0  0  0  0  2  0  0  0  0  0  0
  188.0710  176.4390  141.9380 C   0  0  0  0  0  3  0  0  0  0  0  0
  189.3210  177.9950  143.4100 C   0  0  0  0  0  3  0  0  0  0  0  0
  188.9700  175.5060  141.5940 C   0  0  0  0  0  0  0  0  0  0  0  0
  188.1640  177.4370  143.0340 C   0  0  0  0  0  0  0  0  0  0  0  0
  188.2340  172.5980  141.9160 O   0  0  0  0  0  1  0  0  0  0  0  0
  188.2120  173.2330  140.6800 C   0  0  0  0  0  0  0  0  0  0  0  0
  188.5940  174.6070  140.5420 N   0  0  0  0  0  2  0  0  0  0  0  0
  187.8610  172.5860  139.6620 O   0  0  0  0  0  0  0  0  0  0  0  0
  188.0690  176.6270  146.5880 C   0  0  0  0  0  3  0  0  0  0  0  0
  187.2110  176.3920  145.6070 C   0  0  0  0  0  3  0  0  0  0  0  0
  188.7940  175.4910  147.2160 C   0  0  0  0  0  2  0  0  0  0  0  0
  189.9990  175.0840  146.3610 C   0  0  2  0  0  3  0  0  0  0  0  0
  189.7790  173.7210  145.7180 C   0  0  0  0  0  1  0  0  0  0  0  0
  192.9790  176.7770  147.3960 C   0  0  0  0  0  2  0  0  0  0  0  0
  191.2740  175.1090  147.0940 N   0  0  0  0  0  0  0  0  0  0  0  0
  193.3210  175.9860  146.1640 C   0  0  2  0  0  0  0  0  0  0  0  0
  192.3620  174.8160  146.1620 C   0  0  0  0  0  2  0  0  0  0  0  0
  191.5350  176.4290  147.6740 C   0  0  0  0  0  2  0  0  0  0  0  0
  194.7550  175.5030  146.2220 C   0  0  0  0  0  1  0  0  0  0  0  0
  193.1240  176.7590  145.0350 F   0  0  0  0  0  0  0  0  0  0  0  0
  1  3  1  0  0  0  0
  2  1  2  0  0  0  0
  4  6  2  0  0  0  0
  5  2  1  0  0  0  0
  6  1  1  0  0  0  0
  6 20  1  0  0  0  0
  7  5  2  0  0  0  0
  7  4  1  0  0  0  0
  9  8  2  0  0  0  0
 10  8  1  0  0  0  0
 10 12  1  0  0  0  0
 11 14  1  0  0  0  0
 13 11  2  0  0  0  0
 13  9  1  0  0  0  0
 14 12  2  0  0  0  0
 14  4  1  0  0  0  0
 16 15  1  0  0  0  0
 17 16  1  0  0  0  0
 17 13  1  0  0  0  0
 18 16  2  0  0  0  0
 19 21  1  0  0  0  0
 20 19  2  0  0  0  0
 22 23  1  1  0  0  0
 22 25  1  0  0  0  0
 22 21  1  0  0  0  0
 24 28  1  0  0  0  0
 25 28  1  0  0  0  0
 26 29  1  1  0  0  0
 26 24  1  0  0  0  0
 27 26  1  0  0  0  0
 27 25  1  0  0  0  0
 30 26  1  0  0  0  0
M  END
>  <MODEL>
2

>  <REMARK>
 VINA RESULT:      -7.6      3.502      7.065
  Name = 
  6 active torsions:
  status: ('A' for Active; 'I' for Inactive)
    1  A    between atoms: C_1  and  C_4
    2  A    between atoms: C_4  and  C_27
    3  A    between atoms: C_5  and  C_22
    4  A    between atoms: N_8  and  C_27
    5  A    between atoms: N_16  and  C_25
    6  A    between atoms: C_19  and  C_29
                            x       y       z     vdW  Elec       q    Type
                         _______ _______ _______ _____ _____    ______ ____

>  <TORSDO>
F 6

$$$$
=
 OpenBabel11052417103D

 30 32  0  0  1  0  0  0  0  0999 V2000
  186.1200  178.4660  146.9240 C   0  0  0  0  0  0  0  0  0  0  0  0
  184.8100  178.7720  147.1040 N   0  0  0  0  0  0  0  0  0  0  0  0
  187.1770  178.6790  148.3150 Cl  0  0  0  0  0  0  0  0  0  0  0  0
  185.6090  177.9310  144.6140 C   0  0  0  0  0  0  0  0  0  0  0  0
  183.9140  178.6800  146.0940 C   0  0  0  0  0  3  0  0  0  0  0  0
  186.5730  178.0320  145.6510 C   0  0  0  0  0  0  0  0  0  0  0  0
  184.3150  178.2660  144.8690 N   0  0  0  0  0  0  0  0  0  0  0  0
  187.3200  177.4970  140.5230 C   0  0  0  0  0  3  0  0  0  0  0  0
  187.8640  176.4240  141.0960 C   0  0  0  0  0  3  0  0  0  0  0  0
  185.9190  177.9280  140.7920 C   0  0  0  0  0  2  0  0  0  0  0  0
  186.3900  176.0590  143.0580 C   0  0  0  0  0  3  0  0  0  0  0  0
  185.7400  178.3010  142.2250 C   0  0  0  0  0  3  0  0  0  0  0  0
  187.2010  175.5690  142.1080 C   0  0  0  0  0  0  0  0  0  0  0  0
  185.9500  177.4640  143.2480 C   0  0  0  0  0  0  0  0  0  0  0  0
  189.9700  174.4230  142.4550 O   0  0  0  0  0  0  0  0  0  0  0  0
  188.8390  173.6180  142.3980 C   0  0  0  0  0  0  0  0  0  0  0  0
  187.5350  174.1780  142.2030 N   0  0  0  0  0  2  0  0  0  0  0  0
  188.9650  172.3720  142.5090 O   0  0  0  0  0  1  0  0  0  0  0  0
  188.7090  176.7300  145.7980 C   0  0  0  0  0  3  0  0  0  0  0  0
  187.9950  177.7450  145.3350 C   0  0  0  0  0  3  0  0  0  0  0  0
  190.1280  176.5820  145.3820 C   0  0  0  0  0  2  0  0  0  0  0  0
  190.6270  175.1610  145.6650 C   0  0  2  0  0  3  0  0  0  0  0  0
  189.5220  174.3030  146.2650 C   0  0  0  0  0  1  0  0  0  0  0  0
  193.7130  176.5880  146.7870 C   0  0  0  0  0  2  0  0  0  0  0  0
  191.8300  175.1180  146.5100 N   0  0  0  0  0  0  0  0  0  0  0  0
  194.0440  175.6150  145.6890 C   0  0  2  0  0  0  0  0  0  0  0  0
  192.9410  174.5810  145.7250 C   0  0  0  0  0  2  0  0  0  0  0  0
  192.2180  176.4570  146.9620 C   0  0  0  0  0  2  0  0  0  0  0  0
  195.3910  174.9690  145.9380 C   0  0  0  0  0  1  0  0  0  0  0  0
  194.0450  176.2620  144.4670 F   0  0  0  0  0  0  0  0  0  0  0  0
  1  2  1  0  0  0  0
  1  3  1  0  0  0  0
  4  7  2  0  0  0  0
  4  6  1  0  0  0  0
  5  2  2  0  0  0  0
  6  1  2  0  0  0  0
  7  5  1  0  0  0  0
  8 10  1  0  0  0  0
  8  9  2  0  0  0  0
  9 13  1  0  0  0  0
 10 12  1  0  0  0  0
 11 14  1  0  0  0  0
 12 14  2  0  0  0  0
 13 17  1  0  0  0  0
 13 11  2  0  0  0  0
 14  4  1  0  0  0  0
 16 15  2  0  0  0  0
 16 18  1  0  0  0  0
 17 16  1  0  0  0  0
 20  6  1  0  0  0  0
 20 19  2  0  0  0  0
 21 22  1  0  0  0  0
 21 19  1  0  0  0  0
 22 23  1  1  0  0  0
 22 25  1  0  0  0  0
 24 28  1  0  0  0  0
 25 28  1  0  0  0  0
 26 27  1  0  0  0  0
 26 29  1  1  0  0  0
 26 24  1  0  0  0  0
 27 25  1  0  0  0  0
 30 26  1  0  0  0  0
M  END
>  <MODEL>
3

>  <REMARK>
 VINA RESULT:      -7.5      3.353      7.518
  Name = 
  6 active torsions:
  status: ('A' for Active; 'I' for Inactive)
    1  A    between atoms: C_1  and  C_4
    2  A    between atoms: C_4  and  C_27
    3  A    between atoms: C_5  and  C_22
    4  A    between atoms: N_8  and  C_27
    5  A    between atoms: N_16  and  C_25
    6  A    between atoms: C_19  and  C_29
                            x       y       z     vdW  Elec       q    Type
                         _______ _______ _______ _____ _____    ______ ____

>  <TORSDO>
F 6

$$$$
=
 OpenBabel11052417103D

 30 32  0  0  1  0  0  0  0  0999 V2000
  185.5970  177.8150  140.9860 C   0  0  0  0  0  0  0  0  0  0  0  0
  184.2640  178.0280  140.8430 N   0  0  0  0  0  0  0  0  0  0  0  0
  186.5040  177.4940  139.5120 Cl  0  0  0  0  0  0  0  0  0  0  0  0
  185.3160  178.0750  143.3810 C   0  0  0  0  0  0  0  0  0  0  0  0
  183.4620  178.2480  141.9110 C   0  0  0  0  0  3  0  0  0  0  0  0
  186.1770  177.8270  142.2810 C   0  0  0  0  0  0  0  0  0  0  0  0
  183.9870  178.2690  143.1590 N   0  0  0  0  0  0  0  0  0  0  0  0
  185.6170  178.2590  147.8220 C   0  0  0  0  0  3  0  0  0  0  0  0
  186.1540  177.0560  147.6220 C   0  0  0  0  0  3  0  0  0  0  0  0
  185.8890  179.4180  146.9260 C   0  0  0  0  0  2  0  0  0  0  0  0
  186.8180  177.1550  145.2340 C   0  0  0  0  0  3  0  0  0  0  0  0
  185.3880  179.1560  145.5450 C   0  0  0  0  0  3  0  0  0  0  0  0
  187.0150  176.6860  146.4750 C   0  0  0  0  0  0  0  0  0  0  0  0
  185.8030  178.1400  144.7800 C   0  0  0  0  0  0  0  0  0  0  0  0
  189.7810  177.0660  147.6190 O   0  0  0  0  0  1  0  0  0  0  0  0
  189.3210  175.8250  147.1940 C   0  0  0  0  0  0  0  0  0  0  0  0
  188.0160  175.6700  146.6260 N   0  0  0  0  0  2  0  0  0  0  0  0
  190.0710  174.8220  147.3010 O   0  0  0  0  0  0  0  0  0  0  0  0
  188.6460  178.1090  141.9580 C   0  0  0  0  0  3  0  0  0  0  0  0
  187.6080  177.5320  142.5460 C   0  0  0  0  0  3  0  0  0  0  0  0
  190.0230  177.7000  142.3400 C   0  0  0  0  0  2  0  0  0  0  0  0
  190.0090  176.9290  143.6640 C   0  0  2  0  0  3  0  0  0  0  0  0
  190.8410  177.6420  144.7210 C   0  0  0  0  0  1  0  0  0  0  0  0
  190.5450  173.9980  141.6810 C   0  0  0  0  0  2  0  0  0  0  0  0
  190.4320  175.5270  143.5330 N   0  0  0  0  0  0  0  0  0  0  0  0
  189.1790  173.8750  142.2970 C   0  0  2  0  0  0  0  0  0  0  0  0
  189.2490  174.6680  143.5840 C   0  0  0  0  0  2  0  0  0  0  0  0
  191.0970  175.2840  142.2490 C   0  0  0  0  0  2  0  0  0  0  0  0
  188.8520  172.4240  142.5820 C   0  0  0  0  0  1  0  0  0  0  0  0
  188.2280  174.4220  141.4570 F   0  0  0  0  0  0  0  0  0  0  0  0
  1  6  1  0  0  0  0
  2  1  2  0  0  0  0
  2  5  1  0  0  0  0
  3  1  1  0  0  0  0
  4 14  1  0  0  0  0
  5  7  2  0  0  0  0
  6 20  1  0  0  0  0
  6  4  2  0  0  0  0
  7  4  1  0  0  0  0
  9  8  2  0  0  0  0
 10  8  1  0  0  0  0
 11 13  2  0  0  0  0
 12 10  1  0  0  0  0
 13 17  1  0  0  0  0
 13  9  1  0  0  0  0
 14 11  1  0  0  0  0
 14 12  2  0  0  0  0
 16 18  2  0  0  0  0
 16 15  1  0  0  0  0
 17 16  1  0  0  0  0
 19 21  1  0  0  0  0
 19 20  2  0  0  0  0
 21 22  1  0  0  0  0
 22 23  1  1  0  0  0
 24 28  1  0  0  0  0
 24 26  1  0  0  0  0
 25 27  1  0  0  0  0
 25 22  1  0  0  0  0
 26 29  1  1  0  0  0
 26 27  1  0  0  0  0
 28 25  1  0  0  0  0
 30 26  1  0  0  0  0
M  END
>  <MODEL>
4

>  <REMARK>
 VINA RESULT:      -7.3      2.767      5.960
  Name = 
  6 active torsions:
  status: ('A' for Active; 'I' for Inactive)
    1  A    between atoms: C_1  and  C_4
    2  A    between atoms: C_4  and  C_27
    3  A    between atoms: C_5  and  C_22
    4  A    between atoms: N_8  and  C_27
    5  A    between atoms: N_16  and  C_25
    6  A    between atoms: C_19  and  C_29
                            x       y       z     vdW  Elec       q    Type
                         _______ _______ _______ _____ _____    ______ ____

>  <TORSDO>
F 6

$$$$
=
 OpenBabel11052417103D

 30 32  0  0  1  0  0  0  0  0999 V2000
  186.1920  178.0450  142.1050 C   0  0  0  0  0  0  0  0  0  0  0  0
  185.5510  179.0770  142.7110 N   0  0  0  0  0  0  0  0  0  0  0  0
  185.7930  177.7540  140.4160 Cl  0  0  0  0  0  0  0  0  0  0  0  0
  187.3070  177.5880  144.2100 C   0  0  0  0  0  0  0  0  0  0  0  0
  185.7530  179.3690  144.0170 C   0  0  0  0  0  3  0  0  0  0  0  0
  187.1040  177.2500  142.8460 C   0  0  0  0  0  0  0  0  0  0  0  0
  186.6190  178.6300  144.7500 N   0  0  0  0  0  0  0  0  0  0  0  0
  189.4720  174.4560  146.5240 C   0  0  0  0  0  3  0  0  0  0  0  0
  190.4230  174.7660  145.6440 C   0  0  0  0  0  3  0  0  0  0  0  0
  188.5890  175.4830  147.1460 C   0  0  0  0  0  2  0  0  0  0  0  0
  189.7130  177.0070  144.8530 C   0  0  0  0  0  3  0  0  0  0  0  0
  187.7530  176.1650  146.1170 C   0  0  0  0  0  3  0  0  0  0  0  0
  190.6880  176.1250  145.1170 C   0  0  0  0  0  0  0  0  0  0  0  0
  188.2540  176.8530  145.0840 C   0  0  0  0  0  0  0  0  0  0  0  0
  193.0420  176.5740  146.9500 O   0  0  0  0  0  1  0  0  0  0  0  0
  193.1500  176.6820  145.5680 C   0  0  0  0  0  0  0  0  0  0  0  0
  192.0140  176.4940  144.7160 N   0  0  0  0  0  2  0  0  0  0  0  0
  194.2640  176.9600  145.0580 O   0  0  0  0  0  0  0  0  0  0  0  0
  187.3370  174.8170  142.2970 C   0  0  0  0  0  3  0  0  0  0  0  0
  187.7970  176.0580  142.2950 C   0  0  0  0  0  3  0  0  0  0  0  0
  188.1570  173.7300  141.6990 C   0  0  0  0  0  2  0  0  0  0  0  0
  189.0550  174.2840  140.5870 C   0  0  2  0  0  3  0  0  0  0  0  0
  188.4560  174.0120  139.2140 C   0  0  0  0  0  1  0  0  0  0  0  0
  191.4430  171.7620  141.4570 C   0  0  0  0  0  2  0  0  0  0  0  0
  190.4400  173.7940  140.6520 N   0  0  0  0  0  0  0  0  0  0  0  0
  191.3800  172.7310  142.6050 C   0  0  2  0  0  0  0  0  0  0  0  0
  190.9720  174.0520  141.9900 C   0  0  0  0  0  2  0  0  0  0  0  0
  190.5120  172.3480  140.4220 C   0  0  0  0  0  2  0  0  0  0  0  0
  192.7320  172.8500  143.2760 C   0  0  0  0  0  1  0  0  0  0  0  0
  190.4280  172.3220  143.5190 F   0  0  0  0  0  0  0  0  0  0  0  0
  1  2  2  0  0  0  0
  1  6  1  0  0  0  0
  2  5  1  0  0  0  0
  3  1  1  0  0  0  0
  4  7  1  0  0  0  0
  4 14  1  0  0  0  0
  5  7  2  0  0  0  0
  6  4  2  0  0  0  0
  8 10  1  0  0  0  0
  9  8  2  0  0  0  0
 11 14  1  0  0  0  0
 11 13  2  0  0  0  0
 12 10  1  0  0  0  0
 13  9  1  0  0  0  0
 14 12  2  0  0  0  0
 16 15  1  0  0  0  0
 17 13  1  0  0  0  0
 17 16  1  0  0  0  0
 18 16  2  0  0  0  0
 20 19  2  0  0  0  0
 20  6  1  0  0  0  0
 21 19  1  0  0  0  0
 22 23  1  6  0  0  0
 22 25  1  0  0  0  0
 22 21  1  0  0  0  0
 24 26  1  0  0  0  0
 25 27  1  0  0  0  0
 26 29  1  1  0  0  0
 26 30  1  0  0  0  0
 27 26  1  0  0  0  0
 28 25  1  0  0  0  0
 28 24  1  0  0  0  0
M  END
>  <MODEL>
5

>  <REMARK>
 VINA RESULT:      -7.1      2.279      5.322
  Name = 
  6 active torsions:
  status: ('A' for Active; 'I' for Inactive)
    1  A    between atoms: C_1  and  C_4
    2  A    between atoms: C_4  and  C_27
    3  A    between atoms: C_5  and  C_22
    4  A    between atoms: N_8  and  C_27
    5  A    between atoms: N_16  and  C_25
    6  A    between atoms: C_19  and  C_29
                            x       y       z     vdW  Elec       q    Type
                         _______ _______ _______ _____ _____    ______ ____

>  <TORSDO>
F 6

$$$$
=
 OpenBabel11052417103D

 30 32  0  0  1  0  0  0  0  0999 V2000
  194.7160  176.4900  144.8860 C   0  0  0  0  0  0  0  0  0  0  0  0
  195.8170  176.0930  144.1990 N   0  0  0  0  0  0  0  0  0  0  0  0
  194.9040  177.8900  145.9350 Cl  0  0  0  0  0  0  0  0  0  0  0  0
  193.5100  174.6340  143.8930 C   0  0  0  0  0  0  0  0  0  0  0  0
  195.7980  175.0070  143.3920 C   0  0  0  0  0  3  0  0  0  0  0  0
  193.5050  175.7590  144.7580 C   0  0  0  0  0  0  0  0  0  0  0  0
  194.6580  174.2920  143.2470 N   0  0  0  0  0  0  0  0  0  0  0  0
  189.7090  172.3500  144.3250 C   0  0  0  0  0  3  0  0  0  0  0  0
  189.2820  173.3220  143.5190 C   0  0  0  0  0  3  0  0  0  0  0  0
  191.0460  171.7100  144.1730 C   0  0  0  0  0  2  0  0  0  0  0  0
  191.3960  174.1660  142.5320 C   0  0  0  0  0  3  0  0  0  0  0  0
  192.1410  172.7000  144.3870 C   0  0  0  0  0  3  0  0  0  0  0  0
  190.0780  173.9400  142.4320 C   0  0  0  0  0  0  0  0  0  0  0  0
  192.3030  173.8060  143.6520 C   0  0  0  0  0  0  0  0  0  0  0  0
  189.0480  172.3480  140.0850 O   0  0  0  0  0  1  0  0  0  0  0  0
  188.8990  173.7280  140.1660 C   0  0  0  0  0  0  0  0  0  0  0  0
  189.4210  174.4700  141.2740 N   0  0  0  0  0  2  0  0  0  0  0  0
  188.3040  174.3370  139.2410 O   0  0  0  0  0  0  0  0  0  0  0  0
  191.2920  176.8730  145.1320 C   0  0  0  0  0  3  0  0  0  0  0  0
  192.2700  176.0690  145.5210 C   0  0  0  0  0  3  0  0  0  0  0  0
  190.1160  177.0770  146.0180 C   0  0  0  0  0  2  0  0  0  0  0  0
  188.8130  176.8810  145.2340 C   0  0  2  0  0  3  0  0  0  0  0  0
  188.9770  177.3080  143.7820 C   0  0  0  0  0  1  0  0  0  0  0  0
  185.3510  176.9350  146.1470 C   0  0  0  0  0  2  0  0  0  0  0  0
  187.6550  177.5540  145.8420 N   0  0  0  0  0  0  0  0  0  0  0  0
  185.4720  177.6220  144.8150 C   0  0  2  0  0  0  0  0  0  0  0  0
  186.8710  178.1950  144.7870 C   0  0  0  0  0  2  0  0  0  0  0  0
  186.7750  176.6000  146.5240 C   0  0  0  0  0  2  0  0  0  0  0  0
  184.4400  178.7230  144.6890 C   0  0  0  0  0  1  0  0  0  0  0  0
  185.3170  176.7050  143.7930 F   0  0  0  0  0  0  0  0  0  0  0  0
  1  3  1  0  0  0  0
  2  1  2  0  0  0  0
  4  6  2  0  0  0  0
  5  2  1  0  0  0  0
  6  1  1  0  0  0  0
  6 20  1  0  0  0  0
  7  5  2  0  0  0  0
  7  4  1  0  0  0  0
  9  8  2  0  0  0  0
 10  8  1  0  0  0  0
 10 12  1  0  0  0  0
 11 14  1  0  0  0  0
 13 11  2  0  0  0  0
 13  9  1  0  0  0  0
 14  4  1  0  0  0  0
 14 12  2  0  0  0  0
 15 16  1  0  0  0  0
 16 17  1  0  0  0  0
 17 13  1  0  0  0  0
 18 16  2  0  0  0  0
 19 20  2  0  0  0  0
 19 21  1  0  0  0  0
 22 23  1  6  0  0  0
 22 25  1  0  0  0  0
 22 21  1  0  0  0  0
 24 28  1  0  0  0  0
 25 28  1  0  0  0  0
 26 29  1  6  0  0  0
 26 24  1  0  0  0  0
 27 26  1  0  0  0  0
 27 25  1  0  0  0  0
 30 26  1  0  0  0  0
M  END
>  <MODEL>
6

>  <REMARK>
 VINA RESULT:      -7.0      3.716      5.369
  Name = 
  6 active torsions:
  status: ('A' for Active; 'I' for Inactive)
    1  A    between atoms: C_1  and  C_4
    2  A    between atoms: C_4  and  C_27
    3  A    between atoms: C_5  and  C_22
    4  A    between atoms: N_8  and  C_27
    5  A    between atoms: N_16  and  C_25
    6  A    between atoms: C_19  and  C_29
                            x       y       z     vdW  Elec       q    Type
                         _______ _______ _______ _____ _____    ______ ____

>  <TORSDO>
F 6

$$$$
=
 OpenBabel11052417103D

 30 32  0  0  1  0  0  0  0  0999 V2000
  186.7040  178.0420  142.7540 C   0  0  0  0  0  0  0  0  0  0  0  0
  186.3040  178.2630  141.4750 N   0  0  0  0  0  0  0  0  0  0  0  0
  186.1400  179.1890  143.9640 Cl  0  0  0  0  0  0  0  0  0  0  0  0
  187.9540  176.1210  141.9610 C   0  0  0  0  0  0  0  0  0  0  0  0
  186.7060  177.4650  140.4590 C   0  0  0  0  0  3  0  0  0  0  0  0
  187.5600  176.9480  143.0450 C   0  0  0  0  0  0  0  0  0  0  0  0
  187.5210  176.4130  140.7050 N   0  0  0  0  0  0  0  0  0  0  0  0
  189.9160  172.1380  141.5860 C   0  0  0  0  0  3  0  0  0  0  0  0
  190.9380  172.9130  141.2260 C   0  0  0  0  0  3  0  0  0  0  0  0
  188.9840  172.5000  142.6910 C   0  0  0  0  0  2  0  0  0  0  0  0
  190.2970  175.1170  142.1670 C   0  0  0  0  0  3  0  0  0  0  0  0
  188.2380  173.7520  142.3740 C   0  0  0  0  0  3  0  0  0  0  0  0
  191.2470  174.2420  141.8040 C   0  0  0  0  0  0  0  0  0  0  0  0
  188.8240  174.9320  142.1370 C   0  0  0  0  0  0  0  0  0  0  0  0
  193.1300  174.4800  139.4590 O   0  0  0  0  0  0  0  0  0  0  0  0
  193.4990  174.8560  140.7450 C   0  0  0  0  0  0  0  0  0  0  0  0
  192.6020  174.7070  141.8520 N   0  0  0  0  0  2  0  0  0  0  0  0
  194.6490  175.3240  140.9430 O   0  0  0  0  0  1  0  0  0  0  0  0
  189.1050  177.3150  144.9830 C   0  0  0  0  0  3  0  0  0  0  0  0
  188.1110  176.6680  144.3950 C   0  0  0  0  0  3  0  0  0  0  0  0
  189.5380  176.9110  146.3460 C   0  0  0  0  0  2  0  0  0  0  0  0
  189.8920  175.4200  146.3780 C   0  0  2  0  0  3  0  0  0  0  0  0
  188.9770  174.6600  147.3270 C   0  0  0  0  0  1  0  0  0  0  0  0
  193.2900  176.5130  146.6670 C   0  0  0  0  0  2  0  0  0  0  0  0
  191.3030  175.1580  146.7010 N   0  0  0  0  0  0  0  0  0  0  0  0
  193.1380  175.8820  145.3110 C   0  0  2  0  0  0  0  0  0  0  0  0
  192.0270  174.8670  145.4650 C   0  0  0  0  0  2  0  0  0  0  0  0
  191.9390  176.3260  147.3180 C   0  0  0  0  0  2  0  0  0  0  0  0
  194.4260  175.2040  144.8920 C   0  0  0  0  0  1  0  0  0  0  0  0
  192.7780  176.8380  144.3800 F   0  0  0  0  0  0  0  0  0  0  0  0
  1  6  1  0  0  0  0
  1  3  1  0  0  0  0
  2  1  2  0  0  0  0
  4 14  1  0  0  0  0
  4  6  2  0  0  0  0
  5  7  2  0  0  0  0
  5  2  1  0  0  0  0
  6 20  1  0  0  0  0
  7  4  1  0  0  0  0
  8 10  1  0  0  0  0
  9  8  2  0  0  0  0
  9 13  1  0  0  0  0
 12 10  1  0  0  0  0
 13 17  1  0  0  0  0
 13 11  2  0  0  0  0
 14 11  1  0  0  0  0
 14 12  2  0  0  0  0
 15 16  2  0  0  0  0
 16 18  1  0  0  0  0
 16 17  1  0  0  0  0
 19 21  1  0  0  0  0
 20 19  2  0  0  0  0
 21 22  1  0  0  0  0
 22 25  1  0  0  0  0
 22 23  1  1  0  0  0
 24 28  1  0  0  0  0
 25 28  1  0  0  0  0
 26 29  1  6  0  0  0
 26 27  1  0  0  0  0
 26 24  1  0  0  0  0
 27 25  1  0  0  0  0
 30 26  1  0  0  0  0
M  END
>  <MODEL>
7

>  <REMARK>
 VINA RESULT:      -6.9      2.917      6.079
  Name = 
  6 active torsions:
  status: ('A' for Active; 'I' for Inactive)
    1  A    between atoms: C_1  and  C_4
    2  A    between atoms: C_4  and  C_27
    3  A    between atoms: C_5  and  C_22
    4  A    between atoms: N_8  and  C_27
    5  A    between atoms: N_16  and  C_25
    6  A    between atoms: C_19  and  C_29
                            x       y       z     vdW  Elec       q    Type
                         _______ _______ _______ _____ _____    ______ ____

>  <TORSDO>
F 6

$$$$
=
 OpenBabel11052417103D

 30 32  0  0  1  0  0  0  0  0999 V2000
  189.2540  174.2810  141.8810 C   0  0  0  0  0  0  0  0  0  0  0  0
  189.7640  173.8670  140.6930 N   0  0  0  0  0  0  0  0  0  0  0  0
  187.5010  174.2560  142.0360 Cl  0  0  0  0  0  0  0  0  0  0  0  0
  191.5200  174.7210  142.6250 C   0  0  0  0  0  0  0  0  0  0  0  0
  191.0950  173.8790  140.4500 C   0  0  0  0  0  3  0  0  0  0  0  0
  190.1280  174.7340  142.9030 C   0  0  0  0  0  0  0  0  0  0  0  0
  191.9540  174.3020  141.4060 N   0  0  0  0  0  0  0  0  0  0  0  0
  193.6230  176.4240  146.1650 C   0  0  0  0  0  3  0  0  0  0  0  0
  193.8490  175.1300  146.3860 C   0  0  0  0  0  3  0  0  0  0  0  0
  193.6740  177.0270  144.8030 C   0  0  0  0  0  2  0  0  0  0  0  0
  193.4920  174.1320  144.1420 C   0  0  0  0  0  3  0  0  0  0  0  0
  192.6240  176.4440  143.9190 C   0  0  0  0  0  3  0  0  0  0  0  0
  194.1050  174.1170  145.3350 C   0  0  0  0  0  0  0  0  0  0  0  0
  192.5380  175.1430  143.6190 C   0  0  0  0  0  0  0  0  0  0  0  0
  197.1000  174.1090  145.7040 O   0  0  0  0  0  0  0  0  0  0  0  0
  196.3360  172.9550  145.8330 C   0  0  0  0  0  0  0  0  0  0  0  0
  194.9190  172.9720  145.6250 N   0  0  0  0  0  2  0  0  0  0  0  0
  196.9030  171.8720  146.1260 O   0  0  0  0  0  1  0  0  0  0  0  0
  189.4260  174.5710  145.3020 C   0  0  0  0  0  3  0  0  0  0  0  0
  189.6640  175.2740  144.2060 C   0  0  0  0  0  3  0  0  0  0  0  0
  188.9650  175.2660  146.5330 C   0  0  0  0  0  2  0  0  0  0  0  0
  189.0400  176.7870  146.3520 C   0  0  2  0  0  3  0  0  0  0  0  0
  190.1140  177.3920  147.2450 C   0  0  0  0  0  1  0  0  0  0  0  0
  185.4600  176.7730  146.3480 C   0  0  0  0  0  2  0  0  0  0  0  0
  187.7530  177.4670  146.5580 N   0  0  0  0  0  0  0  0  0  0  0  0
  185.9050  177.3030  145.0140 C   0  0  2  0  0  0  0  0  0  0  0  0
  187.2540  177.9400  145.2670 C   0  0  0  0  0  2  0  0  0  0  0  0
  186.7460  176.5570  147.1110 C   0  0  0  0  0  2  0  0  0  0  0  0
  184.9200  178.3290  144.4930 C   0  0  0  0  0  1  0  0  0  0  0  0
  186.0350  176.2660  144.1100 F   0  0  0  0  0  0  0  0  0  0  0  0
  1  3  1  0  0  0  0
  1  6  1  0  0  0  0
  2  1  2  0  0  0  0
  4  6  2  0  0  0  0
  4 14  1  0  0  0  0
  5  2  1  0  0  0  0
  5  7  2  0  0  0  0
  6 20  1  0  0  0  0
  7  4  1  0  0  0  0
  8  9  2  0  0  0  0
 10  8  1  0  0  0  0
 11 13  2  0  0  0  0
 12 10  1  0  0  0  0
 13 17  1  0  0  0  0
 13  9  1  0  0  0  0
 14 12  2  0  0  0  0
 14 11  1  0  0  0  0
 15 16  2  0  0  0  0
 16 18  1  0  0  0  0
 17 16  1  0  0  0  0
 19 21  1  0  0  0  0
 20 19  2  0  0  0  0
 22 21  1  0  0  0  0
 22 25  1  0  0  0  0
 22 23  1  1  0  0  0
 24 28  1  0  0  0  0
 25 28  1  0  0  0  0
 26 29  1  6  0  0  0
 26 27  1  0  0  0  0
 26 24  1  0  0  0  0
 27 25  1  0  0  0  0
 30 26  1  0  0  0  0
M  END
>  <MODEL>
8

>  <REMARK>
 VINA RESULT:      -6.9      2.459      3.675
  Name = 
  6 active torsions:
  status: ('A' for Active; 'I' for Inactive)
    1  A    between atoms: C_1  and  C_4
    2  A    between atoms: C_4  and  C_27
    3  A    between atoms: C_5  and  C_22
    4  A    between atoms: N_8  and  C_27
    5  A    between atoms: N_16  and  C_25
    6  A    between atoms: C_19  and  C_29
                            x       y       z     vdW  Elec       q    Type
                         _______ _______ _______ _____ _____    ______ ____

>  <TORSDO>
F 6

$$$$
=
 OpenBabel11052417103D

 30 32  0  0  1  0  0  0  0  0999 V2000
  186.3480  178.3830  142.4980 C   0  0  0  0  0  0  0  0  0  0  0  0
  185.5610  179.1660  143.2790 N   0  0  0  0  0  0  0  0  0  0  0  0
  186.0310  178.4250  140.7680 Cl  0  0  0  0  0  0  0  0  0  0  0  0
  187.4650  177.6160  144.5100 C   0  0  0  0  0  0  0  0  0  0  0  0
  185.6920  179.1860  144.6250 C   0  0  0  0  0  3  0  0  0  0  0  0
  187.3410  177.5640  143.0970 C   0  0  0  0  0  0  0  0  0  0  0  0
  186.6310  178.4180  145.2260 N   0  0  0  0  0  0  0  0  0  0  0  0
  189.8950  174.3420  146.3070 C   0  0  0  0  0  3  0  0  0  0  0  0
  190.8010  174.8430  145.4680 C   0  0  0  0  0  3  0  0  0  0  0  0
  188.9600  175.2020  147.0860 C   0  0  0  0  0  2  0  0  0  0  0  0
  189.9200  177.1190  145.0250 C   0  0  0  0  0  3  0  0  0  0  0  0
  188.0540  175.9660  146.1810 C   0  0  0  0  0  3  0  0  0  0  0  0
  190.9590  176.2800  145.1430 C   0  0  0  0  0  0  0  0  0  0  0  0
  188.4810  176.8300  145.2520 C   0  0  0  0  0  0  0  0  0  0  0  0
  193.3940  176.3990  146.9210 O   0  0  0  0  0  1  0  0  0  0  0  0
  193.4200  176.8320  145.6000 C   0  0  0  0  0  0  0  0  0  0  0  0
  192.2470  176.7960  144.7800 N   0  0  0  0  0  2  0  0  0  0  0  0
  194.4940  177.2760  145.1210 O   0  0  0  0  0  0  0  0  0  0  0  0
  187.8170  175.4650  141.8150 C   0  0  0  0  0  3  0  0  0  0  0  0
  188.1990  176.6200  142.3380 C   0  0  0  0  0  3  0  0  0  0  0  0
  188.8040  174.6330  141.0780 C   0  0  0  0  0  2  0  0  0  0  0  0
  188.5310  173.1420  141.3110 C   0  0  2  0  0  3  0  0  0  0  0  0
  188.9030  172.7330  142.7290 C   0  0  0  0  0  1  0  0  0  0  0  0
  190.8960  172.6170  138.6750 C   0  0  0  0  0  2  0  0  0  0  0  0
  189.1890  172.2640  140.3310 N   0  0  0  0  0  0  0  0  0  0  0  0
  189.5660  172.8920  138.0310 C   0  0  2  0  0  0  0  0  0  0  0  0
  188.5330  172.4260  139.0340 C   0  0  0  0  0  2  0  0  0  0  0  0
  190.6010  172.6170  140.1560 C   0  0  0  0  0  2  0  0  0  0  0  0
  189.4340  172.1250  136.7320 C   0  0  0  0  0  1  0  0  0  0  0  0
  189.4210  174.2470  137.8010 F   0  0  0  0  0  0  0  0  0  0  0  0
  1  6  2  0  0  0  0
  1  2  1  0  0  0  0
  2  5  2  0  0  0  0
  3  1  1  0  0  0  0
  4  7  2  0  0  0  0
  4 14  1  0  0  0  0
  5  7  1  0  0  0  0
  6  4  1  0  0  0  0
  8 10  1  0  0  0  0
  9  8  2  0  0  0  0
 11 13  2  0  0  0  0
 11 14  1  0  0  0  0
 12 10  1  0  0  0  0
 13  9  1  0  0  0  0
 14 12  2  0  0  0  0
 16 15  1  0  0  0  0
 17 13  1  0  0  0  0
 17 16  1  0  0  0  0
 18 16  2  0  0  0  0
 19 20  2  0  0  0  0
 20  6  1  0  0  0  0
 21 22  1  0  0  0  0
 21 19  1  0  0  0  0
 22 23  1  1  0  0  0
 24 28  1  0  0  0  0
 25 22  1  0  0  0  0
 26 29  1  6  0  0  0
 26 24  1  0  0  0  0
 26 27  1  0  0  0  0
 27 25  1  0  0  0  0
 28 25  1  0  0  0  0
 30 26  1  0  0  0  0
M  END
>  <MODEL>
9

>  <REMARK>
 VINA RESULT:      -6.8      2.717      5.763
  Name = 
  6 active torsions:
  status: ('A' for Active; 'I' for Inactive)
    1  A    between atoms: C_1  and  C_4
    2  A    between atoms: C_4  and  C_27
    3  A    between atoms: C_5  and  C_22
    4  A    between atoms: N_8  and  C_27
    5  A    between atoms: N_16  and  C_25
    6  A    between atoms: C_19  and  C_29
                            x       y       z     vdW  Elec       q    Type
                         _______ _______ _______ _____ _____    ______ ____

>  <TORSDO>
F 6

$$$$
