=
 OpenBabel11052418053D

 28 31  0  0  0  0  0  0  0  0999 V2000
  190.7160  174.5980  143.7680 C   0  0  0  0  0  0  0  0  0  0  0  0
  190.4190  173.4240  139.6340 C   0  0  0  0  0  1  0  0  0  0  0  0
  187.5610  176.2840  142.9400 C   0  0  0  0  0  0  0  0  0  0  0  0
  189.4900  174.6350  141.6520 C   0  0  0  0  0  0  0  0  0  0  0  0
  188.5560  175.7930  143.6170 N   0  0  0  0  0  0  0  0  0  0  0  0
  191.6010  173.4540  141.8140 C   0  0  0  0  0  3  0  0  0  0  0  0
  188.2470  174.9840  140.8770 C   0  0  0  0  0  2  0  0  0  0  0  0
  190.4990  173.8550  141.0600 C   0  0  0  0  0  0  0  0  0  0  0  0
  187.4730  176.0340  141.5310 N   0  0  0  0  0  2  0  0  0  0  0  0
  191.7080  173.8210  143.1540 C   0  0  0  0  0  3  0  0  0  0  0  0
  189.5950  175.0080  143.0090 C   0  0  0  0  0  0  0  0  0  0  0  0
  186.0850  176.7050  144.8070 C   0  0  0  0  0  3  0  0  0  0  0  0
  185.7060  179.4800  143.5780 C   0  0  0  0  0  3  0  0  0  0  0  0
  185.4630  178.7820  145.9570 C   0  0  0  0  0  0  0  0  0  0  0  0
  186.5310  177.1120  143.6120 C   0  0  0  0  0  0  0  0  0  0  0  0
  185.9350  178.3520  141.5900 F   0  0  0  0  0  0  0  0  0  0  0  0
  185.7090  179.7130  145.0350 C   0  0  0  0  0  3  0  0  0  0  0  0
  186.0100  178.3390  142.9440 C   0  0  0  0  0  0  0  0  0  0  0  0
  185.5160  179.1560  147.3940 C   0  0  0  0  0  1  0  0  0  0  0  0
  185.0230  177.4060  145.5840 C   0  0  0  0  0  2  0  0  0  0  0  0
  190.8870  174.9830  145.1880 C   0  0  0  0  0  0  0  0  0  0  0  0
  189.9510  174.5580  146.1420 C   0  0  0  0  0  3  0  0  0  0  0  0
  192.0830  176.1740  146.9440 C   0  0  0  0  0  0  0  0  0  0  0  0
  190.0800  174.9300  147.4820 C   0  0  0  0  0  3  0  0  0  0  0  0
  192.8900  176.2250  144.7060 F   0  0  0  0  0  0  0  0  0  0  0  0
  191.9570  175.8040  145.5980 C   0  0  0  0  0  0  0  0  0  0  0  0
  193.1170  176.9550  147.3420 F   0  0  0  0  0  0  0  0  0  0  0  0
  191.1460  175.7360  147.8820 C   0  0  0  0  0  3  0  0  0  0  0  0
  1 21  1  0  0  0  0
  2  8  1  0  0  0  0
  3 15  1  0  0  0  0
  3  5  2  0  0  0  0
  4 11  1  0  0  0  0
  6 10  2  0  0  0  0
  7  9  1  0  0  0  0
  7  4  1  0  0  0  0
  8  4  2  0  0  0  0
  8  6  1  0  0  0  0
  9  3  1  0  0  0  0
 10  1  1  0  0  0  0
 11  5  1  0  0  0  0
 11  1  2  0  0  0  0
 12 20  1  0  0  0  0
 13 17  1  0  0  0  0
 14 19  1  0  0  0  0
 15 12  2  0  0  0  0
 16 18  1  0  0  0  0
 17 14  2  0  0  0  0
 18 13  2  0  0  0  0
 18 15  1  0  0  0  0
 20 14  1  0  0  0  0
 21 26  2  0  0  0  0
 21 22  1  0  0  0  0
 22 24  2  0  0  0  0
 23 27  1  0  0  0  0
 23 28  2  0  0  0  0
 24 28  1  0  0  0  0
 25 26  1  0  0  0  0
 26 23  1  0  0  0  0
M  END
>  <MODEL>
1

>  <REMARK>
 VINA RESULT:      -8.8      0.000      0.000
  Name = 
  2 active torsions:
  status: ('A' for Active; 'I' for Inactive)
    1  A    between atoms: C_1  and  C_2
    2  A    between atoms: C_10  and  C_13
                            x       y       z     vdW  Elec       q    Type
                         _______ _______ _______ _____ _____    ______ ____

>  <TORSDO>
F 2

$$$$
=
 OpenBabel11052418053D

 28 31  0  0  0  0  0  0  0  0999 V2000
  186.2290  177.5920  143.9850 C   0  0  0  0  0  0  0  0  0  0  0  0
  186.3960  177.1310  139.7060 C   0  0  0  0  0  1  0  0  0  0  0  0
  189.3870  175.7350  143.7530 C   0  0  0  0  0  0  0  0  0  0  0  0
  187.3980  176.7700  142.0010 C   0  0  0  0  0  0  0  0  0  0  0  0
  188.4030  176.4390  144.2270 N   0  0  0  0  0  0  0  0  0  0  0  0
  185.2730  177.9150  141.7740 C   0  0  0  0  0  3  0  0  0  0  0  0
  188.6260  176.1620  141.3750 C   0  0  0  0  0  2  0  0  0  0  0  0
  186.3610  177.2660  141.1910 C   0  0  0  0  0  0  0  0  0  0  0  0
  189.4340  175.4390  142.3510 N   0  0  0  0  0  2  0  0  0  0  0  0
  185.2080  178.0770  143.1570 C   0  0  0  0  0  3  0  0  0  0  0  0
  187.3350  176.9330  143.4020 C   0  0  0  0  0  0  0  0  0  0  0  0
  191.6640  175.0160  144.1330 C   0  0  0  0  0  3  0  0  0  0  0  0
  190.9680  175.1780  147.1070 C   0  0  0  0  0  3  0  0  0  0  0  0
  193.1960  175.3860  146.0140 C   0  0  0  0  0  0  0  0  0  0  0  0
  190.4480  175.2250  144.6540 C   0  0  0  0  0  0  0  0  0  0  0  0
  188.8880  174.5110  146.3970 F   0  0  0  0  0  0  0  0  0  0  0  0
  192.3660  175.6440  147.0240 C   0  0  0  0  0  3  0  0  0  0  0  0
  190.1350  174.9400  146.0840 C   0  0  0  0  0  0  0  0  0  0  0  0
  194.5760  175.9350  146.0550 C   0  0  0  0  0  1  0  0  0  0  0  0
  192.8170  174.4660  144.9010 C   0  0  0  0  0  2  0  0  0  0  0  0
  186.1020  177.7680  145.4510 C   0  0  0  0  0  0  0  0  0  0  0  0
  186.0270  176.6420  146.2830 C   0  0  0  0  0  3  0  0  0  0  0  0
  185.8740  179.1900  147.4150 C   0  0  0  0  0  0  0  0  0  0  0  0
  185.8830  176.7850  147.6650 C   0  0  0  0  0  3  0  0  0  0  0  0
  186.0990  180.1660  145.2560 F   0  0  0  0  0  0  0  0  0  0  0  0
  186.0170  179.0520  146.0280 C   0  0  0  0  0  0  0  0  0  0  0  0
  185.8020  180.4230  147.9730 F   0  0  0  0  0  0  0  0  0  0  0  0
  185.8070  178.0580  148.2300 C   0  0  0  0  0  3  0  0  0  0  0  0
  1 21  1  0  0  0  0
  2  8  1  0  0  0  0
  3  5  2  0  0  0  0
  3 15  1  0  0  0  0
  4 11  2  0  0  0  0
  6 10  1  0  0  0  0
  7  4  1  0  0  0  0
  7  9  1  0  0  0  0
  8  6  2  0  0  0  0
  8  4  1  0  0  0  0
  9  3  1  0  0  0  0
 10  1  2  0  0  0  0
 11  1  1  0  0  0  0
 11  5  1  0  0  0  0
 12 15  2  0  0  0  0
 12 20  1  0  0  0  0
 14 19  1  0  0  0  0
 14 17  2  0  0  0  0
 15 18  1  0  0  0  0
 17 13  1  0  0  0  0
 18 16  1  0  0  0  0
 18 13  2  0  0  0  0
 20 14  1  0  0  0  0
 21 26  2  0  0  0  0
 21 22  1  0  0  0  0
 22 24  2  0  0  0  0
 23 27  1  0  0  0  0
 23 28  2  0  0  0  0
 24 28  1  0  0  0  0
 25 26  1  0  0  0  0
 26 23  1  0  0  0  0
M  END
>  <MODEL>
2

>  <REMARK>
 VINA RESULT:      -8.8      2.198      6.163
  Name = 
  2 active torsions:
  status: ('A' for Active; 'I' for Inactive)
    1  A    between atoms: C_1  and  C_2
    2  A    between atoms: C_10  and  C_13
                            x       y       z     vdW  Elec       q    Type
                         _______ _______ _______ _____ _____    ______ ____

>  <TORSDO>
F 2

$$$$
=
 OpenBabel11052418053D

 28 31  0  0  0  0  0  0  0  0999 V2000
  187.5620  177.1760  145.6030 C   0  0  0  0  0  0  0  0  0  0  0  0
  184.0400  179.1230  144.0680 C   0  0  0  0  0  1  0  0  0  0  0  0
  187.7120  175.9470  142.1460 C   0  0  0  0  0  0  0  0  0  0  0  0
  186.0600  177.6380  143.7280 C   0  0  0  0  0  0  0  0  0  0  0  0
  188.0420  176.2170  143.3740 N   0  0  0  0  0  0  0  0  0  0  0  0
  185.6070  178.5860  145.9140 C   0  0  0  0  0  3  0  0  0  0  0  0
  185.7520  177.5470  142.2570 C   0  0  0  0  0  2  0  0  0  0  0  0
  185.2590  178.4270  144.5730 C   0  0  0  0  0  0  0  0  0  0  0  0
  186.4860  176.4630  141.6130 N   0  0  0  0  0  2  0  0  0  0  0  0
  186.7470  177.9660  146.4230 C   0  0  0  0  0  3  0  0  0  0  0  0
  187.2160  177.0110  144.2420 C   0  0  0  0  0  0  0  0  0  0  0  0
  189.7280  174.6480  141.8430 C   0  0  0  0  0  3  0  0  0  0  0  0
  188.3960  173.6140  139.2900 C   0  0  0  0  0  3  0  0  0  0  0  0
  190.1360  172.5170  140.6950 C   0  0  0  0  0  0  0  0  0  0  0  0
  188.5880  175.0980  141.3030 C   0  0  0  0  0  0  0  0  0  0  0  0
  187.5000  175.7270  139.2050 F   0  0  0  0  0  0  0  0  0  0  0  0
  189.1230  172.4490  139.8320 C   0  0  0  0  0  3  0  0  0  0  0  0
  188.1990  174.7940  139.8960 C   0  0  0  0  0  0  0  0  0  0  0  0
  190.7670  171.2580  141.1690 C   0  0  0  0  0  1  0  0  0  0  0  0
  190.7290  173.8230  141.1080 C   0  0  0  0  0  2  0  0  0  0  0  0
  188.7500  176.5190  146.1960 C   0  0  0  0  0  0  0  0  0  0  0  0
  188.5870  175.3880  147.0080 C   0  0  0  0  0  3  0  0  0  0  0  0
  191.1520  176.4070  146.5840 C   0  0  0  0  0  0  0  0  0  0  0  0
  189.6910  174.7680  147.5980 C   0  0  0  0  0  3  0  0  0  0  0  0
  190.2460  178.1190  145.2010 F   0  0  0  0  0  0  0  0  0  0  0  0
  190.0470  177.0330  145.9910 C   0  0  0  0  0  0  0  0  0  0  0  0
  192.4010  176.8940  146.3800 F   0  0  0  0  0  0  0  0  0  0  0  0
  190.9730  175.2770  147.3840 C   0  0  0  0  0  3  0  0  0  0  0  0
  1 21  1  0  0  0  0
  1 10  1  0  0  0  0
  2  8  1  0  0  0  0
  3  5  2  0  0  0  0
  4 11  1  0  0  0  0
  4  8  2  0  0  0  0
  5 11  1  0  0  0  0
  6 10  2  0  0  0  0
  7  4  1  0  0  0  0
  8  6  1  0  0  0  0
  9  3  1  0  0  0  0
  9  7  1  0  0  0  0
 11  1  2  0  0  0  0
 13 17  1  0  0  0  0
 13 18  2  0  0  0  0
 14 20  1  0  0  0  0
 14 19  1  0  0  0  0
 15 12  2  0  0  0  0
 15  3  1  0  0  0  0
 16 18  1  0  0  0  0
 17 14  2  0  0  0  0
 18 15  1  0  0  0  0
 20 12  1  0  0  0  0
 21 22  1  0  0  0  0
 22 24  2  0  0  0  0
 23 28  2  0  0  0  0
 25 26  1  0  0  0  0
 26 21  2  0  0  0  0
 26 23  1  0  0  0  0
 27 23  1  0  0  0  0
 28 24  1  0  0  0  0
M  END
>  <MODEL>
3

>  <REMARK>
 VINA RESULT:      -8.7      1.631      5.685
  Name = 
  2 active torsions:
  status: ('A' for Active; 'I' for Inactive)
    1  A    between atoms: C_1  and  C_2
    2  A    between atoms: C_10  and  C_13
                            x       y       z     vdW  Elec       q    Type
                         _______ _______ _______ _____ _____    ______ ____

>  <TORSDO>
F 2

$$$$
=
 OpenBabel11052418053D

 28 31  0  0  0  0  0  0  0  0999 V2000
  188.7950  176.7640  145.9620 C   0  0  0  0  0  0  0  0  0  0  0  0
  184.6560  177.8940  145.5790 C   0  0  0  0  0  1  0  0  0  0  0  0
  188.1430  175.3580  142.6330 C   0  0  0  0  0  0  0  0  0  0  0  0
  186.7370  176.8040  144.6400 C   0  0  0  0  0  0  0  0  0  0  0  0
  188.7650  175.7670  143.6990 N   0  0  0  0  0  0  0  0  0  0  0  0
  186.7810  177.7920  146.8540 C   0  0  0  0  0  3  0  0  0  0  0  0
  186.0260  176.5580  143.3360 C   0  0  0  0  0  2  0  0  0  0  0  0
  186.0850  177.4810  145.6870 C   0  0  0  0  0  0  0  0  0  0  0  0
  186.7350  175.5930  142.5020 N   0  0  0  0  0  2  0  0  0  0  0  0
  188.1220  177.4380  146.9900 C   0  0  0  0  0  3  0  0  0  0  0  0
  188.0960  176.4450  144.7750 C   0  0  0  0  0  0  0  0  0  0  0  0
  190.0100  174.0080  141.9020 C   0  0  0  0  0  3  0  0  0  0  0  0
  188.4100  173.6100  139.3260 C   0  0  0  0  0  3  0  0  0  0  0  0
  190.1460  172.1310  140.3260 C   0  0  0  0  0  0  0  0  0  0  0  0
  188.8770  174.6380  141.5660 C   0  0  0  0  0  0  0  0  0  0  0  0
  187.6970  175.7550  139.7370 F   0  0  0  0  0  0  0  0  0  0  0  0
  189.0700  172.3110  139.5610 C   0  0  0  0  0  3  0  0  0  0  0  0
  188.3610  174.6530  140.1670 C   0  0  0  0  0  0  0  0  0  0  0  0
  190.6970  170.7600  140.4870 C   0  0  0  0  0  1  0  0  0  0  0  0
  190.8790  173.2800  140.9340 C   0  0  0  0  0  2  0  0  0  0  0  0
  190.2140  176.3880  146.1630 C   0  0  0  0  0  0  0  0  0  0  0  0
  190.5490  175.4260  147.1270 C   0  0  0  0  0  3  0  0  0  0  0  0
  192.5810  176.6520  145.6540 C   0  0  0  0  0  0  0  0  0  0  0  0
  191.8820  175.0750  147.3500 C   0  0  0  0  0  3  0  0  0  0  0  0
  190.9580  177.9340  144.4770 F   0  0  0  0  0  0  0  0  0  0  0  0
  191.2450  177.0080  145.4280 C   0  0  0  0  0  0  0  0  0  0  0  0
  193.5730  177.2390  144.9410 F   0  0  0  0  0  0  0  0  0  0  0  0
  192.8970  175.6870  146.6130 C   0  0  0  0  0  3  0  0  0  0  0  0
  1 21  1  0  0  0  0
  1 10  1  0  0  0  0
  2  8  1  0  0  0  0
  3  5  2  0  0  0  0
  4 11  1  0  0  0  0
  4  8  2  0  0  0  0
  5 11  1  0  0  0  0
  6 10  2  0  0  0  0
  7  4  1  0  0  0  0
  8  6  1  0  0  0  0
  9  3  1  0  0  0  0
  9  7  1  0  0  0  0
 11  1  2  0  0  0  0
 13 17  1  0  0  0  0
 13 18  2  0  0  0  0
 14 19  1  0  0  0  0
 14 20  1  0  0  0  0
 15 12  2  0  0  0  0
 15  3  1  0  0  0  0
 16 18  1  0  0  0  0
 17 14  2  0  0  0  0
 18 15  1  0  0  0  0
 20 12  1  0  0  0  0
 21 22  1  0  0  0  0
 22 24  2  0  0  0  0
 23 28  2  0  0  0  0
 25 26  1  0  0  0  0
 26 23  1  0  0  0  0
 26 21  2  0  0  0  0
 27 23  1  0  0  0  0
 28 24  1  0  0  0  0
M  END
>  <MODEL>
4

>  <REMARK>
 VINA RESULT:      -8.7      1.680      5.663
  Name = 
  2 active torsions:
  status: ('A' for Active; 'I' for Inactive)
    1  A    between atoms: C_1  and  C_2
    2  A    between atoms: C_10  and  C_13
                            x       y       z     vdW  Elec       q    Type
                         _______ _______ _______ _____ _____    ______ ____

>  <TORSDO>
F 2

$$$$
=
 OpenBabel11052418053D

 28 31  0  0  0  0  0  0  0  0999 V2000
  191.5720  174.5780  143.3030 C   0  0  0  0  0  0  0  0  0  0  0  0
  189.6520  172.8600  139.8510 C   0  0  0  0  0  1  0  0  0  0  0  0
  188.2240  176.0160  143.7590 C   0  0  0  0  0  0  0  0  0  0  0  0
  189.5640  174.2890  141.9370 C   0  0  0  0  0  0  0  0  0  0  0  0
  189.4540  175.6580  143.9840 N   0  0  0  0  0  0  0  0  0  0  0  0
  191.6420  173.2230  141.2860 C   0  0  0  0  0  3  0  0  0  0  0  0
  188.0830  174.4840  141.7470 C   0  0  0  0  0  2  0  0  0  0  0  0
  190.2920  173.4780  141.0480 C   0  0  0  0  0  0  0  0  0  0  0  0
  187.5680  175.5790  142.5620 N   0  0  0  0  0  2  0  0  0  0  0  0
  192.2760  173.7670  142.4020 C   0  0  0  0  0  3  0  0  0  0  0  0
  190.2030  174.8410  143.0690 C   0  0  0  0  0  0  0  0  0  0  0  0
  186.9260  177.9940  144.2520 C   0  0  0  0  0  3  0  0  0  0  0  0
  186.4150  176.6930  146.9730 C   0  0  0  0  0  3  0  0  0  0  0  0
  185.0210  178.3600  145.7560 C   0  0  0  0  0  0  0  0  0  0  0  0
  187.5080  176.8840  144.7240 C   0  0  0  0  0  0  0  0  0  0  0  0
  188.5410  175.8700  146.6950 F   0  0  0  0  0  0  0  0  0  0  0  0
  185.1460  177.3670  146.6360 C   0  0  0  0  0  3  0  0  0  0  0  0
  187.4740  176.5190  146.1690 C   0  0  0  0  0  0  0  0  0  0  0  0
  183.6750  178.9360  145.5030 C   0  0  0  0  0  1  0  0  0  0  0  0
  186.2090  178.9860  145.1040 C   0  0  0  0  0  2  0  0  0  0  0  0
  192.2960  175.1530  144.4610 C   0  0  0  0  0  0  0  0  0  0  0  0
  192.0840  174.6290  145.7440 C   0  0  0  0  0  3  0  0  0  0  0  0
  193.8230  176.7890  145.4200 C   0  0  0  0  0  0  0  0  0  0  0  0
  192.7370  175.1720  146.8530 C   0  0  0  0  0  3  0  0  0  0  0  0
  193.4100  176.7750  143.0770 F   0  0  0  0  0  0  0  0  0  0  0  0
  193.1700  176.2480  144.3050 C   0  0  0  0  0  0  0  0  0  0  0  0
  194.6730  177.8350  145.2710 F   0  0  0  0  0  0  0  0  0  0  0  0
  193.6070  176.2500  146.6900 C   0  0  0  0  0  3  0  0  0  0  0  0
  1 21  1  0  0  0  0
  2  8  1  0  0  0  0
  3  5  2  0  0  0  0
  3 15  1  0  0  0  0
  4 11  2  0  0  0  0
  6 10  1  0  0  0  0
  7  4  1  0  0  0  0
  7  9  1  0  0  0  0
  8  6  2  0  0  0  0
  8  4  1  0  0  0  0
  9  3  1  0  0  0  0
 10  1  2  0  0  0  0
 11  1  1  0  0  0  0
 11  5  1  0  0  0  0
 12 15  2  0  0  0  0
 12 20  1  0  0  0  0
 14 17  2  0  0  0  0
 15 18  1  0  0  0  0
 17 13  1  0  0  0  0
 18 16  1  0  0  0  0
 18 13  2  0  0  0  0
 19 14  1  0  0  0  0
 20 14  1  0  0  0  0
 21 22  1  0  0  0  0
 22 24  2  0  0  0  0
 23 28  2  0  0  0  0
 25 26  1  0  0  0  0
 26 21  2  0  0  0  0
 26 23  1  0  0  0  0
 27 23  1  0  0  0  0
 28 24  1  0  0  0  0
M  END
>  <MODEL>
5

>  <REMARK>
 VINA RESULT:      -8.6      1.820      2.316
  Name = 
  2 active torsions:
  status: ('A' for Active; 'I' for Inactive)
    1  A    between atoms: C_1  and  C_2
    2  A    between atoms: C_10  and  C_13
                            x       y       z     vdW  Elec       q    Type
                         _______ _______ _______ _____ _____    ______ ____

>  <TORSDO>
F 2

$$$$
=
 OpenBabel11052418053D

 28 31  0  0  0  0  0  0  0  0999 V2000
  185.1560  178.3380  144.2470 C   0  0  0  0  0  0  0  0  0  0  0  0
  183.8430  178.2720  140.1450 C   0  0  0  0  0  1  0  0  0  0  0  0
  188.2480  177.1080  142.6960 C   0  0  0  0  0  0  0  0  0  0  0  0
  185.6400  177.9090  141.8880 C   0  0  0  0  0  0  0  0  0  0  0  0
  187.4110  177.5810  143.5700 N   0  0  0  0  0  0  0  0  0  0  0  0
  183.4360  178.6660  142.5600 C   0  0  0  0  0  3  0  0  0  0  0  0
  186.6340  177.5870  140.8040 C   0  0  0  0  0  2  0  0  0  0  0  0
  184.3230  178.2750  141.5570 C   0  0  0  0  0  0  0  0  0  0  0  0
  187.8300  176.9430  141.3350 N   0  0  0  0  0  2  0  0  0  0  0  0
  183.8490  178.6970  143.8910 C   0  0  0  0  0  3  0  0  0  0  0  0
  186.0600  177.9410  143.2350 C   0  0  0  0  0  0  0  0  0  0  0  0
  190.3290  177.6070  143.8190 C   0  0  0  0  0  3  0  0  0  0  0  0
  190.9640  174.6370  143.4580 C   0  0  0  0  0  3  0  0  0  0  0  0
  191.8180  176.2140  145.1860 C   0  0  0  0  0  0  0  0  0  0  0  0
  189.6210  176.7250  143.1020 C   0  0  0  0  0  0  0  0  0  0  0  0
  189.7860  174.8840  141.5010 F   0  0  0  0  0  0  0  0  0  0  0  0
  191.5190  174.9800  144.7810 C   0  0  0  0  0  3  0  0  0  0  0  0
  190.1780  175.4050  142.6890 C   0  0  0  0  0  0  0  0  0  0  0  0
  192.3580  176.4150  146.5550 C   0  0  0  0  0  1  0  0  0  0  0  0
  191.7350  177.3840  144.2630 C   0  0  0  0  0  2  0  0  0  0  0  0
  185.5390  178.3650  145.6780 C   0  0  0  0  0  0  0  0  0  0  0  0
  185.9200  179.5750  146.2730 C   0  0  0  0  0  3  0  0  0  0  0  0
  185.9540  177.2330  147.7930 C   0  0  0  0  0  0  0  0  0  0  0  0
  186.3090  179.6190  147.6140 C   0  0  0  0  0  3  0  0  0  0  0  0
  185.1900  175.9960  145.9100 F   0  0  0  0  0  0  0  0  0  0  0  0
  185.5650  177.1850  146.4490 C   0  0  0  0  0  0  0  0  0  0  0  0
  185.9700  176.1020  148.5400 F   0  0  0  0  0  0  0  0  0  0  0  0
  186.3250  178.4480  148.3740 C   0  0  0  0  0  3  0  0  0  0  0  0
  1 21  1  0  0  0  0
  2  8  1  0  0  0  0
  3 15  1  0  0  0  0
  3  5  2  0  0  0  0
  4 11  1  0  0  0  0
  6 10  2  0  0  0  0
  7  9  1  0  0  0  0
  7  4  1  0  0  0  0
  8  4  2  0  0  0  0
  8  6  1  0  0  0  0
  9  3  1  0  0  0  0
 10  1  1  0  0  0  0
 11  5  1  0  0  0  0
 11  1  2  0  0  0  0
 12 20  1  0  0  0  0
 13 17  1  0  0  0  0
 14 19  1  0  0  0  0
 15 12  2  0  0  0  0
 16 18  1  0  0  0  0
 17 14  2  0  0  0  0
 18 15  1  0  0  0  0
 18 13  2  0  0  0  0
 20 14  1  0  0  0  0
 21 22  2  0  0  0  0
 21 26  1  0  0  0  0
 22 24  1  0  0  0  0
 23 28  1  0  0  0  0
 23 27  1  0  0  0  0
 24 28  2  0  0  0  0
 25 26  1  0  0  0  0
 26 23  2  0  0  0  0
M  END
>  <MODEL>
6

>  <REMARK>
 VINA RESULT:      -8.5      2.468      6.264
  Name = 
  2 active torsions:
  status: ('A' for Active; 'I' for Inactive)
    1  A    between atoms: C_1  and  C_2
    2  A    between atoms: C_10  and  C_13
                            x       y       z     vdW  Elec       q    Type
                         _______ _______ _______ _____ _____    ______ ____

>  <TORSDO>
F 2

$$$$
=
 OpenBabel11052418053D

 28 31  0  0  0  0  0  0  0  0999 V2000
  186.2520  177.2580  143.7710 C   0  0  0  0  0  0  0  0  0  0  0  0
  184.7880  178.8220  147.5080 C   0  0  0  0  0  1  0  0  0  0  0  0
  189.3300  176.9410  145.7470 C   0  0  0  0  0  0  0  0  0  0  0  0
  186.6500  177.8230  146.1170 C   0  0  0  0  0  0  0  0  0  0  0  0
  188.4650  176.8210  144.7840 N   0  0  0  0  0  0  0  0  0  0  0  0
  184.4790  178.2340  145.1180 C   0  0  0  0  0  3  0  0  0  0  0  0
  187.5400  177.7770  147.3310 C   0  0  0  0  0  2  0  0  0  0  0  0
  185.3260  178.2850  146.2240 C   0  0  0  0  0  0  0  0  0  0  0  0
  188.9390  177.5680  146.9740 N   0  0  0  0  0  2  0  0  0  0  0  0
  184.9370  177.7250  143.9040 C   0  0  0  0  0  3  0  0  0  0  0  0
  187.1170  177.3070  144.8880 C   0  0  0  0  0  0  0  0  0  0  0  0
  191.5110  177.1030  144.7170 C   0  0  0  0  0  3  0  0  0  0  0  0
  192.4050  175.0970  146.8470 C   0  0  0  0  0  3  0  0  0  0  0  0
  193.7690  176.7840  145.6250 C   0  0  0  0  0  0  0  0  0  0  0  0
  190.7170  176.4480  145.5750 C   0  0  0  0  0  0  0  0  0  0  0  0
  190.2740  174.2730  146.6020 F   0  0  0  0  0  0  0  0  0  0  0  0
  193.5520  176.0110  146.6890 C   0  0  0  0  0  3  0  0  0  0  0  0
  191.1780  175.2450  146.3260 C   0  0  0  0  0  0  0  0  0  0  0  0
  194.9620  177.6700  145.6080 C   0  0  0  0  0  1  0  0  0  0  0  0
  192.9130  176.7010  144.4060 C   0  0  0  0  0  2  0  0  0  0  0  0
  186.6980  176.7480  142.4530 C   0  0  0  0  0  0  0  0  0  0  0  0
  187.3250  175.4970  142.3660 C   0  0  0  0  0  3  0  0  0  0  0  0
  186.9930  177.0230  140.0510 C   0  0  0  0  0  0  0  0  0  0  0  0
  187.7750  175.0090  141.1380 C   0  0  0  0  0  3  0  0  0  0  0  0
  185.9270  178.7280  141.3240 F   0  0  0  0  0  0  0  0  0  0  0  0
  186.5400  177.5170  141.2810 C   0  0  0  0  0  0  0  0  0  0  0  0
  186.8320  177.7550  138.9220 F   0  0  0  0  0  0  0  0  0  0  0  0
  187.6080  175.7710  139.9810 C   0  0  0  0  0  3  0  0  0  0  0  0
  1 10  2  0  0  0  0
  1 11  1  0  0  0  0
  3  9  1  0  0  0  0
  4  8  1  0  0  0  0
  4  7  1  0  0  0  0
  5 11  1  0  0  0  0
  5  3  2  0  0  0  0
  6  8  2  0  0  0  0
  8  2  1  0  0  0  0
  9  7  1  0  0  0  0
 10  6  1  0  0  0  0
 11  4  2  0  0  0  0
 12 15  2  0  0  0  0
 14 17  2  0  0  0  0
 15  3  1  0  0  0  0
 15 18  1  0  0  0  0
 17 13  1  0  0  0  0
 18 16  1  0  0  0  0
 18 13  2  0  0  0  0
 19 14  1  0  0  0  0
 20 12  1  0  0  0  0
 20 14  1  0  0  0  0
 21  1  1  0  0  0  0
 22 21  1  0  0  0  0
 23 26  1  0  0  0  0
 24 22  2  0  0  0  0
 26 25  1  0  0  0  0
 26 21  2  0  0  0  0
 27 23  1  0  0  0  0
 28 23  2  0  0  0  0
 28 24  1  0  0  0  0
M  END
>  <MODEL>
7

>  <REMARK>
 VINA RESULT:      -8.4      2.203      7.410
  Name = 
  2 active torsions:
  status: ('A' for Active; 'I' for Inactive)
    1  A    between atoms: C_1  and  C_2
    2  A    between atoms: C_10  and  C_13
                            x       y       z     vdW  Elec       q    Type
                         _______ _______ _______ _____ _____    ______ ____

>  <TORSDO>
F 2

$$$$
=
 OpenBabel11052418053D

 28 31  0  0  0  0  0  0  0  0999 V2000
  188.9550  176.7430  145.8230 C   0  0  0  0  0  0  0  0  0  0  0  0
  184.8740  178.0300  145.3270 C   0  0  0  0  0  1  0  0  0  0  0  0
  188.1700  174.9160  142.7360 C   0  0  0  0  0  0  0  0  0  0  0  0
  186.8780  176.7070  144.5310 C   0  0  0  0  0  0  0  0  0  0  0  0
  188.8320  175.4380  143.7260 N   0  0  0  0  0  0  0  0  0  0  0  0
  187.0130  177.9940  146.5810 C   0  0  0  0  0  3  0  0  0  0  0  0
  186.1320  176.3160  143.2830 C   0  0  0  0  0  2  0  0  0  0  0  0
  186.2810  177.5590  145.4780 C   0  0  0  0  0  0  0  0  0  0  0  0
  186.7750  175.2060  142.5880 N   0  0  0  0  0  2  0  0  0  0  0  0
  188.3370  177.5910  146.7520 C   0  0  0  0  0  3  0  0  0  0  0  0
  188.2190  176.2970  144.7010 C   0  0  0  0  0  0  0  0  0  0  0  0
  188.9590  174.4240  140.5050 C   0  0  0  0  0  3  0  0  0  0  0  0
  190.4940  172.1220  141.8100 C   0  0  0  0  0  3  0  0  0  0  0  0
  191.0140  173.3460  139.7040 C   0  0  0  0  0  0  0  0  0  0  0  0
  188.8470  174.0130  141.7750 C   0  0  0  0  0  0  0  0  0  0  0  0
  188.6780  172.0430  143.2140 F   0  0  0  0  0  0  0  0  0  0  0  0
  191.3980  172.6250  140.7570 C   0  0  0  0  0  3  0  0  0  0  0  0
  189.3520  172.6860  142.2300 C   0  0  0  0  0  0  0  0  0  0  0  0
  192.0370  173.8010  138.7280 C   0  0  0  0  0  1  0  0  0  0  0  0
  189.5730  173.6110  139.4170 C   0  0  0  0  0  2  0  0  0  0  0  0
  190.3550  176.3220  146.0620 C   0  0  0  0  0  0  0  0  0  0  0  0
  190.6380  175.3700  147.0510 C   0  0  0  0  0  3  0  0  0  0  0  0
  192.7400  176.4940  145.5960 C   0  0  0  0  0  0  0  0  0  0  0  0
  191.9530  174.9790  147.3080 C   0  0  0  0  0  3  0  0  0  0  0  0
  191.1860  177.8070  144.3600 F   0  0  0  0  0  0  0  0  0  0  0  0
  191.4220  176.8910  145.3350 C   0  0  0  0  0  0  0  0  0  0  0  0
  193.7660  177.0320  144.8920 F   0  0  0  0  0  0  0  0  0  0  0  0
  193.0030  175.5400  146.5810 C   0  0  0  0  0  3  0  0  0  0  0  0
  1 21  1  0  0  0  0
  1 10  1  0  0  0  0
  2  8  1  0  0  0  0
  3  5  2  0  0  0  0
  4 11  1  0  0  0  0
  4  8  2  0  0  0  0
  5 11  1  0  0  0  0
  6 10  2  0  0  0  0
  7  4  1  0  0  0  0
  8  6  1  0  0  0  0
  9  3  1  0  0  0  0
  9  7  1  0  0  0  0
 11  1  2  0  0  0  0
 12 15  2  0  0  0  0
 13 18  2  0  0  0  0
 14 17  2  0  0  0  0
 15 18  1  0  0  0  0
 15  3  1  0  0  0  0
 17 13  1  0  0  0  0
 18 16  1  0  0  0  0
 19 14  1  0  0  0  0
 20 14  1  0  0  0  0
 20 12  1  0  0  0  0
 21 22  1  0  0  0  0
 22 24  2  0  0  0  0
 23 28  2  0  0  0  0
 25 26  1  0  0  0  0
 26 23  1  0  0  0  0
 26 21  2  0  0  0  0
 27 23  1  0  0  0  0
 28 24  1  0  0  0  0
M  END
>  <MODEL>
8

>  <REMARK>
 VINA RESULT:      -8.4      1.897      5.874
  Name = 
  2 active torsions:
  status: ('A' for Active; 'I' for Inactive)
    1  A    between atoms: C_1  and  C_2
    2  A    between atoms: C_10  and  C_13
                            x       y       z     vdW  Elec       q    Type
                         _______ _______ _______ _____ _____    ______ ____

>  <TORSDO>
F 2

$$$$
=
 OpenBabel11052418053D

 28 31  0  0  0  0  0  0  0  0999 V2000
  185.5080  177.9600  144.0880 C   0  0  0  0  0  0  0  0  0  0  0  0
  184.8090  177.8980  139.8380 C   0  0  0  0  0  1  0  0  0  0  0  0
  188.7830  176.6990  143.0070 C   0  0  0  0  0  0  0  0  0  0  0  0
  186.3290  177.5220  141.8260 C   0  0  0  0  0  0  0  0  0  0  0  0
  187.8310  177.1810  143.7500 N   0  0  0  0  0  0  0  0  0  0  0  0
  184.0580  178.2990  142.1670 C   0  0  0  0  0  3  0  0  0  0  0  0
  187.4680  177.1890  140.8990 C   0  0  0  0  0  2  0  0  0  0  0  0
  185.0780  177.8990  141.3050 C   0  0  0  0  0  0  0  0  0  0  0  0
  188.5680  176.5350  141.6000 N   0  0  0  0  0  2  0  0  0  0  0  0
  184.2710  178.3300  143.5450 C   0  0  0  0  0  3  0  0  0  0  0  0
  186.5480  177.5520  143.2200 C   0  0  0  0  0  0  0  0  0  0  0  0
  190.0630  175.3650  144.5650 C   0  0  0  0  0  3  0  0  0  0  0  0
  192.5160  176.3450  143.0220 C   0  0  0  0  0  3  0  0  0  0  0  0
  192.2430  174.2580  144.3540 C   0  0  0  0  0  0  0  0  0  0  0  0
  190.0780  176.3050  143.6110 C   0  0  0  0  0  0  0  0  0  0  0  0
  191.2800  178.2650  142.7760 F   0  0  0  0  0  0  0  0  0  0  0  0
  192.8290  174.9460  143.3750 C   0  0  0  0  0  3  0  0  0  0  0  0
  191.3380  176.9680  143.1670 C   0  0  0  0  0  0  0  0  0  0  0  0
  192.6470  172.8470  144.5870 C   0  0  0  0  0  1  0  0  0  0  0  0
  191.2770  174.8970  145.2940 C   0  0  0  0  0  2  0  0  0  0  0  0
  185.6780  177.9860  145.5600 C   0  0  0  0  0  0  0  0  0  0  0  0
  185.6180  176.7900  146.2890 C   0  0  0  0  0  3  0  0  0  0  0  0
  185.9980  179.2010  147.6460 C   0  0  0  0  0  0  0  0  0  0  0  0
  185.7510  176.7960  147.6790 C   0  0  0  0  0  3  0  0  0  0  0  0
  185.9400  180.3780  145.5780 F   0  0  0  0  0  0  0  0  0  0  0  0
  185.8640  179.2010  146.2520 C   0  0  0  0  0  0  0  0  0  0  0  0
  186.1860  180.3660  148.3120 F   0  0  0  0  0  0  0  0  0  0  0  0
  185.9420  178.0000  148.3570 C   0  0  0  0  0  3  0  0  0  0  0  0
  1 21  1  0  0  0  0
  2  8  1  0  0  0  0
  3 15  1  0  0  0  0
  3  5  2  0  0  0  0
  4 11  1  0  0  0  0
  6 10  2  0  0  0  0
  7  9  1  0  0  0  0
  7  4  1  0  0  0  0
  8  4  2  0  0  0  0
  8  6  1  0  0  0  0
  9  3  1  0  0  0  0
 10  1  1  0  0  0  0
 11  5  1  0  0  0  0
 11  1  2  0  0  0  0
 12 20  1  0  0  0  0
 13 18  2  0  0  0  0
 13 17  1  0  0  0  0
 14 19  1  0  0  0  0
 14 20  1  0  0  0  0
 15 12  2  0  0  0  0
 16 18  1  0  0  0  0
 17 14  2  0  0  0  0
 18 15  1  0  0  0  0
 21 26  2  0  0  0  0
 21 22  1  0  0  0  0
 22 24  2  0  0  0  0
 23 27  1  0  0  0  0
 23 28  2  0  0  0  0
 24 28  1  0  0  0  0
 25 26  1  0  0  0  0
 26 23  1  0  0  0  0
M  END
>  <MODEL>
9

>  <REMARK>
 VINA RESULT:      -8.3      2.337      6.301
  Name = 
  2 active torsions:
  status: ('A' for Active; 'I' for Inactive)
    1  A    between atoms: C_1  and  C_2
    2  A    between atoms: C_10  and  C_13
                            x       y       z     vdW  Elec       q    Type
                         _______ _______ _______ _____ _____    ______ ____

>  <TORSDO>
F 2

$$$$
