=
 OpenBabel11052420483D

 43 48  0  0  1  0  0  0  0  0999 V2000
  185.8010  178.1650  146.5170 C   0  0  0  0  0  0  0  0  0  0  0  0
  190.4170  175.9360  146.4340 C   0  0  2  0  0  3  0  0  0  0  0  0
  190.3730  173.8130  144.4830 C   0  0  1  0  0  3  0  0  0  0  0  0
  188.0840  177.5910  146.9220 C   0  0  0  0  0  0  0  0  0  0  0  0
  185.5450  176.9310  145.7020 C   0  0  0  0  0  2  0  0  0  0  0  0
  184.8810  179.0080  146.6790 O   0  0  0  0  0  0  0  0  0  0  0  0
  187.9910  176.4910  145.9200 C   0  0  0  0  0  0  0  0  0  0  0  0
  187.0620  178.3540  147.1680 N   0  0  0  0  0  0  0  0  0  0  0  0
  186.8250  176.2540  145.3040 C   0  0  0  0  0  3  0  0  0  0  0  0
  189.0580  174.3760  145.0120 C   0  0  0  0  0  2  0  0  0  0  0  0
  189.2600  175.8380  145.4170 C   0  0  2  0  0  3  0  0  0  0  0  0
  190.5750  177.4010  146.8520 C   0  0  0  0  0  2  0  0  0  0  0  0
  191.6570  175.4050  145.8410 N   0  0  0  0  0  0  0  0  0  0  0  0
  191.4600  173.9860  145.5380 C   0  0  0  0  0  2  0  0  0  0  0  0
  189.3610  177.8290  147.6730 C   0  0  0  0  0  2  0  0  0  0  0  0
  190.2350  172.3700  144.1010 C   0  0  0  0  0  0  0  0  0  0  0  0
  190.7890  171.8840  142.8740 N   0  0  0  0  0  2  0  0  0  0  0  0
  189.6410  171.5670  144.8710 O   0  0  0  0  0  0  0  0  0  0  0  0
  191.6090  172.7100  142.0000 C   0  0  0  0  0  2  0  0  0  0  0  0
  191.4070  172.2890  140.5570 C   0  0  0  0  0  2  0  0  0  0  0  0
  190.8000  173.4340  139.7740 C   0  0  0  0  0  2  0  0  0  0  0  0
  189.3430  173.1320  139.4490 C   0  0  2  0  0  3  0  0  0  0  0  0
  187.9530  174.9400  138.6300 C   0  0  0  0  0  2  0  0  0  0  0  0
  188.0990  174.5610  141.1360 C   0  0  0  0  0  0  0  0  0  0  0  0
  189.1840  172.9550  137.9500 C   0  0  0  0  0  2  0  0  0  0  0  0
  188.5160  174.2780  139.7910 N   0  0  0  0  0  0  0  0  0  0  0  0
  188.0310  173.6180  141.9730 O   0  0  0  0  0  0  0  0  0  0  0  0
  188.5410  174.2320  137.4230 C   0  0  0  0  0  2  0  0  0  0  0  0
  187.7790  175.9380  141.5760 C   0  0  0  0  0  0  0  0  0  0  0  0
  186.1230  177.6430  142.0980 C   0  0  0  0  0  3  0  0  0  0  0  0
  188.4750  178.1020  142.4430 C   0  0  0  0  0  3  0  0  0  0  0  0
  187.1400  178.5160  142.4970 C   0  0  0  0  0  3  0  0  0  0  0  0
  188.7920  176.8170  141.9880 C   0  0  0  0  0  3  0  0  0  0  0  0
  186.4400  176.3590  141.6450 C   0  0  0  0  0  3  0  0  0  0  0  0
  192.7190  175.4500  146.8440 C   0  0  0  0  0  2  0  0  0  0  0  0
  195.3280  176.9300  144.4050 C   0  0  0  0  0  2  0  0  0  0  0  0
  196.0140  175.6270  143.9740 C   0  0  1  0  0  3  0  0  0  0  0  0
  194.7290  174.3830  145.7590 C   0  0  0  0  0  2  0  0  0  0  0  0
  193.9540  176.6600  145.0160 C   0  0  0  0  0  2  0  0  0  0  0  0
  194.0810  175.6980  146.1980 C   0  0  1  0  0  3  0  0  0  0  0  0
  196.1030  174.6450  145.1460 C   0  0  0  0  0  2  0  0  0  0  0  0
  195.6490  175.7970  141.6650 C   0  0  0  0  0  1  0  0  0  0  0  0
  195.3120  175.0210  142.8500 N   0  0  0  0  0  2  0  0  0  0  0  0
  1  6  2  0  0  0  0
  1  8  1  0  0  0  0
  2 12  1  6  0  0  0
  3 16  1  1  0  0  0
  3 10  1  0  0  0  0
  3 14  1  0  0  0  0
  4  8  2  0  0  0  0
  4 15  1  0  0  0  0
  5  1  1  0  0  0  0
  7  4  1  0  0  0  0
  9  5  1  0  0  0  0
  9  7  2  0  0  0  0
 11 10  1  1  0  0  0
 11  7  1  0  0  0  0
 11  2  1  0  0  0  0
 12 15  1  0  0  0  0
 13  2  1  0  0  0  0
 13 35  1  0  0  0  0
 14 13  1  0  0  0  0
 16 18  2  0  0  0  0
 17 16  1  0  0  0  0
 19 17  1  0  0  0  0
 20 19  1  0  0  0  0
 21 20  1  0  0  0  0
 22 21  1  6  0  0  0
 22 26  1  0  0  0  0
 23 26  1  0  0  0  0
 24 29  1  0  0  0  0
 24 27  2  0  0  0  0
 25 22  1  0  0  0  0
 26 24  1  0  0  0  0
 28 25  1  0  0  0  0
 28 23  1  0  0  0  0
 29 34  2  0  0  0  0
 29 33  1  0  0  0  0
 30 32  2  0  0  0  0
 31 32  1  0  0  0  0
 33 31  2  0  0  0  0
 34 30  1  0  0  0  0
 36 39  1  0  0  0  0
 37 43  1  6  0  0  0
 37 36  1  0  0  0  0
 37 41  1  0  0  0  0
 38 40  1  0  0  0  0
 39 40  1  0  0  0  0
 40 35  1  6  0  0  0
 41 38  1  0  0  0  0
 42 43  1  0  0  0  0
M  END
>  <MODEL>
1

>  <REMARK>
 VINA RESULT:      -7.1      0.000      0.000
  Name = 
  9 active torsions:
  status: ('A' for Active; 'I' for Inactive)
    1  A    between atoms: C_1  and  N_34
    2  A    between atoms: C_1  and  C_35
    3  A    between atoms: C_2  and  C_13
    4  A    between atoms: C_3  and  C_4
    5  A    between atoms: C_3  and  C_12
    6  A    between atoms: N_6  and  C_17
    7  A    between atoms: C_11  and  C_14
    8  A    between atoms: C_12  and  C_17
    9  A    between atoms: C_19  and  N_37
                            x       y       z     vdW  Elec       q    Type
                         _______ _______ _______ _____ _____    ______ ____

>  <TORSDO>
F 9

$$$$
=
 OpenBabel11052420483D

 43 48  0  0  1  0  0  0  0  0999 V2000
  191.8230  171.0440  140.6350 C   0  0  0  0  0  0  0  0  0  0  0  0
  189.6490  174.5360  143.6950 C   0  0  2  0  0  3  0  0  0  0  0  0
  191.7120  175.7700  145.2870 C   0  0  1  0  0  3  0  0  0  0  0  0
  190.2690  172.4830  141.7410 C   0  0  0  0  0  0  0  0  0  0  0  0
  192.9380  171.3760  141.5820 C   0  0  0  0  0  2  0  0  0  0  0  0
  192.0320  170.2560  139.6760 O   0  0  0  0  0  0  0  0  0  0  0  0
  191.3760  173.0630  142.5530 C   0  0  0  0  0  0  0  0  0  0  0  0
  190.5060  171.5620  140.8560 N   0  0  0  0  0  0  0  0  0  0  0  0
  192.6220  172.5920  142.4060 C   0  0  0  0  0  3  0  0  0  0  0  0
  191.9900  174.4390  144.5940 C   0  0  0  0  0  2  0  0  0  0  0  0
  191.1350  174.3400  143.3290 C   0  0  2  0  0  3  0  0  0  0  0  0
  188.8110  174.3950  142.4200 C   0  0  0  0  0  2  0  0  0  0  0  0
  189.4540  175.8530  144.3270 N   0  0  0  0  0  0  0  0  0  0  0  0
  190.2200  175.8890  145.5750 C   0  0  0  0  0  2  0  0  0  0  0  0
  188.8560  172.9470  141.9400 C   0  0  0  0  0  2  0  0  0  0  0  0
  192.5050  175.9010  146.5520 C   0  0  0  0  0  0  0  0  0  0  0  0
  193.7390  176.6280  146.5670 N   0  0  0  0  0  2  0  0  0  0  0  0
  192.0800  175.3850  147.6210 O   0  0  0  0  0  0  0  0  0  0  0  0
  194.2270  177.3720  145.4160 C   0  0  0  0  0  2  0  0  0  0  0  0
  195.4940  176.7260  144.8880 C   0  0  0  0  0  2  0  0  0  0  0  0
  195.1940  176.0020  143.5920 C   0  0  0  0  0  2  0  0  0  0  0  0
  196.4550  175.3340  143.0620 C   0  0  2  0  0  3  0  0  0  0  0  0
  196.2890  173.0640  142.2310 C   0  0  0  0  0  2  0  0  0  0  0  0
  196.7900  173.4200  144.6950 C   0  0  0  0  0  0  0  0  0  0  0  0
  196.4600  175.3910  141.5460 C   0  0  0  0  0  2  0  0  0  0  0  0
  196.4390  173.9180  143.3930 N   0  0  0  0  0  0  0  0  0  0  0  0
  197.5520  174.1050  145.4320 O   0  0  0  0  0  0  0  0  0  0  0  0
  196.0890  173.9980  141.0520 C   0  0  0  0  0  2  0  0  0  0  0  0
  196.2530  172.1390  145.2060 C   0  0  0  0  0  0  0  0  0  0  0  0
  196.6360  169.9520  146.2030 C   0  0  0  0  0  3  0  0  0  0  0  0
  194.3730  170.7180  145.8120 C   0  0  0  0  0  3  0  0  0  0  0  0
  195.2560  169.7350  146.2690 C   0  0  0  0  0  3  0  0  0  0  0  0
  194.8700  171.9160  145.2860 C   0  0  0  0  0  3  0  0  0  0  0  0
  197.1320  171.1490  145.6790 C   0  0  0  0  0  3  0  0  0  0  0  0
  188.0530  175.9870  144.7220 C   0  0  0  0  0  2  0  0  0  0  0  0
  185.8660  179.1740  144.8100 C   0  0  0  0  0  2  0  0  0  0  0  0
  185.3190  179.1250  143.3770 C   0  0  1  0  0  3  0  0  0  0  0  0
  186.9210  177.2420  142.8520 C   0  0  0  0  0  2  0  0  0  0  0  0
  186.4020  177.8120  145.2480 C   0  0  0  0  0  2  0  0  0  0  0  0
  187.4780  177.3300  144.2740 C   0  0  1  0  0  3  0  0  0  0  0  0
  186.3820  178.6000  142.4070 C   0  0  0  0  0  2  0  0  0  0  0  0
  183.6780  178.2970  141.9230 C   0  0  0  0  0  1  0  0  0  0  0  0
  184.1160  178.3050  143.3110 N   0  0  0  0  0  2  0  0  0  0  0  0
  1  8  1  0  0  0  0
  1  5  1  0  0  0  0
  2 12  1  6  0  0  0
  2 13  1  0  0  0  0
  3 14  1  0  0  0  0
  3 16  1  1  0  0  0
  4 15  1  0  0  0  0
  4  7  1  0  0  0  0
  5  9  1  0  0  0  0
  6  1  2  0  0  0  0
  7 11  1  0  0  0  0
  8  4  2  0  0  0  0
  9  7  2  0  0  0  0
 10  3  1  0  0  0  0
 11  2  1  0  0  0  0
 11 10  1  1  0  0  0
 13 35  1  0  0  0  0
 13 14  1  0  0  0  0
 15 12  1  0  0  0  0
 16 17  1  0  0  0  0
 16 18  2  0  0  0  0
 19 17  1  0  0  0  0
 20 19  1  0  0  0  0
 21 20  1  0  0  0  0
 22 26  1  0  0  0  0
 22 21  1  6  0  0  0
 23 26  1  0  0  0  0
 24 29  1  0  0  0  0
 24 27  2  0  0  0  0
 25 22  1  0  0  0  0
 26 24  1  0  0  0  0
 28 25  1  0  0  0  0
 28 23  1  0  0  0  0
 29 33  2  0  0  0  0
 29 34  1  0  0  0  0
 30 32  1  0  0  0  0
 31 32  2  0  0  0  0
 33 31  1  0  0  0  0
 34 30  2  0  0  0  0
 36 39  1  0  0  0  0
 37 43  1  1  0  0  0
 37 36  1  0  0  0  0
 38 40  1  0  0  0  0
 40 35  1  1  0  0  0
 40 39  1  0  0  0  0
 41 38  1  0  0  0  0
 41 37  1  0  0  0  0
 42 43  1  0  0  0  0
M  END
>  <MODEL>
2

>  <REMARK>
 VINA RESULT:      -7.0      2.749      8.615
  Name = 
  9 active torsions:
  status: ('A' for Active; 'I' for Inactive)
    1  A    between atoms: C_1  and  N_34
    2  A    between atoms: C_1  and  C_35
    3  A    between atoms: C_2  and  C_13
    4  A    between atoms: C_3  and  C_4
    5  A    between atoms: C_3  and  C_12
    6  A    between atoms: N_6  and  C_17
    7  A    between atoms: C_11  and  C_14
    8  A    between atoms: C_12  and  C_17
    9  A    between atoms: C_19  and  N_37
                            x       y       z     vdW  Elec       q    Type
                         _______ _______ _______ _____ _____    ______ ____

>  <TORSDO>
F 9

$$$$
=
 OpenBabel11052420483D

 43 48  0  0  1  0  0  0  0  0999 V2000
  191.2360  177.0230  147.9550 C   0  0  0  0  0  0  0  0  0  0  0  0
  194.0890  174.3130  144.6690 C   0  0  2  0  0  3  0  0  0  0  0  0
  192.3280  172.7700  142.9860 C   0  0  1  0  0  3  0  0  0  0  0  0
  193.0530  176.0790  146.7260 C   0  0  0  0  0  0  0  0  0  0  0  0
  190.2320  176.0760  147.3680 C   0  0  0  0  0  2  0  0  0  0  0  0
  190.8590  177.9100  148.7650 O   0  0  0  0  0  0  0  0  0  0  0  0
  192.0930  175.2860  145.9060 C   0  0  0  0  0  0  0  0  0  0  0  0
  192.6290  176.8810  147.6550 N   0  0  0  0  0  0  0  0  0  0  0  0
  190.7810  175.3620  146.1660 C   0  0  0  0  0  3  0  0  0  0  0  0
  191.8020  173.3460  144.2970 C   0  0  0  0  0  2  0  0  0  0  0  0
  192.5770  174.6220  144.6350 C   0  0  2  0  0  3  0  0  0  0  0  0
  194.8390  175.5950  145.0460 C   0  0  0  0  0  2  0  0  0  0  0  0
  194.5280  173.7940  143.3620 N   0  0  0  0  0  0  0  0  0  0  0  0
  193.8300  172.5330  143.1020 C   0  0  0  0  0  2  0  0  0  0  0  0
  194.5310  175.9560  146.4960 C   0  0  0  0  0  2  0  0  0  0  0  0
  191.6200  171.4980  142.6270 C   0  0  0  0  0  0  0  0  0  0  0  0
  190.3550  171.5320  141.9570 N   0  0  0  0  0  2  0  0  0  0  0  0
  192.1450  170.3840  142.8980 O   0  0  0  0  0  0  0  0  0  0  0  0
  189.7500  172.7670  141.4820 C   0  0  0  0  0  2  0  0  0  0  0  0
  188.5440  173.1080  142.3360 C   0  0  0  0  0  2  0  0  0  0  0  0
  188.8860  174.2540  143.2660 C   0  0  0  0  0  2  0  0  0  0  0  0
  188.7370  175.5820  142.5370 C   0  0  2  0  0  3  0  0  0  0  0  0
  189.1740  177.6220  143.7700 C   0  0  0  0  0  2  0  0  0  0  0  0
  186.8170  176.6780  143.7820 C   0  0  0  0  0  0  0  0  0  0  0  0
  190.1070  176.0910  142.1270 C   0  0  0  0  0  2  0  0  0  0  0  0
  188.2110  176.5860  143.4480 N   0  0  0  0  0  0  0  0  0  0  0  0
  185.9580  176.2240  142.9750 O   0  0  0  0  0  0  0  0  0  0  0  0
  190.4690  177.2090  143.0970 C   0  0  0  0  0  2  0  0  0  0  0  0
  186.3620  177.2610  145.0650 C   0  0  0  0  0  0  0  0  0  0  0  0
  186.2910  177.1830  147.4960 C   0  0  0  0  0  3  0  0  0  0  0  0
  185.2840  179.0450  146.3190 C   0  0  0  0  0  3  0  0  0  0  0  0
  185.5920  178.3950  147.5190 C   0  0  0  0  0  3  0  0  0  0  0  0
  185.6710  178.4810  145.0980 C   0  0  0  0  0  3  0  0  0  0  0  0
  186.6780  176.6220  146.2760 C   0  0  0  0  0  3  0  0  0  0  0  0
  195.9460  173.4490  143.4400 C   0  0  0  0  0  2  0  0  0  0  0  0
  196.6940  175.6470  140.3490 C   0  0  0  0  0  2  0  0  0  0  0  0
  197.1490  174.5460  139.3810 C   0  0  1  0  0  3  0  0  0  0  0  0
  197.1380  172.8910  141.2910 C   0  0  0  0  0  2  0  0  0  0  0  0
  195.8930  175.0670  141.5140 C   0  0  0  0  0  2  0  0  0  0  0  0
  196.7190  174.0100  142.2470 C   0  0  1  0  0  3  0  0  0  0  0  0
  197.9380  173.4630  140.1220 C   0  0  0  0  0  2  0  0  0  0  0  0
  195.5630  174.9370  137.6990 C   0  0  0  0  0  1  0  0  0  0  0  0
  196.0070  173.9640  138.6880 N   0  0  0  0  0  2  0  0  0  0  0  0
  1  6  2  0  0  0  0
  2 12  1  6  0  0  0
  3 16  1  1  0  0  0
  3 14  1  0  0  0  0
  3 10  1  0  0  0  0
  4  8  2  0  0  0  0
  5  1  1  0  0  0  0
  7  9  2  0  0  0  0
  7  4  1  0  0  0  0
  8  1  1  0  0  0  0
  9  5  1  0  0  0  0
 11 10  1  1  0  0  0
 11  2  1  0  0  0  0
 11  7  1  0  0  0  0
 12 15  1  0  0  0  0
 13 35  1  0  0  0  0
 13  2  1  0  0  0  0
 14 13  1  0  0  0  0
 15  4  1  0  0  0  0
 16 18  2  0  0  0  0
 17 16  1  0  0  0  0
 19 17  1  0  0  0  0
 19 20  1  0  0  0  0
 20 21  1  0  0  0  0
 22 21  1  1  0  0  0
 22 26  1  0  0  0  0
 24 29  1  0  0  0  0
 25 22  1  0  0  0  0
 25 28  1  0  0  0  0
 26 23  1  0  0  0  0
 26 24  1  0  0  0  0
 27 24  2  0  0  0  0
 28 23  1  0  0  0  0
 29 33  2  0  0  0  0
 29 34  1  0  0  0  0
 30 32  1  0  0  0  0
 31 32  2  0  0  0  0
 33 31  1  0  0  0  0
 34 30  2  0  0  0  0
 36 39  1  0  0  0  0
 37 43  1  1  0  0  0
 37 41  1  0  0  0  0
 37 36  1  0  0  0  0
 38 40  1  0  0  0  0
 39 40  1  0  0  0  0
 40 35  1  1  0  0  0
 41 38  1  0  0  0  0
 42 43  1  0  0  0  0
M  END
>  <MODEL>
3

>  <REMARK>
 VINA RESULT:      -7.0      2.311      4.571
  Name = 
  9 active torsions:
  status: ('A' for Active; 'I' for Inactive)
    1  A    between atoms: C_1  and  N_34
    2  A    between atoms: C_1  and  C_35
    3  A    between atoms: C_2  and  C_13
    4  A    between atoms: C_3  and  C_4
    5  A    between atoms: C_3  and  C_12
    6  A    between atoms: N_6  and  C_17
    7  A    between atoms: C_11  and  C_14
    8  A    between atoms: C_12  and  C_17
    9  A    between atoms: C_19  and  N_37
                            x       y       z     vdW  Elec       q    Type
                         _______ _______ _______ _____ _____    ______ ____

>  <TORSDO>
F 9

$$$$
=
 OpenBabel11052420483D

 43 48  0  0  1  0  0  0  0  0999 V2000
  195.6540  175.3320  144.5280 C   0  0  0  0  0  0  0  0  0  0  0  0
  190.8440  176.7290  145.6220 C   0  0  2  0  0  3  0  0  0  0  0  0
  189.2520  176.4760  143.2310 C   0  0  1  0  0  3  0  0  0  0  0  0
  193.6660  176.0540  145.6390 C   0  0  0  0  0  0  0  0  0  0  0  0
  195.0340  175.4330  143.1660 C   0  0  0  0  0  2  0  0  0  0  0  0
  196.8400  174.9260  144.6460 O   0  0  0  0  0  0  0  0  0  0  0  0
  192.9030  175.9280  144.3640 C   0  0  0  0  0  0  0  0  0  0  0  0
  194.9310  175.7600  145.6870 N   0  0  0  0  0  0  0  0  0  0  0  0
  193.5400  175.5590  143.2450 C   0  0  0  0  0  3  0  0  0  0  0  0
  190.7730  176.5230  143.1210 C   0  0  0  0  0  2  0  0  0  0  0  0
  191.3900  175.9570  144.4010 C   0  0  2  0  0  3  0  0  0  0  0  0
  191.5050  176.1700  146.8860 C   0  0  0  0  0  2  0  0  0  0  0  0
  189.3770  176.6100  145.6790 N   0  0  0  0  0  0  0  0  0  0  0  0
  188.8110  177.2310  144.4800 C   0  0  0  0  0  2  0  0  0  0  0  0
  192.9870  176.5320  146.8880 C   0  0  0  0  0  2  0  0  0  0  0  0
  188.5990  177.0500  142.0100 C   0  0  0  0  0  0  0  0  0  0  0  0
  188.1920  176.2000  140.9330 N   0  0  0  0  0  2  0  0  0  0  0  0
  188.3880  178.2910  141.9300 O   0  0  0  0  0  0  0  0  0  0  0  0
  188.2690  174.7480  141.0040 C   0  0  0  0  0  2  0  0  0  0  0  0
  188.3140  174.1670  139.6040 C   0  0  0  0  0  2  0  0  0  0  0  0
  188.5000  172.6660  139.6820 C   0  0  0  0  0  2  0  0  0  0  0  0
  189.8010  172.2650  138.9990 C   0  0  2  0  0  3  0  0  0  0  0  0
  191.1100  170.4790  139.9830 C   0  0  0  0  0  2  0  0  0  0  0  0
  191.5440  172.8630  140.7430 C   0  0  0  0  0  0  0  0  0  0  0  0
  189.5740  171.0120  138.1740 C   0  0  0  0  0  2  0  0  0  0  0  0
  190.7880  171.8930  139.9990 N   0  0  0  0  0  0  0  0  0  0  0  0
  191.7260  174.0110  140.2520 O   0  0  0  0  0  0  0  0  0  0  0  0
  190.1840  169.8550  138.9560 C   0  0  0  0  0  2  0  0  0  0  0  0
  192.0850  172.5600  142.0870 C   0  0  0  0  0  0  0  0  0  0  0  0
  191.7300  172.2810  144.4790 C   0  0  0  0  0  3  0  0  0  0  0  0
  193.9110  171.8390  143.5250 C   0  0  0  0  0  3  0  0  0  0  0  0
  193.0660  171.8990  144.6380 C   0  0  0  0  0  3  0  0  0  0  0  0
  193.4210  172.1650  142.2550 C   0  0  0  0  0  3  0  0  0  0  0  0
  191.2410  172.6050  143.2100 C   0  0  0  0  0  3  0  0  0  0  0  0
  188.8810  177.4010  146.8040 C   0  0  0  0  0  2  0  0  0  0  0  0
  185.2060  176.7590  145.7900 C   0  0  0  0  0  2  0  0  0  0  0  0
  184.5640  177.9960  146.4310 C   0  0  1  0  0  3  0  0  0  0  0  0
  186.7560  178.5140  147.5780 C   0  0  0  0  0  2  0  0  0  0  0  0
  186.7120  176.9410  145.6130 C   0  0  0  0  0  2  0  0  0  0  0  0
  187.3680  177.2560  146.9580 C   0  0  1  0  0  3  0  0  0  0  0  0
  185.2490  178.3400  147.7570 C   0  0  0  0  0  2  0  0  0  0  0  0
  184.0660  178.6870  144.2470 C   0  0  0  0  0  1  0  0  0  0  0  0
  184.6130  179.1330  145.5200 N   0  0  0  0  0  2  0  0  0  0  0  0
  1  6  2  0  0  0  0
  1  8  1  0  0  0  0
  2 13  1  0  0  0  0
  2 12  1  1  0  0  0
  3 16  1  6  0  0  0
  3 14  1  0  0  0  0
  4  8  2  0  0  0  0
  4 15  1  0  0  0  0
  5  9  1  0  0  0  0
  5  1  1  0  0  0  0
  7 11  1  0  0  0  0
  7  4  1  0  0  0  0
  9  7  2  0  0  0  0
 10  3  1  0  0  0  0
 11 10  1  6  0  0  0
 11  2  1  0  0  0  0
 12 15  1  0  0  0  0
 13 35  1  0  0  0  0
 14 13  1  0  0  0  0
 17 19  1  0  0  0  0
 17 16  1  0  0  0  0
 18 16  2  0  0  0  0
 20 21  1  0  0  0  0
 20 19  1  0  0  0  0
 22 21  1  1  0  0  0
 22 26  1  0  0  0  0
 23 26  1  0  0  0  0
 24 29  1  0  0  0  0
 25 28  1  0  0  0  0
 25 22  1  0  0  0  0
 26 24  1  0  0  0  0
 27 24  2  0  0  0  0
 28 23  1  0  0  0  0
 29 33  2  0  0  0  0
 29 34  1  0  0  0  0
 30 32  1  0  0  0  0
 31 32  2  0  0  0  0
 33 31  1  0  0  0  0
 34 30  2  0  0  0  0
 36 37  1  0  0  0  0
 37 43  1  6  0  0  0
 37 41  1  0  0  0  0
 38 41  1  0  0  0  0
 39 36  1  0  0  0  0
 39 40  1  0  0  0  0
 40 35  1  6  0  0  0
 40 38  1  0  0  0  0
 42 43  1  0  0  0  0
M  END
>  <MODEL>
4

>  <REMARK>
 VINA RESULT:      -6.9      2.312      6.968
  Name = 
  9 active torsions:
  status: ('A' for Active; 'I' for Inactive)
    1  A    between atoms: C_1  and  N_34
    2  A    between atoms: C_1  and  C_35
    3  A    between atoms: C_2  and  C_13
    4  A    between atoms: C_3  and  C_4
    5  A    between atoms: C_3  and  C_12
    6  A    between atoms: N_6  and  C_17
    7  A    between atoms: C_11  and  C_14
    8  A    between atoms: C_12  and  C_17
    9  A    between atoms: C_19  and  N_37
                            x       y       z     vdW  Elec       q    Type
                         _______ _______ _______ _____ _____    ______ ____

>  <TORSDO>
F 9

$$$$
=
 OpenBabel11052420483D

 43 48  0  0  1  0  0  0  0  0999 V2000
  185.1870  178.2160  147.2290 C   0  0  0  0  0  0  0  0  0  0  0  0
  187.6690  176.5950  143.0460 C   0  0  2  0  0  3  0  0  0  0  0  0
  190.5050  176.7920  143.5310 C   0  0  1  0  0  3  0  0  0  0  0  0
  185.7320  177.3500  145.0690 C   0  0  0  0  0  0  0  0  0  0  0  0
  186.5970  178.6440  147.5090 C   0  0  0  0  0  2  0  0  0  0  0  0
  184.2960  178.3880  148.1010 O   0  0  0  0  0  0  0  0  0  0  0  0
  187.1840  177.5000  145.3700 C   0  0  0  0  0  0  0  0  0  0  0  0
  184.8340  177.6770  145.9500 N   0  0  0  0  0  0  0  0  0  0  0  0
  187.5660  178.0280  146.5420 C   0  0  0  0  0  3  0  0  0  0  0  0
  189.5340  177.5670  144.4170 C   0  0  0  0  0  2  0  0  0  0  0  0
  188.2000  176.8210  144.4780 C   0  0  2  0  0  3  0  0  0  0  0  0
  186.3170  175.8820  143.1350 C   0  0  0  0  0  2  0  0  0  0  0  0
  188.6440  175.8140  142.2640 N   0  0  0  0  0  0  0  0  0  0  0  0
  189.8820  176.5870  142.1550 C   0  0  0  0  0  2  0  0  0  0  0  0
  185.2820  176.8270  143.7370 C   0  0  0  0  0  2  0  0  0  0  0  0
  191.8210  177.5010  143.4140 C   0  0  0  0  0  0  0  0  0  0  0  0
  192.9970  176.7920  143.0100 N   0  0  0  0  0  2  0  0  0  0  0  0
  191.8970  178.7360  143.6560 O   0  0  0  0  0  0  0  0  0  0  0  0
  192.9680  175.4030  142.5770 C   0  0  0  0  0  2  0  0  0  0  0  0
  194.3040  174.7470  142.8690 C   0  0  0  0  0  2  0  0  0  0  0  0
  195.2020  175.7230  143.6000 C   0  0  0  0  0  2  0  0  0  0  0  0
  195.5810  175.1630  144.9640 C   0  0  2  0  0  3  0  0  0  0  0  0
  194.4130  173.1960  145.7620 C   0  0  0  0  0  2  0  0  0  0  0  0
  193.4480  175.4820  146.3010 C   0  0  0  0  0  0  0  0  0  0  0  0
  196.5010  173.9690  144.7840 C   0  0  0  0  0  2  0  0  0  0  0  0
  194.3980  174.6400  145.6280 N   0  0  0  0  0  0  0  0  0  0  0  0
  193.8220  176.6050  146.7400 O   0  0  0  0  0  0  0  0  0  0  0  0
  195.6590  172.7240  145.0370 C   0  0  0  0  0  2  0  0  0  0  0  0
  192.0320  175.0810  146.4620 C   0  0  0  0  0  0  0  0  0  0  0  0
  189.9120  175.2930  147.6380 C   0  0  0  0  0  3  0  0  0  0  0  0
  190.0730  173.8620  145.6920 C   0  0  0  0  0  3  0  0  0  0  0  0
  189.3170  174.4070  146.7340 C   0  0  0  0  0  3  0  0  0  0  0  0
  191.4240  174.2010  145.5550 C   0  0  0  0  0  3  0  0  0  0  0  0
  191.2610  175.6320  147.5000 C   0  0  0  0  0  3  0  0  0  0  0  0
  188.1480  175.6700  140.8960 C   0  0  0  0  0  2  0  0  0  0  0  0
  189.3890  172.0120  140.7530 C   0  0  0  0  0  2  0  0  0  0  0  0
  189.6760  171.9180  139.2490 C   0  0  1  0  0  3  0  0  0  0  0  0
  188.5670  174.1650  138.9180 C   0  0  0  0  0  2  0  0  0  0  0  0
  189.3180  173.4660  141.2170 C   0  0  0  0  0  2  0  0  0  0  0  0
  188.2590  174.2240  140.4160 C   0  0  1  0  0  3  0  0  0  0  0  0
  188.6410  172.7140  138.4470 C   0  0  0  0  0  2  0  0  0  0  0  0
  191.9490  171.4020  139.4980 C   0  0  0  0  0  1  0  0  0  0  0  0
  191.0240  172.3840  138.9500 N   0  0  0  0  0  2  0  0  0  0  0  0
  1  5  1  0  0  0  0
  1  6  2  0  0  0  0
  2 12  1  1  0  0  0
  2 11  1  0  0  0  0
  3 16  1  6  0  0  0
  3 10  1  0  0  0  0
  4  7  1  0  0  0  0
  4  8  2  0  0  0  0
  7  9  2  0  0  0  0
  8  1  1  0  0  0  0
  9  5  1  0  0  0  0
 11 10  1  6  0  0  0
 11  7  1  0  0  0  0
 12 15  1  0  0  0  0
 13  2  1  0  0  0  0
 14 13  1  0  0  0  0
 14  3  1  0  0  0  0
 15  4  1  0  0  0  0
 16 18  2  0  0  0  0
 17 16  1  0  0  0  0
 19 20  1  0  0  0  0
 19 17  1  0  0  0  0
 20 21  1  0  0  0  0
 22 21  1  6  0  0  0
 22 26  1  0  0  0  0
 24 29  1  0  0  0  0
 24 27  2  0  0  0  0
 25 22  1  0  0  0  0
 25 28  1  0  0  0  0
 26 23  1  0  0  0  0
 26 24  1  0  0  0  0
 28 23  1  0  0  0  0
 29 34  1  0  0  0  0
 31 32  2  0  0  0  0
 32 30  1  0  0  0  0
 33 31  1  0  0  0  0
 33 29  2  0  0  0  0
 34 30  2  0  0  0  0
 35 13  1  0  0  0  0
 36 39  1  0  0  0  0
 37 43  1  1  0  0  0
 37 36  1  0  0  0  0
 38 40  1  0  0  0  0
 40 35  1  1  0  0  0
 40 39  1  0  0  0  0
 41 38  1  0  0  0  0
 41 37  1  0  0  0  0
 43 42  1  0  0  0  0
M  END
>  <MODEL>
5

>  <REMARK>
 VINA RESULT:      -6.8      2.243      6.434
  Name = 
  9 active torsions:
  status: ('A' for Active; 'I' for Inactive)
    1  A    between atoms: C_1  and  N_34
    2  A    between atoms: C_1  and  C_35
    3  A    between atoms: C_2  and  C_13
    4  A    between atoms: C_3  and  C_4
    5  A    between atoms: C_3  and  C_12
    6  A    between atoms: N_6  and  C_17
    7  A    between atoms: C_11  and  C_14
    8  A    between atoms: C_12  and  C_17
    9  A    between atoms: C_19  and  N_37
                            x       y       z     vdW  Elec       q    Type
                         _______ _______ _______ _____ _____    ______ ____

>  <TORSDO>
F 9

$$$$
=
 OpenBabel11052420483D

 43 48  0  0  1  0  0  0  0  0999 V2000
  184.9380  178.5120  144.5780 C   0  0  0  0  0  0  0  0  0  0  0  0
  189.1610  175.7100  145.3520 C   0  0  2  0  0  3  0  0  0  0  0  0
  189.9250  174.4970  142.8500 C   0  0  1  0  0  3  0  0  0  0  0  0
  186.8430  177.4450  145.5470 C   0  0  0  0  0  0  0  0  0  0  0  0
  185.0390  177.7300  143.3020 C   0  0  0  0  0  2  0  0  0  0  0  0
  184.0370  179.3820  144.7080 O   0  0  0  0  0  0  0  0  0  0  0  0
  187.1710  176.8260  144.2310 C   0  0  0  0  0  0  0  0  0  0  0  0
  185.8140  178.2280  145.6740 N   0  0  0  0  0  0  0  0  0  0  0  0
  186.3660  177.0370  143.1810 C   0  0  0  0  0  3  0  0  0  0  0  0
  188.5110  175.0440  143.0200 C   0  0  0  0  0  2  0  0  0  0  0  0
  188.5320  176.1950  144.0280 C   0  0  2  0  0  3  0  0  0  0  0  0
  189.1350  176.8680  146.3550 C   0  0  0  0  0  2  0  0  0  0  0  0
  190.5330  175.2300  145.1130 N   0  0  0  0  0  0  0  0  0  0  0  0
  190.4750  174.0790  144.2090 C   0  0  0  0  0  2  0  0  0  0  0  0
  187.6920  177.1660  146.7510 C   0  0  0  0  0  2  0  0  0  0  0  0
  189.9520  173.3440  141.8930 C   0  0  0  0  0  0  0  0  0  0  0  0
  191.0460  173.1750  140.9850 N   0  0  0  0  0  2  0  0  0  0  0  0
  189.0160  172.4990  141.8940 O   0  0  0  0  0  0  0  0  0  0  0  0
  192.2310  174.0200  141.0160 C   0  0  0  0  0  2  0  0  0  0  0  0
  193.3000  173.3730  141.8750 C   0  0  0  0  0  2  0  0  0  0  0  0
  193.2570  171.8700  141.6960 C   0  0  0  0  0  2  0  0  0  0  0  0
  194.6250  171.3540  141.2730 C   0  0  2  0  0  3  0  0  0  0  0  0
  195.2830  169.1320  141.9810 C   0  0  0  0  0  2  0  0  0  0  0  0
  195.8260  171.0990  143.4930 C   0  0  0  0  0  0  0  0  0  0  0  0
  194.4700  170.4210  140.0860 C   0  0  0  0  0  2  0  0  0  0  0  0
  195.1930  170.5370  142.3330 N   0  0  0  0  0  0  0  0  0  0  0  0
  196.3230  172.2580  143.4240 O   0  0  0  0  0  0  0  0  0  0  0  0
  194.6290  169.0020  140.6190 C   0  0  0  0  0  2  0  0  0  0  0  0
  195.8810  170.3680  144.7790 C   0  0  0  0  0  0  0  0  0  0  0  0
  197.1870  169.2910  146.5280 C   0  0  0  0  0  3  0  0  0  0  0  0
  194.7850  169.4850  146.7640 C   0  0  0  0  0  3  0  0  0  0  0  0
  196.0210  169.0590  147.2630 C   0  0  0  0  0  3  0  0  0  0  0  0
  194.7170  170.1390  145.5290 C   0  0  0  0  0  3  0  0  0  0  0  0
  197.1180  169.9460  145.2950 C   0  0  0  0  0  3  0  0  0  0  0  0
  191.0810  174.7180  146.3670 C   0  0  0  0  0  2  0  0  0  0  0  0
  194.4040  176.6870  146.1860 C   0  0  0  0  0  2  0  0  0  0  0  0
  195.2300  175.6810  145.3740 C   0  0  1  0  0  3  0  0  0  0  0  0
  193.3760  173.9830  145.6280 C   0  0  0  0  0  2  0  0  0  0  0  0
  192.9060  176.4200  146.0430 C   0  0  0  0  0  2  0  0  0  0  0  0
  192.5820  174.9870  146.4660 C   0  0  1  0  0  3  0  0  0  0  0  0
  194.8750  174.2430  145.7640 C   0  0  0  0  0  2  0  0  0  0  0  0
  196.2870  176.4000  143.4080 C   0  0  0  0  0  1  0  0  0  0  0  0
  195.0340  175.8870  143.9440 N   0  0  0  0  0  2  0  0  0  0  0  0
  1  6  2  0  0  0  0
  1  8  1  0  0  0  0
  2 12  1  1  0  0  0
  3 16  1  6  0  0  0
  3 10  1  0  0  0  0
  3 14  1  0  0  0  0
  4  8  2  0  0  0  0
  4 15  1  0  0  0  0
  5  1  1  0  0  0  0
  7  4  1  0  0  0  0
  9  5  1  0  0  0  0
  9  7  2  0  0  0  0
 11 10  1  6  0  0  0
 11  7  1  0  0  0  0
 11  2  1  0  0  0  0
 12 15  1  0  0  0  0
 13  2  1  0  0  0  0
 13 35  1  0  0  0  0
 14 13  1  0  0  0  0
 16 18  2  0  0  0  0
 17 19  1  0  0  0  0
 17 16  1  0  0  0  0
 19 20  1  0  0  0  0
 21 20  1  0  0  0  0
 22 21  1  1  0  0  0
 22 26  1  0  0  0  0
 23 26  1  0  0  0  0
 24 29  1  0  0  0  0
 25 28  1  0  0  0  0
 25 22  1  0  0  0  0
 26 24  1  0  0  0  0
 27 24  2  0  0  0  0
 28 23  1  0  0  0  0
 29 34  2  0  0  0  0
 29 33  1  0  0  0  0
 30 32  2  0  0  0  0
 31 32  1  0  0  0  0
 33 31  2  0  0  0  0
 34 30  1  0  0  0  0
 37 43  1  6  0  0  0
 37 41  1  0  0  0  0
 37 36  1  0  0  0  0
 38 41  1  0  0  0  0
 38 40  1  0  0  0  0
 39 36  1  0  0  0  0
 39 40  1  0  0  0  0
 40 35  1  6  0  0  0
 42 43  1  0  0  0  0
M  END
>  <MODEL>
6

>  <REMARK>
 VINA RESULT:      -6.8      2.929      5.886
  Name = 
  9 active torsions:
  status: ('A' for Active; 'I' for Inactive)
    1  A    between atoms: C_1  and  N_34
    2  A    between atoms: C_1  and  C_35
    3  A    between atoms: C_2  and  C_13
    4  A    between atoms: C_3  and  C_4
    5  A    between atoms: C_3  and  C_12
    6  A    between atoms: N_6  and  C_17
    7  A    between atoms: C_11  and  C_14
    8  A    between atoms: C_12  and  C_17
    9  A    between atoms: C_19  and  N_37
                            x       y       z     vdW  Elec       q    Type
                         _______ _______ _______ _____ _____    ______ ____

>  <TORSDO>
F 9

$$$$
=
 OpenBabel11052420483D

 43 48  0  0  1  0  0  0  0  0999 V2000
  188.6880  176.8910  146.8600 C   0  0  0  0  0  0  0  0  0  0  0  0
  193.0850  174.9290  145.1010 C   0  0  2  0  0  3  0  0  0  0  0  0
  192.5020  172.4620  143.7270 C   0  0  1  0  0  3  0  0  0  0  0  0
  190.9820  176.5260  146.3020 C   0  0  0  0  0  0  0  0  0  0  0  0
  188.2770  175.5090  146.4450 C   0  0  0  0  0  2  0  0  0  0  0  0
  187.8200  177.7020  147.2770 O   0  0  0  0  0  0  0  0  0  0  0  0
  190.6200  175.2460  145.6280 C   0  0  0  0  0  0  0  0  0  0  0  0
  190.0680  177.2700  146.8500 N   0  0  0  0  0  0  0  0  0  0  0  0
  189.3450  174.8330  145.6350 C   0  0  0  0  0  3  0  0  0  0  0  0
  191.4720  173.0510  144.6860 C   0  0  0  0  0  2  0  0  0  0  0  0
  191.6310  174.5720  144.7270 C   0  0  2  0  0  3  0  0  0  0  0  0
  193.2090  176.4540  145.1730 C   0  0  0  0  0  2  0  0  0  0  0  0
  194.0160  174.3550  144.1130 N   0  0  0  0  0  0  0  0  0  0  0  0
  193.9000  172.8960  144.1540 C   0  0  0  0  0  2  0  0  0  0  0  0
  192.4120  176.9730  146.3660 C   0  0  0  0  0  2  0  0  0  0  0  0
  192.4080  170.9670  143.6760 C   0  0  0  0  0  0  0  0  0  0  0  0
  191.5130  170.3240  142.7610 N   0  0  0  0  0  2  0  0  0  0  0  0
  193.1320  170.2610  144.4290 O   0  0  0  0  0  0  0  0  0  0  0  0
  190.7490  171.0560  141.7620 C   0  0  0  0  0  2  0  0  0  0  0  0
  191.6860  171.6210  140.7120 C   0  0  0  0  0  2  0  0  0  0  0  0
  191.0580  172.8420  140.0740 C   0  0  0  0  0  2  0  0  0  0  0  0
  189.5660  172.6180  139.8710 C   0  0  2  0  0  3  0  0  0  0  0  0
  188.1900  174.5210  139.2760 C   0  0  0  0  0  2  0  0  0  0  0  0
  188.5450  174.0030  141.7360 C   0  0  0  0  0  0  0  0  0  0  0  0
  189.2630  172.5280  138.3870 C   0  0  0  0  0  2  0  0  0  0  0  0
  188.8250  173.7760  140.3450 N   0  0  0  0  0  0  0  0  0  0  0  0
  188.5110  173.0200  142.5270 O   0  0  0  0  0  0  0  0  0  0  0  0
  188.6330  173.8570  137.9860 C   0  0  0  0  0  2  0  0  0  0  0  0
  188.3300  175.3670  142.2720 C   0  0  0  0  0  0  0  0  0  0  0  0
  186.8530  177.0120  143.2890 C   0  0  0  0  0  3  0  0  0  0  0  0
  189.1860  177.5480  142.9240 C   0  0  0  0  0  3  0  0  0  0  0  0
  187.9160  177.9170  143.3790 C   0  0  0  0  0  3  0  0  0  0  0  0
  189.3920  176.2770  142.3760 C   0  0  0  0  0  3  0  0  0  0  0  0
  187.0600  175.7430  142.7430 C   0  0  0  0  0  3  0  0  0  0  0  0
  195.3870  174.6520  144.5260 C   0  0  0  0  0  2  0  0  0  0  0  0
  196.0210  176.6220  141.2600 C   0  0  0  0  0  2  0  0  0  0  0  0
  197.0180  175.6640  140.5960 C   0  0  1  0  0  3  0  0  0  0  0  0
  197.1400  174.3350  142.7420 C   0  0  0  0  0  2  0  0  0  0  0  0
  195.2240  175.9220  142.3590 C   0  0  0  0  0  2  0  0  0  0  0  0
  196.1710  175.3220  143.3980 C   0  0  1  0  0  3  0  0  0  0  0  0
  197.9400  175.0280  141.6410 C   0  0  0  0  0  2  0  0  0  0  0  0
  197.2670  174.0950  138.8720 C   0  0  0  0  0  1  0  0  0  0  0  0
  196.3190  174.6360  139.8360 N   0  0  0  0  0  2  0  0  0  0  0  0
  1  6  2  0  0  0  0
  2 12  1  6  0  0  0
  3 16  1  1  0  0  0
  3 14  1  0  0  0  0
  3 10  1  0  0  0  0
  4 15  1  0  0  0  0
  4  8  2  0  0  0  0
  5  1  1  0  0  0  0
  7  9  2  0  0  0  0
  7  4  1  0  0  0  0
  8  1  1  0  0  0  0
  9  5  1  0  0  0  0
 11 10  1  1  0  0  0
 11  2  1  0  0  0  0
 11  7  1  0  0  0  0
 12 15  1  0  0  0  0
 13 14  1  0  0  0  0
 13 35  1  0  0  0  0
 13  2  1  0  0  0  0
 16 18  2  0  0  0  0
 17 16  1  0  0  0  0
 19 17  1  0  0  0  0
 20 19  1  0  0  0  0
 21 20  1  0  0  0  0
 22 21  1  6  0  0  0
 22 26  1  0  0  0  0
 23 26  1  0  0  0  0
 24 29  1  0  0  0  0
 24 27  2  0  0  0  0
 25 22  1  0  0  0  0
 26 24  1  0  0  0  0
 28 25  1  0  0  0  0
 28 23  1  0  0  0  0
 29 33  2  0  0  0  0
 29 34  1  0  0  0  0
 30 32  1  0  0  0  0
 31 32  2  0  0  0  0
 33 31  1  0  0  0  0
 34 30  2  0  0  0  0
 36 39  1  0  0  0  0
 37 43  1  1  0  0  0
 37 36  1  0  0  0  0
 37 41  1  0  0  0  0
 38 40  1  0  0  0  0
 39 40  1  0  0  0  0
 40 35  1  1  0  0  0
 41 38  1  0  0  0  0
 42 43  1  0  0  0  0
M  END
>  <MODEL>
7

>  <REMARK>
 VINA RESULT:      -6.7      1.704      2.620
  Name = 
  9 active torsions:
  status: ('A' for Active; 'I' for Inactive)
    1  A    between atoms: C_1  and  N_34
    2  A    between atoms: C_1  and  C_35
    3  A    between atoms: C_2  and  C_13
    4  A    between atoms: C_3  and  C_4
    5  A    between atoms: C_3  and  C_12
    6  A    between atoms: N_6  and  C_17
    7  A    between atoms: C_11  and  C_14
    8  A    between atoms: C_12  and  C_17
    9  A    between atoms: C_19  and  N_37
                            x       y       z     vdW  Elec       q    Type
                         _______ _______ _______ _____ _____    ______ ____

>  <TORSDO>
F 9

$$$$
=
 OpenBabel11052420483D

 43 48  0  0  1  0  0  0  0  0999 V2000
  189.3480  172.3350  139.8070 C   0  0  0  0  0  0  0  0  0  0  0  0
  189.7140  176.1060  143.2610 C   0  0  2  0  0  3  0  0  0  0  0  0
  192.2040  175.8040  144.6840 C   0  0  1  0  0  3  0  0  0  0  0  0
  188.9480  174.2720  141.1480 C   0  0  0  0  0  0  0  0  0  0  0  0
  190.5100  171.8890  140.6450 C   0  0  0  0  0  2  0  0  0  0  0  0
  189.0170  171.6700  138.7910 O   0  0  0  0  0  0  0  0  0  0  0  0
  190.2350  174.0480  141.8650 C   0  0  0  0  0  0  0  0  0  0  0  0
  188.5700  173.4730  140.1950 N   0  0  0  0  0  0  0  0  0  0  0  0
  190.9850  172.9800  141.5600 C   0  0  0  0  0  3  0  0  0  0  0  0
  191.6400  174.6260  143.8970 C   0  0  0  0  0  2  0  0  0  0  0  0
  190.8050  175.1530  142.7280 C   0  0  2  0  0  3  0  0  0  0  0  0
  188.8690  176.5890  142.0790 C   0  0  0  0  0  2  0  0  0  0  0  0
  190.3360  177.2330  143.9790 N   0  0  0  0  0  0  0  0  0  0  0  0
  191.0610  176.7060  145.1370 C   0  0  0  0  0  2  0  0  0  0  0  0
  188.0590  175.4210  141.5220 C   0  0  0  0  0  2  0  0  0  0  0  0
  193.0070  175.3390  145.8620 C   0  0  0  0  0  0  0  0  0  0  0  0
  194.1740  176.0560  146.2780 N   0  0  0  0  0  2  0  0  0  0  0  0
  192.6470  174.3180  146.5080 O   0  0  0  0  0  0  0  0  0  0  0  0
  194.5770  177.3200  145.6770 C   0  0  0  0  0  2  0  0  0  0  0  0
  195.6350  177.0710  144.6210 C   0  0  0  0  0  2  0  0  0  0  0  0
  195.9530  175.5920  144.5570 C   0  0  0  0  0  2  0  0  0  0  0  0
  196.3110  175.1950  143.1310 C   0  0  2  0  0  3  0  0  0  0  0  0
  194.5230  174.4890  141.6550 C   0  0  0  0  0  2  0  0  0  0  0  0
  195.6890  172.7360  143.0740 C   0  0  0  0  0  0  0  0  0  0  0  0
  196.0000  176.3460  142.1910 C   0  0  0  0  0  2  0  0  0  0  0  0
  195.4560  174.1020  142.6950 N   0  0  0  0  0  0  0  0  0  0  0  0
  196.8560  172.3730  143.3890 O   0  0  0  0  0  0  0  0  0  0  0  0
  194.7110  175.9820  141.4630 C   0  0  0  0  0  2  0  0  0  0  0  0
  194.5860  171.7490  143.1380 C   0  0  0  0  0  0  0  0  0  0  0  0
  192.6050  170.8860  144.2570 C   0  0  0  0  0  3  0  0  0  0  0  0
  193.3250  169.9120  142.1600 C   0  0  0  0  0  3  0  0  0  0  0  0
  192.4300  169.9480  143.2340 C   0  0  0  0  0  3  0  0  0  0  0  0
  194.3960  170.8120  142.1110 C   0  0  0  0  0  3  0  0  0  0  0  0
  193.6740  171.7850  144.2070 C   0  0  0  0  0  3  0  0  0  0  0  0
  189.2820  178.0840  144.5290 C   0  0  0  0  0  2  0  0  0  0  0  0
  185.6850  176.8080  145.1480 C   0  0  0  0  0  2  0  0  0  0  0  0
  185.6780  176.8590  146.6810 C   0  0  1  0  0  3  0  0  0  0  0  0
  188.1590  177.3380  146.6590 C   0  0  0  0  0  2  0  0  0  0  0  0
  186.7990  177.6790  144.5680 C   0  0  0  0  0  2  0  0  0  0  0  0
  188.1540  177.2480  145.1310 C   0  0  1  0  0  3  0  0  0  0  0  0
  187.0470  176.4700  147.2460 C   0  0  0  0  0  2  0  0  0  0  0  0
  184.2390  178.6620  146.2620 C   0  0  0  0  0  1  0  0  0  0  0  0
  185.2860  178.1810  147.1520 N   0  0  0  0  0  2  0  0  0  0  0  0
  1  8  1  0  0  0  0
  1  5  1  0  0  0  0
  2 12  1  6  0  0  0
  2 13  1  0  0  0  0
  3 14  1  0  0  0  0
  3 16  1  1  0  0  0
  4 15  1  0  0  0  0
  4  7  1  0  0  0  0
  5  9  1  0  0  0  0
  6  1  2  0  0  0  0
  7 11  1  0  0  0  0
  8  4  2  0  0  0  0
  9  7  2  0  0  0  0
 10  3  1  0  0  0  0
 11  2  1  0  0  0  0
 11 10  1  1  0  0  0
 13 35  1  0  0  0  0
 13 14  1  0  0  0  0
 15 12  1  0  0  0  0
 16 17  1  0  0  0  0
 16 18  2  0  0  0  0
 19 17  1  0  0  0  0
 20 19  1  0  0  0  0
 21 20  1  0  0  0  0
 22 21  1  1  0  0  0
 23 26  1  0  0  0  0
 24 29  1  0  0  0  0
 24 27  2  0  0  0  0
 25 22  1  0  0  0  0
 26 24  1  0  0  0  0
 26 22  1  0  0  0  0
 28 23  1  0  0  0  0
 28 25  1  0  0  0  0
 29 34  1  0  0  0  0
 31 32  2  0  0  0  0
 32 30  1  0  0  0  0
 33 31  1  0  0  0  0
 33 29  2  0  0  0  0
 34 30  2  0  0  0  0
 36 37  1  0  0  0  0
 37 43  1  6  0  0  0
 37 41  1  0  0  0  0
 38 41  1  0  0  0  0
 39 40  1  0  0  0  0
 39 36  1  0  0  0  0
 40 35  1  6  0  0  0
 40 38  1  0  0  0  0
 42 43  1  0  0  0  0
M  END
>  <MODEL>
8

>  <REMARK>
 VINA RESULT:      -6.7      2.343      7.711
  Name = 
  9 active torsions:
  status: ('A' for Active; 'I' for Inactive)
    1  A    between atoms: C_1  and  N_34
    2  A    between atoms: C_1  and  C_35
    3  A    between atoms: C_2  and  C_13
    4  A    between atoms: C_3  and  C_4
    5  A    between atoms: C_3  and  C_12
    6  A    between atoms: N_6  and  C_17
    7  A    between atoms: C_11  and  C_14
    8  A    between atoms: C_12  and  C_17
    9  A    between atoms: C_19  and  N_37
                            x       y       z     vdW  Elec       q    Type
                         _______ _______ _______ _____ _____    ______ ____

>  <TORSDO>
F 9

$$$$
=
 OpenBabel11052420483D

 43 48  0  0  1  0  0  0  0  0999 V2000
  186.3610  178.2830  145.7580 C   0  0  0  0  0  0  0  0  0  0  0  0
  189.5400  174.4630  144.5010 C   0  0  2  0  0  3  0  0  0  0  0  0
  189.8730  174.4540  141.6370 C   0  0  1  0  0  3  0  0  0  0  0  0
  187.8620  176.4260  145.8240 C   0  0  0  0  0  0  0  0  0  0  0  0
  186.2060  178.2170  144.2680 C   0  0  0  0  0  2  0  0  0  0  0  0
  185.7690  179.1840  146.4090 O   0  0  0  0  0  0  0  0  0  0  0  0
  187.9720  176.4560  144.3370 C   0  0  0  0  0  0  0  0  0  0  0  0
  187.1210  177.2880  146.4530 N   0  0  0  0  0  0  0  0  0  0  0  0
  187.2580  177.3490  143.6390 C   0  0  0  0  0  3  0  0  0  0  0  0
  188.6930  175.1990  142.2550 C   0  0  0  0  0  2  0  0  0  0  0  0
  189.0740  175.6700  143.6600 C   0  0  2  0  0  3  0  0  0  0  0  0
  189.8780  174.9540  145.9120 C   0  0  0  0  0  2  0  0  0  0  0  0
  190.6990  173.8170  143.8590 N   0  0  0  0  0  0  0  0  0  0  0  0
  190.2830  173.3060  142.5520 C   0  0  0  0  0  2  0  0  0  0  0  0
  188.5990  175.3890  146.6200 C   0  0  0  0  0  2  0  0  0  0  0  0
  189.5380  173.9440  140.2680 C   0  0  0  0  0  0  0  0  0  0  0  0
  190.4970  173.1950  139.5140 N   0  0  0  0  0  2  0  0  0  0  0  0
  188.3960  174.1550  139.7760 O   0  0  0  0  0  0  0  0  0  0  0  0
  191.7820  172.7860  140.0620 C   0  0  0  0  0  2  0  0  0  0  0  0
  192.8930  173.1620  139.1010 C   0  0  0  0  0  2  0  0  0  0  0  0
  193.4320  174.5320  139.4570 C   0  0  0  0  0  2  0  0  0  0  0  0
  194.8910  174.4260  139.8820 C   0  0  2  0  0  3  0  0  0  0  0  0
  195.3900  173.4120  142.0260 C   0  0  0  0  0  2  0  0  0  0  0  0
  194.9730  175.9150  141.9350 C   0  0  0  0  0  0  0  0  0  0  0  0
  195.3920  173.0160  139.6260 C   0  0  0  0  0  2  0  0  0  0  0  0
  195.0000  174.6170  141.3200 N   0  0  0  0  0  0  0  0  0  0  0  0
  195.3200  176.9240  141.2600 O   0  0  0  0  0  0  0  0  0  0  0  0
  195.4420  172.3150  140.9790 C   0  0  0  0  0  2  0  0  0  0  0  0
  194.5170  176.1040  143.3310 C   0  0  0  0  0  0  0  0  0  0  0  0
  192.7150  176.5380  144.9080 C   0  0  0  0  0  3  0  0  0  0  0  0
  194.9460  176.0700  145.7250 C   0  0  0  0  0  3  0  0  0  0  0  0
  193.6040  176.3750  145.9760 C   0  0  0  0  0  3  0  0  0  0  0  0
  195.3990  175.9320  144.4080 C   0  0  0  0  0  3  0  0  0  0  0  0
  193.1680  176.3990  143.5930 C   0  0  0  0  0  3  0  0  0  0  0  0
  191.0790  172.6410  144.6400 C   0  0  0  0  0  2  0  0  0  0  0  0
  194.1090  170.3780  143.8370 C   0  0  0  0  0  2  0  0  0  0  0  0
  195.0410  170.8220  144.9710 C   0  0  1  0  0  3  0  0  0  0  0  0
  193.4330  172.6870  145.5390 C   0  0  0  0  0  2  0  0  0  0  0  0
  192.6560  170.7470  144.1350 C   0  0  0  0  0  2  0  0  0  0  0  0
  192.5330  172.2510  144.3800 C   0  0  1  0  0  3  0  0  0  0  0  0
  194.8870  172.3200  145.2490 C   0  0  0  0  0  2  0  0  0  0  0  0
  196.0830  169.6390  146.7070 C   0  0  0  0  0  1  0  0  0  0  0  0
  194.7880  170.0490  146.1810 N   0  0  0  0  0  2  0  0  0  0  0  0
  1  6  2  0  0  0  0
  1  8  1  0  0  0  0
  2 12  1  1  0  0  0
  3 16  1  6  0  0  0
  3 10  1  0  0  0  0
  3 14  1  0  0  0  0
  4  8  2  0  0  0  0
  4 15  1  0  0  0  0
  5  1  1  0  0  0  0
  7  4  1  0  0  0  0
  9  5  1  0  0  0  0
  9  7  2  0  0  0  0
 11 10  1  6  0  0  0
 11  7  1  0  0  0  0
 11  2  1  0  0  0  0
 12 15  1  0  0  0  0
 13  2  1  0  0  0  0
 13 35  1  0  0  0  0
 14 13  1  0  0  0  0
 17 19  1  0  0  0  0
 17 16  1  0  0  0  0
 18 16  2  0  0  0  0
 20 21  1  0  0  0  0
 20 19  1  0  0  0  0
 22 21  1  1  0  0  0
 22 26  1  0  0  0  0
 24 29  1  0  0  0  0
 25 22  1  0  0  0  0
 25 28  1  0  0  0  0
 26 24  1  0  0  0  0
 26 23  1  0  0  0  0
 27 24  2  0  0  0  0
 28 23  1  0  0  0  0
 29 34  2  0  0  0  0
 29 33  1  0  0  0  0
 30 32  2  0  0  0  0
 31 32  1  0  0  0  0
 33 31  2  0  0  0  0
 34 30  1  0  0  0  0
 36 39  1  0  0  0  0
 36 37  1  0  0  0  0
 37 41  1  0  0  0  0
 37 43  1  1  0  0  0
 39 40  1  0  0  0  0
 40 35  1  1  0  0  0
 40 38  1  0  0  0  0
 41 38  1  0  0  0  0
 43 42  1  0  0  0  0
M  END
>  <MODEL>
9

>  <REMARK>
 VINA RESULT:      -6.7      2.546      5.039
  Name = 
  9 active torsions:
  status: ('A' for Active; 'I' for Inactive)
    1  A    between atoms: C_1  and  N_34
    2  A    between atoms: C_1  and  C_35
    3  A    between atoms: C_2  and  C_13
    4  A    between atoms: C_3  and  C_4
    5  A    between atoms: C_3  and  C_12
    6  A    between atoms: N_6  and  C_17
    7  A    between atoms: C_11  and  C_14
    8  A    between atoms: C_12  and  C_17
    9  A    between atoms: C_19  and  N_37
                            x       y       z     vdW  Elec       q    Type
                         _______ _______ _______ _____ _____    ______ ____

>  <TORSDO>
F 9

$$$$
