=
 OpenBabel11052417133D

 30 31  0  0  1  0  0  0  0  0999 V2000
  192.2360  175.3710  144.7200 N   0  0  0  0  0  0  0  0  0  0  0  0
  191.3940  175.5990  145.8800 C   0  0  1  0  0  3  0  0  0  0  0  0
  192.3340  176.1360  146.9500 C   0  0  0  0  0  2  0  0  0  0  0  0
  193.5800  175.8890  144.8800 C   0  0  0  0  0  2  0  0  0  0  0  0
  193.5920  176.5900  146.2240 C   0  0  0  0  0  2  0  0  0  0  0  0
  192.6160  174.4970  142.5890 O   0  0  0  0  0  0  0  0  0  0  0  0
  191.8540  174.5700  143.5920 C   0  0  0  0  0  0  0  0  0  0  0  0
  190.5750  173.7800  143.6100 C   0  0  2  0  0  3  0  0  0  0  0  0
  189.6270  172.1510  144.9730 N   0  0  0  0  0  1  0  0  0  0  0  0
  190.7820  172.4720  144.2440 N   0  0  0  0  0  0  0  0  0  0  0  0
  190.8750  171.5430  143.2620 O   0  0  0  0  0  1  0  0  0  0  0  0
  190.0870  173.6090  142.1710 C   0  0  0  0  0  2  0  0  0  0  0  0
  187.8930  172.7450  141.7600 O   0  0  0  0  0  1  0  0  0  0  0  0
  188.6000  173.9130  142.0540 C   0  0  2  0  0  3  0  0  0  0  0  0
  188.3160  174.9970  141.0140 C   0  0  0  0  0  2  0  0  0  0  0  0
  188.7590  177.1420  142.2330 C   0  0  0  0  0  1  0  0  0  0  0  0
  186.6920  175.8680  142.6660 C   0  0  0  0  0  1  0  0  0  0  0  0
  187.6980  176.2600  141.6040 C   0  0  0  0  0  3  0  0  0  0  0  0
  190.3320  176.6410  145.5380 C   0  0  0  0  0  2  0  0  0  0  0  0
  188.9290  176.2060  145.9490 C   0  0  1  0  0  3  0  0  0  0  0  0
  189.0260  175.0710  146.7530 O   0  0  0  0  0  1  0  0  0  0  0  0
  188.2090  177.3010  146.7260 C   0  0  0  0  0  2  0  0  0  0  0  0
  184.4440  178.9330  144.7020 C   0  0  0  0  0  0  0  0  0  0  0  0
  184.0790  178.6860  146.1280 C   0  0  0  0  0  2  0  0  0  0  0  0
  183.4730  179.3220  143.8420 F   0  0  0  0  0  0  0  0  0  0  0  0
  186.8920  177.6410  146.1150 C   0  0  0  0  0  0  0  0  0  0  0  0
  184.4580  177.3090  146.5580 C   0  0  0  0  0  3  0  0  0  0  0  0
  185.7070  178.9030  144.2750 C   0  0  0  0  0  3  0  0  0  0  0  0
  185.7180  176.8770  146.5810 C   0  0  0  0  0  3  0  0  0  0  0  0
  186.8780  178.4860  145.0720 C   0  0  0  0  0  3  0  0  0  0  0  0
  1  4  1  0  0  0  0
  1  2  1  0  0  0  0
  2 19  1  6  0  0  0
  2  3  1  0  0  0  0
  4  5  1  0  0  0  0
  5  3  1  0  0  0  0
  6  7  2  0  0  0  0
  7  8  1  0  0  0  0
  7  1  1  0  0  0  0
  8 12  1  6  0  0  0
  8 10  1  0  0  0  0
 10  9  1  0  0  0  0
 11 10  1  0  0  0  0
 14 13  1  6  0  0  0
 14 12  1  0  0  0  0
 15 18  1  0  0  0  0
 15 14  1  0  0  0  0
 18 16  1  0  0  0  0
 18 17  1  0  0  0  0
 19 20  1  0  0  0  0
 20 22  1  0  0  0  0
 20 21  1  1  0  0  0
 23 24  1  0  0  0  0
 24 27  1  0  0  0  0
 25 23  1  0  0  0  0
 26 29  1  0  0  0  0
 26 22  1  0  0  0  0
 27 29  2  0  0  0  0
 28 23  2  0  0  0  0
 28 30  1  0  0  0  0
 30 26  2  0  0  0  0
M  END
>  <MODEL>
1

>  <REMARK>
 VINA RESULT:      -6.8      0.000      0.000
  Name = 
  10 active torsions:
  status: ('A' for Active; 'I' for Inactive)
    1  A    between atoms: C_3  and  C_11
    2  A    between atoms: C_3  and  C_19
    3  A    between atoms: N_4  and  C_13
    4  A    between atoms: C_8  and  C_12
    5  A    between atoms: C_8  and  C_13
    6  A    between atoms: C_9  and  C_12
    7  A    between atoms: C_9  and  C_21
    8  A    between atoms: C_10  and  C_25
    9  A    between atoms: C_11  and  C_25
   10  A    between atoms: C_13  and  C_30
                            x       y       z     vdW  Elec       q    Type
                         _______ _______ _______ _____ _____    ______ ____

>  <TORSDO>
F 10

$$$$
=
 OpenBabel11052417133D

 30 31  0  0  1  0  0  0  0  0999 V2000
  190.0810  173.5660  142.7560 N   0  0  0  0  0  0  0  0  0  0  0  0
  189.5300  174.8170  142.2690 C   0  0  1  0  0  3  0  0  0  0  0  0
  188.6740  174.4310  141.0720 C   0  0  0  0  0  2  0  0  0  0  0  0
  189.5100  172.4010  142.1110 C   0  0  0  0  0  2  0  0  0  0  0  0
  188.4340  172.9320  141.1840 C   0  0  0  0  0  2  0  0  0  0  0  0
  191.5520  172.3440  144.0960 O   0  0  0  0  0  0  0  0  0  0  0  0
  191.1940  173.4720  143.6570 C   0  0  0  0  0  0  0  0  0  0  0  0
  191.9690  174.6990  144.0500 C   0  0  2  0  0  3  0  0  0  0  0  0
  193.1020  176.3880  142.9230 N   0  0  0  0  0  1  0  0  0  0  0  0
  193.0090  174.9950  143.0570 N   0  0  0  0  0  0  0  0  0  0  0  0
  194.1980  174.5880  143.5640 O   0  0  0  0  0  1  0  0  0  0  0  0
  192.5920  174.4640  145.4260 C   0  0  0  0  0  2  0  0  0  0  0  0
  193.5950  176.2290  146.6930 O   0  0  0  0  0  1  0  0  0  0  0  0
  192.3700  175.6590  146.3420 C   0  0  2  0  0  3  0  0  0  0  0  0
  191.5680  175.2850  147.5890 C   0  0  0  0  0  2  0  0  0  0  0  0
  189.2370  174.7080  146.8690 C   0  0  0  0  0  1  0  0  0  0  0  0
  190.0330  177.0390  146.7540 C   0  0  0  0  0  1  0  0  0  0  0  0
  190.1150  175.7470  147.5390 C   0  0  0  0  0  3  0  0  0  0  0  0
  188.6640  175.4470  143.3570 C   0  0  0  0  0  2  0  0  0  0  0  0
  188.7620  176.9690  143.3760 C   0  0  1  0  0  3  0  0  0  0  0  0
  189.7920  177.3660  142.5260 O   0  0  0  0  0  1  0  0  0  0  0  0
  187.4630  177.6180  142.9130 C   0  0  0  0  0  2  0  0  0  0  0  0
  184.8940  178.3610  146.6270 C   0  0  0  0  0  0  0  0  0  0  0  0
  184.0540  178.7440  145.4540 C   0  0  0  0  0  2  0  0  0  0  0  0
  184.4090  178.5840  147.8710 F   0  0  0  0  0  0  0  0  0  0  0  0
  186.6270  178.0690  144.0640 C   0  0  0  0  0  0  0  0  0  0  0  0
  184.7790  179.6770  144.5450 C   0  0  0  0  0  3  0  0  0  0  0  0
  186.0440  177.6990  146.4930 C   0  0  0  0  0  3  0  0  0  0  0  0
  185.9000  179.3450  143.9060 C   0  0  0  0  0  3  0  0  0  0  0  0
  186.7190  177.3890  145.2170 C   0  0  0  0  0  3  0  0  0  0  0  0
  1  7  1  0  0  0  0
  2  1  1  0  0  0  0
  2 19  1  1  0  0  0
  3  5  1  0  0  0  0
  3  2  1  0  0  0  0
  4  1  1  0  0  0  0
  5  4  1  0  0  0  0
  7  8  1  0  0  0  0
  7  6  2  0  0  0  0
  8 12  1  1  0  0  0
  9 10  1  0  0  0  0
 10 11  1  0  0  0  0
 10  8  1  0  0  0  0
 12 14  1  0  0  0  0
 14 13  1  1  0  0  0
 14 15  1  0  0  0  0
 16 18  1  0  0  0  0
 17 18  1  0  0  0  0
 18 15  1  0  0  0  0
 19 20  1  0  0  0  0
 20 21  1  6  0  0  0
 22 20  1  0  0  0  0
 22 26  1  0  0  0  0
 23 25  1  0  0  0  0
 24 23  1  0  0  0  0
 26 30  2  0  0  0  0
 27 24  1  0  0  0  0
 28 23  2  0  0  0  0
 29 26  1  0  0  0  0
 29 27  2  0  0  0  0
 30 28  1  0  0  0  0
M  END
>  <MODEL>
2

>  <REMARK>
 VINA RESULT:      -6.6      1.924      4.650
  Name = 
  10 active torsions:
  status: ('A' for Active; 'I' for Inactive)
    1  A    between atoms: C_3  and  C_11
    2  A    between atoms: C_3  and  C_19
    3  A    between atoms: N_4  and  C_13
    4  A    between atoms: C_8  and  C_12
    5  A    between atoms: C_8  and  C_13
    6  A    between atoms: C_9  and  C_12
    7  A    between atoms: C_9  and  C_21
    8  A    between atoms: C_10  and  C_25
    9  A    between atoms: C_11  and  C_25
   10  A    between atoms: C_13  and  C_30
                            x       y       z     vdW  Elec       q    Type
                         _______ _______ _______ _____ _____    ______ ____

>  <TORSDO>
F 10

$$$$
=
 OpenBabel11052417133D

 30 31  0  0  1  0  0  0  0  0999 V2000
  189.8270  173.1980  141.2910 N   0  0  0  0  0  0  0  0  0  0  0  0
  189.0450  174.3880  141.0120 C   0  0  1  0  0  3  0  0  0  0  0  0
  188.4530  174.1570  139.6300 C   0  0  0  0  0  2  0  0  0  0  0  0
  189.6380  172.1490  140.3100 C   0  0  0  0  0  2  0  0  0  0  0  0
  188.5790  172.6650  139.3560 C   0  0  0  0  0  2  0  0  0  0  0  0
  191.3890  172.0060  142.5520 O   0  0  0  0  0  0  0  0  0  0  0  0
  190.8180  173.1090  142.3250 C   0  0  0  0  0  0  0  0  0  0  0  0
  191.2160  174.3260  143.1140 C   0  0  2  0  0  3  0  0  0  0  0  0
  192.7080  174.7590  141.3830 N   0  0  0  0  0  1  0  0  0  0  0  0
  192.5870  174.7320  142.7810 N   0  0  0  0  0  0  0  0  0  0  0  0
  192.7550  176.0110  143.1960 O   0  0  0  0  0  1  0  0  0  0  0  0
  191.0980  174.0030  144.6030 C   0  0  0  0  0  2  0  0  0  0  0  0
  191.8380  175.1850  146.5470 O   0  0  0  0  0  1  0  0  0  0  0  0
  190.9990  175.2730  145.4350 C   0  0  2  0  0  3  0  0  0  0  0  0
  189.5610  175.5700  145.8620 C   0  0  0  0  0  2  0  0  0  0  0  0
  190.0710  177.7960  144.8280 C   0  0  0  0  0  1  0  0  0  0  0  0
  189.4430  177.6440  147.2080 C   0  0  0  0  0  1  0  0  0  0  0  0
  189.2110  177.0540  145.8330 C   0  0  0  0  0  3  0  0  0  0  0  0
  187.9310  174.5170  142.0490 C   0  0  0  0  0  2  0  0  0  0  0  0
  187.8290  175.9240  142.6290 C   0  0  1  0  0  3  0  0  0  0  0  0
  188.6510  176.7760  141.8930 O   0  0  0  0  0  1  0  0  0  0  0  0
  186.3990  176.4490  142.5740 C   0  0  0  0  0  2  0  0  0  0  0  0
  184.9180  178.2320  146.5190 C   0  0  0  0  0  0  0  0  0  0  0  0
  184.4100  179.1270  145.4380 C   0  0  0  0  0  2  0  0  0  0  0  0
  184.7120  178.5910  147.8080 F   0  0  0  0  0  0  0  0  0  0  0  0
  186.0370  177.2030  143.8080 C   0  0  0  0  0  0  0  0  0  0  0  0
  185.5020  179.5380  144.5110 C   0  0  0  0  0  3  0  0  0  0  0  0
  185.4560  177.0390  146.2610 C   0  0  0  0  0  3  0  0  0  0  0  0
  186.1870  178.6720  143.7660 C   0  0  0  0  0  3  0  0  0  0  0  0
  185.7660  176.5030  144.9210 C   0  0  0  0  0  3  0  0  0  0  0  0
  1  7  1  0  0  0  0
  2  1  1  0  0  0  0
  2 19  1  1  0  0  0
  3  2  1  0  0  0  0
  4  1  1  0  0  0  0
  5  3  1  0  0  0  0
  5  4  1  0  0  0  0
  7  6  2  0  0  0  0
  7  8  1  0  0  0  0
  8 12  1  1  0  0  0
  9 10  1  0  0  0  0
 10  8  1  0  0  0  0
 10 11  1  0  0  0  0
 12 14  1  0  0  0  0
 14 15  1  0  0  0  0
 14 13  1  1  0  0  0
 16 18  1  0  0  0  0
 18 15  1  0  0  0  0
 18 17  1  0  0  0  0
 19 20  1  0  0  0  0
 20 21  1  6  0  0  0
 22 20  1  0  0  0  0
 22 26  1  0  0  0  0
 23 25  1  0  0  0  0
 24 23  1  0  0  0  0
 26 30  2  0  0  0  0
 27 24  1  0  0  0  0
 28 23  2  0  0  0  0
 29 26  1  0  0  0  0
 29 27  2  0  0  0  0
 30 28  1  0  0  0  0
M  END
>  <MODEL>
3

>  <REMARK>
 VINA RESULT:      -6.3      1.949      4.630
  Name = 
  10 active torsions:
  status: ('A' for Active; 'I' for Inactive)
    1  A    between atoms: C_3  and  C_11
    2  A    between atoms: C_3  and  C_19
    3  A    between atoms: N_4  and  C_13
    4  A    between atoms: C_8  and  C_12
    5  A    between atoms: C_8  and  C_13
    6  A    between atoms: C_9  and  C_12
    7  A    between atoms: C_9  and  C_21
    8  A    between atoms: C_10  and  C_25
    9  A    between atoms: C_11  and  C_25
   10  A    between atoms: C_13  and  C_30
                            x       y       z     vdW  Elec       q    Type
                         _______ _______ _______ _____ _____    ______ ____

>  <TORSDO>
F 10

$$$$
=
 OpenBabel11052417133D

 30 31  0  0  1  0  0  0  0  0999 V2000
  192.9290  175.4230  145.0510 N   0  0  0  0  0  0  0  0  0  0  0  0
  191.7470  175.6460  145.8630 C   0  0  1  0  0  3  0  0  0  0  0  0
  192.2640  176.2780  147.1470 C   0  0  0  0  0  2  0  0  0  0  0  0
  194.1240  176.0270  145.6060 C   0  0  0  0  0  2  0  0  0  0  0  0
  193.6690  176.7770  146.8420 C   0  0  0  0  0  2  0  0  0  0  0  0
  194.0180  174.4930  143.2070 O   0  0  0  0  0  0  0  0  0  0  0  0
  192.9690  174.5600  143.9060 C   0  0  0  0  0  0  0  0  0  0  0  0
  191.7890  173.6960  143.5540 C   0  0  2  0  0  3  0  0  0  0  0  0
  190.4470  172.0780  144.5470 N   0  0  0  0  0  1  0  0  0  0  0  0
  191.7800  172.4740  144.3670 N   0  0  0  0  0  0  0  0  0  0  0  0
  192.3690  171.4900  143.6460 O   0  0  0  0  0  1  0  0  0  0  0  0
  191.8610  173.3520  142.0670 C   0  0  0  0  0  2  0  0  0  0  0  0
  190.6920  173.7370  140.0150 O   0  0  0  0  0  1  0  0  0  0  0  0
  190.5150  173.5560  141.3880 C   0  0  2  0  0  3  0  0  0  0  0  0
  189.7370  174.7260  141.9940 C   0  0  0  0  0  2  0  0  0  0  0  0
  187.8710  173.0630  141.8080 C   0  0  0  0  0  1  0  0  0  0  0  0
  187.3760  175.4590  142.1120 C   0  0  0  0  0  1  0  0  0  0  0  0
  188.3380  174.3460  142.4680 C   0  0  0  0  0  3  0  0  0  0  0  0
  190.8090  176.6100  145.1410 C   0  0  0  0  0  2  0  0  0  0  0  0
  189.3400  176.2370  145.3120 C   0  0  1  0  0  3  0  0  0  0  0  0
  189.2590  174.9850  145.9200 O   0  0  0  0  0  1  0  0  0  0  0  0
  188.6020  177.2540  146.1750 C   0  0  0  0  0  2  0  0  0  0  0  0
  184.5910  178.5490  144.3940 C   0  0  0  0  0  0  0  0  0  0  0  0
  184.4100  178.5460  145.8760 C   0  0  0  0  0  2  0  0  0  0  0  0
  183.5160  178.7960  143.6100 F   0  0  0  0  0  0  0  0  0  0  0  0
  187.2150  177.4960  145.6850 C   0  0  0  0  0  0  0  0  0  0  0  0
  184.8590  177.2580  146.4780 C   0  0  0  0  0  3  0  0  0  0  0  0
  185.7920  178.4400  143.8240 C   0  0  0  0  0  3  0  0  0  0  0  0
  186.1190  176.8280  146.4160 C   0  0  0  0  0  3  0  0  0  0  0  0
  187.0590  178.1540  144.5260 C   0  0  0  0  0  3  0  0  0  0  0  0
  1  4  1  0  0  0  0
  1  2  1  0  0  0  0
  2 19  1  6  0  0  0
  2  3  1  0  0  0  0
  4  5  1  0  0  0  0
  5  3  1  0  0  0  0
  6  7  2  0  0  0  0
  7  1  1  0  0  0  0
  8 12  1  6  0  0  0
  8  7  1  0  0  0  0
  8 10  1  0  0  0  0
 10  9  1  0  0  0  0
 11 10  1  0  0  0  0
 14 13  1  6  0  0  0
 14 15  1  0  0  0  0
 14 12  1  0  0  0  0
 15 18  1  0  0  0  0
 16 18  1  0  0  0  0
 17 18  1  0  0  0  0
 19 20  1  0  0  0  0
 20 21  1  1  0  0  0
 20 22  1  0  0  0  0
 23 24  1  0  0  0  0
 24 27  1  0  0  0  0
 25 23  1  0  0  0  0
 26 22  1  0  0  0  0
 26 29  1  0  0  0  0
 28 23  2  0  0  0  0
 28 30  1  0  0  0  0
 29 27  2  0  0  0  0
 30 26  2  0  0  0  0
M  END
>  <MODEL>
4

>  <REMARK>
 VINA RESULT:      -6.2      1.108      1.434
  Name = 
  10 active torsions:
  status: ('A' for Active; 'I' for Inactive)
    1  A    between atoms: C_3  and  C_11
    2  A    between atoms: C_3  and  C_19
    3  A    between atoms: N_4  and  C_13
    4  A    between atoms: C_8  and  C_12
    5  A    between atoms: C_8  and  C_13
    6  A    between atoms: C_9  and  C_12
    7  A    between atoms: C_9  and  C_21
    8  A    between atoms: C_10  and  C_25
    9  A    between atoms: C_11  and  C_25
   10  A    between atoms: C_13  and  C_30
                            x       y       z     vdW  Elec       q    Type
                         _______ _______ _______ _____ _____    ______ ____

>  <TORSDO>
F 10

$$$$
=
 OpenBabel11052417133D

 30 31  0  0  1  0  0  0  0  0999 V2000
  191.5510  172.5510  143.2140 N   0  0  0  0  0  0  0  0  0  0  0  0
  190.7990  173.5290  142.4500 C   0  0  1  0  0  3  0  0  0  0  0  0
  190.2870  172.7710  141.2340 C   0  0  0  0  0  2  0  0  0  0  0  0
  191.4070  171.2010  142.7080 C   0  0  0  0  0  2  0  0  0  0  0  0
  190.4110  171.2920  141.5690 C   0  0  0  0  0  2  0  0  0  0  0  0
  193.0230  171.9630  144.9270 O   0  0  0  0  0  0  0  0  0  0  0  0
  192.4780  172.8830  144.2570 C   0  0  0  0  0  0  0  0  0  0  0  0
  192.8440  174.3160  144.5320 C   0  0  2  0  0  3  0  0  0  0  0  0
  193.9400  176.0020  143.3640 N   0  0  0  0  0  1  0  0  0  0  0  0
  194.0750  174.6820  143.8210 N   0  0  0  0  0  0  0  0  0  0  0  0
  195.0870  174.6990  144.7200 O   0  0  0  0  0  1  0  0  0  0  0  0
  193.0210  174.4940  146.0390 C   0  0  0  0  0  2  0  0  0  0  0  0
  193.3510  176.7070  146.8880 O   0  0  0  0  0  1  0  0  0  0  0  0
  192.3710  175.7820  146.5220 C   0  0  2  0  0  3  0  0  0  0  0  0
  191.3970  175.5380  147.6750 C   0  0  0  0  0  2  0  0  0  0  0  0
  189.1550  174.7500  146.8780 C   0  0  0  0  0  1  0  0  0  0  0  0
  189.9740  176.9940  146.2670 C   0  0  0  0  0  1  0  0  0  0  0  0
  189.9610  175.9420  147.3560 C   0  0  0  0  0  3  0  0  0  0  0  0
  189.6280  174.0370  143.2880 C   0  0  0  0  0  2  0  0  0  0  0  0
  189.4220  175.5420  143.1580 C   0  0  1  0  0  3  0  0  0  0  0  0
  190.5570  176.1050  142.5750 O   0  0  0  0  0  1  0  0  0  0  0  0
  188.2110  175.8680  142.2930 C   0  0  0  0  0  2  0  0  0  0  0  0
  185.7200  179.2760  144.0580 C   0  0  0  0  0  0  0  0  0  0  0  0
  186.3720  178.5930  145.2140 C   0  0  0  0  0  2  0  0  0  0  0  0
  184.8320  180.2670  144.3090 F   0  0  0  0  0  0  0  0  0  0  0  0
  187.2860  176.8230  142.9690 C   0  0  0  0  0  0  0  0  0  0  0  0
  186.1510  177.1190  145.1720 C   0  0  0  0  0  3  0  0  0  0  0  0
  186.0710  179.0310  142.7950 C   0  0  0  0  0  3  0  0  0  0  0  0
  186.5980  176.3450  144.1850 C   0  0  0  0  0  3  0  0  0  0  0  0
  187.0060  177.9790  142.3470 C   0  0  0  0  0  3  0  0  0  0  0  0
  1  7  1  0  0  0  0
  2  1  1  0  0  0  0
  2 19  1  1  0  0  0
  3  5  1  0  0  0  0
  3  2  1  0  0  0  0
  4  1  1  0  0  0  0
  5  4  1  0  0  0  0
  7  8  1  0  0  0  0
  7  6  2  0  0  0  0
  8 12  1  1  0  0  0
  9 10  1  0  0  0  0
 10  8  1  0  0  0  0
 10 11  1  0  0  0  0
 12 14  1  0  0  0  0
 14 13  1  1  0  0  0
 14 15  1  0  0  0  0
 16 18  1  0  0  0  0
 17 18  1  0  0  0  0
 18 15  1  0  0  0  0
 20 21  1  6  0  0  0
 20 19  1  0  0  0  0
 22 26  1  0  0  0  0
 22 20  1  0  0  0  0
 23 25  1  0  0  0  0
 23 24  1  0  0  0  0
 26 29  1  0  0  0  0
 27 24  1  0  0  0  0
 28 23  2  0  0  0  0
 29 27  2  0  0  0  0
 30 28  1  0  0  0  0
 30 26  2  0  0  0  0
M  END
>  <MODEL>
5

>  <REMARK>
 VINA RESULT:      -6.0      1.948      4.676
  Name = 
  10 active torsions:
  status: ('A' for Active; 'I' for Inactive)
    1  A    between atoms: C_3  and  C_11
    2  A    between atoms: C_3  and  C_19
    3  A    between atoms: N_4  and  C_13
    4  A    between atoms: C_8  and  C_12
    5  A    between atoms: C_8  and  C_13
    6  A    between atoms: C_9  and  C_12
    7  A    between atoms: C_9  and  C_21
    8  A    between atoms: C_10  and  C_25
    9  A    between atoms: C_11  and  C_25
   10  A    between atoms: C_13  and  C_30
                            x       y       z     vdW  Elec       q    Type
                         _______ _______ _______ _____ _____    ______ ____

>  <TORSDO>
F 10

$$$$
=
 OpenBabel11052417133D

 30 31  0  0  1  0  0  0  0  0999 V2000
  186.7180  176.8700  145.2500 N   0  0  0  0  0  0  0  0  0  0  0  0
  187.9430  177.1790  145.9650 C   0  0  1  0  0  3  0  0  0  0  0  0
  187.4890  177.8590  147.2490 C   0  0  0  0  0  2  0  0  0  0  0  0
  185.5240  177.1080  146.0350 C   0  0  0  0  0  2  0  0  0  0  0  0
  186.0120  177.5290  147.4070 C   0  0  0  0  0  2  0  0  0  0  0  0
  185.5630  176.1870  143.3400 O   0  0  0  0  0  0  0  0  0  0  0  0
  186.6630  176.5260  143.8580 C   0  0  0  0  0  0  0  0  0  0  0  0
  187.8940  176.6070  142.9980 C   0  0  2  0  0  3  0  0  0  0  0  0
  189.2090  178.2900  142.0790 N   0  0  0  0  0  1  0  0  0  0  0  0
  187.8860  177.8370  142.1980 N   0  0  0  0  0  0  0  0  0  0  0  0
  187.4860  177.5170  140.9440 O   0  0  0  0  0  1  0  0  0  0  0  0
  187.9380  175.3760  142.0920 C   0  0  0  0  0  2  0  0  0  0  0  0
  190.3010  175.0030  142.1360 O   0  0  0  0  0  1  0  0  0  0  0  0
  189.0720  174.4420  142.4870 C   0  0  2  0  0  3  0  0  0  0  0  0
  188.9130  173.0520  141.8690 C   0  0  0  0  0  2  0  0  0  0  0  0
  189.4440  172.4200  144.2360 C   0  0  0  0  0  1  0  0  0  0  0  0
  190.6270  171.3360  142.3630 C   0  0  0  0  0  1  0  0  0  0  0  0
  189.3040  171.9180  142.8110 C   0  0  0  0  0  3  0  0  0  0  0  0
  188.6830  175.8830  146.2870 C   0  0  0  0  0  2  0  0  0  0  0  0
  190.0720  175.8300  145.6600 C   0  0  1  0  0  3  0  0  0  0  0  0
  190.4080  177.1010  145.1980 O   0  0  0  0  0  1  0  0  0  0  0  0
  191.1230  175.3770  146.6670 C   0  0  0  0  0  2  0  0  0  0  0  0
  195.3340  175.2730  144.8790 C   0  0  0  0  0  0  0  0  0  0  0  0
  194.3890  175.1240  143.7330 C   0  0  0  0  0  2  0  0  0  0  0  0
  196.6620  175.1680  144.6410 F   0  0  0  0  0  0  0  0  0  0  0  0
  192.4460  175.1410  146.0210 C   0  0  0  0  0  0  0  0  0  0  0  0
  193.3900  174.0460  143.9850 C   0  0  0  0  0  3  0  0  0  0  0  0
  194.9240  175.6250  146.0980 C   0  0  0  0  0  3  0  0  0  0  0  0
  192.5100  174.0910  144.9840 C   0  0  0  0  0  3  0  0  0  0  0  0
  193.5190  175.7660  146.5310 C   0  0  0  0  0  3  0  0  0  0  0  0
  1  2  1  0  0  0  0
  1  4  1  0  0  0  0
  2 19  1  1  0  0  0
  2  3  1  0  0  0  0
  3  5  1  0  0  0  0
  4  5  1  0  0  0  0
  6  7  2  0  0  0  0
  7  1  1  0  0  0  0
  8 12  1  6  0  0  0
  8  7  1  0  0  0  0
  9 10  1  0  0  0  0
 10  8  1  0  0  0  0
 11 10  1  0  0  0  0
 12 14  1  0  0  0  0
 14 13  1  6  0  0  0
 15 14  1  0  0  0  0
 15 18  1  0  0  0  0
 17 18  1  0  0  0  0
 18 16  1  0  0  0  0
 20 21  1  1  0  0  0
 20 19  1  0  0  0  0
 20 22  1  0  0  0  0
 23 28  2  0  0  0  0
 24 27  1  0  0  0  0
 24 23  1  0  0  0  0
 25 23  1  0  0  0  0
 26 30  2  0  0  0  0
 26 22  1  0  0  0  0
 27 29  2  0  0  0  0
 28 30  1  0  0  0  0
 29 26  1  0  0  0  0
M  END
>  <MODEL>
6

>  <REMARK>
 VINA RESULT:      -6.0      3.543      6.755
  Name = 
  10 active torsions:
  status: ('A' for Active; 'I' for Inactive)
    1  A    between atoms: C_3  and  C_11
    2  A    between atoms: C_3  and  C_19
    3  A    between atoms: N_4  and  C_13
    4  A    between atoms: C_8  and  C_12
    5  A    between atoms: C_8  and  C_13
    6  A    between atoms: C_9  and  C_12
    7  A    between atoms: C_9  and  C_21
    8  A    between atoms: C_10  and  C_25
    9  A    between atoms: C_11  and  C_25
   10  A    between atoms: C_13  and  C_30
                            x       y       z     vdW  Elec       q    Type
                         _______ _______ _______ _____ _____    ______ ____

>  <TORSDO>
F 10

$$$$
=
 OpenBabel11052417133D

 30 31  0  0  1  0  0  0  0  0999 V2000
  189.9400  173.3230  141.1460 N   0  0  0  0  0  0  0  0  0  0  0  0
  189.1540  174.5430  141.1880 C   0  0  1  0  0  3  0  0  0  0  0  0
  188.2690  174.4850  139.9520 C   0  0  0  0  0  2  0  0  0  0  0  0
  189.5080  172.4020  140.1140 C   0  0  0  0  0  2  0  0  0  0  0  0
  188.2840  173.0370  139.4840 C   0  0  0  0  0  2  0  0  0  0  0  0
  191.7000  171.9780  141.8840 O   0  0  0  0  0  0  0  0  0  0  0  0
  191.1280  173.1030  141.9190 C   0  0  0  0  0  0  0  0  0  0  0  0
  191.7280  174.2130  142.7380 C   0  0  2  0  0  3  0  0  0  0  0  0
  192.5720  176.3590  142.4390 N   0  0  0  0  0  1  0  0  0  0  0  0
  192.5920  175.0610  141.9070 N   0  0  0  0  0  0  0  0  0  0  0  0
  193.8650  174.6200  142.0440 O   0  0  0  0  0  1  0  0  0  0  0  0
  192.5260  173.5960  143.8870 C   0  0  0  0  0  2  0  0  0  0  0  0
  191.0020  175.0090  145.0730 O   0  0  0  0  0  1  0  0  0  0  0  0
  191.9420  173.9890  145.2360 C   0  0  2  0  0  3  0  0  0  0  0  0
  193.0250  174.4030  146.2320 C   0  0  0  0  0  2  0  0  0  0  0  0
  195.4850  174.8220  145.9870 C   0  0  0  0  0  1  0  0  0  0  0  0
  193.9120  176.7130  146.1620 C   0  0  0  0  0  1  0  0  0  0  0  0
  194.0940  175.3080  145.6280 C   0  0  0  0  0  3  0  0  0  0  0  0
  188.2980  174.5500  142.4510 C   0  0  0  0  0  2  0  0  0  0  0  0
  188.1630  175.9420  143.0610 C   0  0  1  0  0  3  0  0  0  0  0  0
  189.2030  176.7430  142.5910 O   0  0  0  0  0  1  0  0  0  0  0  0
  186.8350  176.5890  142.6890 C   0  0  0  0  0  2  0  0  0  0  0  0
  184.6880  178.2530  146.3710 C   0  0  0  0  0  0  0  0  0  0  0  0
  184.1600  179.0130  145.2000 C   0  0  0  0  0  2  0  0  0  0  0  0
  184.2940  178.6210  147.6130 F   0  0  0  0  0  0  0  0  0  0  0  0
  186.2310  177.3200  143.8400 C   0  0  0  0  0  0  0  0  0  0  0  0
  185.2640  179.5620  144.3620 C   0  0  0  0  0  3  0  0  0  0  0  0
  185.4320  177.1550  146.2310 C   0  0  0  0  0  3  0  0  0  0  0  0
  186.1510  178.7910  143.7350 C   0  0  0  0  0  3  0  0  0  0  0  0
  185.9600  176.6270  144.9570 C   0  0  0  0  0  3  0  0  0  0  0  0
  1  2  1  0  0  0  0
  1  7  1  0  0  0  0
  2 19  1  1  0  0  0
  3  2  1  0  0  0  0
  4  1  1  0  0  0  0
  5  3  1  0  0  0  0
  5  4  1  0  0  0  0
  6  7  2  0  0  0  0
  7  8  1  0  0  0  0
  8 12  1  1  0  0  0
 10 11  1  0  0  0  0
 10  9  1  0  0  0  0
 10  8  1  0  0  0  0
 12 14  1  0  0  0  0
 14 13  1  6  0  0  0
 14 15  1  0  0  0  0
 18 16  1  0  0  0  0
 18 17  1  0  0  0  0
 18 15  1  0  0  0  0
 19 20  1  0  0  0  0
 20 21  1  6  0  0  0
 22 20  1  0  0  0  0
 22 26  1  0  0  0  0
 23 25  1  0  0  0  0
 24 23  1  0  0  0  0
 26 30  2  0  0  0  0
 27 24  1  0  0  0  0
 28 23  2  0  0  0  0
 29 26  1  0  0  0  0
 29 27  2  0  0  0  0
 30 28  1  0  0  0  0
M  END
>  <MODEL>
7

>  <REMARK>
 VINA RESULT:      -5.9      2.071      5.028
  Name = 
  10 active torsions:
  status: ('A' for Active; 'I' for Inactive)
    1  A    between atoms: C_3  and  C_11
    2  A    between atoms: C_3  and  C_19
    3  A    between atoms: N_4  and  C_13
    4  A    between atoms: C_8  and  C_12
    5  A    between atoms: C_8  and  C_13
    6  A    between atoms: C_9  and  C_12
    7  A    between atoms: C_9  and  C_21
    8  A    between atoms: C_10  and  C_25
    9  A    between atoms: C_11  and  C_25
   10  A    between atoms: C_13  and  C_30
                            x       y       z     vdW  Elec       q    Type
                         _______ _______ _______ _____ _____    ______ ____

>  <TORSDO>
F 10

$$$$
=
 OpenBabel11052417133D

 30 31  0  0  1  0  0  0  0  0999 V2000
  189.4440  174.3270  142.7310 N   0  0  0  0  0  0  0  0  0  0  0  0
  189.8220  175.7260  142.6620 C   0  0  1  0  0  3  0  0  0  0  0  0
  188.6130  176.4330  142.0660 C   0  0  0  0  0  2  0  0  0  0  0  0
  188.0460  174.0980  142.4200 C   0  0  0  0  0  2  0  0  0  0  0  0
  187.4420  175.4720  142.2130 C   0  0  0  0  0  2  0  0  0  0  0  0
  189.9440  172.0690  143.0520 O   0  0  0  0  0  0  0  0  0  0  0  0
  190.3720  173.2490  142.9170 C   0  0  0  0  0  0  0  0  0  0  0  0
  191.8540  173.5030  142.9100 C   0  0  2  0  0  3  0  0  0  0  0  0
  193.2850  174.4660  141.3500 N   0  0  0  0  0  1  0  0  0  0  0  0
  192.3900  173.4040  141.5460 N   0  0  0  0  0  0  0  0  0  0  0  0
  193.1300  172.2720  141.4710 O   0  0  0  0  0  1  0  0  0  0  0  0
  192.5290  172.4840  143.8280 C   0  0  0  0  0  2  0  0  0  0  0  0
  193.9660  172.2270  145.7240 O   0  0  0  0  0  1  0  0  0  0  0  0
  193.4150  173.1720  144.8560 C   0  0  2  0  0  3  0  0  0  0  0  0
  192.6600  174.2500  145.6350 C   0  0  0  0  0  2  0  0  0  0  0  0
  192.7700  176.4010  146.9180 C   0  0  0  0  0  1  0  0  0  0  0  0
  193.9440  176.1780  144.7610 C   0  0  0  0  0  1  0  0  0  0  0  0
  193.5290  175.4440  146.0190 C   0  0  0  0  0  3  0  0  0  0  0  0
  190.0970  176.2470  144.0700 C   0  0  0  0  0  2  0  0  0  0  0  0
  188.9220  176.0260  145.0170 C   0  0  1  0  0  3  0  0  0  0  0  0
  189.3090  175.1350  146.0170 O   0  0  0  0  0  1  0  0  0  0  0  0
  188.4740  177.3300  145.6660 C   0  0  0  0  0  2  0  0  0  0  0  0
  184.2400  178.7640  144.6860 C   0  0  0  0  0  0  0  0  0  0  0  0
  184.2770  178.5460  146.1610 C   0  0  0  0  0  2  0  0  0  0  0  0
  183.0610  179.0920  144.1080 F   0  0  0  0  0  0  0  0  0  0  0  0
  187.0280  177.6040  145.4210 C   0  0  0  0  0  0  0  0  0  0  0  0
  184.8150  177.1980  146.5020 C   0  0  0  0  0  3  0  0  0  0  0  0
  185.3450  178.7670  143.9390 C   0  0  0  0  0  3  0  0  0  0  0  0
  186.0530  176.8120  146.1970 C   0  0  0  0  0  3  0  0  0  0  0  0
  186.7020  178.4160  144.4030 C   0  0  0  0  0  3  0  0  0  0  0  0
  1  7  1  0  0  0  0
  2  1  1  0  0  0  0
  2 19  1  1  0  0  0
  3  5  1  0  0  0  0
  3  2  1  0  0  0  0
  4  1  1  0  0  0  0
  5  4  1  0  0  0  0
  7  6  2  0  0  0  0
  8  7  1  0  0  0  0
  8 12  1  1  0  0  0
  9 10  1  0  0  0  0
 10  8  1  0  0  0  0
 11 10  1  0  0  0  0
 12 14  1  0  0  0  0
 14 15  1  0  0  0  0
 14 13  1  1  0  0  0
 15 18  1  0  0  0  0
 17 18  1  0  0  0  0
 18 16  1  0  0  0  0
 19 20  1  0  0  0  0
 20 22  1  0  0  0  0
 20 21  1  1  0  0  0
 23 24  1  0  0  0  0
 24 27  1  0  0  0  0
 25 23  1  0  0  0  0
 26 22  1  0  0  0  0
 26 29  1  0  0  0  0
 28 30  1  0  0  0  0
 28 23  2  0  0  0  0
 29 27  2  0  0  0  0
 30 26  2  0  0  0  0
M  END
>  <MODEL>
8

>  <REMARK>
 VINA RESULT:      -5.9      1.696      4.171
  Name = 
  10 active torsions:
  status: ('A' for Active; 'I' for Inactive)
    1  A    between atoms: C_3  and  C_11
    2  A    between atoms: C_3  and  C_19
    3  A    between atoms: N_4  and  C_13
    4  A    between atoms: C_8  and  C_12
    5  A    between atoms: C_8  and  C_13
    6  A    between atoms: C_9  and  C_12
    7  A    between atoms: C_9  and  C_21
    8  A    between atoms: C_10  and  C_25
    9  A    between atoms: C_11  and  C_25
   10  A    between atoms: C_13  and  C_30
                            x       y       z     vdW  Elec       q    Type
                         _______ _______ _______ _____ _____    ______ ____

>  <TORSDO>
F 10

$$$$
=
 OpenBabel11052417133D

 30 31  0  0  1  0  0  0  0  0999 V2000
  191.5720  175.3630  146.3610 N   0  0  0  0  0  0  0  0  0  0  0  0
  190.8090  174.5430  145.4390 C   0  0  1  0  0  3  0  0  0  0  0  0
  189.5950  174.0820  146.2320 C   0  0  0  0  0  2  0  0  0  0  0  0
  190.8710  175.6310  147.6010 C   0  0  0  0  0  2  0  0  0  0  0  0
  189.5010  175.0020  147.4410 C   0  0  0  0  0  2  0  0  0  0  0  0
  193.5010  176.5280  146.9730 O   0  0  0  0  0  0  0  0  0  0  0  0
  192.9420  175.7400  146.1610 C   0  0  0  0  0  0  0  0  0  0  0  0
  193.7350  175.1700  145.0170 C   0  0  2  0  0  3  0  0  0  0  0  0
  194.5980  173.0540  144.5860 N   0  0  0  0  0  1  0  0  0  0  0  0
  194.6500  174.1250  145.4910 N   0  0  0  0  0  0  0  0  0  0  0  0
  195.9120  174.6130  145.4210 O   0  0  0  0  0  1  0  0  0  0  0  0
  194.5130  176.3040  144.3490 C   0  0  0  0  0  2  0  0  0  0  0  0
  193.3940  175.3070  142.4840 O   0  0  0  0  0  1  0  0  0  0  0  0
  194.3040  176.3030  142.8420 C   0  0  2  0  0  3  0  0  0  0  0  0
  195.6190  176.1370  142.0800 C   0  0  0  0  0  2  0  0  0  0  0  0
  197.0630  174.0870  142.0710 C   0  0  0  0  0  1  0  0  0  0  0  0
  195.9540  174.8370  140.0000 C   0  0  0  0  0  1  0  0  0  0  0  0
  195.8160  174.7380  141.5040 C   0  0  0  0  0  3  0  0  0  0  0  0
  190.3700  175.3920  144.2480 C   0  0  0  0  0  2  0  0  0  0  0  0
  189.5320  176.5970  144.6650 C   0  0  1  0  0  3  0  0  0  0  0  0
  190.2210  177.7620  144.3330 O   0  0  0  0  0  1  0  0  0  0  0  0
  188.1790  176.6070  143.9630 C   0  0  0  0  0  2  0  0  0  0  0  0
  184.8320  178.0910  146.7070 C   0  0  0  0  0  0  0  0  0  0  0  0
  184.4000  178.4030  145.3130 C   0  0  0  0  0  2  0  0  0  0  0  0
  184.0660  178.5240  147.7360 F   0  0  0  0  0  0  0  0  0  0  0  0
  187.1340  177.2890  144.7800 C   0  0  0  0  0  0  0  0  0  0  0  0
  185.4630  179.1300  144.5610 C   0  0  0  0  0  3  0  0  0  0  0  0
  185.8740  177.3010  146.9690 C   0  0  0  0  0  3  0  0  0  0  0  0
  186.6580  178.6020  144.3010 C   0  0  0  0  0  3  0  0  0  0  0  0
  186.8190  176.7590  145.9720 C   0  0  0  0  0  3  0  0  0  0  0  0
  1  4  1  0  0  0  0
  2 19  1  6  0  0  0
  2  3  1  0  0  0  0
  2  1  1  0  0  0  0
  3  5  1  0  0  0  0
  5  4  1  0  0  0  0
  7  1  1  0  0  0  0
  7  6  2  0  0  0  0
  8 12  1  1  0  0  0
  8 10  1  0  0  0  0
  8  7  1  0  0  0  0
  9 10  1  0  0  0  0
 11 10  1  0  0  0  0
 14 13  1  1  0  0  0
 14 12  1  0  0  0  0
 15 14  1  0  0  0  0
 17 18  1  0  0  0  0
 18 16  1  0  0  0  0
 18 15  1  0  0  0  0
 19 20  1  0  0  0  0
 20 21  1  6  0  0  0
 22 20  1  0  0  0  0
 22 26  1  0  0  0  0
 23 28  2  0  0  0  0
 23 25  1  0  0  0  0
 24 23  1  0  0  0  0
 26 30  2  0  0  0  0
 27 24  1  0  0  0  0
 29 27  2  0  0  0  0
 29 26  1  0  0  0  0
 30 28  1  0  0  0  0
M  END
>  <MODEL>
9

>  <REMARK>
 VINA RESULT:      -5.8      2.661      4.730
  Name = 
  10 active torsions:
  status: ('A' for Active; 'I' for Inactive)
    1  A    between atoms: C_3  and  C_11
    2  A    between atoms: C_3  and  C_19
    3  A    between atoms: N_4  and  C_13
    4  A    between atoms: C_8  and  C_12
    5  A    between atoms: C_8  and  C_13
    6  A    between atoms: C_9  and  C_12
    7  A    between atoms: C_9  and  C_21
    8  A    between atoms: C_10  and  C_25
    9  A    between atoms: C_11  and  C_25
   10  A    between atoms: C_13  and  C_30
                            x       y       z     vdW  Elec       q    Type
                         _______ _______ _______ _____ _____    ______ ____

>  <TORSDO>
F 10

$$$$
