=
 OpenBabel11052418413D

 34 39  0  0  1  0  0  0  0  0999 V2000
  191.8720  177.3780  143.4460 C   0  0  2  0  0  3  0  0  0  0  0  0
  193.0470  176.7170  145.7540 C   0  0  1  0  0  3  0  0  0  0  0  0
  190.5030  176.2490  145.2520 C   0  0  2  0  0  3  0  0  0  0  0  0
  189.2010  175.2580  147.3540 C   0  0  2  0  0  3  0  0  0  0  0  0
  194.2210  176.9320  145.0280 O   0  0  0  0  0  1  0  0  0  0  0  0
  191.8090  175.2040  147.3150 C   0  0  0  0  0  2  0  0  0  0  0  0
  191.7700  177.0500  144.9500 C   0  0  2  0  0  3  0  0  0  0  0  0
  189.7150  174.1770  146.4250 C   0  0  0  0  0  2  0  0  0  0  0  0
  189.3240  177.2050  145.1060 C   0  0  2  0  0  3  0  0  0  0  0  0
  190.4730  177.5190  142.8020 C   0  0  0  0  0  2  0  0  0  0  0  0
  193.0340  175.3350  146.4040 C   0  0  1  0  0  3  0  0  0  0  0  0
  187.9460  175.9450  146.7750 C   0  0  0  0  0  2  0  0  0  0  0  0
  188.0250  176.4300  145.3200 C   0  0  1  0  0  3  0  0  0  0  0  0
  190.4990  175.4690  146.5740 C   0  0  2  0  0  0  0  0  0  0  0  0
  189.3810  177.9980  143.7760 C   0  0  0  0  0  2  0  0  0  0  0  0
  184.9310  177.7600  143.5350 C   0  0  0  0  0  0  0  0  0  0  0  0
  184.5200  178.7580  144.4240 C   0  0  0  0  0  3  0  0  0  0  0  0
  186.8020  177.2330  144.9910 C   0  0  0  0  0  0  0  0  0  0  0  0
  185.2480  178.9940  145.5940 C   0  0  0  0  0  3  0  0  0  0  0  0
  186.0690  176.9990  143.8160 C   0  0  0  0  0  3  0  0  0  0  0  0
  186.3860  178.2340  145.8770 C   0  0  0  0  0  3  0  0  0  0  0  0
  184.2260  177.5300  142.4010 F   0  0  0  0  0  0  0  0  0  0  0  0
  191.6830  175.2400  142.1690 C   0  0  0  0  0  1  0  0  0  0  0  0
  192.6370  176.2960  142.6940 C   0  0  0  0  0  2  0  0  0  0  0  0
  193.1210  174.2130  145.3670 C   0  0  0  0  0  2  0  0  0  0  0  0
  194.3410  172.0090  145.3090 C   0  0  0  0  0  0  0  0  0  0  0  0
  194.3670  173.3980  145.5270 C   0  0  0  0  0  0  0  0  0  0  0  0
  196.7460  173.2850  145.9930 C   0  0  0  0  0  3  0  0  0  0  0  0
  196.7220  171.9030  145.7940 C   0  0  0  0  0  3  0  0  0  0  0  0
  195.5260  171.2680  145.4520 C   0  0  0  0  0  3  0  0  0  0  0  0
  195.5730  174.0300  145.8570 C   0  0  0  0  0  3  0  0  0  0  0  0
  193.1400  171.3880  144.9480 O   0  0  0  0  0  0  0  0  0  0  0  0
  192.8560  170.9690  143.6200 C   0  0  0  0  0  2  0  0  0  0  0  0
  191.5510  171.5870  143.1650 C   0  0  0  0  0  1  0  0  0  0  0  0
  1 24  1  6  0  0  0
  1  7  1  0  0  0  0
  2  5  1  6  0  0  0
  2 11  1  0  0  0  0
  3 14  1  0  0  0  0
  7  3  1  0  0  0  0
  7  2  1  0  0  0  0
  8 14  1  0  0  0  0
  8  4  1  0  0  0  0
  9  3  1  0  0  0  0
  9 13  1  0  0  0  0
 10  1  1  0  0  0  0
 10 15  1  0  0  0  0
 11  6  1  0  0  0  0
 12  4  1  0  0  0  0
 13 12  1  0  0  0  0
 14  6  1  0  0  0  0
 14  4  1  0  0  0  0
 15  9  1  0  0  0  0
 16 20  2  0  0  0  0
 16 17  1  0  0  0  0
 17 19  2  0  0  0  0
 18 13  1  0  0  0  0
 18 21  2  0  0  0  0
 19 21  1  0  0  0  0
 20 18  1  0  0  0  0
 22 16  1  0  0  0  0
 23 24  1  0  0  0  0
 25 27  1  0  0  0  0
 25 11  1  0  0  0  0
 26 30  2  0  0  0  0
 26 27  1  0  0  0  0
 27 31  2  0  0  0  0
 29 28  2  0  0  0  0
 30 29  1  0  0  0  0
 31 28  1  0  0  0  0
 32 26  1  0  0  0  0
 33 32  1  0  0  0  0
 34 33  1  0  0  0  0
M  END
>  <MODEL>
1

>  <REMARK>
 VINA RESULT:      -9.1      0.000      0.000
  Name = 
  6 active torsions:
  status: ('A' for Active; 'I' for Inactive)
    1  A    between atoms: C_1  and  C_19
    2  A    between atoms: O_3  and  C_13
    3  A    between atoms: O_3  and  C_17
    4  A    between atoms: C_11  and  C_14
    5  A    between atoms: C_11  and  C_25
    6  A    between atoms: C_12  and  C_28
                            x       y       z     vdW  Elec       q    Type
                         _______ _______ _______ _____ _____    ______ ____

>  <TORSDO>
F 6

$$$$
=
 OpenBabel11052418413D

 34 39  0  0  1  0  0  0  0  0999 V2000
  190.1730  174.6860  146.6470 C   0  0  2  0  0  3  0  0  0  0  0  0
  191.4050  174.1460  144.3370 C   0  0  1  0  0  3  0  0  0  0  0  0
  189.9160  176.2880  144.7030 C   0  0  2  0  0  3  0  0  0  0  0  0
  189.6010  177.7200  142.4780 C   0  0  2  0  0  3  0  0  0  0  0  0
  192.1230  173.2390  145.1210 O   0  0  0  0  0  1  0  0  0  0  0  0
  191.5160  175.9520  142.6100 C   0  0  0  0  0  2  0  0  0  0  0  0
  190.2800  174.8630  145.1180 C   0  0  2  0  0  3  0  0  0  0  0  0
  190.7510  178.2160  143.3330 C   0  0  0  0  0  2  0  0  0  0  0  0
  188.4090  176.4350  144.8850 C   0  0  2  0  0  3  0  0  0  0  0  0
  189.0890  175.6110  147.2480 C   0  0  0  0  0  2  0  0  0  0  0  0
  192.3340  175.0870  143.5730 C   0  0  1  0  0  3  0  0  0  0  0  0
  188.2400  178.1480  143.0660 C   0  0  0  0  0  2  0  0  0  0  0  0
  188.0060  177.8720  144.5590 C   0  0  1  0  0  3  0  0  0  0  0  0
  190.4130  176.7350  143.3220 C   0  0  2  0  0  0  0  0  0  0  0  0
  187.9410  175.9430  146.2770 C   0  0  0  0  0  2  0  0  0  0  0  0
  184.8300  178.5810  146.5420 C   0  0  0  0  0  0  0  0  0  0  0  0
  183.9020  178.7460  145.5090 C   0  0  0  0  0  3  0  0  0  0  0  0
  186.5790  178.1740  144.9080 C   0  0  0  0  0  0  0  0  0  0  0  0
  184.3110  178.6250  144.1770 C   0  0  0  0  0  3  0  0  0  0  0  0
  186.1640  178.2960  146.2440 C   0  0  0  0  0  3  0  0  0  0  0  0
  185.6460  178.3400  143.8770 C   0  0  0  0  0  3  0  0  0  0  0  0
  184.4340  178.6980  147.8320 F   0  0  0  0  0  0  0  0  0  0  0  0
  191.4780  176.3920  147.9220 C   0  0  0  0  0  1  0  0  0  0  0  0
  191.4980  174.9940  147.3340 C   0  0  0  0  0  2  0  0  0  0  0  0
  193.2090  175.9180  144.5160 C   0  0  0  0  0  2  0  0  0  0  0  0
  195.5340  175.6930  143.5720 C   0  0  0  0  0  0  0  0  0  0  0  0
  194.6090  175.3950  144.5880 C   0  0  0  0  0  0  0  0  0  0  0  0
  196.3190  174.1540  145.7840 C   0  0  0  0  0  3  0  0  0  0  0  0
  197.2350  174.4340  144.7690 C   0  0  0  0  0  3  0  0  0  0  0  0
  196.8460  175.2020  143.6690 C   0  0  0  0  0  3  0  0  0  0  0  0
  195.0110  174.6350  145.6950 C   0  0  0  0  0  3  0  0  0  0  0  0
  195.1350  176.4800  142.4840 O   0  0  0  0  0  0  0  0  0  0  0  0
  195.5230  176.2000  141.1470 C   0  0  0  0  0  2  0  0  0  0  0  0
  194.5810  175.1750  140.5530 C   0  0  0  0  0  1  0  0  0  0  0  0
  1 10  1  0  0  0  0
  1 24  1  1  0  0  0
  2  7  1  0  0  0  0
  2  5  1  1  0  0  0
  3  9  1  0  0  0  0
  3  7  1  0  0  0  0
  4 12  1  0  0  0  0
  4 14  1  0  0  0  0
  4  8  1  0  0  0  0
  6 14  1  0  0  0  0
  6 11  1  0  0  0  0
  7  1  1  0  0  0  0
  9 15  1  0  0  0  0
 11  2  1  0  0  0  0
 11 25  1  0  0  0  0
 12 13  1  0  0  0  0
 13  9  1  0  0  0  0
 13 18  1  0  0  0  0
 14  8  1  0  0  0  0
 14  3  1  0  0  0  0
 15 10  1  0  0  0  0
 16 22  1  0  0  0  0
 17 16  2  0  0  0  0
 18 20  2  0  0  0  0
 19 17  1  0  0  0  0
 20 16  1  0  0  0  0
 21 19  2  0  0  0  0
 21 18  1  0  0  0  0
 24 23  1  0  0  0  0
 25 27  1  0  0  0  0
 26 30  2  0  0  0  0
 26 27  1  0  0  0  0
 27 31  2  0  0  0  0
 29 28  2  0  0  0  0
 30 29  1  0  0  0  0
 31 28  1  0  0  0  0
 32 26  1  0  0  0  0
 33 32  1  0  0  0  0
 34 33  1  0  0  0  0
M  END
>  <MODEL>
2

>  <REMARK>
 VINA RESULT:      -8.5      1.862      3.826
  Name = 
  6 active torsions:
  status: ('A' for Active; 'I' for Inactive)
    1  A    between atoms: C_1  and  C_19
    2  A    between atoms: O_3  and  C_13
    3  A    between atoms: O_3  and  C_17
    4  A    between atoms: C_11  and  C_14
    5  A    between atoms: C_11  and  C_25
    6  A    between atoms: C_12  and  C_28
                            x       y       z     vdW  Elec       q    Type
                         _______ _______ _______ _____ _____    ______ ____

>  <TORSDO>
F 6

$$$$
=
 OpenBabel11052418413D

 34 39  0  0  1  0  0  0  0  0999 V2000
  190.4270  174.9530  142.7270 C   0  0  2  0  0  3  0  0  0  0  0  0
  192.7150  175.9010  143.7320 C   0  0  1  0  0  3  0  0  0  0  0  0
  190.4390  175.9420  145.0590 C   0  0  2  0  0  3  0  0  0  0  0  0
  190.6260  177.2160  147.3910 C   0  0  2  0  0  3  0  0  0  0  0  0
  193.2840  175.1840  142.6780 O   0  0  0  0  0  1  0  0  0  0  0  0
  192.7980  176.4360  146.1750 C   0  0  0  0  0  2  0  0  0  0  0  0
  191.1700  175.8740  143.7180 C   0  0  2  0  0  3  0  0  0  0  0  0
  190.8250  175.7190  147.5270 C   0  0  0  0  0  2  0  0  0  0  0  0
  189.1700  176.7570  144.8350 C   0  0  2  0  0  3  0  0  0  0  0  0
  188.9030  174.9560  142.9890 C   0  0  0  0  0  2  0  0  0  0  0  0
  193.3350  175.5160  145.0740 C   0  0  1  0  0  3  0  0  0  0  0  0
  189.1340  177.5680  147.2040 C   0  0  0  0  0  2  0  0  0  0  0  0
  188.3620  176.7860  146.1310 C   0  0  1  0  0  3  0  0  0  0  0  0
  191.2720  176.4210  146.2550 C   0  0  2  0  0  0  0  0  0  0  0  0
  188.3740  176.2670  143.5990 C   0  0  0  0  0  2  0  0  0  0  0  0
  185.5160  179.0670  145.0240 C   0  0  0  0  0  0  0  0  0  0  0  0
  184.4280  178.4630  145.6610 C   0  0  0  0  0  3  0  0  0  0  0  0
  186.9970  177.3850  145.9580 C   0  0  0  0  0  0  0  0  0  0  0  0
  184.6230  177.3220  146.4450 C   0  0  0  0  0  3  0  0  0  0  0  0
  186.7980  178.5310  145.1720 C   0  0  0  0  0  3  0  0  0  0  0  0
  185.9040  176.7850  146.5940 C   0  0  0  0  0  3  0  0  0  0  0  0
  185.3280  180.1720  144.2630 F   0  0  0  0  0  0  0  0  0  0  0  0
  190.0050  172.6960  143.7090 C   0  0  0  0  0  1  0  0  0  0  0  0
  190.9260  173.5170  142.8270 C   0  0  0  0  0  2  0  0  0  0  0  0
  193.1330  174.0330  145.3930 C   0  0  0  0  0  2  0  0  0  0  0  0
  194.5060  171.9210  145.3500 C   0  0  0  0  0  0  0  0  0  0  0  0
  194.4350  173.3110  145.5500 C   0  0  0  0  0  0  0  0  0  0  0  0
  196.8210  173.3730  145.9930 C   0  0  0  0  0  3  0  0  0  0  0  0
  196.8930  171.9910  145.8120 C   0  0  0  0  0  3  0  0  0  0  0  0
  195.7410  171.2680  145.4900 C   0  0  0  0  0  3  0  0  0  0  0  0
  195.5960  174.0310  145.8590 C   0  0  0  0  0  3  0  0  0  0  0  0
  193.3480  171.2120  145.0090 O   0  0  0  0  0  0  0  0  0  0  0  0
  193.3250  170.2100  144.0020 C   0  0  0  0  0  2  0  0  0  0  0  0
  193.4430  170.8620  142.6410 C   0  0  0  0  0  1  0  0  0  0  0  0
  1 24  1  1  0  0  0
  1 10  1  0  0  0  0
  1  7  1  0  0  0  0
  2  5  1  6  0  0  0
  2 11  1  0  0  0  0
  3 14  1  0  0  0  0
  4  8  1  0  0  0  0
  6 14  1  0  0  0  0
  7  2  1  0  0  0  0
  7  3  1  0  0  0  0
  9  3  1  0  0  0  0
  9 13  1  0  0  0  0
 10 15  1  0  0  0  0
 11 25  1  0  0  0  0
 11  6  1  0  0  0  0
 12  4  1  0  0  0  0
 13 12  1  0  0  0  0
 14  4  1  0  0  0  0
 14  8  1  0  0  0  0
 15  9  1  0  0  0  0
 16 20  2  0  0  0  0
 16 17  1  0  0  0  0
 17 19  2  0  0  0  0
 18 13  1  0  0  0  0
 18 21  2  0  0  0  0
 19 21  1  0  0  0  0
 20 18  1  0  0  0  0
 22 16  1  0  0  0  0
 24 23  1  0  0  0  0
 25 27  1  0  0  0  0
 26 30  2  0  0  0  0
 26 27  1  0  0  0  0
 27 31  2  0  0  0  0
 29 28  2  0  0  0  0
 30 29  1  0  0  0  0
 31 28  1  0  0  0  0
 32 26  1  0  0  0  0
 33 32  1  0  0  0  0
 34 33  1  0  0  0  0
M  END
>  <MODEL>
3

>  <REMARK>
 VINA RESULT:      -8.5      1.466      1.884
  Name = 
  6 active torsions:
  status: ('A' for Active; 'I' for Inactive)
    1  A    between atoms: C_1  and  C_19
    2  A    between atoms: O_3  and  C_13
    3  A    between atoms: O_3  and  C_17
    4  A    between atoms: C_11  and  C_14
    5  A    between atoms: C_11  and  C_25
    6  A    between atoms: C_12  and  C_28
                            x       y       z     vdW  Elec       q    Type
                         _______ _______ _______ _____ _____    ______ ____

>  <TORSDO>
F 6

$$$$
=
 OpenBabel11052418413D

 34 39  0  0  1  0  0  0  0  0999 V2000
  190.2010  174.8280  146.6580 C   0  0  2  0  0  3  0  0  0  0  0  0
  191.2050  174.0520  144.3050 C   0  0  1  0  0  3  0  0  0  0  0  0
  189.7430  176.2240  144.5950 C   0  0  2  0  0  3  0  0  0  0  0  0
  189.2020  177.4230  142.2780 C   0  0  2  0  0  3  0  0  0  0  0  0
  192.0020  173.2290  145.1030 O   0  0  0  0  0  1  0  0  0  0  0  0
  191.1330  175.6730  142.4000 C   0  0  0  0  0  2  0  0  0  0  0  0
  190.1570  174.8480  145.1150 C   0  0  2  0  0  3  0  0  0  0  0  0
  190.4250  178.0000  142.9610 C   0  0  0  0  0  2  0  0  0  0  0  0
  188.2600  176.3930  144.9080 C   0  0  2  0  0  3  0  0  0  0  0  0
  189.1740  175.8130  147.2640 C   0  0  0  0  0  2  0  0  0  0  0  0
  192.0480  174.9080  143.3620 C   0  0  1  0  0  3  0  0  0  0  0  0
  187.9010  177.9130  142.9500 C   0  0  0  0  0  2  0  0  0  0  0  0
  187.8170  177.7910  144.4790 C   0  0  1  0  0  3  0  0  0  0  0  0
  190.0990  176.5270  143.1340 C   0  0  2  0  0  0  0  0  0  0  0  0
  187.9340  176.0470  146.3830 C   0  0  0  0  0  2  0  0  0  0  0  0
  184.8130  178.5610  146.6940 C   0  0  0  0  0  0  0  0  0  0  0  0
  183.8210  178.7740  145.7330 C   0  0  0  0  0  3  0  0  0  0  0  0
  186.4280  178.1310  144.9330 C   0  0  0  0  0  0  0  0  0  0  0  0
  184.1300  178.6660  144.3740 C   0  0  0  0  0  3  0  0  0  0  0  0
  186.1130  178.2390  146.2980 C   0  0  0  0  0  3  0  0  0  0  0  0
  185.4300  178.3450  143.9750 C   0  0  0  0  0  3  0  0  0  0  0  0
  184.5130  178.6660  148.0120 F   0  0  0  0  0  0  0  0  0  0  0  0
  191.5630  176.5840  147.7980 C   0  0  0  0  0  1  0  0  0  0  0  0
  191.5840  175.2010  147.1760 C   0  0  0  0  0  2  0  0  0  0  0  0
  193.0040  175.8290  144.1240 C   0  0  0  0  0  2  0  0  0  0  0  0
  195.5210  175.7450  144.0570 C   0  0  0  0  0  0  0  0  0  0  0  0
  194.3040  176.0070  143.4040 C   0  0  0  0  0  0  0  0  0  0  0  0
  195.5100  176.5560  141.3700 C   0  0  0  0  0  3  0  0  0  0  0  0
  196.7210  176.3120  142.0200 C   0  0  0  0  0  3  0  0  0  0  0  0
  196.7280  175.9070  143.3570 C   0  0  0  0  0  3  0  0  0  0  0  0
  194.3050  176.4000  142.0590 C   0  0  0  0  0  3  0  0  0  0  0  0
  195.5120  175.3200  145.3910 O   0  0  0  0  0  0  0  0  0  0  0  0
  196.2070  174.1650  145.8380 C   0  0  0  0  0  2  0  0  0  0  0  0
  195.4690  172.9250  145.3800 C   0  0  0  0  0  1  0  0  0  0  0  0
  1 24  1  6  0  0  0
  1 10  1  0  0  0  0
  2  5  1  1  0  0  0
  2  7  1  0  0  0  0
  3  9  1  0  0  0  0
  3  7  1  0  0  0  0
  4 12  1  0  0  0  0
  4  8  1  0  0  0  0
  4 14  1  0  0  0  0
  6 14  1  0  0  0  0
  6 11  1  0  0  0  0
  7  1  1  0  0  0  0
  8 14  1  0  0  0  0
  9 15  1  0  0  0  0
 11 25  1  0  0  0  0
 11  2  1  0  0  0  0
 12 13  1  0  0  0  0
 13  9  1  0  0  0  0
 13 18  1  0  0  0  0
 14  3  1  0  0  0  0
 15 10  1  0  0  0  0
 16 22  1  0  0  0  0
 17 16  2  0  0  0  0
 18 20  2  0  0  0  0
 19 17  1  0  0  0  0
 20 16  1  0  0  0  0
 21 19  2  0  0  0  0
 21 18  1  0  0  0  0
 24 23  1  0  0  0  0
 26 32  1  0  0  0  0
 27 26  1  0  0  0  0
 27 25  1  0  0  0  0
 28 29  2  0  0  0  0
 28 31  1  0  0  0  0
 29 30  1  0  0  0  0
 30 26  2  0  0  0  0
 31 27  2  0  0  0  0
 32 33  1  0  0  0  0
 34 33  1  0  0  0  0
M  END
>  <MODEL>
4

>  <REMARK>
 VINA RESULT:      -8.3      1.914      4.064
  Name = 
  6 active torsions:
  status: ('A' for Active; 'I' for Inactive)
    1  A    between atoms: C_1  and  C_19
    2  A    between atoms: O_3  and  C_13
    3  A    between atoms: O_3  and  C_17
    4  A    between atoms: C_11  and  C_14
    5  A    between atoms: C_11  and  C_25
    6  A    between atoms: C_12  and  C_28
                            x       y       z     vdW  Elec       q    Type
                         _______ _______ _______ _____ _____    ______ ____

>  <TORSDO>
F 6

$$$$
=
 OpenBabel11052418413D

 34 39  0  0  1  0  0  0  0  0999 V2000
  190.4680  173.1790  144.8310 C   0  0  2  0  0  3  0  0  0  0  0  0
  190.1640  174.8600  146.8880 C   0  0  1  0  0  3  0  0  0  0  0  0
  192.4090  174.6500  145.5250 C   0  0  2  0  0  3  0  0  0  0  0  0
  194.3810  176.1190  146.5500 C   0  0  2  0  0  3  0  0  0  0  0  0
  188.8060  174.5940  146.6910 O   0  0  0  0  0  1  0  0  0  0  0  0
  191.9150  176.6100  147.2490 C   0  0  0  0  0  2  0  0  0  0  0  0
  191.0820  174.0290  145.9630 C   0  0  2  0  0  3  0  0  0  0  0  0
  193.6300  176.8400  145.4490 C   0  0  0  0  0  2  0  0  0  0  0  0
  193.4300  173.5200  145.4540 C   0  0  2  0  0  3  0  0  0  0  0  0
  191.5620  172.5630  143.9300 C   0  0  0  0  0  2  0  0  0  0  0  0
  190.4520  176.3590  146.8720 C   0  0  1  0  0  3  0  0  0  0  0  0
  195.3390  175.0550  145.9730 C   0  0  0  0  0  2  0  0  0  0  0  0
  194.7560  174.0780  144.9410 C   0  0  1  0  0  3  0  0  0  0  0  0
  192.8880  175.8580  146.3400 C   0  0  2  0  0  0  0  0  0  0  0  0
  192.8970  172.3050  144.6530 C   0  0  0  0  0  2  0  0  0  0  0  0
  197.1130  171.1060  145.3090 C   0  0  0  0  0  0  0  0  0  0  0  0
  197.6440  171.0260  144.0190 C   0  0  0  0  0  3  0  0  0  0  0  0
  195.7640  173.0090  144.6370 C   0  0  0  0  0  0  0  0  0  0  0  0
  197.2370  171.9360  143.0390 C   0  0  0  0  0  3  0  0  0  0  0  0
  196.1760  172.0940  145.6200 C   0  0  0  0  0  3  0  0  0  0  0  0
  196.2990  172.9250  143.3470 C   0  0  0  0  0  3  0  0  0  0  0  0
  197.5070  170.2240  146.2600 F   0  0  0  0  0  0  0  0  0  0  0  0
  190.2310  174.3860  142.6580 C   0  0  0  0  0  1  0  0  0  0  0  0
  189.5410  174.0120  143.9550 C   0  0  0  0  0  2  0  0  0  0  0  0
  190.0680  177.0020  145.5370 C   0  0  0  0  0  2  0  0  0  0  0  0
  187.9970  177.7790  144.3300 C   0  0  0  0  0  0  0  0  0  0  0  0
  188.6570  177.5030  145.5400 C   0  0  0  0  0  0  0  0  0  0  0  0
  186.6560  178.1090  146.7730 C   0  0  0  0  0  3  0  0  0  0  0  0
  186.0030  178.4010  145.5750 C   0  0  0  0  0  3  0  0  0  0  0  0
  186.6690  178.2360  144.3580 C   0  0  0  0  0  3  0  0  0  0  0  0
  187.9780  177.6580  146.7560 C   0  0  0  0  0  3  0  0  0  0  0  0
  188.6700  177.5910  143.1170 O   0  0  0  0  0  0  0  0  0  0  0  0
  188.0950  177.9070  141.8570 C   0  0  0  0  0  2  0  0  0  0  0  0
  187.6370  176.6340  141.1790 C   0  0  0  0  0  1  0  0  0  0  0  0
  1 24  1  6  0  0  0
  1  7  1  0  0  0  0
  2  5  1  6  0  0  0
  3  7  1  0  0  0  0
  3 14  1  0  0  0  0
  7  2  1  0  0  0  0
  8 14  1  0  0  0  0
  8  4  1  0  0  0  0
  9  3  1  0  0  0  0
 10 15  1  0  0  0  0
 10  1  1  0  0  0  0
 11  2  1  0  0  0  0
 11  6  1  0  0  0  0
 12  4  1  0  0  0  0
 13  9  1  0  0  0  0
 13 12  1  0  0  0  0
 14  4  1  0  0  0  0
 14  6  1  0  0  0  0
 15  9  1  0  0  0  0
 16 20  1  0  0  0  0
 16 22  1  0  0  0  0
 17 16  2  0  0  0  0
 18 13  1  0  0  0  0
 18 20  2  0  0  0  0
 19 21  2  0  0  0  0
 19 17  1  0  0  0  0
 21 18  1  0  0  0  0
 23 24  1  0  0  0  0
 25 27  1  0  0  0  0
 25 11  1  0  0  0  0
 26 30  2  0  0  0  0
 26 27  1  0  0  0  0
 27 31  2  0  0  0  0
 29 28  2  0  0  0  0
 30 29  1  0  0  0  0
 31 28  1  0  0  0  0
 32 26  1  0  0  0  0
 33 32  1  0  0  0  0
 34 33  1  0  0  0  0
M  END
>  <MODEL>
5

>  <REMARK>
 VINA RESULT:      -7.9      3.383      8.443
  Name = 
  6 active torsions:
  status: ('A' for Active; 'I' for Inactive)
    1  A    between atoms: C_1  and  C_19
    2  A    between atoms: O_3  and  C_13
    3  A    between atoms: O_3  and  C_17
    4  A    between atoms: C_11  and  C_14
    5  A    between atoms: C_11  and  C_25
    6  A    between atoms: C_12  and  C_28
                            x       y       z     vdW  Elec       q    Type
                         _______ _______ _______ _____ _____    ______ ____

>  <TORSDO>
F 6

$$$$
=
 OpenBabel11052418413D

 34 39  0  0  1  0  0  0  0  0999 V2000
  191.5020  176.4320  146.3270 C   0  0  2  0  0  3  0  0  0  0  0  0
  190.6520  177.2150  143.9160 C   0  0  1  0  0  3  0  0  0  0  0  0
  191.5690  174.7930  144.3980 C   0  0  2  0  0  3  0  0  0  0  0  0
  191.7580  173.3030  142.1970 C   0  0  2  0  0  3  0  0  0  0  0  0
  190.0900  178.2700  144.6390 O   0  0  0  0  0  1  0  0  0  0  0  0
  190.2950  175.4630  142.1660 C   0  0  0  0  0  2  0  0  0  0  0  0
  191.5030  176.2680  144.7920 C   0  0  2  0  0  3  0  0  0  0  0  0
  190.4500  173.0920  142.9330 C   0  0  0  0  0  2  0  0  0  0  0  0
  192.9780  174.3070  144.7200 C   0  0  2  0  0  3  0  0  0  0  0  0
  192.2830  175.2900  147.0170 C   0  0  0  0  0  2  0  0  0  0  0  0
  189.6090  176.5030  143.0570 C   0  0  1  0  0  3  0  0  0  0  0  0
  192.9230  172.5800  142.9070 C   0  0  0  0  0  2  0  0  0  0  0  0
  193.0710  172.8120  144.4180 C   0  0  1  0  0  3  0  0  0  0  0  0
  191.1170  174.4560  142.9710 C   0  0  2  0  0  0  0  0  0  0  0  0
  193.4120  174.6940  146.1570 C   0  0  0  0  0  2  0  0  0  0  0  0
  195.5570  170.4990  146.1490 C   0  0  0  0  0  0  0  0  0  0  0  0
  196.7700  171.0760  145.7630 C   0  0  0  0  0  3  0  0  0  0  0  0
  194.3510  172.1950  144.8980 C   0  0  0  0  0  0  0  0  0  0  0  0
  196.7760  172.2100  144.9470 C   0  0  0  0  0  3  0  0  0  0  0  0
  194.3500  171.0560  145.7190 C   0  0  0  0  0  3  0  0  0  0  0  0
  195.5700  172.7690  144.5150 C   0  0  0  0  0  3  0  0  0  0  0  0
  195.5510  169.3990  146.9400 F   0  0  0  0  0  0  0  0  0  0  0  0
  189.6520  175.0400  147.2630 C   0  0  0  0  0  1  0  0  0  0  0  0
  190.0830  176.4430  146.8810 C   0  0  0  0  0  2  0  0  0  0  0  0
  188.4820  175.9040  143.9030 C   0  0  0  0  0  2  0  0  0  0  0  0
  186.3820  177.0040  144.7560 C   0  0  0  0  0  0  0  0  0  0  0  0
  187.1760  176.5980  143.6690 C   0  0  0  0  0  0  0  0  0  0  0  0
  185.5550  177.5400  142.1270 C   0  0  0  0  0  3  0  0  0  0  0  0
  184.7550  177.9300  143.2020 C   0  0  0  0  0  3  0  0  0  0  0  0
  185.1670  177.6650  144.5110 C   0  0  0  0  0  3  0  0  0  0  0  0
  186.7630  176.8790  142.3600 C   0  0  0  0  0  3  0  0  0  0  0  0
  186.8160  176.7490  146.0620 O   0  0  0  0  0  0  0  0  0  0  0  0
  186.0810  177.1480  147.2110 C   0  0  0  0  0  2  0  0  0  0  0  0
  186.6910  178.4080  147.7870 C   0  0  0  0  0  1  0  0  0  0  0  0
  1 24  1  1  0  0  0
  1 10  1  0  0  0  0
  2  5  1  1  0  0  0
  2  7  1  0  0  0  0
  3  9  1  0  0  0  0
  3  7  1  0  0  0  0
  4 12  1  0  0  0  0
  4  8  1  0  0  0  0
  4 14  1  0  0  0  0
  6 14  1  0  0  0  0
  6 11  1  0  0  0  0
  7  1  1  0  0  0  0
  8 14  1  0  0  0  0
  9 15  1  0  0  0  0
 11 25  1  0  0  0  0
 11  2  1  0  0  0  0
 12 13  1  0  0  0  0
 13  9  1  0  0  0  0
 13 18  1  0  0  0  0
 14  3  1  0  0  0  0
 15 10  1  0  0  0  0
 16 22  1  0  0  0  0
 17 16  1  0  0  0  0
 18 20  1  0  0  0  0
 19 17  2  0  0  0  0
 20 16  2  0  0  0  0
 21 18  2  0  0  0  0
 21 19  1  0  0  0  0
 24 23  1  0  0  0  0
 26 32  1  0  0  0  0
 27 25  1  0  0  0  0
 27 26  2  0  0  0  0
 28 31  2  0  0  0  0
 28 29  1  0  0  0  0
 29 30  2  0  0  0  0
 30 26  1  0  0  0  0
 31 27  1  0  0  0  0
 32 33  1  0  0  0  0
 33 34  1  0  0  0  0
M  END
>  <MODEL>
6

>  <REMARK>
 VINA RESULT:      -7.7      3.191      8.576
  Name = 
  6 active torsions:
  status: ('A' for Active; 'I' for Inactive)
    1  A    between atoms: C_1  and  C_19
    2  A    between atoms: O_3  and  C_13
    3  A    between atoms: O_3  and  C_17
    4  A    between atoms: C_11  and  C_14
    5  A    between atoms: C_11  and  C_25
    6  A    between atoms: C_12  and  C_28
                            x       y       z     vdW  Elec       q    Type
                         _______ _______ _______ _____ _____    ______ ____

>  <TORSDO>
F 6

$$$$
=
 OpenBabel11052418413D

 34 39  0  0  1  0  0  0  0  0999 V2000
  189.5160  174.7730  142.0100 C   0  0  2  0  0  3  0  0  0  0  0  0
  191.9870  175.4590  142.7660 C   0  0  1  0  0  3  0  0  0  0  0  0
  189.8930  175.6570  144.3530 C   0  0  2  0  0  3  0  0  0  0  0  0
  190.4690  176.8060  146.6860 C   0  0  2  0  0  3  0  0  0  0  0  0
  192.3580  174.7360  141.6300 O   0  0  0  0  0  1  0  0  0  0  0  0
  192.4010  175.8780  145.1980 C   0  0  0  0  0  2  0  0  0  0  0  0
  190.4550  175.5780  142.9340 C   0  0  2  0  0  3  0  0  0  0  0  0
  190.5350  175.2930  146.7500 C   0  0  0  0  0  2  0  0  0  0  0  0
  188.6930  176.5960  144.3070 C   0  0  2  0  0  3  0  0  0  0  0  0
  188.0400  174.9080  142.4490 C   0  0  0  0  0  2  0  0  0  0  0  0
  192.7150  174.9600  144.0130 C   0  0  1  0  0  3  0  0  0  0  0  0
  189.0090  177.3040  146.6880 C   0  0  0  0  0  2  0  0  0  0  0  0
  188.0450  176.6450  145.6890 C   0  0  1  0  0  3  0  0  0  0  0  0
  190.9000  176.0030  145.4570 C   0  0  2  0  0  0  0  0  0  0  0  0
  187.7160  176.2360  143.1580 C   0  0  0  0  0  2  0  0  0  0  0  0
  185.3220  179.2160  144.9810 C   0  0  0  0  0  0  0  0  0  0  0  0
  184.2670  178.7030  145.7410 C   0  0  0  0  0  3  0  0  0  0  0  0
  186.7350  177.3770  145.6980 C   0  0  0  0  0  0  0  0  0  0  0  0
  184.4450  177.5290  146.4790 C   0  0  0  0  0  3  0  0  0  0  0  0
  186.5530  178.5570  144.9580 C   0  0  0  0  0  3  0  0  0  0  0  0
  185.6750  176.8680  146.4580 C   0  0  0  0  0  3  0  0  0  0  0  0
  185.1510  180.3540  144.2650 F   0  0  0  0  0  0  0  0  0  0  0  0
  188.8450  172.4910  142.7680 C   0  0  0  0  0  1  0  0  0  0  0  0
  189.8800  173.2940  142.0050 C   0  0  0  0  0  2  0  0  0  0  0  0
  192.4060  173.4900  144.3070 C   0  0  0  0  0  2  0  0  0  0  0  0
  194.7020  172.4720  144.5130 C   0  0  0  0  0  0  0  0  0  0  0  0
  193.4870  172.5800  143.8130 C   0  0  0  0  0  0  0  0  0  0  0  0
  194.2650  170.9380  142.2040 C   0  0  0  0  0  3  0  0  0  0  0  0
  195.4790  170.8400  142.8860 C   0  0  0  0  0  3  0  0  0  0  0  0
  195.6960  171.6020  144.0370 C   0  0  0  0  0  3  0  0  0  0  0  0
  193.2720  171.8020  142.6670 C   0  0  0  0  0  3  0  0  0  0  0  0
  194.8980  173.2280  145.6750 O   0  0  0  0  0  0  0  0  0  0  0  0
  195.8320  174.2960  145.7520 C   0  0  0  0  0  2  0  0  0  0  0  0
  197.1660  173.7660  146.2330 C   0  0  0  0  0  1  0  0  0  0  0  0
  1 24  1  1  0  0  0
  1 10  1  0  0  0  0
  1  7  1  0  0  0  0
  2  5  1  6  0  0  0
  2  7  1  0  0  0  0
  2 11  1  0  0  0  0
  3 14  1  0  0  0  0
  4 12  1  0  0  0  0
  4  8  1  0  0  0  0
  6 14  1  0  0  0  0
  7  3  1  0  0  0  0
  9  3  1  0  0  0  0
  9 13  1  0  0  0  0
 10 15  1  0  0  0  0
 11 25  1  0  0  0  0
 11  6  1  0  0  0  0
 13 18  1  0  0  0  0
 13 12  1  0  0  0  0
 14  4  1  0  0  0  0
 14  8  1  0  0  0  0
 15  9  1  0  0  0  0
 16 17  1  0  0  0  0
 17 19  2  0  0  0  0
 18 21  2  0  0  0  0
 20 16  2  0  0  0  0
 20 18  1  0  0  0  0
 21 19  1  0  0  0  0
 22 16  1  0  0  0  0
 24 23  1  0  0  0  0
 26 32  1  0  0  0  0
 27 25  1  0  0  0  0
 27 26  2  0  0  0  0
 28 31  2  0  0  0  0
 28 29  1  0  0  0  0
 29 30  2  0  0  0  0
 30 26  1  0  0  0  0
 31 27  1  0  0  0  0
 32 33  1  0  0  0  0
 33 34  1  0  0  0  0
M  END
>  <MODEL>
7

>  <REMARK>
 VINA RESULT:      -7.6      1.868      2.996
  Name = 
  6 active torsions:
  status: ('A' for Active; 'I' for Inactive)
    1  A    between atoms: C_1  and  C_19
    2  A    between atoms: O_3  and  C_13
    3  A    between atoms: O_3  and  C_17
    4  A    between atoms: C_11  and  C_14
    5  A    between atoms: C_11  and  C_25
    6  A    between atoms: C_12  and  C_28
                            x       y       z     vdW  Elec       q    Type
                         _______ _______ _______ _____ _____    ______ ____

>  <TORSDO>
F 6

$$$$
=
 OpenBabel11052418413D

 34 39  0  0  1  0  0  0  0  0999 V2000
  192.3110  177.3910  143.4370 C   0  0  2  0  0  3  0  0  0  0  0  0
  193.6060  176.1590  145.4240 C   0  0  1  0  0  3  0  0  0  0  0  0
  190.9910  176.0440  145.1270 C   0  0  2  0  0  3  0  0  0  0  0  0
  189.7790  174.7640  147.1250 C   0  0  2  0  0  3  0  0  0  0  0  0
  194.7270  176.4100  144.6290 O   0  0  0  0  0  1  0  0  0  0  0  0
  192.3510  174.4770  146.7850 C   0  0  0  0  0  2  0  0  0  0  0  0
  192.3080  176.7690  144.8490 C   0  0  2  0  0  3  0  0  0  0  0  0
  190.0810  173.8560  145.9490 C   0  0  0  0  0  2  0  0  0  0  0  0
  189.9200  177.1150  145.3040 C   0  0  2  0  0  3  0  0  0  0  0  0
  190.8850  177.7920  142.9930 C   0  0  0  0  0  2  0  0  0  0  0  0
  193.4950  174.6800  145.7870 C   0  0  1  0  0  3  0  0  0  0  0  0
  188.5640  175.6710  146.8350 C   0  0  0  0  0  2  0  0  0  0  0  0
  188.5660  176.4370  145.5040 C   0  0  1  0  0  3  0  0  0  0  0  0
  191.0180  175.0110  146.2610 C   0  0  2  0  0  0  0  0  0  0  0  0
  189.9470  178.1580  144.1580 C   0  0  0  0  0  2  0  0  0  0  0  0
  185.7750  178.7210  144.2710 C   0  0  0  0  0  0  0  0  0  0  0  0
  185.2690  179.2010  145.4820 C   0  0  0  0  0  3  0  0  0  0  0  0
  187.4170  177.4020  145.4780 C   0  0  0  0  0  0  0  0  0  0  0  0
  185.8350  178.7830  146.6900 C   0  0  0  0  0  3  0  0  0  0  0  0
  186.8470  177.8250  144.2670 C   0  0  0  0  0  3  0  0  0  0  0  0
  186.9070  177.8860  146.6880 C   0  0  0  0  0  3  0  0  0  0  0  0
  185.2270  179.1260  143.1000 F   0  0  0  0  0  0  0  0  0  0  0  0
  191.8310  175.3970  142.0130 C   0  0  0  0  0  1  0  0  0  0  0  0
  192.8760  176.4220  142.4060 C   0  0  0  0  0  2  0  0  0  0  0  0
  193.3600  173.7940  144.5460 C   0  0  0  0  0  2  0  0  0  0  0  0
  195.5070  172.4750  144.5520 C   0  0  0  0  0  0  0  0  0  0  0  0
  194.1080  172.5060  144.6930 C   0  0  0  0  0  0  0  0  0  0  0  0
  194.1010  170.1250  145.1680 C   0  0  0  0  0  3  0  0  0  0  0  0
  195.4870  170.0870  145.0120 C   0  0  0  0  0  3  0  0  0  0  0  0
  196.1880  171.2570  144.7070 C   0  0  0  0  0  3  0  0  0  0  0  0
  193.4140  171.3310  145.0120 C   0  0  0  0  0  3  0  0  0  0  0  0
  196.1980  173.6580  144.2650 O   0  0  0  0  0  0  0  0  0  0  0  0
  197.3250  174.0940  145.0130 C   0  0  0  0  0  2  0  0  0  0  0  0
  197.1030  173.7910  146.4800 C   0  0  0  0  0  1  0  0  0  0  0  0
  1 24  1  6  0  0  0
  1  7  1  0  0  0  0
  2  5  1  6  0  0  0
  2 11  1  0  0  0  0
  3  9  1  0  0  0  0
  3 14  1  0  0  0  0
  7  3  1  0  0  0  0
  7  2  1  0  0  0  0
  8 14  1  0  0  0  0
  8  4  1  0  0  0  0
  9 13  1  0  0  0  0
 10  1  1  0  0  0  0
 10 15  1  0  0  0  0
 11  6  1  0  0  0  0
 12  4  1  0  0  0  0
 13 12  1  0  0  0  0
 14  6  1  0  0  0  0
 14  4  1  0  0  0  0
 15  9  1  0  0  0  0
 16 17  1  0  0  0  0
 17 19  2  0  0  0  0
 18 13  1  0  0  0  0
 18 21  2  0  0  0  0
 20 16  2  0  0  0  0
 20 18  1  0  0  0  0
 21 19  1  0  0  0  0
 22 16  1  0  0  0  0
 23 24  1  0  0  0  0
 25 27  1  0  0  0  0
 25 11  1  0  0  0  0
 26 27  2  0  0  0  0
 26 30  1  0  0  0  0
 27 31  1  0  0  0  0
 29 28  1  0  0  0  0
 30 29  2  0  0  0  0
 31 28  2  0  0  0  0
 32 26  1  0  0  0  0
 32 33  1  0  0  0  0
 33 34  1  0  0  0  0
M  END
>  <MODEL>
8

>  <REMARK>
 VINA RESULT:      -7.6      1.245      2.141
  Name = 
  6 active torsions:
  status: ('A' for Active; 'I' for Inactive)
    1  A    between atoms: C_1  and  C_19
    2  A    between atoms: O_3  and  C_13
    3  A    between atoms: O_3  and  C_17
    4  A    between atoms: C_11  and  C_14
    5  A    between atoms: C_11  and  C_25
    6  A    between atoms: C_12  and  C_28
                            x       y       z     vdW  Elec       q    Type
                         _______ _______ _______ _____ _____    ______ ____

>  <TORSDO>
F 6

$$$$
=
 OpenBabel11052418413D

 34 39  0  0  1  0  0  0  0  0999 V2000
  191.2810  176.0870  145.9550 C   0  0  2  0  0  3  0  0  0  0  0  0
  191.3560  173.6180  144.9340 C   0  0  1  0  0  3  0  0  0  0  0  0
  189.7030  175.4780  144.0700 C   0  0  2  0  0  3  0  0  0  0  0  0
  187.9910  174.5710  142.2420 C   0  0  2  0  0  3  0  0  0  0  0  0
  192.5760  173.5520  145.6110 O   0  0  0  0  0  1  0  0  0  0  0  0
  190.1340  173.1890  142.7930 C   0  0  0  0  0  2  0  0  0  0  0  0
  190.5930  174.9370  145.1880 C   0  0  2  0  0  3  0  0  0  0  0  0
  189.2240  175.1990  141.6240 C   0  0  0  0  0  2  0  0  0  0  0  0
  188.4900  176.1200  144.7340 C   0  0  2  0  0  3  0  0  0  0  0  0
  190.4100  177.3640  145.9570 C   0  0  0  0  0  2  0  0  0  0  0  0
  191.5130  173.2610  143.4570 C   0  0  1  0  0  3  0  0  0  0  0  0
  187.0160  175.6470  142.7660 C   0  0  0  0  0  2  0  0  0  0  0  0
  187.6070  176.7490  143.6580 C   0  0  1  0  0  3  0  0  0  0  0  0
  189.3390  174.4840  142.9590 C   0  0  2  0  0  0  0  0  0  0  0  0
  188.8970  177.0910  145.8720 C   0  0  0  0  0  2  0  0  0  0  0  0
  184.6510  177.9060  145.7670 C   0  0  0  0  0  0  0  0  0  0  0  0
  184.4440  179.1890  145.2530 C   0  0  0  0  0  3  0  0  0  0  0  0
  186.4980  177.5860  144.2240 C   0  0  0  0  0  0  0  0  0  0  0  0
  185.2610  179.6710  144.2260 C   0  0  0  0  0  3  0  0  0  0  0  0
  185.6750  177.1050  145.2550 C   0  0  0  0  0  3  0  0  0  0  0  0
  186.2860  178.8720  143.7130 C   0  0  0  0  0  3  0  0  0  0  0  0
  183.8590  177.4390  146.7620 F   0  0  0  0  0  0  0  0  0  0  0  0
  193.6580  176.6910  146.4260 C   0  0  0  0  0  1  0  0  0  0  0  0
  192.6320  176.4310  145.3400 C   0  0  0  0  0  2  0  0  0  0  0  0
  192.4670  174.2160  142.7350 C   0  0  0  0  0  2  0  0  0  0  0  0
  194.9360  173.7110  142.7200 C   0  0  0  0  0  0  0  0  0  0  0  0
  193.6570  173.5010  142.1740 C   0  0  0  0  0  0  0  0  0  0  0  0
  194.5870  171.9040  140.6000 C   0  0  0  0  0  3  0  0  0  0  0  0
  195.8600  172.1220  141.1280 C   0  0  0  0  0  3  0  0  0  0  0  0
  196.0340  173.0200  142.1840 C   0  0  0  0  0  3  0  0  0  0  0  0
  193.4880  172.5890  141.1240 C   0  0  0  0  0  3  0  0  0  0  0  0
  195.0920  174.5990  143.7900 O   0  0  0  0  0  0  0  0  0  0  0  0
  196.3280  174.7800  144.4680 C   0  0  0  0  0  2  0  0  0  0  0  0
  196.2710  174.0850  145.8120 C   0  0  0  0  0  1  0  0  0  0  0  0
  1 24  1  6  0  0  0
  1 10  1  0  0  0  0
  2  7  1  0  0  0  0
  2  5  1  6  0  0  0
  3  9  1  0  0  0  0
  3  7  1  0  0  0  0
  4 12  1  0  0  0  0
  4 14  1  0  0  0  0
  6 14  1  0  0  0  0
  6 11  1  0  0  0  0
  7  1  1  0  0  0  0
  8  4  1  0  0  0  0
  8 14  1  0  0  0  0
  9 15  1  0  0  0  0
 11  2  1  0  0  0  0
 12 13  1  0  0  0  0
 13 18  1  0  0  0  0
 13  9  1  0  0  0  0
 14  3  1  0  0  0  0
 15 10  1  0  0  0  0
 16 22  1  0  0  0  0
 17 16  2  0  0  0  0
 18 20  2  0  0  0  0
 19 17  1  0  0  0  0
 20 16  1  0  0  0  0
 21 18  1  0  0  0  0
 21 19  2  0  0  0  0
 24 23  1  0  0  0  0
 25 11  1  0  0  0  0
 26 32  1  0  0  0  0
 27 26  2  0  0  0  0
 27 25  1  0  0  0  0
 28 31  2  0  0  0  0
 28 29  1  0  0  0  0
 29 30  2  0  0  0  0
 30 26  1  0  0  0  0
 31 27  1  0  0  0  0
 32 33  1  0  0  0  0
 33 34  1  0  0  0  0
M  END
>  <MODEL>
9

>  <REMARK>
 VINA RESULT:      -7.5      2.214      3.708
  Name = 
  6 active torsions:
  status: ('A' for Active; 'I' for Inactive)
    1  A    between atoms: C_1  and  C_19
    2  A    between atoms: O_3  and  C_13
    3  A    between atoms: O_3  and  C_17
    4  A    between atoms: C_11  and  C_14
    5  A    between atoms: C_11  and  C_25
    6  A    between atoms: C_12  and  C_28
                            x       y       z     vdW  Elec       q    Type
                         _______ _______ _______ _____ _____    ______ ____

>  <TORSDO>
F 6

$$$$
