=
 OpenBabel11052420033D

 37 41  0  0  1  0  0  0  0  0999 V2000
  191.2200  174.7270  146.1370 C   0  0  1  0  0  3  0  0  0  0  0  0
  188.2080  177.2220  142.7760 C   0  0  0  0  0  2  0  0  0  0  0  0
  189.5890  175.1290  142.9390 C   0  0  1  0  0  3  0  0  0  0  0  0
  188.0100  175.3300  147.6380 O   0  0  0  0  0  0  0  0  0  0  0  0
  188.2430  175.7220  142.5050 C   0  0  0  0  0  2  0  0  0  0  0  0
  190.2320  175.0290  147.1250 O   0  0  0  0  0  0  0  0  0  0  0  0
  188.9090  175.2850  146.7580 C   0  0  0  0  0  0  0  0  0  0  0  0
  187.6330  177.5540  144.0880 N   0  0  2  0  0  0  0  0  0  0  0  0
  189.7150  174.9730  144.4770 C   0  0  2  0  0  3  0  0  0  0  0  0
  188.5290  177.1080  145.1670 C   0  0  0  0  0  2  0  0  0  0  0  0
  188.5870  175.5840  145.3310 C   0  0  2  0  0  3  0  0  0  0  0  0
  190.9660  175.4260  144.9370 O   0  0  0  0  0  0  0  0  0  0  0  0
  185.6060  177.6060  145.4930 C   0  0  0  0  0  0  0  0  0  0  0  0
  185.3720  177.4370  143.0450 C   0  0  0  0  0  2  0  0  0  0  0  0
  185.1100  178.9460  143.0040 C   0  0  0  0  0  2  0  0  0  0  0  0
  183.1310  178.8670  144.3440 F   0  0  0  0  0  0  0  0  0  0  0  0
  185.1950  179.0490  145.5340 C   0  0  2  0  0  3  0  0  0  0  0  0
  184.4000  179.4150  144.2780 C   0  0  1  0  0  3  0  0  0  0  0  0
  186.2510  177.0520  144.2470 C   0  0  1  0  0  3  0  0  0  0  0  0
  186.3160  179.8550  145.6320 F   0  0  0  0  0  0  0  0  0  0  0  0
  185.2650  176.7910  146.4870 C   0  0  0  0  0  2  0  0  0  0  0  0
  189.9160  173.8140  142.1600 C   0  0  0  0  0  0  0  0  0  0  0  0
  189.0120  172.6830  142.6580 C   0  0  0  0  0  1  0  0  0  0  0  0
  189.5710  173.9450  140.6770 C   0  0  0  0  0  1  0  0  0  0  0  0
  192.7590  171.5120  143.0520 C   0  0  0  0  0  3  0  0  0  0  0  0
  191.7510  172.0000  142.0390 C   0  0  0  0  0  0  0  0  0  0  0  0
  191.3530  173.4250  142.2670 N   0  0  0  0  0  0  0  0  0  0  0  0
  190.6210  170.9870  141.8970 C   0  0  0  0  0  2  0  0  0  0  0  0
  192.2740  174.3930  141.6400 C   0  0  0  0  0  2  0  0  0  0  0  0
  193.8260  173.7600  143.5210 C   0  0  0  0  0  2  0  0  0  0  0  0
  191.0700  170.6770  140.4820 C   0  0  0  0  0  2  0  0  0  0  0  0
  193.7300  174.1870  142.0660 C   0  0  0  0  0  2  0  0  0  0  0  0
  192.1910  171.6890  140.6140 C   0  0  0  0  0  2  0  0  0  0  0  0
  193.6810  172.2690  143.6700 C   0  0  0  0  0  3  0  0  0  0  0  0
  192.5870  175.1000  146.6790 C   0  0  0  0  0  2  0  0  0  0  0  0
  194.5620  176.4860  146.1360 C   0  0  0  0  0  1  0  0  0  0  0  0
  193.0520  176.4160  146.0880 C   0  0  0  0  0  2  0  0  0  0  0  0
  1 35  1  1  0  0  0
  1  6  1  0  0  0  0
  3 22  1  6  0  0  0
  3  9  1  0  0  0  0
  5  2  1  0  0  0  0
  5  3  1  0  0  0  0
  7  6  1  0  0  0  0
  7  4  2  0  0  0  0
  8  2  1  6  0  0  0
  8 19  1  0  0  0  0
  8 10  1  0  0  0  0
  9 12  1  1  0  0  0
  9 11  1  0  0  0  0
 11 10  1  1  0  0  0
 11  7  1  0  0  0  0
 12  1  1  0  0  0  0
 13 17  1  0  0  0  0
 13 21  2  0  0  0  0
 15 14  1  0  0  0  0
 15 18  1  0  0  0  0
 17 20  1  6  0  0  0
 18 16  1  1  0  0  0
 18 17  1  0  0  0  0
 19 14  1  6  0  0  0
 19 13  1  0  0  0  0
 22 27  1  0  0  0  0
 22 23  1  0  0  0  0
 24 22  1  0  0  0  0
 25 34  2  0  0  0  0
 26 27  1  0  0  0  0
 26 25  1  0  0  0  0
 28 26  1  0  0  0  0
 29 32  1  0  0  0  0
 29 27  1  0  0  0  0
 30 34  1  0  0  0  0
 31 33  1  0  0  0  0
 31 28  1  0  0  0  0
 32 30  1  0  0  0  0
 33 26  1  0  0  0  0
 37 36  1  0  0  0  0
 37 35  1  0  0  0  0
M  END
>  <MODEL>
1

>  <REMARK>
 VINA RESULT:      -8.4      0.000      0.000
  Name = 
  5 active torsions:
  status: ('A' for Active; 'I' for Inactive)
    1  A    between atoms: C_1  and  C_5
    2  A    between atoms: C_4  and  C_10
    3  A    between atoms: C_4  and  N_13
    4  A    between atoms: C_5  and  C_23
    5  A    between atoms: N_27  and  C_31
                            x       y       z     vdW  Elec       q    Type
                         _______ _______ _______ _____ _____    ______ ____

>  <TORSDO>
F 5

$$$$
=
 OpenBabel11052420033D

 37 41  0  0  1  0  0  0  0  0999 V2000
  192.1820  175.3740  145.4590 C   0  0  1  0  0  3  0  0  0  0  0  0
  188.6050  174.0160  142.0010 C   0  0  0  0  0  2  0  0  0  0  0  0
  189.2710  175.9880  143.4100 C   0  0  1  0  0  3  0  0  0  0  0  0
  193.8010  174.1940  142.4750 O   0  0  0  0  0  0  0  0  0  0  0  0
  188.8430  175.5220  142.0130 C   0  0  0  0  0  2  0  0  0  0  0  0
  193.1330  174.7280  144.6110 O   0  0  0  0  0  0  0  0  0  0  0  0
  192.8780  174.5590  143.2480 C   0  0  0  0  0  0  0  0  0  0  0  0
  189.7960  173.2510  141.6060 N   0  0  2  0  0  0  0  0  0  0  0  0
  190.7440  175.6340  143.7430 C   0  0  2  0  0  3  0  0  0  0  0  0
  190.8360  173.3480  142.6420 C   0  0  0  0  0  2  0  0  0  0  0  0
  191.4860  174.7350  142.7350 C   0  0  2  0  0  3  0  0  0  0  0  0
  190.8620  175.1000  145.0410 O   0  0  0  0  0  0  0  0  0  0  0  0
  191.2630  172.5970  139.7330 C   0  0  0  0  0  0  0  0  0  0  0  0
  189.1350  173.7450  139.2530 C   0  0  0  0  0  2  0  0  0  0  0  0
  188.5120  172.3800  138.9460 C   0  0  0  0  0  2  0  0  0  0  0  0
  189.9680  171.8740  137.1180 F   0  0  0  0  0  0  0  0  0  0  0  0
  190.7570  171.2560  139.2880 C   0  0  2  0  0  3  0  0  0  0  0  0
  189.5520  171.4210  138.3580 C   0  0  1  0  0  3  0  0  0  0  0  0
  190.2900  173.6220  140.2620 C   0  0  1  0  0  3  0  0  0  0  0  0
  190.3990  170.4990  140.3900 F   0  0  0  0  0  0  0  0  0  0  0  0
  192.5330  172.9310  139.5190 C   0  0  0  0  0  2  0  0  0  0  0  0
  188.9370  177.4970  143.6410 C   0  0  0  0  0  0  0  0  0  0  0  0
  190.0740  178.1620  144.4210 C   0  0  0  0  0  1  0  0  0  0  0  0
  188.8880  178.2650  142.3200 C   0  0  0  0  0  1  0  0  0  0  0  0
  185.6340  179.1950  144.2550 C   0  0  0  0  0  3  0  0  0  0  0  0
  186.4320  178.1240  143.5540 C   0  0  0  0  0  0  0  0  0  0  0  0
  187.6330  177.6970  144.3390 N   0  0  0  0  0  0  0  0  0  0  0  0
  186.6690  178.5170  142.1000 C   0  0  0  0  0  2  0  0  0  0  0  0
  187.3320  176.6520  145.3380 C   0  0  0  0  0  2  0  0  0  0  0  0
  186.2530  178.5340  146.6190 C   0  0  0  0  0  2  0  0  0  0  0  0
  185.7770  177.3770  141.6420 C   0  0  0  0  0  2  0  0  0  0  0  0
  186.2030  177.0510  146.2920 C   0  0  0  0  0  2  0  0  0  0  0  0
  185.5450  176.9770  143.0860 C   0  0  0  0  0  2  0  0  0  0  0  0
  185.5290  179.3540  145.5860 C   0  0  0  0  0  3  0  0  0  0  0  0
  192.3880  174.8930  146.8840 C   0  0  0  0  0  2  0  0  0  0  0  0
  191.3550  176.8180  148.0430 C   0  0  0  0  0  1  0  0  0  0  0  0
  191.2380  175.3350  147.7650 C   0  0  0  0  0  2  0  0  0  0  0  0
  1 35  1  1  0  0  0
  2  5  1  0  0  0  0
  3 22  1  6  0  0  0
  3  9  1  0  0  0  0
  4  7  2  0  0  0  0
  5  3  1  0  0  0  0
  6  1  1  0  0  0  0
  7  6  1  0  0  0  0
  8  2  1  1  0  0  0
  8 10  1  0  0  0  0
  9 12  1  1  0  0  0
 11 10  1  1  0  0  0
 11  7  1  0  0  0  0
 11  9  1  0  0  0  0
 12  1  1  0  0  0  0
 13 19  1  0  0  0  0
 15 14  1  0  0  0  0
 17 13  1  0  0  0  0
 17 20  1  1  0  0  0
 18 16  1  6  0  0  0
 18 15  1  0  0  0  0
 18 17  1  0  0  0  0
 19 14  1  6  0  0  0
 19  8  1  0  0  0  0
 21 13  2  0  0  0  0
 22 27  1  0  0  0  0
 22 23  1  0  0  0  0
 24 22  1  0  0  0  0
 25 34  2  0  0  0  0
 26 25  1  0  0  0  0
 26 27  1  0  0  0  0
 27 29  1  0  0  0  0
 28 26  1  0  0  0  0
 29 32  1  0  0  0  0
 31 28  1  0  0  0  0
 31 33  1  0  0  0  0
 32 30  1  0  0  0  0
 33 26  1  0  0  0  0
 34 30  1  0  0  0  0
 35 37  1  0  0  0  0
 37 36  1  0  0  0  0
M  END
>  <MODEL>
2

>  <REMARK>
 VINA RESULT:      -8.2      3.166      7.284
  Name = 
  5 active torsions:
  status: ('A' for Active; 'I' for Inactive)
    1  A    between atoms: C_1  and  C_5
    2  A    between atoms: C_4  and  C_10
    3  A    between atoms: C_4  and  N_13
    4  A    between atoms: C_5  and  C_23
    5  A    between atoms: N_27  and  C_31
                            x       y       z     vdW  Elec       q    Type
                         _______ _______ _______ _____ _____    ______ ____

>  <TORSDO>
F 5

$$$$
=
 OpenBabel11052420033D

 37 41  0  0  1  0  0  0  0  0999 V2000
  192.1870  176.1560  146.3360 C   0  0  1  0  0  3  0  0  0  0  0  0
  188.8210  176.3070  142.4320 C   0  0  0  0  0  2  0  0  0  0  0  0
  190.3730  174.6950  143.5760 C   0  0  1  0  0  3  0  0  0  0  0  0
  189.0170  177.3430  147.5460 O   0  0  0  0  0  0  0  0  0  0  0  0
  188.9640  174.9020  143.0070 C   0  0  0  0  0  2  0  0  0  0  0  0
  191.2280  176.9040  147.0870 O   0  0  0  0  0  0  0  0  0  0  0  0
  189.8720  176.8660  146.7550 C   0  0  0  0  0  0  0  0  0  0  0  0
  188.2870  177.2720  143.4040 N   0  0  2  0  0  0  0  0  0  0  0  0
  190.5870  175.4020  144.9400 C   0  0  2  0  0  3  0  0  0  0  0  0
  189.2670  177.5200  144.4730 C   0  0  0  0  0  2  0  0  0  0  0  0
  189.4570  176.3310  145.4240 C   0  0  2  0  0  3  0  0  0  0  0  0
  191.8190  176.0830  144.9750 O   0  0  0  0  0  0  0  0  0  0  0  0
  186.2540  178.0500  144.5660 C   0  0  0  0  0  0  0  0  0  0  0  0
  186.0560  176.3350  142.8060 C   0  0  0  0  0  2  0  0  0  0  0  0
  185.6480  177.4400  141.8270 C   0  0  0  0  0  2  0  0  0  0  0  0
  183.6760  178.0790  143.0200 F   0  0  0  0  0  0  0  0  0  0  0  0
  185.7030  179.1460  143.7000 C   0  0  2  0  0  3  0  0  0  0  0  0
  184.8860  178.5570  142.5470 C   0  0  1  0  0  3  0  0  0  0  0  0
  186.9590  176.8800  143.9250 C   0  0  1  0  0  3  0  0  0  0  0  0
  186.7390  179.9140  143.1980 F   0  0  0  0  0  0  0  0  0  0  0  0
  185.9870  178.0360  145.8690 C   0  0  0  0  0  2  0  0  0  0  0  0
  190.7660  173.1820  143.6010 C   0  0  0  0  0  0  0  0  0  0  0  0
  191.9260  172.9690  144.5780 C   0  0  0  0  0  1  0  0  0  0  0  0
  189.6360  172.3220  144.1660 C   0  0  0  0  0  1  0  0  0  0  0  0
  191.6740  173.4950  139.9610 C   0  0  0  0  0  3  0  0  0  0  0  0
  192.1070  173.3900  141.4030 C   0  0  0  0  0  0  0  0  0  0  0  0
  191.1140  172.6560  142.2490 N   0  0  0  0  0  0  0  0  0  0  0  0
  192.5640  174.7530  141.9100 C   0  0  0  0  0  2  0  0  0  0  0  0
  191.2920  171.1910  142.2130 C   0  0  0  0  0  2  0  0  0  0  0  0
  190.2940  171.3720  139.9070 C   0  0  0  0  0  2  0  0  0  0  0  0
  193.9880  174.2400  142.0210 C   0  0  0  0  0  2  0  0  0  0  0  0
  191.2800  170.6260  140.7900 C   0  0  0  0  0  2  0  0  0  0  0  0
  193.5380  172.8800  141.5240 C   0  0  0  0  0  2  0  0  0  0  0  0
  190.9140  172.6030  139.3020 C   0  0  0  0  0  3  0  0  0  0  0  0
  193.5450  176.8200  146.4750 C   0  0  0  0  0  2  0  0  0  0  0  0
  195.0700  174.9770  145.8460 C   0  0  0  0  0  1  0  0  0  0  0  0
  194.4960  176.3090  145.4120 C   0  0  0  0  0  2  0  0  0  0  0  0
  1 35  1  6  0  0  0
  1  6  1  0  0  0  0
  2  5  1  0  0  0  0
  3 22  1  1  0  0  0
  3  9  1  0  0  0  0
  5  3  1  0  0  0  0
  7  6  1  0  0  0  0
  7  4  2  0  0  0  0
  8  2  1  6  0  0  0
  8 19  1  0  0  0  0
  8 10  1  0  0  0  0
  9 12  1  6  0  0  0
  9 11  1  0  0  0  0
 11 10  1  6  0  0  0
 11  7  1  0  0  0  0
 12  1  1  0  0  0  0
 13 21  2  0  0  0  0
 15 18  1  0  0  0  0
 15 14  1  0  0  0  0
 17 20  1  6  0  0  0
 17 13  1  0  0  0  0
 18 16  1  1  0  0  0
 18 17  1  0  0  0  0
 19 14  1  6  0  0  0
 19 13  1  0  0  0  0
 22 24  1  0  0  0  0
 22 23  1  0  0  0  0
 25 26  1  0  0  0  0
 26 33  1  0  0  0  0
 26 28  1  0  0  0  0
 26 27  1  0  0  0  0
 27 22  1  0  0  0  0
 28 31  1  0  0  0  0
 29 27  1  0  0  0  0
 30 32  1  0  0  0  0
 32 29  1  0  0  0  0
 33 31  1  0  0  0  0
 34 30  1  0  0  0  0
 34 25  2  0  0  0  0
 37 36  1  0  0  0  0
 37 35  1  0  0  0  0
M  END
>  <MODEL>
3

>  <REMARK>
 VINA RESULT:      -8.0      1.368      2.574
  Name = 
  5 active torsions:
  status: ('A' for Active; 'I' for Inactive)
    1  A    between atoms: C_1  and  C_5
    2  A    between atoms: C_4  and  C_10
    3  A    between atoms: C_4  and  N_13
    4  A    between atoms: C_5  and  C_23
    5  A    between atoms: N_27  and  C_31
                            x       y       z     vdW  Elec       q    Type
                         _______ _______ _______ _____ _____    ______ ____

>  <TORSDO>
F 5

$$$$
=
 OpenBabel11052420033D

 37 41  0  0  1  0  0  0  0  0999 V2000
  188.8310  173.1760  142.7710 C   0  0  1  0  0  3  0  0  0  0  0  0
  192.8280  176.0100  144.3780 C   0  0  0  0  0  2  0  0  0  0  0  0
  190.3400  175.8400  144.6880 C   0  0  1  0  0  3  0  0  0  0  0  0
  191.3410  171.0100  144.1580 O   0  0  0  0  0  0  0  0  0  0  0  0
  191.6910  176.0010  145.3940 C   0  0  0  0  0  2  0  0  0  0  0  0
  189.6700  172.0330  142.9550 O   0  0  0  0  0  0  0  0  0  0  0  0
  190.7500  172.0740  143.8390 C   0  0  0  0  0  0  0  0  0  0  0  0
  193.4030  174.6770  144.1500 N   0  0  2  0  0  0  0  0  0  0  0  0
  190.0760  174.3900  144.2040 C   0  0  2  0  0  3  0  0  0  0  0  0
  192.4330  173.8130  143.4580 C   0  0  0  0  0  2  0  0  0  0  0  0
  191.2450  173.3930  144.3330 C   0  0  2  0  0  3  0  0  0  0  0  0
  189.5720  174.3720  142.8900 O   0  0  0  0  0  0  0  0  0  0  0  0
  194.7120  172.8080  145.0890 C   0  0  0  0  0  0  0  0  0  0  0  0
  194.8630  175.0340  146.1390 C   0  0  0  0  0  2  0  0  0  0  0  0
  196.1670  175.2660  145.3700 C   0  0  0  0  0  2  0  0  0  0  0  0
  197.3500  173.4500  146.3810 F   0  0  0  0  0  0  0  0  0  0  0  0
  196.0620  172.9110  144.4410 C   0  0  2  0  0  3  0  0  0  0  0  0
  196.9240  173.9510  145.1630 C   0  0  1  0  0  3  0  0  0  0  0  0
  193.9330  174.0650  145.3880 C   0  0  1  0  0  3  0  0  0  0  0  0
  195.9200  173.2630  143.1090 F   0  0  0  0  0  0  0  0  0  0  0  0
  194.2780  171.6320  145.5330 C   0  0  0  0  0  2  0  0  0  0  0  0
  189.1690  176.4230  145.5440 C   0  0  0  0  0  0  0  0  0  0  0  0
  188.6490  175.3480  146.5020 C   0  0  0  0  0  1  0  0  0  0  0  0
  189.6570  177.5420  146.4650 C   0  0  0  0  0  1  0  0  0  0  0  0
  185.5750  176.7900  144.4870 C   0  0  0  0  0  3  0  0  0  0  0  0
  186.7330  177.2540  145.3370 C   0  0  0  0  0  0  0  0  0  0  0  0
  188.0590  176.9650  144.7070 N   0  0  0  0  0  0  0  0  0  0  0  0
  186.5420  176.7900  146.7770 C   0  0  0  0  0  2  0  0  0  0  0  0
  188.4910  178.0100  143.7580 C   0  0  0  0  0  2  0  0  0  0  0  0
  186.7350  177.0190  142.2480 C   0  0  0  0  0  2  0  0  0  0  0  0
  186.3560  178.2280  147.2210 C   0  0  0  0  0  2  0  0  0  0  0  0
  187.4510  178.2910  142.6710 C   0  0  0  0  0  2  0  0  0  0  0  0
  186.5520  178.6970  145.7920 C   0  0  0  0  0  2  0  0  0  0  0  0
  185.5640  176.7190  143.1450 C   0  0  0  0  0  3  0  0  0  0  0  0
  188.1860  173.0960  141.4000 C   0  0  0  0  0  2  0  0  0  0  0  0
  188.5720  173.7490  139.0460 C   0  0  0  0  0  1  0  0  0  0  0  0
  188.7390  174.1730  140.4890 C   0  0  0  0  0  2  0  0  0  0  0  0
  1 35  1  6  0  0  0
  1 12  1  0  0  0  0
  1  6  1  0  0  0  0
  2  5  1  0  0  0  0
  3  5  1  0  0  0  0
  3 22  1  1  0  0  0
  6  7  1  0  0  0  0
  7  4  2  0  0  0  0
  7 11  1  0  0  0  0
  8 10  1  1  0  0  0
  8  2  1  0  0  0  0
  8 19  1  0  0  0  0
  9 12  1  6  0  0  0
  9 11  1  0  0  0  0
  9  3  1  0  0  0  0
 11 10  1  6  0  0  0
 13 19  1  0  0  0  0
 13 21  2  0  0  0  0
 15 14  1  0  0  0  0
 17 20  1  6  0  0  0
 17 13  1  0  0  0  0
 17 18  1  0  0  0  0
 18 15  1  0  0  0  0
 18 16  1  1  0  0  0
 19 14  1  6  0  0  0
 22 24  1  0  0  0  0
 22 23  1  0  0  0  0
 25 26  1  0  0  0  0
 26 33  1  0  0  0  0
 26 28  1  0  0  0  0
 27 26  1  0  0  0  0
 27 22  1  0  0  0  0
 28 31  1  0  0  0  0
 29 27  1  0  0  0  0
 30 32  1  0  0  0  0
 30 34  1  0  0  0  0
 32 29  1  0  0  0  0
 33 31  1  0  0  0  0
 34 25  2  0  0  0  0
 36 37  1  0  0  0  0
 37 35  1  0  0  0  0
M  END
>  <MODEL>
4

>  <REMARK>
 VINA RESULT:      -7.9      3.664      8.236
  Name = 
  5 active torsions:
  status: ('A' for Active; 'I' for Inactive)
    1  A    between atoms: C_1  and  C_5
    2  A    between atoms: C_4  and  C_10
    3  A    between atoms: C_4  and  N_13
    4  A    between atoms: C_5  and  C_23
    5  A    between atoms: N_27  and  C_31
                            x       y       z     vdW  Elec       q    Type
                         _______ _______ _______ _____ _____    ______ ____

>  <TORSDO>
F 5

$$$$
=
 OpenBabel11052420033D

 37 41  0  0  1  0  0  0  0  0999 V2000
  188.5850  174.9550  140.4510 C   0  0  1  0  0  3  0  0  0  0  0  0
  188.7180  175.8920  145.5210 C   0  0  0  0  0  2  0  0  0  0  0  0
  190.2740  175.6930  143.5580 C   0  0  1  0  0  3  0  0  0  0  0  0
  186.3920  177.7000  141.2100 O   0  0  0  0  0  0  0  0  0  0  0  0
  189.9020  176.5200  144.7940 C   0  0  0  0  0  2  0  0  0  0  0  0
  187.4530  175.8260  140.4010 O   0  0  0  0  0  0  0  0  0  0  0  0
  187.2570  176.8020  141.3800 C   0  0  0  0  0  0  0  0  0  0  0  0
  187.4250  176.4400  145.0890 N   0  0  2  0  0  0  0  0  0  0  0  0
  189.2910  175.8930  142.3750 C   0  0  2  0  0  3  0  0  0  0  0  0
  187.1330  176.0360  143.7040 C   0  0  0  0  0  2  0  0  0  0  0  0
  188.0240  176.7220  142.6600 C   0  0  2  0  0  3  0  0  0  0  0  0
  188.9390  174.6630  141.7870 O   0  0  0  0  0  0  0  0  0  0  0  0
  185.9140  178.3910  145.1080 C   0  0  0  0  0  0  0  0  0  0  0  0
  187.7970  178.3070  146.6980 C   0  0  0  0  0  2  0  0  0  0  0  0
  186.8180  177.8220  147.7720 C   0  0  0  0  0  2  0  0  0  0  0  0
  185.4500  179.7830  147.7320 F   0  0  0  0  0  0  0  0  0  0  0  0
  184.8850  178.0790  146.1550 C   0  0  2  0  0  3  0  0  0  0  0  0
  185.4220  178.4110  147.5500 C   0  0  1  0  0  3  0  0  0  0  0  0
  187.3300  177.9030  145.2890 C   0  0  1  0  0  3  0  0  0  0  0  0
  184.5400  176.7400  146.0910 F   0  0  0  0  0  0  0  0  0  0  0  0
  185.6170  179.2200  144.1110 C   0  0  0  0  0  2  0  0  0  0  0  0
  191.7700  175.9010  143.1540 C   0  0  0  0  0  0  0  0  0  0  0  0
  192.1370  174.9350  142.0250 C   0  0  0  0  0  1  0  0  0  0  0  0
  191.9950  177.2880  142.5500 C   0  0  0  0  0  1  0  0  0  0  0  0
  192.7500  174.7620  146.6050 C   0  0  0  0  0  3  0  0  0  0  0  0
  192.6660  174.4900  145.1230 C   0  0  0  0  0  0  0  0  0  0  0  0
  192.7040  175.7440  144.3070 N   0  0  0  0  0  0  0  0  0  0  0  0
  191.5250  173.5190  144.8350 C   0  0  0  0  0  2  0  0  0  0  0  0
  194.0760  176.2100  144.0230 C   0  0  0  0  0  2  0  0  0  0  0  0
  194.0740  176.9130  146.4420 C   0  0  0  0  0  2  0  0  0  0  0  0
  192.5270  172.4610  144.4120 C   0  0  0  0  0  2  0  0  0  0  0  0
  194.9150  176.3900  145.2900 C   0  0  0  0  0  2  0  0  0  0  0  0
  193.6650  173.4250  144.6890 C   0  0  0  0  0  2  0  0  0  0  0  0
  193.3890  175.7950  147.1800 C   0  0  0  0  0  3  0  0  0  0  0  0
  188.2510  173.6740  139.7090 C   0  0  0  0  0  2  0  0  0  0  0  0
  190.5470  173.3950  138.8310 C   0  0  0  0  0  1  0  0  0  0  0  0
  189.0900  173.5550  138.4520 C   0  0  0  0  0  2  0  0  0  0  0  0
  1 35  1  6  0  0  0
  1 12  1  0  0  0  0
  3 22  1  6  0  0  0
  3  5  1  0  0  0  0
  4  7  2  0  0  0  0
  5  2  1  0  0  0  0
  6  1  1  0  0  0  0
  6  7  1  0  0  0  0
  7 11  1  0  0  0  0
  8 10  1  6  0  0  0
  8 19  1  0  0  0  0
  8  2  1  0  0  0  0
  9 12  1  1  0  0  0
  9 11  1  0  0  0  0
  9  3  1  0  0  0  0
 11 10  1  1  0  0  0
 13 19  1  0  0  0  0
 13 17  1  0  0  0  0
 14 15  1  0  0  0  0
 17 20  1  1  0  0  0
 17 18  1  0  0  0  0
 18 16  1  6  0  0  0
 18 15  1  0  0  0  0
 19 14  1  1  0  0  0
 21 13  2  0  0  0  0
 22 27  1  0  0  0  0
 23 22  1  0  0  0  0
 24 22  1  0  0  0  0
 25 34  2  0  0  0  0
 26 25  1  0  0  0  0
 27 26  1  0  0  0  0
 28 26  1  0  0  0  0
 29 27  1  0  0  0  0
 29 32  1  0  0  0  0
 30 34  1  0  0  0  0
 31 33  1  0  0  0  0
 31 28  1  0  0  0  0
 32 30  1  0  0  0  0
 33 26  1  0  0  0  0
 37 36  1  0  0  0  0
 37 35  1  0  0  0  0
M  END
>  <MODEL>
5

>  <REMARK>
 VINA RESULT:      -7.9      2.321      4.639
  Name = 
  5 active torsions:
  status: ('A' for Active; 'I' for Inactive)
    1  A    between atoms: C_1  and  C_5
    2  A    between atoms: C_4  and  C_10
    3  A    between atoms: C_4  and  N_13
    4  A    between atoms: C_5  and  C_23
    5  A    between atoms: N_27  and  C_31
                            x       y       z     vdW  Elec       q    Type
                         _______ _______ _______ _____ _____    ______ ____

>  <TORSDO>
F 5

$$$$
=
 OpenBabel11052420033D

 37 41  0  0  1  0  0  0  0  0999 V2000
  190.5900  171.9560  140.3510 C   0  0  1  0  0  3  0  0  0  0  0  0
  189.7910  175.3200  144.1770 C   0  0  0  0  0  2  0  0  0  0  0  0
  191.6810  174.3130  142.8620 C   0  0  1  0  0  3  0  0  0  0  0  0
  188.2880  174.4860  139.2470 O   0  0  0  0  0  0  0  0  0  0  0  0
  191.0870  175.6080  143.4260 C   0  0  0  0  0  2  0  0  0  0  0  0
  189.4840  172.5710  139.6860 O   0  0  0  0  0  0  0  0  0  0  0  0
  189.1100  173.8830  139.9850 C   0  0  0  0  0  0  0  0  0  0  0  0
  188.5980  175.4500  143.3300 N   0  0  2  0  0  0  0  0  0  0  0  0
  190.9310  173.7960  141.6070 C   0  0  2  0  0  3  0  0  0  0  0  0
  188.5650  174.3800  142.3210 C   0  0  0  0  0  2  0  0  0  0  0  0
  189.6300  174.5310  141.2260 C   0  0  2  0  0  3  0  0  0  0  0  0
  190.6960  172.4100  141.6830 O   0  0  0  0  0  0  0  0  0  0  0  0
  187.1150  176.9820  142.0870 C   0  0  0  0  0  0  0  0  0  0  0  0
  188.6330  177.8990  143.8000 C   0  0  0  0  0  2  0  0  0  0  0  0
  187.4560  177.9150  144.7800 C   0  0  0  0  0  2  0  0  0  0  0  0
  186.1240  179.4400  143.5070 F   0  0  0  0  0  0  0  0  0  0  0  0
  185.8930  177.1280  142.9470 C   0  0  2  0  0  3  0  0  0  0  0  0
  186.1340  178.1650  144.0470 C   0  0  1  0  0  3  0  0  0  0  0  0
  188.4640  176.7990  142.7370 C   0  0  1  0  0  3  0  0  0  0  0  0
  185.5690  175.9080  143.5150 F   0  0  0  0  0  0  0  0  0  0  0  0
  187.0270  177.1660  140.7730 C   0  0  0  0  0  2  0  0  0  0  0  0
  193.2250  174.4330  142.6470 C   0  0  0  0  0  0  0  0  0  0  0  0
  193.8010  173.0620  142.2810 C   0  0  0  0  0  1  0  0  0  0  0  0
  193.5520  175.3120  141.4400 C   0  0  0  0  0  1  0  0  0  0  0  0
  193.6900  175.1110  146.3210 C   0  0  0  0  0  3  0  0  0  0  0  0
  193.9440  174.2330  145.1200 C   0  0  0  0  0  0  0  0  0  0  0  0
  193.9280  175.0000  143.8340 N   0  0  0  0  0  0  0  0  0  0  0  0
  193.0640  172.9900  145.1870 C   0  0  0  0  0  2  0  0  0  0  0  0
  195.2300  175.6170  143.5100 C   0  0  0  0  0  2  0  0  0  0  0  0
  194.6350  177.2450  145.3390 C   0  0  0  0  0  2  0  0  0  0  0  0
  194.2940  172.1250  145.3900 C   0  0  0  0  0  2  0  0  0  0  0  0
  195.7620  176.5050  144.6380 C   0  0  0  0  0  2  0  0  0  0  0  0
  195.1750  173.3570  145.3160 C   0  0  0  0  0  2  0  0  0  0  0  0
  194.0190  176.4100  146.4280 C   0  0  0  0  0  3  0  0  0  0  0  0
  190.4020  170.4510  140.3260 C   0  0  0  0  0  2  0  0  0  0  0  0
  190.8160  168.3320  141.5320 C   0  0  0  0  0  1  0  0  0  0  0  0
  190.8290  169.8400  141.6460 C   0  0  0  0  0  2  0  0  0  0  0  0
  1 35  1  1  0  0  0
  1 12  1  0  0  0  0
  3 22  1  6  0  0  0
  3  5  1  0  0  0  0
  4  7  2  0  0  0  0
  5  2  1  0  0  0  0
  6  7  1  0  0  0  0
  6  1  1  0  0  0  0
  7 11  1  0  0  0  0
  8 10  1  6  0  0  0
  8  2  1  0  0  0  0
  9 12  1  1  0  0  0
  9  3  1  0  0  0  0
 11  9  1  0  0  0  0
 11 10  1  1  0  0  0
 13 19  1  0  0  0  0
 13 17  1  0  0  0  0
 14 15  1  0  0  0  0
 17 20  1  1  0  0  0
 17 18  1  0  0  0  0
 18 16  1  6  0  0  0
 18 15  1  0  0  0  0
 19  8  1  0  0  0  0
 19 14  1  1  0  0  0
 21 13  2  0  0  0  0
 22 27  1  0  0  0  0
 23 22  1  0  0  0  0
 24 22  1  0  0  0  0
 25 34  2  0  0  0  0
 26 28  1  0  0  0  0
 26 33  1  0  0  0  0
 26 25  1  0  0  0  0
 27 26  1  0  0  0  0
 28 31  1  0  0  0  0
 29 27  1  0  0  0  0
 29 32  1  0  0  0  0
 30 34  1  0  0  0  0
 32 30  1  0  0  0  0
 33 31  1  0  0  0  0
 35 37  1  0  0  0  0
 36 37  1  0  0  0  0
M  END
>  <MODEL>
6

>  <REMARK>
 VINA RESULT:      -7.8      2.401      5.060
  Name = 
  5 active torsions:
  status: ('A' for Active; 'I' for Inactive)
    1  A    between atoms: C_1  and  C_5
    2  A    between atoms: C_4  and  C_10
    3  A    between atoms: C_4  and  N_13
    4  A    between atoms: C_5  and  C_23
    5  A    between atoms: N_27  and  C_31
                            x       y       z     vdW  Elec       q    Type
                         _______ _______ _______ _____ _____    ______ ____

>  <TORSDO>
F 5

$$$$
=
 OpenBabel11052420033D

 37 41  0  0  1  0  0  0  0  0999 V2000
  191.8270  175.8260  146.5210 C   0  0  1  0  0  3  0  0  0  0  0  0
  188.9540  177.6220  142.6330 C   0  0  0  0  0  2  0  0  0  0  0  0
  190.7350  175.9050  143.0790 C   0  0  1  0  0  3  0  0  0  0  0  0
  188.3520  175.6300  147.4210 O   0  0  0  0  0  0  0  0  0  0  0  0
  189.3860  176.1780  142.4020 C   0  0  0  0  0  2  0  0  0  0  0  0
  190.6370  175.8680  147.3140 O   0  0  0  0  0  0  0  0  0  0  0  0
  189.3770  175.8150  146.7150 C   0  0  0  0  0  0  0  0  0  0  0  0
  188.0970  177.7810  143.8160 N   0  0  2  0  0  0  0  0  0  0  0  0
  190.6220  175.7500  144.6180 C   0  0  2  0  0  3  0  0  0  0  0  0
  188.8670  177.5340  145.0450 C   0  0  0  0  0  2  0  0  0  0  0  0
  189.2500  176.0620  145.2470 C   0  0  2  0  0  3  0  0  0  0  0  0
  191.6310  176.4730  145.2820 O   0  0  0  0  0  0  0  0  0  0  0  0
  185.8110  177.4750  144.6920 C   0  0  0  0  0  0  0  0  0  0  0  0
  186.2690  176.9820  142.3210 C   0  0  0  0  0  2  0  0  0  0  0  0
  185.7060  178.3610  141.9640 C   0  0  0  0  0  2  0  0  0  0  0  0
  183.5110  177.9340  142.8110 F   0  0  0  0  0  0  0  0  0  0  0  0
  185.1010  178.7630  144.3920 C   0  0  2  0  0  3  0  0  0  0  0  0
  184.6030  178.7740  142.9440 C   0  0  1  0  0  3  0  0  0  0  0  0
  186.8640  176.9670  143.7400 C   0  0  1  0  0  3  0  0  0  0  0  0
  185.9540  179.8320  144.6030 F   0  0  0  0  0  0  0  0  0  0  0  0
  185.4060  176.7160  145.7070 C   0  0  0  0  0  2  0  0  0  0  0  0
  191.4920  174.7200  142.3970 C   0  0  0  0  0  0  0  0  0  0  0  0
  192.7360  175.2510  141.6780 C   0  0  0  0  0  1  0  0  0  0  0  0
  192.0460  173.7430  143.4340 C   0  0  0  0  0  1  0  0  0  0  0  0
  190.4350  173.4600  139.0110 C   0  0  0  0  0  3  0  0  0  0  0  0
  191.2450  173.2740  140.2710 C   0  0  0  0  0  0  0  0  0  0  0  0
  190.6280  173.9520  141.4550 N   0  0  0  0  0  0  0  0  0  0  0  0
  192.7140  173.5780  139.9960 C   0  0  0  0  0  2  0  0  0  0  0  0
  189.6080  173.1250  142.1300 C   0  0  0  0  0  2  0  0  0  0  0  0
  188.1790  173.6960  140.1350 C   0  0  0  0  0  2  0  0  0  0  0  0
  193.0610  172.1180  140.2160 C   0  0  0  0  0  2  0  0  0  0  0  0
  188.5110  172.6420  141.1780 C   0  0  0  0  0  2  0  0  0  0  0  0
  191.6030  171.8110  140.4980 C   0  0  0  0  0  2  0  0  0  0  0  0
  189.1010  173.6100  138.9490 C   0  0  0  0  0  3  0  0  0  0  0  0
  192.9510  176.4960  147.2890 C   0  0  0  0  0  2  0  0  0  0  0  0
  194.7970  175.3260  146.1300 C   0  0  0  0  0  1  0  0  0  0  0  0
  194.1660  176.6750  146.4010 C   0  0  0  0  0  2  0  0  0  0  0  0
  1 35  1  1  0  0  0
  1  6  1  0  0  0  0
  3 22  1  6  0  0  0
  3  9  1  0  0  0  0
  5  2  1  0  0  0  0
  5  3  1  0  0  0  0
  7  6  1  0  0  0  0
  7  4  2  0  0  0  0
  8  2  1  6  0  0  0
  8 10  1  0  0  0  0
  9 11  1  0  0  0  0
  9 12  1  1  0  0  0
 11 10  1  1  0  0  0
 11  7  1  0  0  0  0
 12  1  1  0  0  0  0
 13 21  2  0  0  0  0
 15 14  1  0  0  0  0
 15 18  1  0  0  0  0
 17 20  1  6  0  0  0
 17 13  1  0  0  0  0
 18 16  1  1  0  0  0
 18 17  1  0  0  0  0
 19 14  1  6  0  0  0
 19  8  1  0  0  0  0
 19 13  1  0  0  0  0
 22 24  1  0  0  0  0
 23 22  1  0  0  0  0
 25 26  1  0  0  0  0
 26 33  1  0  0  0  0
 26 27  1  0  0  0  0
 27 29  1  0  0  0  0
 27 22  1  0  0  0  0
 28 31  1  0  0  0  0
 28 26  1  0  0  0  0
 30 32  1  0  0  0  0
 31 33  1  0  0  0  0
 32 29  1  0  0  0  0
 34 25  2  0  0  0  0
 34 30  1  0  0  0  0
 36 37  1  0  0  0  0
 37 35  1  0  0  0  0
M  END
>  <MODEL>
7

>  <REMARK>
 VINA RESULT:      -7.8      1.219      2.601
  Name = 
  5 active torsions:
  status: ('A' for Active; 'I' for Inactive)
    1  A    between atoms: C_1  and  C_5
    2  A    between atoms: C_4  and  C_10
    3  A    between atoms: C_4  and  N_13
    4  A    between atoms: C_5  and  C_23
    5  A    between atoms: N_27  and  C_31
                            x       y       z     vdW  Elec       q    Type
                         _______ _______ _______ _____ _____    ______ ____

>  <TORSDO>
F 5

$$$$
=
 OpenBabel11052420033D

 37 41  0  0  1  0  0  0  0  0999 V2000
  191.7910  175.8940  146.5300 C   0  0  1  0  0  3  0  0  0  0  0  0
  188.9900  177.3810  142.4630 C   0  0  0  0  0  2  0  0  0  0  0  0
  190.7180  175.6670  143.0880 C   0  0  1  0  0  3  0  0  0  0  0  0
  188.3080  175.8860  147.4190 O   0  0  0  0  0  0  0  0  0  0  0  0
  189.3810  175.9100  142.3780 C   0  0  0  0  0  2  0  0  0  0  0  0
  190.6000  176.0470  147.3060 O   0  0  0  0  0  0  0  0  0  0  0  0
  189.3410  175.9720  146.7050 C   0  0  0  0  0  0  0  0  0  0  0  0
  188.1320  177.6800  143.6180 N   0  0  2  0  0  0  0  0  0  0  0  0
  190.5940  175.6660  144.6340 C   0  0  2  0  0  3  0  0  0  0  0  0
  188.8890  177.5320  144.8710 C   0  0  0  0  0  2  0  0  0  0  0  0
  189.2290  176.0770  145.2200 C   0  0  2  0  0  3  0  0  0  0  0  0
  191.6210  176.4220  145.2320 O   0  0  0  0  0  0  0  0  0  0  0  0
  185.8660  177.4750  144.5730 C   0  0  0  0  0  0  0  0  0  0  0  0
  186.2400  176.8680  142.2130 C   0  0  0  0  0  2  0  0  0  0  0  0
  185.7030  178.2460  141.8130 C   0  0  0  0  0  2  0  0  0  0  0  0
  183.5240  177.9160  142.7400 F   0  0  0  0  0  0  0  0  0  0  0  0
  185.1810  178.7680  144.2370 C   0  0  2  0  0  3  0  0  0  0  0  0
  184.6410  178.7310  142.8040 C   0  0  1  0  0  3  0  0  0  0  0  0
  186.8770  176.8980  143.6130 C   0  0  1  0  0  3  0  0  0  0  0  0
  186.0690  179.8210  144.3760 F   0  0  0  0  0  0  0  0  0  0  0  0
  185.4720  176.7710  145.6300 C   0  0  0  0  0  2  0  0  0  0  0  0
  191.4440  174.4000  142.5310 C   0  0  0  0  0  0  0  0  0  0  0  0
  191.2890  173.2420  143.5210 C   0  0  0  0  0  1  0  0  0  0  0  0
  190.7760  173.8930  141.2530 C   0  0  0  0  0  1  0  0  0  0  0  0
  195.0520  174.9920  143.4290 C   0  0  0  0  0  3  0  0  0  0  0  0
  193.9370  174.0300  143.0980 C   0  0  0  0  0  0  0  0  0  0  0  0
  192.8850  174.6470  142.2310 N   0  0  0  0  0  0  0  0  0  0  0  0
  193.4570  173.3310  144.3650 C   0  0  0  0  0  2  0  0  0  0  0  0
  193.2070  174.5830  140.7920 C   0  0  0  0  0  2  0  0  0  0  0  0
  194.8660  176.4010  141.3340 C   0  0  0  0  0  2  0  0  0  0  0  0
  194.0040  172.0120  143.8500 C   0  0  0  0  0  2  0  0  0  0  0  0
  194.5730  175.1910  140.4620 C   0  0  0  0  0  2  0  0  0  0  0  0
  194.4760  172.7000  142.5840 C   0  0  0  0  0  2  0  0  0  0  0  0
  195.4770  176.0000  142.6490 C   0  0  0  0  0  3  0  0  0  0  0  0
  192.9310  176.6040  147.2360 C   0  0  0  0  0  2  0  0  0  0  0  0
  194.7590  177.6540  145.9420 C   0  0  0  0  0  1  0  0  0  0  0  0
  194.2410  176.3530  146.5150 C   0  0  0  0  0  2  0  0  0  0  0  0
  1 35  1  1  0  0  0
  1  6  1  0  0  0  0
  3 22  1  6  0  0  0
  3  9  1  0  0  0  0
  5  2  1  0  0  0  0
  5  3  1  0  0  0  0
  7  6  1  0  0  0  0
  7  4  2  0  0  0  0
  8  2  1  6  0  0  0
  8 10  1  0  0  0  0
  9 11  1  0  0  0  0
  9 12  1  1  0  0  0
 11 10  1  1  0  0  0
 11  7  1  0  0  0  0
 12  1  1  0  0  0  0
 13 21  2  0  0  0  0
 15 14  1  0  0  0  0
 15 18  1  0  0  0  0
 17 20  1  6  0  0  0
 17 13  1  0  0  0  0
 18 16  1  1  0  0  0
 18 17  1  0  0  0  0
 19 14  1  6  0  0  0
 19  8  1  0  0  0  0
 19 13  1  0  0  0  0
 22 23  1  0  0  0  0
 24 22  1  0  0  0  0
 26 25  1  0  0  0  0
 26 28  1  0  0  0  0
 27 22  1  0  0  0  0
 27 26  1  0  0  0  0
 29 27  1  0  0  0  0
 30 34  1  0  0  0  0
 31 28  1  0  0  0  0
 32 29  1  0  0  0  0
 32 30  1  0  0  0  0
 33 26  1  0  0  0  0
 33 31  1  0  0  0  0
 34 25  2  0  0  0  0
 36 37  1  0  0  0  0
 37 35  1  0  0  0  0
M  END
>  <MODEL>
8

>  <REMARK>
 VINA RESULT:      -7.7      1.432      2.111
  Name = 
  5 active torsions:
  status: ('A' for Active; 'I' for Inactive)
    1  A    between atoms: C_1  and  C_5
    2  A    between atoms: C_4  and  C_10
    3  A    between atoms: C_4  and  N_13
    4  A    between atoms: C_5  and  C_23
    5  A    between atoms: N_27  and  C_31
                            x       y       z     vdW  Elec       q    Type
                         _______ _______ _______ _____ _____    ______ ____

>  <TORSDO>
F 5

$$$$
=
 OpenBabel11052420033D

 37 41  0  0  1  0  0  0  0  0999 V2000
  191.4500  175.7380  146.8680 C   0  0  1  0  0  3  0  0  0  0  0  0
  188.9430  176.3430  142.4020 C   0  0  0  0  0  2  0  0  0  0  0  0
  190.3300  174.6340  143.6160 C   0  0  1  0  0  3  0  0  0  0  0  0
  188.0320  176.6280  147.5350 O   0  0  0  0  0  0  0  0  0  0  0  0
  189.0560  174.8750  142.7980 C   0  0  0  0  0  2  0  0  0  0  0  0
  190.3130  176.3360  147.4960 O   0  0  0  0  0  0  0  0  0  0  0  0
  189.0580  176.3000  146.8840 C   0  0  0  0  0  0  0  0  0  0  0  0
  188.1630  177.1370  143.3620 N   0  0  2  0  0  0  0  0  0  0  0  0
  190.2180  175.1420  145.0770 C   0  0  2  0  0  3  0  0  0  0  0  0
  188.8890  177.2590  144.6360 C   0  0  0  0  0  2  0  0  0  0  0  0
  188.9560  175.9510  145.4350 C   0  0  2  0  0  3  0  0  0  0  0  0
  191.3710  175.8520  145.4630 O   0  0  0  0  0  0  0  0  0  0  0  0
  185.9540  177.5700  144.3710 C   0  0  0  0  0  0  0  0  0  0  0  0
  186.0800  176.4470  142.1790 C   0  0  0  0  0  2  0  0  0  0  0  0
  185.7900  177.7960  141.5140 C   0  0  0  0  0  2  0  0  0  0  0  0
  183.6400  178.0860  142.5210 F   0  0  0  0  0  0  0  0  0  0  0  0
  185.5060  178.8790  143.7870 C   0  0  2  0  0  3  0  0  0  0  0  0
  184.8920  178.6650  142.4010 C   0  0  1  0  0  3  0  0  0  0  0  0
  186.7850  176.6290  143.5350 C   0  0  1  0  0  3  0  0  0  0  0  0
  186.5810  179.7450  143.6960 F   0  0  0  0  0  0  0  0  0  0  0  0
  185.4920  177.1790  145.5550 C   0  0  0  0  0  2  0  0  0  0  0  0
  190.8050  173.1490  143.5180 C   0  0  0  0  0  0  0  0  0  0  0  0
  190.1590  172.3270  144.6360 C   0  0  0  0  0  1  0  0  0  0  0  0
  190.3080  172.4900  142.2310 C   0  0  0  0  0  1  0  0  0  0  0  0
  194.2460  172.9680  142.0010 C   0  0  0  0  0  3  0  0  0  0  0  0
  193.1290  173.7930  142.5920 C   0  0  0  0  0  0  0  0  0  0  0  0
  192.2910  173.0170  143.5580 N   0  0  0  0  0  0  0  0  0  0  0  0
  192.3880  174.5360  141.4850 C   0  0  0  0  0  2  0  0  0  0  0  0
  192.8450  173.0040  144.9270 C   0  0  0  0  0  2  0  0  0  0  0  0
  194.5300  171.3960  143.9650 C   0  0  0  0  0  2  0  0  0  0  0  0
  192.9050  175.8580  142.0200 C   0  0  0  0  0  2  0  0  0  0  0  0
  194.2910  172.5050  144.9760 C   0  0  0  0  0  2  0  0  0  0  0  0
  193.6380  175.1260  143.1280 C   0  0  0  0  0  2  0  0  0  0  0  0
  194.8760  171.9490  142.6090 C   0  0  0  0  0  3  0  0  0  0  0  0
  192.7060  176.4200  147.3770 C   0  0  0  0  0  2  0  0  0  0  0  0
  194.5660  177.3180  146.0160 C   0  0  0  0  0  1  0  0  0  0  0  0
  193.8960  176.0550  146.5120 C   0  0  0  0  0  2  0  0  0  0  0  0
  1 35  1  1  0  0  0
  1  6  1  0  0  0  0
  2  5  1  0  0  0  0
  3 22  1  1  0  0  0
  3  9  1  0  0  0  0
  5  3  1  0  0  0  0
  7  6  1  0  0  0  0
  7  4  2  0  0  0  0
  8  2  1  6  0  0  0
  8 19  1  0  0  0  0
  8 10  1  0  0  0  0
  9 11  1  0  0  0  0
  9 12  1  6  0  0  0
 11 10  1  6  0  0  0
 11  7  1  0  0  0  0
 12  1  1  0  0  0  0
 13 21  2  0  0  0  0
 15 14  1  0  0  0  0
 15 18  1  0  0  0  0
 17 20  1  6  0  0  0
 17 13  1  0  0  0  0
 18 16  1  1  0  0  0
 18 17  1  0  0  0  0
 19 14  1  6  0  0  0
 19 13  1  0  0  0  0
 22 27  1  0  0  0  0
 22 23  1  0  0  0  0
 24 22  1  0  0  0  0
 25 26  1  0  0  0  0
 25 34  2  0  0  0  0
 26 33  1  0  0  0  0
 26 27  1  0  0  0  0
 27 29  1  0  0  0  0
 28 31  1  0  0  0  0
 28 26  1  0  0  0  0
 29 32  1  0  0  0  0
 30 32  1  0  0  0  0
 31 33  1  0  0  0  0
 34 30  1  0  0  0  0
 36 37  1  0  0  0  0
 37 35  1  0  0  0  0
M  END
>  <MODEL>
9

>  <REMARK>
 VINA RESULT:      -7.6      1.380      2.155
  Name = 
  5 active torsions:
  status: ('A' for Active; 'I' for Inactive)
    1  A    between atoms: C_1  and  C_5
    2  A    between atoms: C_4  and  C_10
    3  A    between atoms: C_4  and  N_13
    4  A    between atoms: C_5  and  C_23
    5  A    between atoms: N_27  and  C_31
                            x       y       z     vdW  Elec       q    Type
                         _______ _______ _______ _____ _____    ______ ____

>  <TORSDO>
F 5

$$$$
