=
 OpenBabel11052417393D

 25 28  0  0  1  0  0  0  0  0999 V2000
  188.3330  176.5410  144.9770 C   0  0  0  0  0  0  0  0  0  0  0  0
  187.6770  177.4190  144.0730 C   0  0  0  0  0  0  0  0  0  0  0  0
  186.7500  177.1900  146.7130 C   0  0  0  0  0  3  0  0  0  0  0  0
  189.5020  175.7700  144.6040 N   0  0  0  0  0  0  0  0  0  0  0  0
  186.9400  176.8560  141.8400 N   0  0  0  0  0  0  0  0  0  0  0  0
  186.1390  178.0800  145.8360 C   0  0  0  0  0  3  0  0  0  0  0  0
  189.8200  174.5820  145.4030 C   0  0  0  0  0  2  0  0  0  0  0  0
  189.7950  174.9500  146.8770 C   0  0  0  0  0  2  0  0  0  0  0  0
  185.8890  179.1570  143.5710 C   0  0  2  0  0  3  0  0  0  0  0  0
  185.0060  180.0020  144.2480 O   0  0  0  0  0  1  0  0  0  0  0  0
  188.0320  177.4350  142.6140 C   0  0  0  0  0  2  0  0  0  0  0  0
  187.8380  176.4260  146.2980 C   0  0  0  0  0  0  0  0  0  0  0  0
  188.3940  175.4130  147.2590 C   0  0  0  0  0  2  0  0  0  0  0  0
  185.1380  178.3990  142.4830 C   0  0  0  0  0  2  0  0  0  0  0  0
  186.0940  177.9510  141.3810 C   0  0  0  0  0  2  0  0  0  0  0  0
  186.5910  178.2090  144.5180 C   0  0  0  0  0  0  0  0  0  0  0  0
  191.8950  175.9610  144.1320 C   0  0  0  0  0  2  0  0  0  0  0  0
  191.4030  177.3760  144.3350 C   0  0  0  0  0  2  0  0  0  0  0  0
  190.4970  176.3410  143.6800 C   0  0  0  0  0  3  0  0  0  0  0  0
  187.5310  176.2640  140.6520 C   0  0  0  0  0  2  0  0  0  0  0  0
  187.6410  174.3070  142.0240 O   0  0  0  0  0  1  0  0  0  0  0  0
  188.3140  175.0130  141.0240 C   0  0  1  0  0  3  0  0  0  0  0  0
  188.4980  174.1440  139.8270 C   0  0  0  0  0  0  0  0  0  0  0  0
  188.1210  174.5350  138.6900 O   0  0  0  0  0  0  0  0  0  0  0  0
  189.1050  172.8660  139.9690 N   0  0  0  0  0  1  0  0  0  0  0  0
  1 12  1  0  0  0  0
  2 16  1  0  0  0  0
  2  1  2  0  0  0  0
  4  1  1  0  0  0  0
  4  7  1  0  0  0  0
  5 11  1  0  0  0  0
  6  3  1  0  0  0  0
  7  8  1  0  0  0  0
  8 13  1  0  0  0  0
  9 10  1  1  0  0  0
  9 16  1  0  0  0  0
 11  2  1  0  0  0  0
 12  3  2  0  0  0  0
 12 13  1  0  0  0  0
 14  9  1  0  0  0  0
 15  5  1  0  0  0  0
 15 14  1  0  0  0  0
 16  6  2  0  0  0  0
 17 18  1  0  0  0  0
 19 17  1  0  0  0  0
 19 18  1  0  0  0  0
 19  4  1  0  0  0  0
 20 22  1  0  0  0  0
 20  5  1  0  0  0  0
 22 21  1  1  0  0  0
 23 25  1  0  0  0  0
 23 22  1  0  0  0  0
 24 23  2  0  0  0  0
M  END
>  <MODEL>
1

>  <REMARK>
 VINA RESULT:      -7.4      0.000      0.000
  Name = 
  4 active torsions:
  status: ('A' for Active; 'I' for Inactive)
    1  A    between atoms: C_2  and  C_25
    2  A    between atoms: N_5  and  C_22
    3  A    between atoms: N_6  and  C_15
    4  A    between atoms: C_15  and  C_25
                            x       y       z     vdW  Elec       q    Type
                         _______ _______ _______ _____ _____    ______ ____

>  <TORSDO>
F 4

$$$$
=
 OpenBabel11052417393D

 25 28  0  0  1  0  0  0  0  0999 V2000
  188.4610  176.7070  145.0120 C   0  0  0  0  0  0  0  0  0  0  0  0
  187.4860  177.7350  145.1000 C   0  0  0  0  0  0  0  0  0  0  0  0
  187.6840  175.8260  147.1480 C   0  0  0  0  0  3  0  0  0  0  0  0
  189.4010  176.6160  143.9130 N   0  0  0  0  0  0  0  0  0  0  0  0
  185.9350  178.3630  143.3540 N   0  0  0  0  0  0  0  0  0  0  0  0
  186.7600  176.8600  147.2490 C   0  0  0  0  0  3  0  0  0  0  0  0
  190.0310  175.3160  143.6590 C   0  0  0  0  0  2  0  0  0  0  0  0
  190.5860  174.7660  144.9630 C   0  0  0  0  0  2  0  0  0  0  0  0
  185.6130  178.9180  146.3510 C   0  0  2  0  0  3  0  0  0  0  0  0
  185.0550  178.9690  147.6310 O   0  0  0  0  0  1  0  0  0  0  0  0
  187.2330  178.6630  143.9460 C   0  0  0  0  0  2  0  0  0  0  0  0
  188.5330  175.7430  146.0470 C   0  0  0  0  0  0  0  0  0  0  0  0
  189.4420  174.5500  145.9480 C   0  0  0  0  0  2  0  0  0  0  0  0
  184.5070  178.7420  145.3180 C   0  0  0  0  0  2  0  0  0  0  0  0
  184.9560  179.2610  143.9550 C   0  0  0  0  0  2  0  0  0  0  0  0
  186.6500  177.8220  146.2380 C   0  0  0  0  0  0  0  0  0  0  0  0
  191.3880  177.6270  142.9070 C   0  0  0  0  0  2  0  0  0  0  0  0
  191.0590  178.4800  144.1110 C   0  0  0  0  0  2  0  0  0  0  0  0
  189.9380  177.8430  143.3000 C   0  0  0  0  0  3  0  0  0  0  0  0
  186.0180  178.7220  141.9480 C   0  0  0  0  0  2  0  0  0  0  0  0
  184.4630  178.0500  140.2590 O   0  0  0  0  0  1  0  0  0  0  0  0
  185.4880  177.5860  141.0850 C   0  0  1  0  0  3  0  0  0  0  0  0
  186.5870  177.0130  140.2560 C   0  0  0  0  0  0  0  0  0  0  0  0
  186.5670  177.1280  139.0010 O   0  0  0  0  0  0  0  0  0  0  0  0
  187.6660  176.3350  140.8850 N   0  0  0  0  0  1  0  0  0  0  0  0
  1  2  2  0  0  0  0
  1 12  1  0  0  0  0
  2 16  1  0  0  0  0
  3  6  1  0  0  0  0
  4  1  1  0  0  0  0
  5 11  1  0  0  0  0
  5 15  1  0  0  0  0
  7  4  1  0  0  0  0
  7  8  1  0  0  0  0
  8 13  1  0  0  0  0
  9 10  1  1  0  0  0
 11  2  1  0  0  0  0
 12  3  2  0  0  0  0
 13 12  1  0  0  0  0
 14  9  1  0  0  0  0
 15 14  1  0  0  0  0
 16  9  1  0  0  0  0
 16  6  2  0  0  0  0
 17 19  1  0  0  0  0
 17 18  1  0  0  0  0
 19  4  1  0  0  0  0
 19 18  1  0  0  0  0
 20  5  1  0  0  0  0
 22 21  1  6  0  0  0
 22 20  1  0  0  0  0
 23 25  1  0  0  0  0
 23 22  1  0  0  0  0
 24 23  2  0  0  0  0
M  END
>  <MODEL>
2

>  <REMARK>
 VINA RESULT:      -7.1      1.986      2.605
  Name = 
  4 active torsions:
  status: ('A' for Active; 'I' for Inactive)
    1  A    between atoms: C_2  and  C_25
    2  A    between atoms: N_5  and  C_22
    3  A    between atoms: N_6  and  C_15
    4  A    between atoms: C_15  and  C_25
                            x       y       z     vdW  Elec       q    Type
                         _______ _______ _______ _____ _____    ______ ____

>  <TORSDO>
F 4

$$$$
=
 OpenBabel11052417393D

 25 28  0  0  1  0  0  0  0  0999 V2000
  186.3300  177.3350  142.9640 C   0  0  0  0  0  0  0  0  0  0  0  0
  186.2180  177.2650  144.3780 C   0  0  0  0  0  0  0  0  0  0  0  0
  184.2360  178.5790  142.8860 C   0  0  0  0  0  3  0  0  0  0  0  0
  187.4210  176.7160  142.2380 N   0  0  0  0  0  0  0  0  0  0  0  0
  187.9590  177.8220  145.9620 N   0  0  0  0  0  0  0  0  0  0  0  0
  184.1090  178.4700  144.2670 C   0  0  0  0  0  3  0  0  0  0  0  0
  187.7130  177.2150  140.8900 C   0  0  0  0  0  2  0  0  0  0  0  0
  186.4230  177.2740  140.0880 C   0  0  0  0  0  2  0  0  0  0  0  0
  184.9470  177.7410  146.5300 C   0  0  2  0  0  3  0  0  0  0  0  0
  183.6730  178.1310  146.9490 O   0  0  0  0  0  1  0  0  0  0  0  0
  187.3410  176.7300  145.2190 C   0  0  0  0  0  2  0  0  0  0  0  0
  185.3290  178.0180  142.2310 C   0  0  0  0  0  0  0  0  0  0  0  0
  185.4600  178.2510  140.7520 C   0  0  0  0  0  2  0  0  0  0  0  0
  185.9980  178.5970  147.2270 C   0  0  0  0  0  2  0  0  0  0  0  0
  187.3380  177.8660  147.2810 C   0  0  0  0  0  2  0  0  0  0  0  0
  185.0860  177.8160  145.0250 C   0  0  0  0  0  0  0  0  0  0  0  0
  188.8560  174.8350  141.6170 C   0  0  0  0  0  2  0  0  0  0  0  0
  187.4970  174.2370  141.9030 C   0  0  0  0  0  2  0  0  0  0  0  0
  187.9850  175.4380  142.7030 C   0  0  0  0  0  3  0  0  0  0  0  0
  189.3490  177.4580  146.1710 C   0  0  0  0  0  2  0  0  0  0  0  0
  190.6350  175.8350  144.9730 O   0  0  0  0  0  1  0  0  0  0  0  0
  189.5600  175.9860  145.8520 C   0  0  1  0  0  3  0  0  0  0  0  0
  189.8180  175.2180  147.1040 C   0  0  0  0  0  0  0  0  0  0  0  0
  188.9120  174.5110  147.6190 O   0  0  0  0  0  0  0  0  0  0  0  0
  191.0980  175.2830  147.7200 N   0  0  0  0  0  1  0  0  0  0  0  0
  1  2  1  0  0  0  0
  2 16  2  0  0  0  0
  2 11  1  0  0  0  0
  3  6  2  0  0  0  0
  4 19  1  0  0  0  0
  4  1  1  0  0  0  0
  5 20  1  0  0  0  0
  5 15  1  0  0  0  0
  6 16  1  0  0  0  0
  7  4  1  0  0  0  0
  8 13  1  0  0  0  0
  8  7  1  0  0  0  0
  9 10  1  6  0  0  0
  9 14  1  0  0  0  0
 11  5  1  0  0  0  0
 12  3  1  0  0  0  0
 12  1  2  0  0  0  0
 13 12  1  0  0  0  0
 14 15  1  0  0  0  0
 16  9  1  0  0  0  0
 17 18  1  0  0  0  0
 17 19  1  0  0  0  0
 18 19  1  0  0  0  0
 22 21  1  6  0  0  0
 22 20  1  0  0  0  0
 22 23  1  0  0  0  0
 23 24  2  0  0  0  0
 23 25  1  0  0  0  0
M  END
>  <MODEL>
3

>  <REMARK>
 VINA RESULT:      -6.9      2.525      5.241
  Name = 
  4 active torsions:
  status: ('A' for Active; 'I' for Inactive)
    1  A    between atoms: C_2  and  C_25
    2  A    between atoms: N_5  and  C_22
    3  A    between atoms: N_6  and  C_15
    4  A    between atoms: C_15  and  C_25
                            x       y       z     vdW  Elec       q    Type
                         _______ _______ _______ _____ _____    ______ ____

>  <TORSDO>
F 4

$$$$
=
 OpenBabel11052417393D

 25 28  0  0  1  0  0  0  0  0999 V2000
  188.6390  176.3620  145.1010 C   0  0  0  0  0  0  0  0  0  0  0  0
  187.7700  177.1210  144.2720 C   0  0  0  0  0  0  0  0  0  0  0  0
  186.9960  176.4960  146.8970 C   0  0  0  0  0  3  0  0  0  0  0  0
  189.9460  175.9180  144.6600 N   0  0  0  0  0  0  0  0  0  0  0  0
  187.1250  176.5550  142.0110 N   0  0  0  0  0  0  0  0  0  0  0  0
  186.1690  177.2750  146.0950 C   0  0  0  0  0  3  0  0  0  0  0  0
  190.5560  174.7860  145.3660 C   0  0  0  0  0  2  0  0  0  0  0  0
  190.4860  175.0350  146.8640 C   0  0  0  0  0  2  0  0  0  0  0  0
  185.6100  178.4170  143.9180 C   0  0  2  0  0  3  0  0  0  0  0  0
  184.5720  178.9790  144.6650 O   0  0  0  0  0  1  0  0  0  0  0  0
  188.0710  177.3210  142.8150 C   0  0  0  0  0  2  0  0  0  0  0  0
  188.2220  176.0420  146.4160 C   0  0  0  0  0  0  0  0  0  0  0  0
  189.0260  175.1250  147.2940 C   0  0  0  0  0  2  0  0  0  0  0  0
  185.0280  177.5790  142.7860 C   0  0  0  0  0  2  0  0  0  0  0  0
  186.0320  177.4480  141.6430 C   0  0  0  0  0  2  0  0  0  0  0  0
  186.5410  177.5990  144.7860 C   0  0  0  0  0  0  0  0  0  0  0  0
  192.2040  176.3300  143.8150 C   0  0  0  0  0  2  0  0  0  0  0  0
  191.7880  177.6050  144.5140 C   0  0  0  0  0  2  0  0  0  0  0  0
  190.7530  176.7710  143.7710 C   0  0  0  0  0  3  0  0  0  0  0  0
  187.8060  176.2030  140.7770 C   0  0  0  0  0  2  0  0  0  0  0  0
  188.2520  174.3430  139.3400 O   0  0  0  0  0  1  0  0  0  0  0  0
  187.9100  174.6910  140.6490 C   0  0  1  0  0  3  0  0  0  0  0  0
  188.9330  174.1620  141.5970 C   0  0  0  0  0  0  0  0  0  0  0  0
  188.5810  173.6030  142.6700 O   0  0  0  0  0  0  0  0  0  0  0  0
  190.3140  174.2880  141.2860 N   0  0  0  0  0  1  0  0  0  0  0  0
  1 12  1  0  0  0  0
  2 16  1  0  0  0  0
  2  1  2  0  0  0  0
  4  1  1  0  0  0  0
  4  7  1  0  0  0  0
  5 11  1  0  0  0  0
  6  3  1  0  0  0  0
  7  8  1  0  0  0  0
  8 13  1  0  0  0  0
  9 10  1  1  0  0  0
  9 16  1  0  0  0  0
 11  2  1  0  0  0  0
 12  3  2  0  0  0  0
 12 13  1  0  0  0  0
 14  9  1  0  0  0  0
 15  5  1  0  0  0  0
 15 14  1  0  0  0  0
 16  6  2  0  0  0  0
 17 18  1  0  0  0  0
 19 17  1  0  0  0  0
 19 18  1  0  0  0  0
 19  4  1  0  0  0  0
 20  5  1  0  0  0  0
 22 21  1  6  0  0  0
 22 20  1  0  0  0  0
 22 23  1  0  0  0  0
 23 24  2  0  0  0  0
 25 23  1  0  0  0  0
M  END
>  <MODEL>
4

>  <REMARK>
 VINA RESULT:      -6.8      0.844      1.295
  Name = 
  4 active torsions:
  status: ('A' for Active; 'I' for Inactive)
    1  A    between atoms: C_2  and  C_25
    2  A    between atoms: N_5  and  C_22
    3  A    between atoms: N_6  and  C_15
    4  A    between atoms: C_15  and  C_25
                            x       y       z     vdW  Elec       q    Type
                         _______ _______ _______ _____ _____    ______ ____

>  <TORSDO>
F 4

$$$$
=
 OpenBabel11052417393D

 25 28  0  0  1  0  0  0  0  0999 V2000
  186.5870  177.1950  143.0130 C   0  0  0  0  0  0  0  0  0  0  0  0
  186.5100  177.0890  144.4280 C   0  0  0  0  0  0  0  0  0  0  0  0
  184.5350  178.5110  143.0290 C   0  0  0  0  0  3  0  0  0  0  0  0
  187.6360  176.5630  142.2400 N   0  0  0  0  0  0  0  0  0  0  0  0
  188.3110  177.5410  145.9780 N   0  0  0  0  0  0  0  0  0  0  0  0
  184.4410  178.3660  144.4090 C   0  0  0  0  0  3  0  0  0  0  0  0
  187.9090  177.0900  140.8990 C   0  0  0  0  0  2  0  0  0  0  0  0
  186.6000  177.2160  140.1360 C   0  0  0  0  0  2  0  0  0  0  0  0
  185.3150  177.5430  146.6270 C   0  0  2  0  0  3  0  0  0  0  0  0
  184.0670  177.9640  147.0920 O   0  0  0  0  0  1  0  0  0  0  0  0
  187.6370  176.4920  145.2210 C   0  0  0  0  0  2  0  0  0  0  0  0
  185.5900  177.9320  142.3290 C   0  0  0  0  0  0  0  0  0  0  0  0
  185.6890  178.2040  140.8540 C   0  0  0  0  0  2  0  0  0  0  0  0
  186.4130  178.3430  147.3180 C   0  0  0  0  0  2  0  0  0  0  0  0
  187.7280  177.5670  147.3140 C   0  0  0  0  0  2  0  0  0  0  0  0
  185.4160  177.6570  145.1210 C   0  0  0  0  0  0  0  0  0  0  0  0
  188.7680  174.5410  141.4550 C   0  0  0  0  0  2  0  0  0  0  0  0
  187.4410  174.0780  142.0130 C   0  0  0  0  0  2  0  0  0  0  0  0
  188.1690  175.2530  142.6530 C   0  0  0  0  0  3  0  0  0  0  0  0
  189.6940  177.1250  146.1380 C   0  0  0  0  0  2  0  0  0  0  0  0
  190.2810  178.3020  144.1390 O   0  0  0  0  0  1  0  0  0  0  0  0
  190.3830  177.0660  144.7830 C   0  0  1  0  0  3  0  0  0  0  0  0
  191.8190  176.7000  144.9500 C   0  0  0  0  0  0  0  0  0  0  0  0
  192.5850  176.6450  143.9510 O   0  0  0  0  0  0  0  0  0  0  0  0
  192.3280  176.4150  146.2470 N   0  0  0  0  0  1  0  0  0  0  0  0
  1  2  1  0  0  0  0
  2 16  2  0  0  0  0
  2 11  1  0  0  0  0
  3  6  2  0  0  0  0
  4 19  1  0  0  0  0
  4  1  1  0  0  0  0
  5 20  1  0  0  0  0
  5 15  1  0  0  0  0
  6 16  1  0  0  0  0
  7  4  1  0  0  0  0
  8 13  1  0  0  0  0
  8  7  1  0  0  0  0
  9 10  1  1  0  0  0
  9 14  1  0  0  0  0
 11  5  1  0  0  0  0
 12  1  2  0  0  0  0
 12  3  1  0  0  0  0
 13 12  1  0  0  0  0
 15 14  1  0  0  0  0
 16  9  1  0  0  0  0
 17 18  1  0  0  0  0
 17 19  1  0  0  0  0
 18 19  1  0  0  0  0
 22 21  1  1  0  0  0
 22 23  1  0  0  0  0
 22 20  1  0  0  0  0
 23 25  1  0  0  0  0
 24 23  2  0  0  0  0
M  END
>  <MODEL>
5

>  <REMARK>
 VINA RESULT:      -6.6      2.497      5.037
  Name = 
  4 active torsions:
  status: ('A' for Active; 'I' for Inactive)
    1  A    between atoms: C_2  and  C_25
    2  A    between atoms: N_5  and  C_22
    3  A    between atoms: N_6  and  C_15
    4  A    between atoms: C_15  and  C_25
                            x       y       z     vdW  Elec       q    Type
                         _______ _______ _______ _____ _____    ______ ____

>  <TORSDO>
F 4

$$$$
=
 OpenBabel11052417393D

 25 28  0  0  1  0  0  0  0  0999 V2000
  187.5100  177.4190  144.4710 C   0  0  0  0  0  0  0  0  0  0  0  0
  188.4450  176.5330  145.0700 C   0  0  0  0  0  0  0  0  0  0  0  0
  186.1530  177.3090  146.4930 C   0  0  0  0  0  3  0  0  0  0  0  0
  187.6680  177.9230  143.1220 N   0  0  0  0  0  0  0  0  0  0  0  0
  190.8380  176.8630  145.1740 N   0  0  0  0  0  0  0  0  0  0  0  0
  187.0480  176.4080  147.0570 C   0  0  0  0  0  3  0  0  0  0  0  0
  186.9510  179.1510  142.7630 C   0  0  0  0  0  2  0  0  0  0  0  0
  185.4960  179.0200  143.1820 C   0  0  0  0  0  2  0  0  0  0  0  0
  189.1750  175.0540  147.0070 C   0  0  2  0  0  3  0  0  0  0  0  0
  188.6460  174.4780  148.1650 O   0  0  0  0  0  1  0  0  0  0  0  0
  189.7620  176.2380  144.4140 C   0  0  0  0  0  2  0  0  0  0  0  0
  186.3700  177.8130  145.2130 C   0  0  0  0  0  0  0  0  0  0  0  0
  185.4190  178.8560  144.6960 C   0  0  0  0  0  2  0  0  0  0  0  0
  190.4890  175.7510  147.3390 C   0  0  0  0  0  2  0  0  0  0  0  0
  191.3670  175.8640  146.0950 C   0  0  0  0  0  2  0  0  0  0  0  0
  188.1940  176.0070  146.3600 C   0  0  0  0  0  0  0  0  0  0  0  0
  187.4410  177.1810  140.8020 C   0  0  0  0  0  2  0  0  0  0  0  0
  187.3320  175.9300  141.6450 C   0  0  0  0  0  2  0  0  0  0  0  0
  188.2530  177.0630  142.0790 C   0  0  0  0  0  3  0  0  0  0  0  0
  191.9030  177.1630  144.2330 C   0  0  0  0  0  2  0  0  0  0  0  0
  193.0760  175.4170  143.0940 O   0  0  0  0  0  1  0  0  0  0  0  0
  192.9870  176.0980  144.3100 C   0  0  1  0  0  3  0  0  0  0  0  0
  194.3010  176.7230  144.6380 C   0  0  0  0  0  0  0  0  0  0  0  0
  194.3980  177.5460  145.5870 O   0  0  0  0  0  0  0  0  0  0  0  0
  195.4530  176.3830  143.8770 N   0  0  0  0  0  1  0  0  0  0  0  0
  1  2  2  0  0  0  0
  1 12  1  0  0  0  0
  2 16  1  0  0  0  0
  3  6  1  0  0  0  0
  4  1  1  0  0  0  0
  5 15  1  0  0  0  0
  7  4  1  0  0  0  0
  7  8  1  0  0  0  0
  8 13  1  0  0  0  0
  9 14  1  0  0  0  0
  9 10  1  1  0  0  0
 11  2  1  0  0  0  0
 11  5  1  0  0  0  0
 12  3  2  0  0  0  0
 13 12  1  0  0  0  0
 15 14  1  0  0  0  0
 16  9  1  0  0  0  0
 16  6  2  0  0  0  0
 17 18  1  0  0  0  0
 17 19  1  0  0  0  0
 18 19  1  0  0  0  0
 19  4  1  0  0  0  0
 20 22  1  0  0  0  0
 20  5  1  0  0  0  0
 22 21  1  6  0  0  0
 22 23  1  0  0  0  0
 23 24  2  0  0  0  0
 25 23  1  0  0  0  0
M  END
>  <MODEL>
6

>  <REMARK>
 VINA RESULT:      -6.6      2.869      5.609
  Name = 
  4 active torsions:
  status: ('A' for Active; 'I' for Inactive)
    1  A    between atoms: C_2  and  C_25
    2  A    between atoms: N_5  and  C_22
    3  A    between atoms: N_6  and  C_15
    4  A    between atoms: C_15  and  C_25
                            x       y       z     vdW  Elec       q    Type
                         _______ _______ _______ _____ _____    ______ ____

>  <TORSDO>
F 4

$$$$
=
 OpenBabel11052417393D

 25 28  0  0  1  0  0  0  0  0999 V2000
  189.8800  176.1310  145.1460 C   0  0  0  0  0  0  0  0  0  0  0  0
  188.9970  176.6820  144.1800 C   0  0  0  0  0  0  0  0  0  0  0  0
  188.4330  176.9810  146.9140 C   0  0  0  0  0  3  0  0  0  0  0  0
  191.1010  175.4400  144.7820 N   0  0  0  0  0  0  0  0  0  0  0  0
  188.0950  175.5160  142.2630 N   0  0  0  0  0  0  0  0  0  0  0  0
  187.5960  177.5560  145.9650 C   0  0  0  0  0  3  0  0  0  0  0  0
  191.6870  174.5250  145.7660 C   0  0  0  0  0  2  0  0  0  0  0  0
  191.7810  175.2290  147.1100 C   0  0  0  0  0  2  0  0  0  0  0  0
  186.9190  178.0210  143.5810 C   0  0  2  0  0  3  0  0  0  0  0  0
  186.0040  178.8900  144.1800 O   0  0  0  0  0  1  0  0  0  0  0  0
  189.1700  176.3900  142.7170 C   0  0  0  0  0  2  0  0  0  0  0  0
  189.5690  176.2770  146.5200 C   0  0  0  0  0  0  0  0  0  0  0  0
  190.3810  175.5980  147.5860 C   0  0  0  0  0  2  0  0  0  0  0  0
  186.1680  176.9390  142.8130 C   0  0  0  0  0  2  0  0  0  0  0  0
  187.0440  176.3590  141.7060 C   0  0  0  0  0  2  0  0  0  0  0  0
  187.8640  177.4190  144.5980 C   0  0  0  0  0  0  0  0  0  0  0  0
  193.3030  175.3670  143.7180 C   0  0  0  0  0  2  0  0  0  0  0  0
  193.0220  176.8290  143.9810 C   0  0  0  0  0  2  0  0  0  0  0  0
  191.8810  175.8890  143.6160 C   0  0  0  0  0  3  0  0  0  0  0  0
  188.6250  174.7320  141.1610 C   0  0  0  0  0  2  0  0  0  0  0  0
  187.9550  172.6870  140.1150 O   0  0  0  0  0  1  0  0  0  0  0  0
  188.2750  173.2630  141.3470 C   0  0  1  0  0  3  0  0  0  0  0  0
  189.4190  172.5340  141.9650 C   0  0  0  0  0  0  0  0  0  0  0  0
  189.7740  172.7850  143.1470 O   0  0  0  0  0  0  0  0  0  0  0  0
  190.1130  171.5450  141.2150 N   0  0  0  0  0  1  0  0  0  0  0  0
  1 12  1  0  0  0  0
  2 16  1  0  0  0  0
  2  1  2  0  0  0  0
  4  1  1  0  0  0  0
  4  7  1  0  0  0  0
  5 11  1  0  0  0  0
  6  3  1  0  0  0  0
  7  8  1  0  0  0  0
  8 13  1  0  0  0  0
  9 10  1  1  0  0  0
  9 16  1  0  0  0  0
 11  2  1  0  0  0  0
 12  3  2  0  0  0  0
 12 13  1  0  0  0  0
 14  9  1  0  0  0  0
 15  5  1  0  0  0  0
 15 14  1  0  0  0  0
 16  6  2  0  0  0  0
 17 18  1  0  0  0  0
 19 17  1  0  0  0  0
 19 18  1  0  0  0  0
 19  4  1  0  0  0  0
 20 22  1  0  0  0  0
 20  5  1  0  0  0  0
 22 21  1  6  0  0  0
 22 23  1  0  0  0  0
 23 24  2  0  0  0  0
 25 23  1  0  0  0  0
M  END
>  <MODEL>
7

>  <REMARK>
 VINA RESULT:      -6.2      1.642      2.061
  Name = 
  4 active torsions:
  status: ('A' for Active; 'I' for Inactive)
    1  A    between atoms: C_2  and  C_25
    2  A    between atoms: N_5  and  C_22
    3  A    between atoms: N_6  and  C_15
    4  A    between atoms: C_15  and  C_25
                            x       y       z     vdW  Elec       q    Type
                         _______ _______ _______ _____ _____    ______ ____

>  <TORSDO>
F 4

$$$$
=
 OpenBabel11052417393D

 25 28  0  0  1  0  0  0  0  0999 V2000
  188.9160  175.8660  144.0500 C   0  0  0  0  0  0  0  0  0  0  0  0
  190.1220  175.5360  144.7230 C   0  0  0  0  0  0  0  0  0  0  0  0
  187.9330  176.5100  146.1850 C   0  0  0  0  0  3  0  0  0  0  0  0
  188.7460  175.6870  142.6220 N   0  0  0  0  0  0  0  0  0  0  0  0
  192.3400  176.2600  144.0860 N   0  0  0  0  0  0  0  0  0  0  0  0
  189.1010  176.1440  146.8450 C   0  0  0  0  0  3  0  0  0  0  0  0
  187.6940  176.4610  141.9570 C   0  0  0  0  0  2  0  0  0  0  0  0
  186.3960  176.3110  142.7340 C   0  0  0  0  0  2  0  0  0  0  0  0
  191.4750  175.2960  146.8640 C   0  0  2  0  0  3  0  0  0  0  0  0
  191.2810  175.2620  148.2470 O   0  0  0  0  0  1  0  0  0  0  0  0
  191.3640  175.1830  143.9580 C   0  0  0  0  0  2  0  0  0  0  0  0
  187.8290  176.3740  144.8030 C   0  0  0  0  0  0  0  0  0  0  0  0
  186.5790  176.8750  144.1380 C   0  0  0  0  0  2  0  0  0  0  0  0
  192.5990  176.2700  146.5300 C   0  0  0  0  0  2  0  0  0  0  0  0
  193.2330  175.9200  145.1870 C   0  0  0  0  0  2  0  0  0  0  0  0
  190.2010  175.6540  146.1310 C   0  0  0  0  0  0  0  0  0  0  0  0
  188.5840  174.1780  140.7030 C   0  0  0  0  0  2  0  0  0  0  0  0
  188.5060  173.2940  141.9270 C   0  0  0  0  0  2  0  0  0  0  0  0
  189.3790  174.5430  141.9430 C   0  0  0  0  0  3  0  0  0  0  0  0
  193.1470  176.2460  142.8780 C   0  0  0  0  0  2  0  0  0  0  0  0
  194.4560  174.2870  142.4620 O   0  0  0  0  0  1  0  0  0  0  0  0
  194.4560  175.5130  143.1310 C   0  0  1  0  0  3  0  0  0  0  0  0
  195.6080  176.3410  142.6710 C   0  0  0  0  0  0  0  0  0  0  0  0
  196.4900  176.7180  143.4870 O   0  0  0  0  0  0  0  0  0  0  0  0
  195.7120  176.7050  141.3000 N   0  0  0  0  0  1  0  0  0  0  0  0
  1  2  2  0  0  0  0
  1 12  1  0  0  0  0
  2 16  1  0  0  0  0
  3  6  1  0  0  0  0
  4  1  1  0  0  0  0
  5 15  1  0  0  0  0
  7  4  1  0  0  0  0
  7  8  1  0  0  0  0
  8 13  1  0  0  0  0
  9 10  1  1  0  0  0
 11  5  1  0  0  0  0
 11  2  1  0  0  0  0
 12  3  2  0  0  0  0
 13 12  1  0  0  0  0
 14  9  1  0  0  0  0
 15 14  1  0  0  0  0
 16  6  2  0  0  0  0
 16  9  1  0  0  0  0
 17 18  1  0  0  0  0
 17 19  1  0  0  0  0
 18 19  1  0  0  0  0
 19  4  1  0  0  0  0
 20 22  1  0  0  0  0
 20  5  1  0  0  0  0
 22 21  1  6  0  0  0
 23 22  1  0  0  0  0
 23 24  2  0  0  0  0
 25 23  1  0  0  0  0
M  END
>  <MODEL>
8

>  <REMARK>
 VINA RESULT:      -6.2      3.515      5.887
  Name = 
  4 active torsions:
  status: ('A' for Active; 'I' for Inactive)
    1  A    between atoms: C_2  and  C_25
    2  A    between atoms: N_5  and  C_22
    3  A    between atoms: N_6  and  C_15
    4  A    between atoms: C_15  and  C_25
                            x       y       z     vdW  Elec       q    Type
                         _______ _______ _______ _____ _____    ______ ____

>  <TORSDO>
F 4

$$$$
=
 OpenBabel11052417393D

 25 28  0  0  1  0  0  0  0  0999 V2000
  188.8610  175.2280  143.4440 C   0  0  0  0  0  0  0  0  0  0  0  0
  188.9230  175.5410  144.8280 C   0  0  0  0  0  0  0  0  0  0  0  0
  186.9160  176.6810  143.2310 C   0  0  0  0  0  3  0  0  0  0  0  0
  189.7800  174.3030  142.8120 N   0  0  0  0  0  0  0  0  0  0  0  0
  190.8990  176.2460  146.0300 N   0  0  0  0  0  0  0  0  0  0  0  0
  186.9550  176.9490  144.5940 C   0  0  0  0  0  3  0  0  0  0  0  0
  189.9490  174.3930  141.3580 C   0  0  0  0  0  2  0  0  0  0  0  0
  188.5810  174.4180  140.6970 C   0  0  0  0  0  2  0  0  0  0  0  0
  187.9930  176.7210  146.8800 C   0  0  2  0  0  3  0  0  0  0  0  0
  186.8300  177.3740  147.2970 O   0  0  0  0  0  1  0  0  0  0  0  0
  190.0810  175.0930  145.6720 C   0  0  0  0  0  2  0  0  0  0  0  0
  187.8520  175.8280  142.6520 C   0  0  0  0  0  0  0  0  0  0  0  0
  187.8170  175.6530  141.1600 C   0  0  0  0  0  2  0  0  0  0  0  0
  189.2080  177.5770  147.2170 C   0  0  0  0  0  2  0  0  0  0  0  0
  190.4590  176.7120  147.3390 C   0  0  0  0  0  2  0  0  0  0  0  0
  187.9460  176.3870  145.4060 C   0  0  0  0  0  0  0  0  0  0  0  0
  190.5550  171.9940  142.5810 C   0  0  0  0  0  2  0  0  0  0  0  0
  189.3230  171.9270  143.4540 C   0  0  0  0  0  2  0  0  0  0  0  0
  190.2610  173.1230  143.5510 C   0  0  0  0  0  3  0  0  0  0  0  0
  192.2590  175.7650  146.1970 C   0  0  0  0  0  2  0  0  0  0  0  0
  192.4760  177.1770  144.2780 O   0  0  0  0  0  1  0  0  0  0  0  0
  193.1060  176.1580  144.9950 C   0  0  1  0  0  3  0  0  0  0  0  0
  194.4550  176.6110  145.4410 C   0  0  0  0  0  0  0  0  0  0  0  0
  194.5710  177.5260  146.2990 O   0  0  0  0  0  0  0  0  0  0  0  0
  195.6190  176.0040  144.8950 N   0  0  0  0  0  1  0  0  0  0  0  0
  1  2  1  0  0  0  0
  2 16  2  0  0  0  0
  2 11  1  0  0  0  0
  3  6  2  0  0  0  0
  4  1  1  0  0  0  0
  4 19  1  0  0  0  0
  5 20  1  0  0  0  0
  5 15  1  0  0  0  0
  6 16  1  0  0  0  0
  7  4  1  0  0  0  0
  8 13  1  0  0  0  0
  8  7  1  0  0  0  0
  9 14  1  0  0  0  0
  9 10  1  6  0  0  0
 11  5  1  0  0  0  0
 12  3  1  0  0  0  0
 12  1  2  0  0  0  0
 13 12  1  0  0  0  0
 14 15  1  0  0  0  0
 16  9  1  0  0  0  0
 17 18  1  0  0  0  0
 17 19  1  0  0  0  0
 18 19  1  0  0  0  0
 22 21  1  1  0  0  0
 22 23  1  0  0  0  0
 22 20  1  0  0  0  0
 23 24  2  0  0  0  0
 25 23  1  0  0  0  0
M  END
>  <MODEL>
9

>  <REMARK>
 VINA RESULT:      -6.2      3.173      5.612
  Name = 
  4 active torsions:
  status: ('A' for Active; 'I' for Inactive)
    1  A    between atoms: C_2  and  C_25
    2  A    between atoms: N_5  and  C_22
    3  A    between atoms: N_6  and  C_15
    4  A    between atoms: C_15  and  C_25
                            x       y       z     vdW  Elec       q    Type
                         _______ _______ _______ _____ _____    ______ ____

>  <TORSDO>
F 4

$$$$
