=
 OpenBabel11052418493D

 34 38  0  0  1  0  0  0  0  0999 V2000
  186.7790  177.8300  143.5340 C   0  0  0  0  0  0  0  0  0  0  0  0
  186.1990  177.0530  145.8330 C   0  0  0  0  0  2  0  0  0  0  0  0
  188.4570  176.6930  144.9550 N   0  0  0  0  0  0  0  0  0  0  0  0
  189.7000  175.3160  146.5650 C   0  0  2  0  0  3  0  0  0  0  0  0
  185.4540  179.8110  144.3950 C   0  0  0  0  0  2  0  0  0  0  0  0
  184.2000  178.8930  145.3410 S   0  0  0  0  0  0  0  0  0  0  0  0
  189.0020  177.5560  147.0920 O   0  0  0  0  0  1  0  0  0  0  0  0
  187.3030  177.6060  144.9390 C   0  0  1  0  0  3  0  0  0  0  0  0
  185.8990  178.9960  143.1880 C   0  0  0  0  0  2  0  0  0  0  0  0
  188.5920  175.6660  143.9490 C   0  0  0  0  0  0  0  0  0  0  0  0
  187.0320  176.9400  142.5730 C   0  0  0  0  0  3  0  0  0  0  0  0
  185.4220  178.1840  146.4880 C   0  0  0  0  0  2  0  0  0  0  0  0
  190.0090  174.3650  145.4390 C   0  0  0  0  0  3  0  0  0  0  0  0
  189.4810  174.4950  144.2140 C   0  0  0  0  0  0  0  0  0  0  0  0
  189.4390  176.7360  146.0460 C   0  0  2  0  0  3  0  0  0  0  0  0
  187.9010  175.7790  142.8110 C   0  0  0  0  0  3  0  0  0  0  0  0
  190.7630  172.9430  140.9860 C   0  0  0  0  0  0  0  0  0  0  0  0
  190.6060  171.5820  141.2530 C   0  0  0  0  0  3  0  0  0  0  0  0
  189.8470  173.4930  143.1740 C   0  0  0  0  0  0  0  0  0  0  0  0
  190.0730  171.1680  142.4750 C   0  0  0  0  0  3  0  0  0  0  0  0
  190.3890  173.8910  141.9420 C   0  0  0  0  0  3  0  0  0  0  0  0
  189.6980  172.1180  143.4300 C   0  0  0  0  0  3  0  0  0  0  0  0
  191.4430  173.4650  139.4610 Cl  0  0  0  0  0  0  0  0  0  0  0  0
  190.7330  175.2660  147.6060 N   0  0  0  0  0  2  0  0  0  0  0  0
  192.0630  175.1170  147.0190 C   0  0  0  0  0  2  0  0  0  0  0  0
  192.8470  176.4110  147.1460 C   0  0  0  0  0  2  0  0  0  0  0  0
  194.1710  176.2790  146.4130 C   0  0  0  0  0  2  0  0  0  0  0  0
  196.2340  174.9910  144.4990 S   0  0  0  0  0  0  0  0  0  0  0  0
  193.9650  176.3650  144.9710 N   0  0  0  0  0  0  0  0  0  0  0  0
  194.8500  175.7310  144.0250 C   0  0  0  0  0  0  0  0  0  0  0  0
  193.1030  176.0510  142.3150 C   0  0  0  0  0  3  0  0  0  0  0  0
  192.3190  176.6770  143.2040 C   0  0  0  0  0  3  0  0  0  0  0  0
  192.9040  177.2380  144.4720 C   0  0  0  0  0  2  0  0  0  0  0  0
  194.5810  175.8970  142.5580 C   0  0  0  0  0  2  0  0  0  0  0  0
  1  8  1  0  0  0  0
  2 12  1  0  0  0  0
  3 15  1  0  0  0  0
  4 24  1  1  0  0  0
  5  6  1  0  0  0  0
  6 12  1  0  0  0  0
  8  3  1  0  0  0  0
  8  2  1  1  0  0  0
  9  1  1  0  0  0  0
  9  5  1  0  0  0  0
 10 14  1  0  0  0  0
 10  3  1  0  0  0  0
 11 16  1  0  0  0  0
 11  1  2  0  0  0  0
 13  4  1  0  0  0  0
 14 13  2  0  0  0  0
 15  4  1  0  0  0  0
 15  7  1  1  0  0  0
 16 10  2  0  0  0  0
 17 18  2  0  0  0  0
 17 21  1  0  0  0  0
 18 20  1  0  0  0  0
 19 22  1  0  0  0  0
 19 14  1  0  0  0  0
 20 22  2  0  0  0  0
 21 19  2  0  0  0  0
 23 17  1  0  0  0  0
 25 26  1  0  0  0  0
 25 24  1  0  0  0  0
 27 26  1  0  0  0  0
 29 27  1  0  0  0  0
 30 28  2  0  0  0  0
 30 29  1  0  0  0  0
 31 34  1  0  0  0  0
 31 32  2  0  0  0  0
 32 33  1  0  0  0  0
 33 29  1  0  0  0  0
 34 30  1  0  0  0  0
M  END
>  <MODEL>
1

>  <REMARK>
 VINA RESULT:      -8.1      0.000      0.000
  Name = 
  6 active torsions:
  status: ('A' for Active; 'I' for Inactive)
    1  A    between atoms: C_3  and  N_13
    2  A    between atoms: C_3  and  C_17
    3  A    between atoms: C_5  and  N_18
    4  A    between atoms: C_12  and  C_28
    5  A    between atoms: C_17  and  C_29
    6  A    between atoms: N_18  and  C_29
                            x       y       z     vdW  Elec       q    Type
                         _______ _______ _______ _____ _____    ______ ____

>  <TORSDO>
F 6

$$$$
=
 OpenBabel11052418493D

 34 38  0  0  1  0  0  0  0  0999 V2000
  187.2580  177.3010  145.9120 C   0  0  0  0  0  0  0  0  0  0  0  0
  187.0110  178.1240  143.5690 C   0  0  0  0  0  2  0  0  0  0  0  0
  188.2890  176.0830  144.0200 N   0  0  0  0  0  0  0  0  0  0  0  0
  189.3440  175.3560  141.9250 C   0  0  2  0  0  3  0  0  0  0  0  0
  184.8070  177.9460  145.8800 C   0  0  0  0  0  2  0  0  0  0  0  0
  184.9450  179.4370  144.8460 S   0  0  0  0  0  0  0  0  0  0  0  0
  186.9570  175.3200  142.2160 O   0  0  0  0  0  1  0  0  0  0  0  0
  187.1390  176.8910  144.4570 C   0  0  1  0  0  3  0  0  0  0  0  0
  186.0720  177.7660  146.7080 C   0  0  0  0  0  2  0  0  0  0  0  0
  189.5860  176.2670  144.6270 C   0  0  0  0  0  0  0  0  0  0  0  0
  188.4520  177.3290  146.5070 C   0  0  0  0  0  3  0  0  0  0  0  0
  185.5510  178.5130  143.4000 C   0  0  0  0  0  2  0  0  0  0  0  0
  190.6640  175.3490  142.6490 C   0  0  0  0  0  3  0  0  0  0  0  0
  190.8050  175.7940  143.9050 C   0  0  0  0  0  0  0  0  0  0  0  0
  188.1710  175.1510  142.8910 C   0  0  2  0  0  3  0  0  0  0  0  0
  189.6650  176.8730  145.8150 C   0  0  0  0  0  3  0  0  0  0  0  0
  194.5560  176.1610  144.4180 C   0  0  0  0  0  0  0  0  0  0  0  0
  194.6970  175.7330  145.7400 C   0  0  0  0  0  3  0  0  0  0  0  0
  192.1590  175.7500  144.5250 C   0  0  0  0  0  0  0  0  0  0  0  0
  193.5770  175.3140  146.4600 C   0  0  0  0  0  3  0  0  0  0  0  0
  193.2950  176.1720  143.8170 C   0  0  0  0  0  3  0  0  0  0  0  0
  192.3160  175.3250  145.8570 C   0  0  0  0  0  3  0  0  0  0  0  0
  195.9560  176.6990  143.5170 Cl  0  0  0  0  0  0  0  0  0  0  0  0
  189.3420  174.4040  140.8080 N   0  0  0  0  0  2  0  0  0  0  0  0
  190.7040  174.0880  140.3830 C   0  0  0  0  0  2  0  0  0  0  0  0
  190.7790  172.6670  139.8550 C   0  0  0  0  0  2  0  0  0  0  0  0
  191.7860  171.8720  140.6690 C   0  0  0  0  0  2  0  0  0  0  0  0
  193.8210  172.5220  142.9080 S   0  0  0  0  0  0  0  0  0  0  0  0
  191.3670  171.7980  142.0640 N   0  0  0  0  0  0  0  0  0  0  0  0
  192.2430  172.1520  143.1540 C   0  0  0  0  0  0  0  0  0  0  0  0
  190.2520  172.2420  144.6060 C   0  0  0  0  0  3  0  0  0  0  0  0
  189.4660  171.8680  143.5860 C   0  0  0  0  0  3  0  0  0  0  0  0
  190.0610  171.2140  142.3670 C   0  0  0  0  0  2  0  0  0  0  0  0
  191.7400  172.0160  144.5620 C   0  0  0  0  0  2  0  0  0  0  0  0
  1 11  2  0  0  0  0
  1  9  1  0  0  0  0
  3  8  1  0  0  0  0
  3 10  1  0  0  0  0
  4 24  1  6  0  0  0
  4 13  1  0  0  0  0
  4 15  1  0  0  0  0
  5  9  1  0  0  0  0
  6  5  1  0  0  0  0
  8  2  1  6  0  0  0
  8  1  1  0  0  0  0
 10 16  2  0  0  0  0
 12  2  1  0  0  0  0
 12  6  1  0  0  0  0
 13 14  2  0  0  0  0
 14 19  1  0  0  0  0
 14 10  1  0  0  0  0
 15  7  1  6  0  0  0
 15  3  1  0  0  0  0
 16 11  1  0  0  0  0
 17 18  1  0  0  0  0
 18 20  2  0  0  0  0
 19 22  2  0  0  0  0
 21 17  2  0  0  0  0
 21 19  1  0  0  0  0
 22 20  1  0  0  0  0
 23 17  1  0  0  0  0
 25 24  1  0  0  0  0
 26 25  1  0  0  0  0
 26 27  1  0  0  0  0
 27 29  1  0  0  0  0
 28 30  2  0  0  0  0
 29 33  1  0  0  0  0
 29 30  1  0  0  0  0
 30 34  1  0  0  0  0
 32 31  2  0  0  0  0
 33 32  1  0  0  0  0
 34 31  1  0  0  0  0
M  END
>  <MODEL>
2

>  <REMARK>
 VINA RESULT:      -7.6      2.426      4.933
  Name = 
  6 active torsions:
  status: ('A' for Active; 'I' for Inactive)
    1  A    between atoms: C_3  and  N_13
    2  A    between atoms: C_3  and  C_17
    3  A    between atoms: C_5  and  N_18
    4  A    between atoms: C_12  and  C_28
    5  A    between atoms: C_17  and  C_29
    6  A    between atoms: N_18  and  C_29
                            x       y       z     vdW  Elec       q    Type
                         _______ _______ _______ _____ _____    ______ ____

>  <TORSDO>
F 6

$$$$
=
 OpenBabel11052418493D

 34 38  0  0  1  0  0  0  0  0999 V2000
  189.2420  173.5490  141.5270 C   0  0  0  0  0  0  0  0  0  0  0  0
  191.4760  174.6570  141.6270 C   0  0  0  0  0  2  0  0  0  0  0  0
  190.1740  174.3420  143.6790 N   0  0  0  0  0  0  0  0  0  0  0  0
  191.3330  175.4960  145.5110 C   0  0  2  0  0  3  0  0  0  0  0  0
  190.5910  172.0630  139.9800 C   0  0  0  0  0  2  0  0  0  0  0  0
  191.6040  173.3550  139.1960 S   0  0  0  0  0  0  0  0  0  0  0  0
  192.2820  173.5690  144.4310 O   0  0  0  0  0  1  0  0  0  0  0  0
  190.4890  173.7590  142.3640 C   0  0  1  0  0  3  0  0  0  0  0  0
  189.2230  172.6210  140.3460 C   0  0  0  0  0  2  0  0  0  0  0  0
  189.0270  175.2030  143.8420 C   0  0  0  0  0  0  0  0  0  0  0  0
  188.1370  174.2510  141.7800 C   0  0  0  0  0  3  0  0  0  0  0  0
  192.4080  173.8280  140.7580 C   0  0  0  0  0  2  0  0  0  0  0  0
  190.0490  176.2270  145.7980 C   0  0  0  0  0  3  0  0  0  0  0  0
  188.9650  176.1250  145.0150 C   0  0  0  0  0  0  0  0  0  0  0  0
  191.0720  174.1490  144.8250 C   0  0  2  0  0  3  0  0  0  0  0  0
  188.0540  175.1670  142.9260 C   0  0  0  0  0  3  0  0  0  0  0  0
  186.1540  178.6870  144.9430 C   0  0  0  0  0  0  0  0  0  0  0  0
  185.4010  178.3020  146.0550 C   0  0  0  0  0  3  0  0  0  0  0  0
  187.7480  176.9000  145.3850 C   0  0  0  0  0  0  0  0  0  0  0  0
  185.8120  177.2190  146.8340 C   0  0  0  0  0  3  0  0  0  0  0  0
  187.3170  177.9890  144.6100 C   0  0  0  0  0  3  0  0  0  0  0  0
  186.9760  176.5210  146.5000 C   0  0  0  0  0  3  0  0  0  0  0  0
  185.6350  180.0360  143.9580 Cl  0  0  0  0  0  0  0  0  0  0  0  0
  192.1600  175.3750  146.7180 N   0  0  0  0  0  2  0  0  0  0  0  0
  192.7150  176.6690  147.1070 C   0  0  0  0  0  2  0  0  0  0  0  0
  194.1260  176.8230  146.5710 C   0  0  0  0  0  2  0  0  0  0  0  0
  194.7520  175.4510  146.3790 C   0  0  0  0  0  2  0  0  0  0  0  0
  197.0570  173.4460  145.8850 S   0  0  0  0  0  0  0  0  0  0  0  0
  195.3340  175.3400  145.0460 N   0  0  0  0  0  0  0  0  0  0  0  0
  196.3640  174.3810  144.7300 C   0  0  0  0  0  0  0  0  0  0  0  0
  195.8840  174.7870  142.3460 C   0  0  0  0  0  3  0  0  0  0  0  0
  194.9630  175.7080  142.6670 C   0  0  0  0  0  3  0  0  0  0  0  0
  194.9550  176.3290  144.0380 C   0  0  0  0  0  2  0  0  0  0  0  0
  196.9300  174.3570  143.3400 C   0  0  0  0  0  2  0  0  0  0  0  0
  1 11  2  0  0  0  0
  1  8  1  0  0  0  0
  3 10  1  0  0  0  0
  3 15  1  0  0  0  0
  4 13  1  0  0  0  0
  4 24  1  1  0  0  0
  5  9  1  0  0  0  0
  6  5  1  0  0  0  0
  6 12  1  0  0  0  0
  8  2  1  6  0  0  0
  8  3  1  0  0  0  0
  9  1  1  0  0  0  0
 10 14  1  0  0  0  0
 11 16  1  0  0  0  0
 12  2  1  0  0  0  0
 14 19  1  0  0  0  0
 14 13  2  0  0  0  0
 15  7  1  6  0  0  0
 15  4  1  0  0  0  0
 16 10  2  0  0  0  0
 17 18  1  0  0  0  0
 18 20  2  0  0  0  0
 19 22  2  0  0  0  0
 21 17  2  0  0  0  0
 21 19  1  0  0  0  0
 22 20  1  0  0  0  0
 23 17  1  0  0  0  0
 24 25  1  0  0  0  0
 26 25  1  0  0  0  0
 27 26  1  0  0  0  0
 29 27  1  0  0  0  0
 30 29  1  0  0  0  0
 30 28  2  0  0  0  0
 31 32  2  0  0  0  0
 31 34  1  0  0  0  0
 32 33  1  0  0  0  0
 33 29  1  0  0  0  0
 34 30  1  0  0  0  0
M  END
>  <MODEL>
3

>  <REMARK>
 VINA RESULT:      -7.6      3.113      5.572
  Name = 
  6 active torsions:
  status: ('A' for Active; 'I' for Inactive)
    1  A    between atoms: C_3  and  N_13
    2  A    between atoms: C_3  and  C_17
    3  A    between atoms: C_5  and  N_18
    4  A    between atoms: C_12  and  C_28
    5  A    between atoms: C_17  and  C_29
    6  A    between atoms: N_18  and  C_29
                            x       y       z     vdW  Elec       q    Type
                         _______ _______ _______ _____ _____    ______ ____

>  <TORSDO>
F 6

$$$$
=
 OpenBabel11052418493D

 34 38  0  0  1  0  0  0  0  0999 V2000
  192.6830  175.7990  146.0050 C   0  0  0  0  0  0  0  0  0  0  0  0
  192.1650  173.7940  144.6120 C   0  0  0  0  0  2  0  0  0  0  0  0
  190.8850  175.8600  144.3050 N   0  0  0  0  0  0  0  0  0  0  0  0
  189.0530  175.4060  142.7320 C   0  0  2  0  0  3  0  0  0  0  0  0
  195.0150  174.9980  145.4210 C   0  0  0  0  0  2  0  0  0  0  0  0
  194.7060  173.2070  145.5180 S   0  0  0  0  0  0  0  0  0  0  0  0
  191.3560  175.3520  142.0400 O   0  0  0  0  0  1  0  0  0  0  0  0
  192.2090  175.3170  144.6470 C   0  0  1  0  0  3  0  0  0  0  0  0
  194.1260  175.7350  146.4130 C   0  0  0  0  0  2  0  0  0  0  0  0
  189.9330  176.1790  145.3440 C   0  0  0  0  0  0  0  0  0  0  0  0
  191.8020  176.2280  146.9100 C   0  0  0  0  0  3  0  0  0  0  0  0
  193.5000  173.2290  144.1550 C   0  0  0  0  0  2  0  0  0  0  0  0
  188.0990  175.9490  143.7610 C   0  0  0  0  0  3  0  0  0  0  0  0
  188.4850  176.2930  144.9990 C   0  0  0  0  0  0  0  0  0  0  0  0
  190.4610  175.9910  142.9050 C   0  0  2  0  0  3  0  0  0  0  0  0
  190.3720  176.3460  146.5940 C   0  0  0  0  0  3  0  0  0  0  0  0
  186.7650  178.3750  147.6790 C   0  0  0  0  0  0  0  0  0  0  0  0
  185.4780  177.8340  147.6640 C   0  0  0  0  0  3  0  0  0  0  0  0
  187.4560  176.8130  145.9430 C   0  0  0  0  0  0  0  0  0  0  0  0
  185.1710  176.7870  146.7930 C   0  0  0  0  0  3  0  0  0  0  0  0
  187.7460  177.8690  146.8220 C   0  0  0  0  0  3  0  0  0  0  0  0
  186.1530  176.2820  145.9370 C   0  0  0  0  0  3  0  0  0  0  0  0
  187.1500  179.6950  148.7600 Cl  0  0  0  0  0  0  0  0  0  0  0  0
  188.5250  175.5720  141.3730 N   0  0  0  0  0  2  0  0  0  0  0  0
  187.2200  176.2280  141.3930 C   0  0  0  0  0  2  0  0  0  0  0  0
  187.2290  177.4540  140.4990 C   0  0  0  0  0  2  0  0  0  0  0  0
  185.8010  177.9040  140.2340 C   0  0  0  0  0  2  0  0  0  0  0  0
  182.7190  177.9160  140.5100 S   0  0  0  0  0  0  0  0  0  0  0  0
  185.1920  178.4070  141.4610 N   0  0  0  0  0  0  0  0  0  0  0  0
  183.7660  178.3810  141.6820 C   0  0  0  0  0  0  0  0  0  0  0  0
  184.2230  178.7800  144.0720 C   0  0  0  0  0  3  0  0  0  0  0  0
  185.5400  178.8450  143.8310 C   0  0  0  0  0  3  0  0  0  0  0  0
  186.0470  179.0850  142.4340 C   0  0  0  0  0  2  0  0  0  0  0  0
  183.2210  178.9480  142.9600 C   0  0  0  0  0  2  0  0  0  0  0  0
  1  9  1  0  0  0  0
  1 11  2  0  0  0  0
  3  8  1  0  0  0  0
  3 10  1  0  0  0  0
  4 24  1  6  0  0  0
  4 15  1  0  0  0  0
  4 13  1  0  0  0  0
  5  6  1  0  0  0  0
  5  9  1  0  0  0  0
  8  2  1  1  0  0  0
  8  1  1  0  0  0  0
 10 16  2  0  0  0  0
 12  2  1  0  0  0  0
 12  6  1  0  0  0  0
 13 14  2  0  0  0  0
 14 10  1  0  0  0  0
 14 19  1  0  0  0  0
 15  7  1  6  0  0  0
 15  3  1  0  0  0  0
 16 11  1  0  0  0  0
 17 23  1  0  0  0  0
 18 17  1  0  0  0  0
 19 21  1  0  0  0  0
 20 18  2  0  0  0  0
 21 17  2  0  0  0  0
 22 19  2  0  0  0  0
 22 20  1  0  0  0  0
 24 25  1  0  0  0  0
 26 25  1  0  0  0  0
 27 26  1  0  0  0  0
 27 29  1  0  0  0  0
 28 30  2  0  0  0  0
 29 30  1  0  0  0  0
 29 33  1  0  0  0  0
 30 34  1  0  0  0  0
 32 31  2  0  0  0  0
 33 32  1  0  0  0  0
 34 31  1  0  0  0  0
M  END
>  <MODEL>
4

>  <REMARK>
 VINA RESULT:      -7.5      3.241      8.214
  Name = 
  6 active torsions:
  status: ('A' for Active; 'I' for Inactive)
    1  A    between atoms: C_3  and  N_13
    2  A    between atoms: C_3  and  C_17
    3  A    between atoms: C_5  and  N_18
    4  A    between atoms: C_12  and  C_28
    5  A    between atoms: C_17  and  C_29
    6  A    between atoms: N_18  and  C_29
                            x       y       z     vdW  Elec       q    Type
                         _______ _______ _______ _____ _____    ______ ____

>  <TORSDO>
F 6

$$$$
=
 OpenBabel11052418493D

 34 38  0  0  1  0  0  0  0  0999 V2000
  187.1520  177.2420  145.9340 C   0  0  0  0  0  0  0  0  0  0  0  0
  187.0400  178.0500  143.5750 C   0  0  0  0  0  2  0  0  0  0  0  0
  188.2950  176.0160  144.1120 N   0  0  0  0  0  0  0  0  0  0  0  0
  189.4720  175.2790  142.0860 C   0  0  2  0  0  3  0  0  0  0  0  0
  184.7060  177.8800  145.7550 C   0  0  0  0  0  2  0  0  0  0  0  0
  184.9000  179.3650  144.7210 S   0  0  0  0  0  0  0  0  0  0  0  0
  187.0720  175.2380  142.2380 O   0  0  0  0  0  1  0  0  0  0  0  0
  187.1190  176.8230  144.4760 C   0  0  1  0  0  3  0  0  0  0  0  0
  185.9210  177.7080  146.6560 C   0  0  0  0  0  2  0  0  0  0  0  0
  189.5540  176.2070  144.7930 C   0  0  0  0  0  0  0  0  0  0  0  0
  188.3100  177.2770  146.5960 C   0  0  0  0  0  3  0  0  0  0  0  0
  185.5920  178.4340  143.3190 C   0  0  0  0  0  2  0  0  0  0  0  0
  190.7470  175.2790  142.8860 C   0  0  0  0  0  3  0  0  0  0  0  0
  190.8140  175.7330  144.1460 C   0  0  0  0  0  0  0  0  0  0  0  0
  188.2450  175.0760  142.9840 C   0  0  2  0  0  3  0  0  0  0  0  0
  189.5620  176.8200  145.9790 C   0  0  0  0  0  3  0  0  0  0  0  0
  194.1770  176.7950  145.5720 C   0  0  0  0  0  0  0  0  0  0  0  0
  194.5750  175.6320  146.2340 C   0  0  0  0  0  3  0  0  0  0  0  0
  192.1290  175.6960  144.8440 C   0  0  0  0  0  0  0  0  0  0  0  0
  193.7590  174.5000  146.2080 C   0  0  0  0  0  3  0  0  0  0  0  0
  192.9610  176.8270  144.8840 C   0  0  0  0  0  3  0  0  0  0  0  0
  192.5430  174.5330  145.5190 C   0  0  0  0  0  3  0  0  0  0  0  0
  195.1920  178.2190  145.6140 Cl  0  0  0  0  0  0  0  0  0  0  0  0
  189.5370  174.3190  140.9770 N   0  0  0  0  0  2  0  0  0  0  0  0
  190.8770  173.7490  140.8530 C   0  0  0  0  0  2  0  0  0  0  0  0
  190.8080  172.3620  140.2410 C   0  0  0  0  0  2  0  0  0  0  0  0
  189.4310  172.1370  139.6400 C   0  0  0  0  0  2  0  0  0  0  0  0
  188.9430  173.9660  137.1920 S   0  0  0  0  0  0  0  0  0  0  0  0
  189.5480  171.5830  138.2950 N   0  0  0  0  0  0  0  0  0  0  0  0
  189.3980  172.3930  137.1110 C   0  0  0  0  0  0  0  0  0  0  0  0
  190.4370  170.5570  135.8350 C   0  0  0  0  0  3  0  0  0  0  0  0
  190.5220  169.8070  136.9430 C   0  0  0  0  0  3  0  0  0  0  0  0
  189.6830  170.1350  138.1490 C   0  0  0  0  0  2  0  0  0  0  0  0
  189.5030  171.7360  135.7660 C   0  0  0  0  0  2  0  0  0  0  0  0
  1 11  2  0  0  0  0
  1  9  1  0  0  0  0
  3  8  1  0  0  0  0
  3 10  1  0  0  0  0
  4 24  1  6  0  0  0
  4 13  1  0  0  0  0
  4 15  1  0  0  0  0
  5  9  1  0  0  0  0
  6  5  1  0  0  0  0
  8  2  1  6  0  0  0
  8  1  1  0  0  0  0
 10 16  2  0  0  0  0
 12  2  1  0  0  0  0
 12  6  1  0  0  0  0
 13 14  2  0  0  0  0
 14 10  1  0  0  0  0
 14 19  1  0  0  0  0
 15  7  1  6  0  0  0
 15  3  1  0  0  0  0
 16 11  1  0  0  0  0
 17 23  1  0  0  0  0
 17 18  1  0  0  0  0
 19 21  1  0  0  0  0
 19 22  2  0  0  0  0
 20 18  2  0  0  0  0
 21 17  2  0  0  0  0
 22 20  1  0  0  0  0
 25 24  1  0  0  0  0
 26 25  1  0  0  0  0
 27 26  1  0  0  0  0
 29 27  1  0  0  0  0
 30 28  2  0  0  0  0
 30 29  1  0  0  0  0
 31 32  2  0  0  0  0
 32 33  1  0  0  0  0
 33 29  1  0  0  0  0
 34 31  1  0  0  0  0
 34 30  1  0  0  0  0
M  END
>  <MODEL>
5

>  <REMARK>
 VINA RESULT:      -7.4      3.671      6.216
  Name = 
  6 active torsions:
  status: ('A' for Active; 'I' for Inactive)
    1  A    between atoms: C_3  and  N_13
    2  A    between atoms: C_3  and  C_17
    3  A    between atoms: C_5  and  N_18
    4  A    between atoms: C_12  and  C_28
    5  A    between atoms: C_17  and  C_29
    6  A    between atoms: N_18  and  C_29
                            x       y       z     vdW  Elec       q    Type
                         _______ _______ _______ _____ _____    ______ ____

>  <TORSDO>
F 6

$$$$
=
 OpenBabel11052418493D

 34 38  0  0  1  0  0  0  0  0999 V2000
  189.2290  173.2500  141.1480 C   0  0  0  0  0  0  0  0  0  0  0  0
  191.4230  173.7820  142.2120 C   0  0  0  0  0  2  0  0  0  0  0  0
  189.3570  173.9640  143.5140 N   0  0  0  0  0  0  0  0  0  0  0  0
  189.9050  174.9460  145.6980 C   0  0  2  0  0  3  0  0  0  0  0  0
  190.6670  171.3580  140.2680 C   0  0  0  0  0  2  0  0  0  0  0  0
  192.2080  172.2950  140.0220 S   0  0  0  0  0  0  0  0  0  0  0  0
  190.6880  172.7630  145.0610 O   0  0  0  0  0  1  0  0  0  0  0  0
  190.0260  173.2170  142.4380 C   0  0  1  0  0  3  0  0  0  0  0  0
  189.4640  172.2630  140.0420 C   0  0  0  0  0  2  0  0  0  0  0  0
  188.5070  175.0910  143.2050 C   0  0  0  0  0  0  0  0  0  0  0  0
  188.3390  174.2210  140.9330 C   0  0  0  0  0  3  0  0  0  0  0  0
  192.3850  172.6830  141.7920 C   0  0  0  0  0  2  0  0  0  0  0  0
  188.8530  175.9900  145.4400 C   0  0  0  0  0  3  0  0  0  0  0  0
  188.2040  176.0920  144.2710 C   0  0  0  0  0  0  0  0  0  0  0  0
  189.6170  173.6520  144.9260 C   0  0  2  0  0  3  0  0  0  0  0  0
  188.0270  175.2180  141.9650 C   0  0  0  0  0  3  0  0  0  0  0  0
  185.2550  178.3970  144.9490 C   0  0  0  0  0  0  0  0  0  0  0  0
  185.3190  179.2570  143.8510 C   0  0  0  0  0  3  0  0  0  0  0  0
  187.1860  177.1690  144.1170 C   0  0  0  0  0  0  0  0  0  0  0  0
  186.3110  179.0820  142.8850 C   0  0  0  0  0  3  0  0  0  0  0  0
  186.1840  177.3620  145.0820 C   0  0  0  0  0  3  0  0  0  0  0  0
  187.2400  178.0460  143.0190 C   0  0  0  0  0  3  0  0  0  0  0  0
  184.0200  178.6220  146.1680 Cl  0  0  0  0  0  0  0  0  0  0  0  0
  190.0970  174.7240  147.1370 N   0  0  0  0  0  2  0  0  0  0  0  0
  191.2160  175.5150  147.6450 C   0  0  0  0  0  2  0  0  0  0  0  0
  192.4890  175.1810  146.8890 C   0  0  0  0  0  2  0  0  0  0  0  0
  193.0610  176.4450  146.2690 C   0  0  0  0  0  2  0  0  0  0  0  0
  191.9620  177.1490  143.4630 S   0  0  0  0  0  0  0  0  0  0  0  0
  193.8500  176.1180  145.0860 N   0  0  0  0  0  0  0  0  0  0  0  0
  193.4290  176.4770  143.7540 C   0  0  0  0  0  0  0  0  0  0  0  0
  195.7340  176.0260  143.0030 C   0  0  0  0  0  3  0  0  0  0  0  0
  196.0870  175.6550  144.2420 C   0  0  0  0  0  3  0  0  0  0  0  0
  195.0360  175.2800  145.2520 C   0  0  0  0  0  2  0  0  0  0  0  0
  194.2870  176.0730  142.5900 C   0  0  0  0  0  2  0  0  0  0  0  0
  1  8  1  0  0  0  0
  3 15  1  0  0  0  0
  4 24  1  1  0  0  0
  6  5  1  0  0  0  0
  6 12  1  0  0  0  0
  8  2  1  6  0  0  0
  8  3  1  0  0  0  0
  9  5  1  0  0  0  0
  9  1  1  0  0  0  0
 10  3  1  0  0  0  0
 10 14  1  0  0  0  0
 11  1  2  0  0  0  0
 11 16  1  0  0  0  0
 12  2  1  0  0  0  0
 13  4  1  0  0  0  0
 14 13  2  0  0  0  0
 15  7  1  6  0  0  0
 15  4  1  0  0  0  0
 16 10  2  0  0  0  0
 17 21  1  0  0  0  0
 17 23  1  0  0  0  0
 18 17  2  0  0  0  0
 19 14  1  0  0  0  0
 19 21  2  0  0  0  0
 20 22  2  0  0  0  0
 20 18  1  0  0  0  0
 22 19  1  0  0  0  0
 24 25  1  0  0  0  0
 26 25  1  0  0  0  0
 27 26  1  0  0  0  0
 28 30  2  0  0  0  0
 29 33  1  0  0  0  0
 29 27  1  0  0  0  0
 30 29  1  0  0  0  0
 31 32  2  0  0  0  0
 32 33  1  0  0  0  0
 34 31  1  0  0  0  0
 34 30  1  0  0  0  0
M  END
>  <MODEL>
6

>  <REMARK>
 VINA RESULT:      -7.2      2.925      5.819
  Name = 
  6 active torsions:
  status: ('A' for Active; 'I' for Inactive)
    1  A    between atoms: C_3  and  N_13
    2  A    between atoms: C_3  and  C_17
    3  A    between atoms: C_5  and  N_18
    4  A    between atoms: C_12  and  C_28
    5  A    between atoms: C_17  and  C_29
    6  A    between atoms: N_18  and  C_29
                            x       y       z     vdW  Elec       q    Type
                         _______ _______ _______ _____ _____    ______ ____

>  <TORSDO>
F 6

$$$$
=
 OpenBabel11052418493D

 34 38  0  0  1  0  0  0  0  0999 V2000
  187.1790  177.2080  146.1190 C   0  0  0  0  0  0  0  0  0  0  0  0
  186.9850  178.0700  143.7850 C   0  0  0  0  0  2  0  0  0  0  0  0
  188.2620  176.0280  144.2310 N   0  0  0  0  0  0  0  0  0  0  0  0
  189.3730  175.3430  142.1500 C   0  0  2  0  0  3  0  0  0  0  0  0
  184.7260  177.8410  146.0370 C   0  0  0  0  0  2  0  0  0  0  0  0
  184.8810  179.3510  145.0330 S   0  0  0  0  0  0  0  0  0  0  0  0
  186.9790  175.2900  142.3820 O   0  0  0  0  0  1  0  0  0  0  0  0
  187.0980  176.8230  144.6540 C   0  0  1  0  0  3  0  0  0  0  0  0
  185.9720  177.6530  146.8930 C   0  0  0  0  0  2  0  0  0  0  0  0
  189.5430  176.2080  144.8730 C   0  0  0  0  0  0  0  0  0  0  0  0
  188.3570  177.2320  146.7430 C   0  0  0  0  0  3  0  0  0  0  0  0
  185.5280  178.4550  143.5860 C   0  0  0  0  0  2  0  0  0  0  0  0
  190.6740  175.3290  142.9060 C   0  0  0  0  0  3  0  0  0  0  0  0
  190.7820  175.7530  144.1740 C   0  0  0  0  0  0  0  0  0  0  0  0
  188.1770  175.1150  143.0840 C   0  0  2  0  0  3  0  0  0  0  0  0
  189.5890  176.7930  146.0730 C   0  0  0  0  0  3  0  0  0  0  0  0
  194.2030  176.7840  145.4790 C   0  0  0  0  0  0  0  0  0  0  0  0
  194.6120  175.6190  146.1320 C   0  0  0  0  0  3  0  0  0  0  0  0
  192.1200  175.7050  144.8260 C   0  0  0  0  0  0  0  0  0  0  0  0
  193.7820  174.4960  146.1380 C   0  0  0  0  0  3  0  0  0  0  0  0
  192.9650  176.8260  144.8330 C   0  0  0  0  0  3  0  0  0  0  0  0
  192.5440  174.5400  145.4920 C   0  0  0  0  0  3  0  0  0  0  0  0
  195.2350  178.1970  145.4790 Cl  0  0  0  0  0  0  0  0  0  0  0  0
  189.4020  174.4100  141.0170 N   0  0  0  0  0  2  0  0  0  0  0  0
  190.6310  173.6190  141.0200 C   0  0  0  0  0  2  0  0  0  0  0  0
  191.1410  173.4260  139.6040 C   0  0  0  0  0  2  0  0  0  0  0  0
  192.4930  172.7320  139.6380 C   0  0  0  0  0  2  0  0  0  0  0  0
  193.8090  174.9200  137.8910 S   0  0  0  0  0  0  0  0  0  0  0  0
  193.5000  173.6100  140.2240 N   0  0  0  0  0  0  0  0  0  0  0  0
  194.1050  174.6910  139.4860 C   0  0  0  0  0  0  0  0  0  0  0  0
  194.9000  175.5930  141.6390 C   0  0  0  0  0  3  0  0  0  0  0  0
  194.3670  174.5530  142.2960 C   0  0  0  0  0  3  0  0  0  0  0  0
  194.0080  173.2910  141.5570 C   0  0  0  0  0  2  0  0  0  0  0  0
  195.1570  175.5260  140.1570 C   0  0  0  0  0  2  0  0  0  0  0  0
  1 11  2  0  0  0  0
  1  9  1  0  0  0  0
  3  8  1  0  0  0  0
  3 10  1  0  0  0  0
  4 24  1  6  0  0  0
  4 13  1  0  0  0  0
  4 15  1  0  0  0  0
  5  9  1  0  0  0  0
  6  5  1  0  0  0  0
  8  2  1  6  0  0  0
  8  1  1  0  0  0  0
 10 16  2  0  0  0  0
 12  2  1  0  0  0  0
 12  6  1  0  0  0  0
 13 14  2  0  0  0  0
 14 19  1  0  0  0  0
 14 10  1  0  0  0  0
 15  7  1  6  0  0  0
 15  3  1  0  0  0  0
 16 11  1  0  0  0  0
 17 18  1  0  0  0  0
 18 20  2  0  0  0  0
 19 21  1  0  0  0  0
 19 22  2  0  0  0  0
 21 17  2  0  0  0  0
 22 20  1  0  0  0  0
 23 17  1  0  0  0  0
 24 25  1  0  0  0  0
 26 27  1  0  0  0  0
 26 25  1  0  0  0  0
 27 29  1  0  0  0  0
 28 30  2  0  0  0  0
 29 33  1  0  0  0  0
 30 34  1  0  0  0  0
 30 29  1  0  0  0  0
 31 32  2  0  0  0  0
 33 32  1  0  0  0  0
 34 31  1  0  0  0  0
M  END
>  <MODEL>
7

>  <REMARK>
 VINA RESULT:      -7.2      2.831      4.819
  Name = 
  6 active torsions:
  status: ('A' for Active; 'I' for Inactive)
    1  A    between atoms: C_3  and  N_13
    2  A    between atoms: C_3  and  C_17
    3  A    between atoms: C_5  and  N_18
    4  A    between atoms: C_12  and  C_28
    5  A    between atoms: C_17  and  C_29
    6  A    between atoms: N_18  and  C_29
                            x       y       z     vdW  Elec       q    Type
                         _______ _______ _______ _____ _____    ______ ____

>  <TORSDO>
F 6

$$$$
=
 OpenBabel11052418493D

 34 38  0  0  1  0  0  0  0  0999 V2000
  191.6830  173.4600  140.4260 C   0  0  0  0  0  0  0  0  0  0  0  0
  189.6190  172.9900  141.7470 C   0  0  0  0  0  2  0  0  0  0  0  0
  191.3640  174.4350  142.6790 N   0  0  0  0  0  0  0  0  0  0  0  0
  190.7710  174.9590  145.0040 C   0  0  2  0  0  3  0  0  0  0  0  0
  189.9010  173.6780  138.6370 C   0  0  0  0  0  2  0  0  0  0  0  0
  188.8110  172.3300  139.1910 S   0  0  0  0  0  0  0  0  0  0  0  0
  189.4620  175.7630  143.1540 O   0  0  0  0  0  1  0  0  0  0  0  0
  190.6980  174.0200  141.4340 C   0  0  1  0  0  3  0  0  0  0  0  0
  191.3500  173.3460  138.9660 C   0  0  0  0  0  2  0  0  0  0  0  0
  192.5690  173.7720  143.1200 C   0  0  0  0  0  0  0  0  0  0  0  0
  192.8590  172.9800  140.8320 C   0  0  0  0  0  3  0  0  0  0  0  0
  188.4500  173.1280  140.7860 C   0  0  0  0  0  2  0  0  0  0  0  0
  192.1300  174.4580  145.4130 C   0  0  0  0  0  3  0  0  0  0  0  0
  192.9780  173.8760  144.5530 C   0  0  0  0  0  0  0  0  0  0  0  0
  190.7670  175.4540  143.5520 C   0  0  2  0  0  3  0  0  0  0  0  0
  193.2810  173.0670  142.2370 C   0  0  0  0  0  3  0  0  0  0  0  0
  195.7730  171.6150  145.7950 C   0  0  0  0  0  0  0  0  0  0  0  0
  196.8170  172.5290  145.9560 C   0  0  0  0  0  3  0  0  0  0  0  0
  194.2960  173.4070  145.0650 C   0  0  0  0  0  0  0  0  0  0  0  0
  196.6090  173.8800  145.6730 C   0  0  0  0  0  3  0  0  0  0  0  0
  194.5230  172.0510  145.3500 C   0  0  0  0  0  3  0  0  0  0  0  0
  195.3580  174.3150  145.2280 C   0  0  0  0  0  3  0  0  0  0  0  0
  196.0330  169.9190  146.1370 Cl  0  0  0  0  0  0  0  0  0  0  0  0
  190.2610  175.9580  145.9520 N   0  0  0  0  0  2  0  0  0  0  0  0
  189.3670  175.3440  146.9320 C   0  0  0  0  0  2  0  0  0  0  0  0
  188.0010  176.0030  146.8890 C   0  0  0  0  0  2  0  0  0  0  0  0
  188.0340  177.1850  145.9340 C   0  0  0  0  0  2  0  0  0  0  0  0
  186.7860  178.2090  143.2940 S   0  0  0  0  0  0  0  0  0  0  0  0
  186.7650  177.9030  145.9710 N   0  0  0  0  0  0  0  0  0  0  0  0
  186.0950  178.3500  144.7740 C   0  0  0  0  0  0  0  0  0  0  0  0
  184.0650  178.6660  146.1370 C   0  0  0  0  0  3  0  0  0  0  0  0
  184.7240  178.2900  147.2430 C   0  0  0  0  0  3  0  0  0  0  0  0
  186.2290  178.3010  147.2710 C   0  0  0  0  0  2  0  0  0  0  0  0
  184.8070  179.1100  144.9050 C   0  0  0  0  0  2  0  0  0  0  0  0
  1 11  2  0  0  0  0
  1  8  1  0  0  0  0
  3 10  1  0  0  0  0
  3 15  1  0  0  0  0
  4 13  1  0  0  0  0
  4 24  1  1  0  0  0
  5  9  1  0  0  0  0
  5  6  1  0  0  0  0
  6 12  1  0  0  0  0
  8  2  1  1  0  0  0
  8  3  1  0  0  0  0
  9  1  1  0  0  0  0
 10 14  1  0  0  0  0
 11 16  1  0  0  0  0
 12  2  1  0  0  0  0
 14 19  1  0  0  0  0
 14 13  2  0  0  0  0
 15  7  1  6  0  0  0
 15  4  1  0  0  0  0
 16 10  2  0  0  0  0
 17 18  1  0  0  0  0
 17 23  1  0  0  0  0
 19 22  2  0  0  0  0
 19 21  1  0  0  0  0
 20 18  2  0  0  0  0
 21 17  2  0  0  0  0
 22 20  1  0  0  0  0
 24 25  1  0  0  0  0
 26 25  1  0  0  0  0
 27 29  1  0  0  0  0
 27 26  1  0  0  0  0
 28 30  2  0  0  0  0
 29 33  1  0  0  0  0
 30 34  1  0  0  0  0
 30 29  1  0  0  0  0
 31 32  2  0  0  0  0
 32 33  1  0  0  0  0
 34 31  1  0  0  0  0
M  END
>  <MODEL>
8

>  <REMARK>
 VINA RESULT:      -7.1      3.269      6.977
  Name = 
  6 active torsions:
  status: ('A' for Active; 'I' for Inactive)
    1  A    between atoms: C_3  and  N_13
    2  A    between atoms: C_3  and  C_17
    3  A    between atoms: C_5  and  N_18
    4  A    between atoms: C_12  and  C_28
    5  A    between atoms: C_17  and  C_29
    6  A    between atoms: N_18  and  C_29
                            x       y       z     vdW  Elec       q    Type
                         _______ _______ _______ _____ _____    ______ ____

>  <TORSDO>
F 6

$$$$
=
 OpenBabel11052418493D

 34 38  0  0  1  0  0  0  0  0999 V2000
  193.0900  176.2250  144.8390 C   0  0  0  0  0  0  0  0  0  0  0  0
  192.6690  173.7760  144.6080 C   0  0  0  0  0  2  0  0  0  0  0  0
  191.1620  175.3820  143.5350 N   0  0  0  0  0  0  0  0  0  0  0  0
  189.2650  174.1440  142.5850 C   0  0  2  0  0  3  0  0  0  0  0  0
  195.4360  175.3660  144.4170 C   0  0  0  0  0  2  0  0  0  0  0  0
  195.3220  173.8200  145.3700 S   0  0  0  0  0  0  0  0  0  0  0  0
  191.4970  173.8900  141.7260 O   0  0  0  0  0  1  0  0  0  0  0  0
  192.5590  175.1350  143.9270 C   0  0  1  0  0  3  0  0  0  0  0  0
  194.5610  176.4380  145.0530 C   0  0  0  0  0  2  0  0  0  0  0  0
  190.2710  176.1030  144.4130 C   0  0  0  0  0  0  0  0  0  0  0  0
  192.2460  176.9840  145.5400 C   0  0  0  0  0  3  0  0  0  0  0  0
  194.0130  173.1330  144.3090 C   0  0  0  0  0  2  0  0  0  0  0  0
  188.3470  175.0580  143.3510 C   0  0  0  0  0  3  0  0  0  0  0  0
  188.7950  175.9650  144.2310 C   0  0  0  0  0  0  0  0  0  0  0  0
  190.6150  174.8140  142.2950 C   0  0  2  0  0  3  0  0  0  0  0  0
  190.7910  176.8640  145.3800 C   0  0  0  0  0  3  0  0  0  0  0  0
  186.2340  178.6800  144.9680 C   0  0  0  0  0  0  0  0  0  0  0  0
  185.8620  178.3600  146.2750 C   0  0  0  0  0  3  0  0  0  0  0  0
  187.7990  176.8150  144.9420 C   0  0  0  0  0  0  0  0  0  0  0  0
  186.4500  177.2720  146.9210 C   0  0  0  0  0  3  0  0  0  0  0  0
  187.1940  177.9100  144.3050 C   0  0  0  0  0  3  0  0  0  0  0  0
  187.4110  176.5030  146.2580 C   0  0  0  0  0  3  0  0  0  0  0  0
  185.4890  180.0360  144.1500 Cl  0  0  0  0  0  0  0  0  0  0  0  0
  188.6140  173.6200  141.3780 N   0  0  0  0  0  2  0  0  0  0  0  0
  188.4160  174.6770  140.3880 C   0  0  0  0  0  2  0  0  0  0  0  0
  188.4400  174.1000  138.9850 C   0  0  0  0  0  2  0  0  0  0  0  0
  188.4040  172.5820  139.0560 C   0  0  0  0  0  2  0  0  0  0  0  0
  190.6990  170.7350  140.0050 S   0  0  0  0  0  0  0  0  0  0  0  0
  189.3160  172.0060  138.0730 N   0  0  0  0  0  0  0  0  0  0  0  0
  190.3650  171.0860  138.4390 C   0  0  0  0  0  0  0  0  0  0  0  0
  190.5460  170.4870  136.0540 C   0  0  0  0  0  3  0  0  0  0  0  0
  189.6000  171.3820  135.7360 C   0  0  0  0  0  3  0  0  0  0  0  0
  189.2460  172.4880  136.6950 C   0  0  0  0  0  2  0  0  0  0  0  0
  191.2780  170.5660  137.3670 C   0  0  0  0  0  2  0  0  0  0  0  0
  1  9  1  0  0  0  0
  1 11  2  0  0  0  0
  3  8  1  0  0  0  0
  3 10  1  0  0  0  0
  4 24  1  6  0  0  0
  4 13  1  0  0  0  0
  5  9  1  0  0  0  0
  5  6  1  0  0  0  0
  8  2  1  1  0  0  0
  8  1  1  0  0  0  0
 10 16  2  0  0  0  0
 12  2  1  0  0  0  0
 12  6  1  0  0  0  0
 13 14  2  0  0  0  0
 14 10  1  0  0  0  0
 14 19  1  0  0  0  0
 15  7  1  1  0  0  0
 15  4  1  0  0  0  0
 15  3  1  0  0  0  0
 16 11  1  0  0  0  0
 17 18  1  0  0  0  0
 18 20  2  0  0  0  0
 19 22  2  0  0  0  0
 21 19  1  0  0  0  0
 21 17  2  0  0  0  0
 22 20  1  0  0  0  0
 23 17  1  0  0  0  0
 25 24  1  0  0  0  0
 26 27  1  0  0  0  0
 26 25  1  0  0  0  0
 29 30  1  0  0  0  0
 29 27  1  0  0  0  0
 30 28  2  0  0  0  0
 31 34  1  0  0  0  0
 32 31  2  0  0  0  0
 32 33  1  0  0  0  0
 33 29  1  0  0  0  0
 34 30  1  0  0  0  0
M  END
>  <MODEL>
9

>  <REMARK>
 VINA RESULT:      -7.0      3.819      7.718
  Name = 
  6 active torsions:
  status: ('A' for Active; 'I' for Inactive)
    1  A    between atoms: C_3  and  N_13
    2  A    between atoms: C_3  and  C_17
    3  A    between atoms: C_5  and  N_18
    4  A    between atoms: C_12  and  C_28
    5  A    between atoms: C_17  and  C_29
    6  A    between atoms: N_18  and  C_29
                            x       y       z     vdW  Elec       q    Type
                         _______ _______ _______ _____ _____    ______ ____

>  <TORSDO>
F 6

$$$$
