=
 OpenBabel11052417503D

 31 35  0  0  0  0  0  0  0  0999 V2000
  187.4830  177.2420  144.4680 C   0  0  0  0  0  0  0  0  0  0  0  0
  186.5330  177.6890  145.4120 C   0  0  0  0  0  0  0  0  0  0  0  0
  191.9210  175.2730  142.3880 O   0  0  0  0  0  0  0  0  0  0  0  0
  192.0430  175.2920  143.6410 C   0  0  0  0  0  0  0  0  0  0  0  0
  184.3670  178.6250  146.0040 C   0  0  0  0  0  0  0  0  0  0  0  0
  187.2810  177.2490  143.0800 C   0  0  0  0  0  0  0  0  0  0  0  0
  186.5160  177.4560  141.0940 N   0  0  0  0  0  0  0  0  0  0  0  0
  185.2770  178.1930  145.0370 C   0  0  0  0  0  3  0  0  0  0  0  0
  189.7080  176.2870  143.9860 C   0  0  0  0  0  0  0  0  0  0  0  0
  188.0700  177.1490  147.1850 N   0  0  0  0  0  0  0  0  0  0  0  0
  183.1590  179.1080  145.6280 F   0  0  0  0  0  0  0  0  0  0  0  0
  189.4360  176.3230  142.6450 N   0  0  0  0  0  0  0  0  0  0  0  0
  188.7380  176.7440  144.9210 C   0  0  0  0  0  0  0  0  0  0  0  0
  190.9690  175.7860  144.4560 N   0  0  0  0  0  2  0  0  0  0  0  0
  186.2100  177.6500  142.3740 N   0  0  0  0  0  0  0  0  0  0  0  0
  184.7010  178.5620  147.3580 C   0  0  0  0  0  3  0  0  0  0  0  0
  188.2410  176.8000  142.2250 C   0  0  0  0  0  0  0  0  0  0  0  0
  187.7550  176.9250  140.9450 C   0  0  0  0  0  3  0  0  0  0  0  0
  188.9980  176.7120  146.2950 C   0  0  0  0  0  3  0  0  0  0  0  0
  186.8630  177.6290  146.7890 C   0  0  0  0  0  0  0  0  0  0  0  0
  185.9470  178.0650  147.7500 C   0  0  0  0  0  3  0  0  0  0  0  0
  195.7060  174.0400  145.5150 C   0  0  0  0  0  0  0  0  0  0  0  0
  194.3290  175.7310  144.4790 C   0  0  0  0  0  3  0  0  0  0  0  0
  192.2650  172.2080  144.5720 Cl  0  0  0  0  0  0  0  0  0  0  0  0
  196.9820  173.6340  146.1590 C   0  0  0  0  0  1  0  0  0  0  0  0
  195.5280  175.3520  145.0840 C   0  0  0  0  0  3  0  0  0  0  0  0
  193.4770  173.4720  144.7360 C   0  0  0  0  0  0  0  0  0  0  0  0
  193.2860  174.8080  144.2940 C   0  0  0  0  0  0  0  0  0  0  0  0
  194.6840  173.1060  145.3410 C   0  0  0  0  0  3  0  0  0  0  0  0
  185.5990  177.7290  140.0030 C   0  0  0  0  0  2  0  0  0  0  0  0
  184.5280  178.4900  140.4710 O   0  0  0  0  0  1  0  0  0  0  0  0
  1 13  2  0  0  0  0
  1  2  1  0  0  0  0
  2 20  1  0  0  0  0
  3  4  2  0  0  0  0
  4 28  1  0  0  0  0
  4 14  1  0  0  0  0
  5 16  2  0  0  0  0
  6  1  1  0  0  0  0
  7 15  1  0  0  0  0
  8  2  2  0  0  0  0
  8  5  1  0  0  0  0
  9 14  1  0  0  0  0
  9 13  1  0  0  0  0
 11  5  1  0  0  0  0
 12  9  2  0  0  0  0
 13 19  1  0  0  0  0
 15  6  2  0  0  0  0
 16 21  1  0  0  0  0
 17 12  1  0  0  0  0
 17  6  1  0  0  0  0
 18  7  1  0  0  0  0
 18 17  2  0  0  0  0
 19 10  2  0  0  0  0
 20 10  1  0  0  0  0
 20 21  2  0  0  0  0
 22 25  1  0  0  0  0
 23 26  1  0  0  0  0
 24 27  1  0  0  0  0
 26 22  2  0  0  0  0
 27 29  2  0  0  0  0
 28 23  2  0  0  0  0
 28 27  1  0  0  0  0
 29 22  1  0  0  0  0
 30 31  1  0  0  0  0
 30  7  1  0  0  0  0
M  END
>  <MODEL>
1

>  <REMARK>
 VINA RESULT:      -9.4      0.000      0.000
  Name = 
  2 active torsions:
  status: ('A' for Active; 'I' for Inactive)
    1  A    between atoms: C_2  and  N_13
    2  A    between atoms: C_9  and  C_22
                            x       y       z     vdW  Elec       q    Type
                         _______ _______ _______ _____ _____    ______ ____

>  <TORSDO>
F 2

$$$$
=
 OpenBabel11052417503D

 31 35  0  0  0  0  0  0  0  0999 V2000
  187.5360  177.1450  144.5370 C   0  0  0  0  0  0  0  0  0  0  0  0
  186.5890  177.5940  145.4840 C   0  0  0  0  0  0  0  0  0  0  0  0
  191.9610  175.1570  142.4480 O   0  0  0  0  0  0  0  0  0  0  0  0
  192.0830  175.1700  143.7010 C   0  0  0  0  0  0  0  0  0  0  0  0
  184.4280  178.5400  146.0800 C   0  0  0  0  0  0  0  0  0  0  0  0
  187.3340  177.1590  143.1490 C   0  0  0  0  0  0  0  0  0  0  0  0
  186.5690  177.3790  141.1650 N   0  0  0  0  0  0  0  0  0  0  0  0
  185.3360  178.1070  145.1110 C   0  0  0  0  0  3  0  0  0  0  0  0
  189.7540  176.1780  144.0510 C   0  0  0  0  0  0  0  0  0  0  0  0
  188.1230  177.0360  147.2530 N   0  0  0  0  0  0  0  0  0  0  0  0
  183.2230  179.0320  145.7060 F   0  0  0  0  0  0  0  0  0  0  0  0
  189.4820  176.2220  142.7100 N   0  0  0  0  0  0  0  0  0  0  0  0
  188.7880  176.6380  144.9880 C   0  0  0  0  0  0  0  0  0  0  0  0
  191.0130  175.6680  144.5190 N   0  0  0  0  0  2  0  0  0  0  0  0
  186.2650  177.5700  142.4450 N   0  0  0  0  0  0  0  0  0  0  0  0
  184.7620  178.4690  147.4340 C   0  0  0  0  0  3  0  0  0  0  0  0
  188.2900  176.7080  142.2920 C   0  0  0  0  0  0  0  0  0  0  0  0
  187.8050  176.8410  141.0130 C   0  0  0  0  0  3  0  0  0  0  0  0
  189.0480  176.5980  146.3620 C   0  0  0  0  0  3  0  0  0  0  0  0
  186.9190  177.5260  146.8600 C   0  0  0  0  0  0  0  0  0  0  0  0
  186.0050  177.9630  147.8230 C   0  0  0  0  0  3  0  0  0  0  0  0
  195.6410  173.5900  145.5290 C   0  0  0  0  0  0  0  0  0  0  0  0
  193.6260  173.3100  144.2280 C   0  0  0  0  0  3  0  0  0  0  0  0
  193.9670  177.2290  145.3260 Cl  0  0  0  0  0  0  0  0  0  0  0  0
  196.8630  173.0170  146.1510 C   0  0  0  0  0  1  0  0  0  0  0  0
  194.7740  172.7700  144.8110 C   0  0  0  0  0  3  0  0  0  0  0  0
  194.2140  175.5040  145.0860 C   0  0  0  0  0  0  0  0  0  0  0  0
  193.3240  174.6760  144.3510 C   0  0  0  0  0  0  0  0  0  0  0  0
  195.3600  174.9500  145.6640 C   0  0  0  0  0  3  0  0  0  0  0  0
  185.6540  177.6620  140.0750 C   0  0  0  0  0  2  0  0  0  0  0  0
  184.6710  178.5520  140.5080 O   0  0  0  0  0  1  0  0  0  0  0  0
  1 13  2  0  0  0  0
  1  2  1  0  0  0  0
  2 20  1  0  0  0  0
  3  4  2  0  0  0  0
  4 28  1  0  0  0  0
  4 14  1  0  0  0  0
  5 16  2  0  0  0  0
  6  1  1  0  0  0  0
  7 15  1  0  0  0  0
  8  2  2  0  0  0  0
  8  5  1  0  0  0  0
  9 14  1  0  0  0  0
  9 13  1  0  0  0  0
 11  5  1  0  0  0  0
 12  9  2  0  0  0  0
 13 19  1  0  0  0  0
 15  6  2  0  0  0  0
 16 21  1  0  0  0  0
 17 12  1  0  0  0  0
 17  6  1  0  0  0  0
 18  7  1  0  0  0  0
 18 17  2  0  0  0  0
 19 10  2  0  0  0  0
 20 10  1  0  0  0  0
 20 21  2  0  0  0  0
 22 29  1  0  0  0  0
 22 25  1  0  0  0  0
 23 28  2  0  0  0  0
 23 26  1  0  0  0  0
 26 22  2  0  0  0  0
 27 24  1  0  0  0  0
 27 29  2  0  0  0  0
 28 27  1  0  0  0  0
 30 31  1  0  0  0  0
 30  7  1  0  0  0  0
M  END
>  <MODEL>
2

>  <REMARK>
 VINA RESULT:      -9.3      1.006      1.298
  Name = 
  2 active torsions:
  status: ('A' for Active; 'I' for Inactive)
    1  A    between atoms: C_2  and  N_13
    2  A    between atoms: C_9  and  C_22
                            x       y       z     vdW  Elec       q    Type
                         _______ _______ _______ _____ _____    ______ ____

>  <TORSDO>
F 2

$$$$
=
 OpenBabel11052417503D

 31 35  0  0  0  0  0  0  0  0999 V2000
  187.7340  177.0230  143.8710 C   0  0  0  0  0  0  0  0  0  0  0  0
  187.0640  177.2410  142.6470 C   0  0  0  0  0  0  0  0  0  0  0  0
  191.4350  175.6050  147.3620 O   0  0  0  0  0  0  0  0  0  0  0  0
  191.8550  175.3380  146.2050 C   0  0  0  0  0  0  0  0  0  0  0  0
  185.1560  178.0090  141.3480 C   0  0  0  0  0  0  0  0  0  0  0  0
  187.2050  177.3460  145.1300 C   0  0  0  0  0  0  0  0  0  0  0  0
  185.9980  177.9990  146.7680 N   0  0  0  0  0  0  0  0  0  0  0  0
  185.7820  177.8100  142.5800 C   0  0  0  0  0  3  0  0  0  0  0  0
  189.7250  176.2150  145.0850 C   0  0  0  0  0  0  0  0  0  0  0  0
  188.9510  176.3150  141.4730 N   0  0  0  0  0  0  0  0  0  0  0  0
  183.9190  178.5600  141.2980 F   0  0  0  0  0  0  0  0  0  0  0  0
  189.1420  176.5580  146.2750 N   0  0  0  0  0  0  0  0  0  0  0  0
  189.0330  176.4400  143.8630 C   0  0  0  0  0  0  0  0  0  0  0  0
  191.0350  175.6270  145.0630 N   0  0  0  0  0  2  0  0  0  0  0  0
  186.0220  177.9030  145.4430 N   0  0  0  0  0  0  0  0  0  0  0  0
  185.8010  177.6390  140.1670 C   0  0  0  0  0  3  0  0  0  0  0  0
  187.9060  177.1100  146.2720 C   0  0  0  0  0  0  0  0  0  0  0  0
  187.1400  177.5320  147.3310 C   0  0  0  0  0  3  0  0  0  0  0  0
  189.6140  176.0970  142.6380 C   0  0  0  0  0  3  0  0  0  0  0  0
  187.7110  176.8690  141.4430 C   0  0  0  0  0  0  0  0  0  0  0  0
  187.0760  177.0700  140.2140 C   0  0  0  0  0  3  0  0  0  0  0  0
  195.6580  173.4250  145.5890 C   0  0  0  0  0  0  0  0  0  0  0  0
  193.2450  173.3620  145.6710 C   0  0  0  0  0  3  0  0  0  0  0  0
  194.5080  177.1490  146.5380 Cl  0  0  0  0  0  0  0  0  0  0  0  0
  196.9570  172.7390  145.3710 C   0  0  0  0  0  1  0  0  0  0  0  0
  194.4650  172.7160  145.4650 C   0  0  0  0  0  3  0  0  0  0  0  0
  194.4150  175.4410  146.1270 C   0  0  0  0  0  0  0  0  0  0  0  0
  193.1940  174.7270  146.0030 C   0  0  0  0  0  0  0  0  0  0  0  0
  195.6300  174.7800  145.9180 C   0  0  0  0  0  3  0  0  0  0  0  0
  184.8970  178.5920  147.5070 C   0  0  0  0  0  2  0  0  0  0  0  0
  183.7480  178.5900  146.7150 O   0  0  0  0  0  1  0  0  0  0  0  0
  1  6  1  0  0  0  0
  2  1  2  0  0  0  0
  4  3  2  0  0  0  0
  5  8  2  0  0  0  0
  6 15  2  0  0  0  0
  6 17  1  0  0  0  0
  7 18  1  0  0  0  0
  7 30  1  0  0  0  0
  8  2  1  0  0  0  0
  9 12  2  0  0  0  0
 10 19  1  0  0  0  0
 11  5  1  0  0  0  0
 13  1  1  0  0  0  0
 13  9  1  0  0  0  0
 14  9  1  0  0  0  0
 14  4  1  0  0  0  0
 15  7  1  0  0  0  0
 16 21  2  0  0  0  0
 16  5  1  0  0  0  0
 17 12  1  0  0  0  0
 17 18  2  0  0  0  0
 19 13  2  0  0  0  0
 20 10  2  0  0  0  0
 20  2  1  0  0  0  0
 21 20  1  0  0  0  0
 22 29  1  0  0  0  0
 23 28  2  0  0  0  0
 25 22  1  0  0  0  0
 26 22  2  0  0  0  0
 26 23  1  0  0  0  0
 27 24  1  0  0  0  0
 28 27  1  0  0  0  0
 28  4  1  0  0  0  0
 29 27  2  0  0  0  0
 31 30  1  0  0  0  0
M  END
>  <MODEL>
3

>  <REMARK>
 VINA RESULT:      -8.9      2.340      4.262
  Name = 
  2 active torsions:
  status: ('A' for Active; 'I' for Inactive)
    1  A    between atoms: C_2  and  N_13
    2  A    between atoms: C_9  and  C_22
                            x       y       z     vdW  Elec       q    Type
                         _______ _______ _______ _____ _____    ______ ____

>  <TORSDO>
F 2

$$$$
=
 OpenBabel11052417503D

 31 35  0  0  0  0  0  0  0  0999 V2000
  187.1110  177.6610  143.5700 C   0  0  0  0  0  0  0  0  0  0  0  0
  186.1330  177.8430  142.5680 C   0  0  0  0  0  0  0  0  0  0  0  0
  191.7560  176.7670  145.9200 O   0  0  0  0  0  0  0  0  0  0  0  0
  191.9240  176.7150  144.6720 C   0  0  0  0  0  0  0  0  0  0  0  0
  183.8540  178.2900  141.8450 C   0  0  0  0  0  0  0  0  0  0  0  0
  186.8540  177.7330  144.9470 C   0  0  0  0  0  0  0  0  0  0  0  0
  185.9830  177.9390  146.8880 N   0  0  0  0  0  0  0  0  0  0  0  0
  184.7890  178.1160  142.8680 C   0  0  0  0  0  3  0  0  0  0  0  0
  189.4570  177.2010  144.1860 C   0  0  0  0  0  0  0  0  0  0  0  0
  187.8170  177.4780  140.8870 N   0  0  0  0  0  0  0  0  0  0  0  0
  182.5600  178.5540  142.1490 F   0  0  0  0  0  0  0  0  0  0  0  0
  189.1280  177.2880  145.5120 N   0  0  0  0  0  0  0  0  0  0  0  0
  188.4560  177.3850  143.1930 C   0  0  0  0  0  0  0  0  0  0  0  0
  190.8100  176.9240  143.7920 N   0  0  0  0  0  2  0  0  0  0  0  0
  185.7000  177.9800  145.5900 N   0  0  0  0  0  0  0  0  0  0  0  0
  184.2490  178.1890  140.5100 C   0  0  0  0  0  3  0  0  0  0  0  0
  187.8470  177.5490  145.8610 C   0  0  0  0  0  0  0  0  0  0  0  0
  187.2960  177.6850  147.1130 C   0  0  0  0  0  3  0  0  0  0  0  0
  188.7740  177.3010  141.8330 C   0  0  0  0  0  3  0  0  0  0  0  0
  186.5250  177.7430  141.2100 C   0  0  0  0  0  0  0  0  0  0  0  0
  185.5820  177.9170  140.1930 C   0  0  0  0  0  3  0  0  0  0  0  0
  195.7320  175.8720  142.8590 C   0  0  0  0  0  0  0  0  0  0  0  0
  193.3220  175.9860  142.7650 C   0  0  0  0  0  3  0  0  0  0  0  0
  194.5660  177.1610  146.4740 Cl  0  0  0  0  0  0  0  0  0  0  0  0
  197.0340  175.5730  142.2090 C   0  0  0  0  0  1  0  0  0  0  0  0
  194.5440  175.7050  142.1520 C   0  0  0  0  0  3  0  0  0  0  0  0
  194.4810  176.6050  144.8070 C   0  0  0  0  0  0  0  0  0  0  0  0
  193.2640  176.4390  144.0940 C   0  0  0  0  0  0  0  0  0  0  0  0
  195.6980  176.3200  144.1800 C   0  0  0  0  0  3  0  0  0  0  0  0
  185.0040  178.1970  147.9290 C   0  0  0  0  0  2  0  0  0  0  0  0
  183.7750  178.5120  147.3470 O   0  0  0  0  0  1  0  0  0  0  0  0
  1  6  1  0  0  0  0
  2  8  1  0  0  0  0
  2  1  2  0  0  0  0
  4  3  2  0  0  0  0
  5 11  1  0  0  0  0
  5  8  2  0  0  0  0
  6 15  2  0  0  0  0
  6 17  1  0  0  0  0
  7 18  1  0  0  0  0
  7 30  1  0  0  0  0
  9 12  2  0  0  0  0
 10 20  2  0  0  0  0
 10 19  1  0  0  0  0
 12 17  1  0  0  0  0
 13  1  1  0  0  0  0
 13  9  1  0  0  0  0
 14  9  1  0  0  0  0
 14  4  1  0  0  0  0
 15  7  1  0  0  0  0
 16  5  1  0  0  0  0
 17 18  2  0  0  0  0
 19 13  2  0  0  0  0
 20  2  1  0  0  0  0
 21 16  2  0  0  0  0
 21 20  1  0  0  0  0
 22 29  1  0  0  0  0
 23 28  2  0  0  0  0
 25 22  1  0  0  0  0
 26 23  1  0  0  0  0
 26 22  2  0  0  0  0
 27 24  1  0  0  0  0
 28  4  1  0  0  0  0
 28 27  1  0  0  0  0
 29 27  2  0  0  0  0
 31 30  1  0  0  0  0
M  END
>  <MODEL>
4

>  <REMARK>
 VINA RESULT:      -8.3      2.489      4.362
  Name = 
  2 active torsions:
  status: ('A' for Active; 'I' for Inactive)
    1  A    between atoms: C_2  and  N_13
    2  A    between atoms: C_9  and  C_22
                            x       y       z     vdW  Elec       q    Type
                         _______ _______ _______ _____ _____    ______ ____

>  <TORSDO>
F 2

$$$$
=
 OpenBabel11052417503D

 31 35  0  0  0  0  0  0  0  0999 V2000
  187.8880  176.5760  144.4390 C   0  0  0  0  0  0  0  0  0  0  0  0
  186.7680  177.3490  144.8130 C   0  0  0  0  0  0  0  0  0  0  0  0
  191.1060  173.4660  141.6340 O   0  0  0  0  0  0  0  0  0  0  0  0
  190.0570  173.6610  140.9640 C   0  0  0  0  0  0  0  0  0  0  0  0
  185.5660  178.7780  146.3730 C   0  0  0  0  0  0  0  0  0  0  0  0
  189.0290  176.4000  145.2370 C   0  0  0  0  0  0  0  0  0  0  0  0
  190.5090  176.4350  146.7790 N   0  0  0  0  0  0  0  0  0  0  0  0
  186.6940  178.0230  146.0430 C   0  0  0  0  0  3  0  0  0  0  0  0
  189.0140  175.1370  142.7800 C   0  0  0  0  0  0  0  0  0  0  0  0
  185.7180  176.8050  142.7160 N   0  0  0  0  0  0  0  0  0  0  0  0
  185.5080  179.4240  147.5620 F   0  0  0  0  0  0  0  0  0  0  0  0
  190.0920  175.0140  143.6140 N   0  0  0  0  0  0  0  0  0  0  0  0
  187.8940  175.9190  143.1760 C   0  0  0  0  0  0  0  0  0  0  0  0
  189.0080  174.4800  141.5020 N   0  0  0  0  0  2  0  0  0  0  0  0
  189.3040  176.8950  146.4560 N   0  0  0  0  0  0  0  0  0  0  0  0
  184.4970  178.8670  145.4800 C   0  0  0  0  0  3  0  0  0  0  0  0
  190.0760  175.6400  144.8140 C   0  0  0  0  0  0  0  0  0  0  0  0
  191.0360  175.6620  145.7970 C   0  0  0  0  0  3  0  0  0  0  0  0
  186.7850  176.0570  142.3350 C   0  0  0  0  0  3  0  0  0  0  0  0
  185.6780  177.4460  143.9130 C   0  0  0  0  0  0  0  0  0  0  0  0
  184.5530  178.2020  144.2520 C   0  0  0  0  0  3  0  0  0  0  0  0
  189.5130  172.0490  137.0140 C   0  0  0  0  0  0  0  0  0  0  0  0
  189.4210  173.8820  138.5840 C   0  0  0  0  0  3  0  0  0  0  0  0
  190.7520  170.5390  140.5180 Cl  0  0  0  0  0  0  0  0  0  0  0  0
  189.3160  171.5180  135.6400 C   0  0  0  0  0  1  0  0  0  0  0  0
  189.2360  173.3850  137.2920 C   0  0  0  0  0  3  0  0  0  0  0  0
  190.1660  171.6930  139.3260 C   0  0  0  0  0  0  0  0  0  0  0  0
  189.8870  173.0540  139.6190 C   0  0  0  0  0  0  0  0  0  0  0  0
  189.9760  171.2090  138.0280 C   0  0  0  0  0  3  0  0  0  0  0  0
  191.1910  176.7770  148.0140 C   0  0  0  0  0  2  0  0  0  0  0  0
  192.5620  176.8750  147.7800 O   0  0  0  0  0  1  0  0  0  0  0  0
  1  2  1  0  0  0  0
  1  6  1  0  0  0  0
  2  8  1  0  0  0  0
  4 14  1  0  0  0  0
  4  3  2  0  0  0  0
  5 11  1  0  0  0  0
  6 15  2  0  0  0  0
  7 30  1  0  0  0  0
  8  5  2  0  0  0  0
  9 13  1  0  0  0  0
  9 12  2  0  0  0  0
 10 20  1  0  0  0  0
 12 17  1  0  0  0  0
 13  1  2  0  0  0  0
 14  9  1  0  0  0  0
 15  7  1  0  0  0  0
 16  5  1  0  0  0  0
 17  6  1  0  0  0  0
 17 18  2  0  0  0  0
 18  7  1  0  0  0  0
 19 10  2  0  0  0  0
 19 13  1  0  0  0  0
 20 21  1  0  0  0  0
 20  2  2  0  0  0  0
 21 16  2  0  0  0  0
 22 26  2  0  0  0  0
 22 29  1  0  0  0  0
 23 28  2  0  0  0  0
 25 22  1  0  0  0  0
 26 23  1  0  0  0  0
 27 28  1  0  0  0  0
 27 24  1  0  0  0  0
 28  4  1  0  0  0  0
 29 27  2  0  0  0  0
 31 30  1  0  0  0  0
M  END
>  <MODEL>
5

>  <REMARK>
 VINA RESULT:      -8.3      3.485      6.003
  Name = 
  2 active torsions:
  status: ('A' for Active; 'I' for Inactive)
    1  A    between atoms: C_2  and  N_13
    2  A    between atoms: C_9  and  C_22
                            x       y       z     vdW  Elec       q    Type
                         _______ _______ _______ _____ _____    ______ ____

>  <TORSDO>
F 2

$$$$
=
 OpenBabel11052417503D

 31 35  0  0  0  0  0  0  0  0999 V2000
  189.1790  176.1190  143.6150 C   0  0  0  0  0  0  0  0  0  0  0  0
  189.8170  176.2250  144.8700 C   0  0  0  0  0  0  0  0  0  0  0  0
  187.9540  174.4630  138.7520 O   0  0  0  0  0  0  0  0  0  0  0  0
  188.9120  173.7670  139.1800 C   0  0  0  0  0  0  0  0  0  0  0  0
  190.0930  177.2420  147.0630 C   0  0  0  0  0  0  0  0  0  0  0  0
  188.1120  176.9310  143.2010 C   0  0  0  0  0  0  0  0  0  0  0  0
  186.5480  178.3780  143.0340 N   0  0  0  0  0  0  0  0  0  0  0  0
  189.4340  177.1720  145.8330 C   0  0  0  0  0  3  0  0  0  0  0  0
  188.9900  175.0110  141.4180 C   0  0  0  0  0  0  0  0  0  0  0  0
  191.2810  174.4150  144.2550 N   0  0  0  0  0  0  0  0  0  0  0  0
  189.7120  178.1600  147.9830 F   0  0  0  0  0  0  0  0  0  0  0  0
  187.9520  175.8400  141.0860 N   0  0  0  0  0  0  0  0  0  0  0  0
  189.6210  175.1350  142.6860 C   0  0  0  0  0  0  0  0  0  0  0  0
  189.4450  174.0130  140.4900 N   0  0  0  0  0  2  0  0  0  0  0  0
  187.4890  177.9250  143.8570 N   0  0  0  0  0  0  0  0  0  0  0  0
  191.1450  176.3680  147.3450 C   0  0  0  0  0  3  0  0  0  0  0  0
  187.5400  176.7730  141.9750 C   0  0  0  0  0  0  0  0  0  0  0  0
  186.5290  177.6970  141.8620 C   0  0  0  0  0  3  0  0  0  0  0  0
  190.6810  174.2950  143.0430 C   0  0  0  0  0  3  0  0  0  0  0  0
  190.8850  175.3420  145.1650 C   0  0  0  0  0  0  0  0  0  0  0  0
  191.5400  175.4200  146.3980 C   0  0  0  0  0  3  0  0  0  0  0  0
  190.5770  170.5360  136.8800 C   0  0  0  0  0  0  0  0  0  0  0  0
  189.4050  171.3690  138.8200 C   0  0  0  0  0  3  0  0  0  0  0  0
  190.3600  174.5120  136.3920 Cl  0  0  0  0  0  0  0  0  0  0  0  0
  191.1440  169.4020  136.1050 C   0  0  0  0  0  1  0  0  0  0  0  0
  189.9360  170.3010  138.0930 C   0  0  0  0  0  3  0  0  0  0  0  0
  190.1590  172.9180  137.1080 C   0  0  0  0  0  0  0  0  0  0  0  0
  189.5040  172.6880  138.3470 C   0  0  0  0  0  0  0  0  0  0  0  0
  190.6870  171.8390  136.3920 C   0  0  0  0  0  3  0  0  0  0  0  0
  185.6190  179.4370  143.3870 C   0  0  0  0  0  2  0  0  0  0  0  0
  185.7470  179.7380  144.7430 O   0  0  0  0  0  1  0  0  0  0  0  0
  1  2  1  0  0  0  0
  2 20  2  0  0  0  0
  2  8  1  0  0  0  0
  3  4  2  0  0  0  0
  4 14  1  0  0  0  0
  5 16  1  0  0  0  0
  5 11  1  0  0  0  0
  6  1  1  0  0  0  0
  6 15  2  0  0  0  0
  7 30  1  0  0  0  0
  7 15  1  0  0  0  0
  8  5  2  0  0  0  0
  9 13  1  0  0  0  0
 10 20  1  0  0  0  0
 12  9  2  0  0  0  0
 12 17  1  0  0  0  0
 13 19  1  0  0  0  0
 13  1  2  0  0  0  0
 14  9  1  0  0  0  0
 17  6  1  0  0  0  0
 18 17  2  0  0  0  0
 18  7  1  0  0  0  0
 19 10  2  0  0  0  0
 20 21  1  0  0  0  0
 21 16  2  0  0  0  0
 22 26  1  0  0  0  0
 24 27  1  0  0  0  0
 25 22  1  0  0  0  0
 26 23  2  0  0  0  0
 27 28  2  0  0  0  0
 28 23  1  0  0  0  0
 28  4  1  0  0  0  0
 29 22  2  0  0  0  0
 29 27  1  0  0  0  0
 30 31  1  0  0  0  0
M  END
>  <MODEL>
6

>  <REMARK>
 VINA RESULT:      -7.9      4.484      6.159
  Name = 
  2 active torsions:
  status: ('A' for Active; 'I' for Inactive)
    1  A    between atoms: C_2  and  N_13
    2  A    between atoms: C_9  and  C_22
                            x       y       z     vdW  Elec       q    Type
                         _______ _______ _______ _____ _____    ______ ____

>  <TORSDO>
F 2

$$$$
=
 OpenBabel11052417503D

 31 35  0  0  0  0  0  0  0  0999 V2000
  187.0640  177.4030  143.4620 C   0  0  0  0  0  0  0  0  0  0  0  0
  186.0440  177.6460  142.5160 C   0  0  0  0  0  0  0  0  0  0  0  0
  191.7480  176.1380  145.5500 O   0  0  0  0  0  0  0  0  0  0  0  0
  191.8270  176.0270  144.2970 C   0  0  0  0  0  0  0  0  0  0  0  0
  183.7750  178.2900  141.9200 C   0  0  0  0  0  0  0  0  0  0  0  0
  186.9070  177.5470  144.8480 C   0  0  0  0  0  0  0  0  0  0  0  0
  186.1900  177.9030  146.8300 N   0  0  0  0  0  0  0  0  0  0  0  0
  184.7550  178.0600  142.8880 C   0  0  0  0  0  3  0  0  0  0  0  0
  189.3900  176.7360  143.9480 C   0  0  0  0  0  0  0  0  0  0  0  0
  187.5700  177.0620  140.7490 N   0  0  0  0  0  0  0  0  0  0  0  0
  182.5360  178.6900  142.2930 F   0  0  0  0  0  0  0  0  0  0  0  0
  189.1600  176.9000  145.2870 N   0  0  0  0  0  0  0  0  0  0  0  0
  188.3480  176.9840  143.0120 C   0  0  0  0  0  0  0  0  0  0  0  0
  190.6820  176.3150  143.4810 N   0  0  0  0  0  2  0  0  0  0  0  0
  185.8260  177.9270  145.5510 N   0  0  0  0  0  0  0  0  0  0  0  0
  184.0690  178.1060  140.5680 C   0  0  0  0  0  3  0  0  0  0  0  0
  187.9350  177.2970  145.7050 C   0  0  0  0  0  0  0  0  0  0  0  0
  187.4840  177.5290  146.9820 C   0  0  0  0  0  3  0  0  0  0  0  0
  188.5670  176.8230  141.6400 C   0  0  0  0  0  3  0  0  0  0  0  0
  186.3340  177.4630  141.1410 C   0  0  0  0  0  0  0  0  0  0  0  0
  185.3460  177.6940  140.1790 C   0  0  0  0  0  3  0  0  0  0  0  0
  195.4810  174.9220  142.3160 C   0  0  0  0  0  0  0  0  0  0  0  0
  193.5750  176.3800  142.5830 C   0  0  0  0  0  3  0  0  0  0  0  0
  193.3580  173.3880  145.3550 Cl  0  0  0  0  0  0  0  0  0  0  0  0
  196.7400  174.5620  141.6140 C   0  0  0  0  0  1  0  0  0  0  0  0
  194.7590  176.0450  141.9220 C   0  0  0  0  0  3  0  0  0  0  0  0
  193.8370  174.4580  144.0430 C   0  0  0  0  0  0  0  0  0  0  0  0
  193.0930  175.6010  143.6480 C   0  0  0  0  0  0  0  0  0  0  0  0
  195.0200  174.1340  143.3720 C   0  0  0  0  0  3  0  0  0  0  0  0
  185.3100  178.2900  147.9180 C   0  0  0  0  0  2  0  0  0  0  0  0
  184.0680  178.6640  147.4060 O   0  0  0  0  0  1  0  0  0  0  0  0
  1  6  1  0  0  0  0
  2  8  1  0  0  0  0
  2  1  2  0  0  0  0
  4  3  2  0  0  0  0
  5 11  1  0  0  0  0
  5  8  2  0  0  0  0
  6 15  2  0  0  0  0
  6 17  1  0  0  0  0
  7 18  1  0  0  0  0
  7 30  1  0  0  0  0
  9 12  2  0  0  0  0
 10 20  2  0  0  0  0
 10 19  1  0  0  0  0
 12 17  1  0  0  0  0
 13  1  1  0  0  0  0
 13  9  1  0  0  0  0
 14  9  1  0  0  0  0
 14  4  1  0  0  0  0
 15  7  1  0  0  0  0
 16  5  1  0  0  0  0
 17 18  2  0  0  0  0
 19 13  2  0  0  0  0
 20  2  1  0  0  0  0
 21 16  2  0  0  0  0
 21 20  1  0  0  0  0
 22 29  1  0  0  0  0
 23 28  2  0  0  0  0
 25 22  1  0  0  0  0
 26 22  2  0  0  0  0
 26 23  1  0  0  0  0
 27 24  1  0  0  0  0
 28 27  1  0  0  0  0
 28  4  1  0  0  0  0
 29 27  2  0  0  0  0
 31 30  1  0  0  0  0
M  END
>  <MODEL>
7

>  <REMARK>
 VINA RESULT:      -7.8      2.249      4.156
  Name = 
  2 active torsions:
  status: ('A' for Active; 'I' for Inactive)
    1  A    between atoms: C_2  and  N_13
    2  A    between atoms: C_9  and  C_22
                            x       y       z     vdW  Elec       q    Type
                         _______ _______ _______ _____ _____    ______ ____

>  <TORSDO>
F 2

$$$$
=
 OpenBabel11052417503D

 31 35  0  0  0  0  0  0  0  0999 V2000
  192.0180  172.4340  143.8290 C   0  0  0  0  0  0  0  0  0  0  0  0
  192.0350  171.2520  143.0580 C   0  0  0  0  0  0  0  0  0  0  0  0
  190.3050  176.8220  146.2180 O   0  0  0  0  0  0  0  0  0  0  0  0
  189.3400  176.3050  145.5960 C   0  0  0  0  0  0  0  0  0  0  0  0
  193.1670  169.3150  142.1160 C   0  0  0  0  0  0  0  0  0  0  0  0
  193.1350  172.9570  144.4990 C   0  0  0  0  0  0  0  0  0  0  0  0
  195.0710  173.3410  145.3190 N   0  0  0  0  0  0  0  0  0  0  0  0
  193.1950  170.4790  142.8880 C   0  0  0  0  0  3  0  0  0  0  0  0
  190.7670  174.3610  144.7320 C   0  0  0  0  0  0  0  0  0  0  0  0
  189.6960  171.5580  142.5750 N   0  0  0  0  0  0  0  0  0  0  0  0
  194.2930  168.5790  141.9610 F   0  0  0  0  0  0  0  0  0  0  0  0
  191.9000  174.8060  145.3580 N   0  0  0  0  0  0  0  0  0  0  0  0
  190.8050  173.1690  143.9580 C   0  0  0  0  0  0  0  0  0  0  0  0
  189.5360  175.0920  144.8540 N   0  0  0  0  0  2  0  0  0  0  0  0
  194.3920  172.4840  144.5620 N   0  0  0  0  0  0  0  0  0  0  0  0
  191.9800  168.9100  141.5020 C   0  0  0  0  0  3  0  0  0  0  0  0
  193.0480  174.1030  145.2280 C   0  0  0  0  0  0  0  0  0  0  0  0
  194.2880  174.3540  145.7640 C   0  0  0  0  0  3  0  0  0  0  0  0
  189.6570  172.6970  143.3130 C   0  0  0  0  0  3  0  0  0  0  0  0
  190.8350  170.8320  142.4310 C   0  0  0  0  0  0  0  0  0  0  0  0
  190.8160  169.6670  141.6600 C   0  0  0  0  0  3  0  0  0  0  0  0
  185.4230  178.0670  145.8100 C   0  0  0  0  0  0  0  0  0  0  0  0
  187.2280  176.7940  146.7870 C   0  0  0  0  0  3  0  0  0  0  0  0
  188.2840  177.9160  143.0040 Cl  0  0  0  0  0  0  0  0  0  0  0  0
  184.0660  178.6660  145.9110 C   0  0  0  0  0  1  0  0  0  0  0  0
  185.9530  177.3560  146.8840 C   0  0  0  0  0  3  0  0  0  0  0  0
  187.4450  177.6600  144.5290 C   0  0  0  0  0  0  0  0  0  0  0  0
  187.9940  176.9330  145.6180 C   0  0  0  0  0  0  0  0  0  0  0  0
  186.1670  178.2170  144.6400 C   0  0  0  0  0  3  0  0  0  0  0  0
  196.4700  173.1650  145.6660 C   0  0  0  0  0  2  0  0  0  0  0  0
  196.6890  171.8500  146.0750 O   0  0  0  0  0  1  0  0  0  0  0  0
  1 13  1  0  0  0  0
  1  6  1  0  0  0  0
  2  1  2  0  0  0  0
  4 28  1  0  0  0  0
  4  3  2  0  0  0  0
  5  8  2  0  0  0  0
  6 15  2  0  0  0  0
  6 17  1  0  0  0  0
  7 30  1  0  0  0  0
  7 18  1  0  0  0  0
  8  2  1  0  0  0  0
  9 14  1  0  0  0  0
  9 12  2  0  0  0  0
 10 19  1  0  0  0  0
 11  5  1  0  0  0  0
 13  9  1  0  0  0  0
 14  4  1  0  0  0  0
 15  7  1  0  0  0  0
 16 21  2  0  0  0  0
 16  5  1  0  0  0  0
 17 12  1  0  0  0  0
 17 18  2  0  0  0  0
 19 13  2  0  0  0  0
 20 10  2  0  0  0  0
 20  2  1  0  0  0  0
 21 20  1  0  0  0  0
 22 25  1  0  0  0  0
 22 26  1  0  0  0  0
 23 26  2  0  0  0  0
 24 27  1  0  0  0  0
 27 29  1  0  0  0  0
 27 28  2  0  0  0  0
 28 23  1  0  0  0  0
 29 22  2  0  0  0  0
 30 31  1  0  0  0  0
M  END
>  <MODEL>
8

>  <REMARK>
 VINA RESULT:      -7.7      4.426      9.330
  Name = 
  2 active torsions:
  status: ('A' for Active; 'I' for Inactive)
    1  A    between atoms: C_2  and  N_13
    2  A    between atoms: C_9  and  C_22
                            x       y       z     vdW  Elec       q    Type
                         _______ _______ _______ _____ _____    ______ ____

>  <TORSDO>
F 2

$$$$
=
 OpenBabel11052417503D

 31 35  0  0  0  0  0  0  0  0999 V2000
  189.1570  176.1150  143.8420 C   0  0  0  0  0  0  0  0  0  0  0  0
  189.7960  176.2650  145.0930 C   0  0  0  0  0  0  0  0  0  0  0  0
  187.9390  174.2960  139.0360 O   0  0  0  0  0  0  0  0  0  0  0  0
  188.9030  173.6210  139.4850 C   0  0  0  0  0  0  0  0  0  0  0  0
  190.0670  177.3540  147.2510 C   0  0  0  0  0  0  0  0  0  0  0  0
  188.0850  176.9060  143.4040 C   0  0  0  0  0  0  0  0  0  0  0  0
  186.5100  178.3360  143.1930 N   0  0  0  0  0  0  0  0  0  0  0  0
  189.4080  177.2400  146.0260 C   0  0  0  0  0  3  0  0  0  0  0  0
  188.9740  174.9360  141.6820 C   0  0  0  0  0  0  0  0  0  0  0  0
  191.2720  174.4470  144.5340 N   0  0  0  0  0  0  0  0  0  0  0  0
  189.6810  178.2980  148.1420 F   0  0  0  0  0  0  0  0  0  0  0  0
  187.9300  175.7470  141.3250 N   0  0  0  0  0  0  0  0  0  0  0  0
  189.6050  175.1050  142.9450 C   0  0  0  0  0  0  0  0  0  0  0  0
  189.4350  173.9120  140.7860 N   0  0  0  0  0  2  0  0  0  0  0  0
  187.4550  177.9160  144.0280 N   0  0  0  0  0  0  0  0  0  0  0  0
  191.1250  176.4970  147.5600 C   0  0  0  0  0  3  0  0  0  0  0  0
  187.5130  176.7060  142.1840 C   0  0  0  0  0  0  0  0  0  0  0  0
  186.4950  177.6180  142.0430 C   0  0  0  0  0  3  0  0  0  0  0  0
  190.6720  174.2840  143.3270 C   0  0  0  0  0  3  0  0  0  0  0  0
  190.8710  175.3990  145.4150 C   0  0  0  0  0  0  0  0  0  0  0  0
  191.5260  175.5220  146.6430 C   0  0  0  0  0  3  0  0  0  0  0  0
  190.5800  170.5080  137.0360 C   0  0  0  0  0  0  0  0  0  0  0  0
  189.3670  172.5800  137.2890 C   0  0  0  0  0  3  0  0  0  0  0  0
  190.4400  171.2090  140.9830 Cl  0  0  0  0  0  0  0  0  0  0  0  0
  191.1500  169.4460  136.1670 C   0  0  0  0  0  1  0  0  0  0  0  0
  189.9010  171.5840  136.4700 C   0  0  0  0  0  3  0  0  0  0  0  0
  190.1950  171.4190  139.2540 C   0  0  0  0  0  0  0  0  0  0  0  0
  189.5010  172.5200  138.6860 C   0  0  0  0  0  0  0  0  0  0  0  0
  190.7250  170.4290  138.4220 C   0  0  0  0  0  3  0  0  0  0  0  0
  185.5750  179.4000  143.5130 C   0  0  0  0  0  2  0  0  0  0  0  0
  185.6670  179.7110  144.8700 O   0  0  0  0  0  1  0  0  0  0  0  0
  1  2  1  0  0  0  0
  2 20  2  0  0  0  0
  2  8  1  0  0  0  0
  3  4  2  0  0  0  0
  4 14  1  0  0  0  0
  5 16  1  0  0  0  0
  5 11  1  0  0  0  0
  6  1  1  0  0  0  0
  6 15  2  0  0  0  0
  7 30  1  0  0  0  0
  7 15  1  0  0  0  0
  8  5  2  0  0  0  0
  9 13  1  0  0  0  0
 10 20  1  0  0  0  0
 12  9  2  0  0  0  0
 12 17  1  0  0  0  0
 13 19  1  0  0  0  0
 13  1  2  0  0  0  0
 14  9  1  0  0  0  0
 17  6  1  0  0  0  0
 18 17  2  0  0  0  0
 18  7  1  0  0  0  0
 19 10  2  0  0  0  0
 20 21  1  0  0  0  0
 21 16  2  0  0  0  0
 22 29  1  0  0  0  0
 23 28  2  0  0  0  0
 25 22  1  0  0  0  0
 26 22  2  0  0  0  0
 26 23  1  0  0  0  0
 27 24  1  0  0  0  0
 28 27  1  0  0  0  0
 28  4  1  0  0  0  0
 29 27  2  0  0  0  0
 30 31  1  0  0  0  0
M  END
>  <MODEL>
9

>  <REMARK>
 VINA RESULT:      -7.6      4.222      5.878
  Name = 
  2 active torsions:
  status: ('A' for Active; 'I' for Inactive)
    1  A    between atoms: C_2  and  N_13
    2  A    between atoms: C_9  and  C_22
                            x       y       z     vdW  Elec       q    Type
                         _______ _______ _______ _____ _____    ______ ____

>  <TORSDO>
F 2

$$$$
