=
 OpenBabel11052419253D

 55 62  0  0  1  0  0  0  0  0999 V2000
  190.2310  175.3630  143.8600 O   0  0  0  0  0  0  0  0  0  0  0  0
  195.4580  176.5070  141.0000 C   0  0  0  0  0  2  0  0  0  0  0  0
  193.3060  174.3800  139.5100 O   0  0  0  0  0  0  0  0  0  0  0  0
  191.4040  172.0130  139.8860 C   0  0  0  0  0  3  0  0  0  0  0  0
  190.9890  170.9110  139.0000 C   0  0  0  0  0  3  0  0  0  0  0  0
  189.1800  172.9850  139.6780 C   0  0  0  0  0  0  0  0  0  0  0  0
  188.7550  171.9720  138.6490 C   0  0  0  0  0  2  0  0  0  0  0  0
  192.2910  174.1370  141.6630 C   0  0  0  0  0  2  0  0  0  0  0  0
  189.7720  170.8800  138.4470 C   0  0  0  0  0  3  0  0  0  0  0  0
  191.2550  174.7350  145.9620 C   0  0  0  0  0  3  0  0  0  0  0  0
  190.5600  173.0020  140.2040 C   0  0  0  0  0  0  0  0  0  0  0  0
  193.3830  176.4850  145.4790 C   0  0  0  0  0  0  0  0  0  0  0  0
  190.2600  176.0130  142.5940 C   0  0  0  0  0  2  0  0  0  0  0  0
  192.3350  176.3790  144.5570 C   0  0  0  0  0  3  0  0  0  0  0  0
  188.6700  174.9230  141.0240 C   0  0  0  0  0  0  0  0  0  0  0  0
  194.8030  176.6040  142.2110 C   0  0  1  0  0  3  0  0  0  0  0  0
  188.3360  173.8890  140.0730 N   0  0  0  0  0  0  0  0  0  0  0  0
  194.2140  175.7070  141.1750 N   0  0  0  0  0  0  0  0  0  0  0  0
  193.2580  174.7600  140.7070 C   0  0  0  0  0  0  0  0  0  0  0  0
  192.3020  174.8400  146.8890 C   0  0  0  0  0  3  0  0  0  0  0  0
  195.3570  175.7420  143.3610 C   0  0  2  0  0  3  0  0  0  0  0  0
  191.2670  175.5050  144.7900 C   0  0  0  0  0  0  0  0  0  0  0  0
  190.9370  174.0690  141.0990 N   0  0  0  0  0  0  0  0  0  0  0  0
  189.9310  175.0200  141.5140 C   0  0  0  0  0  0  0  0  0  0  0  0
  195.7220  176.5720  144.6000 C   0  0  0  0  0  2  0  0  0  0  0  0
  194.5450  177.3670  145.1610 C   0  0  0  0  0  2  0  0  0  0  0  0
  193.3700  175.7100  146.6460 C   0  0  0  0  0  3  0  0  0  0  0  0
  187.0540  175.7720  142.7390 C   0  0  0  0  0  3  0  0  0  0  0  0
  185.5800  177.6350  142.2390 C   0  0  0  0  0  0  0  0  0  0  0  0
  187.1370  176.8240  140.5590 C   0  0  0  0  0  3  0  0  0  0  0  0
  186.1280  177.7130  140.9470 C   0  0  0  0  0  3  0  0  0  0  0  0
  186.0480  176.6630  143.1320 C   0  0  0  0  0  3  0  0  0  0  0  0
  187.5910  175.8380  141.4460 C   0  0  0  0  0  0  0  0  0  0  0  0
  184.4700  178.5480  142.6630 C   0  0  0  0  0  3  0  0  0  0  0  0
  184.1980  178.4290  144.1630 C   0  0  0  0  0  1  0  0  0  0  0  0
  183.1900  178.2820  141.8650 C   0  0  0  0  0  1  0  0  0  0  0  0
  196.4350  174.7030  143.0190 C   0  0  0  0  0  2  0  0  0  0  0  0
  196.9000  173.8940  144.2340 C   0  0  0  0  0  2  0  0  0  0  0  0
  193.7590  173.2770  143.7310 F   0  0  0  0  0  0  0  0  0  0  0  0
  195.6840  172.1600  142.9240 C   0  0  1  0  0  3  0  0  0  0  0  0
  197.9410  171.7920  143.7220 O   0  0  0  0  0  1  0  0  0  0  0  0
  194.6500  171.5250  145.0500 C   0  0  1  0  0  3  0  0  0  0  0  0
  194.3350  172.0240  143.6370 C   0  0  1  0  0  0  0  0  0  0  0  0
  196.7120  172.3860  144.0380 C   0  0  1  0  0  0  0  0  0  0  0  0
  192.2810  170.5070  143.8180 C   0  0  1  0  0  3  0  0  0  0  0  0
  194.2530  170.0580  145.2680 C   0  0  1  0  0  3  0  0  0  0  0  0
  193.3640  171.1000  142.8880 C   0  0  0  0  0  2  0  0  0  0  0  0
  196.1380  171.7360  145.2930 C   0  0  0  0  0  2  0  0  0  0  0  0
  196.0030  170.9970  142.1950 O   0  0  0  0  0  1  0  0  0  0  0  0
  192.8130  169.8660  145.0400 N   0  0  0  0  0  2  0  0  0  0  0  0
  191.2210  171.5470  144.1880 C   0  0  0  0  0  2  0  0  0  0  0  0
  190.1650  171.5060  143.2820 O   0  0  0  0  0  1  0  0  0  0  0  0
  194.9940  169.1970  144.4420 O   0  0  0  0  0  0  0  0  0  0  0  0
  195.4110  168.1660  145.2850 C   0  0  0  0  0  2  0  0  0  0  0  0
  196.8060  168.2340  145.4120 O   0  0  0  0  0  1  0  0  0  0  0  0
  1 22  1  0  0  0  0
  2 18  1  0  0  0  0
  3 19  2  0  0  0  0
  4 11  2  0  0  0  0
  5  4  1  0  0  0  0
  6 17  2  0  0  0  0
  6 11  1  0  0  0  0
  7  6  1  0  0  0  0
  9  7  1  0  0  0  0
  9  5  2  0  0  0  0
 10 20  1  0  0  0  0
 11 23  1  0  0  0  0
 12 27  1  0  0  0  0
 13  1  1  0  0  0  0
 14 22  1  0  0  0  0
 14 12  2  0  0  0  0
 15 33  1  0  0  0  0
 15 24  2  0  0  0  0
 16  2  1  6  0  0  0
 16 21  1  0  0  0  0
 17 15  1  0  0  0  0
 18 16  1  0  0  0  0
 19 18  1  0  0  0  0
 19  8  1  0  0  0  0
 21 37  1  6  0  0  0
 21 25  1  0  0  0  0
 22 10  2  0  0  0  0
 23 24  1  0  0  0  0
 23  8  1  0  0  0  0
 24 13  1  0  0  0  0
 25 26  1  0  0  0  0
 26 12  1  0  0  0  0
 27 20  2  0  0  0  0
 28 32  1  0  0  0  0
 29 34  1  0  0  0  0
 29 32  2  0  0  0  0
 30 31  2  0  0  0  0
 30 33  1  0  0  0  0
 31 29  1  0  0  0  0
 33 28  2  0  0  0  0
 34 35  1  0  0  0  0
 36 34  1  0  0  0  0
 37 38  1  0  0  0  0
 40 49  1  1  0  0  0
 40 43  1  0  0  0  0
 40 44  1  0  0  0  0
 42 46  1  0  0  0  0
 42 48  1  6  0  0  0
 43 39  1  1  0  0  0
 43 42  1  0  0  0  0
 44 41  1  6  0  0  0
 44 38  1  0  0  0  0
 44 48  1  0  0  0  0
 45 51  1  1  0  0  0
 45 50  1  0  0  0  0
 46 53  1  6  0  0  0
 47 43  1  0  0  0  0
 47 45  1  0  0  0  0
 50 46  1  0  0  0  0
 52 51  1  0  0  0  0
 53 54  1  0  0  0  0
 54 55  1  0  0  0  0
M  END
>  <MODEL>
1

>  <REMARK>
 VINA RESULT:      -8.2      0.000      0.000
  Name = 
  8 active torsions:
  status: ('A' for Active; 'I' for Inactive)
    1  A    between atoms: C_1  and  O_53
    2  A    between atoms: C_8  and  C_22
    3  A    between atoms: C_8  and  C_43
    4  A    between atoms: C_10  and  C_32
    5  A    between atoms: C_11  and  CA_29
    6  A    between atoms: C_20  and  C_22
    7  A    between atoms: C_30  and  O_53
    8  A    between atoms: C_33  and  C_52
                            x       y       z     vdW  Elec       q    Type
                         _______ _______ _______ _____ _____    ______ ____

>  <TORSDO>
F 8

$$$$
=
 OpenBabel11052419253D

 55 62  0  0  1  0  0  0  0  0999 V2000
  191.6550  174.8890  143.8970 O   0  0  0  0  0  0  0  0  0  0  0  0
  195.9900  175.9190  139.7800 C   0  0  0  0  0  2  0  0  0  0  0  0
  193.2380  174.2580  138.7560 O   0  0  0  0  0  0  0  0  0  0  0  0
  191.2100  172.0620  139.4040 C   0  0  0  0  0  3  0  0  0  0  0  0
  190.4190  171.1480  138.5600 C   0  0  0  0  0  3  0  0  0  0  0  0
  189.1700  173.2690  139.9670 C   0  0  0  0  0  0  0  0  0  0  0  0
  188.3420  172.4650  139.0000 C   0  0  0  0  0  2  0  0  0  0  0  0
  192.8370  173.8020  141.0700 C   0  0  0  0  0  2  0  0  0  0  0  0
  189.1040  171.3200  138.3880 C   0  0  0  0  0  3  0  0  0  0  0  0
  193.1250  173.8610  145.5230 C   0  0  0  0  0  3  0  0  0  0  0  0
  190.6310  173.0720  140.0640 C   0  0  0  0  0  0  0  0  0  0  0  0
  195.2550  175.4440  144.6370 C   0  0  0  0  0  0  0  0  0  0  0  0
  191.4200  175.7120  142.7600 C   0  0  0  0  0  2  0  0  0  0  0  0
  193.9880  175.5790  144.0570 C   0  0  0  0  0  3  0  0  0  0  0  0
  189.3240  175.0280  141.6130 C   0  0  0  0  0  0  0  0  0  0  0  0
  195.7160  175.9020  141.1320 C   0  0  1  0  0  3  0  0  0  0  0  0
  188.6010  174.1830  140.6910 N   0  0  0  0  0  0  0  0  0  0  0  0
  194.7460  175.2290  140.2210 N   0  0  0  0  0  0  0  0  0  0  0  0
  193.5770  174.4610  139.9490 C   0  0  0  0  0  0  0  0  0  0  0  0
  194.3920  173.7240  146.1080 C   0  0  0  0  0  3  0  0  0  0  0  0
  196.4430  174.8280  141.9640 C   0  0  2  0  0  3  0  0  0  0  0  0
  192.9170  174.7900  144.4930 C   0  0  0  0  0  0  0  0  0  0  0  0
  191.3840  173.9520  140.9230 N   0  0  0  0  0  0  0  0  0  0  0  0
  190.6720  174.9270  141.7190 C   0  0  0  0  0  0  0  0  0  0  0  0
  197.2480  175.4270  143.1280 C   0  0  0  0  0  2  0  0  0  0  0  0
  196.3920  176.2440  144.0940 C   0  0  0  0  0  2  0  0  0  0  0  0
  195.4600  174.5100  145.6630 C   0  0  0  0  0  3  0  0  0  0  0  0
  188.2350  175.6860  143.7700 C   0  0  0  0  0  3  0  0  0  0  0  0
  187.0990  177.8210  143.9850 C   0  0  0  0  0  0  0  0  0  0  0  0
  188.1450  177.1990  141.8810 C   0  0  0  0  0  3  0  0  0  0  0  0
  187.4170  178.1170  142.6480 C   0  0  0  0  0  3  0  0  0  0  0  0
  187.5120  176.6040  144.5410 C   0  0  0  0  0  3  0  0  0  0  0  0
  188.5400  175.9740  142.4320 C   0  0  0  0  0  0  0  0  0  0  0  0
  186.2850  178.7680  144.8130 C   0  0  0  0  0  3  0  0  0  0  0  0
  185.3450  178.0140  145.7530 C   0  0  0  0  0  1  0  0  0  0  0  0
  185.4940  179.7420  143.9350 C   0  0  0  0  0  1  0  0  0  0  0  0
  197.2320  173.7490  141.2070 C   0  0  0  0  0  2  0  0  0  0  0  0
  196.4110  172.4850  140.9320 C   0  0  0  0  0  2  0  0  0  0  0  0
  193.8860  170.4780  140.6400 F   0  0  0  0  0  0  0  0  0  0  0  0
  196.0050  170.1320  141.6370 C   0  0  1  0  0  3  0  0  0  0  0  0
  197.6480  171.5210  142.7500 O   0  0  0  0  0  1  0  0  0  0  0  0
  194.1280  171.0250  142.9300 C   0  0  1  0  0  3  0  0  0  0  0  0
  194.4860  170.0460  141.8080 C   0  0  1  0  0  0  0  0  0  0  0  0
  196.3920  171.5310  142.1290 C   0  0  1  0  0  0  0  0  0  0  0  0
  192.6380  168.5890  142.8170 C   0  0  1  0  0  3  0  0  0  0  0  0
  193.7300  170.3190  144.2340 C   0  0  1  0  0  3  0  0  0  0  0  0
  194.0060  168.6160  142.0980 C   0  0  0  0  0  2  0  0  0  0  0  0
  195.3260  171.9410  143.1410 C   0  0  0  0  0  2  0  0  0  0  0  0
  196.6680  169.1470  142.3960 O   0  0  0  0  0  1  0  0  0  0  0  0
  192.5670  169.4450  144.0220 N   0  0  0  0  0  2  0  0  0  0  0  0
  191.4900  168.9270  141.8640 C   0  0  0  0  0  2  0  0  0  0  0  0
  190.8300  170.0770  142.2890 O   0  0  0  0  0  1  0  0  0  0  0  0
  194.8000  169.5830  144.7680 O   0  0  0  0  0  0  0  0  0  0  0  0
  194.8930  170.0030  146.0960 C   0  0  0  0  0  2  0  0  0  0  0  0
  196.2100  170.4190  146.3380 O   0  0  0  0  0  1  0  0  0  0  0  0
  1 22  1  0  0  0  0
  2 18  1  0  0  0  0
  3 19  2  0  0  0  0
  4 11  2  0  0  0  0
  5  4  1  0  0  0  0
  6 11  1  0  0  0  0
  6 17  2  0  0  0  0
  7  6  1  0  0  0  0
  9  5  2  0  0  0  0
  9  7  1  0  0  0  0
 10 20  1  0  0  0  0
 11 23  1  0  0  0  0
 12 27  1  0  0  0  0
 13  1  1  0  0  0  0
 14 22  1  0  0  0  0
 14 12  2  0  0  0  0
 15 24  2  0  0  0  0
 15 33  1  0  0  0  0
 16  2  1  6  0  0  0
 16 21  1  0  0  0  0
 17 15  1  0  0  0  0
 18 16  1  0  0  0  0
 19 18  1  0  0  0  0
 19  8  1  0  0  0  0
 21 37  1  6  0  0  0
 21 25  1  0  0  0  0
 22 10  2  0  0  0  0
 23  8  1  0  0  0  0
 23 24  1  0  0  0  0
 24 13  1  0  0  0  0
 25 26  1  0  0  0  0
 26 12  1  0  0  0  0
 27 20  2  0  0  0  0
 28 32  1  0  0  0  0
 29 32  2  0  0  0  0
 29 34  1  0  0  0  0
 30 33  1  0  0  0  0
 30 31  2  0  0  0  0
 31 29  1  0  0  0  0
 33 28  2  0  0  0  0
 34 35  1  0  0  0  0
 36 34  1  0  0  0  0
 38 37  1  0  0  0  0
 38 44  1  0  0  0  0
 40 43  1  0  0  0  0
 40 44  1  0  0  0  0
 40 49  1  1  0  0  0
 42 48  1  1  0  0  0
 42 46  1  0  0  0  0
 43 39  1  6  0  0  0
 43 47  1  0  0  0  0
 43 42  1  0  0  0  0
 44 41  1  1  0  0  0
 44 48  1  0  0  0  0
 45 51  1  6  0  0  0
 45 50  1  0  0  0  0
 46 53  1  6  0  0  0
 47 45  1  0  0  0  0
 50 46  1  0  0  0  0
 51 52  1  0  0  0  0
 53 54  1  0  0  0  0
 54 55  1  0  0  0  0
M  END
>  <MODEL>
2

>  <REMARK>
 VINA RESULT:      -8.0      1.639      1.983
  Name = 
  8 active torsions:
  status: ('A' for Active; 'I' for Inactive)
    1  A    between atoms: C_1  and  O_53
    2  A    between atoms: C_8  and  C_22
    3  A    between atoms: C_8  and  C_43
    4  A    between atoms: C_10  and  C_32
    5  A    between atoms: C_11  and  CA_29
    6  A    between atoms: C_20  and  C_22
    7  A    between atoms: C_30  and  O_53
    8  A    between atoms: C_33  and  C_52
                            x       y       z     vdW  Elec       q    Type
                         _______ _______ _______ _____ _____    ______ ____

>  <TORSDO>
F 8

$$$$
=
 OpenBabel11052419253D

 55 62  0  0  1  0  0  0  0  0999 V2000
  190.4260  175.4220  143.9190 O   0  0  0  0  0  0  0  0  0  0  0  0
  195.5990  176.3170  140.8800 C   0  0  0  0  0  2  0  0  0  0  0  0
  193.3400  174.2170  139.5150 O   0  0  0  0  0  0  0  0  0  0  0  0
  191.3780  171.9240  140.0150 C   0  0  0  0  0  3  0  0  0  0  0  0
  190.9040  170.8110  139.1740 C   0  0  0  0  0  3  0  0  0  0  0  0
  189.1790  172.9600  139.8400 C   0  0  0  0  0  0  0  0  0  0  0  0
  188.6940  171.9310  138.8540 C   0  0  0  0  0  2  0  0  0  0  0  0
  192.3810  174.0690  141.7020 C   0  0  0  0  0  2  0  0  0  0  0  0
  189.6710  170.8020  138.6570 C   0  0  0  0  0  3  0  0  0  0  0  0
  191.4900  174.8240  146.0090 C   0  0  0  0  0  3  0  0  0  0  0  0
  190.5750  172.9480  140.3270 C   0  0  0  0  0  0  0  0  0  0  0  0
  193.6560  176.4910  145.4140 C   0  0  0  0  0  0  0  0  0  0  0  0
  190.4370  176.0340  142.6340 C   0  0  0  0  0  2  0  0  0  0  0  0
  192.5790  176.3910  144.5260 C   0  0  0  0  0  3  0  0  0  0  0  0
  188.7700  174.9510  141.1420 C   0  0  0  0  0  0  0  0  0  0  0  0
  194.9840  176.4700  142.1050 C   0  0  1  0  0  3  0  0  0  0  0  0
  188.3760  173.9010  140.2320 N   0  0  0  0  0  0  0  0  0  0  0  0
  194.3370  175.5630  141.1140 N   0  0  0  0  0  0  0  0  0  0  0  0
  193.3390  174.6330  140.7010 C   0  0  0  0  0  0  0  0  0  0  0  0
  192.5660  174.9220  146.9020 C   0  0  0  0  0  3  0  0  0  0  0  0
  195.5440  175.6240  143.2640 C   0  0  2  0  0  3  0  0  0  0  0  0
  191.4920  175.5580  144.8140 C   0  0  0  0  0  0  0  0  0  0  0  0
  191.0100  174.0270  141.1780 N   0  0  0  0  0  0  0  0  0  0  0  0
  190.0470  175.0220  141.5930 C   0  0  0  0  0  0  0  0  0  0  0  0
  195.9700  176.4780  144.4680 C   0  0  0  0  0  2  0  0  0  0  0  0
  194.8350  177.3260  145.0370 C   0  0  0  0  0  2  0  0  0  0  0  0
  193.6530  175.7500  146.6040 C   0  0  0  0  0  3  0  0  0  0  0  0
  187.4820  177.0760  140.8260 C   0  0  0  0  0  3  0  0  0  0  0  0
  185.7090  177.6920  142.3660 C   0  0  0  0  0  0  0  0  0  0  0  0
  186.9500  175.6280  142.6940 C   0  0  0  0  0  3  0  0  0  0  0  0
  185.9480  176.5180  143.1010 C   0  0  0  0  0  3  0  0  0  0  0  0
  186.4780  177.9650  141.2280 C   0  0  0  0  0  3  0  0  0  0  0  0
  187.7320  175.9120  141.5670 C   0  0  0  0  0  0  0  0  0  0  0  0
  184.6720  178.6800  142.8060 C   0  0  0  0  0  3  0  0  0  0  0  0
  184.6430  178.8100  144.3290 C   0  0  0  0  0  1  0  0  0  0  0  0
  183.2840  178.3110  142.2740 C   0  0  0  0  0  1  0  0  0  0  0  0
  196.5790  174.5420  142.9230 C   0  0  0  0  0  2  0  0  0  0  0  0
  197.2640  173.9520  144.1600 C   0  0  0  0  0  2  0  0  0  0  0  0
  197.9260  171.4610  142.1970 F   0  0  0  0  0  0  0  0  0  0  0  0
  197.4850  171.4980  144.5230 C   0  0  1  0  0  3  0  0  0  0  0  0
  196.1850  172.8870  146.0220 O   0  0  0  0  0  1  0  0  0  0  0  0
  195.6720  171.2680  142.8940 C   0  0  1  0  0  3  0  0  0  0  0  0
  197.1290  170.8820  143.1660 C   0  0  1  0  0  0  0  0  0  0  0  0
  196.5500  172.7010  144.6810 C   0  0  1  0  0  0  0  0  0  0  0  0
  196.4990  168.6670  142.0480 C   0  0  1  0  0  3  0  0  0  0  0  0
  194.7050  170.0840  143.0300 C   0  0  1  0  0  3  0  0  0  0  0  0
  197.3520  169.3630  143.1320 C   0  0  0  0  0  2  0  0  0  0  0  0
  195.3060  172.3930  143.8530 C   0  0  0  0  0  2  0  0  0  0  0  0
  197.2860  170.5820  145.5750 O   0  0  0  0  0  1  0  0  0  0  0  0
  195.0600  169.0070  142.0940 N   0  0  0  0  0  2  0  0  0  0  0  0
  197.0540  168.9170  140.6440 C   0  0  0  0  0  2  0  0  0  0  0  0
  196.0170  169.1910  139.7550 O   0  0  0  0  0  1  0  0  0  0  0  0
  194.6750  169.5930  144.3460 O   0  0  0  0  0  0  0  0  0  0  0  0
  193.3770  169.1080  144.5150 C   0  0  0  0  0  2  0  0  0  0  0  0
  193.3880  168.1660  145.5540 O   0  0  0  0  0  1  0  0  0  0  0  0
  1 22  1  0  0  0  0
  2 18  1  0  0  0  0
  3 19  2  0  0  0  0
  4 11  2  0  0  0  0
  5  4  1  0  0  0  0
  6 17  2  0  0  0  0
  6 11  1  0  0  0  0
  7  6  1  0  0  0  0
  9  7  1  0  0  0  0
  9  5  2  0  0  0  0
 10 20  1  0  0  0  0
 11 23  1  0  0  0  0
 12 27  1  0  0  0  0
 13  1  1  0  0  0  0
 14 22  1  0  0  0  0
 14 12  2  0  0  0  0
 15 33  1  0  0  0  0
 15 24  2  0  0  0  0
 16  2  1  6  0  0  0
 16 21  1  0  0  0  0
 17 15  1  0  0  0  0
 18 16  1  0  0  0  0
 19 18  1  0  0  0  0
 19  8  1  0  0  0  0
 21 37  1  6  0  0  0
 21 25  1  0  0  0  0
 22 10  2  0  0  0  0
 23 24  1  0  0  0  0
 23  8  1  0  0  0  0
 24 13  1  0  0  0  0
 25 26  1  0  0  0  0
 26 12  1  0  0  0  0
 27 20  2  0  0  0  0
 28 32  2  0  0  0  0
 28 33  1  0  0  0  0
 29 34  1  0  0  0  0
 29 31  2  0  0  0  0
 30 31  1  0  0  0  0
 32 29  1  0  0  0  0
 33 30  2  0  0  0  0
 34 35  1  0  0  0  0
 36 34  1  0  0  0  0
 37 38  1  0  0  0  0
 38 44  1  0  0  0  0
 40 44  1  0  0  0  0
 40 49  1  1  0  0  0
 42 46  1  0  0  0  0
 42 43  1  0  0  0  0
 42 48  1  1  0  0  0
 43 39  1  6  0  0  0
 43 40  1  0  0  0  0
 44 41  1  1  0  0  0
 45 51  1  6  0  0  0
 45 50  1  0  0  0  0
 45 47  1  0  0  0  0
 46 53  1  1  0  0  0
 47 43  1  0  0  0  0
 48 44  1  0  0  0  0
 50 46  1  0  0  0  0
 52 51  1  0  0  0  0
 53 54  1  0  0  0  0
 54 55  1  0  0  0  0
M  END
>  <MODEL>
3

>  <REMARK>
 VINA RESULT:      -7.9      1.484      2.266
  Name = 
  8 active torsions:
  status: ('A' for Active; 'I' for Inactive)
    1  A    between atoms: C_1  and  O_53
    2  A    between atoms: C_8  and  C_22
    3  A    between atoms: C_8  and  C_43
    4  A    between atoms: C_10  and  C_32
    5  A    between atoms: C_11  and  CA_29
    6  A    between atoms: C_20  and  C_22
    7  A    between atoms: C_30  and  O_53
    8  A    between atoms: C_33  and  C_52
                            x       y       z     vdW  Elec       q    Type
                         _______ _______ _______ _____ _____    ______ ____

>  <TORSDO>
F 8

$$$$
=
 OpenBabel11052419253D

 55 62  0  0  1  0  0  0  0  0999 V2000
  195.1630  173.8350  140.1840 O   0  0  0  0  0  0  0  0  0  0  0  0
  193.6870  172.0780  145.7990 C   0  0  0  0  0  2  0  0  0  0  0  0
  191.3300  171.7710  143.4060 O   0  0  0  0  0  0  0  0  0  0  0  0
  189.9540  173.0890  141.0140 C   0  0  0  0  0  3  0  0  0  0  0  0
  188.5890  172.9940  140.4650 C   0  0  0  0  0  3  0  0  0  0  0  0
  190.7890  171.8610  139.0830 C   0  0  0  0  0  0  0  0  0  0  0  0
  189.4020  171.5990  138.5590 C   0  0  0  0  0  2  0  0  0  0  0  0
  192.6190  173.3460  142.1470 C   0  0  0  0  0  2  0  0  0  0  0  0
  188.3360  172.3280  139.3340 C   0  0  0  0  0  3  0  0  0  0  0  0
  195.9190  176.0430  140.8270 C   0  0  0  0  0  3  0  0  0  0  0  0
  190.9970  172.5490  140.3730 C   0  0  0  0  0  0  0  0  0  0  0  0
  196.7340  175.0660  143.3190 C   0  0  0  0  0  0  0  0  0  0  0  0
  194.8510  172.4790  140.4810 C   0  0  0  0  0  2  0  0  0  0  0  0
  196.1710  174.2020  142.3730 C   0  0  0  0  0  3  0  0  0  0  0  0
  193.1790  171.6010  138.8650 C   0  0  0  0  0  0  0  0  0  0  0  0
  194.5990  172.8030  145.0600 C   0  0  1  0  0  3  0  0  0  0  0  0
  191.8160  171.4310  138.4160 N   0  0  0  0  0  0  0  0  0  0  0  0
  193.3130  172.4310  144.4020 N   0  0  0  0  0  0  0  0  0  0  0  0
  192.3880  172.4440  143.3190 C   0  0  0  0  0  0  0  0  0  0  0  0
  196.4840  176.9120  141.7720 C   0  0  0  0  0  3  0  0  0  0  0  0
  194.6160  174.3260  145.2950 C   0  0  2  0  0  3  0  0  0  0  0  0
  195.7590  174.6810  141.1250 C   0  0  0  0  0  0  0  0  0  0  0  0
  192.3440  172.6650  140.8760 N   0  0  0  0  0  0  0  0  0  0  0  0
  193.4370  172.1870  140.0600 C   0  0  0  0  0  0  0  0  0  0  0  0
  196.0040  174.8450  145.7000 C   0  0  0  0  0  2  0  0  0  0  0  0
  197.0870  174.5370  144.6690 C   0  0  0  0  0  2  0  0  0  0  0  0
  196.8860  176.4280  143.0200 C   0  0  0  0  0  3  0  0  0  0  0  0
  194.8380  171.9980  137.0310 C   0  0  0  0  0  3  0  0  0  0  0  0
  196.3470  170.2340  136.3210 C   0  0  0  0  0  0  0  0  0  0  0  0
  194.7400  169.8250  138.0980 C   0  0  0  0  0  3  0  0  0  0  0  0
  195.7740  169.3700  137.2710 C   0  0  0  0  0  3  0  0  0  0  0  0
  195.8760  171.5470  136.2060 C   0  0  0  0  0  3  0  0  0  0  0  0
  194.2560  171.1340  137.9690 C   0  0  0  0  0  0  0  0  0  0  0  0
  197.4250  169.7570  135.3950 C   0  0  0  0  0  3  0  0  0  0  0  0
  197.9400  170.8940  134.5130 C   0  0  0  0  0  1  0  0  0  0  0  0
  196.9460  168.5860  134.5330 C   0  0  0  0  0  1  0  0  0  0  0  0
  193.4950  174.9290  146.1550 C   0  0  0  0  0  2  0  0  0  0  0  0
  192.5510  175.8380  145.3630 C   0  0  0  0  0  2  0  0  0  0  0  0
  190.5300  176.1020  142.8450 F   0  0  0  0  0  0  0  0  0  0  0  0
  190.2820  174.9290  144.8870 C   0  0  1  0  0  3  0  0  0  0  0  0
  191.0850  175.2040  147.1550 O   0  0  0  0  0  1  0  0  0  0  0  0
  189.5800  177.2650  144.6750 C   0  0  1  0  0  3  0  0  0  0  0  0
  189.6680  175.9390  143.9120 C   0  0  1  0  0  0  0  0  0  0  0  0
  191.1080  175.7640  145.8710 C   0  0  1  0  0  0  0  0  0  0  0  0
  187.4400  176.6620  142.8790 C   0  0  1  0  0  3  0  0  0  0  0  0
  188.1410  177.6390  145.0570 C   0  0  1  0  0  3  0  0  0  0  0  0
  188.3060  175.4800  143.3690 C   0  0  0  0  0  2  0  0  0  0  0  0
  190.4670  177.1480  145.9070 C   0  0  0  0  0  2  0  0  0  0  0  0
  189.2890  174.2040  145.5740 O   0  0  0  0  0  1  0  0  0  0  0  0
  187.2950  177.7590  143.8600 N   0  0  0  0  0  2  0  0  0  0  0  0
  187.9400  177.2150  141.5430 C   0  0  0  0  0  2  0  0  0  0  0  0
  188.3760  178.5290  141.6950 O   0  0  0  0  0  1  0  0  0  0  0  0
  187.5880  176.7080  145.9520 O   0  0  0  0  0  0  0  0  0  0  0  0
  186.8510  177.4770  146.8540 C   0  0  0  0  0  2  0  0  0  0  0  0
  185.4990  177.1210  146.7380 O   0  0  0  0  0  1  0  0  0  0  0  0
  1 13  1  0  0  0  0
  1 22  1  0  0  0  0
  5  4  1  0  0  0  0
  6 11  1  0  0  0  0
  7  6  1  0  0  0  0
  7  9  1  0  0  0  0
  8 19  1  0  0  0  0
  9  5  2  0  0  0  0
 10 22  2  0  0  0  0
 10 20  1  0  0  0  0
 11 23  1  0  0  0  0
 11  4  2  0  0  0  0
 12 26  1  0  0  0  0
 14 12  2  0  0  0  0
 15 24  2  0  0  0  0
 16 21  1  0  0  0  0
 16  2  1  1  0  0  0
 17 15  1  0  0  0  0
 17  6  2  0  0  0  0
 18 16  1  0  0  0  0
 18  2  1  0  0  0  0
 19  3  2  0  0  0  0
 19 18  1  0  0  0  0
 20 27  2  0  0  0  0
 21 25  1  0  0  0  0
 21 37  1  1  0  0  0
 22 14  1  0  0  0  0
 23  8  1  0  0  0  0
 24 13  1  0  0  0  0
 24 23  1  0  0  0  0
 26 25  1  0  0  0  0
 27 12  1  0  0  0  0
 28 33  1  0  0  0  0
 29 31  2  0  0  0  0
 31 30  1  0  0  0  0
 32 29  1  0  0  0  0
 32 28  2  0  0  0  0
 33 30  2  0  0  0  0
 33 15  1  0  0  0  0
 34 29  1  0  0  0  0
 35 34  1  0  0  0  0
 36 34  1  0  0  0  0
 38 44  1  0  0  0  0
 38 37  1  0  0  0  0
 40 49  1  1  0  0  0
 40 44  1  0  0  0  0
 42 46  1  0  0  0  0
 42 48  1  1  0  0  0
 43 39  1  6  0  0  0
 43 42  1  0  0  0  0
 43 40  1  0  0  0  0
 44 48  1  0  0  0  0
 44 41  1  1  0  0  0
 45 51  1  6  0  0  0
 45 47  1  0  0  0  0
 45 50  1  0  0  0  0
 46 53  1  1  0  0  0
 47 43  1  0  0  0  0
 50 46  1  0  0  0  0
 51 52  1  0  0  0  0
 53 54  1  0  0  0  0
 55 54  1  0  0  0  0
M  END
>  <MODEL>
4

>  <REMARK>
 VINA RESULT:      -7.6      3.263      8.201
  Name = 
  8 active torsions:
  status: ('A' for Active; 'I' for Inactive)
    1  A    between atoms: C_1  and  O_53
    2  A    between atoms: C_8  and  C_22
    3  A    between atoms: C_8  and  C_43
    4  A    between atoms: C_10  and  C_32
    5  A    between atoms: C_11  and  CA_29
    6  A    between atoms: C_20  and  C_22
    7  A    between atoms: C_30  and  O_53
    8  A    between atoms: C_33  and  C_52
                            x       y       z     vdW  Elec       q    Type
                         _______ _______ _______ _____ _____    ______ ____

>  <TORSDO>
F 8

$$$$
=
 OpenBabel11052419253D

 55 62  0  0  1  0  0  0  0  0999 V2000
  190.6800  174.2140  140.9480 O   0  0  0  0  0  0  0  0  0  0  0  0
  192.2770  168.8640  143.3210 C   0  0  0  0  0  2  0  0  0  0  0  0
  193.1680  171.6420  145.0140 O   0  0  0  0  0  0  0  0  0  0  0  0
  194.3230  174.4680  144.8280 C   0  0  0  0  0  3  0  0  0  0  0  0
  195.1230  175.2860  145.7560 C   0  0  0  0  0  3  0  0  0  0  0  0
  192.4140  175.9290  145.2260 C   0  0  0  0  0  0  0  0  0  0  0  0
  193.1370  176.7010  146.2970 C   0  0  0  0  0  3  0  0  0  0  0  0
  192.8190  172.8220  142.9620 C   0  0  0  0  0  2  0  0  0  0  0  0
  194.5890  176.3190  146.4160 C   0  0  0  0  0  3  0  0  0  0  0  0
  191.6450  173.7930  138.7680 C   0  0  0  0  0  3  0  0  0  0  0  0
  193.0400  174.7570  144.5790 C   0  0  1  0  0  3  0  0  0  0  0  0
  191.1440  171.0550  139.0460 C   0  0  0  0  0  0  0  0  0  0  0  0
  190.1690  173.7740  142.2010 C   0  0  0  0  0  2  0  0  0  0  0  0
  190.7690  171.9470  140.0580 C   0  0  0  0  0  3  0  0  0  0  0  0
  190.4220  175.5560  143.9150 C   0  0  0  0  0  0  0  0  0  0  0  0
  191.8350  169.4880  142.1730 C   0  0  1  0  0  3  0  0  0  0  0  0
  191.2040  176.2660  144.9010 N   0  0  0  0  0  0  0  0  0  0  0  0
  192.3780  170.3480  143.2640 N   0  0  0  0  0  0  0  0  0  0  0  0
  192.7690  171.5990  143.8230 C   0  0  0  0  0  0  0  0  0  0  0  0
  192.0200  172.9040  137.7510 C   0  0  0  0  0  3  0  0  0  0  0  0
  192.8160  169.5130  140.9850 C   0  0  2  0  0  3  0  0  0  0  0  0
  191.0170  173.3170  139.9290 C   0  0  0  0  0  0  0  0  0  0  0  0
  192.2530  173.9910  143.6460 N   0  0  0  0  0  0  0  0  0  0  0  0
  190.9220  174.4480  143.3140 C   0  0  0  0  0  0  0  0  0  0  0  0
  192.2170  168.8970  139.7110 C   0  0  0  0  0  2  0  0  0  0  0  0
  190.9360  169.5910  139.2520 C   0  0  0  0  0  2  0  0  0  0  0  0
  191.7770  171.5340  137.8900 C   0  0  0  0  0  3  0  0  0  0  0  0
  187.9950  175.8890  144.4390 C   0  0  0  0  0  3  0  0  0  0  0  0
  186.5740  177.1850  142.9580 C   0  0  0  0  0  0  0  0  0  0  0  0
  188.9240  176.8690  142.4280 C   0  0  0  0  0  3  0  0  0  0  0  0
  187.6710  177.4050  142.1080 C   0  0  0  0  0  3  0  0  0  0  0  0
  186.7420  176.4280  144.1240 C   0  0  0  0  0  3  0  0  0  0  0  0
  189.0870  176.0950  143.5850 C   0  0  0  0  0  0  0  0  0  0  0  0
  185.2130  177.7110  142.6140 C   0  0  0  0  0  3  0  0  0  0  0  0
  185.1840  178.2890  141.1990 C   0  0  0  0  0  1  0  0  0  0  0  0
  184.7450  178.7590  143.6280 C   0  0  0  0  0  1  0  0  0  0  0  0
  194.2550  169.0400  141.2370 C   0  0  0  0  0  2  0  0  0  0  0  0
  195.2050  170.1790  141.6210 C   0  0  0  0  0  2  0  0  0  0  0  0
  196.6110  172.9250  142.6110 F   0  0  0  0  0  0  0  0  0  0  0  0
  197.0880  171.5510  140.7430 C   0  0  1  0  0  3  0  0  0  0  0  0
  195.8170  170.0760  139.3020 O   0  0  0  0  0  1  0  0  0  0  0  0
  195.4620  173.3740  140.5900 C   0  0  1  0  0  3  0  0  0  0  0  0
  196.7880  172.9680  141.2410 C   0  0  1  0  0  0  0  0  0  0  0  0
  195.7240  170.9430  140.4000 C   0  0  1  0  0  0  0  0  0  0  0  0
  197.4350  175.4200  140.8900 C   0  0  1  0  0  3  0  0  0  0  0  0
  195.6360  174.4270  139.4860 C   0  0  1  0  0  3  0  0  0  0  0  0
  197.9240  173.9540  140.9300 C   0  0  0  0  0  2  0  0  0  0  0  0
  194.8070  172.1110  140.0500 C   0  0  0  0  0  2  0  0  0  0  0  0
  197.9160  171.5680  139.6030 O   0  0  0  0  0  1  0  0  0  0  0  0
  196.2610  175.6470  140.0190 N   0  0  0  0  0  2  0  0  0  0  0  0
  197.1620  175.9640  142.2930 C   0  0  0  0  0  2  0  0  0  0  0  0
  195.8700  176.4770  142.3710 O   0  0  0  0  0  1  0  0  0  0  0  0
  196.3900  173.9250  138.4120 O   0  0  0  0  0  0  0  0  0  0  0  0
  196.2460  174.8770  137.4020 C   0  0  0  0  0  2  0  0  0  0  0  0
  194.9720  174.7300  136.8320 O   0  0  0  0  0  1  0  0  0  0  0  0
  1 13  1  0  0  0  0
  4  5  2  0  0  0  0
  5  9  1  0  0  0  0
  6  7  1  0  0  0  0
  7  9  2  0  0  0  0
  8 23  1  0  0  0  0
  8 19  1  0  0  0  0
 10 22  1  0  0  0  0
 11  4  1  6  0  0  0
 11  6  1  0  0  0  0
 12 26  1  0  0  0  0
 12 14  1  0  0  0  0
 13 24  1  0  0  0  0
 15 17  1  0  0  0  0
 16 18  1  0  0  0  0
 16  2  1  1  0  0  0
 17  6  2  0  0  0  0
 18  2  1  0  0  0  0
 18 19  1  0  0  0  0
 19  3  2  0  0  0  0
 20 27  1  0  0  0  0
 20 10  2  0  0  0  0
 21 37  1  1  0  0  0
 21 16  1  0  0  0  0
 22 14  2  0  0  0  0
 22  1  1  0  0  0  0
 23 11  1  0  0  0  0
 24 23  1  0  0  0  0
 24 15  2  0  0  0  0
 25 21  1  0  0  0  0
 26 25  1  0  0  0  0
 27 12  2  0  0  0  0
 29 32  2  0  0  0  0
 30 33  1  0  0  0  0
 31 30  2  0  0  0  0
 31 29  1  0  0  0  0
 32 28  1  0  0  0  0
 33 15  1  0  0  0  0
 33 28  2  0  0  0  0
 34 29  1  0  0  0  0
 34 36  1  0  0  0  0
 35 34  1  0  0  0  0
 37 38  1  0  0  0  0
 40 49  1  6  0  0  0
 40 43  1  0  0  0  0
 42 48  1  6  0  0  0
 42 43  1  0  0  0  0
 43 39  1  1  0  0  0
 44 41  1  6  0  0  0
 44 40  1  0  0  0  0
 44 38  1  0  0  0  0
 45 47  1  0  0  0  0
 45 51  1  1  0  0  0
 46 53  1  6  0  0  0
 46 50  1  0  0  0  0
 46 42  1  0  0  0  0
 47 43  1  0  0  0  0
 48 44  1  0  0  0  0
 50 45  1  0  0  0  0
 51 52  1  0  0  0  0
 54 53  1  0  0  0  0
 55 54  1  0  0  0  0
M  END
>  <MODEL>
5

>  <REMARK>
 VINA RESULT:      -7.6      2.320      6.359
  Name = 
  8 active torsions:
  status: ('A' for Active; 'I' for Inactive)
    1  A    between atoms: C_1  and  O_53
    2  A    between atoms: C_8  and  C_22
    3  A    between atoms: C_8  and  C_43
    4  A    between atoms: C_10  and  C_32
    5  A    between atoms: C_11  and  CA_29
    6  A    between atoms: C_20  and  C_22
    7  A    between atoms: C_30  and  O_53
    8  A    between atoms: C_33  and  C_52
                            x       y       z     vdW  Elec       q    Type
                         _______ _______ _______ _____ _____    ______ ____

>  <TORSDO>
F 8

$$$$
=
 OpenBabel11052419253D

 55 62  0  0  1  0  0  0  0  0999 V2000
  190.4730  173.5150  142.6110 O   0  0  0  0  0  0  0  0  0  0  0  0
  193.9780  169.1470  144.9420 C   0  0  0  0  0  2  0  0  0  0  0  0
  194.9870  172.3370  145.3640 O   0  0  0  0  0  0  0  0  0  0  0  0
  195.3580  175.0770  144.0550 C   0  0  0  0  0  3  0  0  0  0  0  0
  196.3180  176.1720  144.2780 C   0  0  0  0  0  3  0  0  0  0  0  0
  193.5990  176.4550  145.0260 C   0  0  0  0  0  0  0  0  0  0  0  0
  194.5660  177.5400  145.4180 C   0  0  0  0  0  3  0  0  0  0  0  0
  193.5200  172.8820  143.5540 C   0  0  0  0  0  2  0  0  0  0  0  0
  195.9550  177.3070  144.8860 C   0  0  0  0  0  3  0  0  0  0  0  0
  190.3980  172.5800  140.3790 C   0  0  0  0  0  3  0  0  0  0  0  0
  194.0740  175.1970  144.4140 C   0  0  1  0  0  3  0  0  0  0  0  0
  190.6190  169.9960  141.4260 C   0  0  0  0  0  0  0  0  0  0  0  0
  190.6860  173.4020  144.0130 C   0  0  0  0  0  2  0  0  0  0  0  0
  190.5830  171.1020  142.2830 C   0  0  0  0  0  3  0  0  0  0  0  0
  191.3430  175.5990  144.9710 C   0  0  0  0  0  0  0  0  0  0  0  0
  192.9500  169.4000  144.0580 C   0  0  1  0  0  3  0  0  0  0  0  0
  192.3340  176.6050  145.2760 N   0  0  0  0  0  0  0  0  0  0  0  0
  193.7520  170.5620  144.5370 N   0  0  0  0  0  0  0  0  0  0  0  0
  194.1050  171.9420  144.5600 C   0  0  0  0  0  0  0  0  0  0  0  0
  190.4320  171.4740  139.5180 C   0  0  0  0  0  3  0  0  0  0  0  0
  193.2550  169.1650  142.5660 C   0  0  2  0  0  3  0  0  0  0  0  0
  190.4750  172.3990  141.7680 C   0  0  0  0  0  0  0  0  0  0  0  0
  193.1130  174.1510  144.1690 N   0  0  0  0  0  0  0  0  0  0  0  0
  191.7170  174.4060  144.4470 C   0  0  0  0  0  0  0  0  0  0  0  0
  192.2730  168.1830  141.9090 C   0  0  0  0  0  2  0  0  0  0  0  0
  190.8160  168.6340  142.0050 C   0  0  0  0  0  2  0  0  0  0  0  0
  190.5490  170.1820  140.0380 C   0  0  0  0  0  3  0  0  0  0  0  0
  189.3230  175.5930  146.4530 C   0  0  0  0  0  3  0  0  0  0  0  0
  187.2530  176.6340  145.7310 C   0  0  0  0  0  0  0  0  0  0  0  0
  189.1990  176.6470  144.2750 C   0  0  0  0  0  3  0  0  0  0  0  0
  187.8620  176.9890  144.5150 C   0  0  0  0  0  3  0  0  0  0  0  0
  187.9880  175.9370  146.6970 C   0  0  0  0  0  3  0  0  0  0  0  0
  189.9290  175.9320  145.2350 C   0  0  0  0  0  0  0  0  0  0  0  0
  185.8110  176.9510  145.9920 C   0  0  0  0  0  3  0  0  0  0  0  0
  185.1730  177.6550  144.7940 C   0  0  0  0  0  1  0  0  0  0  0  0
  185.6440  177.7950  147.2590 C   0  0  0  0  0  1  0  0  0  0  0  0
  194.7120  168.8810  142.1710 C   0  0  0  0  0  2  0  0  0  0  0  0
  194.9110  168.7470  140.6580 C   0  0  0  0  0  2  0  0  0  0  0  0
  193.7570  171.7740  140.6620 F   0  0  0  0  0  0  0  0  0  0  0  0
  195.9680  170.9820  140.9560 C   0  0  1  0  0  3  0  0  0  0  0  0
  197.2440  169.0700  140.1920 O   0  0  0  0  0  1  0  0  0  0  0  0
  195.0950  171.5000  138.7280 C   0  0  1  0  0  3  0  0  0  0  0  0
  195.0470  171.9400  140.1950 C   0  0  1  0  0  0  0  0  0  0  0  0
  195.9910  169.6940  140.1260 C   0  0  1  0  0  0  0  0  0  0  0  0
  194.9360  174.3090  139.2310 C   0  0  1  0  0  3  0  0  0  0  0  0
  195.8790  172.4750  137.8380 C   0  0  1  0  0  3  0  0  0  0  0  0
  195.4440  173.4120  140.3820 C   0  0  0  0  0  2  0  0  0  0  0  0
  195.7010  170.1040  138.6850 C   0  0  0  0  0  2  0  0  0  0  0  0
  197.2700  171.5060  141.0800 O   0  0  0  0  0  1  0  0  0  0  0  0
  195.2810  173.8180  137.8790 N   0  0  0  0  0  2  0  0  0  0  0  0
  193.4300  174.5600  139.3300 C   0  0  0  0  0  2  0  0  0  0  0  0
  193.0830  174.9090  140.6330 O   0  0  0  0  0  1  0  0  0  0  0  0
  197.2330  172.5350  138.2080 O   0  0  0  0  0  0  0  0  0  0  0  0
  197.8450  173.2790  137.1990 C   0  0  0  0  0  2  0  0  0  0  0  0
  197.9100  172.4890  136.0420 O   0  0  0  0  0  1  0  0  0  0  0  0
  1 13  1  0  0  0  0
  4  5  2  0  0  0  0
  5  9  1  0  0  0  0
  6 17  2  0  0  0  0
  6  7  1  0  0  0  0
  8 23  1  0  0  0  0
  8 19  1  0  0  0  0
  9  7  2  0  0  0  0
 10 22  1  0  0  0  0
 11  4  1  6  0  0  0
 11  6  1  0  0  0  0
 12 26  1  0  0  0  0
 12 14  1  0  0  0  0
 13 24  1  0  0  0  0
 15 33  1  0  0  0  0
 15 17  1  0  0  0  0
 16 18  1  0  0  0  0
 16  2  1  1  0  0  0
 18 19  1  0  0  0  0
 18  2  1  0  0  0  0
 19  3  2  0  0  0  0
 20 27  1  0  0  0  0
 20 10  2  0  0  0  0
 21 37  1  1  0  0  0
 21 16  1  0  0  0  0
 22 14  2  0  0  0  0
 22  1  1  0  0  0  0
 23 11  1  0  0  0  0
 23 24  1  0  0  0  0
 24 15  2  0  0  0  0
 25 26  1  0  0  0  0
 25 21  1  0  0  0  0
 27 12  2  0  0  0  0
 28 32  1  0  0  0  0
 29 34  1  0  0  0  0
 29 32  2  0  0  0  0
 30 31  2  0  0  0  0
 30 33  1  0  0  0  0
 31 29  1  0  0  0  0
 33 28  2  0  0  0  0
 34 36  1  0  0  0  0
 35 34  1  0  0  0  0
 38 37  1  0  0  0  0
 40 49  1  6  0  0  0
 42 48  1  1  0  0  0
 42 43  1  0  0  0  0
 43 47  1  0  0  0  0
 43 39  1  1  0  0  0
 43 40  1  0  0  0  0
 44 41  1  1  0  0  0
 44 38  1  0  0  0  0
 44 40  1  0  0  0  0
 45 51  1  6  0  0  0
 45 47  1  0  0  0  0
 46 50  1  0  0  0  0
 46 53  1  1  0  0  0
 46 42  1  0  0  0  0
 48 44  1  0  0  0  0
 50 45  1  0  0  0  0
 51 52  1  0  0  0  0
 54 53  1  0  0  0  0
 55 54  1  0  0  0  0
M  END
>  <MODEL>
6

>  <REMARK>
 VINA RESULT:      -7.3      2.737      6.433
  Name = 
  8 active torsions:
  status: ('A' for Active; 'I' for Inactive)
    1  A    between atoms: C_1  and  O_53
    2  A    between atoms: C_8  and  C_22
    3  A    between atoms: C_8  and  C_43
    4  A    between atoms: C_10  and  C_32
    5  A    between atoms: C_11  and  CA_29
    6  A    between atoms: C_20  and  C_22
    7  A    between atoms: C_30  and  O_53
    8  A    between atoms: C_33  and  C_52
                            x       y       z     vdW  Elec       q    Type
                         _______ _______ _______ _____ _____    ______ ____

>  <TORSDO>
F 8

$$$$
=
 OpenBabel11052419253D

 55 62  0  0  1  0  0  0  0  0999 V2000
  190.3870  174.0870  142.2710 O   0  0  0  0  0  0  0  0  0  0  0  0
  194.0620  169.4250  143.5210 C   0  0  0  0  0  2  0  0  0  0  0  0
  195.1130  172.5080  144.3950 O   0  0  0  0  0  0  0  0  0  0  0  0
  195.3810  175.4350  143.5460 C   0  0  0  0  0  3  0  0  0  0  0  0
  196.3610  176.4870  143.8720 C   0  0  0  0  0  3  0  0  0  0  0  0
  193.7150  176.6080  144.8830 C   0  0  0  0  0  0  0  0  0  0  0  0
  194.7160  177.6200  145.3720 C   0  0  0  0  0  3  0  0  0  0  0  0
  193.5000  173.3360  142.8340 C   0  0  0  0  0  2  0  0  0  0  0  0
  196.0540  177.4970  144.6930 C   0  0  0  0  0  3  0  0  0  0  0  0
  190.1200  173.5450  139.9270 C   0  0  0  0  0  3  0  0  0  0  0  0
  194.1330  175.4780  144.0270 C   0  0  1  0  0  3  0  0  0  0  0  0
  190.4210  170.8230  140.4960 C   0  0  0  0  0  0  0  0  0  0  0  0
  190.7170  173.7390  143.6110 C   0  0  0  0  0  2  0  0  0  0  0  0
  190.4610  171.7670  141.5290 C   0  0  0  0  0  3  0  0  0  0  0  0
  191.4600  175.7480  144.8720 C   0  0  0  0  0  0  0  0  0  0  0  0
  192.9630  169.8130  142.7820 C   0  0  1  0  0  3  0  0  0  0  0  0
  192.4770  176.6990  145.2590 N   0  0  0  0  0  0  0  0  0  0  0  0
  193.8070  170.8860  143.3840 N   0  0  0  0  0  0  0  0  0  0  0  0
  194.1650  172.2450  143.6120 C   0  0  0  0  0  0  0  0  0  0  0  0
  190.0780  172.6020  138.8900 C   0  0  0  0  0  3  0  0  0  0  0  0
  193.1400  169.8390  141.2520 C   0  0  2  0  0  3  0  0  0  0  0  0
  190.3130  173.1310  141.2530 C   0  0  0  0  0  0  0  0  0  0  0  0
  193.1510  174.4780  143.6880 N   0  0  0  0  0  0  0  0  0  0  0  0
  191.7840  174.6660  144.1220 C   0  0  0  0  0  0  0  0  0  0  0  0
  192.1030  168.9730  140.5220 C   0  0  0  0  0  2  0  0  0  0  0  0
  190.6620  169.3840  140.8150 C   0  0  0  0  0  2  0  0  0  0  0  0
  190.2340  171.2420  139.1710 C   0  0  0  0  0  3  0  0  0  0  0  0
  189.2130  176.7990  144.5240 C   0  0  0  0  0  3  0  0  0  0  0  0
  187.4220  176.4570  146.1270 C   0  0  0  0  0  0  0  0  0  0  0  0
  189.5970  175.4330  146.4870 C   0  0  0  0  0  3  0  0  0  0  0  0
  188.2800  175.6590  146.9050 C   0  0  0  0  0  3  0  0  0  0  0  0
  187.8940  177.0230  144.9370 C   0  0  0  0  0  3  0  0  0  0  0  0
  190.0740  176.0160  145.3060 C   0  0  0  0  0  0  0  0  0  0  0  0
  186.0220  176.7490  146.5760 C   0  0  0  0  0  3  0  0  0  0  0  0
  185.1920  177.3520  145.4410 C   0  0  0  0  0  1  0  0  0  0  0  0
  186.0060  177.6710  147.7980 C   0  0  0  0  0  1  0  0  0  0  0  0
  194.5580  169.6430  140.6940 C   0  0  0  0  0  2  0  0  0  0  0  0
  194.7050  170.1140  139.2440 C   0  0  0  0  0  2  0  0  0  0  0  0
  192.9050  171.4900  136.9270 F   0  0  0  0  0  0  0  0  0  0  0  0
  193.7820  172.4050  138.9270 C   0  0  1  0  0  3  0  0  0  0  0  0
  195.7270  172.0040  140.3140 O   0  0  0  0  0  1  0  0  0  0  0  0
  195.0680  172.4490  136.8450 C   0  0  1  0  0  3  0  0  0  0  0  0
  193.6480  172.5520  137.4090 C   0  0  1  0  0  0  0  0  0  0  0  0
  195.0670  171.5990  139.1460 C   0  0  1  0  0  0  0  0  0  0  0  0
  193.2990  174.2910  135.5620 C   0  0  1  0  0  3  0  0  0  0  0  0
  195.6100  173.7940  136.3410 C   0  0  1  0  0  3  0  0  0  0  0  0
  192.9460  173.8560  137.0030 C   0  0  0  0  0  2  0  0  0  0  0  0
  195.9570  171.8690  137.9370 C   0  0  0  0  0  2  0  0  0  0  0  0
  193.8790  173.6590  139.5610 O   0  0  0  0  0  1  0  0  0  0  0  0
  194.7500  174.3410  135.2800 N   0  0  0  0  0  2  0  0  0  0  0  0
  192.5900  173.4240  134.5190 C   0  0  0  0  0  2  0  0  0  0  0  0
  191.2320  173.3300  134.8110 O   0  0  0  0  0  1  0  0  0  0  0  0
  195.7380  174.7210  137.3880 O   0  0  0  0  0  0  0  0  0  0  0  0
  196.9350  175.3890  137.1270 C   0  0  0  0  0  2  0  0  0  0  0  0
  197.7090  175.3870  138.2970 O   0  0  0  0  0  1  0  0  0  0  0  0
  1 13  1  0  0  0  0
  4  5  2  0  0  0  0
  5  9  1  0  0  0  0
  6 17  2  0  0  0  0
  6  7  1  0  0  0  0
  8 19  1  0  0  0  0
  8 23  1  0  0  0  0
  9  7  2  0  0  0  0
 10 22  1  0  0  0  0
 11  4  1  6  0  0  0
 11  6  1  0  0  0  0
 12 26  1  0  0  0  0
 12 14  1  0  0  0  0
 13 24  1  0  0  0  0
 15 17  1  0  0  0  0
 15 33  1  0  0  0  0
 16 18  1  0  0  0  0
 16  2  1  1  0  0  0
 18  2  1  0  0  0  0
 18 19  1  0  0  0  0
 19  3  2  0  0  0  0
 20 27  1  0  0  0  0
 20 10  2  0  0  0  0
 21 37  1  1  0  0  0
 21 16  1  0  0  0  0
 22 14  2  0  0  0  0
 22  1  1  0  0  0  0
 23 11  1  0  0  0  0
 23 24  1  0  0  0  0
 24 15  2  0  0  0  0
 25 26  1  0  0  0  0
 25 21  1  0  0  0  0
 27 12  2  0  0  0  0
 28 32  2  0  0  0  0
 28 33  1  0  0  0  0
 29 34  1  0  0  0  0
 29 31  2  0  0  0  0
 30 31  1  0  0  0  0
 32 29  1  0  0  0  0
 33 30  2  0  0  0  0
 34 36  1  0  0  0  0
 35 34  1  0  0  0  0
 38 37  1  0  0  0  0
 40 44  1  0  0  0  0
 40 49  1  1  0  0  0
 42 43  1  0  0  0  0
 42 48  1  1  0  0  0
 43 39  1  6  0  0  0
 43 40  1  0  0  0  0
 44 38  1  0  0  0  0
 44 41  1  1  0  0  0
 45 51  1  6  0  0  0
 45 47  1  0  0  0  0
 46 42  1  0  0  0  0
 46 53  1  1  0  0  0
 47 43  1  0  0  0  0
 48 44  1  0  0  0  0
 50 45  1  0  0  0  0
 50 46  1  0  0  0  0
 51 52  1  0  0  0  0
 54 53  1  0  0  0  0
 54 55  1  0  0  0  0
M  END
>  <MODEL>
7

>  <REMARK>
 VINA RESULT:      -6.9      3.112      7.006
  Name = 
  8 active torsions:
  status: ('A' for Active; 'I' for Inactive)
    1  A    between atoms: C_1  and  O_53
    2  A    between atoms: C_8  and  C_22
    3  A    between atoms: C_8  and  C_43
    4  A    between atoms: C_10  and  C_32
    5  A    between atoms: C_11  and  CA_29
    6  A    between atoms: C_20  and  C_22
    7  A    between atoms: C_30  and  O_53
    8  A    between atoms: C_33  and  C_52
                            x       y       z     vdW  Elec       q    Type
                         _______ _______ _______ _____ _____    ______ ____

>  <TORSDO>
F 8

$$$$
=
 OpenBabel11052419253D

 55 62  0  0  1  0  0  0  0  0999 V2000
  190.4770  174.0990  140.5880 O   0  0  0  0  0  0  0  0  0  0  0  0
  193.4370  168.8670  141.4060 C   0  0  0  0  0  2  0  0  0  0  0  0
  194.9300  171.6850  142.5080 O   0  0  0  0  0  0  0  0  0  0  0  0
  195.6180  174.6000  141.8920 C   0  0  0  0  0  3  0  0  0  0  0  0
  196.7410  175.4690  142.2860 C   0  0  0  0  0  3  0  0  0  0  0  0
  194.1450  175.8900  143.3420 C   0  0  0  0  0  0  0  0  0  0  0  0
  195.2840  176.7040  143.8950 C   0  0  0  0  0  3  0  0  0  0  0  0
  193.4490  172.8620  141.0420 C   0  0  0  0  0  2  0  0  0  0  0  0
  196.5880  176.4440  143.1890 C   0  0  0  0  0  3  0  0  0  0  0  0
  190.1270  173.7930  138.2120 C   0  0  0  0  0  3  0  0  0  0  0  0
  194.3910  174.7850  142.3920 C   0  0  1  0  0  3  0  0  0  0  0  0
  190.0300  171.0180  138.5570 C   0  0  0  0  0  0  0  0  0  0  0  0
  190.7570  173.5990  141.8900 C   0  0  0  0  0  2  0  0  0  0  0  0
  190.2100  171.8600  139.6610 C   0  0  0  0  0  3  0  0  0  0  0  0
  191.7880  175.3700  143.2960 C   0  0  0  0  0  0  0  0  0  0  0  0
  192.4050  169.4690  140.7180 C   0  0  1  0  0  3  0  0  0  0  0  0
  192.9340  176.1290  143.7430 N   0  0  0  0  0  0  0  0  0  0  0  0
  193.3980  170.3560  141.3900 N   0  0  0  0  0  0  0  0  0  0  0  0
  193.9510  171.6260  141.7210 C   0  0  0  0  0  0  0  0  0  0  0  0
  189.9450  172.9530  137.1030 C   0  0  0  0  0  3  0  0  0  0  0  0
  192.5790  169.5930  139.1920 C   0  0  2  0  0  3  0  0  0  0  0  0
  190.2620  173.2490  139.4980 C   0  0  0  0  0  0  0  0  0  0  0  0
  193.2730  173.9680  141.9900 N   0  0  0  0  0  0  0  0  0  0  0  0
  191.9490  174.3170  142.4570 C   0  0  0  0  0  0  0  0  0  0  0  0
  191.4250  168.9490  138.4110 C   0  0  0  0  0  2  0  0  0  0  0  0
  190.0590  169.5390  138.7570 C   0  0  0  0  0  2  0  0  0  0  0  0
  189.9020  171.5660  137.2720 C   0  0  0  0  0  3  0  0  0  0  0  0
  189.6310  176.6000  142.9690 C   0  0  0  0  0  3  0  0  0  0  0  0
  187.9050  176.5510  144.6750 C   0  0  0  0  0  0  0  0  0  0  0  0
  189.9930  175.3550  145.0150 C   0  0  0  0  0  3  0  0  0  0  0  0
  188.7260  175.7360  145.4730 C   0  0  0  0  0  3  0  0  0  0  0  0
  188.3610  176.9790  143.4230 C   0  0  0  0  0  3  0  0  0  0  0  0
  190.4570  175.8000  143.7700 C   0  0  0  0  0  0  0  0  0  0  0  0
  186.5620  177.0070  145.1620 C   0  0  0  0  0  3  0  0  0  0  0  0
  186.3140  178.4740  144.8080 C   0  0  0  0  0  1  0  0  0  0  0  0
  186.4100  176.7880  146.6700 C   0  0  0  0  0  1  0  0  0  0  0  0
  193.9520  169.2400  138.5990 C   0  0  0  0  0  2  0  0  0  0  0  0
  194.0550  169.5390  137.1000 C   0  0  0  0  0  2  0  0  0  0  0  0
  193.0940  172.5880  137.6240 F   0  0  0  0  0  0  0  0  0  0  0  0
  195.2400  171.6060  137.8210 C   0  0  1  0  0  3  0  0  0  0  0  0
  196.4190  169.7800  136.7550 O   0  0  0  0  0  1  0  0  0  0  0  0
  194.4810  172.5740  135.7050 C   0  0  1  0  0  3  0  0  0  0  0  0
  194.4080  172.7460  137.2250 C   0  0  1  0  0  0  0  0  0  0  0  0
  195.2110  170.4890  136.7740 C   0  0  1  0  0  0  0  0  0  0  0  0
  194.4810  175.2510  136.7030 C   0  0  1  0  0  3  0  0  0  0  0  0
  195.3550  173.6360  135.0240 C   0  0  1  0  0  3  0  0  0  0  0  0
  194.8900  174.1300  137.6850 C   0  0  0  0  0  2  0  0  0  0  0  0
  194.9980  171.1690  135.4240 C   0  0  0  0  0  2  0  0  0  0  0  0
  196.5670  172.0100  138.0690 O   0  0  0  0  0  1  0  0  0  0  0  0
  194.8420  174.9880  135.2930 N   0  0  0  0  0  2  0  0  0  0  0  0
  192.9910  175.5830  136.8110 C   0  0  0  0  0  2  0  0  0  0  0  0
  192.5470  176.2050  135.6460 O   0  0  0  0  0  1  0  0  0  0  0  0
  196.6960  173.5360  135.4310 O   0  0  0  0  0  0  0  0  0  0  0  0
  197.3620  174.5260  134.7070 C   0  0  0  0  0  2  0  0  0  0  0  0
  197.8700  175.4700  135.6110 O   0  0  0  0  0  1  0  0  0  0  0  0
  1 13  1  0  0  0  0
  4  5  2  0  0  0  0
  5  9  1  0  0  0  0
  6 17  2  0  0  0  0
  6  7  1  0  0  0  0
  8 19  1  0  0  0  0
  8 23  1  0  0  0  0
  9  7  2  0  0  0  0
 10 22  1  0  0  0  0
 11  4  1  6  0  0  0
 11  6  1  0  0  0  0
 12 26  1  0  0  0  0
 12 14  1  0  0  0  0
 13 24  1  0  0  0  0
 15 17  1  0  0  0  0
 15 33  1  0  0  0  0
 16 18  1  0  0  0  0
 16  2  1  1  0  0  0
 18  2  1  0  0  0  0
 18 19  1  0  0  0  0
 19  3  2  0  0  0  0
 20 27  1  0  0  0  0
 20 10  2  0  0  0  0
 21 37  1  6  0  0  0
 21 16  1  0  0  0  0
 22 14  2  0  0  0  0
 22  1  1  0  0  0  0
 23 11  1  0  0  0  0
 23 24  1  0  0  0  0
 24 15  2  0  0  0  0
 25 26  1  0  0  0  0
 25 21  1  0  0  0  0
 27 12  2  0  0  0  0
 28 32  2  0  0  0  0
 28 33  1  0  0  0  0
 29 34  1  0  0  0  0
 29 31  2  0  0  0  0
 30 31  1  0  0  0  0
 32 29  1  0  0  0  0
 33 30  2  0  0  0  0
 34 36  1  0  0  0  0
 35 34  1  0  0  0  0
 38 37  1  0  0  0  0
 40 49  1  6  0  0  0
 42 48  1  1  0  0  0
 42 43  1  0  0  0  0
 43 39  1  1  0  0  0
 43 47  1  0  0  0  0
 43 40  1  0  0  0  0
 44 41  1  1  0  0  0
 44 38  1  0  0  0  0
 44 40  1  0  0  0  0
 45 51  1  6  0  0  0
 45 47  1  0  0  0  0
 46 50  1  0  0  0  0
 46 53  1  1  0  0  0
 46 42  1  0  0  0  0
 48 44  1  0  0  0  0
 50 45  1  0  0  0  0
 52 51  1  0  0  0  0
 54 53  1  0  0  0  0
 54 55  1  0  0  0  0
M  END
>  <MODEL>
8

>  <REMARK>
 VINA RESULT:      -6.8      3.352      7.414
  Name = 
  8 active torsions:
  status: ('A' for Active; 'I' for Inactive)
    1  A    between atoms: C_1  and  O_53
    2  A    between atoms: C_8  and  C_22
    3  A    between atoms: C_8  and  C_43
    4  A    between atoms: C_10  and  C_32
    5  A    between atoms: C_11  and  CA_29
    6  A    between atoms: C_20  and  C_22
    7  A    between atoms: C_30  and  O_53
    8  A    between atoms: C_33  and  C_52
                            x       y       z     vdW  Elec       q    Type
                         _______ _______ _______ _____ _____    ______ ____

>  <TORSDO>
F 8

$$$$
=
 OpenBabel11052419253D

 55 62  0  0  1  0  0  0  0  0999 V2000
  191.9500  174.1570  144.0560 O   0  0  0  0  0  0  0  0  0  0  0  0
  196.2150  175.7260  140.0380 C   0  0  0  0  0  2  0  0  0  0  0  0
  193.2650  174.6310  138.8230 O   0  0  0  0  0  0  0  0  0  0  0  0
  191.0380  172.5480  139.0600 C   0  0  0  0  0  3  0  0  0  0  0  0
  190.1220  171.9440  138.0760 C   0  0  0  0  0  3  0  0  0  0  0  0
  189.1610  173.7740  140.0150 C   0  0  0  0  0  0  0  0  0  0  0  0
  188.2170  173.3090  138.9390 C   0  0  0  0  0  2  0  0  0  0  0  0
  192.9020  173.6730  140.9850 C   0  0  0  0  0  2  0  0  0  0  0  0
  188.8280  172.2770  138.0290 C   0  0  0  0  0  3  0  0  0  0  0  0
  193.3590  172.6330  145.3010 C   0  0  0  0  0  3  0  0  0  0  0  0
  190.5960  173.4210  139.9730 C   0  0  0  0  0  0  0  0  0  0  0  0
  195.6130  174.1710  144.6830 C   0  0  0  0  0  0  0  0  0  0  0  0
  191.7630  175.2480  143.1610 C   0  0  0  0  0  2  0  0  0  0  0  0
  194.3470  174.5620  144.2300 C   0  0  0  0  0  3  0  0  0  0  0  0
  189.5650  175.0640  142.0160 C   0  0  0  0  0  0  0  0  0  0  0  0
  195.9920  175.4110  141.3620 C   0  0  1  0  0  3  0  0  0  0  0  0
  188.7210  174.5380  140.9670 N   0  0  0  0  0  0  0  0  0  0  0  0
  194.9210  175.0730  140.3800 N   0  0  0  0  0  0  0  0  0  0  0  0
  193.6680  174.5080  140.0080 C   0  0  0  0  0  0  0  0  0  0  0  0
  194.6250  172.2390  145.7580 C   0  0  0  0  0  3  0  0  0  0  0  0
  196.6290  174.1040  141.8730 C   0  0  2  0  0  3  0  0  0  0  0  0
  193.2150  173.7980  144.5330 C   0  0  0  0  0  0  0  0  0  0  0  0
  191.4700  173.9930  140.9670 N   0  0  0  0  0  0  0  0  0  0  0  0
  190.8970  174.8110  142.0130 C   0  0  0  0  0  0  0  0  0  0  0  0
  197.5350  174.3270  143.0930 C   0  0  0  0  0  2  0  0  0  0  0  0
  196.8090  174.9650  144.2750 C   0  0  0  0  0  2  0  0  0  0  0  0
  195.7540  173.0020  145.4460 C   0  0  0  0  0  3  0  0  0  0  0  0
  188.3510  177.1070  142.8050 C   0  0  0  0  0  3  0  0  0  0  0  0
  187.6400  177.3120  145.1170 C   0  0  0  0  0  0  0  0  0  0  0  0
  188.8210  175.3230  144.3740 C   0  0  0  0  0  3  0  0  0  0  0  0
  188.1940  176.0500  145.3920 C   0  0  0  0  0  3  0  0  0  0  0  0
  187.7190  177.8350  143.8210 C   0  0  0  0  0  3  0  0  0  0  0  0
  188.9180  175.8550  143.0810 C   0  0  0  0  0  0  0  0  0  0  0  0
  187.0020  178.1280  146.2010 C   0  0  0  0  0  3  0  0  0  0  0  0
  186.4120  177.2340  147.2920 C   0  0  0  0  0  1  0  0  0  0  0  0
  185.9290  179.0650  145.6390 C   0  0  0  0  0  1  0  0  0  0  0  0
  197.2680  173.1690  140.8360 C   0  0  0  0  0  2  0  0  0  0  0  0
  197.9280  171.9360  141.4620 C   0  0  0  0  0  2  0  0  0  0  0  0
  196.7540  170.2560  138.9530 F   0  0  0  0  0  0  0  0  0  0  0  0
  197.0790  169.6100  141.2080 C   0  0  1  0  0  3  0  0  0  0  0  0
  197.0730  170.7310  143.3540 O   0  0  0  0  0  1  0  0  0  0  0  0
  194.9820  170.6390  140.4760 C   0  0  1  0  0  3  0  0  0  0  0  0
  196.1000  169.6910  140.0320 C   0  0  1  0  0  0  0  0  0  0  0  0
  196.9020  170.9230  141.9770 C   0  0  1  0  0  0  0  0  0  0  0  0
  194.2190  168.4040  138.8670 C   0  0  1  0  0  3  0  0  0  0  0  0
  193.6620  169.9100  140.7670 C   0  0  1  0  0  3  0  0  0  0  0  0
  195.5720  168.3130  139.6090 C   0  0  0  0  0  2  0  0  0  0  0  0
  195.4770  171.3950  141.7010 C   0  0  0  0  0  2  0  0  0  0  0  0
  196.7930  168.5120  142.0430 O   0  0  0  0  0  1  0  0  0  0  0  0
  193.1870  169.1900  139.5760 N   0  0  0  0  0  2  0  0  0  0  0  0
  194.3910  168.9270  137.4400 C   0  0  0  0  0  2  0  0  0  0  0  0
  195.3450  168.1740  136.7590 O   0  0  0  0  0  1  0  0  0  0  0  0
  193.7920  169.0250  141.8500 O   0  0  0  0  0  0  0  0  0  0  0  0
  192.6510  169.2390  142.6240 C   0  0  0  0  0  2  0  0  0  0  0  0
  193.0440  169.3850  143.9630 O   0  0  0  0  0  1  0  0  0  0  0  0
  1 22  1  0  0  0  0
  2 18  1  0  0  0  0
  3 19  2  0  0  0  0
  4 11  2  0  0  0  0
  5  4  1  0  0  0  0
  6 17  2  0  0  0  0
  7  6  1  0  0  0  0
  9  5  2  0  0  0  0
  9  7  1  0  0  0  0
 10 20  1  0  0  0  0
 11  6  1  0  0  0  0
 11 23  1  0  0  0  0
 12 27  1  0  0  0  0
 13  1  1  0  0  0  0
 14 22  1  0  0  0  0
 14 12  2  0  0  0  0
 15 33  1  0  0  0  0
 16  2  1  6  0  0  0
 16 21  1  0  0  0  0
 17 15  1  0  0  0  0
 18 16  1  0  0  0  0
 19 18  1  0  0  0  0
 19  8  1  0  0  0  0
 21 37  1  6  0  0  0
 21 25  1  0  0  0  0
 22 10  2  0  0  0  0
 23  8  1  0  0  0  0
 23 24  1  0  0  0  0
 24 15  2  0  0  0  0
 24 13  1  0  0  0  0
 25 26  1  0  0  0  0
 26 12  1  0  0  0  0
 27 20  2  0  0  0  0
 28 33  2  0  0  0  0
 28 32  1  0  0  0  0
 29 31  1  0  0  0  0
 29 34  1  0  0  0  0
 30 31  2  0  0  0  0
 32 29  2  0  0  0  0
 33 30  1  0  0  0  0
 34 35  1  0  0  0  0
 36 34  1  0  0  0  0
 37 38  1  0  0  0  0
 38 44  1  0  0  0  0
 40 44  1  0  0  0  0
 40 49  1  1  0  0  0
 42 46  1  0  0  0  0
 42 48  1  1  0  0  0
 43 39  1  6  0  0  0
 43 42  1  0  0  0  0
 43 40  1  0  0  0  0
 44 41  1  1  0  0  0
 45 51  1  6  0  0  0
 45 50  1  0  0  0  0
 45 47  1  0  0  0  0
 46 53  1  1  0  0  0
 47 43  1  0  0  0  0
 48 44  1  0  0  0  0
 50 46  1  0  0  0  0
 52 51  1  0  0  0  0
 53 54  1  0  0  0  0
 54 55  1  0  0  0  0
M  END
>  <MODEL>
9

>  <REMARK>
 VINA RESULT:      -6.7      2.567      3.538
  Name = 
  8 active torsions:
  status: ('A' for Active; 'I' for Inactive)
    1  A    between atoms: C_1  and  O_53
    2  A    between atoms: C_8  and  C_22
    3  A    between atoms: C_8  and  C_43
    4  A    between atoms: C_10  and  C_32
    5  A    between atoms: C_11  and  CA_29
    6  A    between atoms: C_20  and  C_22
    7  A    between atoms: C_30  and  O_53
    8  A    between atoms: C_33  and  C_52
                            x       y       z     vdW  Elec       q    Type
                         _______ _______ _______ _____ _____    ______ ____

>  <TORSDO>
F 8

$$$$
