=
 OpenBabel11052421393D

 32 37  0  0  1  0  0  0  0  0999 V2000
  193.2520  177.0530  144.9140 C   0  0  2  0  0  3  0  0  0  0  0  0
  188.2340  177.4770  143.9210 C   0  0  0  0  0  0  0  0  0  0  0  0
  186.3190  178.4780  148.2600 C   0  0  0  0  0  3  0  0  0  0  0  0
  185.1230  178.6560  147.6890 C   0  0  0  0  0  3  0  0  0  0  0  0
  186.7830  177.7510  141.9130 C   0  0  0  0  0  0  0  0  0  0  0  0
  185.4990  177.9590  141.4210 C   0  0  0  0  0  0  0  0  0  0  0  0
  190.6400  177.0900  143.7360 C   0  0  0  0  0  0  0  0  0  0  0  0
  189.6040  177.2190  145.9210 C   0  0  0  0  0  3  0  0  0  0  0  0
  183.3350  178.2910  141.4370 C   0  0  0  0  0  0  0  0  0  0  0  0
  192.0550  176.7700  145.8210 C   0  0  0  0  0  2  0  0  0  0  0  0
  187.3120  177.5400  147.6370 C   0  0  0  0  0  2  0  0  0  0  0  0
  188.3480  177.4300  145.3300 C   0  0  0  0  0  0  0  0  0  0  0  0
  187.2060  177.5960  146.1280 C   0  0  0  0  0  0  0  0  0  0  0  0
  185.8280  177.8480  144.1890 C   0  0  0  0  0  0  0  0  0  0  0  0
  183.7080  178.2620  140.1380 N   0  0  0  0  0  0  0  0  0  0  0  0
  193.0440  176.3680  143.5690 C   0  0  0  0  0  2  0  0  0  0  0  0
  190.7490  177.0660  145.1400 C   0  0  0  0  0  0  0  0  0  0  0  0
  185.0480  178.0560  140.1190 C   0  0  0  0  0  3  0  0  0  0  0  0
  191.8520  176.9960  142.8510 C   0  0  0  0  0  2  0  0  0  0  0  0
  184.7930  177.9100  146.4260 C   0  0  0  0  0  2  0  0  0  0  0  0
  185.9760  177.7990  145.5530 N   0  0  0  0  0  0  0  0  0  0  0  0
  184.5470  178.0580  143.6260 C   0  0  0  0  0  3  0  0  0  0  0  0
  189.3950  177.3100  143.1470 C   0  0  0  0  0  3  0  0  0  0  0  0
  187.8080  177.6090  141.0330 F   0  0  0  0  0  0  0  0  0  0  0  0
  181.9310  178.4970  141.8910 C   0  0  0  0  0  1  0  0  0  0  0  0
  186.9670  177.6910  143.3280 C   0  0  0  0  0  0  0  0  0  0  0  0
  184.4280  178.1060  142.2460 C   0  0  0  0  0  0  0  0  0  0  0  0
  194.4170  176.5720  145.5110 O   0  0  0  0  0  0  0  0  0  0  0  0
  194.5570  175.2700  145.0270 C   0  0  0  0  0  2  0  0  0  0  0  0
  195.9880  174.8690  145.0790 C   0  0  0  0  0  0  0  0  0  0  0  0
  196.4550  174.1000  146.1370 O   0  0  0  0  0  1  0  0  0  0  0  0
  196.7810  175.2500  144.1810 O   0  0  0  0  0  0  0  0  0  0  0  0
  1 28  1  1  0  0  0
  1 10  1  0  0  0  0
  2 12  1  0  0  0  0
  4  3  2  0  0  0  0
  5 26  1  0  0  0  0
  6  5  2  0  0  0  0
  6 27  1  0  0  0  0
  7 17  1  0  0  0  0
  9 25  1  0  0  0  0
  9 27  2  0  0  0  0
 11  3  1  0  0  0  0
 12  8  1  0  0  0  0
 12 13  2  0  0  0  0
 13 11  1  0  0  0  0
 14 21  1  0  0  0  0
 15  9  1  0  0  0  0
 16  1  1  0  0  0  0
 17 10  1  0  0  0  0
 17  8  2  0  0  0  0
 18 15  2  0  0  0  0
 18  6  1  0  0  0  0
 19 16  1  0  0  0  0
 19  7  1  0  0  0  0
 20  4  1  0  0  0  0
 21 13  1  0  0  0  0
 21 20  1  0  0  0  0
 22 14  2  0  0  0  0
 23  7  2  0  0  0  0
 23  2  1  0  0  0  0
 24  5  1  0  0  0  0
 26  2  2  0  0  0  0
 26 14  1  0  0  0  0
 27 22  1  0  0  0  0
 29 30  1  0  0  0  0
 29 28  1  0  0  0  0
 30 31  1  0  0  0  0
 32 30  2  0  0  0  0
M  END
>  <MODEL>
1

>  <REMARK>
 VINA RESULT:      -9.3      0.000      0.000
  Name = 
  3 active torsions:
  status: ('A' for Active; 'I' for Inactive)
    1  A    between atoms: C_1  and  C_10
    2  A    between atoms: C_2  and  O_24
    3  A    between atoms: C_10  and  O_24
                            x       y       z     vdW  Elec       q    Type
                         _______ _______ _______ _____ _____    ______ ____

>  <TORSDO>
F 3

$$$$
=
 OpenBabel11052421393D

 32 37  0  0  1  0  0  0  0  0999 V2000
  184.4350  178.7840  143.3810 C   0  0  2  0  0  3  0  0  0  0  0  0
  188.9310  176.3890  144.0100 C   0  0  0  0  0  0  0  0  0  0  0  0
  189.4040  173.8140  139.9310 C   0  0  0  0  0  3  0  0  0  0  0  0
  190.6330  173.4470  140.3070 C   0  0  0  0  0  3  0  0  0  0  0  0
  190.9180  176.5910  145.5010 C   0  0  0  0  0  0  0  0  0  0  0  0
  192.2040  176.1520  145.7970 C   0  0  0  0  0  0  0  0  0  0  0  0
  186.9150  177.7280  144.3520 C   0  0  0  0  0  0  0  0  0  0  0  0
  187.0170  176.1510  142.5180 C   0  0  0  0  0  3  0  0  0  0  0  0
  194.0620  175.0070  145.6210 C   0  0  0  0  0  0  0  0  0  0  0  0
  184.9050  177.4400  142.8260 C   0  0  0  0  0  2  0  0  0  0  0  0
  188.3670  174.1300  140.9710 C   0  0  0  0  0  2  0  0  0  0  0  0
  188.3180  175.7760  142.8920 C   0  0  0  0  0  0  0  0  0  0  0  0
  189.0140  174.7990  142.1640 C   0  0  0  0  0  0  0  0  0  0  0  0
  190.9090  175.0020  143.6100 C   0  0  0  0  0  0  0  0  0  0  0  0
  194.2150  175.8240  146.6870 N   0  0  0  0  0  0  0  0  0  0  0  0
  184.7230  178.8470  144.8750 C   0  0  0  0  0  2  0  0  0  0  0  0
  186.3200  177.1290  143.2260 C   0  0  0  0  0  0  0  0  0  0  0  0
  193.0680  176.5370  146.8040 C   0  0  0  0  0  3  0  0  0  0  0  0
  186.2320  178.8340  145.1080 C   0  0  0  0  0  2  0  0  0  0  0  0
  190.9580  173.3580  141.7740 C   0  0  0  0  0  2  0  0  0  0  0  0
  190.2850  174.4300  142.5300 N   0  0  0  0  0  0  0  0  0  0  0  0
  192.2180  174.5980  143.9630 C   0  0  0  0  0  3  0  0  0  0  0  0
  188.2110  177.3660  144.7200 C   0  0  0  0  0  3  0  0  0  0  0  0
  190.3550  177.5480  146.2830 F   0  0  0  0  0  0  0  0  0  0  0  0
  195.1050  174.0530  145.1520 C   0  0  0  0  0  1  0  0  0  0  0  0
  190.2420  176.0110  144.3840 C   0  0  0  0  0  0  0  0  0  0  0  0
  192.8250  175.1950  145.0570 C   0  0  0  0  0  0  0  0  0  0  0  0
  183.0650  178.9290  143.1600 O   0  0  0  0  0  0  0  0  0  0  0  0
  182.8180  178.2340  141.9740 C   0  0  0  0  0  2  0  0  0  0  0  0
  181.4480  178.5500  141.4870 C   0  0  0  0  0  0  0  0  0  0  0  0
  181.0410  178.1170  140.2320 O   0  0  0  0  0  0  0  0  0  0  0  0
  180.6690  179.2320  142.2000 O   0  0  0  0  0  1  0  0  0  0  0  0
  1 28  1  1  0  0  0
  1 16  1  0  0  0  0
  2 26  2  0  0  0  0
  2 23  1  0  0  0  0
  3  4  2  0  0  0  0
  3 11  1  0  0  0  0
  4 20  1  0  0  0  0
  5  6  2  0  0  0  0
  5 24  1  0  0  0  0
  6 18  1  0  0  0  0
  7 23  2  0  0  0  0
  7 19  1  0  0  0  0
  8 12  1  0  0  0  0
  8 17  2  0  0  0  0
  9 15  1  0  0  0  0
 10 17  1  0  0  0  0
 10  1  1  0  0  0  0
 11 13  1  0  0  0  0
 12  2  1  0  0  0  0
 13 21  1  0  0  0  0
 13 12  2  0  0  0  0
 14 22  2  0  0  0  0
 14 26  1  0  0  0  0
 15 18  2  0  0  0  0
 16 19  1  0  0  0  0
 17  7  1  0  0  0  0
 20 21  1  0  0  0  0
 21 14  1  0  0  0  0
 22 27  1  0  0  0  0
 25  9  1  0  0  0  0
 26  5  1  0  0  0  0
 27  9  2  0  0  0  0
 27  6  1  0  0  0  0
 29 28  1  0  0  0  0
 30 29  1  0  0  0  0
 30 32  1  0  0  0  0
 31 30  2  0  0  0  0
M  END
>  <MODEL>
2

>  <REMARK>
 VINA RESULT:      -8.6      5.060      9.367
  Name = 
  3 active torsions:
  status: ('A' for Active; 'I' for Inactive)
    1  A    between atoms: C_1  and  C_10
    2  A    between atoms: C_2  and  O_24
    3  A    between atoms: C_10  and  O_24
                            x       y       z     vdW  Elec       q    Type
                         _______ _______ _______ _____ _____    ______ ____

>  <TORSDO>
F 3

$$$$
=
 OpenBabel11052421393D

 32 37  0  0  1  0  0  0  0  0999 V2000
  190.3100  173.2870  138.6340 C   0  0  2  0  0  3  0  0  0  0  0  0
  188.1850  175.3940  142.8040 C   0  0  0  0  0  0  0  0  0  0  0  0
  191.6120  174.8660  146.1900 C   0  0  0  0  0  3  0  0  0  0  0  0
  190.8740  175.5800  147.0470 C   0  0  0  0  0  3  0  0  0  0  0  0
  186.2530  176.8820  143.3190 C   0  0  0  0  0  0  0  0  0  0  0  0
  185.5670  177.6110  144.2850 C   0  0  0  0  0  0  0  0  0  0  0  0
  188.5770  174.5130  140.5580 C   0  0  0  0  0  0  0  0  0  0  0  0
  190.0920  173.9420  142.3580 C   0  0  0  0  0  3  0  0  0  0  0  0
  185.0840  178.4550  146.2470 C   0  0  0  0  0  0  0  0  0  0  0  0
  190.5360  172.9600  140.1090 C   0  0  0  0  0  2  0  0  0  0  0  0
  190.9400  174.0700  145.1090 C   0  0  0  0  0  2  0  0  0  0  0  0
  189.3360  174.7090  143.2590 C   0  0  0  0  0  0  0  0  0  0  0  0
  189.7150  174.8030  144.6070 C   0  0  0  0  0  0  0  0  0  0  0  0
  187.8520  176.2240  145.0840 C   0  0  0  0  0  0  0  0  0  0  0  0
  184.1320  178.8980  145.3950 N   0  0  0  0  0  0  0  0  0  0  0  0
  188.8150  173.3360  138.3470 C   0  0  0  0  0  2  0  0  0  0  0  0
  189.7330  173.8530  141.0140 C   0  0  0  0  0  0  0  0  0  0  0  0
  184.4240  178.3790  144.1770 C   0  0  0  0  0  3  0  0  0  0  0  0
  188.1840  174.5010  139.1070 C   0  0  0  0  0  2  0  0  0  0  0  0
  189.3760  175.5730  146.9090 C   0  0  0  0  0  2  0  0  0  0  0  0
  188.9760  175.5500  145.4900 N   0  0  0  0  0  0  0  0  0  0  0  0
  187.1090  176.9840  146.0180 C   0  0  0  0  0  3  0  0  0  0  0  0
  187.8290  175.2850  141.4490 C   0  0  0  0  0  3  0  0  0  0  0  0
  185.7840  176.8760  142.0450 F   0  0  0  0  0  0  0  0  0  0  0  0
  185.1260  178.8010  147.6950 C   0  0  0  0  0  1  0  0  0  0  0  0
  187.4250  176.1660  143.7140 C   0  0  0  0  0  0  0  0  0  0  0  0
  185.9800  177.6580  145.5790 C   0  0  0  0  0  0  0  0  0  0  0  0
  190.9080  172.3090  137.8400 O   0  0  0  0  0  0  0  0  0  0  0  0
  190.6280  171.1030  138.4850 C   0  0  0  0  0  2  0  0  0  0  0  0
  190.2100  170.0870  137.4830 C   0  0  0  0  0  0  0  0  0  0  0  0
  190.1080  168.7510  137.8510 O   0  0  0  0  0  1  0  0  0  0  0  0
  189.9750  170.4320  136.2970 O   0  0  0  0  0  0  0  0  0  0  0  0
  1 28  1  6  0  0  0
  1 10  1  0  0  0  0
  2 12  1  0  0  0  0
  2 26  2  0  0  0  0
  3  4  2  0  0  0  0
  5 26  1  0  0  0  0
  5  6  2  0  0  0  0
  6 27  1  0  0  0  0
  7 17  1  0  0  0  0
  7 23  2  0  0  0  0
  8 12  1  0  0  0  0
  9 25  1  0  0  0  0
 10 17  1  0  0  0  0
 11  3  1  0  0  0  0
 12 13  2  0  0  0  0
 13 11  1  0  0  0  0
 13 21  1  0  0  0  0
 14 21  1  0  0  0  0
 14 22  2  0  0  0  0
 15  9  1  0  0  0  0
 16  1  1  0  0  0  0
 16 19  1  0  0  0  0
 17  8  2  0  0  0  0
 18  6  1  0  0  0  0
 18 15  2  0  0  0  0
 19  7  1  0  0  0  0
 20  4  1  0  0  0  0
 21 20  1  0  0  0  0
 23  2  1  0  0  0  0
 24  5  1  0  0  0  0
 26 14  1  0  0  0  0
 27 22  1  0  0  0  0
 27  9  2  0  0  0  0
 28 29  1  0  0  0  0
 30 31  1  0  0  0  0
 30 29  1  0  0  0  0
 32 30  2  0  0  0  0
M  END
>  <MODEL>
3

>  <REMARK>
 VINA RESULT:      -8.3      4.731      6.112
  Name = 
  3 active torsions:
  status: ('A' for Active; 'I' for Inactive)
    1  A    between atoms: C_1  and  C_10
    2  A    between atoms: C_2  and  O_24
    3  A    between atoms: C_10  and  O_24
                            x       y       z     vdW  Elec       q    Type
                         _______ _______ _______ _____ _____    ______ ____

>  <TORSDO>
F 3

$$$$
=
 OpenBabel11052421393D

 32 37  0  0  1  0  0  0  0  0999 V2000
  195.1850  174.4710  145.3200 C   0  0  2  0  0  3  0  0  0  0  0  0
  190.3450  176.1760  145.1990 C   0  0  0  0  0  0  0  0  0  0  0  0
  188.3900  173.7220  141.5050 C   0  0  0  0  0  3  0  0  0  0  0  0
  187.1920  174.2390  141.7980 C   0  0  0  0  0  3  0  0  0  0  0  0
  188.8120  177.4350  146.7070 C   0  0  0  0  0  0  0  0  0  0  0  0
  187.5240  177.9140  146.9260 C   0  0  0  0  0  0  0  0  0  0  0  0
  192.7070  175.8460  145.7370 C   0  0  0  0  0  0  0  0  0  0  0  0
  191.7990  174.9330  143.6870 C   0  0  0  0  0  3  0  0  0  0  0  0
  185.4000  178.3020  146.5630 C   0  0  0  0  0  0  0  0  0  0  0  0
  194.2290  174.5950  144.1350 C   0  0  0  0  0  2  0  0  0  0  0  0
  189.6370  174.4920  141.8350 C   0  0  0  0  0  2  0  0  0  0  0  0
  190.5320  175.4520  143.9980 C   0  0  0  0  0  0  0  0  0  0  0  0
  189.4490  175.2570  143.1270 C   0  0  0  0  0  0  0  0  0  0  0  0
  187.9940  176.4750  144.5830 C   0  0  0  0  0  0  0  0  0  0  0  0
  185.6980  178.8810  147.7480 N   0  0  0  0  0  0  0  0  0  0  0  0
  195.1940  175.7760  146.1050 C   0  0  0  0  0  2  0  0  0  0  0  0
  192.8790  175.1090  144.5510 C   0  0  0  0  0  0  0  0  0  0  0  0
  187.0130  178.6460  147.9800 C   0  0  0  0  0  3  0  0  0  0  0  0
  193.8220  176.0080  146.7330 C   0  0  0  0  0  2  0  0  0  0  0  0
  187.1150  175.5890  142.4570 C   0  0  0  0  0  2  0  0  0  0  0  0
  188.2100  175.7660  143.4280 N   0  0  0  0  0  0  0  0  0  0  0  0
  186.7070  176.9890  144.8630 C   0  0  0  0  0  3  0  0  0  0  0  0
  191.4460  176.3540  146.0550 C   0  0  0  0  0  3  0  0  0  0  0  0
  189.7730  177.6890  147.6320 F   0  0  0  0  0  0  0  0  0  0  0  0
  184.0460  178.3310  145.9440 C   0  0  0  0  0  1  0  0  0  0  0  0
  189.0680  176.6970  145.5110 C   0  0  0  0  0  0  0  0  0  0  0  0
  186.5160  177.6990  146.0390 C   0  0  0  0  0  0  0  0  0  0  0  0
  196.4710  174.1910  144.8570 O   0  0  0  0  0  0  0  0  0  0  0  0
  197.0770  173.4780  145.8930 C   0  0  0  0  0  2  0  0  0  0  0  0
  197.2040  172.0480  145.5070 C   0  0  0  0  0  0  0  0  0  0  0  0
  196.6210  171.0620  146.2930 O   0  0  0  0  0  1  0  0  0  0  0  0
  197.8630  171.7280  144.4840 O   0  0  0  0  0  0  0  0  0  0  0  0
  1 28  1  6  0  0  0
  1 16  1  0  0  0  0
  2 26  2  0  0  0  0
  2 23  1  0  0  0  0
  3  4  2  0  0  0  0
  3 11  1  0  0  0  0
  4 20  1  0  0  0  0
  5  6  2  0  0  0  0
  5 24  1  0  0  0  0
  6 18  1  0  0  0  0
  7 23  2  0  0  0  0
  7 19  1  0  0  0  0
  8 12  1  0  0  0  0
  8 17  2  0  0  0  0
  9 15  1  0  0  0  0
 10 17  1  0  0  0  0
 10  1  1  0  0  0  0
 11 13  1  0  0  0  0
 12  2  1  0  0  0  0
 13 21  1  0  0  0  0
 13 12  2  0  0  0  0
 14 22  2  0  0  0  0
 14 26  1  0  0  0  0
 15 18  2  0  0  0  0
 16 19  1  0  0  0  0
 17  7  1  0  0  0  0
 20 21  1  0  0  0  0
 21 14  1  0  0  0  0
 22 27  1  0  0  0  0
 25  9  1  0  0  0  0
 26  5  1  0  0  0  0
 27  9  2  0  0  0  0
 27  6  1  0  0  0  0
 28 29  1  0  0  0  0
 30 29  1  0  0  0  0
 30 31  1  0  0  0  0
 32 30  2  0  0  0  0
M  END
>  <MODEL>
4

>  <REMARK>
 VINA RESULT:      -8.2      2.668      4.821
  Name = 
  3 active torsions:
  status: ('A' for Active; 'I' for Inactive)
    1  A    between atoms: C_1  and  C_10
    2  A    between atoms: C_2  and  O_24
    3  A    between atoms: C_10  and  O_24
                            x       y       z     vdW  Elec       q    Type
                         _______ _______ _______ _____ _____    ______ ____

>  <TORSDO>
F 3

$$$$
=
 OpenBabel11052421393D

 32 37  0  0  1  0  0  0  0  0999 V2000
  190.3680  173.2200  138.6760 C   0  0  2  0  0  3  0  0  0  0  0  0
  188.2250  175.3700  142.8140 C   0  0  0  0  0  0  0  0  0  0  0  0
  191.6470  174.9010  146.2140 C   0  0  0  0  0  3  0  0  0  0  0  0
  190.9040  175.6230  147.0590 C   0  0  0  0  0  3  0  0  0  0  0  0
  186.2850  176.8550  143.3060 C   0  0  0  0  0  0  0  0  0  0  0  0
  185.5940  177.5930  144.2610 C   0  0  0  0  0  0  0  0  0  0  0  0
  188.6250  174.4620  140.5800 C   0  0  0  0  0  0  0  0  0  0  0  0
  190.1400  173.9220  142.3910 C   0  0  0  0  0  3  0  0  0  0  0  0
  185.1030  178.4600  146.2110 C   0  0  0  0  0  0  0  0  0  0  0  0
  190.5930  172.9130  140.1550 C   0  0  0  0  0  2  0  0  0  0  0  0
  190.9820  174.0880  145.1410 C   0  0  0  0  0  2  0  0  0  0  0  0
  189.3780  174.6960  143.2800 C   0  0  0  0  0  0  0  0  0  0  0  0
  189.7540  174.8090  144.6270 C   0  0  0  0  0  0  0  0  0  0  0  0
  187.8830  176.2280  145.0820 C   0  0  0  0  0  0  0  0  0  0  0  0
  184.1510  178.8880  145.3520 N   0  0  0  0  0  0  0  0  0  0  0  0
  188.8740  173.2580  138.3850 C   0  0  0  0  0  2  0  0  0  0  0  0
  189.7840  173.8130  141.0470 C   0  0  0  0  0  0  0  0  0  0  0  0
  184.4470  178.3550  144.1410 C   0  0  0  0  0  3  0  0  0  0  0  0
  188.2360  174.4300  139.1290 C   0  0  0  0  0  2  0  0  0  0  0  0
  189.4060  175.6070  146.9190 C   0  0  0  0  0  2  0  0  0  0  0  0
  189.0090  175.5640  145.5000 N   0  0  0  0  0  0  0  0  0  0  0  0
  187.1350  176.9950  146.0050 C   0  0  0  0  0  3  0  0  0  0  0  0
  187.8730  175.2410  141.4590 C   0  0  0  0  0  3  0  0  0  0  0  0
  185.8180  176.8300  142.0310 F   0  0  0  0  0  0  0  0  0  0  0  0
  185.1400  178.8250  147.6550 C   0  0  0  0  0  1  0  0  0  0  0  0
  187.4590  176.1500  143.7120 C   0  0  0  0  0  0  0  0  0  0  0  0
  186.0040  177.6590  145.5560 C   0  0  0  0  0  0  0  0  0  0  0  0
  190.9730  172.2340  137.8950 O   0  0  0  0  0  0  0  0  0  0  0  0
  190.9430  172.7400  136.5940 C   0  0  0  0  0  2  0  0  0  0  0  0
  192.0290  173.7420  136.4230 C   0  0  0  0  0  0  0  0  0  0  0  0
  191.7160  175.0530  136.0860 O   0  0  0  0  0  0  0  0  0  0  0  0
  193.2310  173.3970  136.5570 O   0  0  0  0  0  1  0  0  0  0  0  0
  1 28  1  6  0  0  0
  1 10  1  0  0  0  0
  2 12  1  0  0  0  0
  2 26  2  0  0  0  0
  3  4  2  0  0  0  0
  5 26  1  0  0  0  0
  5  6  2  0  0  0  0
  6 27  1  0  0  0  0
  7 17  1  0  0  0  0
  7 23  2  0  0  0  0
  8 12  1  0  0  0  0
  9 25  1  0  0  0  0
 10 17  1  0  0  0  0
 11  3  1  0  0  0  0
 12 13  2  0  0  0  0
 13 11  1  0  0  0  0
 13 21  1  0  0  0  0
 14 21  1  0  0  0  0
 14 22  2  0  0  0  0
 15  9  1  0  0  0  0
 16  1  1  0  0  0  0
 16 19  1  0  0  0  0
 17  8  2  0  0  0  0
 18  6  1  0  0  0  0
 18 15  2  0  0  0  0
 19  7  1  0  0  0  0
 20  4  1  0  0  0  0
 21 20  1  0  0  0  0
 23  2  1  0  0  0  0
 24  5  1  0  0  0  0
 26 14  1  0  0  0  0
 27 22  1  0  0  0  0
 27  9  2  0  0  0  0
 29 28  1  0  0  0  0
 30 32  1  0  0  0  0
 30 29  1  0  0  0  0
 31 30  2  0  0  0  0
M  END
>  <MODEL>
5

>  <REMARK>
 VINA RESULT:      -8.0      4.325      5.902
  Name = 
  3 active torsions:
  status: ('A' for Active; 'I' for Inactive)
    1  A    between atoms: C_1  and  C_10
    2  A    between atoms: C_2  and  O_24
    3  A    between atoms: C_10  and  O_24
                            x       y       z     vdW  Elec       q    Type
                         _______ _______ _______ _____ _____    ______ ____

>  <TORSDO>
F 3

$$$$
=
 OpenBabel11052421393D

 32 37  0  0  1  0  0  0  0  0999 V2000
  194.6900  174.7780  145.9880 C   0  0  2  0  0  3  0  0  0  0  0  0
  190.1970  176.1400  143.9150 C   0  0  0  0  0  0  0  0  0  0  0  0
  189.6500  172.9910  140.2710 C   0  0  0  0  0  3  0  0  0  0  0  0
  188.4250  173.4760  140.0380 C   0  0  0  0  0  3  0  0  0  0  0  0
  188.2350  177.5360  144.5560 C   0  0  0  0  0  0  0  0  0  0  0  0
  186.9530  177.9660  144.2320 C   0  0  0  0  0  0  0  0  0  0  0  0
  192.2230  176.0490  145.2790 C   0  0  0  0  0  0  0  0  0  0  0  0
  192.0860  174.7540  143.2380 C   0  0  0  0  0  3  0  0  0  0  0  0
  185.0880  178.1560  143.0990 C   0  0  0  0  0  0  0  0  0  0  0  0
  194.2070  174.6440  144.5450 C   0  0  0  0  0  2  0  0  0  0  0  0
  190.7040  173.8800  140.8660 C   0  0  0  0  0  2  0  0  0  0  0  0
  190.7900  175.2400  142.9990 C   0  0  0  0  0  0  0  0  0  0  0  0
  190.0790  174.8360  141.8580 C   0  0  0  0  0  0  0  0  0  0  0  0
  188.2080  176.1890  142.4860 C   0  0  0  0  0  0  0  0  0  0  0  0
  184.9540  178.9420  144.1920 N   0  0  0  0  0  0  0  0  0  0  0  0
  194.4260  176.1930  146.4840 C   0  0  0  0  0  2  0  0  0  0  0  0
  192.7970  175.1370  144.3750 C   0  0  0  0  0  0  0  0  0  0  0  0
  186.1060  178.8300  144.8990 C   0  0  0  0  0  3  0  0  0  0  0  0
  192.9210  176.4420  146.5520 C   0  0  0  0  0  2  0  0  0  0  0  0
  188.1240  174.9090  140.3810 C   0  0  0  0  0  2  0  0  0  0  0  0
  188.8130  175.3120  141.6210 N   0  0  0  0  0  0  0  0  0  0  0  0
  186.9040  176.6620  142.2130 C   0  0  0  0  0  3  0  0  0  0  0  0
  190.9310  176.5250  145.0500 C   0  0  0  0  0  3  0  0  0  0  0  0
  188.8140  177.9990  145.6940 F   0  0  0  0  0  0  0  0  0  0  0  0
  184.0340  178.0000  142.0590 C   0  0  0  0  0  1  0  0  0  0  0  0
  188.8910  176.6270  143.6720 C   0  0  0  0  0  0  0  0  0  0  0  0
  186.3160  177.5440  143.1060 C   0  0  0  0  0  0  0  0  0  0  0  0
  196.0570  174.5040  146.0520 O   0  0  0  0  0  0  0  0  0  0  0  0
  196.3590  173.9020  144.8290 C   0  0  0  0  0  2  0  0  0  0  0  0
  196.8860  172.5320  145.0650 C   0  0  0  0  0  0  0  0  0  0  0  0
  197.2270  171.7250  143.9870 O   0  0  0  0  0  0  0  0  0  0  0  0
  196.9970  172.0930  146.2390 O   0  0  0  0  0  1  0  0  0  0  0  0
  1 28  1  6  0  0  0
  1 16  1  0  0  0  0
  2 23  1  0  0  0  0
  3 11  1  0  0  0  0
  4  3  2  0  0  0  0
  4 20  1  0  0  0  0
  5 24  1  0  0  0  0
  6  5  2  0  0  0  0
  6 18  1  0  0  0  0
  7 19  1  0  0  0  0
  8 17  2  0  0  0  0
  9 27  2  0  0  0  0
  9 15  1  0  0  0  0
 10  1  1  0  0  0  0
 11 13  1  0  0  0  0
 12  8  1  0  0  0  0
 12  2  1  0  0  0  0
 13 12  2  0  0  0  0
 14 26  1  0  0  0  0
 15 18  2  0  0  0  0
 16 19  1  0  0  0  0
 17 10  1  0  0  0  0
 17  7  1  0  0  0  0
 20 21  1  0  0  0  0
 21 13  1  0  0  0  0
 21 14  1  0  0  0  0
 22 14  2  0  0  0  0
 22 27  1  0  0  0  0
 23  7  2  0  0  0  0
 25  9  1  0  0  0  0
 26  2  2  0  0  0  0
 26  5  1  0  0  0  0
 27  6  1  0  0  0  0
 29 30  1  0  0  0  0
 29 28  1  0  0  0  0
 30 32  1  0  0  0  0
 31 30  2  0  0  0  0
M  END
>  <MODEL>
6

>  <REMARK>
 VINA RESULT:      -8.0      2.466      4.574
  Name = 
  3 active torsions:
  status: ('A' for Active; 'I' for Inactive)
    1  A    between atoms: C_1  and  C_10
    2  A    between atoms: C_2  and  O_24
    3  A    between atoms: C_10  and  O_24
                            x       y       z     vdW  Elec       q    Type
                         _______ _______ _______ _____ _____    ______ ____

>  <TORSDO>
F 3

$$$$
=
 OpenBabel11052421393D

 32 37  0  0  1  0  0  0  0  0999 V2000
  186.0680  177.5450  145.7600 C   0  0  2  0  0  3  0  0  0  0  0  0
  190.5460  175.3670  144.5170 C   0  0  0  0  0  0  0  0  0  0  0  0
  189.8210  173.8430  139.9740 C   0  0  0  0  0  3  0  0  0  0  0  0
  191.1060  173.4790  139.8930 C   0  0  0  0  0  3  0  0  0  0  0  0
  192.8770  175.3460  145.3990 C   0  0  0  0  0  0  0  0  0  0  0  0
  194.1920  174.9350  145.2100 C   0  0  0  0  0  0  0  0  0  0  0  0
  188.7170  176.4570  145.7190 C   0  0  0  0  0  0  0  0  0  0  0  0
  188.2840  175.3570  143.6060 C   0  0  0  0  0  3  0  0  0  0  0  0
  195.9170  173.9840  144.2530 C   0  0  0  0  0  0  0  0  0  0  0  0
  186.3540  176.4000  144.7910 C   0  0  0  0  0  2  0  0  0  0  0  0
  189.1270  173.8410  141.3050 C   0  0  0  0  0  2  0  0  0  0  0  0
  189.6360  174.9910  143.5020 C   0  0  0  0  0  0  0  0  0  0  0  0
  190.0910  174.2570  142.3950 C   0  0  0  0  0  0  0  0  0  0  0  0
  192.3210  174.2410  143.2610 C   0  0  0  0  0  0  0  0  0  0  0  0
  196.3730  174.5410  145.3980 N   0  0  0  0  0  0  0  0  0  0  0  0
  186.7710  177.2790  147.0850 C   0  0  0  0  0  2  0  0  0  0  0  0
  187.8230  176.0980  144.6930 C   0  0  0  0  0  0  0  0  0  0  0  0
  195.3090  175.1310  145.9980 C   0  0  0  0  0  3  0  0  0  0  0  0
  188.2840  177.3110  146.8780 C   0  0  0  0  0  2  0  0  0  0  0  0
  191.8350  173.0740  141.1440 C   0  0  0  0  0  2  0  0  0  0  0  0
  191.4110  173.8950  142.2930 N   0  0  0  0  0  0  0  0  0  0  0  0
  193.6740  173.8520  143.1270 C   0  0  0  0  0  3  0  0  0  0  0  0
  190.0630  176.1040  145.6130 C   0  0  0  0  0  3  0  0  0  0  0  0
  192.5650  176.0570  146.5130 F   0  0  0  0  0  0  0  0  0  0  0  0
  196.7780  173.2350  143.2970 C   0  0  0  0  0  1  0  0  0  0  0  0
  191.9070  174.9980  144.4090 C   0  0  0  0  0  0  0  0  0  0  0  0
  194.5710  174.2180  144.1190 C   0  0  0  0  0  0  0  0  0  0  0  0
  184.6920  177.6490  145.9720 O   0  0  0  0  0  0  0  0  0  0  0  0
  184.4100  179.0090  145.8310 C   0  0  0  0  0  2  0  0  0  0  0  0
  184.5030  179.3920  144.3970 C   0  0  0  0  0  0  0  0  0  0  0  0
  185.4460  180.3270  143.9890 O   0  0  0  0  0  1  0  0  0  0  0  0
  183.7110  178.8910  143.5590 O   0  0  0  0  0  0  0  0  0  0  0  0
  1 28  1  1  0  0  0
  1 16  1  0  0  0  0
  2 23  1  0  0  0  0
  3 11  1  0  0  0  0
  4  3  2  0  0  0  0
  4 20  1  0  0  0  0
  5 24  1  0  0  0  0
  6  5  2  0  0  0  0
  6 18  1  0  0  0  0
  7 19  1  0  0  0  0
  8 17  2  0  0  0  0
  9 15  1  0  0  0  0
 10  1  1  0  0  0  0
 11 13  1  0  0  0  0
 12  8  1  0  0  0  0
 12  2  1  0  0  0  0
 13 12  2  0  0  0  0
 14 26  1  0  0  0  0
 15 18  2  0  0  0  0
 17 10  1  0  0  0  0
 17  7  1  0  0  0  0
 19 16  1  0  0  0  0
 20 21  1  0  0  0  0
 21 13  1  0  0  0  0
 21 14  1  0  0  0  0
 22 14  2  0  0  0  0
 22 27  1  0  0  0  0
 23  7  2  0  0  0  0
 25  9  1  0  0  0  0
 26  2  2  0  0  0  0
 26  5  1  0  0  0  0
 27  9  2  0  0  0  0
 27  6  1  0  0  0  0
 29 28  1  0  0  0  0
 30 29  1  0  0  0  0
 31 30  1  0  0  0  0
 32 30  2  0  0  0  0
M  END
>  <MODEL>
7

>  <REMARK>
 VINA RESULT:      -7.8      4.751      9.218
  Name = 
  3 active torsions:
  status: ('A' for Active; 'I' for Inactive)
    1  A    between atoms: C_1  and  C_10
    2  A    between atoms: C_2  and  O_24
    3  A    between atoms: C_10  and  O_24
                            x       y       z     vdW  Elec       q    Type
                         _______ _______ _______ _____ _____    ______ ____

>  <TORSDO>
F 3

$$$$
=
 OpenBabel11052421393D

 32 37  0  0  1  0  0  0  0  0999 V2000
  192.1570  170.4870  142.6070 C   0  0  2  0  0  3  0  0  0  0  0  0
  189.2280  174.5670  143.6640 C   0  0  0  0  0  0  0  0  0  0  0  0
  191.2600  176.3920  147.6680 C   0  0  0  0  0  3  0  0  0  0  0  0
  190.4270  177.4360  147.6140 C   0  0  0  0  0  3  0  0  0  0  0  0
  187.5260  175.9530  142.4830 C   0  0  0  0  0  0  0  0  0  0  0  0
  186.7100  177.0780  142.5180 C   0  0  0  0  0  0  0  0  0  0  0  0
  190.1490  172.5290  142.6780 C   0  0  0  0  0  0  0  0  0  0  0  0
  190.8920  173.2520  144.8660 C   0  0  0  0  0  3  0  0  0  0  0  0
  185.7880  178.9100  143.2860 C   0  0  0  0  0  0  0  0  0  0  0  0
  191.8440  171.1340  143.9550 C   0  0  0  0  0  2  0  0  0  0  0  0
  190.8360  175.0670  147.1030 C   0  0  0  0  0  2  0  0  0  0  0  0
  190.0370  174.3640  144.8070 C   0  0  0  0  0  0  0  0  0  0  0  0
  189.9820  175.2760  145.8720 C   0  0  0  0  0  0  0  0  0  0  0  0
  188.3430  176.5890  144.7260 C   0  0  0  0  0  0  0  0  0  0  0  0
  185.2480  178.6920  142.0660 N   0  0  0  0  0  0  0  0  0  0  0  0
  190.8620  170.2690  141.8350 C   0  0  0  0  0  2  0  0  0  0  0  0
  190.9670  172.3460  143.8090 C   0  0  0  0  0  0  0  0  0  0  0  0
  185.8130  177.5580  141.5830 C   0  0  0  0  0  3  0  0  0  0  0  0
  190.2390  171.6180  141.4850 C   0  0  0  0  0  2  0  0  0  0  0  0
  189.0730  177.2640  146.9820 C   0  0  0  0  0  2  0  0  0  0  0  0
  189.1440  176.3630  145.8170 N   0  0  0  0  0  0  0  0  0  0  0  0
  187.4900  177.7170  144.7000 C   0  0  0  0  0  3  0  0  0  0  0  0
  189.3060  173.6390  142.6110 C   0  0  0  0  0  3  0  0  0  0  0  0
  187.4900  175.1490  141.3890 F   0  0  0  0  0  0  0  0  0  0  0  0
  185.4300  180.0640  144.1560 C   0  0  0  0  0  1  0  0  0  0  0  0
  188.3680  175.6890  143.6060 C   0  0  0  0  0  0  0  0  0  0  0  0
  186.6940  177.9230  143.5830 C   0  0  0  0  0  0  0  0  0  0  0  0
  192.7940  169.2620  142.8110 O   0  0  0  0  0  0  0  0  0  0  0  0
  194.0830  169.5960  143.2340 C   0  0  0  0  0  2  0  0  0  0  0  0
  194.5100  168.6640  144.3120 C   0  0  0  0  0  0  0  0  0  0  0  0
  193.6060  168.2740  145.2910 O   0  0  0  0  0  1  0  0  0  0  0  0
  195.6980  168.2530  144.3530 O   0  0  0  0  0  0  0  0  0  0  0  0
  1 28  1  1  0  0  0
  1 10  1  0  0  0  0
  2 12  1  0  0  0  0
  4  3  2  0  0  0  0
  5  6  2  0  0  0  0
  5 26  1  0  0  0  0
  6 27  1  0  0  0  0
  7 17  1  0  0  0  0
  9 27  2  0  0  0  0
  9 25  1  0  0  0  0
 11  3  1  0  0  0  0
 12  8  1  0  0  0  0
 12 13  2  0  0  0  0
 13 11  1  0  0  0  0
 14 21  1  0  0  0  0
 15  9  1  0  0  0  0
 16  1  1  0  0  0  0
 17 10  1  0  0  0  0
 17  8  2  0  0  0  0
 18 15  2  0  0  0  0
 18  6  1  0  0  0  0
 19 16  1  0  0  0  0
 19  7  1  0  0  0  0
 20  4  1  0  0  0  0
 21 13  1  0  0  0  0
 21 20  1  0  0  0  0
 22 14  2  0  0  0  0
 23  7  2  0  0  0  0
 23  2  1  0  0  0  0
 24  5  1  0  0  0  0
 26  2  2  0  0  0  0
 26 14  1  0  0  0  0
 27 22  1  0  0  0  0
 28 29  1  0  0  0  0
 29 30  1  0  0  0  0
 30 32  2  0  0  0  0
 30 31  1  0  0  0  0
M  END
>  <MODEL>
8

>  <REMARK>
 VINA RESULT:      -7.8      3.920      4.687
  Name = 
  3 active torsions:
  status: ('A' for Active; 'I' for Inactive)
    1  A    between atoms: C_1  and  C_10
    2  A    between atoms: C_2  and  O_24
    3  A    between atoms: C_10  and  O_24
                            x       y       z     vdW  Elec       q    Type
                         _______ _______ _______ _____ _____    ______ ____

>  <TORSDO>
F 3

$$$$
=
 OpenBabel11052421393D

 32 37  0  0  1  0  0  0  0  0999 V2000
  186.2320  177.5960  145.6000 C   0  0  2  0  0  3  0  0  0  0  0  0
  190.6850  175.8810  143.7080 C   0  0  0  0  0  0  0  0  0  0  0  0
  189.3900  173.7910  139.5320 C   0  0  0  0  0  3  0  0  0  0  0  0
  190.6790  173.5860  139.2370 C   0  0  0  0  0  3  0  0  0  0  0  0
  193.1130  176.2540  144.1250 C   0  0  0  0  0  0  0  0  0  0  0  0
  194.4190  175.9940  143.7230 C   0  0  0  0  0  0  0  0  0  0  0  0
  188.9610  176.8550  145.1430 C   0  0  0  0  0  0  0  0  0  0  0  0
  188.3230  175.4850  143.2520 C   0  0  0  0  0  3  0  0  0  0  0  0
  196.0660  175.1720  142.5360 C   0  0  0  0  0  0  0  0  0  0  0  0
  186.5040  176.3970  144.6930 C   0  0  0  0  0  2  0  0  0  0  0  0
  188.9520  173.8460  140.9670 C   0  0  0  0  0  2  0  0  0  0  0  0
  189.6730  175.2840  142.9210 C   0  0  0  0  0  0  0  0  0  0  0  0
  190.0250  174.4970  141.8140 C   0  0  0  0  0  0  0  0  0  0  0  0
  192.3510  174.8590  142.2340 C   0  0  0  0  0  0  0  0  0  0  0  0
  196.6320  175.9030  143.5220 N   0  0  0  0  0  0  0  0  0  0  0  0
  187.1920  177.5680  146.7830 C   0  0  0  0  0  2  0  0  0  0  0  0
  187.9600  176.2750  144.3410 C   0  0  0  0  0  0  0  0  0  0  0  0
  195.6190  176.4160  144.2630 C   0  0  0  0  0  3  0  0  0  0  0  0
  188.6230  177.7680  146.2880 C   0  0  0  0  0  2  0  0  0  0  0  0
  191.6710  173.4160  140.3540 C   0  0  0  0  0  2  0  0  0  0  0  0
  191.3440  174.2980  141.4900 N   0  0  0  0  0  0  0  0  0  0  0  0
  193.7010  174.6330  141.8760 C   0  0  0  0  0  3  0  0  0  0  0  0
  190.3030  176.6670  144.8100 C   0  0  0  0  0  3  0  0  0  0  0  0
  192.9050  177.0370  145.2150 F   0  0  0  0  0  0  0  0  0  0  0  0
  196.8420  174.4380  141.4990 C   0  0  0  0  0  1  0  0  0  0  0  0
  192.0440  175.6790  143.3730 C   0  0  0  0  0  0  0  0  0  0  0  0
  194.6980  175.2160  142.6430 C   0  0  0  0  0  0  0  0  0  0  0  0
  184.9160  177.5460  146.0620 O   0  0  0  0  0  0  0  0  0  0  0  0
  184.4570  178.8620  145.9760 C   0  0  0  0  0  2  0  0  0  0  0  0
  184.4830  179.3070  144.5570 C   0  0  0  0  0  0  0  0  0  0  0  0
  183.6910  178.6660  143.6130 O   0  0  0  0  0  0  0  0  0  0  0  0
  185.2430  180.2460  144.2060 O   0  0  0  0  0  1  0  0  0  0  0  0
  1 28  1  1  0  0  0
  1 16  1  0  0  0  0
  2 23  1  0  0  0  0
  3 11  1  0  0  0  0
  4  3  2  0  0  0  0
  4 20  1  0  0  0  0
  5 24  1  0  0  0  0
  6  5  2  0  0  0  0
  6 18  1  0  0  0  0
  7 19  1  0  0  0  0
  8 17  2  0  0  0  0
  9 27  2  0  0  0  0
  9 15  1  0  0  0  0
 10  1  1  0  0  0  0
 11 13  1  0  0  0  0
 12  8  1  0  0  0  0
 12  2  1  0  0  0  0
 13 12  2  0  0  0  0
 14 26  1  0  0  0  0
 15 18  2  0  0  0  0
 17 10  1  0  0  0  0
 17  7  1  0  0  0  0
 19 16  1  0  0  0  0
 20 21  1  0  0  0  0
 21 13  1  0  0  0  0
 21 14  1  0  0  0  0
 22 14  2  0  0  0  0
 22 27  1  0  0  0  0
 23  7  2  0  0  0  0
 25  9  1  0  0  0  0
 26  2  2  0  0  0  0
 26  5  1  0  0  0  0
 27  6  1  0  0  0  0
 29 28  1  0  0  0  0
 30 29  1  0  0  0  0
 31 30  2  0  0  0  0
 32 30  1  0  0  0  0
M  END
>  <MODEL>
9

>  <REMARK>
 VINA RESULT:      -7.7      4.675      9.030
  Name = 
  3 active torsions:
  status: ('A' for Active; 'I' for Inactive)
    1  A    between atoms: C_1  and  C_10
    2  A    between atoms: C_2  and  O_24
    3  A    between atoms: C_10  and  O_24
                            x       y       z     vdW  Elec       q    Type
                         _______ _______ _______ _____ _____    ______ ____

>  <TORSDO>
F 3

$$$$
