=
 OpenBabel11052421273D

 32 37  0  0  0  0  0  0  0  0999 V2000
  192.6840  175.6060  147.1460 C   0  0  0  0  0  2  0  0  0  0  0  0
  188.4530  176.5980  144.4590 C   0  0  0  0  0  0  0  0  0  0  0  0
  185.3680  178.3660  147.8900 C   0  0  0  0  0  3  0  0  0  0  0  0
  184.4600  178.7090  146.9780 C   0  0  0  0  0  3  0  0  0  0  0  0
  187.7670  176.7000  142.0810 C   0  0  0  0  0  0  0  0  0  0  0  0
  186.7750  177.0830  141.1850 C   0  0  0  0  0  0  0  0  0  0  0  0
  190.6170  175.6520  145.1280 C   0  0  0  0  0  0  0  0  0  0  0  0
  189.1260  176.4850  146.8680 C   0  0  0  0  0  3  0  0  0  0  0  0
  184.8180  177.9370  140.4520 C   0  0  0  0  0  0  0  0  0  0  0  0
  191.2350  175.4880  147.6210 C   0  0  0  0  0  2  0  0  0  0  0  0
  186.6370  177.7330  147.5020 C   0  0  0  0  0  3  0  0  0  0  0  0
  188.1720  176.8590  145.8550 N   0  0  0  0  0  0  0  0  0  0  0  0
  186.9330  177.4750  146.2220 C   0  0  0  0  0  0  0  0  0  0  0  0
  186.2930  177.5590  143.8690 C   0  0  0  0  0  0  0  0  0  0  0  0
  185.5660  177.4730  139.2400 C   0  0  0  0  0  2  0  0  0  0  0  0
  191.9180  175.0300  144.8270 C   0  0  0  0  0  0  0  0  0  0  0  0
  190.2930  175.9300  146.5430 C   0  0  0  0  0  0  0  0  0  0  0  0
  186.7810  176.9520  139.7990 O   0  0  0  0  0  0  0  0  0  0  0  0
  192.1710  174.6000  143.6680 O   0  0  0  0  0  0  0  0  0  0  0  0
  192.8820  174.8900  145.8850 N   0  0  0  0  0  0  0  0  0  0  0  0
  184.6600  178.4780  145.5040 C   0  0  0  0  0  2  0  0  0  0  0  0
  185.9810  177.8240  145.1550 C   0  0  0  0  0  0  0  0  0  0  0  0
  185.3780  177.9010  142.9100 N   0  0  0  0  0  0  0  0  0  0  0  0
  189.7530  175.9630  144.1590 C   0  0  0  0  0  3  0  0  0  0  0  0
  189.1940  175.9580  141.3490 Cl  0  0  0  0  0  0  0  0  0  0  0  0
  183.6800  178.4740  140.4580 O   0  0  0  0  0  0  0  0  0  0  0  0
  187.5450  176.9340  143.4880 C   0  0  0  0  0  0  0  0  0  0  0  0
  185.6300  177.6610  141.6080 C   0  0  0  0  0  0  0  0  0  0  0  0
  194.0240  173.9900  145.7430 C   0  0  0  0  0  2  0  0  0  0  0  0
  195.3640  174.7290  145.8110 C   0  0  0  0  0  3  0  0  0  0  0  0
  196.5260  173.7850  146.0530 C   0  0  0  0  0  1  0  0  0  0  0  0
  195.6100  175.5640  144.5680 C   0  0  0  0  0  1  0  0  0  0  0  0
  1 10  1  0  0  0  0
  2 12  1  0  0  0  0
  4  3  2  0  0  0  0
  5 27  1  0  0  0  0
  6 28  1  0  0  0  0
  6  5  2  0  0  0  0
  7 17  1  0  0  0  0
  9 26  2  0  0  0  0
  9 28  1  0  0  0  0
 11  3  1  0  0  0  0
 12 13  1  0  0  0  0
 12  8  1  0  0  0  0
 13 11  2  0  0  0  0
 14 22  2  0  0  0  0
 15 18  1  0  0  0  0
 15  9  1  0  0  0  0
 16  7  1  0  0  0  0
 16 20  1  0  0  0  0
 17  8  2  0  0  0  0
 17 10  1  0  0  0  0
 18  6  1  0  0  0  0
 19 16  2  0  0  0  0
 20  1  1  0  0  0  0
 21  4  1  0  0  0  0
 22 21  1  0  0  0  0
 22 13  1  0  0  0  0
 23 14  1  0  0  0  0
 24  2  1  0  0  0  0
 24  7  2  0  0  0  0
 25  5  1  0  0  0  0
 27 14  1  0  0  0  0
 27  2  2  0  0  0  0
 28 23  2  0  0  0  0
 29 30  1  0  0  0  0
 29 20  1  0  0  0  0
 30 31  1  0  0  0  0
 32 30  1  0  0  0  0
M  END
>  <MODEL>
1

>  <REMARK>
 VINA RESULT:      -8.9      0.000      0.000
  Name = 
  2 active torsions:
  status: ('A' for Active; 'I' for Inactive)
    1  A    between atoms: C_1  and  C_10
    2  A    between atoms: C_10  and  N_24
                            x       y       z     vdW  Elec       q    Type
                         _______ _______ _______ _____ _____    ______ ____

>  <TORSDO>
F 2

$$$$
=
 OpenBabel11052421273D

 32 37  0  0  1  0  0  0  0  0999 V2000
  191.3440  173.4020  139.2650 C   0  0  0  0  0  2  0  0  0  0  0  0
  188.9360  175.5590  143.2230 C   0  0  0  0  0  0  0  0  0  0  0  0
  192.2300  175.1170  146.8790 C   0  0  0  0  0  3  0  0  0  0  0  0
  191.5020  175.8690  147.7020 C   0  0  0  0  0  3  0  0  0  0  0  0
  186.8940  176.9030  143.6220 C   0  0  0  0  0  0  0  0  0  0  0  0
  186.1870  177.6780  144.5340 C   0  0  0  0  0  0  0  0  0  0  0  0
  189.3480  174.4650  141.0640 C   0  0  0  0  0  0  0  0  0  0  0  0
  190.9970  174.1900  142.8380 C   0  0  0  0  0  3  0  0  0  0  0  0
  185.7070  178.7350  146.4710 C   0  0  0  0  0  0  0  0  0  0  0  0
  191.4430  173.0050  140.7390 C   0  0  0  0  0  2  0  0  0  0  0  0
  191.7790  174.8280  145.5100 C   0  0  0  0  0  3  0  0  0  0  0  0
  190.1930  175.0210  143.6980 N   0  0  0  0  0  0  0  0  0  0  0  0
  190.6230  175.3070  145.0340 C   0  0  2  0  0  3  0  0  0  0  0  0
  188.5990  176.6240  145.3890 C   0  0  0  0  0  0  0  0  0  0  0  0
  184.5730  179.0160  145.5340 C   0  0  0  0  0  2  0  0  0  0  0  0
  188.9810  174.1400  139.6750 C   0  0  0  0  0  0  0  0  0  0  0  0
  190.6230  173.9300  141.5860 C   0  0  0  0  0  0  0  0  0  0  0  0
  184.9620  178.3120  144.3460 O   0  0  0  0  0  0  0  0  0  0  0  0
  187.8280  174.4080  139.2370 O   0  0  0  0  0  0  0  0  0  0  0  0
  189.9460  173.4820  138.8370 N   0  0  0  0  0  0  0  0  0  0  0  0
  190.1830  176.4730  147.3000 C   0  0  0  0  0  3  0  0  0  0  0  0
  189.7620  176.1470  145.8810 C   0  0  0  0  0  0  0  0  0  0  0  0
  187.8300  177.4000  146.2130 N   0  0  0  0  0  0  0  0  0  0  0  0
  188.5630  175.2220  141.8330 C   0  0  0  0  0  3  0  0  0  0  0  0
  186.1240  176.7110  142.0430 Cl  0  0  0  0  0  0  0  0  0  0  0  0
  185.8100  179.1510  147.6540 O   0  0  0  0  0  0  0  0  0  0  0  0
  188.1550  176.3380  144.0380 C   0  0  0  0  0  0  0  0  0  0  0  0
  186.6590  177.9050  145.7790 C   0  0  0  0  0  0  0  0  0  0  0  0
  189.5400  172.8330  137.5930 C   0  0  0  0  0  2  0  0  0  0  0  0
  190.2490  171.4940  137.3720 C   0  0  0  0  0  3  0  0  0  0  0  0
  189.6460  170.3820  138.2090 C   0  0  0  0  0  1  0  0  0  0  0  0
  190.2680  171.1020  135.9060 C   0  0  0  0  0  1  0  0  0  0  0  0
  1 10  1  0  0  0  0
  2 12  1  0  0  0  0
  2 27  2  0  0  0  0
  3  4  1  0  0  0  0
  5 27  1  0  0  0  0
  5  6  2  0  0  0  0
  6 28  1  0  0  0  0
  7 17  1  0  0  0  0
  7 24  2  0  0  0  0
  8 12  1  0  0  0  0
  9 26  2  0  0  0  0
 10 17  1  0  0  0  0
 11  3  2  0  0  0  0
 12 13  1  0  0  0  0
 13 11  1  6  0  0  0
 13 22  1  0  0  0  0
 14 22  2  0  0  0  0
 14 23  1  0  0  0  0
 15  9  1  0  0  0  0
 16  7  1  0  0  0  0
 17  8  2  0  0  0  0
 18  6  1  0  0  0  0
 18 15  1  0  0  0  0
 19 16  2  0  0  0  0
 20  1  1  0  0  0  0
 20 16  1  0  0  0  0
 21  4  2  0  0  0  0
 22 21  1  0  0  0  0
 24  2  1  0  0  0  0
 25  5  1  0  0  0  0
 27 14  1  0  0  0  0
 28 23  2  0  0  0  0
 28  9  1  0  0  0  0
 29 20  1  0  0  0  0
 30 29  1  0  0  0  0
 30 31  1  0  0  0  0
 32 30  1  0  0  0  0
M  END
>  <MODEL>
2

>  <REMARK>
 VINA RESULT:      -8.3      3.920      6.268
  Name = 
  2 active torsions:
  status: ('A' for Active; 'I' for Inactive)
    1  A    between atoms: C_1  and  C_10
    2  A    between atoms: C_10  and  N_24
                            x       y       z     vdW  Elec       q    Type
                         _______ _______ _______ _____ _____    ______ ____

>  <TORSDO>
F 2

$$$$
=
 OpenBabel11052421273D

 32 37  0  0  0  0  0  0  0  0999 V2000
  186.4930  177.2340  147.2980 C   0  0  0  0  0  2  0  0  0  0  0  0
  190.0400  175.6160  143.9950 C   0  0  0  0  0  0  0  0  0  0  0  0
  194.2440  176.2410  146.5130 C   0  0  0  0  0  3  0  0  0  0  0  0
  194.9620  175.6150  145.5810 C   0  0  0  0  0  3  0  0  0  0  0  0
  190.1240  174.4320  141.8200 C   0  0  0  0  0  0  0  0  0  0  0  0
  190.9340  173.7910  140.8900 C   0  0  0  0  0  0  0  0  0  0  0  0
  187.9260  176.4660  144.9100 C   0  0  0  0  0  0  0  0  0  0  0  0
  189.9720  176.8260  146.1860 C   0  0  0  0  0  3  0  0  0  0  0  0
  192.8140  172.9600  139.9560 C   0  0  0  0  0  0  0  0  0  0  0  0
  187.9160  177.7700  147.1290 C   0  0  0  0  0  2  0  0  0  0  0  0
  192.7930  176.4160  146.3680 C   0  0  0  0  0  3  0  0  0  0  0  0
  190.7160  176.1300  145.1670 N   0  0  0  0  0  0  0  0  0  0  0  0
  192.1310  175.9550  145.2980 C   0  0  0  0  0  0  0  0  0  0  0  0
  192.1740  174.7920  143.1530 C   0  0  0  0  0  0  0  0  0  0  0  0
  191.6910  172.6490  139.0150 C   0  0  0  0  0  2  0  0  0  0  0  0
  186.4690  176.6700  144.8530 C   0  0  0  0  0  0  0  0  0  0  0  0
  188.6520  176.9800  146.0890 C   0  0  0  0  0  0  0  0  0  0  0  0
  190.5520  173.2090  139.6840 O   0  0  0  0  0  0  0  0  0  0  0  0
  185.8270  176.4230  143.7950 O   0  0  0  0  0  0  0  0  0  0  0  0
  185.7940  177.1880  146.0120 N   0  0  0  0  0  0  0  0  0  0  0  0
  194.3500  175.0470  144.3290 C   0  0  0  0  0  2  0  0  0  0  0  0
  192.8520  175.2520  144.2250 C   0  0  0  0  0  0  0  0  0  0  0  0
  192.8850  174.1450  142.1800 N   0  0  0  0  0  0  0  0  0  0  0  0
  188.5790  175.8330  143.9320 C   0  0  0  0  0  3  0  0  0  0  0  0
  188.4100  174.5070  141.3980 Cl  0  0  0  0  0  0  0  0  0  0  0  0
  194.0240  172.6590  139.7890 O   0  0  0  0  0  0  0  0  0  0  0  0
  190.7410  174.9660  143.0110 C   0  0  0  0  0  0  0  0  0  0  0  0
  192.2640  173.6640  141.0850 C   0  0  0  0  0  0  0  0  0  0  0  0
  184.4410  177.7310  145.9120 C   0  0  0  0  0  2  0  0  0  0  0  0
  184.4080  179.0990  145.2240 C   0  0  0  0  0  3  0  0  0  0  0  0
  185.7960  179.6870  145.0540 C   0  0  0  0  0  1  0  0  0  0  0  0
  183.6910  179.0410  143.8880 C   0  0  0  0  0  1  0  0  0  0  0  0
  2 12  1  0  0  0  0
  4  3  2  0  0  0  0
  5 27  1  0  0  0  0
  6 28  1  0  0  0  0
  6  5  2  0  0  0  0
  7 17  1  0  0  0  0
  9 28  1  0  0  0  0
 10  1  1  0  0  0  0
 11  3  1  0  0  0  0
 12 13  1  0  0  0  0
 12  8  1  0  0  0  0
 13 11  2  0  0  0  0
 14 22  2  0  0  0  0
 15 18  1  0  0  0  0
 15  9  1  0  0  0  0
 16  7  1  0  0  0  0
 16 20  1  0  0  0  0
 17  8  2  0  0  0  0
 17 10  1  0  0  0  0
 18  6  1  0  0  0  0
 19 16  2  0  0  0  0
 20  1  1  0  0  0  0
 21  4  1  0  0  0  0
 22 21  1  0  0  0  0
 22 13  1  0  0  0  0
 23 14  1  0  0  0  0
 24  2  1  0  0  0  0
 24  7  2  0  0  0  0
 25  5  1  0  0  0  0
 26  9  2  0  0  0  0
 27 14  1  0  0  0  0
 27  2  2  0  0  0  0
 28 23  2  0  0  0  0
 29 20  1  0  0  0  0
 30 29  1  0  0  0  0
 31 30  1  0  0  0  0
 32 30  1  0  0  0  0
M  END
>  <MODEL>
3

>  <REMARK>
 VINA RESULT:      -8.0      2.681      7.406
  Name = 
  2 active torsions:
  status: ('A' for Active; 'I' for Inactive)
    1  A    between atoms: C_1  and  C_10
    2  A    between atoms: C_10  and  N_24
                            x       y       z     vdW  Elec       q    Type
                         _______ _______ _______ _____ _____    ______ ____

>  <TORSDO>
F 2

$$$$
=
 OpenBabel11052421273D

 32 37  0  0  0  0  0  0  0  0999 V2000
  186.4220  178.2330  142.9390 C   0  0  0  0  0  2  0  0  0  0  0  0
  189.7820  174.3920  143.2000 C   0  0  0  0  0  0  0  0  0  0  0  0
  188.9780  171.9490  138.9810 C   0  0  0  0  0  3  0  0  0  0  0  0
  190.0300  171.1540  139.1740 C   0  0  0  0  0  3  0  0  0  0  0  0
  191.7080  173.7270  144.6080 C   0  0  0  0  0  0  0  0  0  0  0  0
  192.7900  172.8630  144.7440 C   0  0  0  0  0  0  0  0  0  0  0  0
  188.2890  176.2280  143.8550 C   0  0  0  0  0  0  0  0  0  0  0  0
  187.8280  175.0430  141.7750 C   0  0  0  0  0  3  0  0  0  0  0  0
  194.2310  171.2010  144.2400 C   0  0  0  0  0  0  0  0  0  0  0  0
  186.2500  176.8130  142.3980 C   0  0  0  0  0  2  0  0  0  0  0  0
  188.6220  172.9930  139.9520 C   0  0  0  0  0  3  0  0  0  0  0  0
  188.9820  174.2110  142.0060 N   0  0  0  0  0  0  0  0  0  0  0  0
  189.3360  173.1910  141.0670 C   0  0  0  0  0  0  0  0  0  0  0  0
  191.2250  172.5650  142.4800 C   0  0  0  0  0  0  0  0  0  0  0  0
  194.6800  171.7780  145.5470 C   0  0  0  0  0  2  0  0  0  0  0  0
  187.8720  177.3070  144.7660 C   0  0  0  0  0  0  0  0  0  0  0  0
  187.4950  176.0110  142.6280 C   0  0  0  0  0  0  0  0  0  0  0  0
  193.7160  172.8140  145.7830 O   0  0  0  0  0  0  0  0  0  0  0  0
  188.3920  177.4190  145.9100 O   0  0  0  0  0  0  0  0  0  0  0  0
  186.8370  178.2120  144.3430 N   0  0  0  0  0  0  0  0  0  0  0  0
  190.9210  171.2650  140.3820 C   0  0  0  0  0  2  0  0  0  0  0  0
  190.5140  172.3550  141.3530 C   0  0  0  0  0  0  0  0  0  0  0  0
  192.3110  171.7630  142.7050 N   0  0  0  0  0  0  0  0  0  0  0  0
  189.3540  175.4670  144.1190 C   0  0  0  0  0  3  0  0  0  0  0  0
  191.5040  174.8890  145.9230 Cl  0  0  0  0  0  0  0  0  0  0  0  0
  194.7790  170.2510  143.6240 O   0  0  0  0  0  0  0  0  0  0  0  0
  190.8730  173.5960  143.4380 C   0  0  0  0  0  0  0  0  0  0  0  0
  193.0610  171.9240  143.8130 C   0  0  0  0  0  0  0  0  0  0  0  0
  186.1480  179.0660  145.3070 C   0  0  0  0  0  2  0  0  0  0  0  0
  185.1250  178.2960  146.1460 C   0  0  0  0  0  3  0  0  0  0  0  0
  185.3980  178.4150  147.6330 C   0  0  0  0  0  1  0  0  0  0  0  0
  183.7030  178.7230  145.8330 C   0  0  0  0  0  1  0  0  0  0  0  0
  1 20  1  0  0  0  0
  2 27  2  0  0  0  0
  2 24  1  0  0  0  0
  3  4  2  0  0  0  0
  3 11  1  0  0  0  0
  4 21  1  0  0  0  0
  5  6  2  0  0  0  0
  5 25  1  0  0  0  0
  6 18  1  0  0  0  0
  7 24  2  0  0  0  0
  7 16  1  0  0  0  0
  8 12  1  0  0  0  0
  8 17  2  0  0  0  0
  9 15  1  0  0  0  0
 10 17  1  0  0  0  0
 10  1  1  0  0  0  0
 11 13  2  0  0  0  0
 12  2  1  0  0  0  0
 13 22  1  0  0  0  0
 13 12  1  0  0  0  0
 14 23  1  0  0  0  0
 14 27  1  0  0  0  0
 15 18  1  0  0  0  0
 16 19  2  0  0  0  0
 17  7  1  0  0  0  0
 20 16  1  0  0  0  0
 20 29  1  0  0  0  0
 21 22  1  0  0  0  0
 22 14  2  0  0  0  0
 23 28  2  0  0  0  0
 26  9  2  0  0  0  0
 27  5  1  0  0  0  0
 28  9  1  0  0  0  0
 28  6  1  0  0  0  0
 29 30  1  0  0  0  0
 30 31  1  0  0  0  0
 32 30  1  0  0  0  0
M  END
>  <MODEL>
4

>  <REMARK>
 VINA RESULT:      -7.8      3.395      8.653
  Name = 
  2 active torsions:
  status: ('A' for Active; 'I' for Inactive)
    1  A    between atoms: C_1  and  C_10
    2  A    between atoms: C_10  and  N_24
                            x       y       z     vdW  Elec       q    Type
                         _______ _______ _______ _____ _____    ______ ____

>  <TORSDO>
F 2

$$$$
=
 OpenBabel11052421273D

 32 37  0  0  1  0  0  0  0  0999 V2000
  188.7020  172.3160  138.6480 C   0  0  0  0  0  2  0  0  0  0  0  0
  189.2030  175.4090  142.6840 C   0  0  0  0  0  0  0  0  0  0  0  0
  185.3150  178.4250  142.2390 C   0  0  0  0  0  3  0  0  0  0  0  0
  185.5390  178.9830  143.4280 C   0  0  0  0  0  3  0  0  0  0  0  0
  190.5760  175.5400  144.7420 C   0  0  0  0  0  0  0  0  0  0  0  0
  190.7490  176.1650  145.9720 C   0  0  0  0  0  0  0  0  0  0  0  0
  189.7320  173.8210  140.8890 C   0  0  0  0  0  0  0  0  0  0  0  0
  187.8170  175.3010  140.6010 C   0  0  0  0  0  3  0  0  0  0  0  0
  190.3540  177.5770  147.6880 C   0  0  0  0  0  0  0  0  0  0  0  0
  188.3250  173.7960  138.7340 C   0  0  0  0  0  2  0  0  0  0  0  0
  186.1860  177.3620  141.7180 C   0  0  0  0  0  3  0  0  0  0  0  0
  188.0770  175.8710  141.8990 N   0  0  0  0  0  0  0  0  0  0  0  0
  187.2360  176.9080  142.4140 C   0  0  2  0  0  3  0  0  0  0  0  0
  188.6110  177.0060  144.4270 C   0  0  0  0  0  0  0  0  0  0  0  0
  191.5670  176.7800  148.0560 C   0  0  0  0  0  2  0  0  0  0  0  0
  190.5430  172.7410  140.3000 C   0  0  0  0  0  0  0  0  0  0  0  0
  188.5770  174.3200  140.1150 C   0  0  0  0  0  0  0  0  0  0  0  0
  191.7390  175.9220  146.9200 O   0  0  0  0  0  0  0  0  0  0  0  0
  191.6410  172.4040  140.8220 O   0  0  0  0  0  0  0  0  0  0  0  0
  190.0780  172.0990  139.1000 N   0  0  0  0  0  0  0  0  0  0  0  0
  186.6820  178.5710  144.3160 C   0  0  0  0  0  3  0  0  0  0  0  0
  187.5500  177.4720  143.7370 C   0  0  0  0  0  0  0  0  0  0  0  0
  188.8660  177.5600  145.6530 N   0  0  0  0  0  0  0  0  0  0  0  0
  190.0230  174.3340  142.0860 C   0  0  0  0  0  3  0  0  0  0  0  0
  191.7680  174.2930  144.3580 Cl  0  0  0  0  0  0  0  0  0  0  0  0
  189.8160  178.4720  148.3890 O   0  0  0  0  0  0  0  0  0  0  0  0
  189.4700  175.9560  143.9130 C   0  0  0  0  0  0  0  0  0  0  0  0
  189.9110  177.1370  146.3900 C   0  0  0  0  0  0  0  0  0  0  0  0
  190.9790  171.2840  138.2890 C   0  0  0  0  0  2  0  0  0  0  0  0
  190.2280  170.2820  137.4070 C   0  0  0  0  0  3  0  0  0  0  0  0
  190.6060  170.4120  135.9440 C   0  0  0  0  0  1  0  0  0  0  0  0
  190.4280  168.8540  137.8800 C   0  0  0  0  0  1  0  0  0  0  0  0
  1 10  1  0  0  0  0
  1 20  1  0  0  0  0
  2 27  2  0  0  0  0
  3  4  1  0  0  0  0
  4 21  2  0  0  0  0
  5  6  2  0  0  0  0
  6 28  1  0  0  0  0
  6 18  1  0  0  0  0
  7 24  2  0  0  0  0
  8 12  1  0  0  0  0
  9 15  1  0  0  0  0
  9 26  2  0  0  0  0
 10 17  1  0  0  0  0
 11  3  2  0  0  0  0
 12 13  1  0  0  0  0
 12  2  1  0  0  0  0
 13 11  1  1  0  0  0
 13 22  1  0  0  0  0
 14 23  1  0  0  0  0
 16 19  2  0  0  0  0
 16  7  1  0  0  0  0
 17  8  2  0  0  0  0
 17  7  1  0  0  0  0
 18 15  1  0  0  0  0
 20 16  1  0  0  0  0
 22 21  1  0  0  0  0
 22 14  2  0  0  0  0
 23 28  2  0  0  0  0
 24  2  1  0  0  0  0
 25  5  1  0  0  0  0
 27 14  1  0  0  0  0
 27  5  1  0  0  0  0
 28  9  1  0  0  0  0
 29 20  1  0  0  0  0
 30 32  1  0  0  0  0
 30 29  1  0  0  0  0
 31 30  1  0  0  0  0
M  END
>  <MODEL>
5

>  <REMARK>
 VINA RESULT:      -7.7      4.278      6.872
  Name = 
  2 active torsions:
  status: ('A' for Active; 'I' for Inactive)
    1  A    between atoms: C_1  and  C_10
    2  A    between atoms: C_10  and  N_24
                            x       y       z     vdW  Elec       q    Type
                         _______ _______ _______ _____ _____    ______ ____

>  <TORSDO>
F 2

$$$$
=
 OpenBabel11052421273D

 32 37  0  0  0  0  0  0  0  0999 V2000
  187.3020  176.7650  146.0810 C   0  0  0  0  0  2  0  0  0  0  0  0
  191.0740  174.8790  143.1960 C   0  0  0  0  0  0  0  0  0  0  0  0
  195.0200  175.3120  146.1380 C   0  0  0  0  0  3  0  0  0  0  0  0
  195.7930  174.6270  145.2970 C   0  0  0  0  0  3  0  0  0  0  0  0
  191.3160  173.6480  141.0600 C   0  0  0  0  0  0  0  0  0  0  0  0
  192.1800  172.9420  140.2300 C   0  0  0  0  0  0  0  0  0  0  0  0
  188.9300  175.8680  143.8700 C   0  0  0  0  0  0  0  0  0  0  0  0
  190.8480  176.1350  145.3500 C   0  0  0  0  0  3  0  0  0  0  0  0
  194.0950  171.9860  139.5130 C   0  0  0  0  0  0  0  0  0  0  0  0
  188.7630  177.2140  146.0560 C   0  0  0  0  0  2  0  0  0  0  0  0
  193.6040  175.5670  145.8370 C   0  0  0  0  0  3  0  0  0  0  0  0
  191.6530  175.3770  144.4270 N   0  0  0  0  0  0  0  0  0  0  0  0
  193.0330  175.1240  144.7100 C   0  0  0  0  0  0  0  0  0  0  0  0
  193.2320  173.9170  142.5980 C   0  0  0  0  0  0  0  0  0  0  0  0
  193.0610  171.7210  138.4620 C   0  0  0  0  0  2  0  0  0  0  0  0
  187.5020  176.1540  143.6550 C   0  0  0  0  0  0  0  0  0  0  0  0
  189.5570  176.3630  145.1120 C   0  0  0  0  0  0  0  0  0  0  0  0
  191.8940  172.3590  138.9990 O   0  0  0  0  0  0  0  0  0  0  0  0
  186.9610  175.9230  142.5380 O   0  0  0  0  0  0  0  0  0  0  0  0
  186.7410  176.7340  144.7290 N   0  0  0  0  0  0  0  0  0  0  0  0
  195.2840  174.0700  143.9950 C   0  0  0  0  0  2  0  0  0  0  0  0
  193.8200  174.3580  143.7290 C   0  0  0  0  0  0  0  0  0  0  0  0
  194.0020  173.2100  141.7150 N   0  0  0  0  0  0  0  0  0  0  0  0
  189.6430  175.1780  142.9760 C   0  0  0  0  0  3  0  0  0  0  0  0
  189.6630  173.8120  140.4570 Cl  0  0  0  0  0  0  0  0  0  0  0  0
  195.2960  171.6130  139.4800 O   0  0  0  0  0  0  0  0  0  0  0  0
  191.8350  174.1690  142.3020 C   0  0  0  0  0  0  0  0  0  0  0  0
  193.4720  172.7430  140.5680 C   0  0  0  0  0  0  0  0  0  0  0  0
  185.4410  177.3510  144.4780 C   0  0  0  0  0  2  0  0  0  0  0  0
  185.2720  178.6820  145.2160 C   0  0  0  0  0  3  0  0  0  0  0  0
  185.1940  179.8590  144.2630 C   0  0  0  0  0  1  0  0  0  0  0  0
  184.0670  178.6660  146.1380 C   0  0  0  0  0  1  0  0  0  0  0  0
  2 12  1  0  0  0  0
  4  3  2  0  0  0  0
  5 27  1  0  0  0  0
  6 28  1  0  0  0  0
  6  5  2  0  0  0  0
  7 17  1  0  0  0  0
  9 28  1  0  0  0  0
 10  1  1  0  0  0  0
 11  3  1  0  0  0  0
 12 13  1  0  0  0  0
 12  8  1  0  0  0  0
 13 11  2  0  0  0  0
 14 22  2  0  0  0  0
 15 18  1  0  0  0  0
 15  9  1  0  0  0  0
 16  7  1  0  0  0  0
 16 20  1  0  0  0  0
 17  8  2  0  0  0  0
 17 10  1  0  0  0  0
 18  6  1  0  0  0  0
 19 16  2  0  0  0  0
 20  1  1  0  0  0  0
 21  4  1  0  0  0  0
 22 21  1  0  0  0  0
 22 13  1  0  0  0  0
 23 14  1  0  0  0  0
 24  2  1  0  0  0  0
 24  7  2  0  0  0  0
 25  5  1  0  0  0  0
 26  9  2  0  0  0  0
 27 14  1  0  0  0  0
 27  2  2  0  0  0  0
 28 23  2  0  0  0  0
 29 20  1  0  0  0  0
 29 30  1  0  0  0  0
 30 32  1  0  0  0  0
 31 30  1  0  0  0  0
M  END
>  <MODEL>
6

>  <REMARK>
 VINA RESULT:      -7.7      3.114      8.018
  Name = 
  2 active torsions:
  status: ('A' for Active; 'I' for Inactive)
    1  A    between atoms: C_1  and  C_10
    2  A    between atoms: C_10  and  N_24
                            x       y       z     vdW  Elec       q    Type
                         _______ _______ _______ _____ _____    ______ ____

>  <TORSDO>
F 2

$$$$
=
 OpenBabel11052421273D

 32 37  0  0  0  0  0  0  0  0999 V2000
  186.5020  177.5280  142.7190 C   0  0  0  0  0  2  0  0  0  0  0  0
  191.0490  175.1970  142.7160 C   0  0  0  0  0  0  0  0  0  0  0  0
  190.5740  171.8800  139.0850 C   0  0  0  0  0  3  0  0  0  0  0  0
  191.8620  171.5470  139.1440 C   0  0  0  0  0  3  0  0  0  0  0  0
  193.2780  175.5110  143.7520 C   0  0  0  0  0  0  0  0  0  0  0  0
  194.6100  175.1140  143.7570 C   0  0  0  0  0  0  0  0  0  0  0  0
  189.1010  176.4970  143.4500 C   0  0  0  0  0  0  0  0  0  0  0  0
  188.7990  174.8570  141.6720 C   0  0  0  0  0  3  0  0  0  0  0  0
  196.4710  173.9840  143.1590 C   0  0  0  0  0  0  0  0  0  0  0  0
  186.7920  176.0610  142.4000 C   0  0  0  0  0  2  0  0  0  0  0  0
  190.0090  172.9010  139.9790 C   0  0  0  0  0  3  0  0  0  0  0  0
  190.2010  174.5320  141.7500 N   0  0  0  0  0  0  0  0  0  0  0  0
  190.7610  173.5380  140.8850 C   0  0  0  0  0  0  0  0  0  0  0  0
  192.9400  173.8760  141.9290 C   0  0  0  0  0  0  0  0  0  0  0  0
  196.8680  174.9160  144.2630 C   0  0  0  0  0  2  0  0  0  0  0  0
  188.4570  177.5180  144.2940 C   0  0  0  0  0  0  0  0  0  0  0  0
  188.2660  175.7940  142.4550 C   0  0  0  0  0  0  0  0  0  0  0  0
  195.6360  175.5820  144.5730 O   0  0  0  0  0  0  0  0  0  0  0  0
  189.0680  178.0150  145.2800 O   0  0  0  0  0  0  0  0  0  0  0  0
  187.1080  177.9160  143.9950 N   0  0  0  0  0  0  0  0  0  0  0  0
  192.8230  172.1810  140.1130 C   0  0  0  0  0  2  0  0  0  0  0  0
  192.1940  173.2270  141.0110 C   0  0  0  0  0  0  0  0  0  0  0  0
  194.2680  173.5540  142.0120 N   0  0  0  0  0  0  0  0  0  0  0  0
  190.3990  176.2130  143.5700 C   0  0  0  0  0  3  0  0  0  0  0  0
  192.8610  176.7580  144.9320 Cl  0  0  0  0  0  0  0  0  0  0  0  0
  197.2320  173.1830  142.5580 O   0  0  0  0  0  0  0  0  0  0  0  0
  192.3810  174.8840  142.8100 C   0  0  0  0  0  0  0  0  0  0  0  0
  195.0650  174.1680  142.9080 C   0  0  0  0  0  0  0  0  0  0  0  0
  186.3070  178.6460  144.9750 C   0  0  0  0  0  2  0  0  0  0  0  0
  185.1630  177.8020  145.5440 C   0  0  0  0  0  3  0  0  0  0  0  0
  185.6510  176.7910  146.5640 C   0  0  0  0  0  1  0  0  0  0  0  0
  184.0660  178.6660  146.1380 C   0  0  0  0  0  1  0  0  0  0  0  0
  1 20  1  0  0  0  0
  2 27  2  0  0  0  0
  2 24  1  0  0  0  0
  3  4  2  0  0  0  0
  3 11  1  0  0  0  0
  4 21  1  0  0  0  0
  5  6  2  0  0  0  0
  5 25  1  0  0  0  0
  6 18  1  0  0  0  0
  7 24  2  0  0  0  0
  7 16  1  0  0  0  0
  8 12  1  0  0  0  0
  8 17  2  0  0  0  0
  9 15  1  0  0  0  0
 10 17  1  0  0  0  0
 10  1  1  0  0  0  0
 11 13  2  0  0  0  0
 12  2  1  0  0  0  0
 13 22  1  0  0  0  0
 13 12  1  0  0  0  0
 14 23  1  0  0  0  0
 14 27  1  0  0  0  0
 15 18  1  0  0  0  0
 16 19  2  0  0  0  0
 17  7  1  0  0  0  0
 20 16  1  0  0  0  0
 20 29  1  0  0  0  0
 21 22  1  0  0  0  0
 22 14  2  0  0  0  0
 23 28  2  0  0  0  0
 26  9  2  0  0  0  0
 27  5  1  0  0  0  0
 28  9  1  0  0  0  0
 28  6  1  0  0  0  0
 29 30  1  0  0  0  0
 30 32  1  0  0  0  0
 30 31  1  0  0  0  0
M  END
>  <MODEL>
7

>  <REMARK>
 VINA RESULT:      -7.7      3.395      8.838
  Name = 
  2 active torsions:
  status: ('A' for Active; 'I' for Inactive)
    1  A    between atoms: C_1  and  C_10
    2  A    between atoms: C_10  and  N_24
                            x       y       z     vdW  Elec       q    Type
                         _______ _______ _______ _____ _____    ______ ____

>  <TORSDO>
F 2

$$$$
=
 OpenBabel11052421273D

 32 37  0  0  0  0  0  0  0  0999 V2000
  186.8580  176.8620  142.3670 C   0  0  0  0  0  2  0  0  0  0  0  0
  191.1370  174.3600  143.6070 C   0  0  0  0  0  0  0  0  0  0  0  0
  190.9170  170.3360  140.7490 C   0  0  0  0  0  3  0  0  0  0  0  0
  192.1490  169.9590  141.0870 C   0  0  0  0  0  3  0  0  0  0  0  0
  193.2070  174.7850  144.9000 C   0  0  0  0  0  0  0  0  0  0  0  0
  194.4850  174.3310  145.2080 C   0  0  0  0  0  0  0  0  0  0  0  0
  189.2210  175.8910  143.7160 C   0  0  0  0  0  0  0  0  0  0  0  0
  189.0450  173.9090  142.3080 C   0  0  0  0  0  3  0  0  0  0  0  0
  196.3090  173.0010  145.1790 C   0  0  0  0  0  0  0  0  0  0  0  0
  187.0640  175.3480  142.4230 C   0  0  0  0  0  2  0  0  0  0  0  0
  190.3170  171.5600  141.2970 C   0  0  0  0  0  3  0  0  0  0  0  0
  190.3860  173.5380  142.6820 N   0  0  0  0  0  0  0  0  0  0  0  0
  190.9790  172.3460  142.1550 C   0  0  0  0  0  0  0  0  0  0  0  0
  193.0020  172.8000  143.4420 C   0  0  0  0  0  0  0  0  0  0  0  0
  196.6180  174.1360  146.1050 C   0  0  0  0  0  2  0  0  0  0  0  0
  188.5510  177.1080  144.2040 C   0  0  0  0  0  0  0  0  0  0  0  0
  188.4850  175.0250  142.7730 C   0  0  0  0  0  0  0  0  0  0  0  0
  195.4160  174.9180  146.0600 O   0  0  0  0  0  0  0  0  0  0  0  0
  189.0510  177.7830  145.1460 O   0  0  0  0  0  0  0  0  0  0  0  0
  187.3000  177.4970  143.6110 N   0  0  0  0  0  0  0  0  0  0  0  0
  193.0080  170.7450  142.0400 C   0  0  0  0  0  2  0  0  0  0  0  0
  192.3460  171.9990  142.5770 C   0  0  0  0  0  0  0  0  0  0  0  0
  194.2700  172.4370  143.8080 N   0  0  0  0  0  0  0  0  0  0  0  0
  190.4590  175.5750  144.1050 C   0  0  0  0  0  3  0  0  0  0  0  0
  192.7300  176.2860  145.7000 Cl  0  0  0  0  0  0  0  0  0  0  0  0
  197.0780  172.0460  144.8970 O   0  0  0  0  0  0  0  0  0  0  0  0
  192.4090  174.0080  143.9820 C   0  0  0  0  0  0  0  0  0  0  0  0
  194.9770  173.1950  144.6680 C   0  0  0  0  0  0  0  0  0  0  0  0
  186.4300  178.4700  144.2670 C   0  0  0  0  0  2  0  0  0  0  0  0
  185.1670  177.8290  144.8480 C   0  0  0  0  0  3  0  0  0  0  0  0
  185.4850  176.8310  145.9450 C   0  0  0  0  0  1  0  0  0  0  0  0
  184.1850  178.8720  145.3490 C   0  0  0  0  0  1  0  0  0  0  0  0
  1 10  1  0  0  0  0
  1 20  1  0  0  0  0
  2 27  2  0  0  0  0
  2 24  1  0  0  0  0
  3  4  2  0  0  0  0
  3 11  1  0  0  0  0
  4 21  1  0  0  0  0
  5  6  2  0  0  0  0
  5 25  1  0  0  0  0
  6 18  1  0  0  0  0
  7 24  2  0  0  0  0
  7 16  1  0  0  0  0
  8 12  1  0  0  0  0
  8 17  2  0  0  0  0
  9 15  1  0  0  0  0
 10 17  1  0  0  0  0
 11 13  2  0  0  0  0
 12  2  1  0  0  0  0
 13 22  1  0  0  0  0
 13 12  1  0  0  0  0
 14 23  1  0  0  0  0
 14 27  1  0  0  0  0
 16 19  2  0  0  0  0
 17  7  1  0  0  0  0
 18 15  1  0  0  0  0
 20 16  1  0  0  0  0
 20 29  1  0  0  0  0
 21 22  1  0  0  0  0
 22 14  2  0  0  0  0
 23 28  2  0  0  0  0
 26  9  2  0  0  0  0
 27  5  1  0  0  0  0
 28  9  1  0  0  0  0
 28  6  1  0  0  0  0
 29 30  1  0  0  0  0
 30 32  1  0  0  0  0
 30 31  1  0  0  0  0
M  END
>  <MODEL>
8

>  <REMARK>
 VINA RESULT:      -7.5      3.251      9.066
  Name = 
  2 active torsions:
  status: ('A' for Active; 'I' for Inactive)
    1  A    between atoms: C_1  and  C_10
    2  A    between atoms: C_10  and  N_24
                            x       y       z     vdW  Elec       q    Type
                         _______ _______ _______ _____ _____    ______ ____

>  <TORSDO>
F 2

$$$$
=
 OpenBabel11052421273D

 32 37  0  0  0  0  0  0  0  0999 V2000
  188.0100  177.3380  146.6370 C   0  0  0  0  0  2  0  0  0  0  0  0
  190.2690  174.1190  143.3750 C   0  0  0  0  0  0  0  0  0  0  0  0
  194.4090  172.8680  145.7630 C   0  0  0  0  0  3  0  0  0  0  0  0
  194.7170  171.9390  144.8590 C   0  0  0  0  0  3  0  0  0  0  0  0
  189.7010  172.9250  141.2800 C   0  0  0  0  0  0  0  0  0  0  0  0
  190.0840  171.9400  140.3760 C   0  0  0  0  0  0  0  0  0  0  0  0
  188.8210  175.8850  144.2750 C   0  0  0  0  0  0  0  0  0  0  0  0
  190.8640  175.3290  145.4840 C   0  0  0  0  0  3  0  0  0  0  0  0
  191.3320  170.2970  139.4600 C   0  0  0  0  0  0  0  0  0  0  0  0
  189.5110  177.1540  146.4060 C   0  0  0  0  0  2  0  0  0  0  0  0
  193.1910  173.6810  145.6360 C   0  0  0  0  0  3  0  0  0  0  0  0
  191.1600  174.3210  144.4980 N   0  0  0  0  0  0  0  0  0  0  0  0
  192.3430  173.5250  144.6120 C   0  0  0  0  0  0  0  0  0  0  0  0
  191.7490  172.3700  142.5450 C   0  0  0  0  0  0  0  0  0  0  0  0
  190.1480  170.4900  138.5630 C   0  0  0  0  0  2  0  0  0  0  0  0
  187.6160  176.7320  144.2340 C   0  0  0  0  0  0  0  0  0  0  0  0
  189.7560  176.0660  145.4050 C   0  0  0  0  0  0  0  0  0  0  0  0
  189.4230  171.5410  139.2180 O   0  0  0  0  0  0  0  0  0  0  0  0
  186.8830  176.7560  143.2080 O   0  0  0  0  0  0  0  0  0  0  0  0
  187.3080  177.5560  145.3710 N   0  0  0  0  0  0  0  0  0  0  0  0
  193.8550  171.6550  143.6590 C   0  0  0  0  0  2  0  0  0  0  0  0
  192.6130  172.5180  143.5720 C   0  0  0  0  0  0  0  0  0  0  0  0
  192.0410  171.4230  141.6010 N   0  0  0  0  0  0  0  0  0  0  0  0
  189.0660  174.9770  143.3280 C   0  0  0  0  0  3  0  0  0  0  0  0
  188.1910  173.7570  140.8880 Cl  0  0  0  0  0  0  0  0  0  0  0  0
  192.2620  169.4670  139.2880 O   0  0  0  0  0  0  0  0  0  0  0  0
  190.5480  173.1740  142.4210 C   0  0  0  0  0  0  0  0  0  0  0  0
  191.2180  171.2280  140.5530 C   0  0  0  0  0  0  0  0  0  0  0  0
  186.3490  178.6530  145.2640 C   0  0  0  0  0  2  0  0  0  0  0  0
  184.9020  178.1860  145.4430 C   0  0  0  0  0  3  0  0  0  0  0  0
  184.4410  178.2910  146.8840 C   0  0  0  0  0  1  0  0  0  0  0  0
  183.9510  178.9340  144.5280 C   0  0  0  0  0  1  0  0  0  0  0  0
  2 12  1  0  0  0  0
  4  3  2  0  0  0  0
  5 27  1  0  0  0  0
  6 28  1  0  0  0  0
  6  5  2  0  0  0  0
  7 17  1  0  0  0  0
  9 28  1  0  0  0  0
 10  1  1  0  0  0  0
 11  3  1  0  0  0  0
 12 13  1  0  0  0  0
 12  8  1  0  0  0  0
 13 11  2  0  0  0  0
 14 22  2  0  0  0  0
 15 18  1  0  0  0  0
 15  9  1  0  0  0  0
 16  7  1  0  0  0  0
 16 20  1  0  0  0  0
 17  8  2  0  0  0  0
 17 10  1  0  0  0  0
 18  6  1  0  0  0  0
 19 16  2  0  0  0  0
 20  1  1  0  0  0  0
 21  4  1  0  0  0  0
 22 21  1  0  0  0  0
 22 13  1  0  0  0  0
 23 14  1  0  0  0  0
 24  2  1  0  0  0  0
 24  7  2  0  0  0  0
 25  5  1  0  0  0  0
 26  9  2  0  0  0  0
 27 14  1  0  0  0  0
 27  2  2  0  0  0  0
 28 23  2  0  0  0  0
 29 20  1  0  0  0  0
 29 30  1  0  0  0  0
 30 31  1  0  0  0  0
 32 30  1  0  0  0  0
M  END
>  <MODEL>
9

>  <REMARK>
 VINA RESULT:      -7.4      3.504      7.801
  Name = 
  2 active torsions:
  status: ('A' for Active; 'I' for Inactive)
    1  A    between atoms: C_1  and  C_10
    2  A    between atoms: C_10  and  N_24
                            x       y       z     vdW  Elec       q    Type
                         _______ _______ _______ _____ _____    ______ ____

>  <TORSDO>
F 2

$$$$
