=
 OpenBabel11052418473D

 34 39  0  0  1  0  0  0  0  0999 V2000
  186.0110  177.6130  143.5230 C   0  0  1  0  0  3  0  0  0  0  0  0
  186.3040  178.0700  145.9610 C   0  0  1  0  0  3  0  0  0  0  0  0
  187.7480  176.3370  144.7210 C   0  0  1  0  0  3  0  0  0  0  0  0
  189.3310  174.8170  146.0760 C   0  0  2  0  0  3  0  0  0  0  0  0
  184.5350  179.2720  144.6370 C   0  0  0  0  0  2  0  0  0  0  0  0
  185.5290  179.3760  145.7890 C   0  0  0  0  0  2  0  0  0  0  0  0
  189.8510  177.1420  145.9950 C   0  0  0  0  0  2  0  0  0  0  0  0
  187.0420  177.7030  144.6570 C   0  0  1  0  0  3  0  0  0  0  0  0
  190.4370  175.1330  147.0640 C   0  0  0  0  0  2  0  0  0  0  0  0
  185.2670  178.9290  143.3460 C   0  0  0  0  0  2  0  0  0  0  0  0
  188.4540  176.0170  143.4000 C   0  0  1  0  0  3  0  0  0  0  0  0
  186.6060  177.2030  142.2680 N   0  0  0  0  0  0  0  0  0  0  0  0
  187.1940  178.2390  147.0050 F   0  0  0  0  0  0  0  0  0  0  0  0
  190.1510  174.1910  144.5560 S   0  0  0  0  0  0  0  0  0  0  0  0
  188.8000  174.5240  143.3790 C   0  0  2  0  0  3  0  0  0  0  0  0
  190.8230  176.5410  146.9030 N   0  0  0  0  0  0  0  0  0  0  0  0
  188.6940  176.1760  145.9160 C   0  0  1  0  0  3  0  0  0  0  0  0
  187.6530  176.4560  142.1900 C   0  0  0  0  0  3  0  0  0  0  0  0
  188.5940  172.8930  139.9610 C   0  0  0  0  0  0  0  0  0  0  0  0
  189.8970  173.0570  139.4840 C   0  0  0  0  0  3  0  0  0  0  0  0
  189.1990  174.0190  142.0220 C   0  0  0  0  0  0  0  0  0  0  0  0
  190.8550  173.7020  140.2740 C   0  0  0  0  0  3  0  0  0  0  0  0
  188.2460  173.3730  141.2270 C   0  0  0  0  0  3  0  0  0  0  0  0
  190.5080  174.1810  141.5400 C   0  0  0  0  0  3  0  0  0  0  0  0
  187.6660  172.2680  139.1960 F   0  0  0  0  0  0  0  0  0  0  0  0
  192.1090  176.5740  146.2240 C   0  0  0  0  0  2  0  0  0  0  0  0
  193.0120  175.4810  146.7710 C   0  0  0  0  0  2  0  0  0  0  0  0
  193.9760  172.8440  145.5330 C   0  0  0  0  0  1  0  0  0  0  0  0
  194.1270  175.2660  145.8630 N   0  0  0  0  0  0  0  0  0  0  0  0
  193.7250  174.2100  144.9160 C   0  0  1  0  0  3  0  0  0  0  0  0
  195.7870  175.0310  143.7040 C   0  0  0  0  0  2  0  0  0  0  0  0
  195.5640  176.4450  144.2450 C   0  0  0  0  0  2  0  0  0  0  0  0
  194.3310  176.5290  145.1520 C   0  0  0  0  0  2  0  0  0  0  0  0
  194.4620  174.2860  143.5660 C   0  0  0  0  0  2  0  0  0  0  0  0
  1 10  1  6  0  0  0
  1  8  1  0  0  0  0
  2 13  1  1  0  0  0
  3 17  1  0  0  0  0
  4  9  1  0  0  0  0
  5  6  1  0  0  0  0
  6  2  1  0  0  0  0
  7 16  1  0  0  0  0
  8  3  1  0  0  0  0
  8  2  1  0  0  0  0
 10  5  1  0  0  0  0
 11  3  1  0  0  0  0
 12  1  1  0  0  0  0
 14  4  1  0  0  0  0
 15 11  1  0  0  0  0
 15 14  1  0  0  0  0
 16  9  1  0  0  0  0
 17  7  1  0  0  0  0
 17  4  1  0  0  0  0
 18 12  2  0  0  0  0
 18 11  1  0  0  0  0
 19 23  1  0  0  0  0
 20 19  2  0  0  0  0
 20 22  1  0  0  0  0
 21 15  1  0  0  0  0
 22 24  2  0  0  0  0
 23 21  2  0  0  0  0
 24 21  1  0  0  0  0
 25 19  1  0  0  0  0
 26 27  1  0  0  0  0
 26 16  1  0  0  0  0
 29 27  1  0  0  0  0
 30 28  1  0  0  0  0
 30 29  1  0  0  0  0
 31 32  1  0  0  0  0
 32 33  1  0  0  0  0
 33 29  1  0  0  0  0
 34 31  1  0  0  0  0
 34 30  1  0  0  0  0
M  END
>  <MODEL>
1

>  <REMARK>
 VINA RESULT:      -8.6      0.000      0.000
  Name = 
  4 active torsions:
  status: ('A' for Active; 'I' for Inactive)
    1  A    between atoms: C_3  and  N_13
    2  A    between atoms: C_3  and  C_17
    3  A    between atoms: C_12  and  C_28
    4  A    between atoms: C_17  and  N_29
                            x       y       z     vdW  Elec       q    Type
                         _______ _______ _______ _____ _____    ______ ____

>  <TORSDO>
F 4

$$$$
=
 OpenBabel11052418473D

 34 39  0  0  1  0  0  0  0  0999 V2000
  185.9840  177.4350  143.1920 C   0  0  1  0  0  3  0  0  0  0  0  0
  186.3440  177.9740  145.6040 C   0  0  1  0  0  3  0  0  0  0  0  0
  187.7720  176.2190  144.3770 C   0  0  1  0  0  3  0  0  0  0  0  0
  189.4130  174.7610  145.7310 C   0  0  2  0  0  3  0  0  0  0  0  0
  184.5210  179.1120  144.2970 C   0  0  0  0  0  2  0  0  0  0  0  0
  185.5480  179.2650  145.4140 C   0  0  0  0  0  2  0  0  0  0  0  0
  189.9020  177.0880  145.5610 C   0  0  0  0  0  2  0  0  0  0  0  0
  187.0480  177.5740  144.2910 C   0  0  1  0  0  3  0  0  0  0  0  0
  190.5440  175.1210  146.6750 C   0  0  0  0  0  2  0  0  0  0  0  0
  185.2190  178.7370  142.9960 C   0  0  0  0  0  2  0  0  0  0  0  0
  188.4420  175.8640  143.0460 C   0  0  1  0  0  3  0  0  0  0  0  0
  186.5470  176.9930  141.9330 N   0  0  0  0  0  0  0  0  0  0  0  0
  187.2630  178.1860  146.6150 F   0  0  0  0  0  0  0  0  0  0  0  0
  190.1950  174.0960  144.2070 S   0  0  0  0  0  0  0  0  0  0  0  0
  188.8050  174.3760  143.0610 C   0  0  2  0  0  3  0  0  0  0  0  0
  190.9080  176.5270  146.4570 N   0  0  0  0  0  0  0  0  0  0  0  0
  188.7550  176.1070  145.5470 C   0  0  1  0  0  3  0  0  0  0  0  0
  187.6000  176.2550  141.8470 C   0  0  0  0  0  3  0  0  0  0  0  0
  190.8310  173.5360  139.9670 C   0  0  0  0  0  0  0  0  0  0  0  0
  189.9000  172.8400  139.1930 C   0  0  0  0  0  3  0  0  0  0  0  0
  189.1710  173.8320  141.7100 C   0  0  0  0  0  0  0  0  0  0  0  0
  188.6020  172.6380  139.6740 C   0  0  0  0  0  3  0  0  0  0  0  0
  190.4670  174.0320  141.2230 C   0  0  0  0  0  3  0  0  0  0  0  0
  188.2370  173.1330  140.9280 C   0  0  0  0  0  3  0  0  0  0  0  0
  192.0890  173.7320  139.5010 F   0  0  0  0  0  0  0  0  0  0  0  0
  192.1720  176.5530  145.7400 C   0  0  0  0  0  2  0  0  0  0  0  0
  193.2410  175.8330  146.5460 C   0  0  0  0  0  2  0  0  0  0  0  0
  193.9270  173.0230  145.5240 C   0  0  0  0  0  1  0  0  0  0  0  0
  194.3310  175.4340  145.6690 N   0  0  0  0  0  0  0  0  0  0  0  0
  193.8230  174.3560  144.8010 C   0  0  1  0  0  3  0  0  0  0  0  0
  195.9640  174.8610  143.5540 C   0  0  0  0  0  2  0  0  0  0  0  0
  195.8880  176.3280  143.9830 C   0  0  0  0  0  2  0  0  0  0  0  0
  194.6680  176.6100  144.8660 C   0  0  0  0  0  2  0  0  0  0  0  0
  194.5680  174.2500  143.4580 C   0  0  0  0  0  2  0  0  0  0  0  0
  1 10  1  6  0  0  0
  1  8  1  0  0  0  0
  2 13  1  1  0  0  0
  3 17  1  0  0  0  0
  4  9  1  0  0  0  0
  5  6  1  0  0  0  0
  6  2  1  0  0  0  0
  7 16  1  0  0  0  0
  8  3  1  0  0  0  0
  8  2  1  0  0  0  0
 10  5  1  0  0  0  0
 11 15  1  0  0  0  0
 11  3  1  0  0  0  0
 12  1  1  0  0  0  0
 14  4  1  0  0  0  0
 15 14  1  0  0  0  0
 16  9  1  0  0  0  0
 17  7  1  0  0  0  0
 17  4  1  0  0  0  0
 18 12  2  0  0  0  0
 18 11  1  0  0  0  0
 19 23  1  0  0  0  0
 20 22  1  0  0  0  0
 20 19  2  0  0  0  0
 21 15  1  0  0  0  0
 22 24  2  0  0  0  0
 23 21  2  0  0  0  0
 24 21  1  0  0  0  0
 25 19  1  0  0  0  0
 26 16  1  0  0  0  0
 26 27  1  0  0  0  0
 29 27  1  0  0  0  0
 30 28  1  0  0  0  0
 30 29  1  0  0  0  0
 31 32  1  0  0  0  0
 32 33  1  0  0  0  0
 33 29  1  0  0  0  0
 34 31  1  0  0  0  0
 34 30  1  0  0  0  0
M  END
>  <MODEL>
2

>  <REMARK>
 VINA RESULT:      -8.4      0.883      1.212
  Name = 
  4 active torsions:
  status: ('A' for Active; 'I' for Inactive)
    1  A    between atoms: C_3  and  N_13
    2  A    between atoms: C_3  and  C_17
    3  A    between atoms: C_12  and  C_28
    4  A    between atoms: C_17  and  N_29
                            x       y       z     vdW  Elec       q    Type
                         _______ _______ _______ _____ _____    ______ ____

>  <TORSDO>
F 4

$$$$
=
 OpenBabel11052418473D

 34 39  0  0  1  0  0  0  0  0999 V2000
  187.0510  177.4510  146.9900 C   0  0  1  0  0  3  0  0  0  0  0  0
  185.5640  178.4200  145.2330 C   0  0  1  0  0  3  0  0  0  0  0  0
  187.9240  177.5500  144.6860 C   0  0  1  0  0  3  0  0  0  0  0  0
  188.9020  177.9570  142.3350 C   0  0  2  0  0  3  0  0  0  0  0  0
  184.8080  178.3070  147.6290 C   0  0  0  0  0  2  0  0  0  0  0  0
  184.3710  178.2360  146.1700 C   0  0  0  0  0  2  0  0  0  0  0  0
  187.0460  176.4700  142.5050 C   0  0  0  0  0  2  0  0  0  0  0  0
  186.6420  177.3530  145.5140 C   0  0  1  0  0  3  0  0  0  0  0  0
  188.3830  177.6200  140.9510 C   0  0  0  0  0  2  0  0  0  0  0  0
  185.8570  177.2400  147.9100 C   0  0  0  0  0  2  0  0  0  0  0  0
  188.9630  176.4730  145.0110 C   0  0  1  0  0  3  0  0  0  0  0  0
  188.1140  176.5280  147.3300 N   0  0  0  0  0  0  0  0  0  0  0  0
  185.1020  178.3300  143.9340 F   0  0  0  0  0  0  0  0  0  0  0  0
  190.3210  176.8330  142.6490 S   0  0  0  0  0  0  0  0  0  0  0  0
  190.3240  176.9260  144.4700 C   0  0  2  0  0  3  0  0  0  0  0  0
  187.3270  176.6070  141.0790 N   0  0  0  0  0  0  0  0  0  0  0  0
  187.6850  177.6620  143.1760 C   0  0  1  0  0  3  0  0  0  0  0  0
  189.0000  176.1250  146.4860 C   0  0  0  0  0  3  0  0  0  0  0  0
  193.5400  176.0340  146.2690 C   0  0  0  0  0  0  0  0  0  0  0  0
  193.6510  174.6670  146.0020 C   0  0  0  0  0  3  0  0  0  0  0  0
  191.4780  176.1220  144.9970 C   0  0  0  0  0  0  0  0  0  0  0  0
  192.6770  174.0240  145.2310 C   0  0  0  0  0  3  0  0  0  0  0  0
  192.4560  176.7600  145.7680 C   0  0  0  0  0  3  0  0  0  0  0  0
  191.5940  174.7490  144.7290 C   0  0  0  0  0  3  0  0  0  0  0  0
  194.4850  176.6570  147.0160 F   0  0  0  0  0  0  0  0  0  0  0  0
  187.8730  175.3360  140.6330 C   0  0  0  0  0  2  0  0  0  0  0  0
  187.9390  174.3620  141.7980 C   0  0  0  0  0  2  0  0  0  0  0  0
  188.9930  172.2930  143.8030 C   0  0  0  0  0  1  0  0  0  0  0  0
  189.2570  173.7510  141.8530 N   0  0  0  0  0  0  0  0  0  0  0  0
  189.0760  172.3530  142.2860 C   0  0  1  0  0  3  0  0  0  0  0  0
  191.4800  172.1960  141.5200 C   0  0  0  0  0  2  0  0  0  0  0  0
  191.2300  173.2700  140.4580 C   0  0  0  0  0  2  0  0  0  0  0  0
  189.7890  173.7900  140.4900 C   0  0  0  0  0  2  0  0  0  0  0  0
  190.2020  171.4160  141.8140 C   0  0  0  0  0  2  0  0  0  0  0  0
  1 12  1  0  0  0  0
  1 10  1  1  0  0  0
  2 13  1  6  0  0  0
  2  8  1  0  0  0  0
  2  6  1  0  0  0  0
  3 11  1  0  0  0  0
  3  8  1  0  0  0  0
  4 14  1  0  0  0  0
  4 17  1  0  0  0  0
  5 10  1  0  0  0  0
  6  5  1  0  0  0  0
  7 17  1  0  0  0  0
  8  1  1  0  0  0  0
  9 16  1  0  0  0  0
  9  4  1  0  0  0  0
 11 18  1  0  0  0  0
 14 15  1  0  0  0  0
 15 21  1  0  0  0  0
 15 11  1  0  0  0  0
 16  7  1  0  0  0  0
 17  3  1  0  0  0  0
 18 12  2  0  0  0  0
 19 25  1  0  0  0  0
 20 19  1  0  0  0  0
 21 23  1  0  0  0  0
 22 20  2  0  0  0  0
 23 19  2  0  0  0  0
 24 21  2  0  0  0  0
 24 22  1  0  0  0  0
 26 16  1  0  0  0  0
 26 27  1  0  0  0  0
 27 29  1  0  0  0  0
 29 30  1  0  0  0  0
 30 28  1  0  0  0  0
 31 34  1  0  0  0  0
 32 33  1  0  0  0  0
 32 31  1  0  0  0  0
 33 29  1  0  0  0  0
 34 30  1  0  0  0  0
M  END
>  <MODEL>
3

>  <REMARK>
 VINA RESULT:      -8.3      2.481      5.464
  Name = 
  4 active torsions:
  status: ('A' for Active; 'I' for Inactive)
    1  A    between atoms: C_3  and  N_13
    2  A    between atoms: C_3  and  C_17
    3  A    between atoms: C_12  and  C_28
    4  A    between atoms: C_17  and  N_29
                            x       y       z     vdW  Elec       q    Type
                         _______ _______ _______ _____ _____    ______ ____

>  <TORSDO>
F 4

$$$$
=
 OpenBabel11052418473D

 34 39  0  0  1  0  0  0  0  0999 V2000
  187.3230  177.9140  146.6970 C   0  0  1  0  0  3  0  0  0  0  0  0
  185.6100  177.9580  144.8800 C   0  0  1  0  0  3  0  0  0  0  0  0
  188.0100  177.1260  144.4640 C   0  0  1  0  0  3  0  0  0  0  0  0
  188.7630  176.6080  142.0520 C   0  0  2  0  0  3  0  0  0  0  0  0
  185.0460  178.7790  147.1900 C   0  0  0  0  0  2  0  0  0  0  0  0
  184.5170  178.0820  145.9410 C   0  0  0  0  0  2  0  0  0  0  0  0
  187.1100  175.1820  143.0130 C   0  0  0  0  0  2  0  0  0  0  0  0
  186.8230  177.1870  145.4410 C   0  0  1  0  0  3  0  0  0  0  0  0
  188.1880  175.6930  140.9880 C   0  0  0  0  0  2  0  0  0  0  0  0
  186.2310  178.0060  147.7540 C   0  0  0  0  0  2  0  0  0  0  0  0
  189.1890  176.3620  145.0730 C   0  0  1  0  0  3  0  0  0  0  0  0
  188.5080  177.2970  147.2560 N   0  0  0  0  0  0  0  0  0  0  0  0
  185.0690  177.3070  143.7880 F   0  0  0  0  0  0  0  0  0  0  0  0
  190.3220  175.8250  142.6280 S   0  0  0  0  0  0  0  0  0  0  0  0
  190.4450  176.6570  144.2460 C   0  0  2  0  0  3  0  0  0  0  0  0
  187.2700  174.7430  141.6300 N   0  0  0  0  0  0  0  0  0  0  0  0
  187.6520  176.5900  143.0740 C   0  0  1  0  0  3  0  0  0  0  0  0
  189.3720  176.6530  146.5500 C   0  0  0  0  0  3  0  0  0  0  0  0
  193.9480  176.7950  145.6920 C   0  0  0  0  0  0  0  0  0  0  0  0
  194.1190  175.4890  146.1580 C   0  0  0  0  0  3  0  0  0  0  0  0
  191.7200  176.2320  144.9160 C   0  0  0  0  0  0  0  0  0  0  0  0
  193.0920  174.5510  146.0040 C   0  0  0  0  0  3  0  0  0  0  0  0
  192.7510  177.1650  145.0720 C   0  0  0  0  0  3  0  0  0  0  0  0
  191.8960  174.9210  145.3840 C   0  0  0  0  0  3  0  0  0  0  0  0
  194.9420  177.7030  145.8410 F   0  0  0  0  0  0  0  0  0  0  0  0
  187.9280  173.4480  141.6720 C   0  0  0  0  0  2  0  0  0  0  0  0
  188.5690  173.1480  140.3270 C   0  0  0  0  0  2  0  0  0  0  0  0
  191.1120  172.9180  138.6270 C   0  0  0  0  0  1  0  0  0  0  0  0
  189.6980  172.2500  140.5110 N   0  0  0  0  0  0  0  0  0  0  0  0
  190.9150  172.9910  140.1320 C   0  0  1  0  0  3  0  0  0  0  0  0
  192.0190  171.0220  141.2710 C   0  0  0  0  0  2  0  0  0  0  0  0
  190.8260  170.8810  142.2210 C   0  0  0  0  0  2  0  0  0  0  0  0
  189.7340  171.9170  141.9370 C   0  0  0  0  0  2  0  0  0  0  0  0
  192.1880  172.4710  140.8240 C   0  0  0  0  0  2  0  0  0  0  0  0
  1 12  1  0  0  0  0
  1 10  1  1  0  0  0
  2 13  1  6  0  0  0
  2  8  1  0  0  0  0
  2  6  1  0  0  0  0
  3 11  1  0  0  0  0
  3  8  1  0  0  0  0
  4 14  1  0  0  0  0
  4 17  1  0  0  0  0
  5 10  1  0  0  0  0
  6  5  1  0  0  0  0
  7 17  1  0  0  0  0
  8  1  1  0  0  0  0
  9 16  1  0  0  0  0
  9  4  1  0  0  0  0
 11 18  1  0  0  0  0
 14 15  1  0  0  0  0
 15 21  1  0  0  0  0
 15 11  1  0  0  0  0
 16 26  1  0  0  0  0
 16  7  1  0  0  0  0
 17  3  1  0  0  0  0
 18 12  2  0  0  0  0
 19 25  1  0  0  0  0
 19 20  1  0  0  0  0
 21 23  1  0  0  0  0
 21 24  2  0  0  0  0
 22 20  2  0  0  0  0
 23 19  2  0  0  0  0
 24 22  1  0  0  0  0
 27 29  1  0  0  0  0
 27 26  1  0  0  0  0
 28 30  1  0  0  0  0
 29 33  1  0  0  0  0
 30 29  1  0  0  0  0
 30 34  1  0  0  0  0
 31 32  1  0  0  0  0
 33 32  1  0  0  0  0
 34 31  1  0  0  0  0
M  END
>  <MODEL>
4

>  <REMARK>
 VINA RESULT:      -8.0      2.446      5.648
  Name = 
  4 active torsions:
  status: ('A' for Active; 'I' for Inactive)
    1  A    between atoms: C_3  and  N_13
    2  A    between atoms: C_3  and  C_17
    3  A    between atoms: C_12  and  C_28
    4  A    between atoms: C_17  and  N_29
                            x       y       z     vdW  Elec       q    Type
                         _______ _______ _______ _____ _____    ______ ____

>  <TORSDO>
F 4

$$$$
=
 OpenBabel11052418473D

 34 39  0  0  1  0  0  0  0  0999 V2000
  195.0780  175.7090  143.9530 C   0  0  1  0  0  3  0  0  0  0  0  0
  194.9080  173.6670  142.5250 C   0  0  1  0  0  3  0  0  0  0  0  0
  193.0130  174.3710  144.1180 C   0  0  1  0  0  3  0  0  0  0  0  0
  191.0170  172.7790  144.4820 C   0  0  2  0  0  3  0  0  0  0  0  0
  196.9820  175.0890  142.4820 C   0  0  0  0  0  2  0  0  0  0  0  0
  196.0540  174.1980  141.6640 C   0  0  0  0  0  2  0  0  0  0  0  0
  191.2490  173.7690  142.3250 C   0  0  0  0  0  2  0  0  0  0  0  0
  194.1110  174.8340  143.1440 C   0  0  1  0  0  3  0  0  0  0  0  0
  190.0500  172.1310  143.5100 C   0  0  0  0  0  2  0  0  0  0  0  0
  196.1980  176.2510  143.0770 C   0  0  0  0  0  2  0  0  0  0  0  0
  192.2620  175.5660  144.7130 C   0  0  1  0  0  3  0  0  0  0  0  0
  194.4030  176.7960  144.6310 N   0  0  0  0  0  0  0  0  0  0  0  0
  194.1000  172.8840  141.7220 F   0  0  0  0  0  0  0  0  0  0  0  0
  190.0640  174.0620  145.3880 S   0  0  0  0  0  0  0  0  0  0  0  0
  191.4680  175.0890  145.9330 C   0  0  2  0  0  3  0  0  0  0  0  0
  190.1240  172.8430  142.2280 N   0  0  0  0  0  0  0  0  0  0  0  0
  192.0470  173.3370  143.5310 C   0  0  1  0  0  3  0  0  0  0  0  0
  193.1760  176.7350  145.0220 C   0  0  0  0  0  3  0  0  0  0  0  0
  191.1880  177.5990  148.7620 C   0  0  0  0  0  0  0  0  0  0  0  0
  190.0230  178.2900  148.4200 C   0  0  0  0  0  3  0  0  0  0  0  0
  190.9500  176.2090  146.7890 C   0  0  0  0  0  0  0  0  0  0  0  0
  189.3180  177.9430  147.2630 C   0  0  0  0  0  3  0  0  0  0  0  0
  191.6500  176.5610  147.9490 C   0  0  0  0  0  3  0  0  0  0  0  0
  189.7790  176.9050  146.4500 C   0  0  0  0  0  3  0  0  0  0  0  0
  191.8710  177.9360  149.8830 F   0  0  0  0  0  0  0  0  0  0  0  0
  188.9230  173.6510  142.0990 C   0  0  0  0  0  2  0  0  0  0  0  0
  189.2970  175.0980  141.8240 C   0  0  0  0  0  2  0  0  0  0  0  0
  190.0540  177.8870  142.8550 C   0  0  0  0  0  1  0  0  0  0  0  0
  188.5310  175.9770  142.6930 N   0  0  0  0  0  0  0  0  0  0  0  0
  188.7690  177.3600  142.2400 C   0  0  1  0  0  3  0  0  0  0  0  0
  186.8040  177.8030  143.7690 C   0  0  0  0  0  2  0  0  0  0  0  0
  186.2320  176.4160  143.4640 C   0  0  0  0  0  2  0  0  0  0  0  0
  187.1230  175.6210  142.5040 C   0  0  0  0  0  2  0  0  0  0  0  0
  187.6210  178.3240  142.5900 C   0  0  0  0  0  2  0  0  0  0  0  0
  1 10  1  6  0  0  0
  1 12  1  0  0  0  0
  2 13  1  6  0  0  0
  2  8  1  0  0  0  0
  3 11  1  0  0  0  0
  4 14  1  0  0  0  0
  5 10  1  0  0  0  0
  6  5  1  0  0  0  0
  6  2  1  0  0  0  0
  7 17  1  0  0  0  0
  8  1  1  0  0  0  0
  8  3  1  0  0  0  0
  9  4  1  0  0  0  0
 11 18  1  0  0  0  0
 11 15  1  0  0  0  0
 12 18  2  0  0  0  0
 14 15  1  0  0  0  0
 15 21  1  0  0  0  0
 16  7  1  0  0  0  0
 16  9  1  0  0  0  0
 17  3  1  0  0  0  0
 17  4  1  0  0  0  0
 19 25  1  0  0  0  0
 20 19  1  0  0  0  0
 21 23  1  0  0  0  0
 22 20  2  0  0  0  0
 23 19  2  0  0  0  0
 24 21  2  0  0  0  0
 24 22  1  0  0  0  0
 26 16  1  0  0  0  0
 27 26  1  0  0  0  0
 27 29  1  0  0  0  0
 30 34  1  0  0  0  0
 30 29  1  0  0  0  0
 30 28  1  0  0  0  0
 32 31  1  0  0  0  0
 33 29  1  0  0  0  0
 33 32  1  0  0  0  0
 34 31  1  0  0  0  0
M  END
>  <MODEL>
5

>  <REMARK>
 VINA RESULT:      -7.7      2.445      8.014
  Name = 
  4 active torsions:
  status: ('A' for Active; 'I' for Inactive)
    1  A    between atoms: C_3  and  N_13
    2  A    between atoms: C_3  and  C_17
    3  A    between atoms: C_12  and  C_28
    4  A    between atoms: C_17  and  N_29
                            x       y       z     vdW  Elec       q    Type
                         _______ _______ _______ _____ _____    ______ ____

>  <TORSDO>
F 4

$$$$
=
 OpenBabel11052418473D

 34 39  0  0  1  0  0  0  0  0999 V2000
  187.4080  177.8260  146.6790 C   0  0  1  0  0  3  0  0  0  0  0  0
  185.6980  177.8750  144.8590 C   0  0  1  0  0  3  0  0  0  0  0  0
  188.1050  177.0640  144.4400 C   0  0  1  0  0  3  0  0  0  0  0  0
  188.8650  176.5740  142.0240 C   0  0  2  0  0  3  0  0  0  0  0  0
  185.1250  178.6700  147.1760 C   0  0  0  0  0  2  0  0  0  0  0  0
  184.6020  177.9810  145.9190 C   0  0  0  0  0  2  0  0  0  0  0  0
  187.2210  175.1270  142.9690 C   0  0  0  0  0  2  0  0  0  0  0  0
  186.9150  177.1070  145.4150 C   0  0  1  0  0  3  0  0  0  0  0  0
  188.2990  175.6650  140.9510 C   0  0  0  0  0  2  0  0  0  0  0  0
  186.3140  177.9000  147.7350 C   0  0  0  0  0  2  0  0  0  0  0  0
  189.2880  176.3030  145.0440 C   0  0  1  0  0  3  0  0  0  0  0  0
  188.5970  177.2120  147.2340 N   0  0  0  0  0  0  0  0  0  0  0  0
  185.1640  177.2300  143.7600 F   0  0  0  0  0  0  0  0  0  0  0  0
  190.4280  175.7970  142.5950 S   0  0  0  0  0  0  0  0  0  0  0  0
  190.5430  176.6140  144.2210 C   0  0  2  0  0  3  0  0  0  0  0  0
  187.3860  174.7020  141.5830 N   0  0  0  0  0  0  0  0  0  0  0  0
  187.7530  176.5380  143.0440 C   0  0  1  0  0  3  0  0  0  0  0  0
  189.4670  176.5810  146.5230 C   0  0  0  0  0  3  0  0  0  0  0  0
  193.2600  174.4120  145.6870 C   0  0  0  0  0  0  0  0  0  0  0  0
  194.1870  175.3570  146.1330 C   0  0  0  0  0  3  0  0  0  0  0  0
  191.8200  176.1930  144.8900 C   0  0  0  0  0  0  0  0  0  0  0  0
  193.9340  176.7210  145.9600 C   0  0  0  0  0  3  0  0  0  0  0  0
  192.0780  174.8290  145.0670 C   0  0  0  0  0  3  0  0  0  0  0  0
  192.7540  177.1390  145.3410 C   0  0  0  0  0  3  0  0  0  0  0  0
  193.5050  173.0900  145.8560 F   0  0  0  0  0  0  0  0  0  0  0  0
  188.0540  173.4110  141.6140 C   0  0  0  0  0  2  0  0  0  0  0  0
  188.8190  173.1920  140.3200 C   0  0  0  0  0  2  0  0  0  0  0  0
  189.7640  171.4680  137.9640 C   0  0  0  0  0  1  0  0  0  0  0  0
  189.4890  171.9010  140.3580 N   0  0  0  0  0  0  0  0  0  0  0  0
  190.4620  171.8780  139.2510 C   0  0  1  0  0  3  0  0  0  0  0  0
  191.2800  169.8420  140.5070 C   0  0  0  0  0  2  0  0  0  0  0  0
  190.8380  170.4620  141.8350 C   0  0  0  0  0  2  0  0  0  0  0  0
  190.1880  171.8360  141.6430 C   0  0  0  0  0  2  0  0  0  0  0  0
  191.6460  170.9260  139.4970 C   0  0  0  0  0  2  0  0  0  0  0  0
  1 12  1  0  0  0  0
  1 10  1  1  0  0  0
  2 13  1  6  0  0  0
  2  8  1  0  0  0  0
  2  6  1  0  0  0  0
  3 11  1  0  0  0  0
  3  8  1  0  0  0  0
  4 14  1  0  0  0  0
  4 17  1  0  0  0  0
  5 10  1  0  0  0  0
  6  5  1  0  0  0  0
  7 17  1  0  0  0  0
  8  1  1  0  0  0  0
  9 16  1  0  0  0  0
  9  4  1  0  0  0  0
 11 18  1  0  0  0  0
 14 15  1  0  0  0  0
 15 21  1  0  0  0  0
 15 11  1  0  0  0  0
 16 26  1  0  0  0  0
 16  7  1  0  0  0  0
 17  3  1  0  0  0  0
 18 12  2  0  0  0  0
 19 25  1  0  0  0  0
 19 20  1  0  0  0  0
 21 23  1  0  0  0  0
 21 24  2  0  0  0  0
 22 20  2  0  0  0  0
 23 19  2  0  0  0  0
 24 22  1  0  0  0  0
 27 29  1  0  0  0  0
 27 26  1  0  0  0  0
 28 30  1  0  0  0  0
 29 33  1  0  0  0  0
 30 34  1  0  0  0  0
 30 29  1  0  0  0  0
 31 32  1  0  0  0  0
 33 32  1  0  0  0  0
 34 31  1  0  0  0  0
M  END
>  <MODEL>
6

>  <REMARK>
 VINA RESULT:      -7.6      2.579      5.712
  Name = 
  4 active torsions:
  status: ('A' for Active; 'I' for Inactive)
    1  A    between atoms: C_3  and  N_13
    2  A    between atoms: C_3  and  C_17
    3  A    between atoms: C_12  and  C_28
    4  A    between atoms: C_17  and  N_29
                            x       y       z     vdW  Elec       q    Type
                         _______ _______ _______ _____ _____    ______ ____

>  <TORSDO>
F 4

$$$$
=
 OpenBabel11052418473D

 34 39  0  0  1  0  0  0  0  0999 V2000
  186.8410  176.4100  143.1220 C   0  0  1  0  0  3  0  0  0  0  0  0
  187.1680  177.0430  145.5170 C   0  0  1  0  0  3  0  0  0  0  0  0
  188.8340  175.5240  144.2740 C   0  0  1  0  0  3  0  0  0  0  0  0
  190.7250  174.3790  145.6020 C   0  0  2  0  0  3  0  0  0  0  0  0
  185.1510  177.8440  144.2440 C   0  0  0  0  0  2  0  0  0  0  0  0
  186.1660  178.1820  145.3310 C   0  0  0  0  0  2  0  0  0  0  0  0
  190.8200  176.7520  145.3880 C   0  0  0  0  0  2  0  0  0  0  0  0
  187.8950  176.7400  144.1900 C   0  0  1  0  0  3  0  0  0  0  0  0
  191.8040  174.9350  146.5100 C   0  0  0  0  0  2  0  0  0  0  0  0
  185.8680  177.5650  142.9300 C   0  0  0  0  0  2  0  0  0  0  0  0
  189.5190  175.2610  142.9300 C   0  0  1  0  0  3  0  0  0  0  0  0
  187.4380  176.0440  141.8550 N   0  0  0  0  0  0  0  0  0  0  0  0
  188.0630  177.4210  146.4990 F   0  0  0  0  0  0  0  0  0  0  0  0
  191.5680  173.8240  144.0670 S   0  0  0  0  0  0  0  0  0  0  0  0
  190.1230  173.8520  142.9560 C   0  0  2  0  0  3  0  0  0  0  0  0
  191.9270  176.3790  146.2640 N   0  0  0  0  0  0  0  0  0  0  0  0
  189.8510  175.5950  145.4180 C   0  0  1  0  0  3  0  0  0  0  0  0
  188.5950  175.4870  141.7500 C   0  0  0  0  0  3  0  0  0  0  0  0
  192.0710  173.4630  139.7250 C   0  0  0  0  0  0  0  0  0  0  0  0
  191.3540  172.4550  139.0760 C   0  0  0  0  0  3  0  0  0  0  0  0
  190.5390  173.3520  141.6020 C   0  0  0  0  0  0  0  0  0  0  0  0
  190.2270  171.8940  139.6860 C   0  0  0  0  0  3  0  0  0  0  0  0
  191.6640  173.9110  140.9850 C   0  0  0  0  0  3  0  0  0  0  0  0
  189.8200  172.3410  140.9450 C   0  0  0  0  0  3  0  0  0  0  0  0
  193.1620  174.0070  139.1340 F   0  0  0  0  0  0  0  0  0  0  0  0
  193.1520  176.5990  145.5120 C   0  0  0  0  0  2  0  0  0  0  0  0
  194.3330  175.9990  146.2560 C   0  0  0  0  0  2  0  0  0  0  0  0
  196.0280  173.4780  145.8290 C   0  0  0  0  0  1  0  0  0  0  0  0
  195.4440  175.8040  145.3390 N   0  0  0  0  0  0  0  0  0  0  0  0
  195.3630  174.4200  144.8390 C   0  0  1  0  0  3  0  0  0  0  0  0
  197.0580  175.3130  143.1880 C   0  0  0  0  0  2  0  0  0  0  0  0
  196.4250  176.7050  143.2660 C   0  0  0  0  0  2  0  0  0  0  0  0
  195.2420  176.7490  144.2380 C   0  0  0  0  0  2  0  0  0  0  0  0
  196.0190  174.2290  143.4590 C   0  0  0  0  0  2  0  0  0  0  0  0
  1 10  1  6  0  0  0
  1  8  1  0  0  0  0
  2 13  1  1  0  0  0
  3 17  1  0  0  0  0
  4  9  1  0  0  0  0
  5  6  1  0  0  0  0
  6  2  1  0  0  0  0
  7 17  1  0  0  0  0
  7 16  1  0  0  0  0
  8  3  1  0  0  0  0
  8  2  1  0  0  0  0
 10  5  1  0  0  0  0
 11 15  1  0  0  0  0
 11  3  1  0  0  0  0
 12  1  1  0  0  0  0
 14  4  1  0  0  0  0
 15 14  1  0  0  0  0
 16  9  1  0  0  0  0
 17  4  1  0  0  0  0
 18 12  2  0  0  0  0
 18 11  1  0  0  0  0
 19 23  1  0  0  0  0
 20 22  1  0  0  0  0
 20 19  2  0  0  0  0
 21 15  1  0  0  0  0
 22 24  2  0  0  0  0
 23 21  2  0  0  0  0
 24 21  1  0  0  0  0
 25 19  1  0  0  0  0
 26 27  1  0  0  0  0
 26 16  1  0  0  0  0
 29 27  1  0  0  0  0
 30 29  1  0  0  0  0
 30 28  1  0  0  0  0
 31 32  1  0  0  0  0
 31 34  1  0  0  0  0
 32 33  1  0  0  0  0
 33 29  1  0  0  0  0
 34 30  1  0  0  0  0
M  END
>  <MODEL>
7

>  <REMARK>
 VINA RESULT:      -7.6      1.633      1.955
  Name = 
  4 active torsions:
  status: ('A' for Active; 'I' for Inactive)
    1  A    between atoms: C_3  and  N_13
    2  A    between atoms: C_3  and  C_17
    3  A    between atoms: C_12  and  C_28
    4  A    between atoms: C_17  and  N_29
                            x       y       z     vdW  Elec       q    Type
                         _______ _______ _______ _____ _____    ______ ____

>  <TORSDO>
F 4

$$$$
=
 OpenBabel11052418473D

 34 39  0  0  1  0  0  0  0  0999 V2000
  190.2360  173.7930  140.4850 C   0  0  1  0  0  3  0  0  0  0  0  0
  192.0020  173.6360  142.2440 C   0  0  1  0  0  3  0  0  0  0  0  0
  190.0660  175.3230  142.4120 C   0  0  1  0  0  3  0  0  0  0  0  0
  190.1040  177.1020  144.2790 C   0  0  2  0  0  3  0  0  0  0  0  0
  192.0890  172.1620  140.2070 C   0  0  0  0  0  2  0  0  0  0  0  0
  192.3960  172.2630  141.6980 C   0  0  0  0  0  2  0  0  0  0  0  0
  189.8220  174.8280  144.9390 C   0  0  0  0  0  2  0  0  0  0  0  0
  190.5050  173.9090  141.9930 C   0  0  1  0  0  3  0  0  0  0  0  0
  190.2220  176.9840  145.7860 C   0  0  0  0  0  2  0  0  0  0  0  0
  190.6070  172.4130  139.9620 C   0  0  0  0  0  2  0  0  0  0  0  0
  188.5770  175.5460  142.1300 C   0  0  1  0  0  3  0  0  0  0  0  0
  188.8630  174.1030  140.1460 N   0  0  0  0  0  0  0  0  0  0  0  0
  192.2900  173.6530  143.5960 F   0  0  0  0  0  0  0  0  0  0  0  0
  188.3750  177.6140  143.9290 S   0  0  0  0  0  0  0  0  0  0  0  0
  188.2850  177.0490  142.1980 C   0  0  2  0  0  3  0  0  0  0  0  0
  189.9180  175.6000  146.1740 N   0  0  0  0  0  0  0  0  0  0  0  0
  190.4250  175.6890  143.8560 C   0  0  1  0  0  3  0  0  0  0  0  0
  188.1290  174.9150  140.8270 C   0  0  0  0  0  3  0  0  0  0  0  0
  184.6190  177.9960  141.9970 C   0  0  0  0  0  0  0  0  0  0  0  0
  184.4310  178.1330  140.6200 C   0  0  0  0  0  3  0  0  0  0  0  0
  186.9470  177.4270  141.6300 C   0  0  0  0  0  0  0  0  0  0  0  0
  185.4990  177.9160  139.7430 C   0  0  0  0  0  3  0  0  0  0  0  0
  185.8740  177.6440  142.5010 C   0  0  0  0  0  3  0  0  0  0  0  0
  186.7540  177.5630  140.2460 C   0  0  0  0  0  3  0  0  0  0  0  0
  183.5830  178.2060  142.8460 F   0  0  0  0  0  0  0  0  0  0  0  0
  188.5980  175.5890  146.7830 C   0  0  0  0  0  2  0  0  0  0  0  0
  188.3540  176.8970  147.5170 C   0  0  0  0  0  2  0  0  0  0  0  0
  186.9600  179.4170  148.5740 C   0  0  0  0  0  1  0  0  0  0  0  0
  186.9430  177.2430  147.4480 N   0  0  0  0  0  0  0  0  0  0  0  0
  186.8590  178.7000  147.2380 C   0  0  1  0  0  3  0  0  0  0  0  0
  184.4540  178.1110  146.7250 C   0  0  0  0  0  2  0  0  0  0  0  0
  184.8860  176.7440  146.1880 C   0  0  0  0  0  2  0  0  0  0  0  0
  186.4000  176.5350  146.2860 C   0  0  0  0  0  2  0  0  0  0  0  0
  185.5620  179.1430  146.5360 C   0  0  0  0  0  2  0  0  0  0  0  0
  1 10  1  1  0  0  0
  1  8  1  0  0  0  0
  2 13  1  1  0  0  0
  3 17  1  0  0  0  0
  4  9  1  0  0  0  0
  5  6  1  0  0  0  0
  6  2  1  0  0  0  0
  7 16  1  0  0  0  0
  8  2  1  0  0  0  0
  8  3  1  0  0  0  0
  9 16  1  0  0  0  0
 10  5  1  0  0  0  0
 11 15  1  0  0  0  0
 11  3  1  0  0  0  0
 12  1  1  0  0  0  0
 12 18  2  0  0  0  0
 14  4  1  0  0  0  0
 15 14  1  0  0  0  0
 16 26  1  0  0  0  0
 17  4  1  0  0  0  0
 17  7  1  0  0  0  0
 18 11  1  0  0  0  0
 19 23  1  0  0  0  0
 19 25  1  0  0  0  0
 20 19  2  0  0  0  0
 21 15  1  0  0  0  0
 21 23  2  0  0  0  0
 22 24  2  0  0  0  0
 22 20  1  0  0  0  0
 24 21  1  0  0  0  0
 26 27  1  0  0  0  0
 29 27  1  0  0  0  0
 30 29  1  0  0  0  0
 30 28  1  0  0  0  0
 32 33  1  0  0  0  0
 32 31  1  0  0  0  0
 33 29  1  0  0  0  0
 34 31  1  0  0  0  0
 34 30  1  0  0  0  0
M  END
>  <MODEL>
8

>  <REMARK>
 VINA RESULT:      -7.6      2.862      6.882
  Name = 
  4 active torsions:
  status: ('A' for Active; 'I' for Inactive)
    1  A    between atoms: C_3  and  N_13
    2  A    between atoms: C_3  and  C_17
    3  A    between atoms: C_12  and  C_28
    4  A    between atoms: C_17  and  N_29
                            x       y       z     vdW  Elec       q    Type
                         _______ _______ _______ _____ _____    ______ ____

>  <TORSDO>
F 4

$$$$
=
 OpenBabel11052418473D

 34 39  0  0  1  0  0  0  0  0999 V2000
  193.2630  170.1570  143.9380 C   0  0  1  0  0  3  0  0  0  0  0  0
  195.1770  171.0140  145.2940 C   0  0  1  0  0  3  0  0  0  0  0  0
  193.6810  172.5870  143.9120 C   0  0  1  0  0  3  0  0  0  0  0  0
  194.3440  175.0680  143.6720 C   0  0  2  0  0  3  0  0  0  0  0  0
  194.6760  168.5510  145.2010 C   0  0  0  0  0  2  0  0  0  0  0  0
  195.1950  169.6950  146.0660 C   0  0  0  0  0  2  0  0  0  0  0  0
  193.6810  174.3170  145.8360 C   0  0  0  0  0  2  0  0  0  0  0  0
  193.7510  171.3310  144.7980 C   0  0  1  0  0  3  0  0  0  0  0  0
  194.6370  176.1410  144.7030 C   0  0  0  0  0  2  0  0  0  0  0  0
  193.2610  168.8560  144.7280 C   0  0  0  0  0  2  0  0  0  0  0  0
  192.2480  172.8500  143.4370 C   0  0  1  0  0  3  0  0  0  0  0  0
  191.9530  170.3980  143.3690 N   0  0  0  0  0  0  0  0  0  0  0  0
  195.6420  172.0050  146.1380 F   0  0  0  0  0  0  0  0  0  0  0  0
  192.7310  175.5030  142.9090 S   0  0  0  0  0  0  0  0  0  0  0  0
  192.2920  173.8500  142.2780 C   0  0  2  0  0  3  0  0  0  0  0  0
  194.1030  175.7040  146.0000 N   0  0  0  0  0  0  0  0  0  0  0  0
  194.3000  173.8380  144.5450 C   0  0  1  0  0  3  0  0  0  0  0  0
  191.5060  171.5740  143.0910 C   0  0  0  0  0  3  0  0  0  0  0  0
  188.6880  174.6750  141.4310 C   0  0  0  0  0  0  0  0  0  0  0  0
  188.5660  174.1470  140.1430 C   0  0  0  0  0  3  0  0  0  0  0  0
  190.9990  173.9460  141.5180 C   0  0  0  0  0  0  0  0  0  0  0  0
  189.6590  173.5170  139.5390 C   0  0  0  0  0  3  0  0  0  0  0  0
  189.9020  174.5730  142.1170 C   0  0  0  0  0  3  0  0  0  0  0  0
  190.8730  173.4160  140.2240 C   0  0  0  0  0  3  0  0  0  0  0  0
  187.6290  175.2840  142.0160 F   0  0  0  0  0  0  0  0  0  0  0  0
  192.9040  176.4810  146.2720 C   0  0  0  0  0  2  0  0  0  0  0  0
  191.7850  175.5630  146.7340 C   0  0  0  0  0  2  0  0  0  0  0  0
  188.9410  174.5410  147.2630 C   0  0  0  0  0  1  0  0  0  0  0  0
  190.5680  175.8640  145.9980 N   0  0  0  0  0  0  0  0  0  0  0  0
  189.4690  175.9370  146.9790 C   0  0  1  0  0  3  0  0  0  0  0  0
  188.2690  176.9550  144.9990 C   0  0  0  0  0  2  0  0  0  0  0  0
  189.5860  177.5360  144.4780 C   0  0  0  0  0  2  0  0  0  0  0  0
  190.7740  177.1730  145.3750 C   0  0  0  0  0  2  0  0  0  0  0  0
  188.2980  176.8250  146.5190 C   0  0  0  0  0  2  0  0  0  0  0  0
  1 10  1  1  0  0  0
  1  8  1  0  0  0  0
  2  6  1  0  0  0  0
  2 13  1  1  0  0  0
  3 17  1  0  0  0  0
  3  8  1  0  0  0  0
  4 17  1  0  0  0  0
  4  9  1  0  0  0  0
  5  6  1  0  0  0  0
  7 16  1  0  0  0  0
  8  2  1  0  0  0  0
  9 16  1  0  0  0  0
 10  5  1  0  0  0  0
 11  3  1  0  0  0  0
 12  1  1  0  0  0  0
 14  4  1  0  0  0  0
 15 14  1  0  0  0  0
 15 11  1  0  0  0  0
 16 26  1  0  0  0  0
 17  7  1  0  0  0  0
 18 12  2  0  0  0  0
 18 11  1  0  0  0  0
 19 25  1  0  0  0  0
 19 23  1  0  0  0  0
 20 19  2  0  0  0  0
 21 23  2  0  0  0  0
 21 15  1  0  0  0  0
 22 20  1  0  0  0  0
 22 24  2  0  0  0  0
 24 21  1  0  0  0  0
 26 27  1  0  0  0  0
 29 27  1  0  0  0  0
 29 30  1  0  0  0  0
 30 28  1  0  0  0  0
 31 34  1  0  0  0  0
 32 31  1  0  0  0  0
 32 33  1  0  0  0  0
 33 29  1  0  0  0  0
 34 30  1  0  0  0  0
M  END
>  <MODEL>
9

>  <REMARK>
 VINA RESULT:      -7.6      2.877      6.915
  Name = 
  4 active torsions:
  status: ('A' for Active; 'I' for Inactive)
    1  A    between atoms: C_3  and  N_13
    2  A    between atoms: C_3  and  C_17
    3  A    between atoms: C_12  and  C_28
    4  A    between atoms: C_17  and  N_29
                            x       y       z     vdW  Elec       q    Type
                         _______ _______ _______ _____ _____    ______ ____

>  <TORSDO>
F 4

$$$$
