=
 OpenBabel11052420233D

 34 37  0  0  1  0  0  0  0  0999 V2000
  189.7700  175.6480  143.8950 C   0  0  2  0  0  3  0  0  0  0  0  0
  190.0410  174.8880  145.1910 C   0  0  0  0  0  2  0  0  0  0  0  0
  189.8880  173.4430  144.9920 C   0  0  0  0  0  0  0  0  0  0  0  0
  189.7640  172.2560  144.8290 C   0  0  0  0  0  3  0  0  0  0  0  0
  190.8420  176.7150  143.6990 C   0  0  0  0  0  2  0  0  0  0  0  0
  191.8840  176.6130  144.7980 C   0  0  0  0  0  2  0  0  0  0  0  0
  193.2370  176.2450  144.2120 C   0  0  0  0  0  2  0  0  0  0  0  0
  193.0620  173.3610  143.3310 C   0  0  0  0  0  2  0  0  0  0  0  0
  196.1720  174.9160  144.4620 C   0  0  2  0  0  0  0  0  0  0  0  0
  195.1730  175.6460  145.3500 C   0  0  0  0  0  2  0  0  0  0  0  0
  193.8520  175.1760  144.9920 N   0  0  0  0  0  0  0  0  0  0  0  0
  195.4830  173.9700  143.6820 O   0  0  0  0  0  0  0  0  0  0  0  0
  194.1550  174.0640  144.1080 C   0  0  0  0  0  0  0  0  0  0  0  0
  197.1040  174.2560  145.2650 O   0  0  0  0  0  1  0  0  0  0  0  0
  193.6090  172.7500  144.6160 C   0  0  0  0  0  2  0  0  0  0  0  0
  196.8750  175.9040  143.5800 C   0  0  0  0  0  0  0  0  0  0  0  0
  196.5590  177.1240  143.6110 O   0  0  0  0  0  1  0  0  0  0  0  0
  197.9220  175.4900  142.7660 O   0  0  0  0  0  0  0  0  0  0  0  0
  188.3800  176.2900  143.9280 C   0  0  1  0  0  3  0  0  0  0  0  0
  187.9710  176.5960  141.5810 O   0  0  0  0  0  0  0  0  0  0  0  0
  186.6940  176.8940  142.0900 C   0  0  1  0  0  3  0  0  0  0  0  0
  187.5690  175.8490  142.7060 C   0  0  2  0  0  3  0  0  0  0  0  0
  185.6540  180.0960  143.8840 N   0  0  0  0  0  1  0  0  0  0  0  0
  185.5510  178.8640  143.1800 C   0  0  0  0  0  0  0  0  0  0  0  0
  184.4150  178.3930  142.9070 O   0  0  0  0  0  0  0  0  0  0  0  0
  186.7360  178.1720  142.7910 N   0  0  0  0  0  2  0  0  0  0  0  0
  187.6830  175.8880  145.1030 O   0  0  0  0  0  0  0  0  0  0  0  0
  185.5530  176.6920  145.8150 C   0  0  0  0  0  3  0  0  0  0  0  0
  185.2930  178.3630  147.5420 C   0  0  0  0  0  3  0  0  0  0  0  0
  184.7300  177.4990  146.6030 C   0  0  0  0  0  3  0  0  0  0  0  0
  187.5160  177.6150  146.9080 C   0  0  0  0  0  0  0  0  0  0  0  0
  186.9460  176.7330  145.9500 C   0  0  0  0  0  0  0  0  0  0  0  0
  186.6800  178.4190  147.6910 C   0  0  0  0  0  3  0  0  0  0  0  0
  188.9820  177.7480  147.1360 C   0  0  0  0  0  1  0  0  0  0  0  0
  1  5  1  1  0  0  0
  1 19  1  0  0  0  0
  1  2  1  0  0  0  0
  3  2  1  0  0  0  0
  4  3  3  0  0  0  0
  5  6  1  0  0  0  0
  7  6  1  0  0  0  0
  7 11  1  0  0  0  0
  8 13  1  0  0  0  0
  8 15  1  0  0  0  0
  9 14  1  1  0  0  0
  9 10  1  0  0  0  0
 11 10  1  0  0  0  0
 12 13  1  0  0  0  0
 12  9  1  0  0  0  0
 13 15  1  0  0  0  0
 13 11  1  0  0  0  0
 16 17  1  0  0  0  0
 16  9  1  0  0  0  0
 18 16  2  0  0  0  0
 19 27  1  1  0  0  0
 20 21  1  0  0  0  0
 20 22  1  0  0  0  0
 21 22  1  0  0  0  0
 21 26  1  1  0  0  0
 22 19  1  1  0  0  0
 24 23  1  0  0  0  0
 25 24  2  0  0  0  0
 26 24  1  0  0  0  0
 27 32  1  0  0  0  0
 28 32  2  0  0  0  0
 28 30  1  0  0  0  0
 29 33  1  0  0  0  0
 30 29  2  0  0  0  0
 31 34  1  0  0  0  0
 31 33  2  0  0  0  0
 32 31  1  0  0  0  0
M  END
>  <MODEL>
1

>  <REMARK>
 VINA RESULT:      -6.7      0.000      0.000
  Name = 
  12 active torsions:
  status: ('A' for Active; 'I' for Inactive)
    1  A    between atoms: O_1  and  C_20
    2  A    between atoms: O_1  and  C_34
    3  A    between atoms: C_4  and  N_16
    4  A    between atoms: C_4  and  C_31
    5  A    between atoms: C_5  and  C_18
    6  A    between atoms: C_5  and  C_33
    7  A    between atoms: C_5  and  C_34
    8  A    between atoms: C_7  and  C_11
    9  A    between atoms: C_8  and  C_18
   10  A    between atoms: C_23  and  N_27
   11  A    between atoms: C_31  and  C_33
   12  A    between atoms: C_32  and  C_34
                            x       y       z     vdW  Elec       q    Type
                         _______ _______ _______ _____ _____    ______ ____

>  <TORSDO>
F 12

$$$$
=
 OpenBabel11052420233D

 34 37  0  0  1  0  0  0  0  0999 V2000
  188.4850  176.9880  142.2620 C   0  0  2  0  0  3  0  0  0  0  0  0
  187.9500  178.2470  141.5860 C   0  0  0  0  0  2  0  0  0  0  0  0
  186.5520  178.0710  141.1830 C   0  0  0  0  0  0  0  0  0  0  0  0
  185.4020  177.9250  140.8510 C   0  0  0  0  0  3  0  0  0  0  0  0
  187.5230  175.8310  142.0170 C   0  0  0  0  0  2  0  0  0  0  0  0
  188.2470  174.6880  141.3320 C   0  0  0  0  0  2  0  0  0  0  0  0
  188.6120  173.6110  142.3400 C   0  0  0  0  0  2  0  0  0  0  0  0
  189.8070  172.1150  144.6760 C   0  0  0  0  0  2  0  0  0  0  0  0
  191.1800  171.9520  141.2920 C   0  0  2  0  0  0  0  0  0  0  0  0
  190.6830  173.3920  141.3060 C   0  0  0  0  0  2  0  0  0  0  0  0
  190.0500  173.6180  142.5890 N   0  0  0  0  0  0  0  0  0  0  0  0
  190.9500  171.3770  142.5540 O   0  0  0  0  0  0  0  0  0  0  0  0
  190.4070  172.4130  143.3190 C   0  0  0  0  0  0  0  0  0  0  0  0
  192.5510  171.9430  141.0270 O   0  0  0  0  0  1  0  0  0  0  0  0
  191.2090  172.7050  144.5660 C   0  0  0  0  0  2  0  0  0  0  0  0
  190.4550  171.1820  140.2300 C   0  0  0  0  0  0  0  0  0  0  0  0
  190.6620  169.9470  140.0830 O   0  0  0  0  0  1  0  0  0  0  0  0
  189.5050  171.8140  139.4370 O   0  0  0  0  0  0  0  0  0  0  0  0
  188.6680  177.2190  143.7650 C   0  0  1  0  0  3  0  0  0  0  0  0
  190.9740  176.5510  143.7100 O   0  0  0  0  0  0  0  0  0  0  0  0
  190.8220  176.7810  145.0890 C   0  0  1  0  0  3  0  0  0  0  0  0
  190.1170  177.6120  144.0650 C   0  0  2  0  0  3  0  0  0  0  0  0
  189.0940  174.4620  147.5780 N   0  0  0  0  0  1  0  0  0  0  0  0
  189.9510  175.4770  147.0690 C   0  0  0  0  0  0  0  0  0  0  0  0
  190.6770  176.1360  147.8600 O   0  0  0  0  0  0  0  0  0  0  0  0
  189.9810  175.7380  145.6670 N   0  0  0  0  0  2  0  0  0  0  0  0
  187.8140  178.2710  144.2060 O   0  0  0  0  0  0  0  0  0  0  0  0
  186.6200  177.0060  145.8380 C   0  0  0  0  0  3  0  0  0  0  0  0
  184.4140  177.6160  146.6130 C   0  0  0  0  0  3  0  0  0  0  0  0
  185.5110  176.7560  146.6490 C   0  0  0  0  0  3  0  0  0  0  0  0
  185.5340  178.9890  144.9510 C   0  0  0  0  0  0  0  0  0  0  0  0
  186.6540  178.1150  144.9840 C   0  0  0  0  0  0  0  0  0  0  0  0
  184.4280  178.7260  145.7680 C   0  0  0  0  0  3  0  0  0  0  0  0
  185.4550  180.1940  144.0800 C   0  0  0  0  0  1  0  0  0  0  0  0
  1  2  1  6  0  0  0
  1 19  1  0  0  0  0
  3  2  1  0  0  0  0
  4  3  3  0  0  0  0
  5  1  1  0  0  0  0
  6  5  1  0  0  0  0
  6  7  1  0  0  0  0
  7 11  1  0  0  0  0
  9 14  1  6  0  0  0
  9 10  1  0  0  0  0
  9 12  1  0  0  0  0
 10 11  1  0  0  0  0
 11 13  1  0  0  0  0
 12 13  1  0  0  0  0
 13 15  1  0  0  0  0
 13  8  1  0  0  0  0
 15  8  1  0  0  0  0
 16  9  1  0  0  0  0
 17 16  1  0  0  0  0
 18 16  2  0  0  0  0
 19 27  1  6  0  0  0
 20 22  1  0  0  0  0
 20 21  1  0  0  0  0
 21 26  1  1  0  0  0
 22 19  1  1  0  0  0
 22 21  1  0  0  0  0
 24 23  1  0  0  0  0
 24 25  2  0  0  0  0
 26 24  1  0  0  0  0
 27 32  1  0  0  0  0
 28 30  1  0  0  0  0
 29 30  2  0  0  0  0
 31 32  1  0  0  0  0
 31 33  2  0  0  0  0
 32 28  2  0  0  0  0
 33 29  1  0  0  0  0
 34 31  1  0  0  0  0
M  END
>  <MODEL>
2

>  <REMARK>
 VINA RESULT:      -6.7      3.446      5.477
  Name = 
  12 active torsions:
  status: ('A' for Active; 'I' for Inactive)
    1  A    between atoms: O_1  and  C_20
    2  A    between atoms: O_1  and  C_34
    3  A    between atoms: C_4  and  N_16
    4  A    between atoms: C_4  and  C_31
    5  A    between atoms: C_5  and  C_18
    6  A    between atoms: C_5  and  C_33
    7  A    between atoms: C_5  and  C_34
    8  A    between atoms: C_7  and  C_11
    9  A    between atoms: C_8  and  C_18
   10  A    between atoms: C_23  and  N_27
   11  A    between atoms: C_31  and  C_33
   12  A    between atoms: C_32  and  C_34
                            x       y       z     vdW  Elec       q    Type
                         _______ _______ _______ _____ _____    ______ ____

>  <TORSDO>
F 12

$$$$
=
 OpenBabel11052420233D

 34 37  0  0  1  0  0  0  0  0999 V2000
  188.3680  176.8460  142.2870 C   0  0  2  0  0  3  0  0  0  0  0  0
  187.8990  178.1290  141.6070 C   0  0  0  0  0  2  0  0  0  0  0  0
  186.4890  178.0320  141.2210 C   0  0  0  0  0  0  0  0  0  0  0  0
  185.3280  177.9540  140.9040 C   0  0  0  0  0  3  0  0  0  0  0  0
  187.3220  175.7540  142.0880 C   0  0  0  0  0  2  0  0  0  0  0  0
  187.9820  174.3880  142.1310 C   0  0  0  0  0  2  0  0  0  0  0  0
  189.2240  174.3720  141.2560 C   0  0  0  0  0  2  0  0  0  0  0  0
  191.7470  173.7290  139.7240 C   0  0  0  0  0  2  0  0  0  0  0  0
  190.5930  171.7610  142.5800 C   0  0  2  0  0  0  0  0  0  0  0  0
  189.2530  172.1630  141.9780 C   0  0  0  0  0  2  0  0  0  0  0  0
  189.5280  173.0080  140.8350 N   0  0  0  0  0  0  0  0  0  0  0  0
  191.6270  172.2570  141.7670 O   0  0  0  0  0  0  0  0  0  0  0  0
  190.9680  172.8690  140.6970 C   0  0  0  0  0  0  0  0  0  0  0  0
  190.6760  170.3680  142.6270 O   0  0  0  0  0  1  0  0  0  0  0  0
  191.3710  172.2980  139.3570 C   0  0  0  0  0  2  0  0  0  0  0  0
  190.7070  172.3200  143.9670 C   0  0  0  0  0  0  0  0  0  0  0  0
  191.7110  173.0080  144.2970 O   0  0  0  0  0  0  0  0  0  0  0  0
  189.6760  172.1350  144.8800 O   0  0  0  0  0  1  0  0  0  0  0  0
  188.6110  177.0850  143.7800 C   0  0  1  0  0  3  0  0  0  0  0  0
  190.8810  176.3100  143.6660 O   0  0  0  0  0  0  0  0  0  0  0  0
  190.7840  176.5720  145.0450 C   0  0  1  0  0  3  0  0  0  0  0  0
  190.0860  177.4160  144.0260 C   0  0  2  0  0  3  0  0  0  0  0  0
  189.0040  174.4090  147.6340 N   0  0  0  0  0  1  0  0  0  0  0  0
  189.8890  175.3750  147.0800 C   0  0  0  0  0  0  0  0  0  0  0  0
  190.6410  176.0410  147.8390 O   0  0  0  0  0  0  0  0  0  0  0  0
  189.9160  175.5790  145.6680 N   0  0  0  0  0  2  0  0  0  0  0  0
  187.8200  178.1780  144.2350 O   0  0  0  0  0  0  0  0  0  0  0  0
  186.5790  176.9880  145.8890 C   0  0  0  0  0  3  0  0  0  0  0  0
  184.3960  177.6940  146.6490 C   0  0  0  0  0  3  0  0  0  0  0  0
  185.4600  176.7940  146.7010 C   0  0  0  0  0  3  0  0  0  0  0  0
  185.5680  178.9940  144.9650 C   0  0  0  0  0  0  0  0  0  0  0  0
  186.6550  178.0800  145.0150 C   0  0  0  0  0  0  0  0  0  0  0  0
  184.4520  178.7880  145.7840 C   0  0  0  0  0  3  0  0  0  0  0  0
  185.5340  180.1860  144.0720 C   0  0  0  0  0  1  0  0  0  0  0  0
  1  2  1  1  0  0  0
  1 19  1  0  0  0  0
  3  2  1  0  0  0  0
  4  3  3  0  0  0  0
  5  6  1  0  0  0  0
  5  1  1  0  0  0  0
  7  6  1  0  0  0  0
  8 13  1  0  0  0  0
  9 14  1  1  0  0  0
  9 16  1  0  0  0  0
 10  9  1  0  0  0  0
 11  7  1  0  0  0  0
 11 10  1  0  0  0  0
 12  9  1  0  0  0  0
 13 11  1  0  0  0  0
 13 12  1  0  0  0  0
 15  8  1  0  0  0  0
 15 13  1  0  0  0  0
 16 17  2  0  0  0  0
 16 18  1  0  0  0  0
 19 27  1  6  0  0  0
 20 22  1  0  0  0  0
 20 21  1  0  0  0  0
 21 26  1  1  0  0  0
 22 19  1  1  0  0  0
 22 21  1  0  0  0  0
 24 23  1  0  0  0  0
 24 25  2  0  0  0  0
 26 24  1  0  0  0  0
 27 32  1  0  0  0  0
 28 30  1  0  0  0  0
 29 30  2  0  0  0  0
 31 32  1  0  0  0  0
 31 33  2  0  0  0  0
 32 28  2  0  0  0  0
 33 29  1  0  0  0  0
 34 31  1  0  0  0  0
M  END
>  <MODEL>
3

>  <REMARK>
 VINA RESULT:      -6.7      3.452      5.426
  Name = 
  12 active torsions:
  status: ('A' for Active; 'I' for Inactive)
    1  A    between atoms: O_1  and  C_20
    2  A    between atoms: O_1  and  C_34
    3  A    between atoms: C_4  and  N_16
    4  A    between atoms: C_4  and  C_31
    5  A    between atoms: C_5  and  C_18
    6  A    between atoms: C_5  and  C_33
    7  A    between atoms: C_5  and  C_34
    8  A    between atoms: C_7  and  C_11
    9  A    between atoms: C_8  and  C_18
   10  A    between atoms: C_23  and  N_27
   11  A    between atoms: C_31  and  C_33
   12  A    between atoms: C_32  and  C_34
                            x       y       z     vdW  Elec       q    Type
                         _______ _______ _______ _____ _____    ______ ____

>  <TORSDO>
F 12

$$$$
=
 OpenBabel11052420233D

 34 37  0  0  1  0  0  0  0  0999 V2000
  189.6370  176.9630  144.7880 C   0  0  2  0  0  3  0  0  0  0  0  0
  189.4490  177.2900  146.2670 C   0  0  0  0  0  2  0  0  0  0  0  0
  190.3210  176.4590  147.1020 C   0  0  0  0  0  0  0  0  0  0  0  0
  191.0390  175.7760  147.7880 C   0  0  0  0  0  3  0  0  0  0  0  0
  190.3020  178.1420  144.0870 C   0  0  0  0  0  2  0  0  0  0  0  0
  191.7940  177.8950  143.9550 C   0  0  0  0  0  2  0  0  0  0  0  0
  192.0690  176.4130  143.7610 C   0  0  0  0  0  2  0  0  0  0  0  0
  192.3030  173.4990  144.5220 C   0  0  0  0  0  2  0  0  0  0  0  0
  195.1870  175.5700  143.6510 C   0  0  2  0  0  0  0  0  0  0  0  0
  194.3120  176.6100  144.3370 C   0  0  0  0  0  2  0  0  0  0  0  0
  193.0770  175.9570  144.7130 N   0  0  0  0  0  0  0  0  0  0  0  0
  194.5440  174.3210  143.7110 O   0  0  0  0  0  0  0  0  0  0  0  0
  193.3790  174.5610  144.4450 C   0  0  0  0  0  0  0  0  0  0  0  0
  196.4110  175.4870  144.3170 O   0  0  0  0  0  1  0  0  0  0  0  0
  193.2750  173.6960  145.6800 C   0  0  0  0  0  2  0  0  0  0  0  0
  195.4150  175.9690  142.2230 C   0  0  0  0  0  0  0  0  0  0  0  0
  194.6540  175.5440  141.3120 O   0  0  0  0  0  0  0  0  0  0  0  0
  196.4320  176.8600  141.9030 O   0  0  0  0  0  1  0  0  0  0  0  0
  188.2890  176.6460  144.1320 C   0  0  1  0  0  3  0  0  0  0  0  0
  189.0010  175.7460  142.0210 O   0  0  0  0  0  0  0  0  0  0  0  0
  187.6340  175.4150  141.9770 C   0  0  1  0  0  3  0  0  0  0  0  0
  188.4130  175.3970  143.2530 C   0  0  2  0  0  3  0  0  0  0  0  0
  185.7460  178.3250  140.3900 N   0  0  0  0  0  1  0  0  0  0  0  0
  186.5410  177.1510  140.5050 C   0  0  0  0  0  0  0  0  0  0  0  0
  186.9700  176.5820  139.4660 O   0  0  0  0  0  0  0  0  0  0  0  0
  186.8450  176.6280  141.7970 N   0  0  0  0  0  2  0  0  0  0  0  0
  187.3040  176.4010  145.1300 O   0  0  0  0  0  0  0  0  0  0  0  0
  185.5740  177.8020  144.2740 C   0  0  0  0  0  3  0  0  0  0  0  0
  183.9190  178.8540  145.6860 C   0  0  0  0  0  3  0  0  0  0  0  0
  184.4540  178.6220  144.4190 C   0  0  0  0  0  3  0  0  0  0  0  0
  185.6290  177.4390  146.6750 C   0  0  0  0  0  0  0  0  0  0  0  0
  186.1770  177.2010  145.3850 C   0  0  0  0  0  0  0  0  0  0  0  0
  184.5060  178.2640  146.8070 C   0  0  0  0  0  3  0  0  0  0  0  0
  186.1880  176.8590  147.9270 C   0  0  0  0  0  1  0  0  0  0  0  0
  1  5  1  6  0  0  0
  1  2  1  0  0  0  0
  2  3  1  0  0  0  0
  3  4  3  0  0  0  0
  6  5  1  0  0  0  0
  7  6  1  0  0  0  0
  7 11  1  0  0  0  0
  8 15  1  0  0  0  0
  9 12  1  0  0  0  0
  9 14  1  1  0  0  0
  9 10  1  0  0  0  0
 10 11  1  0  0  0  0
 12 13  1  0  0  0  0
 13  8  1  0  0  0  0
 13 11  1  0  0  0  0
 13 15  1  0  0  0  0
 16  9  1  0  0  0  0
 17 16  2  0  0  0  0
 18 16  1  0  0  0  0
 19  1  1  0  0  0  0
 19 27  1  1  0  0  0
 20 22  1  0  0  0  0
 21 26  1  1  0  0  0
 21 20  1  0  0  0  0
 21 22  1  0  0  0  0
 22 19  1  1  0  0  0
 23 24  1  0  0  0  0
 24 26  1  0  0  0  0
 25 24  2  0  0  0  0
 27 32  1  0  0  0  0
 28 30  2  0  0  0  0
 28 32  1  0  0  0  0
 29 33  2  0  0  0  0
 30 29  1  0  0  0  0
 31 33  1  0  0  0  0
 31 34  1  0  0  0  0
 32 31  2  0  0  0  0
M  END
>  <MODEL>
4

>  <REMARK>
 VINA RESULT:      -6.6      1.767      2.308
  Name = 
  12 active torsions:
  status: ('A' for Active; 'I' for Inactive)
    1  A    between atoms: O_1  and  C_20
    2  A    between atoms: O_1  and  C_34
    3  A    between atoms: C_4  and  N_16
    4  A    between atoms: C_4  and  C_31
    5  A    between atoms: C_5  and  C_18
    6  A    between atoms: C_5  and  C_33
    7  A    between atoms: C_5  and  C_34
    8  A    between atoms: C_7  and  C_11
    9  A    between atoms: C_8  and  C_18
   10  A    between atoms: C_23  and  N_27
   11  A    between atoms: C_31  and  C_33
   12  A    between atoms: C_32  and  C_34
                            x       y       z     vdW  Elec       q    Type
                         _______ _______ _______ _____ _____    ______ ____

>  <TORSDO>
F 12

$$$$
=
 OpenBabel11052420233D

 34 37  0  0  1  0  0  0  0  0999 V2000
  189.3900  175.5240  143.8400 C   0  0  2  0  0  3  0  0  0  0  0  0
  189.6560  174.7660  145.1380 C   0  0  0  0  0  2  0  0  0  0  0  0
  189.9110  173.3470  144.8730 C   0  0  0  0  0  0  0  0  0  0  0  0
  190.1200  172.1790  144.6560 C   0  0  0  0  0  3  0  0  0  0  0  0
  190.5200  176.5160  143.5910 C   0  0  0  0  0  2  0  0  0  0  0  0
  191.5160  175.9340  142.6050 C   0  0  0  0  0  2  0  0  0  0  0  0
  192.9080  176.4840  142.8700 C   0  0  0  0  0  2  0  0  0  0  0  0
  195.7090  176.3360  141.7500 C   0  0  0  0  0  2  0  0  0  0  0  0
  194.9530  175.8710  145.2960 C   0  0  2  0  0  0  0  0  0  0  0  0
  193.7040  175.2580  144.6770 C   0  0  0  0  0  2  0  0  0  0  0  0
  193.8160  175.4040  143.2410 N   0  0  0  0  0  0  0  0  0  0  0  0
  195.8240  176.2690  144.2670 O   0  0  0  0  0  0  0  0  0  0  0  0
  195.1850  175.8680  143.0900 C   0  0  0  0  0  0  0  0  0  0  0  0
  195.5880  174.9150  146.0900 O   0  0  0  0  0  1  0  0  0  0  0  0
  196.0280  174.9330  142.2550 C   0  0  0  0  0  2  0  0  0  0  0  0
  194.5680  177.0510  146.1370 C   0  0  0  0  0  0  0  0  0  0  0  0
  194.9140  178.2150  145.8010 O   0  0  0  0  0  0  0  0  0  0  0  0
  193.7730  176.8730  147.2640 O   0  0  0  0  0  1  0  0  0  0  0  0
  188.0460  176.2540  143.9090 C   0  0  1  0  0  3  0  0  0  0  0  0
  187.5800  176.5700  141.5750 O   0  0  0  0  0  0  0  0  0  0  0  0
  186.3400  176.9490  142.1220 C   0  0  1  0  0  3  0  0  0  0  0  0
  187.1690  175.8560  142.7180 C   0  0  2  0  0  3  0  0  0  0  0  0
  185.5560  180.2130  143.9320 N   0  0  0  0  0  1  0  0  0  0  0  0
  185.3550  178.9850  143.2430 C   0  0  0  0  0  0  0  0  0  0  0  0
  184.1840  178.5790  143.0180 O   0  0  0  0  0  0  0  0  0  0  0  0
  186.4830  178.2260  142.8110 N   0  0  0  0  0  2  0  0  0  0  0  0
  187.3620  175.9080  145.1090 O   0  0  0  0  0  0  0  0  0  0  0  0
  185.3200  176.8150  145.9440 C   0  0  0  0  0  3  0  0  0  0  0  0
  185.2470  178.5500  147.6250 C   0  0  0  0  0  3  0  0  0  0  0  0
  184.5860  177.6770  146.7610 C   0  0  0  0  0  3  0  0  0  0  0  0
  187.3890  177.6980  146.8600 C   0  0  0  0  0  0  0  0  0  0  0  0
  186.7200  176.8070  145.9770 C   0  0  0  0  0  0  0  0  0  0  0  0
  186.6420  178.5580  147.6730 C   0  0  0  0  0  3  0  0  0  0  0  0
  188.8710  177.7830  146.9770 C   0  0  0  0  0  1  0  0  0  0  0  0
  1  5  1  1  0  0  0
  1 19  1  0  0  0  0
  1  2  1  0  0  0  0
  3  2  1  0  0  0  0
  4  3  3  0  0  0  0
  6  7  1  0  0  0  0
  6  5  1  0  0  0  0
  7 11  1  0  0  0  0
  8 15  1  0  0  0  0
  8 13  1  0  0  0  0
  9 14  1  1  0  0  0
  9 16  1  0  0  0  0
 10  9  1  0  0  0  0
 11 10  1  0  0  0  0
 12  9  1  0  0  0  0
 13 11  1  0  0  0  0
 13 12  1  0  0  0  0
 15 13  1  0  0  0  0
 16 18  1  0  0  0  0
 17 16  2  0  0  0  0
 19 27  1  1  0  0  0
 20 21  1  0  0  0  0
 20 22  1  0  0  0  0
 21 22  1  0  0  0  0
 21 26  1  1  0  0  0
 22 19  1  1  0  0  0
 24 23  1  0  0  0  0
 25 24  2  0  0  0  0
 26 24  1  0  0  0  0
 27 32  1  0  0  0  0
 28 32  2  0  0  0  0
 28 30  1  0  0  0  0
 29 33  1  0  0  0  0
 30 29  2  0  0  0  0
 31 34  1  0  0  0  0
 31 33  2  0  0  0  0
 32 31  1  0  0  0  0
M  END
>  <MODEL>
5

>  <REMARK>
 VINA RESULT:      -6.5      1.330      1.944
  Name = 
  12 active torsions:
  status: ('A' for Active; 'I' for Inactive)
    1  A    between atoms: O_1  and  C_20
    2  A    between atoms: O_1  and  C_34
    3  A    between atoms: C_4  and  N_16
    4  A    between atoms: C_4  and  C_31
    5  A    between atoms: C_5  and  C_18
    6  A    between atoms: C_5  and  C_33
    7  A    between atoms: C_5  and  C_34
    8  A    between atoms: C_7  and  C_11
    9  A    between atoms: C_8  and  C_18
   10  A    between atoms: C_23  and  N_27
   11  A    between atoms: C_31  and  C_33
   12  A    between atoms: C_32  and  C_34
                            x       y       z     vdW  Elec       q    Type
                         _______ _______ _______ _____ _____    ______ ____

>  <TORSDO>
F 12

$$$$
=
 OpenBabel11052420233D

 34 37  0  0  1  0  0  0  0  0999 V2000
  190.2750  175.6780  146.3700 C   0  0  2  0  0  3  0  0  0  0  0  0
  190.9590  175.4320  147.7120 C   0  0  0  0  0  2  0  0  0  0  0  0
  191.2780  176.6990  148.3770 C   0  0  0  0  0  0  0  0  0  0  0  0
  191.5430  177.7400  148.9240 C   0  0  0  0  0  3  0  0  0  0  0  0
  188.8210  175.2250  146.4500 C   0  0  0  0  0  2  0  0  0  0  0  0
  187.9160  176.4200  146.6830 C   0  0  0  0  0  2  0  0  0  0  0  0
  187.5070  177.0420  145.3580 C   0  0  0  0  0  2  0  0  0  0  0  0
  185.6970  179.1680  146.5100 C   0  0  0  0  0  2  0  0  0  0  0  0
  185.3640  177.9010  143.0970 C   0  0  2  0  0  0  0  0  0  0  0  0
  185.8270  176.6340  143.8050 C   0  0  0  0  0  2  0  0  0  0  0  0
  186.0590  176.9750  145.1930 N   0  0  0  0  0  0  0  0  0  0  0  0
  185.2220  178.9280  144.0460 O   0  0  0  0  0  0  0  0  0  0  0  0
  185.5140  178.3190  145.2700 C   0  0  0  0  0  0  0  0  0  0  0  0
  184.1290  177.6630  142.4910 O   0  0  0  0  0  1  0  0  0  0  0  0
  184.3830  178.4330  146.2650 C   0  0  0  0  0  2  0  0  0  0  0  0
  186.3710  178.2890  142.0560 C   0  0  0  0  0  0  0  0  0  0  0  0
  186.0380  178.3650  140.8420 O   0  0  0  0  0  0  0  0  0  0  0  0
  187.6660  178.6270  142.4310 O   0  0  0  0  0  1  0  0  0  0  0  0
  191.0050  174.9320  145.2490 C   0  0  1  0  0  3  0  0  0  0  0  0
  190.3490  176.6540  143.7100 O   0  0  0  0  0  0  0  0  0  0  0  0
  190.8750  175.7120  142.8080 C   0  0  1  0  0  3  0  0  0  0  0  0
  191.4590  175.9180  144.1690 C   0  0  2  0  0  3  0  0  0  0  0  0
  187.9780  173.4140  141.8720 N   0  0  0  0  0  1  0  0  0  0  0  0
  188.7990  174.5730  141.9300 C   0  0  0  0  0  0  0  0  0  0  0  0
  188.4780  175.6000  141.2750 O   0  0  0  0  0  0  0  0  0  0  0  0
  189.9810  174.5620  142.7290 N   0  0  0  0  0  2  0  0  0  0  0  0
  192.1530  174.2690  145.7690 O   0  0  0  0  0  0  0  0  0  0  0  0
  193.6180  173.2130  144.2110 C   0  0  0  0  0  3  0  0  0  0  0  0
  195.8910  173.9470  143.8440 C   0  0  0  0  0  3  0  0  0  0  0  0
  194.8420  173.0750  143.5540 C   0  0  0  0  0  3  0  0  0  0  0  0
  194.4900  175.1090  145.4530 C   0  0  0  0  0  0  0  0  0  0  0  0
  193.4190  174.2220  145.1620 C   0  0  0  0  0  0  0  0  0  0  0  0
  195.7130  174.9590  144.7890 C   0  0  0  0  0  3  0  0  0  0  0  0
  194.3980  176.2140  146.4480 C   0  0  0  0  0  1  0  0  0  0  0  0
  1  5  1  1  0  0  0
  1  2  1  0  0  0  0
  2  3  1  0  0  0  0
  3  4  3  0  0  0  0
  5  6  1  0  0  0  0
  7  6  1  0  0  0  0
  9 14  1  6  0  0  0
  9 10  1  0  0  0  0
  9 12  1  0  0  0  0
 10 11  1  0  0  0  0
 11 13  1  0  0  0  0
 11  7  1  0  0  0  0
 12 13  1  0  0  0  0
 13 15  1  0  0  0  0
 13  8  1  0  0  0  0
 15  8  1  0  0  0  0
 16 18  1  0  0  0  0
 16  9  1  0  0  0  0
 17 16  2  0  0  0  0
 19 27  1  1  0  0  0
 19  1  1  0  0  0  0
 20 22  1  0  0  0  0
 21 26  1  1  0  0  0
 21 20  1  0  0  0  0
 21 22  1  0  0  0  0
 22 19  1  1  0  0  0
 23 24  1  0  0  0  0
 24 26  1  0  0  0  0
 25 24  2  0  0  0  0
 28 32  1  0  0  0  0
 29 33  2  0  0  0  0
 30 29  1  0  0  0  0
 30 28  2  0  0  0  0
 31 34  1  0  0  0  0
 32 31  2  0  0  0  0
 32 27  1  0  0  0  0
 33 31  1  0  0  0  0
M  END
>  <MODEL>
6

>  <REMARK>
 VINA RESULT:      -6.5      2.549      8.105
  Name = 
  12 active torsions:
  status: ('A' for Active; 'I' for Inactive)
    1  A    between atoms: O_1  and  C_20
    2  A    between atoms: O_1  and  C_34
    3  A    between atoms: C_4  and  N_16
    4  A    between atoms: C_4  and  C_31
    5  A    between atoms: C_5  and  C_18
    6  A    between atoms: C_5  and  C_33
    7  A    between atoms: C_5  and  C_34
    8  A    between atoms: C_7  and  C_11
    9  A    between atoms: C_8  and  C_18
   10  A    between atoms: C_23  and  N_27
   11  A    between atoms: C_31  and  C_33
   12  A    between atoms: C_32  and  C_34
                            x       y       z     vdW  Elec       q    Type
                         _______ _______ _______ _____ _____    ______ ____

>  <TORSDO>
F 12

$$$$
=
 OpenBabel11052420233D

 34 37  0  0  1  0  0  0  0  0999 V2000
  191.7790  176.6750  145.9450 C   0  0  2  0  0  3  0  0  0  0  0  0
  191.2820  176.0660  147.2530 C   0  0  0  0  0  2  0  0  0  0  0  0
  191.4390  177.0100  148.3630 C   0  0  0  0  0  0  0  0  0  0  0  0
  191.5680  177.7870  149.2760 C   0  0  0  0  0  3  0  0  0  0  0  0
  190.5860  177.1240  145.1080 C   0  0  0  0  0  2  0  0  0  0  0  0
  189.3000  176.9230  145.8860 C   0  0  0  0  0  2  0  0  0  0  0  0
  188.2360  176.2960  145.0000 C   0  0  0  0  0  2  0  0  0  0  0  0
  187.0830  175.3100  142.3880 C   0  0  0  0  0  2  0  0  0  0  0  0
  185.6310  178.0730  144.2920 C   0  0  2  0  0  0  0  0  0  0  0  0
  187.1080  178.2880  144.5980 C   0  0  0  0  0  2  0  0  0  0  0  0
  187.8440  177.2260  143.9460 N   0  0  0  0  0  0  0  0  0  0  0  0
  185.5020  176.9900  143.4050 O   0  0  0  0  0  0  0  0  0  0  0  0
  186.8170  176.6030  143.1290 C   0  0  0  0  0  0  0  0  0  0  0  0
  185.1150  179.2220  143.6910 O   0  0  0  0  0  1  0  0  0  0  0  0
  187.1420  176.6450  141.6540 C   0  0  0  0  0  2  0  0  0  0  0  0
  184.8910  177.7930  145.5660 C   0  0  0  0  0  0  0  0  0  0  0  0
  184.0640  178.6300  146.0210 O   0  0  0  0  0  0  0  0  0  0  0  0
  185.0670  176.5810  146.2220 O   0  0  0  0  0  1  0  0  0  0  0  0
  192.6240  175.6620  145.1670 C   0  0  1  0  0  3  0  0  0  0  0  0
  194.7340  176.5260  145.9210 O   0  0  0  0  0  0  0  0  0  0  0  0
  195.1820  175.4630  145.1170 C   0  0  1  0  0  3  0  0  0  0  0  0
  193.9250  175.3730  145.9220 C   0  0  2  0  0  3  0  0  0  0  0  0
  195.6580  176.7030  141.5410 N   0  0  0  0  0  1  0  0  0  0  0  0
  195.9320  176.4380  142.9120 C   0  0  0  0  0  0  0  0  0  0  0  0
  197.0370  176.7830  143.4070 O   0  0  0  0  0  0  0  0  0  0  0  0
  194.9500  175.7830  143.7130 N   0  0  0  0  0  2  0  0  0  0  0  0
  191.9080  174.4410  145.0150 O   0  0  0  0  0  0  0  0  0  0  0  0
  191.6890  174.5930  142.6440 C   0  0  0  0  0  3  0  0  0  0  0  0
  190.0910  173.2850  141.3890 C   0  0  0  0  0  3  0  0  0  0  0  0
  191.1100  174.2370  141.4250 C   0  0  0  0  0  3  0  0  0  0  0  0
  190.2270  173.0360  143.8020 C   0  0  0  0  0  0  0  0  0  0  0  0
  191.2650  174.0060  143.8430 C   0  0  0  0  0  0  0  0  0  0  0  0
  189.6540  172.6890  142.5730 C   0  0  0  0  0  3  0  0  0  0  0  0
  189.6910  172.3510  145.0110 C   0  0  0  0  0  1  0  0  0  0  0  0
  1  5  1  6  0  0  0
  1  2  1  0  0  0  0
  2  3  1  0  0  0  0
  3  4  3  0  0  0  0
  5  6  1  0  0  0  0
  7  6  1  0  0  0  0
  8 13  1  0  0  0  0
  9 14  1  6  0  0  0
  9 10  1  0  0  0  0
  9 16  1  0  0  0  0
 11 10  1  0  0  0  0
 11  7  1  0  0  0  0
 12  9  1  0  0  0  0
 13 12  1  0  0  0  0
 13 11  1  0  0  0  0
 15  8  1  0  0  0  0
 15 13  1  0  0  0  0
 16 17  2  0  0  0  0
 16 18  1  0  0  0  0
 19 27  1  1  0  0  0
 19  1  1  0  0  0  0
 20 22  1  0  0  0  0
 21 26  1  6  0  0  0
 21 20  1  0  0  0  0
 21 22  1  0  0  0  0
 22 19  1  6  0  0  0
 23 24  1  0  0  0  0
 24 25  2  0  0  0  0
 24 26  1  0  0  0  0
 28 32  1  0  0  0  0
 29 30  1  0  0  0  0
 29 33  2  0  0  0  0
 30 28  2  0  0  0  0
 31 32  2  0  0  0  0
 31 34  1  0  0  0  0
 32 27  1  0  0  0  0
 33 31  1  0  0  0  0
M  END
>  <MODEL>
7

>  <REMARK>
 VINA RESULT:      -6.5      2.131      8.404
  Name = 
  12 active torsions:
  status: ('A' for Active; 'I' for Inactive)
    1  A    between atoms: O_1  and  C_20
    2  A    between atoms: O_1  and  C_34
    3  A    between atoms: C_4  and  N_16
    4  A    between atoms: C_4  and  C_31
    5  A    between atoms: C_5  and  C_18
    6  A    between atoms: C_5  and  C_33
    7  A    between atoms: C_5  and  C_34
    8  A    between atoms: C_7  and  C_11
    9  A    between atoms: C_8  and  C_18
   10  A    between atoms: C_23  and  N_27
   11  A    between atoms: C_31  and  C_33
   12  A    between atoms: C_32  and  C_34
                            x       y       z     vdW  Elec       q    Type
                         _______ _______ _______ _____ _____    ______ ____

>  <TORSDO>
F 12

$$$$
=
 OpenBabel11052420233D

 34 37  0  0  1  0  0  0  0  0999 V2000
  188.4970  176.9540  142.3820 C   0  0  2  0  0  3  0  0  0  0  0  0
  187.9870  178.2050  141.6720 C   0  0  0  0  0  2  0  0  0  0  0  0
  186.5840  178.0480  141.2780 C   0  0  0  0  0  0  0  0  0  0  0  0
  185.4300  177.9200  140.9530 C   0  0  0  0  0  3  0  0  0  0  0  0
  187.4910  175.8220  142.2030 C   0  0  0  0  0  2  0  0  0  0  0  0
  188.1840  174.4810  142.3630 C   0  0  0  0  0  2  0  0  0  0  0  0
  189.4260  174.4190  141.4890 C   0  0  0  0  0  2  0  0  0  0  0  0
  188.2160  174.1800  138.7320 C   0  0  0  0  0  2  0  0  0  0  0  0
  191.5300  172.8870  139.5740 C   0  0  2  0  0  0  0  0  0  0  0  0
  190.8100  172.6490  140.8950 C   0  0  0  0  0  2  0  0  0  0  0  0
  189.4640  173.1600  140.7520 N   0  0  0  0  0  0  0  0  0  0  0  0
  190.6180  173.4190  138.6460 O   0  0  0  0  0  0  0  0  0  0  0  0
  189.3980  173.4470  139.3290 C   0  0  0  0  0  0  0  0  0  0  0  0
  192.0170  171.6710  139.0910 O   0  0  0  0  0  1  0  0  0  0  0  0
  188.3150  172.6620  138.6260 C   0  0  0  0  0  2  0  0  0  0  0  0
  192.6690  173.8380  139.7880 C   0  0  0  0  0  0  0  0  0  0  0  0
  193.2880  174.3250  138.8040 O   0  0  0  0  0  0  0  0  0  0  0  0
  193.0120  174.2360  141.0750 O   0  0  0  0  0  1  0  0  0  0  0  0
  188.7220  177.2350  143.8710 C   0  0  1  0  0  3  0  0  0  0  0  0
  191.0410  176.6340  143.6990 O   0  0  0  0  0  0  0  0  0  0  0  0
  190.9470  176.8360  145.0880 C   0  0  1  0  0  3  0  0  0  0  0  0
  190.1730  177.6640  144.1120 C   0  0  2  0  0  3  0  0  0  0  0  0
  189.2500  174.5440  147.6210 N   0  0  0  0  0  1  0  0  0  0  0  0
  190.0480  175.5980  147.0960 C   0  0  0  0  0  0  0  0  0  0  0  0
  190.6450  176.3810  147.8830 O   0  0  0  0  0  0  0  0  0  0  0  0
  190.1640  175.7600  145.6840 N   0  0  0  0  0  2  0  0  0  0  0  0
  187.8620  178.2820  144.3080 O   0  0  0  0  0  0  0  0  0  0  0  0
  186.6610  177.0240  145.9410 C   0  0  0  0  0  3  0  0  0  0  0  0
  184.4330  177.6110  146.6690 C   0  0  0  0  0  3  0  0  0  0  0  0
  185.5430  176.7690  146.7360 C   0  0  0  0  0  3  0  0  0  0  0  0
  185.5590  178.9760  145.0040 C   0  0  0  0  0  0  0  0  0  0  0  0
  186.6920  178.1200  145.0690 C   0  0  0  0  0  0  0  0  0  0  0  0
  184.4440  178.7080  145.8060 C   0  0  0  0  0  3  0  0  0  0  0  0
  185.4760  180.1660  144.1130 C   0  0  0  0  0  1  0  0  0  0  0  0
  1  2  1  6  0  0  0
  1 19  1  0  0  0  0
  3  2  1  0  0  0  0
  4  3  3  0  0  0  0
  5  6  1  0  0  0  0
  5  1  1  0  0  0  0
  7  6  1  0  0  0  0
  8 13  1  0  0  0  0
  9 14  1  6  0  0  0
  9 16  1  0  0  0  0
  9 10  1  0  0  0  0
 11 10  1  0  0  0  0
 11  7  1  0  0  0  0
 12 13  1  0  0  0  0
 12  9  1  0  0  0  0
 13 11  1  0  0  0  0
 15  8  1  0  0  0  0
 15 13  1  0  0  0  0
 16 18  1  0  0  0  0
 17 16  2  0  0  0  0
 19 27  1  6  0  0  0
 20 22  1  0  0  0  0
 20 21  1  0  0  0  0
 21 26  1  1  0  0  0
 22 19  1  1  0  0  0
 22 21  1  0  0  0  0
 24 23  1  0  0  0  0
 24 25  2  0  0  0  0
 26 24  1  0  0  0  0
 27 32  1  0  0  0  0
 28 30  1  0  0  0  0
 29 30  2  0  0  0  0
 31 32  1  0  0  0  0
 31 33  2  0  0  0  0
 32 28  2  0  0  0  0
 33 29  1  0  0  0  0
 34 31  1  0  0  0  0
M  END
>  <MODEL>
8

>  <REMARK>
 VINA RESULT:      -6.5      3.500      5.529
  Name = 
  12 active torsions:
  status: ('A' for Active; 'I' for Inactive)
    1  A    between atoms: O_1  and  C_20
    2  A    between atoms: O_1  and  C_34
    3  A    between atoms: C_4  and  N_16
    4  A    between atoms: C_4  and  C_31
    5  A    between atoms: C_5  and  C_18
    6  A    between atoms: C_5  and  C_33
    7  A    between atoms: C_5  and  C_34
    8  A    between atoms: C_7  and  C_11
    9  A    between atoms: C_8  and  C_18
   10  A    between atoms: C_23  and  N_27
   11  A    between atoms: C_31  and  C_33
   12  A    between atoms: C_32  and  C_34
                            x       y       z     vdW  Elec       q    Type
                         _______ _______ _______ _____ _____    ______ ____

>  <TORSDO>
F 12

$$$$
=
 OpenBabel11052420233D

 34 37  0  0  1  0  0  0  0  0999 V2000
  190.5090  174.2290  144.0170 C   0  0  2  0  0  3  0  0  0  0  0  0
  190.1230  173.3590  145.2100 C   0  0  0  0  0  2  0  0  0  0  0  0
  189.6250  174.1790  146.3180 C   0  0  0  0  0  0  0  0  0  0  0  0
  189.2150  174.8540  147.2280 C   0  0  0  0  0  3  0  0  0  0  0  0
  190.0320  173.5670  142.7290 C   0  0  0  0  0  2  0  0  0  0  0  0
  188.6210  174.0200  142.4020 C   0  0  0  0  0  2  0  0  0  0  0  0
  188.5320  175.5370  142.4300 C   0  0  0  0  0  2  0  0  0  0  0  0
  189.2210  177.7490  144.3690 C   0  0  0  0  0  2  0  0  0  0  0  0
  186.0280  177.5730  142.5970 C   0  0  2  0  0  0  0  0  0  0  0  0
  186.3040  176.0880  142.7930 C   0  0  0  0  0  2  0  0  0  0  0  0
  187.5860  175.9700  143.4540 N   0  0  0  0  0  0  0  0  0  0  0  0
  187.0530  178.3130  143.2120 O   0  0  0  0  0  0  0  0  0  0  0  0
  187.8740  177.3490  143.8060 C   0  0  0  0  0  0  0  0  0  0  0  0
  184.8080  177.8960  143.1940 O   0  0  0  0  0  1  0  0  0  0  0  0
  188.0270  177.5490  145.2960 C   0  0  0  0  0  2  0  0  0  0  0  0
  185.9710  177.8830  141.1310 C   0  0  0  0  0  0  0  0  0  0  0  0
  184.8960  178.2780  140.6040 O   0  0  0  0  0  1  0  0  0  0  0  0
  187.1200  177.7930  140.3550 O   0  0  0  0  0  0  0  0  0  0  0  0
  192.0250  174.4440  143.9760 C   0  0  1  0  0  3  0  0  0  0  0  0
  192.0470  176.2430  142.3850 O   0  0  0  0  0  0  0  0  0  0  0  0
  193.4120  176.2000  142.7200 C   0  0  1  0  0  3  0  0  0  0  0  0
  192.3400  175.9210  143.7250 C   0  0  2  0  0  3  0  0  0  0  0  0
  195.9390  173.5290  141.7050 N   0  0  0  0  0  1  0  0  0  0  0  0
  195.4130  174.7350  142.2440 C   0  0  0  0  0  0  0  0  0  0  0  0
  196.1880  175.5660  142.7890 O   0  0  0  0  0  0  0  0  0  0  0  0
  194.0130  174.9930  142.1640 N   0  0  0  0  0  2  0  0  0  0  0  0
  192.6070  174.0610  145.2180 O   0  0  0  0  0  0  0  0  0  0  0  0
  194.3400  172.4270  145.0900 C   0  0  0  0  0  3  0  0  0  0  0  0
  196.6130  172.8700  145.7810 C   0  0  0  0  0  3  0  0  0  0  0  0
  195.6560  171.9960  145.2640 C   0  0  0  0  0  3  0  0  0  0  0  0
  194.9360  174.6190  145.9500 C   0  0  0  0  0  0  0  0  0  0  0  0
  193.9570  173.7320  145.4250 C   0  0  0  0  0  0  0  0  0  0  0  0
  196.2520  174.1740  146.1210 C   0  0  0  0  0  3  0  0  0  0  0  0
  194.6450  176.0250  146.3460 C   0  0  0  0  0  1  0  0  0  0  0  0
  1  5  1  6  0  0  0
  1  2  1  0  0  0  0
  2  3  1  0  0  0  0
  3  4  3  0  0  0  0
  6  7  1  0  0  0  0
  6  5  1  0  0  0  0
  7 11  1  0  0  0  0
  8 15  1  0  0  0  0
  9 10  1  0  0  0  0
  9 14  1  1  0  0  0
  9 12  1  0  0  0  0
 10 11  1  0  0  0  0
 11 13  1  0  0  0  0
 12 13  1  0  0  0  0
 13  8  1  0  0  0  0
 13 15  1  0  0  0  0
 16  9  1  0  0  0  0
 17 16  1  0  0  0  0
 18 16  2  0  0  0  0
 19  1  1  0  0  0  0
 19 27  1  1  0  0  0
 20 21  1  0  0  0  0
 20 22  1  0  0  0  0
 21 26  1  6  0  0  0
 21 22  1  0  0  0  0
 22 19  1  6  0  0  0
 23 24  1  0  0  0  0
 24 25  2  0  0  0  0
 26 24  1  0  0  0  0
 27 32  1  0  0  0  0
 28 30  2  0  0  0  0
 28 32  1  0  0  0  0
 29 33  2  0  0  0  0
 30 29  1  0  0  0  0
 31 33  1  0  0  0  0
 31 34  1  0  0  0  0
 32 31  2  0  0  0  0
M  END
>  <MODEL>
9

>  <REMARK>
 VINA RESULT:      -6.4      2.113      8.426
  Name = 
  12 active torsions:
  status: ('A' for Active; 'I' for Inactive)
    1  A    between atoms: O_1  and  C_20
    2  A    between atoms: O_1  and  C_34
    3  A    between atoms: C_4  and  N_16
    4  A    between atoms: C_4  and  C_31
    5  A    between atoms: C_5  and  C_18
    6  A    between atoms: C_5  and  C_33
    7  A    between atoms: C_5  and  C_34
    8  A    between atoms: C_7  and  C_11
    9  A    between atoms: C_8  and  C_18
   10  A    between atoms: C_23  and  N_27
   11  A    between atoms: C_31  and  C_33
   12  A    between atoms: C_32  and  C_34
                            x       y       z     vdW  Elec       q    Type
                         _______ _______ _______ _____ _____    ______ ____

>  <TORSDO>
F 12

$$$$
