=
 OpenBabel11052417403D

 31 35  0  0  1  0  0  0  0  0999 V2000
  185.2620  178.1630  140.7190 C   0  0  0  0  0  0  0  0  0  0  0  0
  187.5580  177.5850  143.7410 C   0  0  2  0  0  3  0  0  0  0  0  0
  186.6550  177.9910  144.9010 C   0  0  0  0  0  0  0  0  0  0  0  0
  184.4360  179.0780  145.0220 C   0  0  0  0  0  3  0  0  0  0  0  0
  186.9250  177.4990  142.3640 C   0  0  0  0  0  0  0  0  0  0  0  0
  185.9140  177.4070  139.7430 C   0  0  0  0  0  3  0  0  0  0  0  0
  185.8950  179.2760  144.7810 C   0  0  0  0  0  2  0  0  0  0  0  0
  189.3710  176.0740  142.9610 C   0  0  1  0  0  3  0  0  0  0  0  0
  184.1100  178.8680  140.3960 O   0  0  0  0  0  1  0  0  0  0  0  0
  187.7880  176.2810  146.3140 C   0  0  0  0  0  2  0  0  0  0  0  0
  183.9540  178.6740  146.1940 C   0  0  0  0  0  3  0  0  0  0  0  0
  188.7470  176.0210  141.6740 O   0  0  0  0  0  0  0  0  0  0  0  0
  188.3110  176.2840  144.0390 C   0  0  1  0  0  3  0  0  0  0  0  0
  185.7700  178.2160  142.0190 C   0  0  0  0  0  3  0  0  0  0  0  0
  184.7800  178.2990  147.3540 C   0  0  0  0  0  3  0  0  0  0  0  0
  187.5890  176.7500  141.3670 C   0  0  0  0  0  0  0  0  0  0  0  0
  187.0760  176.7020  140.0670 C   0  0  0  0  0  3  0  0  0  0  0  0
  188.8970  176.3650  145.3690 N   0  0  0  0  0  2  0  0  0  0  0  0
  186.7980  177.4030  146.1160 C   0  0  0  0  0  0  0  0  0  0  0  0
  186.0060  177.7620  147.3150 C   0  0  0  0  0  3  0  0  0  0  0  0
  190.1360  174.7810  143.2040 C   0  0  0  0  0  2  0  0  0  0  0  0
  191.6830  174.5290  141.4060 O   0  0  0  0  0  1  0  0  0  0  0  0
  191.5770  174.9140  142.7440 C   0  0  1  0  0  3  0  0  0  0  0  0
  192.1050  176.6430  142.9210 S   0  0  0  0  0  0  0  0  0  0  0  0
  195.4080  175.3380  145.1170 C   0  0  0  0  0  0  0  0  0  0  0  0
  193.8130  176.2800  146.6210 C   0  0  0  0  0  3  0  0  0  0  0  0
  196.5250  174.7750  144.9780 O   0  0  0  0  0  0  0  0  0  0  0  0
  194.5660  175.6190  143.9050 C   0  0  0  0  0  2  0  0  0  0  0  0
  192.9090  176.5700  145.4990 C   0  0  0  0  0  3  0  0  0  0  0  0
  193.2450  176.2590  144.2440 C   0  0  0  0  0  0  0  0  0  0  0  0
  194.9610  175.7100  146.4260 N   0  0  0  0  0  0  0  0  0  0  0  0
  1 14  1  0  0  0  0
  2  5  1  6  0  0  0
  2 13  1  0  0  0  0
  2  3  1  0  0  0  0
  3 19  2  0  0  0  0
  4 11  2  0  0  0  0
  6 17  1  0  0  0  0
  6  1  2  0  0  0  0
  7  3  1  0  0  0  0
  7  4  1  0  0  0  0
  8 21  1  1  0  0  0
  8 13  1  0  0  0  0
  9  1  1  0  0  0  0
 11 15  1  0  0  0  0
 12  8  1  0  0  0  0
 13 18  1  1  0  0  0
 14  5  2  0  0  0  0
 16 12  1  0  0  0  0
 16  5  1  0  0  0  0
 17 16  2  0  0  0  0
 18 10  1  0  0  0  0
 19 10  1  0  0  0  0
 19 20  1  0  0  0  0
 20 15  2  0  0  0  0
 23 22  1  6  0  0  0
 23 24  1  0  0  0  0
 23 21  1  0  0  0  0
 24 30  1  0  0  0  0
 25 31  1  0  0  0  0
 27 25  2  0  0  0  0
 28 30  1  0  0  0  0
 28 25  1  0  0  0  0
 29 26  1  0  0  0  0
 30 29  2  0  0  0  0
 31 26  2  0  0  0  0
M  END
>  <MODEL>
1

>  <REMARK>
 VINA RESULT:      -9.1      0.000      0.000
  Name = 
  4 active torsions:
  status: ('A' for Active; 'I' for Inactive)
    1  A    between atoms: S_3  and  C_9
    2  A    between atoms: S_3  and  C_22
    3  A    between atoms: C_9  and  C_23
    4  A    between atoms: C_15  and  C_23
                            x       y       z     vdW  Elec       q    Type
                         _______ _______ _______ _____ _____    ______ ____

>  <TORSDO>
F 4

$$$$
=
 OpenBabel11052417403D

 31 35  0  0  1  0  0  0  0  0999 V2000
  185.5910  178.0660  140.7790 C   0  0  0  0  0  0  0  0  0  0  0  0
  187.6790  177.5530  143.9600 C   0  0  2  0  0  3  0  0  0  0  0  0
  186.7020  177.9870  145.0480 C   0  0  0  0  0  0  0  0  0  0  0  0
  184.4840  179.0810  144.9960 C   0  0  0  0  0  3  0  0  0  0  0  0
  187.1390  177.4360  142.5460 C   0  0  0  0  0  0  0  0  0  0  0  0
  186.3030  177.2860  139.8670 C   0  0  0  0  0  3  0  0  0  0  0  0
  185.9560  179.2710  144.8480 C   0  0  0  0  0  2  0  0  0  0  0  0
  189.5340  176.0200  143.3370 C   0  0  1  0  0  3  0  0  0  0  0  0
  184.4660  178.7660  140.3640 O   0  0  0  0  0  1  0  0  0  0  0  0
  187.7320  176.3080  146.5710 C   0  0  0  0  0  2  0  0  0  0  0  0
  183.9230  178.7060  146.1420 C   0  0  0  0  0  3  0  0  0  0  0  0
  188.9970  175.9390  142.0130 O   0  0  0  0  0  0  0  0  0  0  0  0
  188.4050  176.2570  144.3370 C   0  0  1  0  0  3  0  0  0  0  0  0
  186.0120  178.1480  142.1090 C   0  0  0  0  0  3  0  0  0  0  0  0
  184.6690  178.3550  147.3630 C   0  0  0  0  0  3  0  0  0  0  0  0
  187.8640  176.6630  141.6120 C   0  0  0  0  0  0  0  0  0  0  0  0
  187.4390  176.5860  140.2830 C   0  0  0  0  0  3  0  0  0  0  0  0
  188.9020  176.3680  145.7000 N   0  0  0  0  0  2  0  0  0  0  0  0
  186.7620  177.4270  146.2820 C   0  0  0  0  0  0  0  0  0  0  0  0
  185.8930  177.8150  147.4180 C   0  0  0  0  0  3  0  0  0  0  0  0
  190.2760  174.7310  143.6600 C   0  0  0  0  0  2  0  0  0  0  0  0
  192.0150  174.9180  142.0380 O   0  0  0  0  0  1  0  0  0  0  0  0
  191.7660  174.8920  143.4110 C   0  0  1  0  0  3  0  0  0  0  0  0
  192.3340  176.4460  144.1610 S   0  0  0  0  0  0  0  0  0  0  0  0
  196.4150  175.6360  143.8150 C   0  0  0  0  0  0  0  0  0  0  0  0
  195.5660  174.4840  145.7250 C   0  0  0  0  0  3  0  0  0  0  0  0
  197.4120  175.8830  143.0870 O   0  0  0  0  0  0  0  0  0  0  0  0
  195.0850  176.2510  143.4820 C   0  0  0  0  0  2  0  0  0  0  0  0
  194.2220  175.0170  145.4630 C   0  0  0  0  0  3  0  0  0  0  0  0
  193.9900  175.8250  144.4240 C   0  0  0  0  0  0  0  0  0  0  0  0
  196.5660  174.7790  144.9530 N   0  0  0  0  0  0  0  0  0  0  0  0
  1 14  1  0  0  0  0
  2  5  1  6  0  0  0
  2 13  1  0  0  0  0
  2  3  1  0  0  0  0
  3 19  2  0  0  0  0
  4 11  2  0  0  0  0
  6 17  1  0  0  0  0
  6  1  2  0  0  0  0
  7  4  1  0  0  0  0
  7  3  1  0  0  0  0
  8 21  1  1  0  0  0
  8 13  1  0  0  0  0
  9  1  1  0  0  0  0
 11 15  1  0  0  0  0
 12  8  1  0  0  0  0
 13 18  1  1  0  0  0
 14  5  2  0  0  0  0
 15 20  2  0  0  0  0
 16 12  1  0  0  0  0
 16  5  1  0  0  0  0
 17 16  2  0  0  0  0
 18 10  1  0  0  0  0
 19 10  1  0  0  0  0
 19 20  1  0  0  0  0
 23 22  1  6  0  0  0
 23 21  1  0  0  0  0
 23 24  1  0  0  0  0
 24 30  1  0  0  0  0
 25 31  1  0  0  0  0
 27 25  2  0  0  0  0
 28 25  1  0  0  0  0
 28 30  1  0  0  0  0
 29 26  1  0  0  0  0
 30 29  2  0  0  0  0
 31 26  2  0  0  0  0
M  END
>  <MODEL>
2

>  <REMARK>
 VINA RESULT:      -8.9      0.888      1.010
  Name = 
  4 active torsions:
  status: ('A' for Active; 'I' for Inactive)
    1  A    between atoms: S_3  and  C_9
    2  A    between atoms: S_3  and  C_22
    3  A    between atoms: C_9  and  C_23
    4  A    between atoms: C_15  and  C_23
                            x       y       z     vdW  Elec       q    Type
                         _______ _______ _______ _____ _____    ______ ____

>  <TORSDO>
F 4

$$$$
=
 OpenBabel11052417403D

 31 35  0  0  1  0  0  0  0  0999 V2000
  185.4780  178.0830  140.7300 C   0  0  0  0  0  0  0  0  0  0  0  0
  187.6530  177.6190  143.8600 C   0  0  2  0  0  3  0  0  0  0  0  0
  186.6920  178.0270  144.9710 C   0  0  0  0  0  0  0  0  0  0  0  0
  184.4460  179.0650  144.9740 C   0  0  0  0  0  3  0  0  0  0  0  0
  187.0830  177.4910  142.4590 C   0  0  0  0  0  0  0  0  0  0  0  0
  186.1890  177.3230  139.7990 C   0  0  0  0  0  3  0  0  0  0  0  0
  185.9090  179.2920  144.7910 C   0  0  0  0  0  2  0  0  0  0  0  0
  189.5310  176.1340  143.1900 C   0  0  1  0  0  3  0  0  0  0  0  0
  184.3270  178.7550  140.3430 O   0  0  0  0  0  1  0  0  0  0  0  0
  187.7990  176.3720  146.4670 C   0  0  0  0  0  2  0  0  0  0  0  0
  183.9220  178.6740  146.1320 C   0  0  0  0  0  3  0  0  0  0  0  0
  188.9650  176.0420  141.8790 O   0  0  0  0  0  0  0  0  0  0  0  0
  188.4210  176.3420  144.2180 C   0  0  1  0  0  3  0  0  0  0  0  0
  185.9290  178.1740  142.0500 C   0  0  0  0  0  3  0  0  0  0  0  0
  184.7050  178.3410  147.3340 C   0  0  0  0  0  3  0  0  0  0  0  0
  187.8050  176.7380  141.5070 C   0  0  0  0  0  0  0  0  0  0  0  0
  187.3510  176.6510  140.1880 C   0  0  0  0  0  3  0  0  0  0  0  0
  188.9460  176.4630  145.5690 N   0  0  0  0  0  2  0  0  0  0  0  0
  186.7950  177.4670  146.2030 C   0  0  0  0  0  0  0  0  0  0  0  0
  185.9440  177.8320  147.3590 C   0  0  0  0  0  3  0  0  0  0  0  0
  190.3130  174.8640  143.4940 C   0  0  0  0  0  2  0  0  0  0  0  0
  192.5950  174.9660  142.8070 O   0  0  0  0  0  1  0  0  0  0  0  0
  191.3200  174.5770  142.3930 C   0  0  1  0  0  3  0  0  0  0  0  0
  191.3160  172.7970  142.0280 S   0  0  0  0  0  0  0  0  0  0  0  0
  189.9390  173.6440  138.1790 C   0  0  0  0  0  0  0  0  0  0  0  0
  188.1160  172.8180  139.4790 C   0  0  0  0  0  3  0  0  0  0  0  0
  190.3280  174.0880  137.0680 O   0  0  0  0  0  0  0  0  0  0  0  0
  190.9230  173.5070  139.3060 C   0  0  0  0  0  2  0  0  0  0  0  0
  188.9980  172.6750  140.6460 C   0  0  0  0  0  3  0  0  0  0  0  0
  190.2920  173.0000  140.5760 C   0  0  0  0  0  0  0  0  0  0  0  0
  188.5670  173.2680  138.3490 N   0  0  0  0  0  0  0  0  0  0  0  0
  1 14  1  0  0  0  0
  2  5  1  6  0  0  0
  2 13  1  0  0  0  0
  2  3  1  0  0  0  0
  3 19  2  0  0  0  0
  4 11  2  0  0  0  0
  6 17  1  0  0  0  0
  6  1  2  0  0  0  0
  7  3  1  0  0  0  0
  7  4  1  0  0  0  0
  8 21  1  1  0  0  0
  8 13  1  0  0  0  0
  9  1  1  0  0  0  0
 11 15  1  0  0  0  0
 12  8  1  0  0  0  0
 13 18  1  1  0  0  0
 14  5  2  0  0  0  0
 15 20  2  0  0  0  0
 16 12  1  0  0  0  0
 16  5  1  0  0  0  0
 17 16  2  0  0  0  0
 18 10  1  0  0  0  0
 19 10  1  0  0  0  0
 19 20  1  0  0  0  0
 23 22  1  1  0  0  0
 23 21  1  0  0  0  0
 24 23  1  0  0  0  0
 25 31  1  0  0  0  0
 25 28  1  0  0  0  0
 26 29  1  0  0  0  0
 27 25  2  0  0  0  0
 28 30  1  0  0  0  0
 30 29  2  0  0  0  0
 30 24  1  0  0  0  0
 31 26  2  0  0  0  0
M  END
>  <MODEL>
3

>  <REMARK>
 VINA RESULT:      -8.8      2.372      4.158
  Name = 
  4 active torsions:
  status: ('A' for Active; 'I' for Inactive)
    1  A    between atoms: S_3  and  C_9
    2  A    between atoms: S_3  and  C_22
    3  A    between atoms: C_9  and  C_23
    4  A    between atoms: C_15  and  C_23
                            x       y       z     vdW  Elec       q    Type
                         _______ _______ _______ _____ _____    ______ ____

>  <TORSDO>
F 4

$$$$
=
 OpenBabel11052417403D

 31 35  0  0  1  0  0  0  0  0999 V2000
  184.3060  178.1080  140.8940 C   0  0  0  0  0  0  0  0  0  0  0  0
  187.0950  178.5110  143.5020 C   0  0  2  0  0  3  0  0  0  0  0  0
  186.2980  178.6040  144.7990 C   0  0  0  0  0  0  0  0  0  0  0  0
  183.8840  178.8190  145.2940 C   0  0  0  0  0  3  0  0  0  0  0  0
  186.3310  178.1520  142.2410 C   0  0  0  0  0  0  0  0  0  0  0  0
  185.0280  177.6040  139.8110 C   0  0  0  0  0  3  0  0  0  0  0  0
  185.1150  179.5230  144.8290 C   0  0  0  0  0  2  0  0  0  0  0  0
  189.1880  177.7300  142.4110 C   0  0  1  0  0  3  0  0  0  0  0  0
  182.9420  178.3370  140.7730 O   0  0  0  0  0  1  0  0  0  0  0  0
  188.1790  177.4730  145.9760 C   0  0  0  0  0  2  0  0  0  0  0  0
  183.7690  178.3110  146.5180 C   0  0  0  0  0  3  0  0  0  0  0  0
  188.4340  177.4090  141.2380 O   0  0  0  0  0  0  0  0  0  0  0  0
  188.3050  177.5820  143.6480 C   0  0  1  0  0  3  0  0  0  0  0  0
  184.9560  178.3890  142.0990 C   0  0  0  0  0  3  0  0  0  0  0  0
  184.8450  178.3030  147.5240 C   0  0  0  0  0  3  0  0  0  0  0  0
  187.0570  177.6580  141.1340 C   0  0  0  0  0  0  0  0  0  0  0  0
  186.4010  177.3800  139.9310 C   0  0  0  0  0  3  0  0  0  0  0  0
  189.0200  177.9180  144.8690 N   0  0  0  0  0  2  0  0  0  0  0  0
  186.8320  178.1540  145.9620 C   0  0  0  0  0  0  0  0  0  0  0  0
  186.1600  178.2450  147.2790 C   0  0  0  0  0  3  0  0  0  0  0  0
  190.3980  176.8110  142.5010 C   0  0  0  0  0  2  0  0  0  0  0  0
  189.5170  174.7290  141.7400 O   0  0  0  0  0  1  0  0  0  0  0  0
  189.9750  175.4010  142.8740 C   0  0  1  0  0  3  0  0  0  0  0  0
  191.3990  174.5140  143.5720 S   0  0  0  0  0  0  0  0  0  0  0  0
  191.1870  175.9430  147.4890 C   0  0  0  0  0  0  0  0  0  0  0  0
  189.3350  174.4870  147.1050 C   0  0  0  0  0  3  0  0  0  0  0  0
  191.7980  176.6820  148.3040 O   0  0  0  0  0  0  0  0  0  0  0  0
  191.7180  175.7850  146.0920 C   0  0  0  0  0  2  0  0  0  0  0  0
  189.7930  174.2500  145.7280 C   0  0  0  0  0  3  0  0  0  0  0  0
  190.8960  174.8380  145.2580 C   0  0  0  0  0  0  0  0  0  0  0  0
  189.9920  175.2710  147.9040 N   0  0  0  0  0  0  0  0  0  0  0  0
  1 14  1  0  0  0  0
  2  5  1  6  0  0  0
  2 13  1  0  0  0  0
  2  3  1  0  0  0  0
  3  7  1  0  0  0  0
  3 19  2  0  0  0  0
  4 11  2  0  0  0  0
  6 17  1  0  0  0  0
  6  1  2  0  0  0  0
  7  4  1  0  0  0  0
  8 21  1  1  0  0  0
  8 13  1  0  0  0  0
  9  1  1  0  0  0  0
 11 15  1  0  0  0  0
 12  8  1  0  0  0  0
 13 18  1  1  0  0  0
 14  5  2  0  0  0  0
 16 12  1  0  0  0  0
 16  5  1  0  0  0  0
 17 16  2  0  0  0  0
 18 10  1  0  0  0  0
 19 10  1  0  0  0  0
 19 20  1  0  0  0  0
 20 15  2  0  0  0  0
 21 23  1  0  0  0  0
 23 22  1  6  0  0  0
 23 24  1  0  0  0  0
 24 30  1  0  0  0  0
 25 31  1  0  0  0  0
 25 27  2  0  0  0  0
 26 31  2  0  0  0  0
 28 25  1  0  0  0  0
 29 26  1  0  0  0  0
 30 29  2  0  0  0  0
 30 28  1  0  0  0  0
M  END
>  <MODEL>
4

>  <REMARK>
 VINA RESULT:      -8.7      2.106      2.465
  Name = 
  4 active torsions:
  status: ('A' for Active; 'I' for Inactive)
    1  A    between atoms: S_3  and  C_9
    2  A    between atoms: S_3  and  C_22
    3  A    between atoms: C_9  and  C_23
    4  A    between atoms: C_15  and  C_23
                            x       y       z     vdW  Elec       q    Type
                         _______ _______ _______ _____ _____    ______ ____

>  <TORSDO>
F 4

$$$$
=
 OpenBabel11052417403D

 31 35  0  0  1  0  0  0  0  0999 V2000
  189.7810  174.4040  141.5130 C   0  0  0  0  0  0  0  0  0  0  0  0
  189.8360  175.2940  145.2470 C   0  0  2  0  0  3  0  0  0  0  0  0
  191.3320  175.2880  145.5470 C   0  0  0  0  0  0  0  0  0  0  0  0
  193.3180  174.5860  144.2510 C   0  0  0  0  0  3  0  0  0  0  0  0
  189.4180  175.1660  143.7940 C   0  0  0  0  0  0  0  0  0  0  0  0
  188.4980  174.8250  141.1600 C   0  0  0  0  0  3  0  0  0  0  0  0
  192.1420  174.1310  145.0470 C   0  0  0  0  0  2  0  0  0  0  0  0
  187.6290  176.3190  145.7530 C   0  0  1  0  0  3  0  0  0  0  0  0
  190.6060  173.8190  140.5610 O   0  0  0  0  0  1  0  0  0  0  0  0
  190.9490  177.0840  147.2290 C   0  0  0  0  0  2  0  0  0  0  0  0
  194.3060  175.3020  144.7790 C   0  0  0  0  0  3  0  0  0  0  0  0
  187.2690  176.1770  144.3750 O   0  0  0  0  0  0  0  0  0  0  0  0
  189.1390  176.5060  145.8740 C   0  0  1  0  0  3  0  0  0  0  0  0
  190.2340  174.5650  142.8240 C   0  0  0  0  0  3  0  0  0  0  0  0
  194.3280  175.8000  146.1650 C   0  0  0  0  0  3  0  0  0  0  0  0
  188.1140  175.5730  143.4320 C   0  0  0  0  0  0  0  0  0  0  0  0
  187.6660  175.4080  142.1180 C   0  0  0  0  0  3  0  0  0  0  0  0
  189.5610  176.6350  147.2610 N   0  0  0  0  0  2  0  0  0  0  0  0
  191.8380  176.1010  146.5080 C   0  0  0  0  0  0  0  0  0  0  0  0
  193.2640  176.1330  146.9080 C   0  0  0  0  0  3  0  0  0  0  0  0
  186.8900  177.5090  146.3470 C   0  0  0  0  0  2  0  0  0  0  0  0
  184.5110  177.6080  146.4860 O   0  0  0  0  0  1  0  0  0  0  0  0
  185.5860  177.7570  145.6090 C   0  0  1  0  0  3  0  0  0  0  0  0
  185.5910  179.4440  144.9360 S   0  0  0  0  0  0  0  0  0  0  0  0
  185.5230  178.1950  140.9520 C   0  0  0  0  0  0  0  0  0  0  0  0
  183.2800  178.2850  141.7640 C   0  0  0  0  0  3  0  0  0  0  0  0
  186.2850  177.9610  139.9790 O   0  0  0  0  0  0  0  0  0  0  0  0
  186.1120  178.6230  142.2670 C   0  0  0  0  0  2  0  0  0  0  0  0
  183.7620  178.7340  143.0780 C   0  0  0  0  0  3  0  0  0  0  0  0
  185.0660  178.9020  143.3140 C   0  0  0  0  0  0  0  0  0  0  0  0
  184.1070  178.0430  140.7940 N   0  0  0  0  0  0  0  0  0  0  0  0
  1 14  1  0  0  0  0
  2  5  1  6  0  0  0
  2  3  1  0  0  0  0
  2 13  1  0  0  0  0
  3 19  2  0  0  0  0
  4 11  2  0  0  0  0
  4  7  1  0  0  0  0
  6  1  2  0  0  0  0
  6 17  1  0  0  0  0
  7  3  1  0  0  0  0
  8 13  1  0  0  0  0
  8 21  1  6  0  0  0
  9  1  1  0  0  0  0
 10 18  1  0  0  0  0
 11 15  1  0  0  0  0
 12  8  1  0  0  0  0
 13 18  1  1  0  0  0
 14  5  2  0  0  0  0
 15 20  2  0  0  0  0
 16  5  1  0  0  0  0
 16 12  1  0  0  0  0
 17 16  2  0  0  0  0
 19 20  1  0  0  0  0
 19 10  1  0  0  0  0
 23 21  1  0  0  0  0
 23 22  1  1  0  0  0
 24 23  1  0  0  0  0
 25 28  1  0  0  0  0
 26 29  1  0  0  0  0
 27 25  2  0  0  0  0
 28 30  1  0  0  0  0
 29 30  2  0  0  0  0
 30 24  1  0  0  0  0
 31 25  1  0  0  0  0
 31 26  2  0  0  0  0
M  END
>  <MODEL>
5

>  <REMARK>
 VINA RESULT:      -8.2      2.662      7.530
  Name = 
  4 active torsions:
  status: ('A' for Active; 'I' for Inactive)
    1  A    between atoms: S_3  and  C_9
    2  A    between atoms: S_3  and  C_22
    3  A    between atoms: C_9  and  C_23
    4  A    between atoms: C_15  and  C_23
                            x       y       z     vdW  Elec       q    Type
                         _______ _______ _______ _____ _____    ______ ____

>  <TORSDO>
F 4

$$$$
=
 OpenBabel11052417403D

 31 35  0  0  1  0  0  0  0  0999 V2000
  185.5410  178.0210  140.8320 C   0  0  0  0  0  0  0  0  0  0  0  0
  187.7190  177.6410  143.9710 C   0  0  2  0  0  3  0  0  0  0  0  0
  186.7480  178.0460  145.0750 C   0  0  0  0  0  0  0  0  0  0  0  0
  184.4830  179.0410  145.0600 C   0  0  0  0  0  3  0  0  0  0  0  0
  187.1540  177.4830  142.5710 C   0  0  0  0  0  0  0  0  0  0  0  0
  186.2670  177.2620  139.9130 C   0  0  0  0  0  3  0  0  0  0  0  0
  185.9410  179.2930  144.8770 C   0  0  0  0  0  2  0  0  0  0  0  0
  189.6260  176.1840  143.3250 C   0  0  1  0  0  3  0  0  0  0  0  0
  184.3770  178.6650  140.4340 O   0  0  0  0  0  1  0  0  0  0  0  0
  187.8840  176.4330  146.5950 C   0  0  0  0  0  2  0  0  0  0  0  0
  183.9640  178.6560  146.2230 C   0  0  0  0  0  3  0  0  0  0  0  0
  189.0640  176.0630  142.0140 O   0  0  0  0  0  0  0  0  0  0  0  0
  188.5100  176.3840  144.3470 C   0  0  1  0  0  3  0  0  0  0  0  0
  185.9870  178.1380  142.1510 C   0  0  0  0  0  3  0  0  0  0  0  0
  184.7520  178.3540  147.4310 C   0  0  0  0  0  3  0  0  0  0  0  0
  187.8920  176.7310  141.6310 C   0  0  0  0  0  0  0  0  0  0  0  0
  187.4410  176.6180  140.3120 C   0  0  0  0  0  3  0  0  0  0  0  0
  189.0310  176.5340  145.6980 N   0  0  0  0  0  2  0  0  0  0  0  0
  186.8590  177.5050  146.3150 C   0  0  0  0  0  0  0  0  0  0  0  0
  185.9990  177.8690  147.4650 C   0  0  0  0  0  3  0  0  0  0  0  0
  190.4310  174.9330  143.6470 C   0  0  0  0  0  2  0  0  0  0  0  0
  192.2400  175.7770  144.9520 O   0  0  0  0  0  1  0  0  0  0  0  0
  191.9160  175.2500  143.7010 C   0  0  1  0  0  3  0  0  0  0  0  0
  192.8640  173.7250  143.4210 S   0  0  0  0  0  0  0  0  0  0  0  0
  193.2090  174.1670  139.2840 C   0  0  0  0  0  0  0  0  0  0  0  0
  194.8280  175.5660  140.3400 C   0  0  0  0  0  3  0  0  0  0  0  0
  192.7180  173.7490  138.2030 O   0  0  0  0  0  0  0  0  0  0  0  0
  192.6560  173.6670  140.5890 C   0  0  0  0  0  2  0  0  0  0  0  0
  194.3720  175.1150  141.6630 C   0  0  0  0  0  3  0  0  0  0  0  0
  193.3770  174.2320  141.7850 C   0  0  0  0  0  0  0  0  0  0  0  0
  194.2800  175.1170  139.2530 N   0  0  0  0  0  0  0  0  0  0  0  0
  1 14  1  0  0  0  0
  2  5  1  6  0  0  0
  2 13  1  0  0  0  0
  2  3  1  0  0  0  0
  3 19  2  0  0  0  0
  4 11  2  0  0  0  0
  6 17  1  0  0  0  0
  6  1  2  0  0  0  0
  7  4  1  0  0  0  0
  7  3  1  0  0  0  0
  8 21  1  1  0  0  0
  8 13  1  0  0  0  0
  9  1  1  0  0  0  0
 11 15  1  0  0  0  0
 12  8  1  0  0  0  0
 13 18  1  1  0  0  0
 14  5  2  0  0  0  0
 15 20  2  0  0  0  0
 16 12  1  0  0  0  0
 16  5  1  0  0  0  0
 17 16  2  0  0  0  0
 18 10  1  0  0  0  0
 19 10  1  0  0  0  0
 19 20  1  0  0  0  0
 21 23  1  0  0  0  0
 23 22  1  1  0  0  0
 24 23  1  0  0  0  0
 25 28  1  0  0  0  0
 26 29  1  0  0  0  0
 27 25  2  0  0  0  0
 28 30  1  0  0  0  0
 29 30  2  0  0  0  0
 30 24  1  0  0  0  0
 31 25  1  0  0  0  0
 31 26  2  0  0  0  0
M  END
>  <MODEL>
6

>  <REMARK>
 VINA RESULT:      -8.1      2.100      2.950
  Name = 
  4 active torsions:
  status: ('A' for Active; 'I' for Inactive)
    1  A    between atoms: S_3  and  C_9
    2  A    between atoms: S_3  and  C_22
    3  A    between atoms: C_9  and  C_23
    4  A    between atoms: C_15  and  C_23
                            x       y       z     vdW  Elec       q    Type
                         _______ _______ _______ _____ _____    ______ ____

>  <TORSDO>
F 4

$$$$
=
 OpenBabel11052417403D

 31 35  0  0  1  0  0  0  0  0999 V2000
  190.9440  176.8100  147.4000 C   0  0  0  0  0  0  0  0  0  0  0  0
  188.0460  175.9080  145.0490 C   0  0  2  0  0  3  0  0  0  0  0  0
  186.9210  176.7850  145.5890 C   0  0  0  0  0  0  0  0  0  0  0  0
  186.6920  178.1950  147.6090 C   0  0  0  0  0  3  0  0  0  0  0  0
  189.4360  176.1300  145.6180 C   0  0  0  0  0  0  0  0  0  0  0  0
  192.0360  176.3560  146.6600 C   0  0  0  0  0  3  0  0  0  0  0  0
  186.6980  176.8040  147.0700 C   0  0  0  0  0  2  0  0  0  0  0  0
  189.0760  174.8680  143.0390 C   0  0  1  0  0  3  0  0  0  0  0  0
  191.1410  177.3770  148.6520 O   0  0  0  0  0  1  0  0  0  0  0  0
  186.0290  176.9790  143.2720 C   0  0  0  0  0  2  0  0  0  0  0  0
  185.7740  179.0930  147.2610 C   0  0  0  0  0  3  0  0  0  0  0  0
  190.3690  175.0900  143.6110 O   0  0  0  0  0  0  0  0  0  0  0  0
  188.1080  175.9480  143.5180 C   0  0  1  0  0  3  0  0  0  0  0  0
  189.6500  176.6890  146.8860 C   0  0  0  0  0  3  0  0  0  0  0  0
  184.7180  178.8640  146.2600 C   0  0  0  0  0  3  0  0  0  0  0  0
  190.5450  175.6570  144.8820 C   0  0  0  0  0  0  0  0  0  0  0  0
  191.8370  175.7790  145.4020 C   0  0  0  0  0  3  0  0  0  0  0  0
  186.7700  175.7550  142.9800 N   0  0  0  0  0  2  0  0  0  0  0  0
  185.9560  177.2480  144.7550 C   0  0  0  0  0  0  0  0  0  0  0  0
  184.7980  178.0620  145.1900 C   0  0  0  0  0  3  0  0  0  0  0  0
  189.1860  174.8810  141.5210 C   0  0  0  0  0  2  0  0  0  0  0  0
  188.1900  173.0940  140.2940 O   0  0  0  0  0  1  0  0  0  0  0  0
  189.3450  173.4690  140.9830 C   0  0  1  0  0  3  0  0  0  0  0  0
  190.7680  173.4160  139.8550 S   0  0  0  0  0  0  0  0  0  0  0  0
  193.8580  174.4250  142.4740 C   0  0  0  0  0  0  0  0  0  0  0  0
  192.8900  172.3640  143.1910 C   0  0  0  0  0  3  0  0  0  0  0  0
  194.7360  175.3050  142.6720 O   0  0  0  0  0  0  0  0  0  0  0  0
  192.9130  174.5710  141.3150 C   0  0  0  0  0  2  0  0  0  0  0  0
  191.9410  172.4070  142.0690 C   0  0  0  0  0  3  0  0  0  0  0  0
  191.9520  173.4170  141.1950 C   0  0  0  0  0  0  0  0  0  0  0  0
  193.7690  173.3030  143.3610 N   0  0  0  0  0  0  0  0  0  0  0  0
  1  9  1  0  0  0  0
  2  3  1  1  0  0  0
  2  5  1  0  0  0  0
  3  7  1  0  0  0  0
  5 14  2  0  0  0  0
  6  1  2  0  0  0  0
  7  4  1  0  0  0  0
  8 21  1  6  0  0  0
  8 13  1  0  0  0  0
  8 12  1  0  0  0  0
 10 19  1  0  0  0  0
 11  4  2  0  0  0  0
 12 16  1  0  0  0  0
 13 18  1  6  0  0  0
 13  2  1  0  0  0  0
 14  1  1  0  0  0  0
 15 11  1  0  0  0  0
 16 17  2  0  0  0  0
 16  5  1  0  0  0  0
 17  6  1  0  0  0  0
 18 10  1  0  0  0  0
 19 20  1  0  0  0  0
 19  3  2  0  0  0  0
 20 15  2  0  0  0  0
 23 22  1  6  0  0  0
 23 21  1  0  0  0  0
 24 23  1  0  0  0  0
 24 30  1  0  0  0  0
 25 27  2  0  0  0  0
 25 31  1  0  0  0  0
 26 31  2  0  0  0  0
 28 25  1  0  0  0  0
 29 26  1  0  0  0  0
 30 28  1  0  0  0  0
 30 29  2  0  0  0  0
M  END
>  <MODEL>
7

>  <REMARK>
 VINA RESULT:      -8.0      2.580      4.656
  Name = 
  4 active torsions:
  status: ('A' for Active; 'I' for Inactive)
    1  A    between atoms: S_3  and  C_9
    2  A    between atoms: S_3  and  C_22
    3  A    between atoms: C_9  and  C_23
    4  A    between atoms: C_15  and  C_23
                            x       y       z     vdW  Elec       q    Type
                         _______ _______ _______ _____ _____    ______ ____

>  <TORSDO>
F 4

$$$$
=
 OpenBabel11052417403D

 31 35  0  0  1  0  0  0  0  0999 V2000
  184.6630  178.4780  146.5860 C   0  0  0  0  0  0  0  0  0  0  0  0
  187.4870  176.8890  144.5270 C   0  0  2  0  0  3  0  0  0  0  0  0
  186.9920  177.1040  143.1010 C   0  0  0  0  0  0  0  0  0  0  0  0
  184.8510  177.9000  142.1520 C   0  0  0  0  0  3  0  0  0  0  0  0
  186.7100  177.5640  145.6430 C   0  0  0  0  0  0  0  0  0  0  0  0
  185.3020  178.6620  147.8140 C   0  0  0  0  0  3  0  0  0  0  0  0
  185.5660  176.7610  142.7950 C   0  0  0  0  0  2  0  0  0  0  0  0
  189.4590  176.7550  146.0350 C   0  0  1  0  0  3  0  0  0  0  0  0
  183.3310  178.8400  146.4360 O   0  0  0  0  0  1  0  0  0  0  0  0
  189.3610  177.3230  142.3660 C   0  0  0  0  0  2  0  0  0  0  0  0
  185.1970  178.3800  140.9600 C   0  0  0  0  0  3  0  0  0  0  0  0
  188.6920  177.3890  147.0630 O   0  0  0  0  0  0  0  0  0  0  0  0
  188.9760  177.2270  144.6660 C   0  0  1  0  0  3  0  0  0  0  0  0
  185.3600  177.9230  145.5110 C   0  0  0  0  0  3  0  0  0  0  0  0
  186.3540  177.9160  140.1750 C   0  0  0  0  0  3  0  0  0  0  0  0
  187.3440  177.7380  146.8930 C   0  0  0  0  0  0  0  0  0  0  0  0
  186.6410  178.2920  147.9670 C   0  0  0  0  0  3  0  0  0  0  0  0
  189.7120  176.5940  143.5820 N   0  0  0  0  0  2  0  0  0  0  0  0
  187.8800  177.2640  142.0870 C   0  0  0  0  0  0  0  0  0  0  0  0
  187.5010  177.4280  140.6640 C   0  0  0  0  0  3  0  0  0  0  0  0
  190.9320  177.0860  146.2270 C   0  0  0  0  0  2  0  0  0  0  0  0
  191.0340  175.4660  147.9750 O   0  0  0  0  0  1  0  0  0  0  0  0
  191.6770  175.8990  146.8150 C   0  0  1  0  0  3  0  0  0  0  0  0
  191.7100  174.5510  145.5990 S   0  0  0  0  0  0  0  0  0  0  0  0
  194.5410  176.0380  142.9140 C   0  0  0  0  0  0  0  0  0  0  0  0
  195.6070  175.6530  145.0150 C   0  0  0  0  0  3  0  0  0  0  0  0
  194.6650  176.4150  141.7200 O   0  0  0  0  0  0  0  0  0  0  0  0
  193.1950  175.5930  143.4130 C   0  0  0  0  0  2  0  0  0  0  0  0
  194.3380  175.1760  145.5840 C   0  0  0  0  0  3  0  0  0  0  0  0
  193.2240  175.1360  144.8480 C   0  0  0  0  0  0  0  0  0  0  0  0
  195.6820  176.0460  143.7800 N   0  0  0  0  0  0  0  0  0  0  0  0
  1  6  1  0  0  0  0
  2  3  1  6  0  0  0
  2 13  1  0  0  0  0
  2  5  1  0  0  0  0
  4  7  1  0  0  0  0
  5 16  2  0  0  0  0
  6 17  2  0  0  0  0
  7  3  1  0  0  0  0
  8 21  1  1  0  0  0
  8 12  1  0  0  0  0
  9  1  1  0  0  0  0
 10 18  1  0  0  0  0
 11  4  2  0  0  0  0
 13 18  1  6  0  0  0
 13  8  1  0  0  0  0
 14  5  1  0  0  0  0
 14  1  2  0  0  0  0
 15 20  2  0  0  0  0
 15 11  1  0  0  0  0
 16 12  1  0  0  0  0
 16 17  1  0  0  0  0
 19 10  1  0  0  0  0
 19  3  2  0  0  0  0
 20 19  1  0  0  0  0
 21 23  1  0  0  0  0
 23 22  1  1  0  0  0
 24 23  1  0  0  0  0
 25 28  1  0  0  0  0
 25 31  1  0  0  0  0
 26 29  1  0  0  0  0
 27 25  2  0  0  0  0
 28 30  1  0  0  0  0
 30 29  2  0  0  0  0
 30 24  1  0  0  0  0
 31 26  2  0  0  0  0
M  END
>  <MODEL>
8

>  <REMARK>
 VINA RESULT:      -8.0      2.394      4.510
  Name = 
  4 active torsions:
  status: ('A' for Active; 'I' for Inactive)
    1  A    between atoms: S_3  and  C_9
    2  A    between atoms: S_3  and  C_22
    3  A    between atoms: C_9  and  C_23
    4  A    between atoms: C_15  and  C_23
                            x       y       z     vdW  Elec       q    Type
                         _______ _______ _______ _____ _____    ______ ____

>  <TORSDO>
F 4

$$$$
=
 OpenBabel11052417403D

 31 35  0  0  1  0  0  0  0  0999 V2000
  190.9070  176.5430  147.1190 C   0  0  0  0  0  0  0  0  0  0  0  0
  187.8860  175.8910  144.8400 C   0  0  2  0  0  3  0  0  0  0  0  0
  186.8330  176.8130  145.4470 C   0  0  0  0  0  0  0  0  0  0  0  0
  186.7530  178.1630  147.5180 C   0  0  0  0  0  3  0  0  0  0  0  0
  189.3040  176.0130  145.3680 C   0  0  0  0  0  0  0  0  0  0  0  0
  191.9460  176.0520  146.3260 C   0  0  0  0  0  3  0  0  0  0  0  0
  186.6590  176.7930  146.9350 C   0  0  0  0  0  2  0  0  0  0  0  0
  188.7870  174.8640  142.7640 C   0  0  1  0  0  3  0  0  0  0  0  0
  191.1780  177.0540  148.3810 O   0  0  0  0  0  1  0  0  0  0  0  0
  185.8790  177.1380  143.1700 C   0  0  0  0  0  2  0  0  0  0  0  0
  185.8790  179.1240  147.2320 C   0  0  0  0  0  3  0  0  0  0  0  0
  190.1090  174.9910  143.2970 O   0  0  0  0  0  0  0  0  0  0  0  0
  187.9010  175.9810  143.3110 C   0  0  1  0  0  3  0  0  0  0  0  0
  189.5930  176.5140  146.6450 C   0  0  0  0  0  3  0  0  0  0  0  0
  184.7800  178.9920  146.2610 C   0  0  0  0  0  3  0  0  0  0  0  0
  190.3590  175.5020  144.5800 C   0  0  0  0  0  0  0  0  0  0  0  0
  191.6720  175.5310  145.0590 C   0  0  0  0  0  3  0  0  0  0  0  0
  186.5370  175.8850  142.8130 N   0  0  0  0  0  2  0  0  0  0  0  0
  185.8700  177.3590  144.6630 C   0  0  0  0  0  0  0  0  0  0  0  0
  184.7770  178.2240  145.1640 C   0  0  0  0  0  3  0  0  0  0  0  0
  188.8480  174.9220  141.2440 C   0  0  0  0  0  2  0  0  0  0  0  0
  188.1970  173.2990  139.6220 O   0  0  0  0  0  1  0  0  0  0  0  0
  189.0950  173.5410  140.6630 C   0  0  1  0  0  3  0  0  0  0  0  0
  190.7950  173.4540  140.0290 S   0  0  0  0  0  0  0  0  0  0  0  0
  191.1130  169.6210  141.6550 C   0  0  0  0  0  0  0  0  0  0  0  0
  192.3580  171.1360  143.0170 C   0  0  0  0  0  3  0  0  0  0  0  0
  190.7270  168.4380  141.4730 O   0  0  0  0  0  0  0  0  0  0  0  0
  190.7010  170.6910  140.6840 C   0  0  0  0  0  2  0  0  0  0  0  0
  191.9840  172.2520  142.1370 C   0  0  0  0  0  3  0  0  0  0  0  0
  191.2120  172.0560  141.0640 C   0  0  0  0  0  0  0  0  0  0  0  0
  191.9460  169.9290  142.7790 N   0  0  0  0  0  0  0  0  0  0  0  0
  1  9  1  0  0  0  0
  2  5  1  1  0  0  0
  2  3  1  0  0  0  0
  3  7  1  0  0  0  0
  5 14  2  0  0  0  0
  6  1  2  0  0  0  0
  7  4  1  0  0  0  0
  8 21  1  6  0  0  0
  8 12  1  0  0  0  0
  8 13  1  0  0  0  0
 10 19  1  0  0  0  0
 11  4  2  0  0  0  0
 12 16  1  0  0  0  0
 13 18  1  6  0  0  0
 13  2  1  0  0  0  0
 14  1  1  0  0  0  0
 15 11  1  0  0  0  0
 16 17  2  0  0  0  0
 16  5  1  0  0  0  0
 17  6  1  0  0  0  0
 18 10  1  0  0  0  0
 19 20  1  0  0  0  0
 19  3  2  0  0  0  0
 20 15  2  0  0  0  0
 23 22  1  6  0  0  0
 23 21  1  0  0  0  0
 24 23  1  0  0  0  0
 24 30  1  0  0  0  0
 25 31  1  0  0  0  0
 27 25  2  0  0  0  0
 28 30  1  0  0  0  0
 28 25  1  0  0  0  0
 29 26  1  0  0  0  0
 30 29  2  0  0  0  0
 31 26  2  0  0  0  0
M  END
>  <MODEL>
9

>  <REMARK>
 VINA RESULT:      -7.8      3.221      5.362
  Name = 
  4 active torsions:
  status: ('A' for Active; 'I' for Inactive)
    1  A    between atoms: S_3  and  C_9
    2  A    between atoms: S_3  and  C_22
    3  A    between atoms: C_9  and  C_23
    4  A    between atoms: C_15  and  C_23
                            x       y       z     vdW  Elec       q    Type
                         _______ _______ _______ _____ _____    ______ ____

>  <TORSDO>
F 4

$$$$
