=
 OpenBabel11052420203D

 34 38  0  0  1  0  0  0  0  0999 V2000
  192.3610  172.3190  144.7330 O   0  0  0  0  0  0  0  0  0  0  0  0
  197.1650  172.3640  145.5660 C   0  0  0  0  0  2  0  0  0  0  0  0
  195.6140  174.3170  146.1710 C   0  0  0  0  0  2  0  0  0  0  0  0
  193.4080  172.9710  144.9930 C   0  0  0  0  0  0  0  0  0  0  0  0
  192.7250  176.3270  146.4070 C   0  0  0  0  0  2  0  0  0  0  0  0
  194.1880  176.3080  146.3020 N   0  0  0  0  0  0  0  0  0  0  0  0
  192.1810  175.0230  145.8490 C   0  0  2  0  0  3  0  0  0  0  0  0
  194.5410  175.1560  145.4780 C   0  0  2  0  0  3  0  0  0  0  0  0
  193.3400  174.3680  145.3000 N   0  0  0  0  0  0  0  0  0  0  0  0
  194.5710  177.4950  145.5590 C   0  0  0  0  0  1  0  0  0  0  0  0
  197.3400  171.1820  144.6140 C   0  0  0  0  0  2  0  0  0  0  0  0
  196.1550  170.2240  144.7090 C   0  0  2  0  0  3  0  0  0  0  0  0
  195.7990  172.9880  145.4810 C   0  0  0  0  0  0  0  0  0  0  0  0
  194.8640  170.9540  144.3500 C   0  0  0  0  0  2  0  0  0  0  0  0
  194.7280  172.3100  145.0000 C   0  0  0  0  0  0  0  0  0  0  0  0
  191.1700  175.3030  144.7440 C   0  0  0  0  0  2  0  0  0  0  0  0
  189.3550  177.0150  143.3690 F   0  0  0  0  0  0  0  0  0  0  0  0
  188.2680  175.6590  147.1500 C   0  0  0  0  0  3  0  0  0  0  0  0
  185.4820  177.8020  144.8740 N   0  0  0  0  0  0  0  0  0  0  0  0
  186.8760  177.9160  144.4220 C   0  0  0  0  0  2  0  0  0  0  0  0
  187.7670  176.9520  145.1560 C   0  0  0  0  0  0  0  0  0  0  0  0
  189.8530  175.7160  145.3170 C   0  0  0  0  0  0  0  0  0  0  0  0
  186.0850  176.8710  147.0520 C   0  0  0  0  0  2  0  0  0  0  0  0
  187.4120  176.5110  146.4490 C   0  0  0  0  0  0  0  0  0  0  0  0
  185.4390  178.0440  146.3160 C   0  0  0  0  0  2  0  0  0  0  0  0
  189.4850  175.2670  146.5890 C   0  0  0  0  0  3  0  0  0  0  0  0
  188.9960  176.5650  144.6000 C   0  0  0  0  0  0  0  0  0  0  0  0
  184.2400  178.3620  142.8290 C   0  0  0  0  0  1  0  0  0  0  0  0
  184.6440  178.8140  144.2220 C   0  0  2  0  0  3  0  0  0  0  0  0
  185.2810  180.0590  144.1590 O   0  0  0  0  0  1  0  0  0  0  0  0
  196.0460  169.5760  146.0850 C   0  0  0  0  0  2  0  0  0  0  0  0
  194.6820  169.1270  146.3170 N   0  0  0  0  0  2  0  0  0  0  0  0
  194.6520  168.5210  147.6380 C   0  0  0  0  0  2  0  0  0  0  0  0
  196.0600  168.1660  148.0730 C   0  0  0  0  0  1  0  0  0  0  0  0
  1  4  2  0  0  0  0
  4 15  1  0  0  0  0
  4  9  1  0  0  0  0
  6  5  1  0  0  0  0
  7 16  1  6  0  0  0
  7  5  1  0  0  0  0
  8  3  1  1  0  0  0
  8  6  1  0  0  0  0
  9  8  1  0  0  0  0
  9  7  1  0  0  0  0
 10  6  1  0  0  0  0
 11 12  1  0  0  0  0
 11  2  1  0  0  0  0
 12 31  1  1  0  0  0
 13  2  1  0  0  0  0
 13  3  1  0  0  0  0
 14 12  1  0  0  0  0
 14 15  1  0  0  0  0
 15 13  2  0  0  0  0
 16 22  1  0  0  0  0
 17 27  1  0  0  0  0
 19 25  1  0  0  0  0
 20 19  1  0  0  0  0
 20 21  1  0  0  0  0
 21 24  1  0  0  0  0
 22 26  2  0  0  0  0
 24 23  1  0  0  0  0
 24 18  2  0  0  0  0
 25 23  1  0  0  0  0
 26 18  1  0  0  0  0
 27 21  2  0  0  0  0
 27 22  1  0  0  0  0
 29 28  1  6  0  0  0
 29 19  1  0  0  0  0
 30 29  1  0  0  0  0
 31 32  1  0  0  0  0
 32 33  1  0  0  0  0
 33 34  1  0  0  0  0
M  END
>  <MODEL>
1

>  <REMARK>
 VINA RESULT:      -8.3      0.000      0.000
  Name = 
  6 active torsions:
  status: ('A' for Active; 'I' for Inactive)
    1  A    between atoms: C_3  and  N_24
    2  A    between atoms: N_7  and  C_15
    3  A    between atoms: C_8  and  C_17
    4  A    between atoms: C_8  and  C_18
    5  A    between atoms: N_24  and  C_25
    6  A    between atoms: C_25  and  C_27
                            x       y       z     vdW  Elec       q    Type
                         _______ _______ _______ _____ _____    ______ ____

>  <TORSDO>
F 6

$$$$
=
 OpenBabel11052420203D

 34 38  0  0  1  0  0  0  0  0999 V2000
  189.3790  177.7540  143.2770 O   0  0  0  0  0  0  0  0  0  0  0  0
  191.6220  175.8050  147.1430 C   0  0  0  0  0  2  0  0  0  0  0  0
  189.0720  176.0230  146.9590 C   0  0  0  0  0  2  0  0  0  0  0  0
  189.3370  177.3910  144.4840 C   0  0  0  0  0  0  0  0  0  0  0  0
  185.8850  176.9310  145.7500 C   0  0  0  0  0  2  0  0  0  0  0  0
  186.7060  176.6690  146.9360 N   0  0  0  0  0  0  0  0  0  0  0  0
  186.8010  177.3150  144.6000 C   0  0  2  0  0  3  0  0  0  0  0  0
  188.0590  177.1190  146.6250 C   0  0  2  0  0  3  0  0  0  0  0  0
  188.1020  177.4130  145.2090 N   0  0  0  0  0  0  0  0  0  0  0  0
  186.2040  177.5300  147.9920 C   0  0  0  0  0  1  0  0  0  0  0  0
  192.9450  176.4120  146.6800 C   0  0  0  0  0  2  0  0  0  0  0  0
  193.0460  176.4080  145.1560 C   0  0  2  0  0  3  0  0  0  0  0  0
  190.4340  176.3500  146.3990 C   0  0  0  0  0  0  0  0  0  0  0  0
  191.8990  177.2170  144.5560 C   0  0  0  0  0  2  0  0  0  0  0  0
  190.5540  176.9220  145.1760 C   0  0  0  0  0  0  0  0  0  0  0  0
  186.3910  178.6660  144.0280 C   0  0  0  0  0  2  0  0  0  0  0  0
  183.6550  179.2080  144.6080 F   0  0  0  0  0  0  0  0  0  0  0  0
  184.6100  177.8920  140.7770 C   0  0  0  0  0  3  0  0  0  0  0  0
  180.6970  179.1420  141.5870 N   0  0  0  0  0  0  0  0  0  0  0  0
  181.5170  178.8560  142.7720 C   0  0  0  0  0  2  0  0  0  0  0  0
  182.9550  178.6270  142.3960 C   0  0  0  0  0  0  0  0  0  0  0  0
  185.3020  178.5100  143.0170 C   0  0  0  0  0  0  0  0  0  0  0  0
  182.2240  178.0160  140.0460 C   0  0  0  0  0  2  0  0  0  0  0  0
  183.2790  178.1560  141.1060 C   0  0  0  0  0  0  0  0  0  0  0  0
  180.8220  178.0240  140.6520 C   0  0  0  0  0  2  0  0  0  0  0  0
  185.6170  178.0640  141.7300 C   0  0  0  0  0  3  0  0  0  0  0  0
  183.9680  178.7870  143.3540 C   0  0  0  0  0  0  0  0  0  0  0  0
  178.6830  177.9010  142.2510 C   0  0  0  0  0  1  0  0  0  0  0  0
  179.2820  179.2650  141.9550 C   0  0  2  0  0  3  0  0  0  0  0  0
  178.5380  179.9130  140.9620 O   0  0  0  0  0  1  0  0  0  0  0  0
  193.0680  174.9960  144.5830 C   0  0  0  0  0  2  0  0  0  0  0  0
  192.6900  175.0210  143.1790 N   0  0  0  0  0  2  0  0  0  0  0  0
  191.8160  173.8820  142.9530 C   0  0  0  0  0  2  0  0  0  0  0  0
  191.3380  173.3280  144.2810 C   0  0  0  0  0  1  0  0  0  0  0  0
  1  4  2  0  0  0  0
  4 15  1  0  0  0  0
  4  9  1  0  0  0  0
  5  6  1  0  0  0  0
  6 10  1  0  0  0  0
  7 16  1  1  0  0  0
  7  9  1  0  0  0  0
  7  5  1  0  0  0  0
  8  6  1  0  0  0  0
  8  3  1  6  0  0  0
  9  8  1  0  0  0  0
 11  2  1  0  0  0  0
 12 31  1  6  0  0  0
 12 11  1  0  0  0  0
 13  3  1  0  0  0  0
 13  2  1  0  0  0  0
 14 12  1  0  0  0  0
 14 15  1  0  0  0  0
 15 13  2  0  0  0  0
 18 24  2  0  0  0  0
 18 26  1  0  0  0  0
 19 29  1  0  0  0  0
 19 20  1  0  0  0  0
 21 20  1  0  0  0  0
 21 27  2  0  0  0  0
 22 27  1  0  0  0  0
 22 16  1  0  0  0  0
 23 25  1  0  0  0  0
 23 24  1  0  0  0  0
 24 21  1  0  0  0  0
 25 19  1  0  0  0  0
 26 22  2  0  0  0  0
 27 17  1  0  0  0  0
 29 28  1  6  0  0  0
 30 29  1  0  0  0  0
 32 31  1  0  0  0  0
 33 32  1  0  0  0  0
 33 34  1  0  0  0  0
M  END
>  <MODEL>
2

>  <REMARK>
 VINA RESULT:      -8.2      3.810      6.730
  Name = 
  6 active torsions:
  status: ('A' for Active; 'I' for Inactive)
    1  A    between atoms: C_3  and  N_24
    2  A    between atoms: N_7  and  C_15
    3  A    between atoms: C_8  and  C_17
    4  A    between atoms: C_8  and  C_18
    5  A    between atoms: N_24  and  C_25
    6  A    between atoms: C_25  and  C_27
                            x       y       z     vdW  Elec       q    Type
                         _______ _______ _______ _____ _____    ______ ____

>  <TORSDO>
F 6

$$$$
=
 OpenBabel11052420203D

 34 38  0  0  1  0  0  0  0  0999 V2000
  194.5290  176.3490  145.2410 O   0  0  0  0  0  0  0  0  0  0  0  0
  195.2160  171.5210  145.2120 C   0  0  0  0  0  2  0  0  0  0  0  0
  193.0300  172.6360  144.4590 C   0  0  0  0  0  2  0  0  0  0  0  0
  194.0430  175.1870  145.1900 C   0  0  0  0  0  0  0  0  0  0  0  0
  190.5870  175.1080  143.8550 C   0  0  0  0  0  2  0  0  0  0  0  0
  190.8380  173.7040  144.1960 N   0  0  0  0  0  0  0  0  0  0  0  0
  191.8040  175.9290  144.2490 C   0  0  2  0  0  3  0  0  0  0  0  0
  192.0500  173.6740  145.0080 C   0  0  2  0  0  3  0  0  0  0  0  0
  192.6450  174.9920  144.9470 N   0  0  0  0  0  0  0  0  0  0  0  0
  189.7440  173.2790  145.0510 C   0  0  0  0  0  1  0  0  0  0  0  0
  196.4330  171.6900  146.1180 C   0  0  0  0  0  2  0  0  0  0  0  0
  197.1930  172.9720  145.7820 C   0  0  2  0  0  3  0  0  0  0  0  0
  194.3880  172.7730  145.1020 C   0  0  0  0  0  0  0  0  0  0  0  0
  196.2780  174.1810  145.9600 C   0  0  0  0  0  2  0  0  0  0  0  0
  194.9020  173.9990  145.3660 C   0  0  0  0  0  0  0  0  0  0  0  0
  191.3970  177.0590  145.1850 C   0  0  0  0  0  2  0  0  0  0  0  0
  189.3990  178.1910  143.4980 F   0  0  0  0  0  0  0  0  0  0  0  0
  188.1580  176.3150  147.0000 C   0  0  0  0  0  3  0  0  0  0  0  0
  185.2790  177.6040  144.2460 N   0  0  0  0  0  0  0  0  0  0  0  0
  186.6160  178.1850  144.0660 C   0  0  0  0  0  2  0  0  0  0  0  0
  187.6270  177.5090  144.9520 C   0  0  0  0  0  0  0  0  0  0  0  0
  189.9380  176.9940  145.4990 C   0  0  0  0  0  0  0  0  0  0  0  0
  185.7540  176.7730  146.4950 C   0  0  0  0  0  2  0  0  0  0  0  0
  187.2110  176.8950  146.1520 C   0  0  0  0  0  0  0  0  0  0  0  0
  184.9040  177.7250  145.6550 C   0  0  0  0  0  2  0  0  0  0  0  0
  189.5160  176.3680  146.6770 C   0  0  0  0  0  3  0  0  0  0  0  0
  188.9930  177.5710  144.6370 C   0  0  0  0  0  0  0  0  0  0  0  0
  184.6390  178.2910  141.9750 C   0  0  0  0  0  1  0  0  0  0  0  0
  184.2870  178.3370  143.4510 C   0  0  2  0  0  3  0  0  0  0  0  0
  184.1570  179.6650  143.8750 O   0  0  0  0  0  1  0  0  0  0  0  0
  197.7810  172.9420  144.3760 C   0  0  0  0  0  2  0  0  0  0  0  0
  197.9410  174.2980  143.8730 N   0  0  0  0  0  2  0  0  0  0  0  0
  197.4590  174.3040  142.5030 C   0  0  0  0  0  2  0  0  0  0  0  0
  196.4510  175.4210  142.3170 C   0  0  0  0  0  1  0  0  0  0  0  0
  2 11  1  0  0  0  0
  3 13  1  0  0  0  0
  4  1  2  0  0  0  0
  4 15  1  0  0  0  0
  5  6  1  0  0  0  0
  5  7  1  0  0  0  0
  6  8  1  0  0  0  0
  6 10  1  0  0  0  0
  7  9  1  0  0  0  0
  7 16  1  1  0  0  0
  8  3  1  6  0  0  0
  9  8  1  0  0  0  0
  9  4  1  0  0  0  0
 12 31  1  6  0  0  0
 12 14  1  0  0  0  0
 12 11  1  0  0  0  0
 13  2  1  0  0  0  0
 13 15  2  0  0  0  0
 15 14  1  0  0  0  0
 16 22  1  0  0  0  0
 17 27  1  0  0  0  0
 19 25  1  0  0  0  0
 20 19  1  0  0  0  0
 20 21  1  0  0  0  0
 21 24  1  0  0  0  0
 22 26  2  0  0  0  0
 24 23  1  0  0  0  0
 24 18  2  0  0  0  0
 25 23  1  0  0  0  0
 26 18  1  0  0  0  0
 27 21  2  0  0  0  0
 27 22  1  0  0  0  0
 29 28  1  6  0  0  0
 29 30  1  0  0  0  0
 29 19  1  0  0  0  0
 32 31  1  0  0  0  0
 33 32  1  0  0  0  0
 34 33  1  0  0  0  0
M  END
>  <MODEL>
3

>  <REMARK>
 VINA RESULT:      -8.1      2.031      3.412
  Name = 
  6 active torsions:
  status: ('A' for Active; 'I' for Inactive)
    1  A    between atoms: C_3  and  N_24
    2  A    between atoms: N_7  and  C_15
    3  A    between atoms: C_8  and  C_17
    4  A    between atoms: C_8  and  C_18
    5  A    between atoms: N_24  and  C_25
    6  A    between atoms: C_25  and  C_27
                            x       y       z     vdW  Elec       q    Type
                         _______ _______ _______ _____ _____    ______ ____

>  <TORSDO>
F 6

$$$$
=
 OpenBabel11052420203D

 34 38  0  0  1  0  0  0  0  0999 V2000
  194.4720  176.4270  143.1930 O   0  0  0  0  0  0  0  0  0  0  0  0
  195.4400  172.3980  145.7620 C   0  0  0  0  0  2  0  0  0  0  0  0
  193.0790  173.0410  144.9920 C   0  0  0  0  0  2  0  0  0  0  0  0
  194.0610  175.4780  143.9130 C   0  0  0  0  0  0  0  0  0  0  0  0
  190.4120  174.9020  143.6230 C   0  0  0  0  0  2  0  0  0  0  0  0
  190.8180  173.9250  144.6390 N   0  0  0  0  0  0  0  0  0  0  0  0
  191.6300  175.7130  143.2150 C   0  0  2  0  0  3  0  0  0  0  0  0
  192.1750  174.2740  145.0470 C   0  0  2  0  0  3  0  0  0  0  0  0
  192.6580  175.2790  144.1250 N   0  0  0  0  0  0  0  0  0  0  0  0
  189.9600  174.1370  145.7910 C   0  0  0  0  0  1  0  0  0  0  0  0
  196.8100  172.9630  146.1310 C   0  0  0  0  0  2  0  0  0  0  0  0
  197.3970  173.7720  144.9760 C   0  0  2  0  0  3  0  0  0  0  0  0
  194.5310  173.4220  145.1400 C   0  0  0  0  0  0  0  0  0  0  0  0
  196.4670  174.9300  144.6250 C   0  0  0  0  0  2  0  0  0  0  0  0
  195.0100  174.5420  144.5460 C   0  0  0  0  0  0  0  0  0  0  0  0
  191.3610  177.2000  143.4050 C   0  0  0  0  0  2  0  0  0  0  0  0
  189.6530  177.5070  145.6640 F   0  0  0  0  0  0  0  0  0  0  0  0
  187.9640  177.8810  141.8790 C   0  0  0  0  0  3  0  0  0  0  0  0
  185.6350  178.7590  145.2470 N   0  0  0  0  0  0  0  0  0  0  0  0
  186.8580  177.9910  145.5180 C   0  0  0  0  0  2  0  0  0  0  0  0
  187.7320  177.9100  144.2970 C   0  0  0  0  0  0  0  0  0  0  0  0
  189.9030  177.5000  143.2840 C   0  0  0  0  0  0  0  0  0  0  0  0
  185.7040  178.3450  142.8390 C   0  0  0  0  0  2  0  0  0  0  0  0
  187.1580  178.0110  143.0120 C   0  0  0  0  0  0  0  0  0  0  0  0
  184.9250  178.1270  144.1350 C   0  0  0  0  0  2  0  0  0  0  0  0
  189.3300  177.6220  142.0140 C   0  0  0  0  0  3  0  0  0  0  0  0
  189.1030  177.6380  144.4290 C   0  0  0  0  0  0  0  0  0  0  0  0
  185.5250  179.0420  147.6850 C   0  0  0  0  0  1  0  0  0  0  0  0
  184.7470  178.7460  146.4140 C   0  0  2  0  0  3  0  0  0  0  0  0
  184.0650  177.5300  146.5380 O   0  0  0  0  0  1  0  0  0  0  0  0
  197.6730  172.9100  143.7500 C   0  0  0  0  0  2  0  0  0  0  0  0
  197.6780  173.7340  142.5510 N   0  0  0  0  0  2  0  0  0  0  0  0
  197.1120  172.9330  141.4800 C   0  0  0  0  0  2  0  0  0  0  0  0
  196.1060  171.9510  142.0490 C   0  0  0  0  0  1  0  0  0  0  0  0
  1  4  2  0  0  0  0
  2 11  1  0  0  0  0
  3 13  1  0  0  0  0
  4  9  1  0  0  0  0
  4 15  1  0  0  0  0
  5  6  1  0  0  0  0
  6  8  1  0  0  0  0
  6 10  1  0  0  0  0
  7 16  1  1  0  0  0
  7  5  1  0  0  0  0
  7  9  1  0  0  0  0
  8  3  1  6  0  0  0
  9  8  1  0  0  0  0
 12 31  1  6  0  0  0
 12 11  1  0  0  0  0
 13  2  1  0  0  0  0
 14 12  1  0  0  0  0
 15 14  1  0  0  0  0
 15 13  2  0  0  0  0
 18 26  2  0  0  0  0
 18 24  1  0  0  0  0
 19 20  1  0  0  0  0
 19 29  1  0  0  0  0
 21 27  1  0  0  0  0
 21 20  1  0  0  0  0
 22 16  1  0  0  0  0
 22 27  2  0  0  0  0
 23 24  1  0  0  0  0
 23 25  1  0  0  0  0
 24 21  2  0  0  0  0
 25 19  1  0  0  0  0
 26 22  1  0  0  0  0
 27 17  1  0  0  0  0
 29 30  1  0  0  0  0
 29 28  1  1  0  0  0
 32 31  1  0  0  0  0
 33 34  1  0  0  0  0
 33 32  1  0  0  0  0
M  END
>  <MODEL>
4

>  <REMARK>
 VINA RESULT:      -7.8      2.496      3.903
  Name = 
  6 active torsions:
  status: ('A' for Active; 'I' for Inactive)
    1  A    between atoms: C_3  and  N_24
    2  A    between atoms: N_7  and  C_15
    3  A    between atoms: C_8  and  C_17
    4  A    between atoms: C_8  and  C_18
    5  A    between atoms: N_24  and  C_25
    6  A    between atoms: C_25  and  C_27
                            x       y       z     vdW  Elec       q    Type
                         _______ _______ _______ _____ _____    ______ ____

>  <TORSDO>
F 6

$$$$
=
 OpenBabel11052420203D

 34 38  0  0  1  0  0  0  0  0999 V2000
  194.4930  176.4700  143.9790 O   0  0  0  0  0  0  0  0  0  0  0  0
  195.3870  171.9520  145.5780 C   0  0  0  0  0  2  0  0  0  0  0  0
  193.0570  172.7560  144.8650 C   0  0  0  0  0  2  0  0  0  0  0  0
  194.0590  175.3790  144.4370 C   0  0  0  0  0  0  0  0  0  0  0  0
  190.4350  174.8830  143.8410 C   0  0  0  0  0  2  0  0  0  0  0  0
  190.8050  173.6950  144.6190 N   0  0  0  0  0  0  0  0  0  0  0  0
  191.6620  175.7690  143.6950 C   0  0  2  0  0  3  0  0  0  0  0  0
  192.1370  173.9400  145.1630 C   0  0  2  0  0  3  0  0  0  0  0  0
  192.6510  175.1340  144.5270 N   0  0  0  0  0  0  0  0  0  0  0  0
  189.8910  173.6310  145.7450 C   0  0  0  0  0  1  0  0  0  0  0  0
  196.7310  172.4160  146.1360 C   0  0  0  0  0  2  0  0  0  0  0  0
  197.3620  173.4730  145.2330 C   0  0  2  0  0  3  0  0  0  0  0  0
  194.4960  173.0920  145.1690 C   0  0  0  0  0  0  0  0  0  0  0  0
  196.4360  174.6810  145.1180 C   0  0  0  0  0  2  0  0  0  0  0  0
  194.9890  174.3210  144.8780 C   0  0  0  0  0  0  0  0  0  0  0  0
  191.3660  177.1690  144.2140 C   0  0  0  0  0  2  0  0  0  0  0  0
  189.6650  177.8080  142.0190 F   0  0  0  0  0  0  0  0  0  0  0  0
  187.9420  177.5080  145.7950 C   0  0  0  0  0  3  0  0  0  0  0  0
  185.4630  177.9930  142.4550 N   0  0  0  0  0  0  0  0  0  0  0  0
  186.8790  178.3160  142.2330 C   0  0  0  0  0  2  0  0  0  0  0  0
  187.7220  177.9100  143.4100 C   0  0  0  0  0  0  0  0  0  0  0  0
  189.8950  177.3850  144.3640 C   0  0  0  0  0  0  0  0  0  0  0  0
  185.6670  178.0070  144.8910 C   0  0  0  0  0  2  0  0  0  0  0  0
  187.1460  177.8330  144.6950 C   0  0  0  0  0  0  0  0  0  0  0  0
  185.0180  178.6670  143.6760 C   0  0  0  0  0  2  0  0  0  0  0  0
  189.3120  177.2890  145.6320 C   0  0  0  0  0  3  0  0  0  0  0  0
  189.1010  177.7020  143.2510 C   0  0  0  0  0  0  0  0  0  0  0  0
  183.1640  178.2810  141.6380 C   0  0  0  0  0  1  0  0  0  0  0  0
  184.6400  178.4840  141.3440 C   0  0  2  0  0  3  0  0  0  0  0  0
  184.9800  177.8690  140.1330 O   0  0  0  0  0  1  0  0  0  0  0  0
  197.7060  172.9230  143.8540 C   0  0  0  0  0  2  0  0  0  0  0  0
  197.9410  174.0170  142.9240 N   0  0  0  0  0  2  0  0  0  0  0  0
  197.6020  173.5300  141.5980 C   0  0  0  0  0  2  0  0  0  0  0  0
  196.1260  173.1870  141.5380 C   0  0  0  0  0  1  0  0  0  0  0  0
  1  4  2  0  0  0  0
  2 11  1  0  0  0  0
  3 13  1  0  0  0  0
  4  9  1  0  0  0  0
  4 15  1  0  0  0  0
  5  6  1  0  0  0  0
  6  8  1  0  0  0  0
  6 10  1  0  0  0  0
  7  5  1  0  0  0  0
  7 16  1  1  0  0  0
  7  9  1  0  0  0  0
  8  3  1  6  0  0  0
  9  8  1  0  0  0  0
 12 31  1  6  0  0  0
 12 11  1  0  0  0  0
 13  2  1  0  0  0  0
 14 12  1  0  0  0  0
 15 14  1  0  0  0  0
 15 13  2  0  0  0  0
 16 22  1  0  0  0  0
 17 27  1  0  0  0  0
 19 25  1  0  0  0  0
 20 19  1  0  0  0  0
 20 21  1  0  0  0  0
 21 24  1  0  0  0  0
 22 26  2  0  0  0  0
 24 23  1  0  0  0  0
 24 18  2  0  0  0  0
 25 23  1  0  0  0  0
 26 18  1  0  0  0  0
 27 21  2  0  0  0  0
 27 22  1  0  0  0  0
 29 28  1  1  0  0  0
 29 19  1  0  0  0  0
 30 29  1  0  0  0  0
 32 31  1  0  0  0  0
 33 32  1  0  0  0  0
 34 33  1  0  0  0  0
M  END
>  <MODEL>
5

>  <REMARK>
 VINA RESULT:      -7.7      2.430      3.682
  Name = 
  6 active torsions:
  status: ('A' for Active; 'I' for Inactive)
    1  A    between atoms: C_3  and  N_24
    2  A    between atoms: N_7  and  C_15
    3  A    between atoms: C_8  and  C_17
    4  A    between atoms: C_8  and  C_18
    5  A    between atoms: N_24  and  C_25
    6  A    between atoms: C_25  and  C_27
                            x       y       z     vdW  Elec       q    Type
                         _______ _______ _______ _____ _____    ______ ____

>  <TORSDO>
F 6

$$$$
=
 OpenBabel11052420203D

 34 38  0  0  1  0  0  0  0  0999 V2000
  192.7880  172.5530  144.7680 O   0  0  0  0  0  0  0  0  0  0  0  0
  196.4070  174.9410  142.5370 C   0  0  0  0  0  2  0  0  0  0  0  0
  194.4550  176.1230  143.7110 C   0  0  0  0  0  2  0  0  0  0  0  0
  193.2320  173.6200  144.2660 C   0  0  0  0  0  0  0  0  0  0  0  0
  191.3940  176.6360  145.3880 C   0  0  0  0  0  2  0  0  0  0  0  0
  192.3620  177.1800  144.4300 N   0  0  0  0  0  0  0  0  0  0  0  0
  191.5500  175.1250  145.4310 C   0  0  2  0  0  3  0  0  0  0  0  0
  192.9270  176.0460  143.7050 C   0  0  2  0  0  3  0  0  0  0  0  0
  192.4940  174.8420  144.3810 N   0  0  0  0  0  0  0  0  0  0  0  0
  191.6050  177.9630  143.4690 C   0  0  0  0  0  1  0  0  0  0  0  0
  196.8150  173.6540  141.8230 C   0  0  0  0  0  2  0  0  0  0  0  0
  196.6100  172.4390  142.7250 C   0  0  2  0  0  3  0  0  0  0  0  0
  195.0680  174.8370  143.2150 C   0  0  0  0  0  0  0  0  0  0  0  0
  195.1410  172.3320  143.1280 C   0  0  0  0  0  2  0  0  0  0  0  0
  194.5280  173.6420  143.5590 C   0  0  0  0  0  0  0  0  0  0  0  0
  190.2190  174.4470  145.1310 C   0  0  0  0  0  2  0  0  0  0  0  0
  188.5680  176.0400  143.4420 F   0  0  0  0  0  0  0  0  0  0  0  0
  187.7520  176.0370  147.5230 C   0  0  0  0  0  3  0  0  0  0  0  0
  185.1120  177.9800  144.9160 N   0  0  0  0  0  0  0  0  0  0  0  0
  186.4350  177.6790  144.3530 C   0  0  0  0  0  2  0  0  0  0  0  0
  187.2320  176.7980  145.2750 C   0  0  0  0  0  0  0  0  0  0  0  0
  189.0770  175.2610  145.6470 C   0  0  0  0  0  0  0  0  0  0  0  0
  185.8170  177.5890  147.2240 C   0  0  0  0  0  2  0  0  0  0  0  0
  186.9740  176.8150  146.6620 C   0  0  0  0  0  0  0  0  0  0  0  0
  185.2940  178.6160  146.2210 C   0  0  0  0  0  2  0  0  0  0  0  0
  188.8020  175.2660  147.0180 C   0  0  0  0  0  3  0  0  0  0  0  0
  188.2960  176.0320  144.7730 C   0  0  0  0  0  0  0  0  0  0  0  0
  184.1030  178.2950  142.6990 C   0  0  0  0  0  1  0  0  0  0  0  0
  184.3840  178.9180  144.0550 C   0  0  2  0  0  3  0  0  0  0  0  0
  185.0760  180.1250  143.8970 O   0  0  0  0  0  1  0  0  0  0  0  0
  197.5060  172.4770  143.9570 C   0  0  0  0  0  2  0  0  0  0  0  0
  197.1680  171.3840  144.8540 N   0  0  0  0  0  2  0  0  0  0  0  0
  196.8040  171.9760  146.1300 C   0  0  0  0  0  2  0  0  0  0  0  0
  197.1820  173.4450  146.1420 C   0  0  0  0  0  1  0  0  0  0  0  0
  2 13  1  0  0  0  0
  4  9  1  0  0  0  0
  4  1  2  0  0  0  0
  5  7  1  0  0  0  0
  6  5  1  0  0  0  0
  7 16  1  6  0  0  0
  8  3  1  1  0  0  0
  8  9  1  0  0  0  0
  8  6  1  0  0  0  0
  9  7  1  0  0  0  0
 10  6  1  0  0  0  0
 11  2  1  0  0  0  0
 11 12  1  0  0  0  0
 12 14  1  0  0  0  0
 12 31  1  1  0  0  0
 13 15  2  0  0  0  0
 13  3  1  0  0  0  0
 14 15  1  0  0  0  0
 15  4  1  0  0  0  0
 16 22  1  0  0  0  0
 17 27  1  0  0  0  0
 19 25  1  0  0  0  0
 20 19  1  0  0  0  0
 20 21  1  0  0  0  0
 21 24  1  0  0  0  0
 22 26  2  0  0  0  0
 24 23  1  0  0  0  0
 24 18  2  0  0  0  0
 25 23  1  0  0  0  0
 26 18  1  0  0  0  0
 27 21  2  0  0  0  0
 27 22  1  0  0  0  0
 29 28  1  6  0  0  0
 29 19  1  0  0  0  0
 30 29  1  0  0  0  0
 31 32  1  0  0  0  0
 32 33  1  0  0  0  0
 33 34  1  0  0  0  0
M  END
>  <MODEL>
6

>  <REMARK>
 VINA RESULT:      -7.7      1.793      2.361
  Name = 
  6 active torsions:
  status: ('A' for Active; 'I' for Inactive)
    1  A    between atoms: C_3  and  N_24
    2  A    between atoms: N_7  and  C_15
    3  A    between atoms: C_8  and  C_17
    4  A    between atoms: C_8  and  C_18
    5  A    between atoms: N_24  and  C_25
    6  A    between atoms: C_25  and  C_27
                            x       y       z     vdW  Elec       q    Type
                         _______ _______ _______ _____ _____    ______ ____

>  <TORSDO>
F 6

$$$$
=
 OpenBabel11052420203D

 34 38  0  0  1  0  0  0  0  0999 V2000
  190.7800  174.9540  142.3130 O   0  0  0  0  0  0  0  0  0  0  0  0
  194.3580  172.5590  140.0250 C   0  0  0  0  0  2  0  0  0  0  0  0
  194.7080  173.8590  142.2090 C   0  0  0  0  0  2  0  0  0  0  0  0
  192.0130  174.7520  142.1460 C   0  0  0  0  0  0  0  0  0  0  0  0
  194.0850  175.9660  144.9690 C   0  0  0  0  0  2  0  0  0  0  0  0
  195.0850  175.4740  144.0170 N   0  0  0  0  0  0  0  0  0  0  0  0
  192.7060  175.8080  144.3500 C   0  0  2  0  0  3  0  0  0  0  0  0
  194.3960  175.2550  142.7490 C   0  0  2  0  0  3  0  0  0  0  0  0
  192.9760  175.3770  143.0030 N   0  0  0  0  0  0  0  0  0  0  0  0
  196.0310  176.5560  143.8050 C   0  0  0  0  0  1  0  0  0  0  0  0
  193.4990  172.4810  138.7650 C   0  0  0  0  0  2  0  0  0  0  0  0
  192.0240  172.3020  139.1180 C   0  0  2  0  0  3  0  0  0  0  0  0
  193.8040  173.5050  141.0550 C   0  0  0  0  0  0  0  0  0  0  0  0
  191.5450  173.4770  139.9660 C   0  0  0  0  0  2  0  0  0  0  0  0
  192.4960  173.8580  141.0750 C   0  0  0  0  0  0  0  0  0  0  0  0
  191.9790  177.1470  144.3320 C   0  0  0  0  0  2  0  0  0  0  0  0
  189.5860  178.2910  143.2940 F   0  0  0  0  0  0  0  0  0  0  0  0
  189.3720  176.3070  146.9450 C   0  0  0  0  0  3  0  0  0  0  0  0
  185.8350  177.6230  145.1300 N   0  0  0  0  0  0  0  0  0  0  0  0
  187.0670  178.2280  144.6060 C   0  0  0  0  0  2  0  0  0  0  0  0
  188.2880  177.5450  145.1590 C   0  0  0  0  0  0  0  0  0  0  0  0
  190.6640  177.0510  145.0340 C   0  0  0  0  0  0  0  0  0  0  0  0
  186.9190  176.7410  147.1360 C   0  0  0  0  0  2  0  0  0  0  0  0
  188.2240  176.8940  146.4090 C   0  0  0  0  0  0  0  0  0  0  0  0
  185.8630  177.7010  146.5910 C   0  0  0  0  0  2  0  0  0  0  0  0
  190.5880  176.3890  146.2630 C   0  0  0  0  0  3  0  0  0  0  0  0
  189.5140  177.6360  144.4820 C   0  0  0  0  0  0  0  0  0  0  0  0
  185.0710  179.6300  143.9360 C   0  0  0  0  0  1  0  0  0  0  0  0
  184.6570  178.3610  144.6610 C   0  0  2  0  0  3  0  0  0  0  0  0
  183.7820  178.6680  145.7100 O   0  0  0  0  0  1  0  0  0  0  0  0
  191.7570  170.9800  139.8280 C   0  0  0  0  0  2  0  0  0  0  0  0
  190.4420  171.0020  140.4480 N   0  0  0  0  0  2  0  0  0  0  0  0
  190.6140  170.5870  141.8300 C   0  0  0  0  0  2  0  0  0  0  0  0
  189.8760  171.5410  142.7490 C   0  0  0  0  0  1  0  0  0  0  0  0
  2 13  1  0  0  0  0
  4  1  2  0  0  0  0
  4  9  1  0  0  0  0
  6  5  1  0  0  0  0
  7 16  1  6  0  0  0
  7  5  1  0  0  0  0
  8  3  1  1  0  0  0
  8  9  1  0  0  0  0
  8  6  1  0  0  0  0
  9  7  1  0  0  0  0
 10  6  1  0  0  0  0
 11 12  1  0  0  0  0
 11  2  1  0  0  0  0
 12 31  1  1  0  0  0
 12 14  1  0  0  0  0
 13 15  2  0  0  0  0
 13  3  1  0  0  0  0
 14 15  1  0  0  0  0
 15  4  1  0  0  0  0
 16 22  1  0  0  0  0
 17 27  1  0  0  0  0
 19 25  1  0  0  0  0
 20 19  1  0  0  0  0
 20 21  1  0  0  0  0
 21 24  2  0  0  0  0
 22 26  1  0  0  0  0
 24 18  1  0  0  0  0
 24 23  1  0  0  0  0
 25 23  1  0  0  0  0
 26 18  2  0  0  0  0
 27 22  2  0  0  0  0
 27 21  1  0  0  0  0
 29 28  1  1  0  0  0
 29 19  1  0  0  0  0
 29 30  1  0  0  0  0
 31 32  1  0  0  0  0
 32 33  1  0  0  0  0
 33 34  1  0  0  0  0
M  END
>  <MODEL>
7

>  <REMARK>
 VINA RESULT:      -7.6      3.338      4.129
  Name = 
  6 active torsions:
  status: ('A' for Active; 'I' for Inactive)
    1  A    between atoms: C_3  and  N_24
    2  A    between atoms: N_7  and  C_15
    3  A    between atoms: C_8  and  C_17
    4  A    between atoms: C_8  and  C_18
    5  A    between atoms: N_24  and  C_25
    6  A    between atoms: C_25  and  C_27
                            x       y       z     vdW  Elec       q    Type
                         _______ _______ _______ _____ _____    ______ ____

>  <TORSDO>
F 6

$$$$
=
 OpenBabel11052420203D

 34 38  0  0  1  0  0  0  0  0999 V2000
  192.5970  172.6120  145.0110 O   0  0  0  0  0  0  0  0  0  0  0  0
  196.0070  175.0190  142.4910 C   0  0  0  0  0  2  0  0  0  0  0  0
  194.1270  176.1900  143.7860 C   0  0  0  0  0  2  0  0  0  0  0  0
  192.9870  173.6780  144.4630 C   0  0  0  0  0  0  0  0  0  0  0  0
  191.1870  176.6830  145.6730 C   0  0  0  0  0  2  0  0  0  0  0  0
  192.0750  177.2270  144.6400 N   0  0  0  0  0  0  0  0  0  0  0  0
  191.3700  175.1750  145.7260 C   0  0  2  0  0  3  0  0  0  0  0  0
  192.6050  176.0910  143.8920 C   0  0  2  0  0  3  0  0  0  0  0  0
  192.2400  174.8910  144.6140 N   0  0  0  0  0  0  0  0  0  0  0  0
  191.2380  177.9840  143.7250 C   0  0  0  0  0  1  0  0  0  0  0  0
  196.3830  173.7280  141.7670 C   0  0  0  0  0  2  0  0  0  0  0  0
  196.2620  172.5230  142.6980 C   0  0  2  0  0  3  0  0  0  0  0  0
  194.7220  174.9060  143.2650 C   0  0  0  0  0  0  0  0  0  0  0  0
  194.8290  172.4010  143.2080 C   0  0  0  0  0  2  0  0  0  0  0  0
  194.2280  173.7090  143.6640 C   0  0  0  0  0  0  0  0  0  0  0  0
  190.0320  174.4740  145.5330 C   0  0  0  0  0  2  0  0  0  0  0  0
  189.1980  175.2800  142.9310 F   0  0  0  0  0  0  0  0  0  0  0  0
  187.2840  176.9900  146.2070 C   0  0  0  0  0  3  0  0  0  0  0  0
  185.8270  177.7690  142.3590 N   0  0  0  0  0  0  0  0  0  0  0  0
  187.1880  177.2190  142.4100 C   0  0  0  0  0  2  0  0  0  0  0  0
  187.5430  176.7710  143.8020 C   0  0  0  0  0  0  0  0  0  0  0  0
  188.9380  175.4650  145.3030 C   0  0  0  0  0  0  0  0  0  0  0  0
  185.7860  178.3430  144.7340 C   0  0  0  0  0  2  0  0  0  0  0  0
  186.9140  177.3680  144.9140 C   0  0  0  0  0  0  0  0  0  0  0  0
  185.7370  178.8810  143.3050 C   0  0  0  0  0  2  0  0  0  0  0  0
  188.2950  176.0460  146.4010 C   0  0  0  0  0  3  0  0  0  0  0  0
  188.5670  175.8320  144.0000 C   0  0  0  0  0  0  0  0  0  0  0  0
  184.0340  178.2900  140.7620 C   0  0  0  0  0  1  0  0  0  0  0  0
  185.5300  178.2910  141.0200 C   0  0  2  0  0  3  0  0  0  0  0  0
  186.1930  177.5690  140.0200 O   0  0  0  0  0  1  0  0  0  0  0  0
  197.2450  172.5930  143.8610 C   0  0  0  0  0  2  0  0  0  0  0  0
  196.9070  171.5920  144.8610 N   0  0  0  0  0  2  0  0  0  0  0  0
  196.8140  172.2790  146.1380 C   0  0  0  0  0  2  0  0  0  0  0  0
  197.1870  173.7390  145.9650 C   0  0  0  0  0  1  0  0  0  0  0  0
  2 13  1  0  0  0  0
  4  9  1  0  0  0  0
  4  1  2  0  0  0  0
  5  7  1  0  0  0  0
  6  5  1  0  0  0  0
  7 16  1  6  0  0  0
  8  3  1  1  0  0  0
  8  9  1  0  0  0  0
  8  6  1  0  0  0  0
  9  7  1  0  0  0  0
 10  6  1  0  0  0  0
 11  2  1  0  0  0  0
 11 12  1  0  0  0  0
 12 14  1  0  0  0  0
 12 31  1  1  0  0  0
 13 15  2  0  0  0  0
 13  3  1  0  0  0  0
 14 15  1  0  0  0  0
 15  4  1  0  0  0  0
 17 27  1  0  0  0  0
 18 26  1  0  0  0  0
 19 20  1  0  0  0  0
 19 25  1  0  0  0  0
 20 21  1  0  0  0  0
 21 27  2  0  0  0  0
 21 24  1  0  0  0  0
 22 16  1  0  0  0  0
 22 26  2  0  0  0  0
 23 24  1  0  0  0  0
 24 18  2  0  0  0  0
 25 23  1  0  0  0  0
 27 22  1  0  0  0  0
 29 28  1  6  0  0  0
 29 19  1  0  0  0  0
 30 29  1  0  0  0  0
 31 32  1  0  0  0  0
 32 33  1  0  0  0  0
 34 33  1  0  0  0  0
M  END
>  <MODEL>
8

>  <REMARK>
 VINA RESULT:      -7.6      2.165      2.878
  Name = 
  6 active torsions:
  status: ('A' for Active; 'I' for Inactive)
    1  A    between atoms: C_3  and  N_24
    2  A    between atoms: N_7  and  C_15
    3  A    between atoms: C_8  and  C_17
    4  A    between atoms: C_8  and  C_18
    5  A    between atoms: N_24  and  C_25
    6  A    between atoms: C_25  and  C_27
                            x       y       z     vdW  Elec       q    Type
                         _______ _______ _______ _____ _____    ______ ____

>  <TORSDO>
F 6

$$$$
=
 OpenBabel11052420203D

 34 38  0  0  1  0  0  0  0  0999 V2000
  186.9190  175.5000  143.7620 O   0  0  0  0  0  0  0  0  0  0  0  0
  187.0230  178.4470  147.6450 C   0  0  0  0  0  2  0  0  0  0  0  0
  189.1380  177.5130  146.5320 C   0  0  0  0  0  2  0  0  0  0  0  0
  187.5540  175.9810  144.7390 C   0  0  0  0  0  0  0  0  0  0  0  0
  191.2280  175.6220  144.4100 C   0  0  0  0  0  2  0  0  0  0  0  0
  191.0770  176.2430  145.7300 N   0  0  0  0  0  0  0  0  0  0  0  0
  189.8460  175.3690  143.8310 C   0  0  2  0  0  3  0  0  0  0  0  0
  189.6640  176.1480  146.0860 C   0  0  2  0  0  3  0  0  0  0  0  0
  188.9500  175.7080  144.9060 N   0  0  0  0  0  0  0  0  0  0  0  0
  191.8080  175.4110  146.6700 C   0  0  0  0  0  1  0  0  0  0  0  0
  185.5400  178.1760  147.8900 C   0  0  0  0  0  2  0  0  0  0  0  0
  184.7880  178.0230  146.5690 C   0  0  2  0  0  3  0  0  0  0  0  0
  187.6330  177.5090  146.6400 C   0  0  0  0  0  0  0  0  0  0  0  0
  185.3720  176.8620  145.7680 C   0  0  0  0  0  2  0  0  0  0  0  0
  186.8810  176.8480  145.7270 C   0  0  0  0  0  0  0  0  0  0  0  0
  189.6880  173.8980  143.4670 C   0  0  0  0  0  2  0  0  0  0  0  0
  190.8380  171.7850  141.9410 F   0  0  0  0  0  0  0  0  0  0  0  0
  188.4230  174.5310  139.9550 C   0  0  0  0  0  3  0  0  0  0  0  0
  189.7840  171.1470  137.8960 N   0  0  0  0  0  0  0  0  0  0  0  0
  190.5030  171.4500  139.1410 C   0  0  0  0  0  2  0  0  0  0  0  0
  189.8150  172.5400  139.9160 C   0  0  0  0  0  0  0  0  0  0  0  0
  189.4490  173.7330  142.0010 C   0  0  0  0  0  0  0  0  0  0  0  0
  188.7190  173.3450  137.7750 C   0  0  0  0  0  2  0  0  0  0  0  0
  189.0170  173.4870  139.2400 C   0  0  0  0  0  0  0  0  0  0  0  0
  189.6880  172.3730  137.1030 C   0  0  0  0  0  2  0  0  0  0  0  0
  188.6420  174.6560  141.3280 C   0  0  0  0  0  3  0  0  0  0  0  0
  190.0430  172.6760  141.2940 C   0  0  0  0  0  0  0  0  0  0  0  0
  190.4580  168.7880  137.7650 C   0  0  0  0  0  1  0  0  0  0  0  0
  190.5170  170.1540  137.1040 C   0  0  2  0  0  3  0  0  0  0  0  0
  191.8490  170.5320  136.8970 O   0  0  0  0  0  1  0  0  0  0  0  0
  184.7980  179.3060  145.7470 C   0  0  0  0  0  2  0  0  0  0  0  0
  184.5230  179.0060  144.3510 N   0  0  0  0  0  2  0  0  0  0  0  0
  185.5610  179.6500  143.5640 C   0  0  0  0  0  2  0  0  0  0  0  0
  186.1380  178.6640  142.5670 C   0  0  0  0  0  1  0  0  0  0  0  0
  1  4  2  0  0  0  0
  2 11  1  0  0  0  0
  3 13  1  0  0  0  0
  4  9  1  0  0  0  0
  4 15  1  0  0  0  0
  5  6  1  0  0  0  0
  6  8  1  0  0  0  0
  6 10  1  0  0  0  0
  7 16  1  1  0  0  0
  7  5  1  0  0  0  0
  7  9  1  0  0  0  0
  8  3  1  6  0  0  0
  9  8  1  0  0  0  0
 12 31  1  6  0  0  0
 12 11  1  0  0  0  0
 13  2  1  0  0  0  0
 14 12  1  0  0  0  0
 15 14  1  0  0  0  0
 15 13  2  0  0  0  0
 18 26  1  0  0  0  0
 19 20  1  0  0  0  0
 20 21  1  0  0  0  0
 21 27  2  0  0  0  0
 22 16  1  0  0  0  0
 23 24  1  0  0  0  0
 24 21  1  0  0  0  0
 24 18  2  0  0  0  0
 25 23  1  0  0  0  0
 25 19  1  0  0  0  0
 26 22  2  0  0  0  0
 27 17  1  0  0  0  0
 27 22  1  0  0  0  0
 29 28  1  1  0  0  0
 29 19  1  0  0  0  0
 30 29  1  0  0  0  0
 32 31  1  0  0  0  0
 33 32  1  0  0  0  0
 34 33  1  0  0  0  0
M  END
>  <MODEL>
9

>  <REMARK>
 VINA RESULT:      -7.3      4.585      9.639
  Name = 
  6 active torsions:
  status: ('A' for Active; 'I' for Inactive)
    1  A    between atoms: C_3  and  N_24
    2  A    between atoms: N_7  and  C_15
    3  A    between atoms: C_8  and  C_17
    4  A    between atoms: C_8  and  C_18
    5  A    between atoms: N_24  and  C_25
    6  A    between atoms: C_25  and  C_27
                            x       y       z     vdW  Elec       q    Type
                         _______ _______ _______ _____ _____    ______ ____

>  <TORSDO>
F 6

$$$$
