=
 OpenBabel11052419343D

 55 62  0  0  1  0  0  0  0  0999 V2000
  194.1030  173.9680  142.2520 O   0  0  0  0  0  0  0  0  0  0  0  0
  190.3640  172.3550  144.2440 C   0  0  0  0  0  2  0  0  0  0  0  0
  191.7020  171.5670  142.4370 O   0  0  0  0  0  0  0  0  0  0  0  0
  189.1560  172.6960  140.2190 C   0  0  0  0  0  2  0  0  0  0  0  0
  188.1630  172.5580  139.0710 C   0  0  0  0  0  2  0  0  0  0  0  0
  190.9070  173.2230  138.5140 C   0  0  0  0  0  0  0  0  0  0  0  0
  190.1170  172.4550  137.5390 C   0  0  0  0  0  3  0  0  0  0  0  0
  190.9180  173.7620  142.2040 N   0  0  0  0  0  2  0  0  0  0  0  0
  188.8540  172.1110  137.8100 C   0  0  0  0  0  3  0  0  0  0  0  0
  195.0430  172.9700  144.3400 C   0  0  0  0  0  2  0  0  0  0  0  0
  190.2670  173.6740  139.8070 C   0  0  2  0  0  3  0  0  0  0  0  0
  194.5010  175.4180  145.7180 C   0  0  1  0  0  3  0  0  0  0  0  0
  193.4420  174.9810  141.5050 C   0  0  0  0  0  2  0  0  0  0  0  0
  194.2340  175.2870  144.2380 C   0  0  0  0  0  3  0  0  0  0  0  0
  193.0080  174.1690  139.2020 C   0  0  0  0  0  0  0  0  0  0  0  0
  190.2950  174.5590  145.4050 C   0  0  0  0  0  2  0  0  0  0  0  0
  192.1510  173.5010  138.2620 N   0  0  0  0  0  0  0  0  0  0  0  0
  190.9800  173.2080  145.3440 C   0  0  0  0  0  2  0  0  0  0  0  0
  191.0600  172.5370  142.9350 C   0  0  0  0  0  0  0  0  0  0  0  0
  196.1780  173.4750  145.2340 C   0  0  0  0  0  2  0  0  0  0  0  0
  190.8020  175.3700  146.5940 C   0  0  1  0  0  3  0  0  0  0  0  0
  194.4540  174.1300  143.5930 C   0  0  0  0  0  0  0  0  0  0  0  0
  191.2840  173.8400  140.8510 N   0  0  0  0  0  0  0  0  0  0  0  0
  192.5820  174.3430  140.4720 C   0  0  0  0  0  0  0  0  0  0  0  0
  192.1450  176.0230  146.2890 C   0  0  0  0  0  2  0  0  0  0  0  0
  193.2630  174.9880  146.4760 C   0  0  0  0  0  2  0  0  0  0  0  0
  195.7040  174.5790  146.1990 C   0  0  0  0  0  2  0  0  0  0  0  0
  194.3710  175.1560  137.3430 C   0  0  0  0  0  3  0  0  0  0  0  0
  196.5950  174.1210  136.8040 C   0  0  1  0  0  3  0  0  0  0  0  0
  195.4250  173.4510  138.9170 C   0  0  0  0  0  2  0  0  0  0  0  0
  196.7540  173.8970  138.3190 C   0  0  0  0  0  2  0  0  0  0  0  0
  195.3960  174.9940  136.4920 C   0  0  0  0  0  3  0  0  0  0  0  0
  194.3820  174.5570  138.7300 C   0  0  2  0  0  3  0  0  0  0  0  0
  197.8700  174.7060  136.1810 C   0  0  1  0  0  3  0  0  0  0  0  0
  197.9130  174.4460  134.6840 C   0  0  0  0  0  1  0  0  0  0  0  0
  197.9300  176.1420  136.4070 N   0  0  0  0  0  1  0  0  0  0  0  0
  189.7810  176.4360  146.9420 C   0  0  0  0  0  2  0  0  0  0  0  0
  188.4840  176.0830  146.3670 N   0  0  0  0  0  2  0  0  0  0  0  0
  187.0760  177.6390  147.4220 O   0  0  0  0  0  1  0  0  0  0  0  0
  187.6340  177.2710  146.1940 C   0  0  1  0  0  0  0  0  0  0  0  0
  188.4080  178.3210  145.7190 F   0  0  0  0  0  0  0  0  0  0  0  0
  184.5820  177.6650  143.5290 C   0  0  0  0  0  2  0  0  0  0  0  0
  186.4840  176.9040  145.2160 C   0  0  1  0  0  0  0  0  0  0  0  0
  188.2410  176.6980  143.5010 O   0  0  0  0  0  0  0  0  0  0  0  0
  186.8970  176.3940  143.8300 C   0  0  2  0  0  3  0  0  0  0  0  0
  188.2750  177.8950  142.7350 C   0  0  0  0  0  2  0  0  0  0  0  0
  186.0300  177.4250  143.1700 C   0  0  1  0  0  0  0  0  0  0  0  0
  185.6270  175.9700  145.8190 O   0  0  0  0  0  1  0  0  0  0  0  0
  186.8720  178.3300  142.3320 C   0  0  2  0  0  3  0  0  0  0  0  0
  185.6480  178.0230  144.5640 C   0  0  1  0  0  0  0  0  0  0  0  0
  186.0800  179.4380  144.7120 N   0  0  0  0  0  0  0  0  0  0  0  0
  185.9260  179.7740  146.0140 O   0  0  0  0  0  1  0  0  0  0  0  0
  185.1970  180.3470  143.9770 C   0  0  0  0  0  1  0  0  0  0  0  0
  186.6540  178.0070  140.9300 N   0  0  0  0  0  2  0  0  0  0  0  0
  185.2850  178.1860  140.6780 N   0  0  0  0  0  1  0  0  0  0  0  0
  1 22  1  0  0  0  0
  2 18  1  0  0  0  0
  3 19  2  0  0  0  0
  5  4  1  0  0  0  0
  6 11  1  0  0  0  0
  7  9  2  0  0  0  0
  7  6  1  0  0  0  0
  8 19  1  0  0  0  0
  9  5  1  0  0  0  0
 10 20  1  0  0  0  0
 11  4  1  1  0  0  0
 11 23  1  0  0  0  0
 12 14  1  6  0  0  0
 12 27  1  0  0  0  0
 12 26  1  0  0  0  0
 13  1  1  0  0  0  0
 15 24  2  0  0  0  0
 16 21  1  0  0  0  0
 17  6  2  0  0  0  0
 17 15  1  0  0  0  0
 18 16  1  0  0  0  0
 19  2  1  0  0  0  0
 20 27  1  0  0  0  0
 21 37  1  6  0  0  0
 22 14  2  0  0  0  0
 22 10  1  0  0  0  0
 23  8  1  0  0  0  0
 24 23  1  0  0  0  0
 24 13  1  0  0  0  0
 25 26  1  0  0  0  0
 25 21  1  0  0  0  0
 28 33  1  0  0  0  0
 29 34  1  1  0  0  0
 29 31  1  0  0  0  0
 31 30  1  0  0  0  0
 32 29  1  0  0  0  0
 32 28  2  0  0  0  0
 33 30  1  0  0  0  0
 33 15  1  6  0  0  0
 34 35  1  6  0  0  0
 34 36  1  0  0  0  0
 38 37  1  0  0  0  0
 40 41  1  6  0  0  0
 40 38  1  0  0  0  0
 40 39  1  0  0  0  0
 42 50  1  0  0  0  0
 43 48  1  1  0  0  0
 43 40  1  0  0  0  0
 45 44  1  6  0  0  0
 45 43  1  0  0  0  0
 46 44  1  0  0  0  0
 47 42  1  6  0  0  0
 47 45  1  0  0  0  0
 47 50  1  0  0  0  0
 49 54  1  6  0  0  0
 49 46  1  0  0  0  0
 49 47  1  0  0  0  0
 50 51  1  1  0  0  0
 50 43  1  0  0  0  0
 51 52  1  0  0  0  0
 53 51  1  0  0  0  0
 55 54  1  0  0  0  0
M  END
>  <MODEL>
1

>  <REMARK>
 VINA RESULT:      -8.2      0.000      0.000
  Name = 
  8 active torsions:
  status: ('A' for Active; 'I' for Inactive)
    1  A    between atoms: N_1  and  C_53
    2  A    between atoms: C_6  and  C_20
    3  A    between atoms: C_8  and  N_22
    4  A    between atoms: C_8  and  C_43
    5  A    between atoms: C_10  and  C_32
    6  A    between atoms: N_11  and  C_50
    7  A    between atoms: C_20  and  N_22
    8  A    between atoms: C_33  and  C_52
                            x       y       z     vdW  Elec       q    Type
                         _______ _______ _______ _____ _____    ______ ____

>  <TORSDO>
F 8

$$$$
=
 OpenBabel11052419343D

 55 62  0  0  1  0  0  0  0  0999 V2000
  194.7340  173.9020  140.2660 O   0  0  0  0  0  0  0  0  0  0  0  0
  194.4330  171.2520  143.9310 C   0  0  0  0  0  2  0  0  0  0  0  0
  194.8770  170.7940  141.6370 O   0  0  0  0  0  0  0  0  0  0  0  0
  191.5480  169.5590  141.3650 C   0  0  0  0  0  2  0  0  0  0  0  0
  190.4790  168.5390  140.9900 C   0  0  0  0  0  2  0  0  0  0  0  0
  191.4630  170.3750  139.0030 C   0  0  0  0  0  0  0  0  0  0  0  0
  190.9980  169.0360  138.6110 C   0  0  0  0  0  3  0  0  0  0  0  0
  192.9020  171.9850  142.0430 N   0  0  0  0  0  2  0  0  0  0  0  0
  190.5760  168.1660  139.5350 C   0  0  0  0  0  3  0  0  0  0  0  0
  196.9400  174.3180  141.3610 C   0  0  0  0  0  2  0  0  0  0  0  0
  191.4100  170.7890  140.4560 C   0  0  2  0  0  3  0  0  0  0  0  0
  195.7260  176.3570  142.9610 C   0  0  1  0  0  3  0  0  0  0  0  0
  193.3330  174.0830  140.1040 C   0  0  0  0  0  2  0  0  0  0  0  0
  194.9360  175.6330  141.8990 C   0  0  0  0  0  3  0  0  0  0  0  0
  192.4740  172.4770  138.4200 C   0  0  0  0  0  0  0  0  0  0  0  0
  193.5580  173.2920  145.0650 C   0  0  0  0  0  2  0  0  0  0  0  0
  191.9230  171.1890  138.1020 N   0  0  0  0  0  0  0  0  0  0  0  0
  194.7980  172.6030  144.5320 C   0  0  0  0  0  2  0  0  0  0  0  0
  194.1130  171.3520  142.4760 C   0  0  0  0  0  0  0  0  0  0  0  0
  197.7410  175.6170  141.4730 C   0  0  0  0  0  2  0  0  0  0  0  0
  193.9260  174.5780  145.7980 C   0  0  1  0  0  3  0  0  0  0  0  0
  195.4900  174.6510  141.1690 C   0  0  0  0  0  0  0  0  0  0  0  0
  192.4250  171.8110  140.7340 N   0  0  0  0  0  0  0  0  0  0  0  0
  192.7150  172.7870  139.7130 C   0  0  0  0  0  0  0  0  0  0  0  0
  194.1850  175.7200  144.8210 C   0  0  0  0  0  2  0  0  0  0  0  0
  195.6090  175.5910  144.2620 C   0  0  0  0  0  2  0  0  0  0  0  0
  197.2190  176.5210  142.6060 C   0  0  0  0  0  2  0  0  0  0  0  0
  194.3240  173.6510  137.2010 C   0  0  0  0  0  3  0  0  0  0  0  0
  193.9210  175.9850  136.3680 C   0  0  1  0  0  3  0  0  0  0  0  0
  191.9730  174.6350  137.1850 C   0  0  0  0  0  2  0  0  0  0  0  0
  192.4840  175.5280  136.0600 C   0  0  0  0  0  2  0  0  0  0  0  0
  194.8080  174.8180  136.7480 C   0  0  0  0  0  3  0  0  0  0  0  0
  192.8400  173.3760  137.2720 C   0  0  2  0  0  3  0  0  0  0  0  0
  194.5290  176.7710  135.1980 C   0  0  1  0  0  3  0  0  0  0  0  0
  193.9690  178.1840  135.1420 C   0  0  0  0  0  1  0  0  0  0  0  0
  195.9740  176.8480  135.3380 N   0  0  0  0  0  1  0  0  0  0  0  0
  192.7990  174.9560  146.7400 C   0  0  0  0  0  2  0  0  0  0  0  0
  192.1110  176.1430  146.2340 N   0  0  0  0  0  2  0  0  0  0  0  0
  190.3950  175.1830  147.5190 O   0  0  0  0  0  1  0  0  0  0  0  0
  190.6600  176.0570  146.4600 C   0  0  1  0  0  0  0  0  0  0  0  0
  190.1720  177.3160  146.7830 F   0  0  0  0  0  0  0  0  0  0  0  0
  187.9410  175.3920  143.5030 C   0  0  0  0  0  2  0  0  0  0  0  0
  190.0030  175.4880  145.1720 C   0  0  1  0  0  0  0  0  0  0  0  0
  191.1720  177.3020  143.9840 O   0  0  0  0  0  0  0  0  0  0  0  0
  190.4890  176.0700  143.8390 C   0  0  2  0  0  3  0  0  0  0  0  0
  190.2600  178.3710  143.7670 C   0  0  0  0  0  2  0  0  0  0  0  0
  189.0790  176.3840  143.4380 C   0  0  1  0  0  0  0  0  0  0  0  0
  190.1370  174.0920  145.1460 O   0  0  0  0  0  1  0  0  0  0  0  0
  188.9270  177.8560  143.2390 C   0  0  2  0  0  3  0  0  0  0  0  0
  188.5520  175.8720  144.8200 C   0  0  1  0  0  0  0  0  0  0  0  0
  187.8700  176.9400  145.5980 N   0  0  0  0  0  0  0  0  0  0  0  0
  187.5110  176.4060  146.7880 O   0  0  0  0  0  1  0  0  0  0  0  0
  186.6110  177.3410  144.9650 C   0  0  0  0  0  1  0  0  0  0  0  0
  188.8390  178.1300  141.8130 N   0  0  0  0  0  2  0  0  0  0  0  0
  187.4780  178.0940  141.4740 N   0  0  0  0  0  1  0  0  0  0  0  0
  1 22  1  0  0  0  0
  2 18  1  0  0  0  0
  3 19  2  0  0  0  0
  5  4  1  0  0  0  0
  6 11  1  0  0  0  0
  7  6  1  0  0  0  0
  7  9  2  0  0  0  0
  8 19  1  0  0  0  0
  9  5  1  0  0  0  0
 10 20  1  0  0  0  0
 11 23  1  0  0  0  0
 11  4  1  1  0  0  0
 12 14  1  6  0  0  0
 12 26  1  0  0  0  0
 13  1  1  0  0  0  0
 15 24  2  0  0  0  0
 16 21  1  0  0  0  0
 17 15  1  0  0  0  0
 17  6  2  0  0  0  0
 18 16  1  0  0  0  0
 19  2  1  0  0  0  0
 20 27  1  0  0  0  0
 21 37  1  1  0  0  0
 22 10  1  0  0  0  0
 22 14  2  0  0  0  0
 23  8  1  0  0  0  0
 24 13  1  0  0  0  0
 24 23  1  0  0  0  0
 25 21  1  0  0  0  0
 26 25  1  0  0  0  0
 27 12  1  0  0  0  0
 28 33  1  0  0  0  0
 29 34  1  6  0  0  0
 29 32  1  0  0  0  0
 30 33  1  0  0  0  0
 31 29  1  0  0  0  0
 31 30  1  0  0  0  0
 32 28  2  0  0  0  0
 33 15  1  1  0  0  0
 34 35  1  1  0  0  0
 34 36  1  0  0  0  0
 38 40  1  0  0  0  0
 38 37  1  0  0  0  0
 40 41  1  1  0  0  0
 40 39  1  0  0  0  0
 42 50  1  0  0  0  0
 43 48  1  6  0  0  0
 43 40  1  0  0  0  0
 45 44  1  1  0  0  0
 45 43  1  0  0  0  0
 46 44  1  0  0  0  0
 47 42  1  6  0  0  0
 47 45  1  0  0  0  0
 47 50  1  0  0  0  0
 49 54  1  6  0  0  0
 49 47  1  0  0  0  0
 49 46  1  0  0  0  0
 50 43  1  0  0  0  0
 50 51  1  1  0  0  0
 51 52  1  0  0  0  0
 53 51  1  0  0  0  0
 55 54  1  0  0  0  0
M  END
>  <MODEL>
2

>  <REMARK>
 VINA RESULT:      -7.3      2.423      3.389
  Name = 
  8 active torsions:
  status: ('A' for Active; 'I' for Inactive)
    1  A    between atoms: N_1  and  C_53
    2  A    between atoms: C_6  and  C_20
    3  A    between atoms: C_8  and  N_22
    4  A    between atoms: C_8  and  C_43
    5  A    between atoms: C_10  and  C_32
    6  A    between atoms: N_11  and  C_50
    7  A    between atoms: C_20  and  N_22
    8  A    between atoms: C_33  and  C_52
                            x       y       z     vdW  Elec       q    Type
                         _______ _______ _______ _____ _____    ______ ____

>  <TORSDO>
F 8

$$$$
=
 OpenBabel11052419343D

 55 62  0  0  1  0  0  0  0  0999 V2000
  194.9730  173.9840  141.0630 O   0  0  0  0  0  0  0  0  0  0  0  0
  193.9320  171.8360  144.9170 C   0  0  0  0  0  2  0  0  0  0  0  0
  194.7980  171.0830  142.8300 O   0  0  0  0  0  0  0  0  0  0  0  0
  191.5630  169.7960  142.0890 C   0  0  0  0  0  2  0  0  0  0  0  0
  190.5680  168.7260  141.6530 C   0  0  0  0  0  2  0  0  0  0  0  0
  191.9440  170.2930  139.6690 C   0  0  0  0  0  0  0  0  0  0  0  0
  191.5400  168.9110  139.3730 C   0  0  0  0  0  3  0  0  0  0  0  0
  192.8030  172.3010  142.6910 N   0  0  0  0  0  2  0  0  0  0  0  0
  190.9350  168.1660  140.3050 C   0  0  0  0  0  3  0  0  0  0  0  0
  196.9350  174.5590  142.4980 C   0  0  0  0  0  2  0  0  0  0  0  0
  191.6210  170.8950  141.0180 C   0  0  2  0  0  3  0  0  0  0  0  0
  195.4730  176.7790  143.5550 C   0  0  1  0  0  3  0  0  0  0  0  0
  193.6320  174.1300  140.6140 C   0  0  0  0  0  2  0  0  0  0  0  0
  194.8880  175.9160  142.4650 C   0  0  0  0  0  3  0  0  0  0  0  0
  193.0830  172.3090  139.0210 C   0  0  0  0  0  0  0  0  0  0  0  0
  192.8910  173.9990  145.5860 C   0  0  0  0  0  2  0  0  0  0  0  0
  192.5810  170.9860  138.7740 N   0  0  0  0  0  0  0  0  0  0  0  0
  194.1990  173.2570  145.3960 C   0  0  0  0  0  2  0  0  0  0  0  0
  193.8970  171.7410  143.4270 C   0  0  0  0  0  0  0  0  0  0  0  0
  197.7220  175.8680  142.5900 C   0  0  0  0  0  2  0  0  0  0  0  0
  193.1340  175.3740  146.2020 C   0  0  1  0  0  3  0  0  0  0  0  0
  195.5540  174.8510  141.9890 C   0  0  0  0  0  0  0  0  0  0  0  0
  192.5820  171.9520  141.3490 N   0  0  0  0  0  0  0  0  0  0  0  0
  193.0780  172.7890  140.2840 C   0  0  0  0  0  0  0  0  0  0  0  0
  193.5940  176.3790  145.1520 C   0  0  0  0  0  2  0  0  0  0  0  0
  195.0960  176.1900  144.8980 C   0  0  0  0  0  2  0  0  0  0  0  0
  197.0090  176.9080  143.4740 C   0  0  0  0  0  2  0  0  0  0  0  0
  195.1540  172.7840  137.6900 C   0  0  0  0  0  3  0  0  0  0  0  0
  195.5620  175.1320  136.9000 C   0  0  1  0  0  3  0  0  0  0  0  0
  193.3130  174.5400  137.8350 C   0  0  0  0  0  2  0  0  0  0  0  0
  194.0410  175.2250  136.6840 C   0  0  0  0  0  2  0  0  0  0  0  0
  195.9950  173.7150  137.2130 C   0  0  0  0  0  3  0  0  0  0  0  0
  193.6760  173.0530  137.8570 C   0  0  2  0  0  3  0  0  0  0  0  0
  196.3390  175.6850  135.6970 C   0  0  1  0  0  3  0  0  0  0  0  0
  197.8340  175.7000  135.9760 C   0  0  0  0  0  1  0  0  0  0  0  0
  196.0930  174.8690  134.5180 N   0  0  0  0  0  1  0  0  0  0  0  0
  191.8550  175.8620  146.8530 C   0  0  0  0  0  2  0  0  0  0  0  0
  190.8760  176.2040  145.8220 N   0  0  0  0  0  2  0  0  0  0  0  0
  190.0630  177.3460  147.7060 O   0  0  0  0  0  1  0  0  0  0  0  0
  189.8210  177.0790  146.3550 C   0  0  1  0  0  0  0  0  0  0  0  0
  189.8210  178.2770  145.6520 F   0  0  0  0  0  0  0  0  0  0  0  0
  185.8120  176.3680  146.3220 C   0  0  0  0  0  2  0  0  0  0  0  0
  188.4640  176.3310  146.2330 C   0  0  1  0  0  0  0  0  0  0  0  0
  188.6180  176.8060  143.8210 O   0  0  0  0  0  0  0  0  0  0  0  0
  187.9730  176.0270  144.8120 C   0  0  2  0  0  3  0  0  0  0  0  0
  187.8170  177.9430  143.5260 C   0  0  0  0  0  2  0  0  0  0  0  0
  186.6550  176.6780  145.1070 C   0  0  1  0  0  0  0  0  0  0  0  0
  188.5100  175.1400  146.9740 O   0  0  0  0  0  1  0  0  0  0  0  0
  186.4510  177.8400  144.1910 C   0  0  2  0  0  3  0  0  0  0  0  0
  187.1500  177.0760  146.5370 C   0  0  1  0  0  0  0  0  0  0  0  0
  187.1750  178.5490  146.7390 N   0  0  0  0  0  0  0  0  0  0  0  0
  187.5350  178.7740  148.0240 O   0  0  0  0  0  1  0  0  0  0  0  0
  185.8360  179.1290  146.6120 C   0  0  0  0  0  1  0  0  0  0  0  0
  185.4570  177.4800  143.1910 N   0  0  0  0  0  2  0  0  0  0  0  0
  184.3110  178.2420  143.4640 N   0  0  0  0  0  1  0  0  0  0  0  0
  1 22  1  0  0  0  0
  2 18  1  0  0  0  0
  3 19  2  0  0  0  0
  5  4  1  0  0  0  0
  6 11  1  0  0  0  0
  7  6  1  0  0  0  0
  7  9  2  0  0  0  0
  8 19  1  0  0  0  0
  9  5  1  0  0  0  0
 10 20  1  0  0  0  0
 11 23  1  0  0  0  0
 11  4  1  1  0  0  0
 12 14  1  6  0  0  0
 12 26  1  0  0  0  0
 13  1  1  0  0  0  0
 15 24  2  0  0  0  0
 16 21  1  0  0  0  0
 17 15  1  0  0  0  0
 17  6  2  0  0  0  0
 18 16  1  0  0  0  0
 19  2  1  0  0  0  0
 20 27  1  0  0  0  0
 21 37  1  6  0  0  0
 22 14  2  0  0  0  0
 22 10  1  0  0  0  0
 23  8  1  0  0  0  0
 24 13  1  0  0  0  0
 24 23  1  0  0  0  0
 25 21  1  0  0  0  0
 26 25  1  0  0  0  0
 27 12  1  0  0  0  0
 28 33  1  0  0  0  0
 29 34  1  6  0  0  0
 29 32  1  0  0  0  0
 30 33  1  0  0  0  0
 31 29  1  0  0  0  0
 31 30  1  0  0  0  0
 32 28  2  0  0  0  0
 33 15  1  1  0  0  0
 34 35  1  1  0  0  0
 36 34  1  0  0  0  0
 38 40  1  0  0  0  0
 38 37  1  0  0  0  0
 40 41  1  6  0  0  0
 40 39  1  0  0  0  0
 42 50  1  0  0  0  0
 43 40  1  0  0  0  0
 43 50  1  0  0  0  0
 43 48  1  1  0  0  0
 45 44  1  6  0  0  0
 45 47  1  0  0  0  0
 45 43  1  0  0  0  0
 46 44  1  0  0  0  0
 46 49  1  0  0  0  0
 47 42  1  1  0  0  0
 47 50  1  0  0  0  0
 49 54  1  6  0  0  0
 49 47  1  0  0  0  0
 50 51  1  1  0  0  0
 51 52  1  0  0  0  0
 53 51  1  0  0  0  0
 54 55  1  0  0  0  0
M  END
>  <MODEL>
3

>  <REMARK>
 VINA RESULT:      -7.3      2.184      2.760
  Name = 
  8 active torsions:
  status: ('A' for Active; 'I' for Inactive)
    1  A    between atoms: N_1  and  C_53
    2  A    between atoms: C_6  and  C_20
    3  A    between atoms: C_8  and  N_22
    4  A    between atoms: C_8  and  C_43
    5  A    between atoms: C_10  and  C_32
    6  A    between atoms: N_11  and  C_50
    7  A    between atoms: C_20  and  N_22
    8  A    between atoms: C_33  and  C_52
                            x       y       z     vdW  Elec       q    Type
                         _______ _______ _______ _____ _____    ______ ____

>  <TORSDO>
F 8

$$$$
=
 OpenBabel11052419343D

 55 62  0  0  1  0  0  0  0  0999 V2000
  195.2060  173.8840  141.0590 O   0  0  0  0  0  0  0  0  0  0  0  0
  193.9230  171.8080  144.8790 C   0  0  0  0  0  2  0  0  0  0  0  0
  194.8670  171.0100  142.8440 O   0  0  0  0  0  0  0  0  0  0  0  0
  191.6370  169.8010  141.9600 C   0  0  0  0  0  2  0  0  0  0  0  0
  190.6350  168.7540  141.4870 C   0  0  0  0  0  2  0  0  0  0  0  0
  192.1470  170.2610  139.5560 C   0  0  0  0  0  0  0  0  0  0  0  0
  191.7210  168.8860  139.2550 C   0  0  0  0  0  3  0  0  0  0  0  0
  192.9150  172.2790  142.5970 N   0  0  0  0  0  2  0  0  0  0  0  0
  191.0510  168.1690  140.1640 C   0  0  0  0  0  3  0  0  0  0  0  0
  197.1120  174.4220  142.5800 C   0  0  0  0  0  2  0  0  0  0  0  0
  191.7770  170.8860  140.8820 C   0  0  2  0  0  3  0  0  0  0  0  0
  195.6620  176.6930  143.5440 C   0  0  1  0  0  3  0  0  0  0  0  0
  193.8930  174.0610  140.5440 C   0  0  0  0  0  2  0  0  0  0  0  0
  195.1070  175.8330  142.4350 C   0  0  0  0  0  3  0  0  0  0  0  0
  193.3720  172.2380  138.9450 C   0  0  0  0  0  0  0  0  0  0  0  0
  192.9110  174.0070  145.4750 C   0  0  0  0  0  2  0  0  0  0  0  0
  192.8460  170.9260  138.6860 N   0  0  0  0  0  0  0  0  0  0  0  0
  194.2050  173.2270  145.3550 C   0  0  0  0  0  2  0  0  0  0  0  0
  193.9570  171.6980  143.3900 C   0  0  0  0  0  0  0  0  0  0  0  0
  197.9290  175.7110  142.6980 C   0  0  0  0  0  2  0  0  0  0  0  0
  193.1610  175.3810  146.0880 C   0  0  1  0  0  3  0  0  0  0  0  0
  195.7660  174.7460  142.0030 C   0  0  0  0  0  0  0  0  0  0  0  0
  192.7490  171.9210  141.2490 N   0  0  0  0  0  0  0  0  0  0  0  0
  193.3190  172.7310  140.2010 C   0  0  0  0  0  0  0  0  0  0  0  0
  193.6990  176.3620  145.0520 C   0  0  0  0  0  2  0  0  0  0  0  0
  195.2050  176.1300  144.8720 C   0  0  0  0  0  2  0  0  0  0  0  0
  197.2030  176.7800  143.5360 C   0  0  0  0  0  2  0  0  0  0  0  0
  195.5480  172.8950  137.8880 C   0  0  0  0  0  3  0  0  0  0  0  0
  195.7590  175.1950  136.9020 C   0  0  1  0  0  3  0  0  0  0  0  0
  193.4890  174.3590  137.5570 C   0  0  0  0  0  2  0  0  0  0  0  0
  194.2940  175.0370  136.4550 C   0  0  0  0  0  2  0  0  0  0  0  0
  196.3230  173.8940  137.4360 C   0  0  0  0  0  3  0  0  0  0  0  0
  194.0400  172.9520  137.8030 C   0  0  2  0  0  3  0  0  0  0  0  0
  196.6400  175.7450  135.7720 C   0  0  1  0  0  3  0  0  0  0  0  0
  197.5550  174.6650  135.2200 C   0  0  0  0  0  1  0  0  0  0  0  0
  195.8130  176.2540  134.6890 N   0  0  0  0  0  1  0  0  0  0  0  0
  191.8660  175.9110  146.6710 C   0  0  0  0  0  2  0  0  0  0  0  0
  190.7310  175.3760  145.9200 N   0  0  0  0  0  2  0  0  0  0  0  0
  189.9710  177.5910  145.7410 O   0  0  0  0  0  1  0  0  0  0  0  0
  190.1460  176.3950  145.0360 C   0  0  1  0  0  0  0  0  0  0  0  0
  191.0040  176.6230  143.9690 F   0  0  0  0  0  0  0  0  0  0  0  0
  186.7700  175.9430  142.8060 C   0  0  0  0  0  2  0  0  0  0  0  0
  188.7540  175.8880  144.5680 C   0  0  1  0  0  0  0  0  0  0  0  0
  189.9840  174.0580  143.4700 O   0  0  0  0  0  0  0  0  0  0  0  0
  188.7130  174.5040  143.9090 C   0  0  2  0  0  3  0  0  0  0  0  0
  190.1380  174.3720  142.0920 C   0  0  0  0  0  2  0  0  0  0  0  0
  188.0000  175.0690  142.7180 C   0  0  1  0  0  0  0  0  0  0  0  0
  187.8500  175.9190  145.6420 O   0  0  0  0  0  1  0  0  0  0  0  0
  188.8300  174.8710  141.4920 C   0  0  2  0  0  3  0  0  0  0  0  0
  188.0930  176.5090  143.3220 C   0  0  1  0  0  0  0  0  0  0  0  0
  188.8780  177.4350  142.4630 N   0  0  0  0  0  0  0  0  0  0  0  0
  189.2750  178.4690  143.2410 O   0  0  0  0  0  1  0  0  0  0  0  0
  188.0420  178.0390  141.4230 C   0  0  0  0  0  1  0  0  0  0  0  0
  188.2360  173.8120  140.6900 N   0  0  0  0  0  2  0  0  0  0  0  0
  188.8180  173.8920  139.4150 N   0  0  0  0  0  1  0  0  0  0  0  0
  1 22  1  0  0  0  0
  2 18  1  0  0  0  0
  3 19  2  0  0  0  0
  5  4  1  0  0  0  0
  6 11  1  0  0  0  0
  7  6  1  0  0  0  0
  7  9  2  0  0  0  0
  8 19  1  0  0  0  0
  9  5  1  0  0  0  0
 10 20  1  0  0  0  0
 11 23  1  0  0  0  0
 11  4  1  1  0  0  0
 12 14  1  6  0  0  0
 12 26  1  0  0  0  0
 13  1  1  0  0  0  0
 15 24  2  0  0  0  0
 16 21  1  0  0  0  0
 17 15  1  0  0  0  0
 17  6  2  0  0  0  0
 18 16  1  0  0  0  0
 19  2  1  0  0  0  0
 20 27  1  0  0  0  0
 21 37  1  6  0  0  0
 22 14  2  0  0  0  0
 22 10  1  0  0  0  0
 23  8  1  0  0  0  0
 24 13  1  0  0  0  0
 24 23  1  0  0  0  0
 25 21  1  0  0  0  0
 26 25  1  0  0  0  0
 27 12  1  0  0  0  0
 29 34  1  6  0  0  0
 29 32  1  0  0  0  0
 30 33  1  0  0  0  0
 31 29  1  0  0  0  0
 31 30  1  0  0  0  0
 32 28  2  0  0  0  0
 33 28  1  0  0  0  0
 33 15  1  1  0  0  0
 34 35  1  6  0  0  0
 36 34  1  0  0  0  0
 38 37  1  0  0  0  0
 40 41  1  6  0  0  0
 40 39  1  0  0  0  0
 40 38  1  0  0  0  0
 42 50  1  0  0  0  0
 43 40  1  0  0  0  0
 43 48  1  1  0  0  0
 45 44  1  6  0  0  0
 45 43  1  0  0  0  0
 46 44  1  0  0  0  0
 47 42  1  6  0  0  0
 47 50  1  0  0  0  0
 47 45  1  0  0  0  0
 49 54  1  6  0  0  0
 49 46  1  0  0  0  0
 49 47  1  0  0  0  0
 50 51  1  6  0  0  0
 50 43  1  0  0  0  0
 51 52  1  0  0  0  0
 53 51  1  0  0  0  0
 55 54  1  0  0  0  0
M  END
>  <MODEL>
4

>  <REMARK>
 VINA RESULT:      -7.3      2.384      3.163
  Name = 
  8 active torsions:
  status: ('A' for Active; 'I' for Inactive)
    1  A    between atoms: N_1  and  C_53
    2  A    between atoms: C_6  and  C_20
    3  A    between atoms: C_8  and  N_22
    4  A    between atoms: C_8  and  C_43
    5  A    between atoms: C_10  and  C_32
    6  A    between atoms: N_11  and  C_50
    7  A    between atoms: C_20  and  N_22
    8  A    between atoms: C_33  and  C_52
                            x       y       z     vdW  Elec       q    Type
                         _______ _______ _______ _____ _____    ______ ____

>  <TORSDO>
F 8

$$$$
=
 OpenBabel11052419343D

 55 62  0  0  1  0  0  0  0  0999 V2000
  195.1070  173.9350  140.6370 O   0  0  0  0  0  0  0  0  0  0  0  0
  193.7350  171.3930  144.1310 C   0  0  0  0  0  2  0  0  0  0  0  0
  194.7400  170.8590  142.0390 O   0  0  0  0  0  0  0  0  0  0  0  0
  191.5430  169.7590  140.9210 C   0  0  0  0  0  2  0  0  0  0  0  0
  190.5620  168.7760  140.2930 C   0  0  0  0  0  2  0  0  0  0  0  0
  192.1160  170.5180  138.6090 C   0  0  0  0  0  0  0  0  0  0  0  0
  191.7070  169.1900  138.1260 C   0  0  0  0  0  3  0  0  0  0  0  0
  192.7860  172.1420  141.8980 N   0  0  0  0  0  2  0  0  0  0  0  0
  191.0180  168.3620  138.9190 C   0  0  0  0  0  3  0  0  0  0  0  0
  196.9670  174.2850  142.2670 C   0  0  0  0  0  2  0  0  0  0  0  0
  191.7050  170.9710  139.9920 C   0  0  2  0  0  3  0  0  0  0  0  0
  195.4760  176.4130  143.4660 C   0  0  1  0  0  3  0  0  0  0  0  0
  193.8080  174.1710  140.1120 C   0  0  0  0  0  2  0  0  0  0  0  0
  194.9570  175.6960  142.2430 C   0  0  0  0  0  3  0  0  0  0  0  0
  193.3430  172.5600  138.2830 C   0  0  0  0  0  0  0  0  0  0  0  0
  192.6910  173.4960  144.9680 C   0  0  0  0  0  2  0  0  0  0  0  0
  192.8340  171.2890  137.8480 N   0  0  0  0  0  0  0  0  0  0  0  0
  193.9940  172.7420  144.7880 C   0  0  0  0  0  2  0  0  0  0  0  0
  193.8100  171.4700  142.6410 C   0  0  0  0  0  0  0  0  0  0  0  0
  197.7720  175.5520  142.5670 C   0  0  0  0  0  2  0  0  0  0  0  0
  192.9160  174.7840  145.7550 C   0  0  1  0  0  3  0  0  0  0  0  0
  195.6350  174.6740  141.6970 C   0  0  0  0  0  0  0  0  0  0  0  0
  192.6600  171.9550  140.5120 N   0  0  0  0  0  0  0  0  0  0  0  0
  193.2520  172.8920  139.5890 C   0  0  0  0  0  0  0  0  0  0  0  0
  193.4740  175.8890  144.8650 C   0  0  0  0  0  2  0  0  0  0  0  0
  194.9870  175.6860  144.7000 C   0  0  0  0  0  2  0  0  0  0  0  0
  197.0160  176.5050  143.5120 C   0  0  0  0  0  2  0  0  0  0  0  0
  195.5390  173.2440  137.2860 C   0  0  0  0  0  3  0  0  0  0  0  0
  195.8920  175.6600  136.6990 C   0  0  1  0  0  3  0  0  0  0  0  0
  193.5820  174.8750  137.2730 C   0  0  0  0  0  2  0  0  0  0  0  0
  194.4110  175.6770  136.2780 C   0  0  0  0  0  2  0  0  0  0  0  0
  196.3730  174.2520  136.9860 C   0  0  0  0  0  3  0  0  0  0  0  0
  194.0380  173.4130  137.2590 C   0  0  2  0  0  3  0  0  0  0  0  0
  196.7870  176.3370  135.6510 C   0  0  1  0  0  3  0  0  0  0  0  0
  197.7700  175.3440  135.0530 C   0  0  0  0  0  1  0  0  0  0  0  0
  195.9770  176.8950  134.5800 N   0  0  0  0  0  1  0  0  0  0  0  0
  191.6010  175.2320  146.3630 C   0  0  0  0  0  2  0  0  0  0  0  0
  191.2060  176.5190  145.7910 N   0  0  0  0  0  2  0  0  0  0  0  0
  189.1220  175.4360  145.7620 O   0  0  0  0  0  1  0  0  0  0  0  0
  189.7450  176.6870  145.8110 C   0  0  1  0  0  0  0  0  0  0  0  0
  189.3740  177.3290  146.9850 F   0  0  0  0  0  0  0  0  0  0  0  0
  188.4010  177.5460  142.0640 C   0  0  0  0  0  2  0  0  0  0  0  0
  189.3340  177.4960  144.5490 C   0  0  1  0  0  0  0  0  0  0  0  0
  187.1300  177.7230  145.6250 O   0  0  0  0  0  0  0  0  0  0  0  0
  187.9800  178.2120  144.6030 C   0  0  2  0  0  3  0  0  0  0  0  0
  186.2500  176.7520  145.0750 C   0  0  0  0  0  2  0  0  0  0  0  0
  187.5600  177.5600  143.3200 C   0  0  1  0  0  0  0  0  0  0  0  0
  190.3390  178.4220  144.2290 O   0  0  0  0  0  1  0  0  0  0  0  0
  186.3500  176.7170  143.5550 C   0  0  2  0  0  3  0  0  0  0  0  0
  188.8980  176.7500  143.2720 C   0  0  1  0  0  0  0  0  0  0  0  0
  188.6740  175.2810  143.3240 N   0  0  0  0  0  0  0  0  0  0  0  0
  189.8880  174.6850  143.2820 O   0  0  0  0  0  1  0  0  0  0  0  0
  187.9740  174.8040  142.1290 C   0  0  0  0  0  1  0  0  0  0  0  0
  185.1920  177.3890  142.9840 N   0  0  0  0  0  2  0  0  0  0  0  0
  184.4670  177.9330  144.0550 N   0  0  0  0  0  1  0  0  0  0  0  0
  1 22  1  0  0  0  0
  2 18  1  0  0  0  0
  3 19  2  0  0  0  0
  5  4  1  0  0  0  0
  6 11  1  0  0  0  0
  7  6  1  0  0  0  0
  7  9  2  0  0  0  0
  8 19  1  0  0  0  0
  9  5  1  0  0  0  0
 10 20  1  0  0  0  0
 11 23  1  0  0  0  0
 11  4  1  1  0  0  0
 12 14  1  6  0  0  0
 12 27  1  0  0  0  0
 12 26  1  0  0  0  0
 13  1  1  0  0  0  0
 15 24  2  0  0  0  0
 16 21  1  0  0  0  0
 17 15  1  0  0  0  0
 17  6  2  0  0  0  0
 18 16  1  0  0  0  0
 19  2  1  0  0  0  0
 20 27  1  0  0  0  0
 21 37  1  6  0  0  0
 22 14  2  0  0  0  0
 22 10  1  0  0  0  0
 23  8  1  0  0  0  0
 24 13  1  0  0  0  0
 24 23  1  0  0  0  0
 25 21  1  0  0  0  0
 26 25  1  0  0  0  0
 29 34  1  6  0  0  0
 29 32  1  0  0  0  0
 31 29  1  0  0  0  0
 31 30  1  0  0  0  0
 32 28  2  0  0  0  0
 33 30  1  0  0  0  0
 33 28  1  0  0  0  0
 33 15  1  1  0  0  0
 34 35  1  6  0  0  0
 36 34  1  0  0  0  0
 38 40  1  0  0  0  0
 38 37  1  0  0  0  0
 40 39  1  6  0  0  0
 40 41  1  0  0  0  0
 42 50  1  0  0  0  0
 43 48  1  6  0  0  0
 43 45  1  0  0  0  0
 43 40  1  0  0  0  0
 45 44  1  1  0  0  0
 46 44  1  0  0  0  0
 47 42  1  6  0  0  0
 47 49  1  0  0  0  0
 47 45  1  0  0  0  0
 49 54  1  6  0  0  0
 49 46  1  0  0  0  0
 50 47  1  0  0  0  0
 50 51  1  6  0  0  0
 50 43  1  0  0  0  0
 52 51  1  0  0  0  0
 53 51  1  0  0  0  0
 54 55  1  0  0  0  0
M  END
>  <MODEL>
5

>  <REMARK>
 VINA RESULT:      -7.1      2.245      3.166
  Name = 
  8 active torsions:
  status: ('A' for Active; 'I' for Inactive)
    1  A    between atoms: N_1  and  C_53
    2  A    between atoms: C_6  and  C_20
    3  A    between atoms: C_8  and  N_22
    4  A    between atoms: C_8  and  C_43
    5  A    between atoms: C_10  and  C_32
    6  A    between atoms: N_11  and  C_50
    7  A    between atoms: C_20  and  N_22
    8  A    between atoms: C_33  and  C_52
                            x       y       z     vdW  Elec       q    Type
                         _______ _______ _______ _____ _____    ______ ____

>  <TORSDO>
F 8

$$$$
=
 OpenBabel11052419343D

 55 62  0  0  1  0  0  0  0  0999 V2000
  188.8110  174.8110  142.1930 O   0  0  0  0  0  0  0  0  0  0  0  0
  191.9530  172.0470  143.9350 C   0  0  0  0  0  2  0  0  0  0  0  0
  189.9880  173.0380  144.8450 O   0  0  0  0  0  0  0  0  0  0  0  0
  192.0900  175.3320  146.5740 C   0  0  0  0  0  2  0  0  0  0  0  0
  192.6010  176.0870  147.7960 C   0  0  0  0  0  2  0  0  0  0  0  0
  190.3220  177.0860  146.3500 C   0  0  0  0  0  0  0  0  0  0  0  0
  190.4460  177.3240  147.7950 C   0  0  0  0  0  3  0  0  0  0  0  0
  191.5030  174.5460  143.8880 N   0  0  0  0  0  2  0  0  0  0  0  0
  191.4830  176.8290  148.4790 C   0  0  0  0  0  3  0  0  0  0  0  0
  188.1320  172.6120  141.2210 C   0  0  0  0  0  2  0  0  0  0  0  0
  191.4060  176.3240  145.6210 C   0  0  2  0  0  3  0  0  0  0  0  0
  189.9630  173.0340  139.0640 C   0  0  1  0  0  3  0  0  0  0  0  0
  189.6040  175.9890  142.2580 C   0  0  0  0  0  2  0  0  0  0  0  0
  189.7540  174.0920  140.1200 C   0  0  0  0  0  3  0  0  0  0  0  0
  189.0480  177.2550  144.3170 C   0  0  0  0  0  0  0  0  0  0  0  0
  193.2130  172.5130  141.8360 C   0  0  0  0  0  2  0  0  0  0  0  0
  189.2800  177.5240  145.7090 N   0  0  0  0  0  0  0  0  0  0  0  0
  192.0500  171.7550  142.4440 C   0  0  0  0  0  2  0  0  0  0  0  0
  191.0740  173.2200  144.2220 C   0  0  0  0  0  0  0  0  0  0  0  0
  187.5800  172.2920  139.8310 C   0  0  0  0  0  2  0  0  0  0  0  0
  193.4110  172.1190  140.3750 C   0  0  1  0  0  3  0  0  0  0  0  0
  188.9230  173.8850  141.1540 C   0  0  0  0  0  0  0  0  0  0  0  0
  190.8580  175.6700  144.4280 N   0  0  0  0  0  0  0  0  0  0  0  0
  189.8260  176.3500  143.6840 C   0  0  0  0  0  0  0  0  0  0  0  0
  192.4210  172.8380  139.4660 C   0  0  0  0  0  2  0  0  0  0  0  0
  191.0710  172.1080  139.5150 C   0  0  0  0  0  2  0  0  0  0  0  0
  188.6960  172.2020  138.7730 C   0  0  0  0  0  2  0  0  0  0  0  0
  186.5530  177.3570  144.0980 C   0  0  0  0  0  3  0  0  0  0  0  0
  185.5610  177.7490  141.8250 C   0  0  1  0  0  3  0  0  0  0  0  0
  188.0240  178.0830  142.1480 C   0  0  0  0  0  2  0  0  0  0  0  0
  186.7520  178.6910  141.5700 C   0  0  0  0  0  2  0  0  0  0  0  0
  185.4940  177.3160  143.2750 C   0  0  0  0  0  3  0  0  0  0  0  0
  187.8790  177.9390  143.6660 C   0  0  2  0  0  3  0  0  0  0  0  0
  184.2340  178.3820  141.3840 C   0  0  1  0  0  3  0  0  0  0  0  0
  183.6900  177.6960  140.1420 C   0  0  0  0  0  1  0  0  0  0  0  0
  183.2460  178.2760  142.4470 N   0  0  0  0  0  1  0  0  0  0  0  0
  194.8290  172.4560  139.9550 C   0  0  0  0  0  2  0  0  0  0  0  0
  195.3400  173.5510  140.7800 N   0  0  0  0  0  2  0  0  0  0  0  0
  196.8600  173.9210  139.0270 O   0  0  0  0  0  1  0  0  0  0  0  0
  196.0370  174.5560  139.9630 C   0  0  1  0  0  0  0  0  0  0  0  0
  195.0990  175.3260  139.2880 F   0  0  0  0  0  0  0  0  0  0  0  0
  197.2100  176.8100  143.1440 C   0  0  0  0  0  2  0  0  0  0  0  0
  196.9270  175.4130  140.9050 C   0  0  1  0  0  0  0  0  0  0  0  0
  197.6550  173.2710  141.8790 O   0  0  0  0  0  0  0  0  0  0  0  0
  197.9400  174.6540  141.7710 C   0  0  2  0  0  3  0  0  0  0  0  0
  196.9200  173.0370  143.0730 C   0  0  0  0  0  2  0  0  0  0  0  0
  197.4110  175.3180  143.0070 C   0  0  1  0  0  0  0  0  0  0  0  0
  197.5950  176.3980  140.1620 O   0  0  0  0  0  1  0  0  0  0  0  0
  196.8730  174.2870  143.9430 C   0  0  2  0  0  3  0  0  0  0  0  0
  196.3130  176.0490  142.1680 C   0  0  1  0  0  0  0  0  0  0  0  0
  194.9360  175.6690  142.5820 N   0  0  0  0  0  0  0  0  0  0  0  0
  194.0750  176.2980  141.7470 O   0  0  0  0  0  1  0  0  0  0  0  0
  194.6170  176.1830  143.9150 C   0  0  0  0  0  1  0  0  0  0  0  0
  197.8000  174.1320  145.0540 N   0  0  0  0  0  2  0  0  0  0  0  0
  197.1340  173.3880  146.0400 N   0  0  0  0  0  1  0  0  0  0  0  0
  1 13  1  0  0  0  0
  2 19  1  0  0  0  0
  4  5  1  0  0  0  0
  5  9  1  0  0  0  0
  6  7  1  0  0  0  0
  7  9  2  0  0  0  0
  8 19  1  0  0  0  0
  8 23  1  0  0  0  0
 11  6  1  0  0  0  0
 11  4  1  1  0  0  0
 12 27  1  1  0  0  0
 12 26  1  0  0  0  0
 12 14  1  0  0  0  0
 13 24  1  0  0  0  0
 14 22  2  0  0  0  0
 15 17  1  0  0  0  0
 16 18  1  0  0  0  0
 17  6  2  0  0  0  0
 18  2  1  0  0  0  0
 19  3  2  0  0  0  0
 20 10  1  0  0  0  0
 21 37  1  6  0  0  0
 21 16  1  0  0  0  0
 22 10  1  0  0  0  0
 22  1  1  0  0  0  0
 23 11  1  0  0  0  0
 24 15  2  0  0  0  0
 24 23  1  0  0  0  0
 25 26  1  0  0  0  0
 25 21  1  0  0  0  0
 27 20  1  0  0  0  0
 29 34  1  1  0  0  0
 29 32  1  0  0  0  0
 30 33  1  0  0  0  0
 31 29  1  0  0  0  0
 31 30  1  0  0  0  0
 32 28  2  0  0  0  0
 33 28  1  0  0  0  0
 33 15  1  6  0  0  0
 34 35  1  6  0  0  0
 34 36  1  0  0  0  0
 37 38  1  0  0  0  0
 40 39  1  6  0  0  0
 40 38  1  0  0  0  0
 40 43  1  0  0  0  0
 41 40  1  0  0  0  0
 43 48  1  6  0  0  0
 43 45  1  0  0  0  0
 43 50  1  0  0  0  0
 44 46  1  0  0  0  0
 45 44  1  1  0  0  0
 45 47  1  0  0  0  0
 46 49  1  0  0  0  0
 47 42  1  1  0  0  0
 47 49  1  0  0  0  0
 49 54  1  1  0  0  0
 50 51  1  1  0  0  0
 50 47  1  0  0  0  0
 50 42  1  0  0  0  0
 51 53  1  0  0  0  0
 52 51  1  0  0  0  0
 54 55  1  0  0  0  0
M  END
>  <MODEL>
6

>  <REMARK>
 VINA RESULT:      -6.8      3.009      9.771
  Name = 
  8 active torsions:
  status: ('A' for Active; 'I' for Inactive)
    1  A    between atoms: N_1  and  C_53
    2  A    between atoms: C_6  and  C_20
    3  A    between atoms: C_8  and  N_22
    4  A    between atoms: C_8  and  C_43
    5  A    between atoms: C_10  and  C_32
    6  A    between atoms: N_11  and  C_50
    7  A    between atoms: C_20  and  N_22
    8  A    between atoms: C_33  and  C_52
                            x       y       z     vdW  Elec       q    Type
                         _______ _______ _______ _____ _____    ______ ____

>  <TORSDO>
F 8

$$$$
=
 OpenBabel11052419343D

 55 62  0  0  1  0  0  0  0  0999 V2000
  191.3500  172.9970  143.1060 O   0  0  0  0  0  0  0  0  0  0  0  0
  192.6490  169.1020  141.1830 C   0  0  0  0  0  2  0  0  0  0  0  0
  192.5020  169.8160  143.4510 O   0  0  0  0  0  0  0  0  0  0  0  0
  196.0450  170.1580  143.4470 C   0  0  0  0  0  2  0  0  0  0  0  0
  197.4560  169.9390  143.9830 C   0  0  0  0  0  2  0  0  0  0  0  0
  195.8400  172.0740  145.0390 C   0  0  0  0  0  0  0  0  0  0  0  0
  196.8380  171.4090  145.8890 C   0  0  0  0  0  3  0  0  0  0  0  0
  193.7740  171.2030  142.0590 N   0  0  0  0  0  2  0  0  0  0  0  0
  197.5640  170.3910  145.4150 C   0  0  0  0  0  3  0  0  0  0  0  0
  189.1480  171.9720  142.5240 C   0  0  0  0  0  2  0  0  0  0  0  0
  195.6740  171.6400  143.6000 C   0  0  2  0  0  3  0  0  0  0  0  0
  189.3420  173.1160  139.9090 C   0  0  1  0  0  3  0  0  0  0  0  0
  192.5460  173.7070  142.8130 C   0  0  0  0  0  2  0  0  0  0  0  0
  190.3920  173.3950  140.9560 C   0  0  0  0  0  3  0  0  0  0  0  0
  194.0490  173.6590  144.7870 C   0  0  0  0  0  0  0  0  0  0  0  0
  192.5480  170.3780  139.0450 C   0  0  0  0  0  2  0  0  0  0  0  0
  195.1020  173.0240  145.5300 N   0  0  0  0  0  0  0  0  0  0  0  0
  191.7300  169.7000  140.1260 C   0  0  0  0  0  2  0  0  0  0  0  0
  192.9350  170.0650  142.2890 C   0  0  0  0  0  0  0  0  0  0  0  0
  187.8690  172.6390  142.0120 C   0  0  0  0  0  2  0  0  0  0  0  0
  191.6500  170.8550  137.9070 C   0  0  1  0  0  3  0  0  0  0  0  0
  190.3250  172.8330  142.1730 C   0  0  0  0  0  0  0  0  0  0  0  0
  194.3140  171.9300  143.1320 N   0  0  0  0  0  0  0  0  0  0  0  0
  193.6650  173.1280  143.6050 C   0  0  0  0  0  0  0  0  0  0  0  0
  190.9580  172.1670  138.2570 C   0  0  0  0  0  2  0  0  0  0  0  0
  189.7380  171.8730  139.1410 C   0  0  0  0  0  2  0  0  0  0  0  0
  187.9290  172.9150  140.4980 C   0  0  0  0  0  2  0  0  0  0  0  0
  192.2100  174.4320  146.3060 C   0  0  0  0  0  3  0  0  0  0  0  0
  190.9170  176.4910  145.6760 C   0  0  1  0  0  3  0  0  0  0  0  0
  193.0250  175.9530  144.4300 C   0  0  0  0  0  2  0  0  0  0  0  0
  192.2490  177.0520  145.1470 C   0  0  0  0  0  2  0  0  0  0  0  0
  191.1230  175.2060  146.4520 C   0  0  0  0  0  3  0  0  0  0  0  0
  193.3670  174.8380  145.4230 C   0  0  2  0  0  3  0  0  0  0  0  0
  190.1650  177.5240  146.5260 C   0  0  1  0  0  3  0  0  0  0  0  0
  188.6630  177.2980  146.4540 C   0  0  0  0  0  1  0  0  0  0  0  0
  190.5840  177.4370  147.9160 N   0  0  0  0  0  1  0  0  0  0  0  0
  192.4860  171.0350  136.6540 C   0  0  0  0  0  2  0  0  0  0  0  0
  193.9040  170.9060  136.9850 N   0  0  0  0  0  2  0  0  0  0  0  0
  195.1440  171.8100  135.2070 O   0  0  0  0  0  1  0  0  0  0  0  0
  194.6740  172.0620  136.5000 C   0  0  1  0  0  0  0  0  0  0  0  0
  193.8520  173.1800  136.4700 F   0  0  0  0  0  0  0  0  0  0  0  0
  197.9240  173.7530  138.2770 C   0  0  0  0  0  2  0  0  0  0  0  0
  195.8940  172.2600  137.4410 C   0  0  1  0  0  0  0  0  0  0  0  0
  194.2730  173.1470  139.0700 O   0  0  0  0  0  0  0  0  0  0  0  0
  195.5860  172.6470  138.8930 C   0  0  2  0  0  3  0  0  0  0  0  0
  194.3040  174.5670  139.0190 C   0  0  0  0  0  2  0  0  0  0  0  0
  196.5060  173.8270  138.7950 C   0  0  1  0  0  0  0  0  0  0  0  0
  196.6980  171.1100  137.4260 O   0  0  0  0  0  1  0  0  0  0  0  0
  195.7360  175.0870  139.0170 C   0  0  2  0  0  3  0  0  0  0  0  0
  196.7830  173.5100  137.2880 C   0  0  1  0  0  0  0  0  0  0  0  0
  196.3480  174.6110  136.3870 N   0  0  0  0  0  0  0  0  0  0  0  0
  196.4290  174.1500  135.1180 O   0  0  0  0  0  1  0  0  0  0  0  0
  197.2740  175.7440  136.4410 C   0  0  0  0  0  1  0  0  0  0  0  0
  196.0580  175.6070  140.3380 N   0  0  0  0  0  2  0  0  0  0  0  0
  194.8660  176.1100  140.8790 N   0  0  0  0  0  1  0  0  0  0  0  0
  2 19  1  0  0  0  0
  4  5  1  0  0  0  0
  5  9  1  0  0  0  0
  6 17  2  0  0  0  0
  6  7  1  0  0  0  0
  8 19  1  0  0  0  0
  8 23  1  0  0  0  0
  9  7  2  0  0  0  0
 11  4  1  1  0  0  0
 11  6  1  0  0  0  0
 12 26  1  1  0  0  0
 12 27  1  0  0  0  0
 12 14  1  0  0  0  0
 13  1  1  0  0  0  0
 13 24  1  0  0  0  0
 14 22  2  0  0  0  0
 15 17  1  0  0  0  0
 16 18  1  0  0  0  0
 18  2  1  0  0  0  0
 19  3  2  0  0  0  0
 20 10  1  0  0  0  0
 21 37  1  6  0  0  0
 21 25  1  0  0  0  0
 21 16  1  0  0  0  0
 22 10  1  0  0  0  0
 22  1  1  0  0  0  0
 23 11  1  0  0  0  0
 23 24  1  0  0  0  0
 24 15  2  0  0  0  0
 25 26  1  0  0  0  0
 27 20  1  0  0  0  0
 28 32  2  0  0  0  0
 29 32  1  0  0  0  0
 29 34  1  1  0  0  0
 30 31  1  0  0  0  0
 30 33  1  0  0  0  0
 31 29  1  0  0  0  0
 33 15  1  6  0  0  0
 33 28  1  0  0  0  0
 34 35  1  1  0  0  0
 34 36  1  0  0  0  0
 37 38  1  0  0  0  0
 40 39  1  6  0  0  0
 40 38  1  0  0  0  0
 40 43  1  0  0  0  0
 41 40  1  0  0  0  0
 43 48  1  6  0  0  0
 43 45  1  0  0  0  0
 45 44  1  6  0  0  0
 46 44  1  0  0  0  0
 47 42  1  1  0  0  0
 47 45  1  0  0  0  0
 47 49  1  0  0  0  0
 49 46  1  0  0  0  0
 49 54  1  1  0  0  0
 50 51  1  6  0  0  0
 50 43  1  0  0  0  0
 50 42  1  0  0  0  0
 50 47  1  0  0  0  0
 51 53  1  0  0  0  0
 52 51  1  0  0  0  0
 54 55  1  0  0  0  0
M  END
>  <MODEL>
7

>  <REMARK>
 VINA RESULT:      -6.7      3.830     10.019
  Name = 
  8 active torsions:
  status: ('A' for Active; 'I' for Inactive)
    1  A    between atoms: N_1  and  C_53
    2  A    between atoms: C_6  and  C_20
    3  A    between atoms: C_8  and  N_22
    4  A    between atoms: C_8  and  C_43
    5  A    between atoms: C_10  and  C_32
    6  A    between atoms: N_11  and  C_50
    7  A    between atoms: C_20  and  N_22
    8  A    between atoms: C_33  and  C_52
                            x       y       z     vdW  Elec       q    Type
                         _______ _______ _______ _____ _____    ______ ____

>  <TORSDO>
F 8

$$$$
=
 OpenBabel11052419343D

 55 62  0  0  1  0  0  0  0  0999 V2000
  190.7310  173.9020  143.0500 O   0  0  0  0  0  0  0  0  0  0  0  0
  193.4980  170.7440  141.3420 C   0  0  0  0  0  2  0  0  0  0  0  0
  192.8620  171.3030  143.5670 O   0  0  0  0  0  0  0  0  0  0  0  0
  196.0470  172.8430  143.9630 C   0  0  0  0  0  2  0  0  0  0  0  0
  197.3770  173.1080  144.6600 C   0  0  0  0  0  2  0  0  0  0  0  0
  195.0170  174.5290  145.4950 C   0  0  0  0  0  0  0  0  0  0  0  0
  196.0810  174.2260  146.4630 C   0  0  0  0  0  3  0  0  0  0  0  0
  193.7260  173.0800  142.3100 N   0  0  0  0  0  2  0  0  0  0  0  0
  197.1620  173.5320  146.0890 C   0  0  0  0  0  3  0  0  0  0  0  0
  189.0970  172.1980  142.2340 C   0  0  0  0  0  2  0  0  0  0  0  0
  195.1730  174.1020  144.0520 C   0  0  2  0  0  3  0  0  0  0  0  0
  189.1760  173.4080  139.6420 C   0  0  1  0  0  3  0  0  0  0  0  0
  191.6340  174.9880  142.8860 C   0  0  0  0  0  2  0  0  0  0  0  0
  189.9410  174.0040  140.7980 C   0  0  0  0  0  3  0  0  0  0  0  0
  192.8300  175.4070  145.0180 C   0  0  0  0  0  0  0  0  0  0  0  0
  193.2040  171.9640  139.1880 C   0  0  0  0  0  2  0  0  0  0  0  0
  193.9470  175.1540  145.8850 N   0  0  0  0  0  0  0  0  0  0  0  0
  192.5550  171.0170  140.1780 C   0  0  0  0  0  2  0  0  0  0  0  0
  193.3100  171.7170  142.4590 C   0  0  0  0  0  0  0  0  0  0  0  0
  187.7320  172.3990  141.5710 C   0  0  0  0  0  2  0  0  0  0  0  0
  192.3310  172.1330  137.9490 C   0  0  1  0  0  3  0  0  0  0  0  0
  189.9360  173.4210  142.0080 C   0  0  0  0  0  0  0  0  0  0  0  0
  193.8590  173.9200  143.4280 N   0  0  0  0  0  0  0  0  0  0  0  0
  192.7880  174.8080  143.8080 C   0  0  0  0  0  0  0  0  0  0  0  0
  191.1940  173.1170  138.1990 C   0  0  0  0  0  2  0  0  0  0  0  0
  190.0590  172.3980  138.9420 C   0  0  0  0  0  2  0  0  0  0  0  0
  187.8620  172.7180  140.0700 C   0  0  0  0  0  2  0  0  0  0  0  0
  190.7030  175.4670  146.3440 C   0  0  0  0  0  3  0  0  0  0  0  0
  188.8270  176.9310  145.5410 C   0  0  1  0  0  3  0  0  0  0  0  0
  191.0950  177.1860  144.5040 C   0  0  0  0  0  2  0  0  0  0  0  0
  189.9160  177.9330  145.1160 C   0  0  0  0  0  2  0  0  0  0  0  0
  189.4030  175.8010  146.3700 C   0  0  0  0  0  3  0  0  0  0  0  0
  191.7170  176.2630  145.5560 C   0  0  2  0  0  3  0  0  0  0  0  0
  187.6800  177.6240  146.2890 C   0  0  1  0  0  3  0  0  0  0  0  0
  186.7010  178.2610  145.3160 C   0  0  0  0  0  1  0  0  0  0  0  0
  186.9620  176.6650  147.1130 N   0  0  0  0  0  1  0  0  0  0  0  0
  193.1870  172.6220  136.7970 C   0  0  0  0  0  2  0  0  0  0  0  0
  194.5580  172.8370  137.2590 N   0  0  0  0  0  2  0  0  0  0  0  0
  195.8380  172.6450  135.2990 O   0  0  0  0  0  1  0  0  0  0  0  0
  195.3570  173.5500  136.2510 C   0  0  1  0  0  0  0  0  0  0  0  0
  194.5580  174.4900  135.6140 F   0  0  0  0  0  0  0  0  0  0  0  0
  197.5600  175.5250  139.0490 C   0  0  0  0  0  2  0  0  0  0  0  0
  196.5690  174.2050  136.9700 C   0  0  1  0  0  0  0  0  0  0  0  0
  197.0130  171.9640  137.8900 O   0  0  0  0  0  0  0  0  0  0  0  0
  197.5510  173.2540  137.6660 C   0  0  2  0  0  3  0  0  0  0  0  0
  196.4890  171.8980  139.2100 C   0  0  0  0  0  2  0  0  0  0  0  0
  197.4190  174.0230  138.9460 C   0  0  1  0  0  0  0  0  0  0  0  0
  197.2710  175.0220  136.0700 O   0  0  0  0  0  1  0  0  0  0  0  0
  196.8700  173.1350  140.0140 C   0  0  2  0  0  3  0  0  0  0  0  0
  196.3550  174.9650  138.2930 C   0  0  1  0  0  0  0  0  0  0  0  0
  195.0350  174.8880  138.9750 N   0  0  0  0  0  0  0  0  0  0  0  0
  194.1510  175.5840  138.2230 O   0  0  0  0  0  1  0  0  0  0  0  0
  195.0590  175.5750  140.2680 C   0  0  0  0  0  1  0  0  0  0  0  0
  197.9410  172.7950  140.9380 N   0  0  0  0  0  2  0  0  0  0  0  0
  197.8540  171.4140  141.1710 N   0  0  0  0  0  1  0  0  0  0  0  0
  2 19  1  0  0  0  0
  4  5  1  0  0  0  0
  5  9  1  0  0  0  0
  6 17  2  0  0  0  0
  6  7  1  0  0  0  0
  8 19  1  0  0  0  0
  8 23  1  0  0  0  0
  9  7  2  0  0  0  0
 11  4  1  1  0  0  0
 11  6  1  0  0  0  0
 12 26  1  1  0  0  0
 12 27  1  0  0  0  0
 12 14  1  0  0  0  0
 13  1  1  0  0  0  0
 13 24  1  0  0  0  0
 14 22  2  0  0  0  0
 15 17  1  0  0  0  0
 16 18  1  0  0  0  0
 18  2  1  0  0  0  0
 19  3  2  0  0  0  0
 20 10  1  0  0  0  0
 21 37  1  6  0  0  0
 21 25  1  0  0  0  0
 21 16  1  0  0  0  0
 22 10  1  0  0  0  0
 22  1  1  0  0  0  0
 23 24  1  0  0  0  0
 23 11  1  0  0  0  0
 24 15  2  0  0  0  0
 25 26  1  0  0  0  0
 27 20  1  0  0  0  0
 28 32  2  0  0  0  0
 29 34  1  1  0  0  0
 29 32  1  0  0  0  0
 30 31  1  0  0  0  0
 30 33  1  0  0  0  0
 31 29  1  0  0  0  0
 33 15  1  6  0  0  0
 33 28  1  0  0  0  0
 34 35  1  6  0  0  0
 34 36  1  0  0  0  0
 37 38  1  0  0  0  0
 40 39  1  6  0  0  0
 40 43  1  0  0  0  0
 40 38  1  0  0  0  0
 41 40  1  0  0  0  0
 43 48  1  6  0  0  0
 43 45  1  0  0  0  0
 43 50  1  0  0  0  0
 44 46  1  0  0  0  0
 45 44  1  1  0  0  0
 45 47  1  0  0  0  0
 46 49  1  0  0  0  0
 47 42  1  1  0  0  0
 47 49  1  0  0  0  0
 49 54  1  1  0  0  0
 50 47  1  0  0  0  0
 50 51  1  1  0  0  0
 50 42  1  0  0  0  0
 51 53  1  0  0  0  0
 52 51  1  0  0  0  0
 54 55  1  0  0  0  0
M  END
>  <MODEL>
8

>  <REMARK>
 VINA RESULT:      -6.4      3.314     10.251
  Name = 
  8 active torsions:
  status: ('A' for Active; 'I' for Inactive)
    1  A    between atoms: N_1  and  C_53
    2  A    between atoms: C_6  and  C_20
    3  A    between atoms: C_8  and  N_22
    4  A    between atoms: C_8  and  C_43
    5  A    between atoms: C_10  and  C_32
    6  A    between atoms: N_11  and  C_50
    7  A    between atoms: C_20  and  N_22
    8  A    between atoms: C_33  and  C_52
                            x       y       z     vdW  Elec       q    Type
                         _______ _______ _______ _____ _____    ______ ____

>  <TORSDO>
F 8

$$$$
=
 OpenBabel11052419343D

 55 62  0  0  1  0  0  0  0  0999 V2000
  194.0350  171.7320  140.2080 O   0  0  0  0  0  0  0  0  0  0  0  0
  191.5100  172.9700  136.6530 C   0  0  0  0  0  2  0  0  0  0  0  0
  193.7340  172.1410  136.8450 O   0  0  0  0  0  0  0  0  0  0  0  0
  194.8920  175.4550  136.2550 C   0  0  0  0  0  2  0  0  0  0  0  0
  195.7340  176.5230  135.5650 C   0  0  0  0  0  2  0  0  0  0  0  0
  196.8500  175.0130  137.7470 C   0  0  0  0  0  0  0  0  0  0  0  0
  197.7180  175.5150  136.6720 C   0  0  0  0  0  3  0  0  0  0  0  0
  193.2710  174.0380  138.1370 N   0  0  0  0  0  2  0  0  0  0  0  0
  197.1990  176.1840  135.6360 C   0  0  0  0  0  3  0  0  0  0  0  0
  192.5420  169.7470  139.9440 C   0  0  0  0  0  2  0  0  0  0  0  0
  195.3660  175.3040  137.7080 C   0  0  2  0  0  3  0  0  0  0  0  0
  190.5750  171.0510  141.5630 C   0  0  1  0  0  3  0  0  0  0  0  0
  194.3420  173.0530  140.6330 C   0  0  0  0  0  2  0  0  0  0  0  0
  191.9210  171.6870  141.3170 C   0  0  0  0  0  3  0  0  0  0  0  0
  196.5630  173.7190  139.7530 C   0  0  0  0  0  0  0  0  0  0  0  0
  189.9270  173.8540  138.3630 C   0  0  0  0  0  2  0  0  0  0  0  0
  197.3600  174.3160  138.7170 N   0  0  0  0  0  0  0  0  0  0  0  0
  190.4580  172.6040  137.6910 C   0  0  0  0  0  2  0  0  0  0  0  0
  192.8870  172.9960  137.2320 C   0  0  0  0  0  0  0  0  0  0  0  0
  191.8970  168.8660  141.0160 C   0  0  0  0  0  2  0  0  0  0  0  0
  188.7720  173.5160  139.3000 C   0  0  1  0  0  3  0  0  0  0  0  0
  192.8350  171.0970  140.5300 C   0  0  0  0  0  0  0  0  0  0  0  0
  194.6230  174.2700  138.4370 N   0  0  0  0  0  0  0  0  0  0  0  0
  195.2190  173.7020  139.6210 C   0  0  0  0  0  0  0  0  0  0  0  0
  189.2770  172.9710  140.6310 C   0  0  0  0  0  2  0  0  0  0  0  0
  189.6250  171.4850  140.4680 C   0  0  0  0  0  2  0  0  0  0  0  0
  190.6270  169.5090  141.6040 C   0  0  0  0  0  2  0  0  0  0  0  0
  197.1210  171.5580  140.8950 C   0  0  0  0  0  3  0  0  0  0  0  0
  197.1330  171.4940  143.4060 C   0  0  1  0  0  3  0  0  0  0  0  0
  197.0200  173.7150  142.2490 C   0  0  0  0  0  2  0  0  0  0  0  0
  197.7140  172.9180  143.3470 C   0  0  0  0  0  2  0  0  0  0  0  0
  197.0970  170.8490  142.0350 C   0  0  0  0  0  3  0  0  0  0  0  0
  197.2900  173.0600  140.8910 C   0  0  2  0  0  3  0  0  0  0  0  0
  197.8960  170.6100  144.4010 C   0  0  1  0  0  3  0  0  0  0  0  0
  197.2360  170.6370  145.7700 C   0  0  0  0  0  1  0  0  0  0  0  0
  197.9370  169.2350  143.9290 N   0  0  0  0  0  1  0  0  0  0  0  0
  187.9410  174.7620  139.5390 C   0  0  0  0  0  2  0  0  0  0  0  0
  188.5790  175.5900  140.5620 N   0  0  0  0  0  2  0  0  0  0  0  0
  186.6000  176.8210  140.8580 O   0  0  0  0  0  1  0  0  0  0  0  0
  187.5940  176.1000  141.5280 C   0  0  1  0  0  0  0  0  0  0  0  0
  187.0050  175.0300  142.1880 F   0  0  0  0  0  0  0  0  0  0  0  0
  188.5060  178.1900  144.9010 C   0  0  0  0  0  2  0  0  0  0  0  0
  188.3270  177.0580  142.5070 C   0  0  1  0  0  0  0  0  0  0  0  0
  189.7460  175.1230  143.0630 O   0  0  0  0  0  0  0  0  0  0  0  0
  189.6170  176.5300  143.1470 C   0  0  2  0  0  3  0  0  0  0  0  0
  189.2710  174.5380  144.2680 C   0  0  0  0  0  2  0  0  0  0  0  0
  189.0950  176.8520  144.5140 C   0  0  1  0  0  0  0  0  0  0  0  0
  188.5900  178.2800  141.8690 O   0  0  0  0  0  1  0  0  0  0  0  0
  188.9940  175.6010  145.3230 C   0  0  2  0  0  3  0  0  0  0  0  0
  187.7340  177.3250  143.9040 C   0  0  1  0  0  0  0  0  0  0  0  0
  186.5850  176.5080  144.3790 N   0  0  0  0  0  0  0  0  0  0  0  0
  185.4830  176.9430  143.7250 O   0  0  0  0  0  1  0  0  0  0  0  0
  186.3070  176.7490  145.7960 C   0  0  0  0  0  1  0  0  0  0  0  0
  190.0670  175.5910  146.3060 N   0  0  0  0  0  2  0  0  0  0  0  0
  189.5990  174.8640  147.4120 N   0  0  0  0  0  1  0  0  0  0  0  0
  1 22  1  0  0  0  0
  1 13  1  0  0  0  0
  2 19  1  0  0  0  0
  2 18  1  0  0  0  0
  3 19  2  0  0  0  0
  5  9  1  0  0  0  0
  5  4  1  0  0  0  0
  6 17  2  0  0  0  0
  7  6  1  0  0  0  0
  8 23  1  0  0  0  0
  9  7  2  0  0  0  0
 10 22  1  0  0  0  0
 10 20  1  0  0  0  0
 11  4  1  6  0  0  0
 11  6  1  0  0  0  0
 11 23  1  0  0  0  0
 12 26  1  6  0  0  0
 12 27  1  0  0  0  0
 14 12  1  0  0  0  0
 16 21  1  0  0  0  0
 17 15  1  0  0  0  0
 18 16  1  0  0  0  0
 19  8  1  0  0  0  0
 20 27  1  0  0  0  0
 21 37  1  1  0  0  0
 21 25  1  0  0  0  0
 22 14  2  0  0  0  0
 23 24  1  0  0  0  0
 24 15  2  0  0  0  0
 24 13  1  0  0  0  0
 26 25  1  0  0  0  0
 28 32  2  0  0  0  0
 29 34  1  1  0  0  0
 30 31  1  0  0  0  0
 31 29  1  0  0  0  0
 32 29  1  0  0  0  0
 33 15  1  6  0  0  0
 33 28  1  0  0  0  0
 33 30  1  0  0  0  0
 34 35  1  1  0  0  0
 36 34  1  0  0  0  0
 37 38  1  0  0  0  0
 38 40  1  0  0  0  0
 40 39  1  6  0  0  0
 40 41  1  0  0  0  0
 40 43  1  0  0  0  0
 43 48  1  6  0  0  0
 43 45  1  0  0  0  0
 43 50  1  0  0  0  0
 44 46  1  0  0  0  0
 45 44  1  1  0  0  0
 45 47  1  0  0  0  0
 46 49  1  0  0  0  0
 47 42  1  1  0  0  0
 47 49  1  0  0  0  0
 49 54  1  1  0  0  0
 50 51  1  1  0  0  0
 50 47  1  0  0  0  0
 50 42  1  0  0  0  0
 51 53  1  0  0  0  0
 52 51  1  0  0  0  0
 54 55  1  0  0  0  0
M  END
>  <MODEL>
9

>  <REMARK>
 VINA RESULT:      -6.3      2.722      6.242
  Name = 
  8 active torsions:
  status: ('A' for Active; 'I' for Inactive)
    1  A    between atoms: N_1  and  C_53
    2  A    between atoms: C_6  and  C_20
    3  A    between atoms: C_8  and  N_22
    4  A    between atoms: C_8  and  C_43
    5  A    between atoms: C_10  and  C_32
    6  A    between atoms: N_11  and  C_50
    7  A    between atoms: C_20  and  N_22
    8  A    between atoms: C_33  and  C_52
                            x       y       z     vdW  Elec       q    Type
                         _______ _______ _______ _____ _____    ______ ____

>  <TORSDO>
F 8

$$$$
