=
 OpenBabel11052418003D

 31 34  0  0  1  0  0  0  0  0999 V2000
  189.9200  175.6340  145.0120 C   0  0  2  0  0  3  0  0  0  0  0  0
  190.3990  177.2400  143.2270 C   0  0  0  0  0  2  0  0  0  0  0  0
  190.2870  175.7520  143.5380 C   0  0  2  0  0  3  0  0  0  0  0  0
  189.9760  177.0350  145.5900 C   0  0  1  0  0  3  0  0  0  0  0  0
  189.8080  177.9730  144.4120 C   0  0  0  0  0  2  0  0  0  0  0  0
  189.1060  177.9940  147.5870 O   0  0  0  0  0  0  0  0  0  0  0  0
  188.8910  177.2410  146.5970 C   0  0  0  0  0  0  0  0  0  0  0  0
  187.6400  176.5580  146.4590 N   0  0  0  0  0  2  0  0  0  0  0  0
  186.5280  176.7570  147.3760 C   0  0  0  0  0  2  0  0  0  0  0  0
  185.4730  178.7100  146.2480 C   0  0  0  0  0  1  0  0  0  0  0  0
  185.3080  177.2500  146.6180 C   0  0  0  0  0  2  0  0  0  0  0  0
  190.8690  174.6930  145.7450 C   0  0  0  0  0  2  0  0  0  0  0  0
  191.8660  175.4780  146.4620 N   0  0  0  0  0  2  0  0  0  0  0  0
  193.1730  175.1620  145.9120 C   0  0  0  0  0  3  0  0  0  0  0  0
  193.6530  176.3340  145.0750 C   0  0  0  0  0  2  0  0  0  0  0  0
  194.2230  176.1160  146.4530 C   0  0  0  0  0  2  0  0  0  0  0  0
  189.2430  175.0330  142.6730 C   0  0  2  0  0  3  0  0  0  0  0  0
  190.6430  170.2290  141.9640 C   0  0  0  0  0  1  0  0  0  0  0  0
  189.8370  174.1560  141.5630 C   0  0  2  0  0  3  0  0  0  0  0  0
  191.9950  172.8650  141.8810 C   0  0  0  0  0  2  0  0  0  0  0  0
  189.1050  172.4760  141.3920 S   0  0  0  0  0  0  0  0  0  0  0  0
  190.2340  171.5750  142.5370 C   0  0  2  0  0  3  0  0  0  0  0  0
  191.3450  172.3190  142.9960 O   0  0  0  0  0  0  0  0  0  0  0  0
  191.3660  174.2030  141.5300 C   0  0  0  0  0  2  0  0  0  0  0  0
  188.0070  175.8250  142.3260 C   0  0  0  0  0  0  0  0  0  0  0  0
  185.8830  176.7710  143.0390 C   0  0  0  0  0  3  0  0  0  0  0  0
  187.0190  175.9970  143.3030 C   0  0  0  0  0  3  0  0  0  0  0  0
  185.7290  177.3800  141.7920 C   0  0  0  0  0  3  0  0  0  0  0  0
  186.5490  177.8060  139.5670 O   0  0  0  0  0  1  0  0  0  0  0  0
  187.8460  176.4380  141.0760 C   0  0  0  0  0  3  0  0  0  0  0  0
  186.7080  177.2110  140.8080 C   0  0  0  0  0  0  0  0  0  0  0  0
  1  4  1  0  0  0  0
  1 12  1  1  0  0  0
  2  3  1  0  0  0  0
  2  5  1  0  0  0  0
  3 17  1  6  0  0  0
  3  1  1  0  0  0  0
  4  7  1  1  0  0  0
  5  4  1  0  0  0  0
  7  6  2  0  0  0  0
  8  7  1  0  0  0  0
  8  9  1  0  0  0  0
 10 11  1  0  0  0  0
 11  9  1  0  0  0  0
 12 13  1  0  0  0  0
 14 16  1  0  0  0  0
 14 13  1  0  0  0  0
 15 14  1  0  0  0  0
 15 16  1  0  0  0  0
 17 25  1  6  0  0  0
 19 17  1  1  0  0  0
 20 23  1  0  0  0  0
 21 19  1  0  0  0  0
 21 22  1  0  0  0  0
 22 18  1  6  0  0  0
 22 23  1  0  0  0  0
 24 19  1  0  0  0  0
 24 20  1  0  0  0  0
 25 27  1  0  0  0  0
 26 27  2  0  0  0  0
 28 26  1  0  0  0  0
 29 31  1  0  0  0  0
 30 25  2  0  0  0  0
 31 30  1  0  0  0  0
 31 28  2  0  0  0  0
M  END
>  <MODEL>
1

>  <REMARK>
 VINA RESULT:      -6.5      0.000      0.000
  Name = 
  9 active torsions:
  status: ('A' for Active; 'I' for Inactive)
    1  A    between atoms: C_1  and  N_24
    2  A    between atoms: C_3  and  C_15
    3  A    between atoms: C_3  and  N_24
    4  A    between atoms: C_4  and  C_27
    5  A    between atoms: C_5  and  C_27
    6  A    between atoms: C_9  and  C_23
    7  A    between atoms: C_19  and  C_21
    8  A    between atoms: C_20  and  C_27
    9  A    between atoms: N_22  and  C_23
                            x       y       z     vdW  Elec       q    Type
                         _______ _______ _______ _____ _____    ______ ____

>  <TORSDO>
F 9

$$$$
=
 OpenBabel11052418003D

 31 34  0  0  1  0  0  0  0  0999 V2000
  190.1880  175.7770  142.9730 C   0  0  2  0  0  3  0  0  0  0  0  0
  190.2340  178.2240  143.0590 C   0  0  0  0  0  2  0  0  0  0  0  0
  189.3100  177.0140  143.1180 C   0  0  2  0  0  3  0  0  0  0  0  0
  191.5900  176.2690  142.6720 C   0  0  1  0  0  3  0  0  0  0  0  0
  191.6460  177.6930  143.1880 C   0  0  0  0  0  2  0  0  0  0  0  0
  193.3750  174.6960  142.6420 O   0  0  0  0  0  0  0  0  0  0  0  0
  192.6140  175.4140  143.3470 C   0  0  0  0  0  0  0  0  0  0  0  0
  192.6960  175.3820  144.7760 N   0  0  0  0  0  2  0  0  0  0  0  0
  193.7040  174.6120  145.4890 C   0  0  0  0  0  2  0  0  0  0  0  0
  194.3250  176.9680  146.0010 C   0  0  0  0  0  1  0  0  0  0  0  0
  194.5030  175.5200  146.4070 C   0  0  0  0  0  2  0  0  0  0  0  0
  189.6730  174.8590  141.8720 C   0  0  0  0  0  2  0  0  0  0  0  0
  189.0720  173.6750  142.4750 N   0  0  0  0  0  2  0  0  0  0  0  0
  190.1370  172.8610  143.0330 C   0  0  0  0  0  3  0  0  0  0  0  0
  189.5580  171.9570  144.1080 C   0  0  0  0  0  2  0  0  0  0  0  0
  189.8870  171.3890  142.7510 C   0  0  0  0  0  2  0  0  0  0  0  0
  188.4990  176.9380  144.4200 C   0  0  2  0  0  3  0  0  0  0  0  0
  184.0490  177.9510  146.5910 C   0  0  0  0  0  1  0  0  0  0  0  0
  187.5820  178.1430  144.6640 C   0  0  2  0  0  3  0  0  0  0  0  0
  185.1790  178.1880  143.8610 C   0  0  0  0  0  2  0  0  0  0  0  0
  186.8040  178.2330  146.3300 S   0  0  0  0  0  0  0  0  0  0  0  0
  185.2630  177.2940  145.9560 C   0  0  2  0  0  3  0  0  0  0  0  0
  185.0560  176.9980  144.5900 O   0  0  0  0  0  0  0  0  0  0  0  0
  186.6360  178.4110  143.4920 C   0  0  0  0  0  2  0  0  0  0  0  0
  189.2200  176.3770  145.6200 C   0  0  0  0  0  0  0  0  0  0  0  0
  189.7840  174.4430  146.9820 C   0  0  0  0  0  3  0  0  0  0  0  0
  189.0870  175.0140  145.9100 C   0  0  0  0  0  3  0  0  0  0  0  0
  190.6190  175.2360  147.7730 C   0  0  0  0  0  3  0  0  0  0  0  0
  191.5740  177.3870  148.2850 O   0  0  0  0  0  1  0  0  0  0  0  0
  190.0590  177.1670  146.4170 C   0  0  0  0  0  3  0  0  0  0  0  0
  190.7540  176.5990  147.4930 C   0  0  0  0  0  0  0  0  0  0  0  0
  1 12  1  6  0  0  0
  1  3  1  0  0  0  0
  2  3  1  0  0  0  0
  2  5  1  0  0  0  0
  3 17  1  1  0  0  0
  4  1  1  0  0  0  0
  4  5  1  0  0  0  0
  4  7  1  1  0  0  0
  6  7  2  0  0  0  0
  7  8  1  0  0  0  0
  8  9  1  0  0  0  0
  9 11  1  0  0  0  0
 10 11  1  0  0  0  0
 12 13  1  0  0  0  0
 13 14  1  0  0  0  0
 14 15  1  0  0  0  0
 16 14  1  0  0  0  0
 16 15  1  0  0  0  0
 17 25  1  1  0  0  0
 19 17  1  6  0  0  0
 19 21  1  0  0  0  0
 20 23  1  0  0  0  0
 22 21  1  0  0  0  0
 22 18  1  6  0  0  0
 23 22  1  0  0  0  0
 24 20  1  0  0  0  0
 24 19  1  0  0  0  0
 25 27  2  0  0  0  0
 25 30  1  0  0  0  0
 26 28  2  0  0  0  0
 27 26  1  0  0  0  0
 30 31  2  0  0  0  0
 31 28  1  0  0  0  0
 31 29  1  0  0  0  0
M  END
>  <MODEL>
2

>  <REMARK>
 VINA RESULT:      -6.4      2.541      6.538
  Name = 
  9 active torsions:
  status: ('A' for Active; 'I' for Inactive)
    1  A    between atoms: C_1  and  N_24
    2  A    between atoms: C_3  and  C_15
    3  A    between atoms: C_3  and  N_24
    4  A    between atoms: C_4  and  C_27
    5  A    between atoms: C_5  and  C_27
    6  A    between atoms: C_9  and  C_23
    7  A    between atoms: C_19  and  C_21
    8  A    between atoms: C_20  and  C_27
    9  A    between atoms: N_22  and  C_23
                            x       y       z     vdW  Elec       q    Type
                         _______ _______ _______ _____ _____    ______ ____

>  <TORSDO>
F 9

$$$$
=
 OpenBabel11052418003D

 31 34  0  0  1  0  0  0  0  0999 V2000
  189.2450  176.8890  144.7840 C   0  0  2  0  0  3  0  0  0  0  0  0
  190.9430  178.0920  143.4920 C   0  0  0  0  0  2  0  0  0  0  0  0
  190.7460  177.1160  144.6460 C   0  0  2  0  0  3  0  0  0  0  0  0
  188.5680  177.8470  143.8230 C   0  0  1  0  0  3  0  0  0  0  0  0
  189.6110  178.1880  142.7780 C   0  0  0  0  0  2  0  0  0  0  0  0
  187.3120  175.9590  143.1050 O   0  0  0  0  0  0  0  0  0  0  0  0
  187.3680  177.2160  143.1960 C   0  0  0  0  0  0  0  0  0  0  0  0
  186.3170  178.0330  142.6690 N   0  0  0  0  0  2  0  0  0  0  0  0
  185.1000  177.4770  142.0950 C   0  0  0  0  0  2  0  0  0  0  0  0
  184.2340  179.0200  143.8470 C   0  0  0  0  0  1  0  0  0  0  0  0
  183.8890  178.2490  142.5900 C   0  0  0  0  0  2  0  0  0  0  0  0
  188.7800  177.1180  146.2170 C   0  0  0  0  0  2  0  0  0  0  0  0
  187.7450  176.1460  146.5470 N   0  0  0  0  0  2  0  0  0  0  0  0
  186.7380  176.8130  147.3540 C   0  0  0  0  0  3  0  0  0  0  0  0
  186.3340  178.1080  146.6690 C   0  0  0  0  0  2  0  0  0  0  0  0
  185.4250  176.9080  146.5960 C   0  0  0  0  0  2  0  0  0  0  0  0
  191.4670  175.7770  144.4330 C   0  0  2  0  0  3  0  0  0  0  0  0
  195.7750  173.3670  145.5160 C   0  0  0  0  0  1  0  0  0  0  0  0
  192.9670  175.9080  144.1400 C   0  0  2  0  0  3  0  0  0  0  0  0
  194.6880  176.0830  145.9920 C   0  0  0  0  0  2  0  0  0  0  0  0
  193.8480  174.3370  143.7590 S   0  0  0  0  0  0  0  0  0  0  0  0
  194.3490  173.8890  145.4760 C   0  0  2  0  0  3  0  0  0  0  0  0
  194.1180  174.8870  146.4490 O   0  0  0  0  0  0  0  0  0  0  0  0
  193.6830  176.8290  145.1300 C   0  0  0  0  0  2  0  0  0  0  0  0
  190.7090  174.7310  143.6540 C   0  0  0  0  0  0  0  0  0  0  0  0
  189.3660  172.7040  143.6700 C   0  0  0  0  0  3  0  0  0  0  0  0
  190.1240  173.6660  144.3490 C   0  0  0  0  0  3  0  0  0  0  0  0
  189.1900  172.8030  142.2880 C   0  0  0  0  0  3  0  0  0  0  0  0
  189.6090  173.9530  140.2120 O   0  0  0  0  0  1  0  0  0  0  0  0
  190.5300  174.8250  142.2680 C   0  0  0  0  0  3  0  0  0  0  0  0
  189.7750  173.8610  141.5850 C   0  0  0  0  0  0  0  0  0  0  0  0
  1 12  1  1  0  0  0
  2  3  1  0  0  0  0
  3 17  1  6  0  0  0
  3  1  1  0  0  0  0
  4  7  1  6  0  0  0
  4  1  1  0  0  0  0
  5  2  1  0  0  0  0
  5  4  1  0  0  0  0
  6  7  2  0  0  0  0
  8  7  1  0  0  0  0
  9 11  1  0  0  0  0
  9  8  1  0  0  0  0
 11 10  1  0  0  0  0
 12 13  1  0  0  0  0
 13 14  1  0  0  0  0
 15 14  1  0  0  0  0
 16 15  1  0  0  0  0
 16 14  1  0  0  0  0
 17 25  1  6  0  0  0
 19 17  1  1  0  0  0
 19 24  1  0  0  0  0
 20 23  1  0  0  0  0
 21 19  1  0  0  0  0
 21 22  1  0  0  0  0
 22 18  1  6  0  0  0
 22 23  1  0  0  0  0
 24 20  1  0  0  0  0
 25 27  1  0  0  0  0
 26 27  2  0  0  0  0
 28 26  1  0  0  0  0
 29 31  1  0  0  0  0
 30 25  2  0  0  0  0
 31 30  1  0  0  0  0
 31 28  2  0  0  0  0
M  END
>  <MODEL>
3

>  <REMARK>
 VINA RESULT:      -6.3      2.275      4.800
  Name = 
  9 active torsions:
  status: ('A' for Active; 'I' for Inactive)
    1  A    between atoms: C_1  and  N_24
    2  A    between atoms: C_3  and  C_15
    3  A    between atoms: C_3  and  N_24
    4  A    between atoms: C_4  and  C_27
    5  A    between atoms: C_5  and  C_27
    6  A    between atoms: C_9  and  C_23
    7  A    between atoms: C_19  and  C_21
    8  A    between atoms: C_20  and  C_27
    9  A    between atoms: N_22  and  C_23
                            x       y       z     vdW  Elec       q    Type
                         _______ _______ _______ _____ _____    ______ ____

>  <TORSDO>
F 9

$$$$
=
 OpenBabel11052418003D

 31 34  0  0  1  0  0  0  0  0999 V2000
  188.1160  176.8510  144.7690 C   0  0  2  0  0  3  0  0  0  0  0  0
  189.9790  177.2770  143.2370 C   0  0  0  0  0  2  0  0  0  0  0  0
  189.6040  176.6070  144.5540 C   0  0  2  0  0  3  0  0  0  0  0  0
  187.6630  177.7910  143.6670 C   0  0  1  0  0  3  0  0  0  0  0  0
  188.6770  177.6350  142.5520 C   0  0  0  0  0  2  0  0  0  0  0  0
  185.9640  176.2240  143.1030 O   0  0  0  0  0  0  0  0  0  0  0  0
  186.2890  177.4390  143.1960 C   0  0  0  0  0  0  0  0  0  0  0  0
  185.3730  178.4720  142.8160 N   0  0  0  0  0  2  0  0  0  0  0  0
  184.0050  178.1960  142.4010 C   0  0  0  0  0  2  0  0  0  0  0  0
  182.4650  178.0190  140.4530 C   0  0  0  0  0  1  0  0  0  0  0  0
  183.8900  178.2890  140.8890 C   0  0  0  0  0  2  0  0  0  0  0  0
  187.8450  177.4400  146.1480 C   0  0  0  0  0  2  0  0  0  0  0  0
  186.5840  176.9140  146.6560 N   0  0  0  0  0  2  0  0  0  0  0  0
  185.9060  177.9780  147.3760 C   0  0  0  0  0  3  0  0  0  0  0  0
  185.5750  179.0990  146.4060 C   0  0  0  0  0  2  0  0  0  0  0  0
  184.4900  178.1550  146.8560 C   0  0  0  0  0  2  0  0  0  0  0  0
  189.9020  175.1000  144.5690 C   0  0  2  0  0  3  0  0  0  0  0  0
  194.1960  176.7940  146.6260 C   0  0  0  0  0  1  0  0  0  0  0  0
  190.9210  174.6690  145.6300 C   0  0  2  0  0  3  0  0  0  0  0  0
  193.3830  174.3900  145.0960 C   0  0  0  0  0  2  0  0  0  0  0  0
  191.5320  176.0020  146.7430 S   0  0  0  0  0  0  0  0  0  0  0  0
  192.9860  176.5380  145.7450 C   0  0  2  0  0  3  0  0  0  0  0  0
  193.2940  175.7120  144.6410 O   0  0  0  0  0  0  0  0  0  0  0  0
  192.0050  173.7480  145.0670 C   0  0  0  0  0  2  0  0  0  0  0  0
  189.9940  174.4280  143.2220 C   0  0  0  0  0  0  0  0  0  0  0  0
  188.9350  173.0660  141.5080 C   0  0  0  0  0  3  0  0  0  0  0  0
  188.9120  173.6610  142.7750 C   0  0  0  0  0  3  0  0  0  0  0  0
  190.0470  173.2350  140.6790 C   0  0  0  0  0  3  0  0  0  0  0  0
  192.2420  174.1540  140.3000 O   0  0  0  0  0  1  0  0  0  0  0  0
  191.1070  174.5940  142.3860 C   0  0  0  0  0  3  0  0  0  0  0  0
  191.1340  173.9960  141.1180 C   0  0  0  0  0  0  0  0  0  0  0  0
  1 12  1  1  0  0  0
  2  3  1  0  0  0  0
  3 17  1  6  0  0  0
  3  1  1  0  0  0  0
  4  7  1  6  0  0  0
  4  1  1  0  0  0  0
  5  2  1  0  0  0  0
  5  4  1  0  0  0  0
  6  7  2  0  0  0  0
  8  7  1  0  0  0  0
  9  8  1  0  0  0  0
 10 11  1  0  0  0  0
 11  9  1  0  0  0  0
 12 13  1  0  0  0  0
 13 14  1  0  0  0  0
 15 16  1  0  0  0  0
 15 14  1  0  0  0  0
 16 14  1  0  0  0  0
 17 25  1  6  0  0  0
 19 17  1  6  0  0  0
 19 21  1  0  0  0  0
 22 18  1  1  0  0  0
 22 21  1  0  0  0  0
 23 20  1  0  0  0  0
 23 22  1  0  0  0  0
 24 20  1  0  0  0  0
 24 19  1  0  0  0  0
 26 27  2  0  0  0  0
 27 25  1  0  0  0  0
 28 31  2  0  0  0  0
 28 26  1  0  0  0  0
 29 31  1  0  0  0  0
 30 25  2  0  0  0  0
 31 30  1  0  0  0  0
M  END
>  <MODEL>
4

>  <REMARK>
 VINA RESULT:      -6.0      2.482      5.376
  Name = 
  9 active torsions:
  status: ('A' for Active; 'I' for Inactive)
    1  A    between atoms: C_1  and  N_24
    2  A    between atoms: C_3  and  C_15
    3  A    between atoms: C_3  and  N_24
    4  A    between atoms: C_4  and  C_27
    5  A    between atoms: C_5  and  C_27
    6  A    between atoms: C_9  and  C_23
    7  A    between atoms: C_19  and  C_21
    8  A    between atoms: C_20  and  C_27
    9  A    between atoms: N_22  and  C_23
                            x       y       z     vdW  Elec       q    Type
                         _______ _______ _______ _____ _____    ______ ____

>  <TORSDO>
F 9

$$$$
=
 OpenBabel11052418003D

 31 34  0  0  1  0  0  0  0  0999 V2000
  188.4710  177.0430  144.1520 C   0  0  2  0  0  3  0  0  0  0  0  0
  190.0250  178.1460  142.6130 C   0  0  0  0  0  2  0  0  0  0  0  0
  189.9420  177.1610  143.7730 C   0  0  2  0  0  3  0  0  0  0  0  0
  187.7230  178.0720  143.3250 C   0  0  1  0  0  3  0  0  0  0  0  0
  188.6060  178.3570  142.1280 C   0  0  0  0  0  2  0  0  0  0  0  0
  186.2400  176.3020  142.7490 O   0  0  0  0  0  0  0  0  0  0  0  0
  186.3920  177.5460  142.8960 C   0  0  0  0  0  0  0  0  0  0  0  0
  185.3170  178.4500  142.6160 N   0  0  0  0  0  2  0  0  0  0  0  0
  183.9840  177.9980  142.2460 C   0  0  0  0  0  2  0  0  0  0  0  0
  182.2830  178.0010  140.4280 C   0  0  0  0  0  1  0  0  0  0  0  0
  183.7380  178.2510  140.7690 C   0  0  0  0  0  2  0  0  0  0  0  0
  188.2640  177.2730  145.6440 C   0  0  0  0  0  2  0  0  0  0  0  0
  187.1570  176.4450  146.1080 N   0  0  0  0  0  2  0  0  0  0  0  0
  186.3880  177.2150  147.0700 C   0  0  0  0  0  3  0  0  0  0  0  0
  185.9270  178.5060  146.4160 C   0  0  0  0  0  2  0  0  0  0  0  0
  184.9510  177.3720  146.6020 C   0  0  0  0  0  2  0  0  0  0  0  0
  190.5130  175.7770  143.4310 C   0  0  2  0  0  3  0  0  0  0  0  0
  190.2770  170.8830  142.1930 C   0  0  0  0  0  1  0  0  0  0  0  0
  189.4530  174.7260  143.0800 C   0  0  2  0  0  3  0  0  0  0  0  0
  189.5070  173.4360  140.9000 C   0  0  0  0  0  2  0  0  0  0  0  0
  189.7000  173.0610  143.8250 S   0  0  0  0  0  0  0  0  0  0  0  0
  190.7090  172.3120  142.4760 C   0  0  2  0  0  3  0  0  0  0  0  0
  190.8040  173.0850  141.2970 O   0  0  0  0  0  0  0  0  0  0  0  0
  189.0930  174.7230  141.5940 C   0  0  0  0  0  2  0  0  0  0  0  0
  191.6820  175.3150  144.2650 C   0  0  0  0  0  0  0  0  0  0  0  0
  192.6060  174.8690  146.4700 C   0  0  0  0  0  3  0  0  0  0  0  0
  191.5660  175.3400  145.6600 C   0  0  0  0  0  3  0  0  0  0  0  0
  193.7720  174.3680  145.8850 C   0  0  0  0  0  3  0  0  0  0  0  0
  195.0610  173.8580  143.9140 O   0  0  0  0  0  1  0  0  0  0  0  0
  192.8540  174.8130  143.6850 C   0  0  0  0  0  3  0  0  0  0  0  0
  193.8990  174.3440  144.4930 C   0  0  0  0  0  0  0  0  0  0  0  0
  1 12  1  1  0  0  0
  2  3  1  0  0  0  0
  3 17  1  6  0  0  0
  3  1  1  0  0  0  0
  4  7  1  6  0  0  0
  4  1  1  0  0  0  0
  5  2  1  0  0  0  0
  5  4  1  0  0  0  0
  6  7  2  0  0  0  0
  8  7  1  0  0  0  0
  9  8  1  0  0  0  0
 10 11  1  0  0  0  0
 11  9  1  0  0  0  0
 12 13  1  0  0  0  0
 13 14  1  0  0  0  0
 15 16  1  0  0  0  0
 15 14  1  0  0  0  0
 16 14  1  0  0  0  0
 17 25  1  1  0  0  0
 19 17  1  6  0  0  0
 19 21  1  0  0  0  0
 20 23  1  0  0  0  0
 20 24  1  0  0  0  0
 22 18  1  6  0  0  0
 22 21  1  0  0  0  0
 23 22  1  0  0  0  0
 24 19  1  0  0  0  0
 25 27  1  0  0  0  0
 27 26  2  0  0  0  0
 28 26  1  0  0  0  0
 29 31  1  0  0  0  0
 30 25  2  0  0  0  0
 30 31  1  0  0  0  0
 31 28  2  0  0  0  0
M  END
>  <MODEL>
5

>  <REMARK>
 VINA RESULT:      -6.0      2.024      5.399
  Name = 
  9 active torsions:
  status: ('A' for Active; 'I' for Inactive)
    1  A    between atoms: C_1  and  N_24
    2  A    between atoms: C_3  and  C_15
    3  A    between atoms: C_3  and  N_24
    4  A    between atoms: C_4  and  C_27
    5  A    between atoms: C_5  and  C_27
    6  A    between atoms: C_9  and  C_23
    7  A    between atoms: C_19  and  C_21
    8  A    between atoms: C_20  and  C_27
    9  A    between atoms: N_22  and  C_23
                            x       y       z     vdW  Elec       q    Type
                         _______ _______ _______ _____ _____    ______ ____

>  <TORSDO>
F 9

$$$$
=
 OpenBabel11052418003D

 31 34  0  0  1  0  0  0  0  0999 V2000
  190.6170  175.9600  145.7400 C   0  0  2  0  0  3  0  0  0  0  0  0
  188.9830  174.7170  147.0740 C   0  0  0  0  0  2  0  0  0  0  0  0
  189.4580  176.1200  146.7160 C   0  0  2  0  0  3  0  0  0  0  0  0
  190.9160  174.4760  145.6560 C   0  0  1  0  0  3  0  0  0  0  0  0
  189.6460  173.7750  146.0920 C   0  0  0  0  0  2  0  0  0  0  0  0
  192.4420  173.6110  144.0480 O   0  0  0  0  0  0  0  0  0  0  0  0
  191.2930  174.0840  144.2630 C   0  0  0  0  0  0  0  0  0  0  0  0
  190.3720  174.2860  143.1850 N   0  0  0  0  0  2  0  0  0  0  0  0
  190.6600  173.8770  141.8180 C   0  0  0  0  0  2  0  0  0  0  0  0
  189.1760  173.7810  139.8210 C   0  0  0  0  0  1  0  0  0  0  0  0
  189.4380  173.2160  141.2020 C   0  0  0  0  0  2  0  0  0  0  0  0
  191.8370  176.7490  146.1960 C   0  0  0  0  0  2  0  0  0  0  0  0
  192.7400  176.9340  145.0670 N   0  0  0  0  0  2  0  0  0  0  0  0
  194.0970  177.0130  145.5790 C   0  0  0  0  0  3  0  0  0  0  0  0
  194.4370  175.7110  146.2820 C   0  0  0  0  0  2  0  0  0  0  0  0
  194.9830  175.9820  144.9030 C   0  0  0  0  0  2  0  0  0  0  0  0
  188.3550  176.9880  146.0920 C   0  0  2  0  0  3  0  0  0  0  0  0
  183.6730  178.8460  145.6860 C   0  0  0  0  0  1  0  0  0  0  0  0
  187.0730  177.0780  146.9290 C   0  0  2  0  0  3  0  0  0  0  0  0
  185.9840  179.2970  147.4860 C   0  0  0  0  0  2  0  0  0  0  0  0
  185.5000  176.7760  146.0210 S   0  0  0  0  0  0  0  0  0  0  0  0
  185.1450  178.5130  145.5170 C   0  0  2  0  0  3  0  0  0  0  0  0
  185.9840  179.4910  146.0990 O   0  0  0  0  0  0  0  0  0  0  0  0
  187.0600  178.2920  147.8600 C   0  0  0  0  0  2  0  0  0  0  0  0
  188.1860  176.8750  144.5970 C   0  0  0  0  0  0  0  0  0  0  0  0
  187.1990  175.7100  142.7050 C   0  0  0  0  0  3  0  0  0  0  0  0
  187.4250  175.8190  144.0820 C   0  0  0  0  0  3  0  0  0  0  0  0
  187.7350  176.6600  141.8330 C   0  0  0  0  0  3  0  0  0  0  0  0
  189.0420  178.6510  141.4710 O   0  0  0  0  0  1  0  0  0  0  0  0
  188.7220  177.8250  143.7170 C   0  0  0  0  0  3  0  0  0  0  0  0
  188.5000  177.7150  142.3380 C   0  0  0  0  0  0  0  0  0  0  0  0
  1 12  1  1  0  0  0
  1  3  1  0  0  0  0
  3 17  1  6  0  0  0
  3  2  1  0  0  0  0
  4  7  1  6  0  0  0
  4  1  1  0  0  0  0
  4  5  1  0  0  0  0
  5  2  1  0  0  0  0
  6  7  2  0  0  0  0
  8  7  1  0  0  0  0
  9  8  1  0  0  0  0
 10 11  1  0  0  0  0
 11  9  1  0  0  0  0
 13 14  1  0  0  0  0
 13 12  1  0  0  0  0
 14 15  1  0  0  0  0
 16 14  1  0  0  0  0
 16 15  1  0  0  0  0
 17 25  1  6  0  0  0
 19 17  1  6  0  0  0
 19 24  1  0  0  0  0
 20 24  1  0  0  0  0
 21 19  1  0  0  0  0
 22 18  1  1  0  0  0
 22 21  1  0  0  0  0
 22 23  1  0  0  0  0
 23 20  1  0  0  0  0
 26 27  2  0  0  0  0
 27 25  1  0  0  0  0
 28 31  2  0  0  0  0
 28 26  1  0  0  0  0
 29 31  1  0  0  0  0
 30 25  2  0  0  0  0
 31 30  1  0  0  0  0
M  END
>  <MODEL>
6

>  <REMARK>
 VINA RESULT:      -5.9      2.315      5.729
  Name = 
  9 active torsions:
  status: ('A' for Active; 'I' for Inactive)
    1  A    between atoms: C_1  and  N_24
    2  A    between atoms: C_3  and  C_15
    3  A    between atoms: C_3  and  N_24
    4  A    between atoms: C_4  and  C_27
    5  A    between atoms: C_5  and  C_27
    6  A    between atoms: C_9  and  C_23
    7  A    between atoms: C_19  and  C_21
    8  A    between atoms: C_20  and  C_27
    9  A    between atoms: N_22  and  C_23
                            x       y       z     vdW  Elec       q    Type
                         _______ _______ _______ _____ _____    ______ ____

>  <TORSDO>
F 9

$$$$
=
 OpenBabel11052418003D

 31 34  0  0  1  0  0  0  0  0999 V2000
  189.3360  177.0170  144.5200 C   0  0  2  0  0  3  0  0  0  0  0  0
  190.0900  177.5910  142.2620 C   0  0  0  0  0  2  0  0  0  0  0  0
  190.5030  176.8870  143.5490 C   0  0  2  0  0  3  0  0  0  0  0  0
  188.3170  177.9270  143.8600 C   0  0  1  0  0  3  0  0  0  0  0  0
  188.6040  177.8550  142.3740 C   0  0  0  0  0  2  0  0  0  0  0  0
  186.5380  176.3520  143.7380 O   0  0  0  0  0  0  0  0  0  0  0  0
  186.9240  177.4770  144.1600 C   0  0  0  0  0  0  0  0  0  0  0  0
  186.0300  178.3320  144.8800 N   0  0  0  0  0  2  0  0  0  0  0  0
  184.6810  177.9290  145.2480 C   0  0  0  0  0  2  0  0  0  0  0  0
  185.6180  178.9560  147.3140 C   0  0  0  0  0  1  0  0  0  0  0  0
  184.4050  178.2910  146.6980 C   0  0  0  0  0  2  0  0  0  0  0  0
  189.7920  177.5760  145.8620 C   0  0  0  0  0  2  0  0  0  0  0  0
  189.9900  176.4750  146.7980 N   0  0  0  0  0  2  0  0  0  0  0  0
  188.9330  175.5020  146.5840 C   0  0  0  0  0  3  0  0  0  0  0  0
  189.5510  174.1210  146.4560 C   0  0  0  0  0  2  0  0  0  0  0  0
  188.8710  174.5200  147.7400 C   0  0  0  0  0  2  0  0  0  0  0  0
  190.8540  175.4070  143.3400 C   0  0  2  0  0  3  0  0  0  0  0  0
  194.2310  172.4280  145.6350 C   0  0  0  0  0  1  0  0  0  0  0  0
  192.3600  175.1170  143.2890 C   0  0  2  0  0  3  0  0  0  0  0  0
  193.8440  175.3510  145.3300 C   0  0  0  0  0  2  0  0  0  0  0  0
  192.8380  173.3430  143.4080 S   0  0  0  0  0  0  0  0  0  0  0  0
  193.0050  173.2340  145.2400 C   0  0  2  0  0  3  0  0  0  0  0  0
  192.9330  174.4680  145.9250 O   0  0  0  0  0  0  0  0  0  0  0  0
  193.1740  176.0670  144.1690 C   0  0  0  0  0  2  0  0  0  0  0  0
  189.9810  174.6470  142.3730 C   0  0  0  0  0  0  0  0  0  0  0  0
  187.9030  173.4570  141.9510 C   0  0  0  0  0  3  0  0  0  0  0  0
  188.7670  174.1220  142.8300 C   0  0  0  0  0  3  0  0  0  0  0  0
  188.2510  173.3140  140.6060 C   0  0  0  0  0  3  0  0  0  0  0  0
  189.8130  173.6800  138.8090 O   0  0  0  0  0  1  0  0  0  0  0  0
  190.3250  174.5000  141.0220 C   0  0  0  0  0  3  0  0  0  0  0  0
  189.4630  173.8320  140.1410 C   0  0  0  0  0  0  0  0  0  0  0  0
  1 12  1  1  0  0  0
  2  5  1  0  0  0  0
  2  3  1  0  0  0  0
  3 17  1  6  0  0  0
  3  1  1  0  0  0  0
  4  7  1  6  0  0  0
  4  1  1  0  0  0  0
  5  4  1  0  0  0  0
  6  7  2  0  0  0  0
  7  8  1  0  0  0  0
  8  9  1  0  0  0  0
  9 11  1  0  0  0  0
 11 10  1  0  0  0  0
 12 13  1  0  0  0  0
 14 13  1  0  0  0  0
 14 16  1  0  0  0  0
 15 14  1  0  0  0  0
 15 16  1  0  0  0  0
 17 25  1  6  0  0  0
 19 17  1  1  0  0  0
 19 21  1  0  0  0  0
 19 24  1  0  0  0  0
 20 23  1  0  0  0  0
 21 22  1  0  0  0  0
 22 18  1  6  0  0  0
 22 23  1  0  0  0  0
 24 20  1  0  0  0  0
 25 27  1  0  0  0  0
 26 27  2  0  0  0  0
 28 26  1  0  0  0  0
 29 31  1  0  0  0  0
 30 25  2  0  0  0  0
 31 28  2  0  0  0  0
 31 30  1  0  0  0  0
M  END
>  <MODEL>
7

>  <REMARK>
 VINA RESULT:      -5.9      2.355      3.607
  Name = 
  9 active torsions:
  status: ('A' for Active; 'I' for Inactive)
    1  A    between atoms: C_1  and  N_24
    2  A    between atoms: C_3  and  C_15
    3  A    between atoms: C_3  and  N_24
    4  A    between atoms: C_4  and  C_27
    5  A    between atoms: C_5  and  C_27
    6  A    between atoms: C_9  and  C_23
    7  A    between atoms: C_19  and  C_21
    8  A    between atoms: C_20  and  C_27
    9  A    between atoms: N_22  and  C_23
                            x       y       z     vdW  Elec       q    Type
                         _______ _______ _______ _____ _____    ______ ____

>  <TORSDO>
F 9

$$$$
=
 OpenBabel11052418003D

 31 34  0  0  1  0  0  0  0  0999 V2000
  188.9150  176.6400  144.3340 C   0  0  2  0  0  3  0  0  0  0  0  0
  190.5750  177.6490  142.8430 C   0  0  0  0  0  2  0  0  0  0  0  0
  190.4010  176.6700  143.9970 C   0  0  2  0  0  3  0  0  0  0  0  0
  188.2540  177.7120  143.4890 C   0  0  1  0  0  3  0  0  0  0  0  0
  189.1860  177.9460  142.3180 C   0  0  0  0  0  2  0  0  0  0  0  0
  186.6990  176.0380  142.8210 O   0  0  0  0  0  0  0  0  0  0  0  0
  186.9060  177.2670  143.0210 C   0  0  0  0  0  0  0  0  0  0  0  0
  185.8790  178.2310  142.7640 N   0  0  0  0  0  2  0  0  0  0  0  0
  184.5320  177.8570  142.3580 C   0  0  0  0  0  2  0  0  0  0  0  0
  182.7990  178.1920  140.6020 C   0  0  0  0  0  1  0  0  0  0  0  0
  184.2740  178.3040  140.9300 C   0  0  0  0  0  2  0  0  0  0  0  0
  188.6800  176.8790  145.8200 C   0  0  0  0  0  2  0  0  0  0  0  0
  189.9190  177.3400  146.4350 N   0  0  0  0  0  2  0  0  0  0  0  0
  190.1000  176.6210  147.6840 C   0  0  0  0  0  3  0  0  0  0  0  0
  190.2430  175.1380  147.3860 C   0  0  0  0  0  2  0  0  0  0  0  0
  191.4650  175.9550  147.7240 C   0  0  0  0  0  2  0  0  0  0  0  0
  190.8980  175.2550  143.6670 C   0  0  2  0  0  3  0  0  0  0  0  0
  194.7420  172.1180  144.6310 C   0  0  0  0  0  1  0  0  0  0  0  0
  192.4060  175.1620  143.4000 C   0  0  2  0  0  3  0  0  0  0  0  0
  194.0920  174.9370  145.2790 C   0  0  0  0  0  2  0  0  0  0  0  0
  193.0330  173.4980  142.9230 S   0  0  0  0  0  0  0  0  0  0  0  0
  193.4190  172.8640  144.6110 C   0  0  2  0  0  3  0  0  0  0  0  0
  193.3290  173.8210  145.6470 O   0  0  0  0  0  0  0  0  0  0  0  0
  193.2380  175.8890  144.4580 C   0  0  0  0  0  2  0  0  0  0  0  0
  189.9980  174.4230  142.7880 C   0  0  0  0  0  0  0  0  0  0  0  0
  188.4140  172.5890  142.5890 C   0  0  0  0  0  3  0  0  0  0  0  0
  189.3010  173.3520  143.3580 C   0  0  0  0  0  3  0  0  0  0  0  0
  188.2200  172.8950  141.2400 C   0  0  0  0  0  3  0  0  0  0  0  0
  188.7300  174.2570  139.3190 O   0  0  0  0  0  1  0  0  0  0  0  0
  189.7990  174.7250  141.4340 C   0  0  0  0  0  3  0  0  0  0  0  0
  188.9150  173.9610  140.6610 C   0  0  0  0  0  0  0  0  0  0  0  0
  1 12  1  1  0  0  0
  2  3  1  0  0  0  0
  3 17  1  6  0  0  0
  3  1  1  0  0  0  0
  4  7  1  6  0  0  0
  4  1  1  0  0  0  0
  5  2  1  0  0  0  0
  5  4  1  0  0  0  0
  6  7  2  0  0  0  0
  8  7  1  0  0  0  0
  9  8  1  0  0  0  0
 10 11  1  0  0  0  0
 11  9  1  0  0  0  0
 12 13  1  0  0  0  0
 13 14  1  0  0  0  0
 14 16  1  0  0  0  0
 15 14  1  0  0  0  0
 15 16  1  0  0  0  0
 17 25  1  6  0  0  0
 19 17  1  1  0  0  0
 19 24  1  0  0  0  0
 20 23  1  0  0  0  0
 21 19  1  0  0  0  0
 21 22  1  0  0  0  0
 22 18  1  6  0  0  0
 22 23  1  0  0  0  0
 24 20  1  0  0  0  0
 25 27  1  0  0  0  0
 26 27  2  0  0  0  0
 28 26  1  0  0  0  0
 29 31  1  0  0  0  0
 30 25  2  0  0  0  0
 31 28  2  0  0  0  0
 31 30  1  0  0  0  0
M  END
>  <MODEL>
8

>  <REMARK>
 VINA RESULT:      -5.8      2.449      3.947
  Name = 
  9 active torsions:
  status: ('A' for Active; 'I' for Inactive)
    1  A    between atoms: C_1  and  N_24
    2  A    between atoms: C_3  and  C_15
    3  A    between atoms: C_3  and  N_24
    4  A    between atoms: C_4  and  C_27
    5  A    between atoms: C_5  and  C_27
    6  A    between atoms: C_9  and  C_23
    7  A    between atoms: C_19  and  C_21
    8  A    between atoms: C_20  and  C_27
    9  A    between atoms: N_22  and  C_23
                            x       y       z     vdW  Elec       q    Type
                         _______ _______ _______ _____ _____    ______ ____

>  <TORSDO>
F 9

$$$$
=
 OpenBabel11052418003D

 31 34  0  0  1  0  0  0  0  0999 V2000
  190.1950  175.7080  144.8790 C   0  0  2  0  0  3  0  0  0  0  0  0
  188.8560  175.2960  146.8880 C   0  0  0  0  0  2  0  0  0  0  0  0
  189.1650  176.3310  145.8130 C   0  0  2  0  0  3  0  0  0  0  0  0
  190.6010  174.3840  145.4970 C   0  0  1  0  0  3  0  0  0  0  0  0
  189.4600  173.9910  146.4130 C   0  0  0  0  0  2  0  0  0  0  0  0
  190.4020  172.1740  144.6370 O   0  0  0  0  0  0  0  0  0  0  0  0
  190.8220  173.3480  144.4430 C   0  0  0  0  0  0  0  0  0  0  0  0
  191.5400  173.6770  143.2490 N   0  0  0  0  0  2  0  0  0  0  0  0
  191.7420  172.7280  142.1640 C   0  0  0  0  0  2  0  0  0  0  0  0
  190.4720  171.5720  140.3620 C   0  0  0  0  0  1  0  0  0  0  0  0
  190.6300  172.8630  141.1380 C   0  0  0  0  0  2  0  0  0  0  0  0
  191.3980  176.6250  144.6910 C   0  0  0  0  0  2  0  0  0  0  0  0
  192.3260  176.4330  145.7990 N   0  0  0  0  0  2  0  0  0  0  0  0
  193.6790  176.5190  145.2760 C   0  0  0  0  0  3  0  0  0  0  0  0
  194.5650  177.1960  146.3080 C   0  0  0  0  0  2  0  0  0  0  0  0
  194.6330  175.7010  146.1290 C   0  0  0  0  0  2  0  0  0  0  0  0
  187.9240  176.7640  145.0190 C   0  0  2  0  0  3  0  0  0  0  0  0
  185.4510  178.1890  140.8480 C   0  0  0  0  0  1  0  0  0  0  0  0
  188.2330  177.3730  143.6460 C   0  0  2  0  0  3  0  0  0  0  0  0
  187.5760  176.2230  141.4850 C   0  0  0  0  0  2  0  0  0  0  0  0
  187.0640  178.6700  143.0630 S   0  0  0  0  0  0  0  0  0  0  0  0
  185.8760  177.5770  142.1720 C   0  0  2  0  0  3  0  0  0  0  0  0
  186.2860  176.2320  142.0320 O   0  0  0  0  0  0  0  0  0  0  0  0
  188.6020  176.3180  142.6010 C   0  0  0  0  0  2  0  0  0  0  0  0
  186.8160  177.4070  145.8160 C   0  0  0  0  0  0  0  0  0  0  0  0
  184.4870  177.3900  146.5160 C   0  0  0  0  0  3  0  0  0  0  0  0
  185.5300  176.8570  145.7490 C   0  0  0  0  0  3  0  0  0  0  0  0
  184.7260  178.4810  147.3550 C   0  0  0  0  0  3  0  0  0  0  0  0
  186.2390  180.1280  148.2490 O   0  0  0  0  0  1  0  0  0  0  0  0
  187.0490  178.5010  146.6590 C   0  0  0  0  0  3  0  0  0  0  0  0
  186.0050  179.0390  147.4250 C   0  0  0  0  0  0  0  0  0  0  0  0
  1 12  1  1  0  0  0
  1  4  1  0  0  0  0
  1  3  1  0  0  0  0
  3 17  1  6  0  0  0
  3  2  1  0  0  0  0
  4  7  1  6  0  0  0
  4  5  1  0  0  0  0
  5  2  1  0  0  0  0
  7  6  2  0  0  0  0
  8  7  1  0  0  0  0
  9  8  1  0  0  0  0
 10 11  1  0  0  0  0
 11  9  1  0  0  0  0
 12 13  1  0  0  0  0
 14 13  1  0  0  0  0
 14 16  1  0  0  0  0
 14 15  1  0  0  0  0
 16 15  1  0  0  0  0
 17 25  1  1  0  0  0
 19 17  1  1  0  0  0
 20 23  1  0  0  0  0
 20 24  1  0  0  0  0
 21 19  1  0  0  0  0
 22 18  1  6  0  0  0
 22 21  1  0  0  0  0
 23 22  1  0  0  0  0
 24 19  1  0  0  0  0
 25 30  1  0  0  0  0
 26 28  2  0  0  0  0
 27 25  2  0  0  0  0
 27 26  1  0  0  0  0
 28 31  1  0  0  0  0
 30 31  2  0  0  0  0
 31 29  1  0  0  0  0
M  END
>  <MODEL>
9

>  <REMARK>
 VINA RESULT:      -5.7      2.111      5.593
  Name = 
  9 active torsions:
  status: ('A' for Active; 'I' for Inactive)
    1  A    between atoms: C_1  and  N_24
    2  A    between atoms: C_3  and  C_15
    3  A    between atoms: C_3  and  N_24
    4  A    between atoms: C_4  and  C_27
    5  A    between atoms: C_5  and  C_27
    6  A    between atoms: C_9  and  C_23
    7  A    between atoms: C_19  and  C_21
    8  A    between atoms: C_20  and  C_27
    9  A    between atoms: N_22  and  C_23
                            x       y       z     vdW  Elec       q    Type
                         _______ _______ _______ _____ _____    ______ ____

>  <TORSDO>
F 9

$$$$
