=
 OpenBabel11052418173D

 28 30  0  0  1  0  0  0  0  0999 V2000
  186.4360  177.8800  145.3310 O   0  0  0  0  0  0  0  0  0  0  0  0
  185.7170  179.9620  143.7040 C   0  0  0  0  0  1  0  0  0  0  0  0
  185.6500  178.5550  143.1200 C   0  0  1  0  0  0  0  0  0  0  0  0
  187.9960  176.7800  147.5180 C   0  0  0  0  0  2  0  0  0  0  0  0
  187.8350  178.3230  142.0970 C   0  0  0  0  0  2  0  0  0  0  0  0
  188.3620  176.1160  143.1940 C   0  0  2  0  0  3  0  0  0  0  0  0
  186.3760  178.5900  141.7680 C   0  0  1  0  0  3  0  0  0  0  0  0
  189.2650  175.9000  145.5760 C   0  0  0  0  0  2  0  0  0  0  0  0
  187.8800  177.5580  143.4180 C   0  0  2  0  0  3  0  0  0  0  0  0
  186.4780  176.6710  147.4040 C   0  0  0  0  0  2  0  0  0  0  0  0
  188.4030  175.2760  144.4870 C   0  0  0  0  0  2  0  0  0  0  0  0
  188.7030  175.5630  146.9430 C   0  0  0  0  0  2  0  0  0  0  0  0
  185.9970  176.7120  145.9610 C   0  0  0  0  0  2  0  0  0  0  0  0
  186.4540  177.5630  143.9660 C   0  0  1  0  0  3  0  0  0  0  0  0
  191.7900  176.2310  142.6480 C   0  0  0  0  0  2  0  0  0  0  0  0
  190.0720  174.6860  142.3320 C   0  0  1  0  0  3  0  0  0  0  0  0
  191.5590  174.7510  142.5080 C   0  0  2  0  0  3  0  0  0  0  0  0
  189.6030  176.0650  142.4020 N   0  0  2  0  0  0  0  0  0  0  0  0
  190.5680  176.8170  143.0080 O   0  0  0  0  0  0  0  0  0  0  0  0
  191.9330  174.0540  143.7750 C   0  0  0  0  0  3  0  0  0  0  0  0
  192.5130  174.6580  144.6630 O   0  0  0  0  0  0  0  0  0  0  0  0
  189.7230  174.1000  140.9730 C   0  0  0  0  0  2  0  0  0  0  0  0
  188.6020  173.0880  141.1090 C   0  0  0  0  0  2  0  0  0  0  0  0
  188.8030  172.2810  142.3740 C   0  0  0  0  0  1  0  0  0  0  0  0
  187.0280  177.1380  139.9190 N   0  0  0  0  0  1  0  0  0  0  0  0
  185.9150  177.5400  140.7610 C   0  0  0  0  0  2  0  0  0  0  0  0
  184.1670  178.1650  143.0510 C   0  0  0  0  0  2  0  0  0  0  0  0
  183.3770  178.9810  143.8670 O   0  0  0  0  0  1  0  0  0  0  0  0
  1 13  1  0  0  0  0
  3  2  1  1  0  0  0
  3 14  1  0  0  0  0
  6  9  1  0  0  0  0
  6 11  1  1  0  0  0
  7 26  1  6  0  0  0
  7  5  1  0  0  0  0
  7  3  1  0  0  0  0
  8 12  1  0  0  0  0
  9  5  1  6  0  0  0
  9 14  1  0  0  0  0
 10  4  1  0  0  0  0
 11  8  1  0  0  0  0
 12  4  1  0  0  0  0
 13 10  1  0  0  0  0
 14  1  1  1  0  0  0
 15 19  1  0  0  0  0
 16 22  1  6  0  0  0
 16 18  1  0  0  0  0
 16 17  1  0  0  0  0
 17 15  1  0  0  0  0
 17 20  1  1  0  0  0
 18 19  1  1  0  0  0
 18  6  1  0  0  0  0
 20 21  2  0  0  0  0
 22 23  1  0  0  0  0
 23 24  1  0  0  0  0
 25 26  1  0  0  0  0
 27  3  1  0  0  0  0
 27 28  1  0  0  0  0
M  END
>  <MODEL>
1

>  <REMARK>
 VINA RESULT:      -6.2      0.000      0.000
  Name = 
  6 active torsions:
  status: ('A' for Active; 'I' for Inactive)
    1  A    between atoms: C_3  and  C_7
    2  A    between atoms: C_9  and  C_14
    3  A    between atoms: C_10  and  N_13
    4  A    between atoms: C_11  and  C_22
    5  A    between atoms: C_12  and  C_15
    6  A    between atoms: C_14  and  C_18
                            x       y       z     vdW  Elec       q    Type
                         _______ _______ _______ _____ _____    ______ ____

>  <TORSDO>
F 6

$$$$
=
 OpenBabel11052418173D

 28 30  0  0  1  0  0  0  0  0999 V2000
  190.8470  174.8560  144.8240 O   0  0  0  0  0  0  0  0  0  0  0  0
  190.2200  172.7740  143.1590 C   0  0  0  0  0  1  0  0  0  0  0  0
  190.0460  174.1890  142.6160 C   0  0  1  0  0  0  0  0  0  0  0  0
  191.0650  176.0170  147.4760 C   0  0  0  0  0  2  0  0  0  0  0  0
  187.7260  174.6540  143.1420 C   0  0  0  0  0  2  0  0  0  0  0  0
  188.1900  176.8610  144.2670 C   0  0  2  0  0  3  0  0  0  0  0  0
  188.6440  174.2670  141.9950 C   0  0  1  0  0  3  0  0  0  0  0  0
  188.9610  177.0760  146.6950 C   0  0  0  0  0  2  0  0  0  0  0  0
  188.5720  175.3740  144.1900 C   0  0  2  0  0  3  0  0  0  0  0  0
  192.1970  175.9910  146.4520 C   0  0  0  0  0  2  0  0  0  0  0  0
  189.0290  177.6560  145.2890 C   0  0  0  0  0  2  0  0  0  0  0  0
  190.2720  177.3130  147.4200 C   0  0  0  0  0  2  0  0  0  0  0  0
  191.6860  175.9560  145.0190 C   0  0  0  0  0  2  0  0  0  0  0  0
  190.0250  175.2200  143.7490 C   0  0  1  0  0  3  0  0  0  0  0  0
  185.1640  177.1370  145.9470 C   0  0  0  0  0  2  0  0  0  0  0  0
  186.4490  178.4760  144.5350 C   0  0  1  0  0  3  0  0  0  0  0  0
  185.3900  178.5810  145.5900 C   0  0  2  0  0  3  0  0  0  0  0  0
  186.7360  177.0520  144.4010 N   0  0  2  0  0  0  0  0  0  0  0  0
  186.2880  176.4160  145.5230 O   0  0  0  0  0  0  0  0  0  0  0  0
  185.9420  179.3180  146.7670 C   0  0  0  0  0  3  0  0  0  0  0  0
  186.0510  178.7600  147.8470 O   0  0  0  0  0  0  0  0  0  0  0  0
  185.9350  179.0170  143.2110 C   0  0  0  0  0  2  0  0  0  0  0  0
  185.2460  177.9190  142.4250 C   0  0  0  0  0  2  0  0  0  0  0  0
  185.7650  177.9160  141.0030 C   0  0  0  0  0  1  0  0  0  0  0  0
  188.1910  174.6440  139.6280 N   0  0  0  0  0  1  0  0  0  0  0  0
  188.4870  175.3050  140.8870 C   0  0  0  0  0  2  0  0  0  0  0  0
  191.2040  174.4440  141.6420 C   0  0  0  0  0  2  0  0  0  0  0  0
  192.3730  173.7890  142.0410 O   0  0  0  0  0  1  0  0  0  0  0  0
  1 13  1  0  0  0  0
  3  2  1  1  0  0  0
  3 14  1  0  0  0  0
  6 18  1  0  0  0  0
  6 11  1  1  0  0  0
  7 26  1  6  0  0  0
  7  3  1  0  0  0  0
  7  5  1  0  0  0  0
  8 12  1  0  0  0  0
  9  5  1  6  0  0  0
  9  6  1  0  0  0  0
 10  4  1  0  0  0  0
 11  8  1  0  0  0  0
 12  4  1  0  0  0  0
 13 10  1  0  0  0  0
 14  9  1  0  0  0  0
 14  1  1  1  0  0  0
 16 22  1  6  0  0  0
 16 17  1  0  0  0  0
 17 15  1  0  0  0  0
 17 20  1  1  0  0  0
 18 16  1  0  0  0  0
 18 19  1  1  0  0  0
 19 15  1  0  0  0  0
 20 21  2  0  0  0  0
 23 22  1  0  0  0  0
 24 23  1  0  0  0  0
 25 26  1  0  0  0  0
 27 28  1  0  0  0  0
 27  3  1  0  0  0  0
M  END
>  <MODEL>
2

>  <REMARK>
 VINA RESULT:      -6.2      1.913      5.810
  Name = 
  6 active torsions:
  status: ('A' for Active; 'I' for Inactive)
    1  A    between atoms: C_3  and  C_7
    2  A    between atoms: C_9  and  C_14
    3  A    between atoms: C_10  and  N_13
    4  A    between atoms: C_11  and  C_22
    5  A    between atoms: C_12  and  C_15
    6  A    between atoms: C_14  and  C_18
                            x       y       z     vdW  Elec       q    Type
                         _______ _______ _______ _____ _____    ______ ____

>  <TORSDO>
F 6

$$$$
=
 OpenBabel11052418173D

 28 30  0  0  1  0  0  0  0  0999 V2000
  191.2250  174.4580  142.7190 O   0  0  0  0  0  0  0  0  0  0  0  0
  193.2700  175.6940  144.0570 C   0  0  0  0  0  1  0  0  0  0  0  0
  191.9940  175.3960  144.8380 C   0  0  1  0  0  0  0  0  0  0  0  0
  189.7350  173.9200  140.2860 C   0  0  0  0  0  2  0  0  0  0  0  0
  190.7390  177.4520  144.5660 C   0  0  0  0  0  2  0  0  0  0  0  0
  188.6240  176.3220  143.7900 C   0  0  2  0  0  3  0  0  0  0  0  0
  191.5940  176.6880  145.5630 C   0  0  1  0  0  3  0  0  0  0  0  0
  188.2290  175.5610  141.3820 C   0  0  0  0  0  2  0  0  0  0  0  0
  190.1440  176.4360  143.5920 C   0  0  2  0  0  3  0  0  0  0  0  0
  190.2970  172.8410  141.2070 C   0  0  0  0  0  2  0  0  0  0  0  0
  187.9620  175.2890  142.8550 C   0  0  0  0  0  2  0  0  0  0  0  0
  188.2880  174.2550  140.6130 C   0  0  0  0  0  2  0  0  0  0  0  0
  190.4270  173.3130  142.6480 C   0  0  0  0  0  2  0  0  0  0  0  0
  190.8230  175.1030  143.8960 C   0  0  1  0  0  3  0  0  0  0  0  0
  186.8210  178.9770  142.4660 C   0  0  0  0  0  2  0  0  0  0  0  0
  186.5880  177.4860  144.2430 C   0  0  1  0  0  3  0  0  0  0  0  0
  185.7690  178.3730  143.3540 C   0  0  2  0  0  3  0  0  0  0  0  0
  187.9670  177.6390  143.7950 N   0  0  2  0  0  0  0  0  0  0  0  0
  187.9530  178.1530  142.5300 O   0  0  0  0  0  0  0  0  0  0  0  0
  184.8390  177.5300  142.5440 C   0  0  0  0  0  3  0  0  0  0  0  0
  184.2740  177.9980  141.5690 O   0  0  0  0  0  0  0  0  0  0  0  0
  186.4720  177.9340  145.6920 C   0  0  0  0  0  2  0  0  0  0  0  0
  185.3200  177.2200  146.3730 C   0  0  0  0  0  2  0  0  0  0  0  0
  184.1860  178.1970  146.6000 C   0  0  0  0  0  1  0  0  0  0  0  0
  189.8240  177.5720  146.9900 N   0  0  0  0  0  1  0  0  0  0  0  0
  190.7760  176.4870  146.8360 C   0  0  0  0  0  2  0  0  0  0  0  0
  192.2940  174.2020  145.7550 C   0  0  0  0  0  2  0  0  0  0  0  0
  193.3520  173.4280  145.2700 O   0  0  0  0  0  1  0  0  0  0  0  0
  3  2  1  6  0  0  0
  3  7  1  0  0  0  0
  3 27  1  0  0  0  0
  4 12  1  0  0  0  0
  4 10  1  0  0  0  0
  5  7  1  0  0  0  0
  6 11  1  6  0  0  0
  6 18  1  0  0  0  0
  7 26  1  1  0  0  0
  8 11  1  0  0  0  0
  9  6  1  0  0  0  0
  9 14  1  0  0  0  0
  9  5  1  1  0  0  0
 10 13  1  0  0  0  0
 12  8  1  0  0  0  0
 13  1  1  0  0  0  0
 14  1  1  6  0  0  0
 14  3  1  0  0  0  0
 15 19  1  0  0  0  0
 15 17  1  0  0  0  0
 16 22  1  1  0  0  0
 17 20  1  6  0  0  0
 17 16  1  0  0  0  0
 18 19  1  6  0  0  0
 18 16  1  0  0  0  0
 21 20  2  0  0  0  0
 22 23  1  0  0  0  0
 23 24  1  0  0  0  0
 26 25  1  0  0  0  0
 28 27  1  0  0  0  0
M  END
>  <MODEL>
3

>  <REMARK>
 VINA RESULT:      -6.1      1.978      6.786
  Name = 
  6 active torsions:
  status: ('A' for Active; 'I' for Inactive)
    1  A    between atoms: C_3  and  C_7
    2  A    between atoms: C_9  and  C_14
    3  A    between atoms: C_10  and  N_13
    4  A    between atoms: C_11  and  C_22
    5  A    between atoms: C_12  and  C_15
    6  A    between atoms: C_14  and  C_18
                            x       y       z     vdW  Elec       q    Type
                         _______ _______ _______ _____ _____    ______ ____

>  <TORSDO>
F 6

$$$$
=
 OpenBabel11052418173D

 28 30  0  0  1  0  0  0  0  0999 V2000
  192.2520  173.0990  142.9630 O   0  0  0  0  0  0  0  0  0  0  0  0
  194.6750  174.3510  143.2110 C   0  0  0  0  0  1  0  0  0  0  0  0
  193.6790  174.5080  144.3570 C   0  0  1  0  0  0  0  0  0  0  0  0
  190.0660  172.0820  141.3450 C   0  0  0  0  0  2  0  0  0  0  0  0
  192.5240  176.5510  143.7520 C   0  0  0  0  0  2  0  0  0  0  0  0
  190.2100  175.5800  143.9960 C   0  0  2  0  0  3  0  0  0  0  0  0
  193.5930  176.0050  144.6820 C   0  0  1  0  0  3  0  0  0  0  0  0
  189.0610  174.1910  142.1830 C   0  0  0  0  0  2  0  0  0  0  0  0
  191.6030  175.3920  143.3740 C   0  0  2  0  0  3  0  0  0  0  0  0
  190.8170  171.2620  142.3910 C   0  0  0  0  0  2  0  0  0  0  0  0
  189.2370  174.4260  143.6760 C   0  0  0  0  0  2  0  0  0  0  0  0
  188.8080  172.7210  141.9130 C   0  0  0  0  0  2  0  0  0  0  0  0
  191.4040  172.1250  143.4980 C   0  0  0  0  0  2  0  0  0  0  0  0
  192.2620  174.1260  143.9170 C   0  0  1  0  0  3  0  0  0  0  0  0
  188.6700  178.0710  142.1320 C   0  0  0  0  0  2  0  0  0  0  0  0
  188.2640  176.9590  144.1400 C   0  0  1  0  0  3  0  0  0  0  0  0
  187.5470  177.7230  143.0700 C   0  0  2  0  0  3  0  0  0  0  0  0
  189.6640  176.9210  143.7310 N   0  0  2  0  0  0  0  0  0  0  0  0
  189.7280  177.1900  142.3940 O   0  0  0  0  0  0  0  0  0  0  0  0
  186.5740  176.8170  142.3880 C   0  0  0  0  0  3  0  0  0  0  0  0
  186.0470  175.9040  143.0030 O   0  0  0  0  0  0  0  0  0  0  0  0
  188.1450  177.6750  145.4760 C   0  0  0  0  0  2  0  0  0  0  0  0
  187.5300  176.7550  146.5130 C   0  0  0  0  0  2  0  0  0  0  0  0
  186.0200  176.8260  146.4170 C   0  0  0  0  0  1  0  0  0  0  0  0
  194.2620  177.0460  146.7840 N   0  0  0  0  0  1  0  0  0  0  0  0
  193.1890  176.3300  146.1180 C   0  0  0  0  0  2  0  0  0  0  0  0
  194.1720  173.6190  145.5070 C   0  0  0  0  0  2  0  0  0  0  0  0
  195.5650  173.5040  145.5150 O   0  0  0  0  0  1  0  0  0  0  0  0
  1 13  1  0  0  0  0
  3  2  1  6  0  0  0
  3  7  1  0  0  0  0
  3 27  1  0  0  0  0
  4 12  1  0  0  0  0
  4 10  1  0  0  0  0
  5  7  1  0  0  0  0
  6 11  1  6  0  0  0
  7 26  1  1  0  0  0
  8 11  1  0  0  0  0
  9  5  1  1  0  0  0
  9 14  1  0  0  0  0
  9  6  1  0  0  0  0
 10 13  1  0  0  0  0
 12  8  1  0  0  0  0
 14  1  1  6  0  0  0
 14  3  1  0  0  0  0
 15 19  1  0  0  0  0
 15 17  1  0  0  0  0
 16 22  1  1  0  0  0
 17 20  1  6  0  0  0
 17 16  1  0  0  0  0
 18 19  1  6  0  0  0
 18  6  1  0  0  0  0
 18 16  1  0  0  0  0
 20 21  2  0  0  0  0
 22 23  1  0  0  0  0
 24 23  1  0  0  0  0
 26 25  1  0  0  0  0
 27 28  1  0  0  0  0
M  END
>  <MODEL>
4

>  <REMARK>
 VINA RESULT:      -5.9      2.270      7.115
  Name = 
  6 active torsions:
  status: ('A' for Active; 'I' for Inactive)
    1  A    between atoms: C_3  and  C_7
    2  A    between atoms: C_9  and  C_14
    3  A    between atoms: C_10  and  N_13
    4  A    between atoms: C_11  and  C_22
    5  A    between atoms: C_12  and  C_15
    6  A    between atoms: C_14  and  C_18
                            x       y       z     vdW  Elec       q    Type
                         _______ _______ _______ _____ _____    ______ ____

>  <TORSDO>
F 6

$$$$
=
 OpenBabel11052418173D

 28 30  0  0  1  0  0  0  0  0999 V2000
  188.1580  176.4400  145.3420 O   0  0  0  0  0  0  0  0  0  0  0  0
  189.3180  174.8710  147.2640 C   0  0  0  0  0  1  0  0  0  0  0  0
  190.2010  175.3470  146.1150 C   0  0  1  0  0  0  0  0  0  0  0  0
  185.8580  177.2580  143.7710 C   0  0  0  0  0  2  0  0  0  0  0  0
  190.0100  173.5190  144.5340 C   0  0  0  0  0  2  0  0  0  0  0  0
  189.4160  174.9830  142.5700 C   0  0  2  0  0  3  0  0  0  0  0  0
  190.9430  174.1180  145.5730 C   0  0  1  0  0  3  0  0  0  0  0  0
  187.0550  175.8490  142.1150 C   0  0  0  0  0  2  0  0  0  0  0  0
  189.0970  174.6360  144.0330 C   0  0  2  0  0  3  0  0  0  0  0  0
  186.7410  178.2150  144.5670 C   0  0  0  0  0  2  0  0  0  0  0  0
  188.5480  176.1280  142.0090 C   0  0  0  0  0  2  0  0  0  0  0  0
  186.2960  177.1460  142.3190 C   0  0  0  0  0  2  0  0  0  0  0  0
  188.1630  177.6970  144.7320 C   0  0  0  0  0  2  0  0  0  0  0  0
  189.3580  175.8410  144.9350 C   0  0  1  0  0  3  0  0  0  0  0  0
  188.1710  172.5980  140.3750 C   0  0  0  0  0  2  0  0  0  0  0  0
  189.8970  174.1660  140.3770 C   0  0  1  0  0  3  0  0  0  0  0  0
  189.0340  173.3890  139.4300 C   0  0  2  0  0  3  0  0  0  0  0  0
  189.4610  173.7850  141.7160 N   0  0  2  0  0  0  0  0  0  0  0  0
  188.2140  173.2380  141.6220 O   0  0  0  0  0  0  0  0  0  0  0  0
  188.1920  174.3390  138.6430 C   0  0  0  0  0  3  0  0  0  0  0  0
  188.2720  174.3700  137.4260 O   0  0  0  0  0  0  0  0  0  0  0  0
  191.3590  173.7900  140.1930 C   0  0  0  0  0  2  0  0  0  0  0  0
  191.7420  172.6770  141.1500 C   0  0  0  0  0  2  0  0  0  0  0  0
  193.1600  172.8950  141.6330 C   0  0  0  0  0  1  0  0  0  0  0  0
  193.3320  173.6280  145.5140 N   0  0  0  0  0  1  0  0  0  0  0  0
  192.2790  174.4170  144.8990 C   0  0  0  0  0  2  0  0  0  0  0  0
  191.1020  176.4590  146.6690 C   0  0  0  0  0  2  0  0  0  0  0  0
  190.4470  177.2220  147.6410 O   0  0  0  0  0  1  0  0  0  0  0  0
  3 27  1  0  0  0  0
  3  2  1  1  0  0  0
  4 10  1  0  0  0  0
  5  7  1  0  0  0  0
  6 11  1  6  0  0  0
  6  9  1  0  0  0  0
  7 26  1  6  0  0  0
  7  3  1  0  0  0  0
  8 12  1  0  0  0  0
  9  5  1  1  0  0  0
  9 14  1  0  0  0  0
 10 13  1  0  0  0  0
 11  8  1  0  0  0  0
 12  4  1  0  0  0  0
 13  1  1  0  0  0  0
 14  1  1  1  0  0  0
 14  3  1  0  0  0  0
 15 19  1  0  0  0  0
 16 22  1  1  0  0  0
 16 18  1  0  0  0  0
 17 20  1  1  0  0  0
 17 15  1  0  0  0  0
 17 16  1  0  0  0  0
 18 19  1  6  0  0  0
 18  6  1  0  0  0  0
 21 20  2  0  0  0  0
 22 23  1  0  0  0  0
 23 24  1  0  0  0  0
 26 25  1  0  0  0  0
 27 28  1  0  0  0  0
M  END
>  <MODEL>
5

>  <REMARK>
 VINA RESULT:      -5.6      2.542      5.368
  Name = 
  6 active torsions:
  status: ('A' for Active; 'I' for Inactive)
    1  A    between atoms: C_3  and  C_7
    2  A    between atoms: C_9  and  C_14
    3  A    between atoms: C_10  and  N_13
    4  A    between atoms: C_11  and  C_22
    5  A    between atoms: C_12  and  C_15
    6  A    between atoms: C_14  and  C_18
                            x       y       z     vdW  Elec       q    Type
                         _______ _______ _______ _____ _____    ______ ____

>  <TORSDO>
F 6

$$$$
=
 OpenBabel11052418173D

 28 30  0  0  1  0  0  0  0  0999 V2000
  185.9790  177.4650  143.8210 O   0  0  0  0  0  0  0  0  0  0  0  0
  185.0330  176.8250  146.3100 C   0  0  0  0  0  1  0  0  0  0  0  0
  186.2760  177.7060  146.2330 C   0  0  1  0  0  0  0  0  0  0  0  0
  186.3740  176.8460  141.0120 C   0  0  0  0  0  2  0  0  0  0  0  0
  188.0650  176.0740  146.3360 C   0  0  0  0  0  2  0  0  0  0  0  0
  189.2780  176.9430  144.3040 C   0  0  2  0  0  3  0  0  0  0  0  0
  187.3230  177.0990  147.1770 C   0  0  1  0  0  3  0  0  0  0  0  0
  188.6330  176.3370  141.9060 C   0  0  0  0  0  2  0  0  0  0  0  0
  187.9240  176.4870  144.8720 C   0  0  2  0  0  3  0  0  0  0  0  0
  185.7480  178.1380  141.5290 C   0  0  0  0  0  2  0  0  0  0  0  0
  189.2010  177.4020  142.8330 C   0  0  0  0  0  2  0  0  0  0  0  0
  187.8680  176.9890  140.7700 C   0  0  0  0  0  2  0  0  0  0  0  0
  186.2350  178.5050  142.9240 C   0  0  0  0  0  2  0  0  0  0  0  0
  186.9200  177.6370  144.8450 C   0  0  1  0  0  3  0  0  0  0  0  0
  191.1290  174.0430  143.8370 C   0  0  0  0  0  2  0  0  0  0  0  0
  191.5380  176.3380  143.8180 C   0  0  1  0  0  3  0  0  0  0  0  0
  192.0960  175.0540  143.2840 C   0  0  2  0  0  3  0  0  0  0  0  0
  190.3480  175.9690  144.5770 N   0  0  2  0  0  0  0  0  0  0  0  0
  189.9530  174.7250  144.1780 O   0  0  0  0  0  0  0  0  0  0  0  0
  192.0200  175.0710  141.7930 C   0  0  0  0  0  3  0  0  0  0  0  0
  191.4150  174.1950  141.1960 O   0  0  0  0  0  0  0  0  0  0  0  0
  192.5420  177.0100  144.7430 C   0  0  0  0  0  2  0  0  0  0  0  0
  192.6040  176.2800  146.0710 C   0  0  0  0  0  2  0  0  0  0  0  0
  194.0420  175.9200  146.3800 C   0  0  0  0  0  1  0  0  0  0  0  0
  189.6760  177.5200  147.6610 N   0  0  0  0  0  1  0  0  0  0  0  0
  188.3430  178.0900  147.7310 C   0  0  0  0  0  2  0  0  0  0  0  0
  185.8380  179.1360  146.5800 C   0  0  0  0  0  2  0  0  0  0  0  0
  184.5830  179.4400  146.0430 O   0  0  0  0  0  1  0  0  0  0  0  0
  3  2  1  1  0  0  0
  3 27  1  0  0  0  0
  3  7  1  0  0  0  0
  4 10  1  0  0  0  0
  5  7  1  0  0  0  0
  6 11  1  6  0  0  0
  6 18  1  0  0  0  0
  6  9  1  0  0  0  0
  7 26  1  6  0  0  0
  8 11  1  0  0  0  0
  9  5  1  1  0  0  0
 10 13  1  0  0  0  0
 12  4  1  0  0  0  0
 12  8  1  0  0  0  0
 13  1  1  0  0  0  0
 14  1  1  6  0  0  0
 14  9  1  0  0  0  0
 14  3  1  0  0  0  0
 15 19  1  0  0  0  0
 16 18  1  0  0  0  0
 16 22  1  1  0  0  0
 17 20  1  6  0  0  0
 17 16  1  0  0  0  0
 17 15  1  0  0  0  0
 18 19  1  6  0  0  0
 21 20  2  0  0  0  0
 22 23  1  0  0  0  0
 23 24  1  0  0  0  0
 25 26  1  0  0  0  0
 28 27  1  0  0  0  0
M  END
>  <MODEL>
6

>  <REMARK>
 VINA RESULT:      -5.5      2.094      4.542
  Name = 
  6 active torsions:
  status: ('A' for Active; 'I' for Inactive)
    1  A    between atoms: C_3  and  C_7
    2  A    between atoms: C_9  and  C_14
    3  A    between atoms: C_10  and  N_13
    4  A    between atoms: C_11  and  C_22
    5  A    between atoms: C_12  and  C_15
    6  A    between atoms: C_14  and  C_18
                            x       y       z     vdW  Elec       q    Type
                         _______ _______ _______ _____ _____    ______ ____

>  <TORSDO>
F 6

$$$$
=
 OpenBabel11052418173D

 28 30  0  0  1  0  0  0  0  0999 V2000
  192.7740  172.0670  143.0180 O   0  0  0  0  0  0  0  0  0  0  0  0
  191.0110  170.2740  141.9350 C   0  0  0  0  0  1  0  0  0  0  0  0
  190.7870  171.7530  141.6350 C   0  0  1  0  0  0  0  0  0  0  0  0
  194.6110  172.8820  145.1140 C   0  0  0  0  0  2  0  0  0  0  0  0
  189.2600  172.4050  143.4010 C   0  0  0  0  0  2  0  0  0  0  0  0
  190.6100  174.4020  144.1370 C   0  0  2  0  0  3  0  0  0  0  0  0
  189.3100  172.0560  141.9230 C   0  0  1  0  0  3  0  0  0  0  0  0
  192.6250  174.2480  145.7030 C   0  0  0  0  0  2  0  0  0  0  0  0
  190.6470  172.9020  143.8070 C   0  0  2  0  0  3  0  0  0  0  0  0
  194.9600  172.8510  143.6280 C   0  0  0  0  0  2  0  0  0  0  0  0
  191.9880  174.9760  144.5280 C   0  0  0  0  0  2  0  0  0  0  0  0
  194.1350  174.2540  145.5620 C   0  0  0  0  0  2  0  0  0  0  0  0
  193.7390  173.0390  142.7390 C   0  0  0  0  0  2  0  0  0  0  0  0
  191.5620  172.6410  142.6130 C   0  0  1  0  0  3  0  0  0  0  0  0
  189.1330  174.8520  147.2470 C   0  0  0  0  0  2  0  0  0  0  0  0
  189.5660  176.1630  145.3690 C   0  0  1  0  0  3  0  0  0  0  0  0
  189.3140  176.2890  146.8410 C   0  0  2  0  0  3  0  0  0  0  0  0
  189.5290  174.7350  145.0790 N   0  0  2  0  0  0  0  0  0  0  0  0
  189.7100  174.0540  146.2490 O   0  0  0  0  0  0  0  0  0  0  0  0
  190.5280  176.8570  147.4990 C   0  0  0  0  0  3  0  0  0  0  0  0
  191.1960  176.1720  148.2580 O   0  0  0  0  0  0  0  0  0  0  0  0
  188.4740  176.8700  144.5810 C   0  0  0  0  0  2  0  0  0  0  0  0
  187.4480  177.4690  145.5240 C   0  0  0  0  0  2  0  0  0  0  0  0
  186.0830  176.8930  145.2130 C   0  0  0  0  0  1  0  0  0  0  0  0
  187.7510  173.9310  141.9480 N   0  0  0  0  0  1  0  0  0  0  0  0
  188.7270  173.2260  141.1360 C   0  0  0  0  0  2  0  0  0  0  0  0
  191.2290  171.9910  140.1850 C   0  0  0  0  0  2  0  0  0  0  0  0
  190.8340  170.9460  139.3430 O   0  0  0  0  0  1  0  0  0  0  0  0
  3  7  1  0  0  0  0
  3  2  1  1  0  0  0
  3 14  1  0  0  0  0
  4 12  1  0  0  0  0
  6 11  1  1  0  0  0
  6 18  1  0  0  0  0
  7 26  1  6  0  0  0
  7  5  1  0  0  0  0
  9  5  1  6  0  0  0
  9  6  1  0  0  0  0
 10  4  1  0  0  0  0
 11  8  1  0  0  0  0
 12  8  1  0  0  0  0
 13  1  1  0  0  0  0
 13 10  1  0  0  0  0
 14  1  1  1  0  0  0
 14  9  1  0  0  0  0
 16 22  1  6  0  0  0
 16 17  1  0  0  0  0
 17 15  1  0  0  0  0
 17 20  1  1  0  0  0
 18 16  1  0  0  0  0
 18 19  1  1  0  0  0
 19 15  1  0  0  0  0
 20 21  2  0  0  0  0
 22 23  1  0  0  0  0
 24 23  1  0  0  0  0
 26 25  1  0  0  0  0
 27  3  1  0  0  0  0
 28 27  1  0  0  0  0
M  END
>  <MODEL>
7

>  <REMARK>
 VINA RESULT:      -5.5      3.019      6.769
  Name = 
  6 active torsions:
  status: ('A' for Active; 'I' for Inactive)
    1  A    between atoms: C_3  and  C_7
    2  A    between atoms: C_9  and  C_14
    3  A    between atoms: C_10  and  N_13
    4  A    between atoms: C_11  and  C_22
    5  A    between atoms: C_12  and  C_15
    6  A    between atoms: C_14  and  C_18
                            x       y       z     vdW  Elec       q    Type
                         _______ _______ _______ _____ _____    ______ ____

>  <TORSDO>
F 6

$$$$
=
 OpenBabel11052418173D

 28 30  0  0  1  0  0  0  0  0999 V2000
  189.6190  174.9020  144.7470 O   0  0  0  0  0  0  0  0  0  0  0  0
  188.7510  175.3310  142.1850 C   0  0  0  0  0  1  0  0  0  0  0  0
  189.5920  174.0850  142.4460 C   0  0  1  0  0  0  0  0  0  0  0  0
  190.4600  175.8830  147.3470 C   0  0  0  0  0  2  0  0  0  0  0  0
  191.8340  174.8750  141.9710 C   0  0  0  0  0  2  0  0  0  0  0  0
  192.8260  174.0470  144.1360 C   0  0  2  0  0  3  0  0  0  0  0  0
  190.6990  174.0540  141.3830 C   0  0  1  0  0  3  0  0  0  0  0  0
  192.6610  175.3210  146.3460 C   0  0  0  0  0  2  0  0  0  0  0  0
  191.6850  174.8500  143.4910 C   0  0  2  0  0  3  0  0  0  0  0  0
  189.3660  174.8400  147.1330 C   0  0  0  0  0  2  0  0  0  0  0  0
  192.7190  173.9570  145.6720 C   0  0  0  0  0  2  0  0  0  0  0  0
  191.8170  175.2450  147.6030 C   0  0  0  0  0  2  0  0  0  0  0  0
  189.5600  174.0450  145.8500 C   0  0  0  0  0  2  0  0  0  0  0  0
  190.3390  174.1880  143.7800 C   0  0  1  0  0  3  0  0  0  0  0  0
  195.8590  175.7330  144.2410 C   0  0  0  0  0  2  0  0  0  0  0  0
  195.1550  173.5160  144.0850 C   0  0  1  0  0  3  0  0  0  0  0  0
  196.3360  174.3320  144.5120 C   0  0  2  0  0  3  0  0  0  0  0  0
  194.1470  174.4750  143.6470 N   0  0  2  0  0  0  0  0  0  0  0  0
  194.4600  175.6960  144.1700 O   0  0  0  0  0  0  0  0  0  0  0  0
  196.5590  174.1430  145.9770 C   0  0  0  0  0  3  0  0  0  0  0  0
  197.0750  173.1180  146.3940 O   0  0  0  0  0  0  0  0  0  0  0  0
  195.5290  172.6060  142.9250 C   0  0  0  0  0  2  0  0  0  0  0  0
  194.9290  171.2280  143.1220 C   0  0  0  0  0  2  0  0  0  0  0  0
  194.8540  170.9190  144.6030 C   0  0  0  0  0  1  0  0  0  0  0  0
  192.6340  172.7530  140.6650 N   0  0  0  0  0  1  0  0  0  0  0  0
  191.2370  172.6640  141.0530 C   0  0  0  0  0  2  0  0  0  0  0  0
  188.6370  172.8830  142.4260 C   0  0  0  0  0  2  0  0  0  0  0  0
  189.0090  171.9080  143.3570 O   0  0  0  0  0  1  0  0  0  0  0  0
  1 13  1  0  0  0  0
  3  2  1  6  0  0  0
  3 14  1  0  0  0  0
  4 12  1  0  0  0  0
  6 11  1  1  0  0  0
  7 26  1  1  0  0  0
  7  5  1  0  0  0  0
  7  3  1  0  0  0  0
  8 12  1  0  0  0  0
  9  5  1  6  0  0  0
  9 14  1  0  0  0  0
  9  6  1  0  0  0  0
 10  4  1  0  0  0  0
 11  8  1  0  0  0  0
 13 10  1  0  0  0  0
 14  1  1  1  0  0  0
 15 17  1  0  0  0  0
 16 22  1  6  0  0  0
 16 17  1  0  0  0  0
 17 20  1  1  0  0  0
 18 16  1  0  0  0  0
 18  6  1  0  0  0  0
 18 19  1  1  0  0  0
 19 15  1  0  0  0  0
 20 21  2  0  0  0  0
 22 23  1  0  0  0  0
 23 24  1  0  0  0  0
 25 26  1  0  0  0  0
 27  3  1  0  0  0  0
 27 28  1  0  0  0  0
M  END
>  <MODEL>
8

>  <REMARK>
 VINA RESULT:      -5.4      3.588      5.503
  Name = 
  6 active torsions:
  status: ('A' for Active; 'I' for Inactive)
    1  A    between atoms: C_3  and  C_7
    2  A    between atoms: C_9  and  C_14
    3  A    between atoms: C_10  and  N_13
    4  A    between atoms: C_11  and  C_22
    5  A    between atoms: C_12  and  C_15
    6  A    between atoms: C_14  and  C_18
                            x       y       z     vdW  Elec       q    Type
                         _______ _______ _______ _____ _____    ______ ____

>  <TORSDO>
F 6

$$$$
=
 OpenBabel11052418173D

 28 30  0  0  1  0  0  0  0  0999 V2000
  190.6040  176.2980  145.3530 O   0  0  0  0  0  0  0  0  0  0  0  0
  192.7150  175.2870  146.7750 C   0  0  0  0  0  1  0  0  0  0  0  0
  192.9770  175.7230  145.3370 C   0  0  1  0  0  0  0  0  0  0  0  0
  187.7650  176.4330  144.7620 C   0  0  0  0  0  2  0  0  0  0  0  0
  192.6320  173.6610  144.1100 C   0  0  0  0  0  2  0  0  0  0  0  0
  191.0390  174.6630  142.4330 C   0  0  2  0  0  3  0  0  0  0  0  0
  193.7230  174.5740  144.6440 C   0  0  1  0  0  3  0  0  0  0  0  0
  188.5470  175.0120  142.8830 C   0  0  0  0  0  2  0  0  0  0  0  0
  191.3720  174.5040  143.9250 C   0  0  2  0  0  3  0  0  0  0  0  0
  188.6390  177.6460  145.0650 C   0  0  0  0  0  2  0  0  0  0  0  0
  189.7900  175.5300  142.1730 C   0  0  0  0  0  2  0  0  0  0  0  0
  187.6470  176.1700  143.2690 C   0  0  0  0  0  2  0  0  0  0  0  0
  190.0980  177.4220  144.6940 C   0  0  0  0  0  2  0  0  0  0  0  0
  191.6690  175.8640  144.5520 C   0  0  1  0  0  3  0  0  0  0  0  0
  189.6770  171.6980  141.2460 C   0  0  0  0  0  2  0  0  0  0  0  0
  190.6850  173.5890  140.3280 C   0  0  1  0  0  3  0  0  0  0  0  0
  189.7510  172.4770  139.9610 C   0  0  2  0  0  3  0  0  0  0  0  0
  191.0330  173.3710  141.7270 N   0  0  2  0  0  0  0  0  0  0  0  0
  190.0950  172.5470  142.2800 O   0  0  0  0  0  0  0  0  0  0  0  0
  188.4110  173.0510  139.6350 C   0  0  0  0  0  3  0  0  0  0  0  0
  188.3110  174.2050  139.2500 O   0  0  0  0  0  0  0  0  0  0  0  0
  191.9440  173.5280  139.4760 C   0  0  0  0  0  2  0  0  0  0  0  0
  192.9920  172.6620  140.1470 C   0  0  0  0  0  2  0  0  0  0  0  0
  194.3200  173.3900  140.1490 C   0  0  0  0  0  1  0  0  0  0  0  0
  195.8550  174.2480  143.5040 N   0  0  0  0  0  1  0  0  0  0  0  0
  194.6090  174.9940  143.4740 C   0  0  0  0  0  2  0  0  0  0  0  0
  193.7440  177.0510  145.4000 C   0  0  0  0  0  2  0  0  0  0  0  0
  194.4370  177.1940  146.6060 O   0  0  0  0  0  1  0  0  0  0  0  0
  3 27  1  0  0  0  0
  3  2  1  1  0  0  0
  4 10  1  0  0  0  0
  5  7  1  0  0  0  0
  6 11  1  1  0  0  0
  6  9  1  0  0  0  0
  7 26  1  6  0  0  0
  7  3  1  0  0  0  0
  8 12  1  0  0  0  0
  9  5  1  6  0  0  0
  9 14  1  0  0  0  0
 11  8  1  0  0  0  0
 12  4  1  0  0  0  0
 13 10  1  0  0  0  0
 13  1  1  0  0  0  0
 14  3  1  0  0  0  0
 14  1  1  1  0  0  0
 15 19  1  0  0  0  0
 16 22  1  6  0  0  0
 16 18  1  0  0  0  0
 17 20  1  1  0  0  0
 17 16  1  0  0  0  0
 17 15  1  0  0  0  0
 18 19  1  1  0  0  0
 18  6  1  0  0  0  0
 21 20  2  0  0  0  0
 22 23  1  0  0  0  0
 23 24  1  0  0  0  0
 26 25  1  0  0  0  0
 27 28  1  0  0  0  0
M  END
>  <MODEL>
9

>  <REMARK>
 VINA RESULT:      -5.2      3.017      6.162
  Name = 
  6 active torsions:
  status: ('A' for Active; 'I' for Inactive)
    1  A    between atoms: C_3  and  C_7
    2  A    between atoms: C_9  and  C_14
    3  A    between atoms: C_10  and  N_13
    4  A    between atoms: C_11  and  C_22
    5  A    between atoms: C_12  and  C_15
    6  A    between atoms: C_14  and  C_18
                            x       y       z     vdW  Elec       q    Type
                         _______ _______ _______ _____ _____    ______ ____

>  <TORSDO>
F 6

$$$$
