=
 OpenBabel11052418163D

 28 29  0  0  1  0  0  0  0  0999 V2000
  189.6140  177.7340  144.6800 O   0  0  0  0  0  1  0  0  0  0  0  0
  188.7350  175.2930  146.2000 C   0  0  0  0  0  2  0  0  0  0  0  0
  191.3780  176.2900  145.4660 C   0  0  2  0  0  3  0  0  0  0  0  0
  189.9250  174.3520  146.0870 C   0  0  0  0  0  2  0  0  0  0  0  0
  190.2320  177.2500  145.8340 C   0  0  2  0  0  3  0  0  0  0  0  0
  189.2160  176.6080  146.7770 C   0  0  1  0  0  3  0  0  0  0  0  0
  190.9900  174.8800  145.2110 N   0  0  0  0  0  0  0  0  0  0  0  0
  190.8140  174.5300  143.7750 C   0  0  1  0  0  0  0  0  0  0  0  0
  191.6530  175.4410  142.8900 C   0  0  0  0  0  1  0  0  0  0  0  0
  191.2940  173.0960  143.4740 C   0  0  0  0  0  2  0  0  0  0  0  0
  192.6850  172.9900  143.5490 O   0  0  0  0  0  0  0  0  0  0  0  0
  192.9080  171.9340  144.4310 C   0  0  0  0  0  1  0  0  0  0  0  0
  189.4650  174.6980  143.3610 O   0  0  0  0  0  0  0  0  0  0  0  0
  189.3980  174.8810  141.9670 C   0  0  0  0  0  2  0  0  0  0  0  0
  188.1270  175.6270  141.5950 C   0  0  1  0  0  3  0  0  0  0  0  0
  187.1040  175.2790  142.4580 F   0  0  0  0  0  0  0  0  0  0  0  0
  188.3450  177.0020  141.6530 O   0  0  0  0  0  1  0  0  0  0  0  0
  193.5780  175.2760  146.2160 C   0  0  0  0  0  1  0  0  0  0  0  0
  192.5590  176.3840  146.4320 C   0  0  0  0  0  2  0  0  0  0  0  0
  188.1330  177.4670  146.9870 O   0  0  0  0  0  0  0  0  0  0  0  0
  186.9990  176.6690  146.8060 C   0  0  0  0  0  2  0  0  0  0  0  0
  183.9440  178.7380  145.9600 C   0  0  0  0  0  3  0  0  0  0  0  0
  185.9750  177.4180  146.0280 C   0  0  0  0  0  0  0  0  0  0  0  0
  185.1690  178.2960  143.9180 C   0  0  0  0  0  0  0  0  0  0  0  0
  184.8910  178.0100  146.6870 C   0  0  0  0  0  3  0  0  0  0  0  0
  186.1170  177.5680  144.6440 C   0  0  0  0  0  3  0  0  0  0  0  0
  185.3440  178.4770  142.1870 Cl  0  0  0  0  0  0  0  0  0  0  0  0
  184.0820  178.8800  144.5760 C   0  0  0  0  0  3  0  0  0  0  0  0
  2  6  1  0  0  0  0
  3  5  1  0  0  0  0
  3 19  1  1  0  0  0
  4  2  1  0  0  0  0
  5  1  1  6  0  0  0
  5  6  1  0  0  0  0
  6 20  1  6  0  0  0
  7  3  1  0  0  0  0
  7  4  1  0  0  0  0
  8  9  1  6  0  0  0
  8  7  1  0  0  0  0
 10 11  1  0  0  0  0
 10  8  1  0  0  0  0
 11 12  1  0  0  0  0
 13  8  1  0  0  0  0
 14 13  1  0  0  0  0
 15 17  1  1  0  0  0
 15 14  1  0  0  0  0
 15 16  1  0  0  0  0
 18 19  1  0  0  0  0
 21 20  1  0  0  0  0
 22 25  1  0  0  0  0
 23 25  2  0  0  0  0
 23 21  1  0  0  0  0
 24 28  1  0  0  0  0
 24 26  2  0  0  0  0
 26 23  1  0  0  0  0
 27 24  1  0  0  0  0
 28 22  2  0  0  0  0
M  END
>  <MODEL>
1

>  <REMARK>
 VINA RESULT:      -6.1      0.000      0.000
  Name = 
  10 active torsions:
  status: ('A' for Active; 'I' for Inactive)
    1  A    between atoms: C_1  and  C_3
    2  A    between atoms: C_1  and  O_11
    3  A    between atoms: C_1  and  N_27
    4  A    between atoms: O_2  and  C_3
    5  A    between atoms: C_6  and  C_8
    6  A    between atoms: C_8  and  O_11
    7  A    between atoms: C_9  and  C_18
    8  A    between atoms: O_14  and  C_18
    9  A    between atoms: O_14  and  C_25
   10  A    between atoms: C_16  and  C_21
                            x       y       z     vdW  Elec       q    Type
                         _______ _______ _______ _____ _____    ______ ____

>  <TORSDO>
F 10

$$$$
=
 OpenBabel11052418163D

 28 29  0  0  1  0  0  0  0  0999 V2000
  191.3940  178.4730  143.7330 O   0  0  0  0  0  1  0  0  0  0  0  0
  190.8800  175.6800  142.7440 C   0  0  0  0  0  2  0  0  0  0  0  0
  191.3990  176.7420  145.4130 C   0  0  2  0  0  3  0  0  0  0  0  0
  191.4600  174.7990  143.8410 C   0  0  0  0  0  2  0  0  0  0  0  0
  190.5820  177.5370  144.3780 C   0  0  2  0  0  3  0  0  0  0  0  0
  189.8800  176.6300  143.3700 C   0  0  1  0  0  3  0  0  0  0  0  0
  192.1500  175.5730  144.8910 N   0  0  0  0  0  0  0  0  0  0  0  0
  193.5870  175.8320  144.5980 C   0  0  1  0  0  0  0  0  0  0  0  0
  194.1040  177.0020  145.4250 C   0  0  0  0  0  1  0  0  0  0  0  0
  194.4730  174.6290  144.9750 C   0  0  0  0  0  2  0  0  0  0  0  0
  195.3150  174.9230  146.0510 O   0  0  0  0  0  0  0  0  0  0  0  0
  196.4230  174.0990  145.8630 C   0  0  0  0  0  1  0  0  0  0  0  0
  193.7840  176.1850  143.2360 O   0  0  0  0  0  0  0  0  0  0  0  0
  194.8020  175.3980  142.6660 C   0  0  0  0  0  2  0  0  0  0  0  0
  195.8230  176.2820  141.9690 C   0  0  1  0  0  3  0  0  0  0  0  0
  195.1800  177.2150  141.1770 F   0  0  0  0  0  0  0  0  0  0  0  0
  196.6160  176.9330  142.9140 O   0  0  0  0  0  1  0  0  0  0  0  0
  191.3390  176.6520  147.9460 C   0  0  0  0  0  1  0  0  0  0  0  0
  190.5850  176.3800  146.6550 C   0  0  0  0  0  2  0  0  0  0  0  0
  189.2530  177.3910  142.3800 O   0  0  0  0  0  0  0  0  0  0  0  0
  187.9800  176.8290  142.2440 C   0  0  0  0  0  2  0  0  0  0  0  0
  185.6550  179.4890  143.6030 C   0  0  0  0  0  3  0  0  0  0  0  0
  187.0170  177.5420  143.1260 C   0  0  0  0  0  0  0  0  0  0  0  0
  185.5860  177.5720  145.0820 C   0  0  0  0  0  0  0  0  0  0  0  0
  186.5820  178.8300  142.7900 C   0  0  0  0  0  3  0  0  0  0  0  0
  186.5120  176.9110  144.2680 C   0  0  0  0  0  3  0  0  0  0  0  0
  184.9610  176.7840  146.5130 Cl  0  0  0  0  0  0  0  0  0  0  0  0
  185.1580  178.8610  144.7490 C   0  0  0  0  0  3  0  0  0  0  0  0
  2  6  1  0  0  0  0
  2  4  1  0  0  0  0
  3 19  1  1  0  0  0
  4  7  1  0  0  0  0
  5  1  1  6  0  0  0
  5  3  1  0  0  0  0
  6 20  1  6  0  0  0
  6  5  1  0  0  0  0
  7  3  1  0  0  0  0
  8  7  1  0  0  0  0
  8 10  1  0  0  0  0
  8  9  1  1  0  0  0
 10 11  1  0  0  0  0
 12 11  1  0  0  0  0
 13  8  1  0  0  0  0
 14 13  1  0  0  0  0
 15 16  1  1  0  0  0
 15 14  1  0  0  0  0
 15 17  1  0  0  0  0
 19 18  1  0  0  0  0
 21 20  1  0  0  0  0
 21 23  1  0  0  0  0
 22 28  1  0  0  0  0
 23 26  2  0  0  0  0
 24 27  1  0  0  0  0
 25 23  1  0  0  0  0
 25 22  2  0  0  0  0
 26 24  1  0  0  0  0
 28 24  2  0  0  0  0
M  END
>  <MODEL>
2

>  <REMARK>
 VINA RESULT:      -5.7      2.895      4.198
  Name = 
  10 active torsions:
  status: ('A' for Active; 'I' for Inactive)
    1  A    between atoms: C_1  and  C_3
    2  A    between atoms: C_1  and  O_11
    3  A    between atoms: C_1  and  N_27
    4  A    between atoms: O_2  and  C_3
    5  A    between atoms: C_6  and  C_8
    6  A    between atoms: C_8  and  O_11
    7  A    between atoms: C_9  and  C_18
    8  A    between atoms: O_14  and  C_18
    9  A    between atoms: O_14  and  C_25
   10  A    between atoms: C_16  and  C_21
                            x       y       z     vdW  Elec       q    Type
                         _______ _______ _______ _____ _____    ______ ____

>  <TORSDO>
F 10

$$$$
=
 OpenBabel11052418163D

 28 29  0  0  1  0  0  0  0  0999 V2000
  189.3100  174.5290  144.0560 O   0  0  0  0  0  1  0  0  0  0  0  0
  190.1760  177.3240  143.3620 C   0  0  0  0  0  2  0  0  0  0  0  0
  191.3000  174.7110  142.7060 C   0  0  2  0  0  3  0  0  0  0  0  0
  191.6500  177.1680  143.0170 C   0  0  0  0  0  2  0  0  0  0  0  0
  189.7790  174.9290  142.8030 C   0  0  2  0  0  3  0  0  0  0  0  0
  189.3770  176.3700  142.4980 C   0  0  1  0  0  3  0  0  0  0  0  0
  192.1500  175.7990  143.2530 N   0  0  0  0  0  0  0  0  0  0  0  0
  192.6420  175.5710  144.6400 C   0  0  1  0  0  0  0  0  0  0  0  0
  192.6600  174.0850  144.9690 C   0  0  0  0  0  1  0  0  0  0  0  0
  194.0940  176.0570  144.8170 C   0  0  0  0  0  2  0  0  0  0  0  0
  194.9160  175.6230  143.7730 O   0  0  0  0  0  0  0  0  0  0  0  0
  196.0040  176.4940  143.8010 C   0  0  0  0  0  1  0  0  0  0  0  0
  191.7940  176.1850  145.6000 O   0  0  0  0  0  0  0  0  0  0  0  0
  191.5440  175.3060  146.6700 C   0  0  0  0  0  2  0  0  0  0  0  0
  190.2420  175.6750  147.3610 C   0  0  1  0  0  3  0  0  0  0  0  0
  189.6460  176.7400  146.7110 F   0  0  0  0  0  0  0  0  0  0  0  0
  189.3760  174.5820  147.3650 O   0  0  0  0  0  1  0  0  0  0  0  0
  193.2110  173.8860  141.2580 C   0  0  0  0  0  1  0  0  0  0  0  0
  191.7480  174.2970  141.3050 C   0  0  0  0  0  2  0  0  0  0  0  0
  188.0090  176.5540  142.7170 O   0  0  0  0  0  0  0  0  0  0  0  0
  187.8300  177.9400  142.7430 C   0  0  0  0  0  2  0  0  0  0  0  0
  184.8460  179.5120  144.4630 C   0  0  0  0  0  3  0  0  0  0  0  0
  186.8330  178.3000  143.7880 C   0  0  0  0  0  0  0  0  0  0  0  0
  185.9500  178.0290  146.0290 C   0  0  0  0  0  0  0  0  0  0  0  0
  185.7990  179.1950  143.4900 C   0  0  0  0  0  3  0  0  0  0  0  0
  186.9030  177.7120  145.0560 C   0  0  0  0  0  3  0  0  0  0  0  0
  186.0420  177.2980  147.6150 Cl  0  0  0  0  0  0  0  0  0  0  0  0
  184.9220  178.9300  145.7320 C   0  0  0  0  0  3  0  0  0  0  0  0
  3 19  1  6  0  0  0
  3  5  1  0  0  0  0
  3  7  1  0  0  0  0
  4  7  1  0  0  0  0
  4  2  1  0  0  0  0
  5  1  1  1  0  0  0
  6 20  1  1  0  0  0
  6  5  1  0  0  0  0
  6  2  1  0  0  0  0
  7  8  1  0  0  0  0
  8 10  1  0  0  0  0
  8  9  1  1  0  0  0
  8 13  1  0  0  0  0
 11 12  1  0  0  0  0
 11 10  1  0  0  0  0
 13 14  1  0  0  0  0
 14 15  1  0  0  0  0
 15 16  1  6  0  0  0
 15 17  1  0  0  0  0
 18 19  1  0  0  0  0
 20 21  1  0  0  0  0
 21 23  1  0  0  0  0
 22 28  1  0  0  0  0
 23 26  2  0  0  0  0
 24 27  1  0  0  0  0
 25 23  1  0  0  0  0
 25 22  2  0  0  0  0
 26 24  1  0  0  0  0
 28 24  2  0  0  0  0
M  END
>  <MODEL>
3

>  <REMARK>
 VINA RESULT:      -5.7      2.395      4.095
  Name = 
  10 active torsions:
  status: ('A' for Active; 'I' for Inactive)
    1  A    between atoms: C_1  and  C_3
    2  A    between atoms: C_1  and  O_11
    3  A    between atoms: C_1  and  N_27
    4  A    between atoms: O_2  and  C_3
    5  A    between atoms: C_6  and  C_8
    6  A    between atoms: C_8  and  O_11
    7  A    between atoms: C_9  and  C_18
    8  A    between atoms: O_14  and  C_18
    9  A    between atoms: O_14  and  C_25
   10  A    between atoms: C_16  and  C_21
                            x       y       z     vdW  Elec       q    Type
                         _______ _______ _______ _____ _____    ______ ____

>  <TORSDO>
F 10

$$$$
=
 OpenBabel11052418163D

 28 29  0  0  1  0  0  0  0  0999 V2000
  187.8610  175.5990  144.0090 O   0  0  0  0  0  1  0  0  0  0  0  0
  187.7240  177.1820  146.5620 C   0  0  0  0  0  2  0  0  0  0  0  0
  189.8320  176.8720  144.5660 C   0  0  2  0  0  3  0  0  0  0  0  0
  189.1850  177.4100  146.9210 C   0  0  0  0  0  2  0  0  0  0  0  0
  188.3450  176.8990  144.1660 C   0  0  2  0  0  3  0  0  0  0  0  0
  187.4900  177.6900  145.1540 C   0  0  1  0  0  3  0  0  0  0  0  0
  190.1140  176.7060  146.0130 N   0  0  0  0  0  0  0  0  0  0  0  0
  190.4210  175.3120  146.4350 C   0  0  1  0  0  0  0  0  0  0  0  0
  189.2710  174.7270  147.2450 C   0  0  0  0  0  1  0  0  0  0  0  0
  190.6000  174.3750  145.2240 C   0  0  0  0  0  2  0  0  0  0  0  0
  189.8150  173.2250  145.3390 O   0  0  0  0  0  0  0  0  0  0  0  0
  189.8110  172.6750  144.0590 C   0  0  0  0  0  1  0  0  0  0  0  0
  191.5680  175.2630  147.2730 O   0  0  0  0  0  0  0  0  0  0  0  0
  192.7300  175.0630  146.5050 C   0  0  0  0  0  2  0  0  0  0  0  0
  193.4150  176.3910  146.2300 C   0  0  1  0  0  3  0  0  0  0  0  0
  193.6550  177.0550  147.4190 F   0  0  0  0  0  0  0  0  0  0  0  0
  194.6180  176.1800  145.5580 O   0  0  0  0  0  1  0  0  0  0  0  0
  191.7510  177.5650  143.0600 C   0  0  0  0  0  1  0  0  0  0  0  0
  190.6240  178.0340  143.9670 C   0  0  0  0  0  2  0  0  0  0  0  0
  186.1370  177.5860  144.8230 O   0  0  0  0  0  0  0  0  0  0  0  0
  185.8140  178.8130  144.2360 C   0  0  0  0  0  2  0  0  0  0  0  0
  185.4440  178.2110  140.5170 C   0  0  0  0  0  3  0  0  0  0  0  0
  185.2010  178.5870  142.8990 C   0  0  0  0  0  0  0  0  0  0  0  0
  183.2400  178.2230  141.5220 C   0  0  0  0  0  0  0  0  0  0  0  0
  186.0170  178.4520  141.7690 C   0  0  0  0  0  3  0  0  0  0  0  0
  183.8130  178.4640  142.7750 C   0  0  0  0  0  3  0  0  0  0  0  0
  181.5040  178.0770  141.3680 Cl  0  0  0  0  0  0  0  0  0  0  0  0
  184.0560  178.0970  140.3930 C   0  0  0  0  0  3  0  0  0  0  0  0
  2  4  1  0  0  0  0
  3 19  1  1  0  0  0
  3  7  1  0  0  0  0
  5  1  1  1  0  0  0
  5  3  1  0  0  0  0
  5  6  1  0  0  0  0
  6 20  1  6  0  0  0
  6  2  1  0  0  0  0
  7  8  1  0  0  0  0
  7  4  1  0  0  0  0
  8  9  1  1  0  0  0
  8 13  1  0  0  0  0
 10 11  1  0  0  0  0
 10  8  1  0  0  0  0
 12 11  1  0  0  0  0
 14 13  1  0  0  0  0
 15 17  1  1  0  0  0
 15 14  1  0  0  0  0
 15 16  1  0  0  0  0
 18 19  1  0  0  0  0
 21 20  1  0  0  0  0
 22 25  1  0  0  0  0
 23 21  1  0  0  0  0
 24 26  2  0  0  0  0
 25 23  2  0  0  0  0
 26 23  1  0  0  0  0
 27 24  1  0  0  0  0
 28 22  2  0  0  0  0
 28 24  1  0  0  0  0
M  END
>  <MODEL>
4

>  <REMARK>
 VINA RESULT:      -5.7      2.791      4.257
  Name = 
  10 active torsions:
  status: ('A' for Active; 'I' for Inactive)
    1  A    between atoms: C_1  and  C_3
    2  A    between atoms: C_1  and  O_11
    3  A    between atoms: C_1  and  N_27
    4  A    between atoms: O_2  and  C_3
    5  A    between atoms: C_6  and  C_8
    6  A    between atoms: C_8  and  O_11
    7  A    between atoms: C_9  and  C_18
    8  A    between atoms: O_14  and  C_18
    9  A    between atoms: O_14  and  C_25
   10  A    between atoms: C_16  and  C_21
                            x       y       z     vdW  Elec       q    Type
                         _______ _______ _______ _____ _____    ______ ____

>  <TORSDO>
F 10

$$$$
=
 OpenBabel11052418163D

 28 29  0  0  1  0  0  0  0  0999 V2000
  190.2410  177.7080  144.7130 O   0  0  0  0  0  1  0  0  0  0  0  0
  188.9940  175.1880  145.7790 C   0  0  0  0  0  2  0  0  0  0  0  0
  191.7770  176.0180  145.4880 C   0  0  2  0  0  3  0  0  0  0  0  0
  190.1120  174.1610  145.6720 C   0  0  0  0  0  2  0  0  0  0  0  0
  190.6730  177.0270  145.8530 C   0  0  2  0  0  3  0  0  0  0  0  0
  189.5010  176.3690  146.5790 C   0  0  1  0  0  3  0  0  0  0  0  0
  191.3150  174.6940  145.0010 N   0  0  0  0  0  0  0  0  0  0  0  0
  191.2900  174.5450  143.5200 C   0  0  1  0  0  0  0  0  0  0  0  0
  192.0020  173.2680  143.0950 C   0  0  0  0  0  1  0  0  0  0  0  0
  189.8510  174.4210  142.9830 C   0  0  0  0  0  2  0  0  0  0  0  0
  189.6410  175.2420  141.8710 O   0  0  0  0  0  0  0  0  0  0  0  0
  188.4810  175.9510  142.1750 C   0  0  0  0  0  1  0  0  0  0  0  0
  191.9690  175.6160  142.8790 O   0  0  0  0  0  0  0  0  0  0  0  0
  193.1220  175.1450  142.2220 C   0  0  0  0  0  2  0  0  0  0  0  0
  194.3010  176.0570  142.5110 C   0  0  1  0  0  3  0  0  0  0  0  0
  195.2470  175.3850  143.2630 F   0  0  0  0  0  0  0  0  0  0  0  0
  194.8730  176.4940  141.3170 O   0  0  0  0  0  1  0  0  0  0  0  0
  194.1030  176.6550  146.2720 C   0  0  0  0  0  1  0  0  0  0  0  0
  192.8340  175.8790  146.5840 C   0  0  0  0  0  2  0  0  0  0  0  0
  188.4710  177.2920  146.7810 O   0  0  0  0  0  0  0  0  0  0  0  0
  187.2970  176.5330  146.7600 C   0  0  0  0  0  2  0  0  0  0  0  0
  184.1200  178.5160  146.2060 C   0  0  0  0  0  3  0  0  0  0  0  0
  186.2130  177.2990  146.0880 C   0  0  0  0  0  0  0  0  0  0  0  0
  185.2950  178.3310  144.0960 C   0  0  0  0  0  0  0  0  0  0  0  0
  185.1250  177.7710  146.8320 C   0  0  0  0  0  3  0  0  0  0  0  0
  186.3010  177.5870  144.7220 C   0  0  0  0  0  3  0  0  0  0  0  0
  185.4030  178.6850  142.3860 Cl  0  0  0  0  0  0  0  0  0  0  0  0
  184.2050  178.7950  144.8390 C   0  0  0  0  0  3  0  0  0  0  0  0
  2  6  1  0  0  0  0
  3  5  1  0  0  0  0
  3 19  1  1  0  0  0
  4  2  1  0  0  0  0
  5  1  1  6  0  0  0
  5  6  1  0  0  0  0
  6 20  1  6  0  0  0
  7  3  1  0  0  0  0
  7  4  1  0  0  0  0
  8  9  1  6  0  0  0
  8  7  1  0  0  0  0
 10  8  1  0  0  0  0
 11 12  1  0  0  0  0
 11 10  1  0  0  0  0
 13  8  1  0  0  0  0
 14 15  1  0  0  0  0
 14 13  1  0  0  0  0
 15 17  1  6  0  0  0
 15 16  1  0  0  0  0
 18 19  1  0  0  0  0
 21 20  1  0  0  0  0
 22 25  1  0  0  0  0
 23 21  1  0  0  0  0
 23 25  2  0  0  0  0
 24 26  2  0  0  0  0
 24 28  1  0  0  0  0
 26 23  1  0  0  0  0
 27 24  1  0  0  0  0
 28 22  2  0  0  0  0
M  END
>  <MODEL>
5

>  <REMARK>
 VINA RESULT:      -5.6      2.047      2.945
  Name = 
  10 active torsions:
  status: ('A' for Active; 'I' for Inactive)
    1  A    between atoms: C_1  and  C_3
    2  A    between atoms: C_1  and  O_11
    3  A    between atoms: C_1  and  N_27
    4  A    between atoms: O_2  and  C_3
    5  A    between atoms: C_6  and  C_8
    6  A    between atoms: C_8  and  O_11
    7  A    between atoms: C_9  and  C_18
    8  A    between atoms: O_14  and  C_18
    9  A    between atoms: O_14  and  C_25
   10  A    between atoms: C_16  and  C_21
                            x       y       z     vdW  Elec       q    Type
                         _______ _______ _______ _____ _____    ______ ____

>  <TORSDO>
F 10

$$$$
=
 OpenBabel11052418163D

 28 29  0  0  1  0  0  0  0  0999 V2000
  190.4300  176.9690  143.5580 O   0  0  0  0  0  1  0  0  0  0  0  0
  189.9220  175.2850  145.9960 C   0  0  0  0  0  2  0  0  0  0  0  0
  192.3890  176.2170  144.7450 C   0  0  2  0  0  3  0  0  0  0  0  0
  191.2340  174.5410  146.1980 C   0  0  0  0  0  2  0  0  0  0  0  0
  191.1210  177.0890  144.7650 C   0  0  2  0  0  3  0  0  0  0  0  0
  190.2140  176.7700  145.9530 C   0  0  1  0  0  3  0  0  0  0  0  0
  192.2050  174.7910  145.1140 N   0  0  0  0  0  0  0  0  0  0  0  0
  192.0700  173.8590  143.9610 C   0  0  1  0  0  0  0  0  0  0  0  0
  192.8140  174.3930  142.7450 C   0  0  0  0  0  1  0  0  0  0  0  0
  192.6950  172.4830  144.2630 C   0  0  0  0  0  2  0  0  0  0  0  0
  194.0820  172.5670  144.4180 O   0  0  0  0  0  0  0  0  0  0  0  0
  194.3360  171.9350  145.6340 C   0  0  0  0  0  1  0  0  0  0  0  0
  190.7120  173.7110  143.5700 O   0  0  0  0  0  0  0  0  0  0  0  0
  190.6210  172.9590  142.3830 C   0  0  0  0  0  2  0  0  0  0  0  0
  189.5430  171.8970  142.5150 C   0  0  1  0  0  3  0  0  0  0  0  0
  190.0610  170.6550  142.1940 F   0  0  0  0  0  0  0  0  0  0  0  0
  189.0470  171.8770  143.8170 O   0  0  0  0  0  1  0  0  0  0  0  0
  194.4990  175.8160  146.0940 C   0  0  0  0  0  1  0  0  0  0  0  0
  193.5520  176.8510  145.5080 C   0  0  0  0  0  2  0  0  0  0  0  0
  189.0210  177.4930  145.8660 O   0  0  0  0  0  0  0  0  0  0  0  0
  188.0290  176.6060  146.2920 C   0  0  0  0  0  2  0  0  0  0  0  0
  184.7750  178.3370  147.1560 C   0  0  0  0  0  3  0  0  0  0  0  0
  186.6900  177.2410  146.1530 C   0  0  0  0  0  0  0  0  0  0  0  0
  184.8740  178.0280  144.7550 C   0  0  0  0  0  0  0  0  0  0  0  0
  186.0200  177.7140  147.2880 C   0  0  0  0  0  3  0  0  0  0  0  0
  186.1190  177.4060  144.8870 C   0  0  0  0  0  3  0  0  0  0  0  0
  184.1590  178.2280  143.1710 Cl  0  0  0  0  0  0  0  0  0  0  0  0
  184.2020  178.4930  145.8900 C   0  0  0  0  0  3  0  0  0  0  0  0
  2  4  1  0  0  0  0
  3  5  1  0  0  0  0
  3  7  1  0  0  0  0
  3 19  1  1  0  0  0
  5  1  1  6  0  0  0
  5  6  1  0  0  0  0
  6 20  1  6  0  0  0
  6  2  1  0  0  0  0
  7  4  1  0  0  0  0
  8  9  1  6  0  0  0
  8 10  1  0  0  0  0
  8  7  1  0  0  0  0
 10 11  1  0  0  0  0
 11 12  1  0  0  0  0
 13  8  1  0  0  0  0
 14 15  1  0  0  0  0
 14 13  1  0  0  0  0
 15 16  1  1  0  0  0
 15 17  1  0  0  0  0
 19 18  1  0  0  0  0
 20 21  1  0  0  0  0
 22 25  1  0  0  0  0
 23 21  1  0  0  0  0
 23 25  2  0  0  0  0
 24 26  2  0  0  0  0
 24 28  1  0  0  0  0
 26 23  1  0  0  0  0
 27 24  1  0  0  0  0
 28 22  2  0  0  0  0
M  END
>  <MODEL>
6

>  <REMARK>
 VINA RESULT:      -5.5      1.792      2.147
  Name = 
  10 active torsions:
  status: ('A' for Active; 'I' for Inactive)
    1  A    between atoms: C_1  and  C_3
    2  A    between atoms: C_1  and  O_11
    3  A    between atoms: C_1  and  N_27
    4  A    between atoms: O_2  and  C_3
    5  A    between atoms: C_6  and  C_8
    6  A    between atoms: C_8  and  O_11
    7  A    between atoms: C_9  and  C_18
    8  A    between atoms: O_14  and  C_18
    9  A    between atoms: O_14  and  C_25
   10  A    between atoms: C_16  and  C_21
                            x       y       z     vdW  Elec       q    Type
                         _______ _______ _______ _____ _____    ______ ____

>  <TORSDO>
F 10

$$$$
=
 OpenBabel11052418163D

 28 29  0  0  1  0  0  0  0  0999 V2000
  189.6560  174.3250  145.2190 O   0  0  0  0  0  1  0  0  0  0  0  0
  190.9980  177.0050  144.9840 C   0  0  0  0  0  2  0  0  0  0  0  0
  188.2200  176.2470  145.4650 C   0  0  2  0  0  3  0  0  0  0  0  0
  189.8560  177.9500  144.6390 C   0  0  0  0  0  2  0  0  0  0  0  0
  189.3880  175.4230  146.0380 C   0  0  2  0  0  3  0  0  0  0  0  0
  190.6430  176.2670  146.2570 C   0  0  1  0  0  3  0  0  0  0  0  0
  188.5760  177.2440  144.4240 N   0  0  0  0  0  0  0  0  0  0  0  0
  188.3730  176.7860  143.0230 C   0  0  1  0  0  0  0  0  0  0  0  0
  187.4320  175.5890  142.9780 C   0  0  0  0  0  1  0  0  0  0  0  0
  187.7070  177.8740  142.1570 C   0  0  0  0  0  2  0  0  0  0  0  0
  187.4410  177.4150  140.8640 O   0  0  0  0  0  0  0  0  0  0  0  0
  186.1730  177.9140  140.5710 C   0  0  0  0  0  1  0  0  0  0  0  0
  189.5930  176.3600  142.4330 O   0  0  0  0  0  0  0  0  0  0  0  0
  189.4990  175.0180  142.0200 C   0  0  0  0  0  2  0  0  0  0  0  0
  190.8790  174.4640  141.7120 C   0  0  1  0  0  3  0  0  0  0  0  0
  191.6260  174.3770  142.8720 F   0  0  0  0  0  0  0  0  0  0  0  0
  190.7690  173.2030  141.1280 O   0  0  0  0  0  1  0  0  0  0  0  0
  185.8610  176.8050  146.2070 C   0  0  0  0  0  1  0  0  0  0  0  0
  187.3400  176.8590  146.5540 C   0  0  0  0  0  2  0  0  0  0  0  0
  191.7110  175.4600  146.6600 O   0  0  0  0  0  0  0  0  0  0  0  0
  192.8200  175.9590  145.9720 C   0  0  0  0  0  2  0  0  0  0  0  0
  196.1380  174.1460  145.7850 C   0  0  0  0  0  3  0  0  0  0  0  0
  193.8280  174.8800  145.7890 C   0  0  0  0  0  0  0  0  0  0  0  0
  194.3610  172.5520  145.3780 C   0  0  0  0  0  0  0  0  0  0  0  0
  195.1920  175.1660  145.9280 C   0  0  0  0  0  3  0  0  0  0  0  0
  193.4140  173.5710  145.5220 C   0  0  0  0  0  3  0  0  0  0  0  0
  193.8410  170.9170  145.0370 Cl  0  0  0  0  0  0  0  0  0  0  0  0
  195.7230  172.8410  145.5090 C   0  0  0  0  0  3  0  0  0  0  0  0
  2  6  1  0  0  0  0
  3  5  1  0  0  0  0
  3 19  1  1  0  0  0
  4  2  1  0  0  0  0
  5  1  1  6  0  0  0
  5  6  1  0  0  0  0
  6 20  1  6  0  0  0
  7  4  1  0  0  0  0
  7  3  1  0  0  0  0
  8  9  1  1  0  0  0
  8  7  1  0  0  0  0
 10  8  1  0  0  0  0
 11 10  1  0  0  0  0
 12 11  1  0  0  0  0
 13  8  1  0  0  0  0
 14 13  1  0  0  0  0
 15 17  1  1  0  0  0
 15 14  1  0  0  0  0
 15 16  1  0  0  0  0
 18 19  1  0  0  0  0
 21 20  1  0  0  0  0
 22 25  1  0  0  0  0
 23 25  2  0  0  0  0
 23 21  1  0  0  0  0
 24 28  1  0  0  0  0
 24 26  2  0  0  0  0
 26 23  1  0  0  0  0
 27 24  1  0  0  0  0
 28 22  2  0  0  0  0
M  END
>  <MODEL>
7

>  <REMARK>
 VINA RESULT:      -5.4      3.077      6.894
  Name = 
  10 active torsions:
  status: ('A' for Active; 'I' for Inactive)
    1  A    between atoms: C_1  and  C_3
    2  A    between atoms: C_1  and  O_11
    3  A    between atoms: C_1  and  N_27
    4  A    between atoms: O_2  and  C_3
    5  A    between atoms: C_6  and  C_8
    6  A    between atoms: C_8  and  O_11
    7  A    between atoms: C_9  and  C_18
    8  A    between atoms: O_14  and  C_18
    9  A    between atoms: O_14  and  C_25
   10  A    between atoms: C_16  and  C_21
                            x       y       z     vdW  Elec       q    Type
                         _______ _______ _______ _____ _____    ______ ____

>  <TORSDO>
F 10

$$$$
=
 OpenBabel11052418163D

 28 29  0  0  1  0  0  0  0  0999 V2000
  190.1000  174.0210  145.7190 O   0  0  0  0  0  1  0  0  0  0  0  0
  190.1380  176.8090  144.5940 C   0  0  0  0  0  2  0  0  0  0  0  0
  190.2170  174.1860  143.3160 C   0  0  2  0  0  3  0  0  0  0  0  0
  190.7410  176.6290  143.2090 C   0  0  0  0  0  2  0  0  0  0  0  0
  189.3900  174.4320  144.5900 C   0  0  2  0  0  3  0  0  0  0  0  0
  188.9430  175.8870  144.7210 C   0  0  1  0  0  3  0  0  0  0  0  0
  191.1930  175.2450  142.9580 N   0  0  0  0  0  0  0  0  0  0  0  0
  192.5910  174.9840  143.3960 C   0  0  1  0  0  0  0  0  0  0  0  0
  192.7810  173.5130  143.7430 C   0  0  0  0  0  1  0  0  0  0  0  0
  193.6070  175.2840  142.2760 C   0  0  0  0  0  2  0  0  0  0  0  0
  194.3800  176.4110  142.5670 O   0  0  0  0  0  0  0  0  0  0  0  0
  195.6810  176.0370  142.2340 C   0  0  0  0  0  1  0  0  0  0  0  0
  192.9150  175.7180  144.5680 O   0  0  0  0  0  0  0  0  0  0  0  0
  193.4650  174.8680  145.5460 C   0  0  0  0  0  2  0  0  0  0  0  0
  194.5710  175.5840  146.3040 C   0  0  1  0  0  3  0  0  0  0  0  0
  195.6950  175.6980  145.5060 F   0  0  0  0  0  0  0  0  0  0  0  0
  194.1400  176.8510  146.6940 O   0  0  0  0  0  1  0  0  0  0  0  0
  190.1320  173.7810  140.8140 C   0  0  0  0  0  1  0  0  0  0  0  0
  189.3540  173.7870  142.1200 C   0  0  0  0  0  2  0  0  0  0  0  0
  188.3030  176.0950  145.9460 O   0  0  0  0  0  0  0  0  0  0  0  0
  188.1870  177.4830  146.0630 C   0  0  0  0  0  2  0  0  0  0  0  0
  184.7300  178.4730  147.2460 C   0  0  0  0  0  3  0  0  0  0  0  0
  186.7510  177.8730  146.0510 C   0  0  0  0  0  0  0  0  0  0  0  0
  184.7490  178.4710  144.8240 C   0  0  0  0  0  0  0  0  0  0  0  0
  186.0720  178.0780  147.2570 C   0  0  0  0  0  3  0  0  0  0  0  0
  186.0910  178.0770  144.8350 C   0  0  0  0  0  3  0  0  0  0  0  0
  183.9220  178.7200  143.3020 Cl  0  0  0  0  0  0  0  0  0  0  0  0
  184.0690  178.6680  146.0310 C   0  0  0  0  0  3  0  0  0  0  0  0
  2  6  1  0  0  0  0
  3 19  1  6  0  0  0
  3  5  1  0  0  0  0
  4  2  1  0  0  0  0
  5  6  1  0  0  0  0
  5  1  1  1  0  0  0
  6 20  1  1  0  0  0
  7  4  1  0  0  0  0
  7  3  1  0  0  0  0
  7  8  1  0  0  0  0
  8  9  1  1  0  0  0
  8 13  1  0  0  0  0
 10 11  1  0  0  0  0
 10  8  1  0  0  0  0
 12 11  1  0  0  0  0
 13 14  1  0  0  0  0
 14 15  1  0  0  0  0
 15 16  1  6  0  0  0
 15 17  1  0  0  0  0
 18 19  1  0  0  0  0
 20 21  1  0  0  0  0
 22 25  1  0  0  0  0
 23 21  1  0  0  0  0
 23 25  2  0  0  0  0
 24 26  2  0  0  0  0
 24 28  1  0  0  0  0
 26 23  1  0  0  0  0
 27 24  1  0  0  0  0
 28 22  2  0  0  0  0
M  END
>  <MODEL>
8

>  <REMARK>
 VINA RESULT:      -5.4      2.659      4.133
  Name = 
  10 active torsions:
  status: ('A' for Active; 'I' for Inactive)
    1  A    between atoms: C_1  and  C_3
    2  A    between atoms: C_1  and  O_11
    3  A    between atoms: C_1  and  N_27
    4  A    between atoms: O_2  and  C_3
    5  A    between atoms: C_6  and  C_8
    6  A    between atoms: C_8  and  O_11
    7  A    between atoms: C_9  and  C_18
    8  A    between atoms: O_14  and  C_18
    9  A    between atoms: O_14  and  C_25
   10  A    between atoms: C_16  and  C_21
                            x       y       z     vdW  Elec       q    Type
                         _______ _______ _______ _____ _____    ______ ____

>  <TORSDO>
F 10

$$$$
=
 OpenBabel11052418163D

 28 29  0  0  1  0  0  0  0  0999 V2000
  190.0450  174.4360  145.0240 O   0  0  0  0  0  1  0  0  0  0  0  0
  190.3910  177.3950  144.6130 C   0  0  0  0  0  2  0  0  0  0  0  0
  191.7590  175.0890  143.4580 C   0  0  2  0  0  3  0  0  0  0  0  0
  191.8020  177.5170  144.0560 C   0  0  0  0  0  2  0  0  0  0  0  0
  190.2560  175.0480  143.7870 C   0  0  2  0  0  3  0  0  0  0  0  0
  189.6120  176.4330  143.7400 C   0  0  1  0  0  3  0  0  0  0  0  0
  192.5210  176.2270  144.0320 N   0  0  0  0  0  0  0  0  0  0  0  0
  193.2460  175.9210  145.2960 C   0  0  1  0  0  0  0  0  0  0  0  0
  194.5650  176.6800  145.3570 C   0  0  0  0  0  1  0  0  0  0  0  0
  192.4470  176.3700  146.5350 C   0  0  0  0  0  2  0  0  0  0  0  0
  192.1720  175.2990  147.3900 O   0  0  0  0  0  0  0  0  0  0  0  0
  190.9860  175.6570  148.0280 C   0  0  0  0  0  1  0  0  0  0  0  0
  193.5710  174.5420  145.3880 O   0  0  0  0  0  0  0  0  0  0  0  0
  194.9620  174.3550  145.2830 C   0  0  0  0  0  2  0  0  0  0  0  0
  195.2970  172.8730  145.2960 C   0  0  1  0  0  3  0  0  0  0  0  0
  196.3930  172.6420  146.1060 F   0  0  0  0  0  0  0  0  0  0  0  0
  194.2050  172.1400  145.7610 O   0  0  0  0  0  1  0  0  0  0  0  0
  193.5170  175.0660  141.6310 C   0  0  0  0  0  1  0  0  0  0  0  0
  192.0420  174.9170  141.9660 C   0  0  0  0  0  2  0  0  0  0  0  0
  188.2810  176.3680  144.1630 O   0  0  0  0  0  0  0  0  0  0  0  0
  188.1270  177.4490  145.0360 C   0  0  0  0  0  2  0  0  0  0  0  0
  184.8040  178.8130  146.2320 C   0  0  0  0  0  3  0  0  0  0  0  0
  186.7070  177.8910  145.0460 C   0  0  0  0  0  0  0  0  0  0  0  0
  184.6310  178.3140  143.8680 C   0  0  0  0  0  0  0  0  0  0  0  0
  186.1310  178.3700  146.2290 C   0  0  0  0  0  3  0  0  0  0  0  0
  185.9580  177.8720  143.8640 C   0  0  0  0  0  3  0  0  0  0  0  0
  183.6950  178.2820  142.3900 Cl  0  0  0  0  0  0  0  0  0  0  0  0
  184.0550  178.7840  145.0520 C   0  0  0  0  0  3  0  0  0  0  0  0
  3 19  1  6  0  0  0
  3  5  1  0  0  0  0
  3  7  1  0  0  0  0
  4  2  1  0  0  0  0
  5  1  1  1  0  0  0
  6  5  1  0  0  0  0
  6 20  1  1  0  0  0
  6  2  1  0  0  0  0
  7  4  1  0  0  0  0
  7  8  1  0  0  0  0
  8  9  1  6  0  0  0
  8 13  1  0  0  0  0
  8 10  1  0  0  0  0
 10 11  1  0  0  0  0
 11 12  1  0  0  0  0
 14 15  1  0  0  0  0
 14 13  1  0  0  0  0
 15 17  1  1  0  0  0
 15 16  1  0  0  0  0
 18 19  1  0  0  0  0
 20 21  1  0  0  0  0
 21 23  1  0  0  0  0
 23 25  2  0  0  0  0
 24 28  1  0  0  0  0
 25 22  1  0  0  0  0
 26 24  2  0  0  0  0
 26 23  1  0  0  0  0
 27 24  1  0  0  0  0
 28 22  2  0  0  0  0
M  END
>  <MODEL>
9

>  <REMARK>
 VINA RESULT:      -5.3      2.696      4.432
  Name = 
  10 active torsions:
  status: ('A' for Active; 'I' for Inactive)
    1  A    between atoms: C_1  and  C_3
    2  A    between atoms: C_1  and  O_11
    3  A    between atoms: C_1  and  N_27
    4  A    between atoms: O_2  and  C_3
    5  A    between atoms: C_6  and  C_8
    6  A    between atoms: C_8  and  O_11
    7  A    between atoms: C_9  and  C_18
    8  A    between atoms: O_14  and  C_18
    9  A    between atoms: O_14  and  C_25
   10  A    between atoms: C_16  and  C_21
                            x       y       z     vdW  Elec       q    Type
                         _______ _______ _______ _____ _____    ______ ____

>  <TORSDO>
F 10

$$$$
