=
 OpenBabel11052420003D

 37 40  0  0  1  0  0  0  0  0999 V2000
  184.6680  177.2250  146.1820 N   0  0  0  0  0  2  0  0  0  0  0  0
  187.1970  177.6210  142.2570 C   0  0  2  0  0  3  0  0  0  0  0  0
  185.1780  177.7330  143.8320 C   0  0  2  0  0  3  0  0  0  0  0  0
  188.2430  176.5950  142.4040 N   0  0  0  0  0  0  0  0  0  0  0  0
  186.6820  177.9570  143.6570 C   0  0  1  0  0  3  0  0  0  0  0  0
  184.3690  178.4360  142.7360 C   0  0  0  0  0  2  0  0  0  0  0  0
  187.4120  177.0850  144.5540 N   0  0  2  0  0  0  0  0  0  0  0  0
  187.0240  177.0320  146.9260 C   0  0  0  0  0  3  0  0  0  0  0  0
  186.0980  177.3200  141.2180 C   0  0  1  0  0  3  0  0  0  0  0  0
  184.9840  178.3550  141.3300 C   0  0  0  0  0  2  0  0  0  0  0  0
  187.6580  177.7880  145.8070 C   0  0  0  0  0  2  0  0  0  0  0  0
  186.6780  177.3710  139.8180 C   0  0  0  0  0  1  0  0  0  0  0  0
  188.6220  176.7040  143.8110 C   0  0  2  0  0  3  0  0  0  0  0  0
  184.7460  178.2830  145.1810 C   0  0  0  0  0  2  0  0  0  0  0  0
  185.7170  176.7760  147.0560 C   0  0  0  0  0  3  0  0  0  0  0  0
  187.6930  175.2450  142.2290 C   0  0  0  0  0  2  0  0  0  0  0  0
  188.3770  173.6600  140.4110 C   0  0  0  0  0  1  0  0  0  0  0  0
  188.7540  174.2550  141.7550 C   0  0  2  0  0  3  0  0  0  0  0  0
  188.9960  173.1600  142.7940 C   0  0  0  0  0  2  0  0  0  0  0  0
  190.9170  173.0110  144.4420 C   0  0  0  0  0  2  0  0  0  0  0  0
  190.4750  172.8400  142.9900 C   0  0  1  0  0  3  0  0  0  0  0  0
  190.7900  171.5040  142.4890 N   0  0  0  0  0  2  0  0  0  0  0  0
  192.2540  169.6680  142.3790 N   0  0  0  0  0  2  0  0  0  0  0  0
  192.5910  171.1570  144.2410 C   0  0  0  0  0  2  0  0  0  0  0  0
  191.9440  170.7880  142.9400 C   0  0  0  0  0  0  0  0  0  0  0  0
  192.3890  172.6370  144.5620 C   0  0  0  0  0  2  0  0  0  0  0  0
  189.7760  177.7130  143.9580 C   0  0  0  0  0  2  0  0  0  0  0  0
  190.8490  176.5010  145.7850 C   0  0  0  0  0  3  0  0  0  0  0  0
  190.9770  177.0810  144.5820 C   0  0  0  0  0  0  0  0  0  0  0  0
  191.4930  175.2820  147.8450 C   0  0  0  0  0  1  0  0  0  0  0  0
  191.9770  175.8490  146.5240 C   0  0  0  0  0  2  0  0  0  0  0  0
  192.2880  177.1490  143.8580 C   0  0  0  0  0  2  0  0  0  0  0  0
  192.4430  176.0340  143.0340 O   0  0  0  0  0  0  0  0  0  0  0  0
  193.8200  175.9540  142.8110 C   0  0  0  0  0  2  0  0  0  0  0  0
  194.5330  176.1630  144.0590 N   0  0  0  0  0  2  0  0  0  0  0  0
  195.5590  174.8950  145.8530 C   0  0  0  0  0  1  0  0  0  0  0  0
  195.2070  174.9170  144.3800 C   0  0  0  0  0  2  0  0  0  0  0  0
  1 15  1  0  0  0  0
  2  4  1  1  0  0  0
  2  5  1  0  0  0  0
  3  6  1  6  0  0  0
  3 14  1  0  0  0  0
  4 13  1  0  0  0  0
  5  3  1  0  0  0  0
  5  7  1  0  0  0  0
  7 11  1  0  0  0  0
  8 15  2  0  0  0  0
  9 10  1  0  0  0  0
  9  2  1  0  0  0  0
 10  6  1  0  0  0  0
 11  8  1  0  0  0  0
 12  9  1  0  0  0  0
 13 27  1  0  0  0  0
 13  7  1  0  0  0  0
 14  1  1  0  0  0  0
 16  4  1  0  0  0  0
 17 18  1  0  0  0  0
 18 16  1  0  0  0  0
 18 19  1  0  0  0  0
 19 21  1  0  0  0  0
 20 26  1  0  0  0  0
 21 20  1  0  0  0  0
 22 25  1  0  0  0  0
 22 21  1  0  0  0  0
 23 25  2  0  0  0  0
 24 26  1  0  0  0  0
 25 24  1  0  0  0  0
 27 29  1  0  0  0  0
 28 31  1  0  0  0  0
 29 28  2  0  0  0  0
 31 30  1  0  0  0  0
 32 29  1  0  0  0  0
 33 32  1  0  0  0  0
 34 33  1  0  0  0  0
 34 35  1  0  0  0  0
 35 37  1  0  0  0  0
 37 36  1  0  0  0  0
M  END
>  <MODEL>
1

>  <REMARK>
 VINA RESULT:      -6.7      0.000      0.000
  Name = 
  12 active torsions:
  status: ('A' for Active; 'I' for Inactive)
    1  A    between atoms: N_1  and  C_5
    2  A    between atoms: N_1  and  C_23
    3  A    between atoms: C_5  and  O_17
    4  A    between atoms: C_6  and  C_37
    5  A    between atoms: N_10  and  C_14
    6  A    between atoms: C_14  and  C_31
    7  A    between atoms: O_17  and  C_26
    8  A    between atoms: C_26  and  C_33
    9  A    between atoms: C_27  and  C_34
   10  A    between atoms: C_29  and  C_36
   11  A    between atoms: C_31  and  C_37
   12  A    between atoms: C_33  and  C_36
                            x       y       z     vdW  Elec       q    Type
                         _______ _______ _______ _____ _____    ______ ____

>  <TORSDO>
F 12

$$$$
=
 OpenBabel11052420003D

 37 40  0  0  1  0  0  0  0  0999 V2000
  185.3750  177.0470  146.2880 N   0  0  0  0  0  2  0  0  0  0  0  0
  187.4390  177.5270  142.1090 C   0  0  2  0  0  3  0  0  0  0  0  0
  185.6310  177.6540  143.9200 C   0  0  2  0  0  3  0  0  0  0  0  0
  188.4360  176.4420  142.0790 N   0  0  0  0  0  0  0  0  0  0  0  0
  187.1130  177.8120  143.5750 C   0  0  1  0  0  3  0  0  0  0  0  0
  184.7380  178.4560  142.9650 C   0  0  0  0  0  2  0  0  0  0  0  0
  187.8940  176.8570  144.3340 N   0  0  2  0  0  0  0  0  0  0  0  0
  187.7880  176.6950  146.7310 C   0  0  0  0  0  3  0  0  0  0  0  0
  186.2100  177.3380  141.1980 C   0  0  1  0  0  3  0  0  0  0  0  0
  185.1770  178.4200  141.4930 C   0  0  0  0  0  2  0  0  0  0  0  0
  188.3260  177.4780  145.5800 C   0  0  0  0  0  2  0  0  0  0  0  0
  186.6210  177.4350  139.7410 C   0  0  0  0  0  1  0  0  0  0  0  0
  188.9840  176.4560  143.4340 C   0  0  2  0  0  3  0  0  0  0  0  0
  185.3930  178.1520  145.3370 C   0  0  0  0  0  2  0  0  0  0  0  0
  186.4930  176.4980  147.0060 C   0  0  0  0  0  3  0  0  0  0  0  0
  187.7940  175.1330  141.9080 C   0  0  0  0  0  2  0  0  0  0  0  0
  188.5840  174.2290  139.7080 C   0  0  0  0  0  1  0  0  0  0  0  0
  188.7160  174.1330  141.2160 C   0  0  2  0  0  3  0  0  0  0  0  0
  188.4530  172.7080  141.7030 C   0  0  0  0  0  2  0  0  0  0  0  0
  190.8540  172.2720  142.3910 C   0  0  0  0  0  2  0  0  0  0  0  0
  189.3910  172.2790  142.8280 C   0  0  1  0  0  3  0  0  0  0  0  0
  189.1920  173.1080  144.0160 N   0  0  0  0  0  2  0  0  0  0  0  0
  189.9420  173.8700  146.1090 N   0  0  0  0  0  2  0  0  0  0  0  0
  191.6330  172.9210  144.6820 C   0  0  0  0  0  2  0  0  0  0  0  0
  190.2050  173.2330  145.0190 C   0  0  0  0  0  0  0  0  0  0  0  0
  191.7260  171.8730  143.5740 C   0  0  0  0  0  2  0  0  0  0  0  0
  190.2020  177.3970  143.4870 C   0  0  0  0  0  2  0  0  0  0  0  0
  191.9730  176.0050  142.5470 C   0  0  0  0  0  3  0  0  0  0  0  0
  191.4770  176.6300  143.6250 C   0  0  0  0  0  0  0  0  0  0  0  0
  194.3780  175.9730  141.9470 C   0  0  0  0  0  1  0  0  0  0  0  0
  193.2300  175.1910  142.5570 C   0  0  0  0  0  2  0  0  0  0  0  0
  192.1350  176.5580  144.9700 C   0  0  0  0  0  2  0  0  0  0  0  0
  193.3090  177.3110  144.9750 O   0  0  0  0  0  0  0  0  0  0  0  0
  194.0060  176.8660  146.1010 C   0  0  0  0  0  2  0  0  0  0  0  0
  193.9980  175.4140  146.1410 N   0  0  0  0  0  2  0  0  0  0  0  0
  195.2760  173.4950  145.3920 C   0  0  0  0  0  1  0  0  0  0  0  0
  195.3220  174.9680  145.7420 C   0  0  0  0  0  2  0  0  0  0  0  0
  1 15  1  0  0  0  0
  2  4  1  1  0  0  0
  2  5  1  0  0  0  0
  3  6  1  6  0  0  0
  3 14  1  0  0  0  0
  4 13  1  0  0  0  0
  5  3  1  0  0  0  0
  5  7  1  0  0  0  0
  7 11  1  0  0  0  0
  8 15  2  0  0  0  0
  9 10  1  0  0  0  0
  9  2  1  0  0  0  0
 10  6  1  0  0  0  0
 11  8  1  0  0  0  0
 12  9  1  0  0  0  0
 13 27  1  0  0  0  0
 13  7  1  0  0  0  0
 14  1  1  0  0  0  0
 16  4  1  0  0  0  0
 17 18  1  0  0  0  0
 18 19  1  0  0  0  0
 18 16  1  0  0  0  0
 19 21  1  0  0  0  0
 20 21  1  0  0  0  0
 20 26  1  0  0  0  0
 21 22  1  0  0  0  0
 22 25  1  0  0  0  0
 24 25  1  0  0  0  0
 25 23  2  0  0  0  0
 26 24  1  0  0  0  0
 27 29  1  0  0  0  0
 28 31  1  0  0  0  0
 28 29  2  0  0  0  0
 29 32  1  0  0  0  0
 30 31  1  0  0  0  0
 32 33  1  0  0  0  0
 33 34  1  0  0  0  0
 34 35  1  0  0  0  0
 36 37  1  0  0  0  0
 37 35  1  0  0  0  0
M  END
>  <MODEL>
2

>  <REMARK>
 VINA RESULT:      -6.6      1.435      2.217
  Name = 
  12 active torsions:
  status: ('A' for Active; 'I' for Inactive)
    1  A    between atoms: N_1  and  C_5
    2  A    between atoms: N_1  and  C_23
    3  A    between atoms: C_5  and  O_17
    4  A    between atoms: C_6  and  C_37
    5  A    between atoms: N_10  and  C_14
    6  A    between atoms: C_14  and  C_31
    7  A    between atoms: O_17  and  C_26
    8  A    between atoms: C_26  and  C_33
    9  A    between atoms: C_27  and  C_34
   10  A    between atoms: C_29  and  C_36
   11  A    between atoms: C_31  and  C_37
   12  A    between atoms: C_33  and  C_36
                            x       y       z     vdW  Elec       q    Type
                         _______ _______ _______ _____ _____    ______ ____

>  <TORSDO>
F 12

$$$$
=
 OpenBabel11052420003D

 37 40  0  0  1  0  0  0  0  0999 V2000
  185.4750  177.0920  146.1760 N   0  0  0  0  0  2  0  0  0  0  0  0
  187.4700  177.5360  141.9590 C   0  0  2  0  0  3  0  0  0  0  0  0
  185.6840  177.6550  143.7920 C   0  0  2  0  0  3  0  0  0  0  0  0
  188.4950  176.4770  141.9380 N   0  0  0  0  0  0  0  0  0  0  0  0
  187.1570  177.8440  143.4230 C   0  0  1  0  0  3  0  0  0  0  0  0
  184.7580  178.4120  142.8330 C   0  0  0  0  0  2  0  0  0  0  0  0
  187.9730  176.9260  144.1920 N   0  0  2  0  0  0  0  0  0  0  0  0
  187.9030  176.8130  146.5920 C   0  0  0  0  0  3  0  0  0  0  0  0
  186.2340  177.2950  141.0690 C   0  0  1  0  0  3  0  0  0  0  0  0
  185.1770  178.3570  141.3550 C   0  0  0  0  0  2  0  0  0  0  0  0
  188.4050  177.5850  145.4180 C   0  0  0  0  0  2  0  0  0  0  0  0
  186.6240  177.3720  139.6060 C   0  0  0  0  0  1  0  0  0  0  0  0
  189.0610  176.5340  143.2850 C   0  0  2  0  0  3  0  0  0  0  0  0
  185.4520  178.1770  145.2010 C   0  0  0  0  0  2  0  0  0  0  0  0
  186.6170  176.5890  146.8900 C   0  0  0  0  0  3  0  0  0  0  0  0
  187.8850  175.1480  141.8040 C   0  0  0  0  0  2  0  0  0  0  0  0
  188.4230  173.5350  139.9630 C   0  0  0  0  0  1  0  0  0  0  0  0
  188.8820  174.1140  141.2880 C   0  0  2  0  0  3  0  0  0  0  0  0
  189.1220  173.0110  142.3190 C   0  0  0  0  0  2  0  0  0  0  0  0
  190.6900  172.6730  144.2830 C   0  0  0  0  0  2  0  0  0  0  0  0
  190.5740  172.9320  142.7810 C   0  0  1  0  0  3  0  0  0  0  0  0
  191.3140  171.9360  142.0080 N   0  0  0  0  0  2  0  0  0  0  0  0
  193.2050  170.5660  141.7430 N   0  0  0  0  0  2  0  0  0  0  0  0
  192.8010  171.3580  143.9800 C   0  0  0  0  0  2  0  0  0  0  0  0
  192.5170  171.3430  142.5080 C   0  0  0  0  0  0  0  0  0  0  0  0
  192.1620  172.5690  144.6580 C   0  0  0  0  0  2  0  0  0  0  0  0
  190.2550  177.5070  143.3010 C   0  0  0  0  0  2  0  0  0  0  0  0
  192.0810  176.1130  142.4790 C   0  0  0  0  0  3  0  0  0  0  0  0
  191.5450  176.7830  143.5090 C   0  0  0  0  0  0  0  0  0  0  0  0
  193.6720  174.6820  141.2280 C   0  0  0  0  0  1  0  0  0  0  0  0
  193.3580  175.3340  142.5610 C   0  0  0  0  0  2  0  0  0  0  0  0
  192.1740  176.8030  144.8700 C   0  0  0  0  0  2  0  0  0  0  0  0
  191.4660  175.9750  145.7420 O   0  0  0  0  0  0  0  0  0  0  0  0
  192.3820  175.6660  146.7500 C   0  0  0  0  0  2  0  0  0  0  0  0
  192.5420  176.8060  147.6360 N   0  0  0  0  0  2  0  0  0  0  0  0
  191.4740  177.9820  149.4680 C   0  0  0  0  0  1  0  0  0  0  0  0
  191.2930  176.9630  148.3620 C   0  0  0  0  0  2  0  0  0  0  0  0
  1 15  1  0  0  0  0
  2  4  1  1  0  0  0
  2  5  1  0  0  0  0
  3  6  1  6  0  0  0
  3 14  1  0  0  0  0
  4 13  1  0  0  0  0
  5  3  1  0  0  0  0
  5  7  1  0  0  0  0
  7 11  1  0  0  0  0
  8 15  2  0  0  0  0
  9 10  1  0  0  0  0
  9  2  1  0  0  0  0
 10  6  1  0  0  0  0
 11  8  1  0  0  0  0
 12  9  1  0  0  0  0
 13 27  1  0  0  0  0
 13  7  1  0  0  0  0
 14  1  1  0  0  0  0
 16  4  1  0  0  0  0
 17 18  1  0  0  0  0
 18 16  1  0  0  0  0
 18 19  1  0  0  0  0
 19 21  1  0  0  0  0
 20 26  1  0  0  0  0
 21 20  1  0  0  0  0
 22 25  1  0  0  0  0
 22 21  1  0  0  0  0
 23 25  2  0  0  0  0
 24 26  1  0  0  0  0
 25 24  1  0  0  0  0
 27 29  1  0  0  0  0
 28 31  1  0  0  0  0
 28 29  2  0  0  0  0
 29 32  1  0  0  0  0
 30 31  1  0  0  0  0
 32 33  1  0  0  0  0
 33 34  1  0  0  0  0
 34 35  1  0  0  0  0
 35 37  1  0  0  0  0
 37 36  1  0  0  0  0
M  END
>  <MODEL>
3

>  <REMARK>
 VINA RESULT:      -6.4      1.307      2.392
  Name = 
  12 active torsions:
  status: ('A' for Active; 'I' for Inactive)
    1  A    between atoms: N_1  and  C_5
    2  A    between atoms: N_1  and  C_23
    3  A    between atoms: C_5  and  O_17
    4  A    between atoms: C_6  and  C_37
    5  A    between atoms: N_10  and  C_14
    6  A    between atoms: C_14  and  C_31
    7  A    between atoms: O_17  and  C_26
    8  A    between atoms: C_26  and  C_33
    9  A    between atoms: C_27  and  C_34
   10  A    between atoms: C_29  and  C_36
   11  A    between atoms: C_31  and  C_37
   12  A    between atoms: C_33  and  C_36
                            x       y       z     vdW  Elec       q    Type
                         _______ _______ _______ _____ _____    ______ ____

>  <TORSDO>
F 12

$$$$
=
 OpenBabel11052420003D

 37 40  0  0  1  0  0  0  0  0999 V2000
  195.3750  173.2380  143.4970 N   0  0  0  0  0  2  0  0  0  0  0  0
  190.7760  173.8120  142.8100 C   0  0  2  0  0  3  0  0  0  0  0  0
  193.1760  173.0010  142.4260 C   0  0  2  0  0  3  0  0  0  0  0  0
  190.4840  175.1170  143.4300 N   0  0  0  0  0  0  0  0  0  0  0  0
  192.0650  173.2810  143.4390 C   0  0  1  0  0  3  0  0  0  0  0  0
  192.6850  172.1100  141.2790 C   0  0  0  0  0  2  0  0  0  0  0  0
  192.4950  174.3130  144.3610 N   0  0  2  0  0  0  0  0  0  0  0  0
  194.5270  174.1600  145.6360 C   0  0  0  0  0  3  0  0  0  0  0  0
  190.7450  173.7750  141.2690 C   0  0  1  0  0  3  0  0  0  0  0  0
  191.2700  172.4320  140.7740 C   0  0  0  0  0  2  0  0  0  0  0  0
  193.1160  173.6860  145.5210 C   0  0  0  0  0  2  0  0  0  0  0  0
  189.3240  173.9610  140.7730 C   0  0  0  0  0  1  0  0  0  0  0  0
  191.2820  175.0900  144.6540 C   0  0  2  0  0  3  0  0  0  0  0  0
  194.3250  172.2960  143.1290 C   0  0  0  0  0  2  0  0  0  0  0  0
  195.4920  173.9740  144.7270 C   0  0  0  0  0  3  0  0  0  0  0  0
  191.0130  176.2210  142.6190 C   0  0  0  0  0  2  0  0  0  0  0  0
  190.8830  178.4410  143.7760 C   0  0  0  0  0  1  0  0  0  0  0  0
  190.2000  177.5000  142.8010 C   0  0  2  0  0  3  0  0  0  0  0  0
  188.7700  177.1900  143.2440 C   0  0  0  0  0  2  0  0  0  0  0  0
  187.3340  177.0710  141.1590 C   0  0  0  0  0  2  0  0  0  0  0  0
  187.7170  177.8890  142.3900 C   0  0  1  0  0  3  0  0  0  0  0  0
  186.5420  178.2340  143.1890 N   0  0  0  0  0  2  0  0  0  0  0  0
  184.2890  178.8930  143.3100 N   0  0  0  0  0  2  0  0  0  0  0  0
  184.9790  177.9260  141.2150 C   0  0  0  0  0  2  0  0  0  0  0  0
  185.2670  178.4680  142.5840 C   0  0  0  0  0  0  0  0  0  0  0  0
  186.2540  177.8140  140.3820 C   0  0  0  0  0  2  0  0  0  0  0  0
  190.4410  174.5040  145.8040 C   0  0  0  0  0  2  0  0  0  0  0  0
  190.7840  176.5020  147.1630 C   0  0  0  0  0  3  0  0  0  0  0  0
  189.9260  175.5790  146.7050 C   0  0  0  0  0  0  0  0  0  0  0  0
  191.4730  177.8400  149.1320 C   0  0  0  0  0  1  0  0  0  0  0  0
  190.3990  177.6190  148.0840 C   0  0  0  0  0  2  0  0  0  0  0  0
  188.4780  175.5650  147.0930 C   0  0  0  0  0  2  0  0  0  0  0  0
  187.7340  176.3510  146.2110 O   0  0  0  0  0  0  0  0  0  0  0  0
  186.6580  176.8080  146.9750 C   0  0  0  0  0  2  0  0  0  0  0  0
  186.8020  178.2320  147.2250 N   0  0  0  0  0  2  0  0  0  0  0  0
  184.4950  177.7670  146.6430 C   0  0  0  0  0  1  0  0  0  0  0  0
  185.5030  178.8410  147.0010 C   0  0  0  0  0  2  0  0  0  0  0  0
  1 15  1  0  0  0  0
  2  4  1  6  0  0  0
  2  5  1  0  0  0  0
  3  6  1  6  0  0  0
  3 14  1  0  0  0  0
  3  5  1  0  0  0  0
  4 13  1  0  0  0  0
  5  7  1  0  0  0  0
  7 13  1  0  0  0  0
  7 11  1  0  0  0  0
  9  2  1  0  0  0  0
 10  9  1  0  0  0  0
 10  6  1  0  0  0  0
 11  8  1  0  0  0  0
 12  9  1  0  0  0  0
 13 27  1  0  0  0  0
 14  1  1  0  0  0  0
 15  8  2  0  0  0  0
 16 18  1  0  0  0  0
 16  4  1  0  0  0  0
 18 19  1  0  0  0  0
 18 17  1  0  0  0  0
 20 21  1  0  0  0  0
 21 22  1  0  0  0  0
 21 19  1  0  0  0  0
 24 25  1  0  0  0  0
 25 22  1  0  0  0  0
 25 23  2  0  0  0  0
 26 20  1  0  0  0  0
 26 24  1  0  0  0  0
 27 29  1  0  0  0  0
 28 31  1  0  0  0  0
 29 32  1  0  0  0  0
 29 28  2  0  0  0  0
 31 30  1  0  0  0  0
 33 34  1  0  0  0  0
 33 32  1  0  0  0  0
 34 35  1  0  0  0  0
 36 37  1  0  0  0  0
 37 35  1  0  0  0  0
M  END
>  <MODEL>
4

>  <REMARK>
 VINA RESULT:      -6.4      2.106      7.551
  Name = 
  12 active torsions:
  status: ('A' for Active; 'I' for Inactive)
    1  A    between atoms: N_1  and  C_5
    2  A    between atoms: N_1  and  C_23
    3  A    between atoms: C_5  and  O_17
    4  A    between atoms: C_6  and  C_37
    5  A    between atoms: N_10  and  C_14
    6  A    between atoms: C_14  and  C_31
    7  A    between atoms: O_17  and  C_26
    8  A    between atoms: C_26  and  C_33
    9  A    between atoms: C_27  and  C_34
   10  A    between atoms: C_29  and  C_36
   11  A    between atoms: C_31  and  C_37
   12  A    between atoms: C_33  and  C_36
                            x       y       z     vdW  Elec       q    Type
                         _______ _______ _______ _____ _____    ______ ____

>  <TORSDO>
F 12

$$$$
=
 OpenBabel11052420003D

 37 40  0  0  1  0  0  0  0  0999 V2000
  192.1350  170.6650  141.4350 N   0  0  0  0  0  2  0  0  0  0  0  0
  189.0720  174.0590  142.4660 C   0  0  2  0  0  3  0  0  0  0  0  0
  190.2300  172.1910  141.1470 C   0  0  2  0  0  3  0  0  0  0  0  0
  189.8170  174.9430  143.3800 N   0  0  0  0  0  0  0  0  0  0  0  0
  189.7400  172.6840  142.5110 C   0  0  1  0  0  3  0  0  0  0  0  0
  189.1220  172.2600  140.0890 C   0  0  0  0  0  2  0  0  0  0  0  0
  190.8680  172.8340  143.4080 N   0  0  2  0  0  0  0  0  0  0  0  0
  192.4160  171.0530  143.8670 C   0  0  0  0  0  3  0  0  0  0  0  0
  188.8220  174.6110  141.0490 C   0  0  1  0  0  3  0  0  0  0  0  0
  188.2390  173.5150  140.1630 C   0  0  0  0  0  2  0  0  0  0  0  0
  191.0540  171.5920  144.1500 C   0  0  0  0  0  2  0  0  0  0  0  0
  187.8440  175.7690  141.1070 C   0  0  0  0  0  1  0  0  0  0  0  0
  190.5420  174.0040  144.2340 C   0  0  2  0  0  3  0  0  0  0  0  0
  190.6880  170.7470  141.2740 C   0  0  0  0  0  2  0  0  0  0  0  0
  192.8760  170.6770  142.6670 C   0  0  0  0  0  3  0  0  0  0  0  0
  190.8360  175.7160  142.6600 C   0  0  0  0  0  2  0  0  0  0  0  0
  191.4150  177.6900  144.0930 C   0  0  0  0  0  1  0  0  0  0  0  0
  191.8650  176.3240  143.6100 C   0  0  2  0  0  3  0  0  0  0  0  0
  193.2460  176.3960  142.9590 C   0  0  0  0  0  2  0  0  0  0  0  0
  194.1100  175.0420  144.9200 C   0  0  0  0  0  2  0  0  0  0  0  0
  194.3860  176.1920  143.9520 C   0  0  1  0  0  3  0  0  0  0  0  0
  195.6590  176.0110  143.2570 N   0  0  0  0  0  2  0  0  0  0  0  0
  197.9110  175.3410  143.2840 N   0  0  0  0  0  2  0  0  0  0  0  0
  196.5430  174.4610  145.0590 C   0  0  0  0  0  2  0  0  0  0  0  0
  196.7710  175.3660  143.8860 C   0  0  0  0  0  0  0  0  0  0  0  0
  195.3050  174.8760  145.8510 C   0  0  0  0  0  2  0  0  0  0  0  0
  189.6870  173.6650  145.4700 C   0  0  0  0  0  2  0  0  0  0  0  0
  191.0400  175.0570  146.9500 C   0  0  0  0  0  3  0  0  0  0  0  0
  189.8140  174.7150  146.5250 C   0  0  0  0  0  0  0  0  0  0  0  0
  192.4810  176.9540  147.6330 C   0  0  0  0  0  1  0  0  0  0  0  0
  191.3010  176.0800  148.0130 C   0  0  0  0  0  2  0  0  0  0  0  0
  188.5670  175.3210  147.0950 C   0  0  0  0  0  2  0  0  0  0  0  0
  187.9800  176.1810  146.1660 O   0  0  0  0  0  0  0  0  0  0  0  0
  186.8500  176.6810  146.8190 C   0  0  0  0  0  2  0  0  0  0  0  0
  185.7810  176.8910  145.8580 N   0  0  0  0  0  2  0  0  0  0  0  0
  185.9180  179.0500  144.7630 C   0  0  0  0  0  1  0  0  0  0  0  0
  185.3840  178.2850  145.9570 C   0  0  0  0  0  2  0  0  0  0  0  0
  1 15  1  0  0  0  0
  2  5  1  0  0  0  0
  2  4  1  1  0  0  0
  3  6  1  6  0  0  0
  3 14  1  0  0  0  0
  3  5  1  0  0  0  0
  4 13  1  0  0  0  0
  5  7  1  0  0  0  0
  6 10  1  0  0  0  0
  7 11  1  0  0  0  0
  7 13  1  0  0  0  0
  8 11  1  0  0  0  0
  9 12  1  0  0  0  0
  9  2  1  0  0  0  0
 10  9  1  0  0  0  0
 13 27  1  0  0  0  0
 14  1  1  0  0  0  0
 15  8  2  0  0  0  0
 16  4  1  0  0  0  0
 16 18  1  0  0  0  0
 18 17  1  0  0  0  0
 19 18  1  0  0  0  0
 19 21  1  0  0  0  0
 20 26  1  0  0  0  0
 21 20  1  0  0  0  0
 22 25  1  0  0  0  0
 22 21  1  0  0  0  0
 23 25  2  0  0  0  0
 24 26  1  0  0  0  0
 25 24  1  0  0  0  0
 27 29  1  0  0  0  0
 28 31  1  0  0  0  0
 29 28  2  0  0  0  0
 29 32  1  0  0  0  0
 30 31  1  0  0  0  0
 33 34  1  0  0  0  0
 33 32  1  0  0  0  0
 35 37  1  0  0  0  0
 35 34  1  0  0  0  0
 36 37  1  0  0  0  0
M  END
>  <MODEL>
5

>  <REMARK>
 VINA RESULT:      -6.3      1.838      6.477
  Name = 
  12 active torsions:
  status: ('A' for Active; 'I' for Inactive)
    1  A    between atoms: N_1  and  C_5
    2  A    between atoms: N_1  and  C_23
    3  A    between atoms: C_5  and  O_17
    4  A    between atoms: C_6  and  C_37
    5  A    between atoms: N_10  and  C_14
    6  A    between atoms: C_14  and  C_31
    7  A    between atoms: O_17  and  C_26
    8  A    between atoms: C_26  and  C_33
    9  A    between atoms: C_27  and  C_34
   10  A    between atoms: C_29  and  C_36
   11  A    between atoms: C_31  and  C_37
   12  A    between atoms: C_33  and  C_36
                            x       y       z     vdW  Elec       q    Type
                         _______ _______ _______ _____ _____    ______ ____

>  <TORSDO>
F 12

$$$$
=
 OpenBabel11052420003D

 37 40  0  0  1  0  0  0  0  0999 V2000
  186.5090  176.8190  140.7980 N   0  0  0  0  0  2  0  0  0  0  0  0
  190.0300  174.6420  142.9940 C   0  0  2  0  0  3  0  0  0  0  0  0
  188.0270  174.9940  141.4340 C   0  0  2  0  0  3  0  0  0  0  0  0
  190.1700  175.3830  144.2600 N   0  0  0  0  0  0  0  0  0  0  0  0
  189.3300  175.5660  141.9960 C   0  0  1  0  0  3  0  0  0  0  0  0
  188.2240  173.5810  140.8720 C   0  0  0  0  0  2  0  0  0  0  0  0
  189.0520  176.7830  142.7300 N   0  0  2  0  0  0  0  0  0  0  0  0
  187.8740  178.6460  141.7690 C   0  0  0  0  0  3  0  0  0  0  0  0
  189.4230  173.2290  143.1030 C   0  0  1  0  0  3  0  0  0  0  0  0
  189.1430  172.6780  141.7090 C   0  0  0  0  0  2  0  0  0  0  0  0
  189.1780  177.9220  141.8280 C   0  0  0  0  0  2  0  0  0  0  0  0
  190.3890  172.3010  143.8140 C   0  0  0  0  0  1  0  0  0  0  0  0
  190.0010  176.7760  143.8520 C   0  0  2  0  0  3  0  0  0  0  0  0
  187.5290  175.8950  140.3150 C   0  0  0  0  0  2  0  0  0  0  0  0
  186.7140  178.1360  141.3390 C   0  0  0  0  0  3  0  0  0  0  0  0
  189.0620  175.0850  145.1770 C   0  0  0  0  0  2  0  0  0  0  0  0
  188.9390  174.5800  147.6290 C   0  0  0  0  0  1  0  0  0  0  0  0
  189.3330  175.6080  146.5850 C   0  0  2  0  0  3  0  0  0  0  0  0
  188.6230  176.9400  146.8280 C   0  0  0  0  0  2  0  0  0  0  0  0
  186.1210  176.7840  147.2100 C   0  0  0  0  0  2  0  0  0  0  0  0
  187.2380  177.0020  146.1900 C   0  0  1  0  0  3  0  0  0  0  0  0
  187.0570  178.2550  145.4590 N   0  0  0  0  0  2  0  0  0  0  0  0
  185.6380  179.8070  144.4080 N   0  0  0  0  0  2  0  0  0  0  0  0
  184.5730  178.3150  145.9700 C   0  0  0  0  0  2  0  0  0  0  0  0
  185.7530  178.7680  145.1640 C   0  0  0  0  0  0  0  0  0  0  0  0
  184.7750  176.8990  146.5060 C   0  0  0  0  0  2  0  0  0  0  0  0
  191.3730  177.3800  143.4990 C   0  0  0  0  0  2  0  0  0  0  0  0
  192.3810  176.7700  145.6370 C   0  0  0  0  0  3  0  0  0  0  0  0
  192.4670  176.7510  144.2990 C   0  0  0  0  0  0  0  0  0  0  0  0
  194.5710  177.1600  146.7310 C   0  0  0  0  0  1  0  0  0  0  0  0
  193.4170  176.1910  146.5510 C   0  0  0  0  0  2  0  0  0  0  0  0
  193.6380  176.1520  143.5770 C   0  0  0  0  0  2  0  0  0  0  0  0
  193.2340  175.0370  142.8420 O   0  0  0  0  0  0  0  0  0  0  0  0
  193.7440  173.9480  143.5530 C   0  0  0  0  0  2  0  0  0  0  0  0
  195.1090  174.2270  143.9670 N   0  0  0  0  0  2  0  0  0  0  0  0
  194.1430  172.6020  145.4850 C   0  0  0  0  0  1  0  0  0  0  0  0
  195.3710  173.4210  145.1460 C   0  0  0  0  0  2  0  0  0  0  0  0
  1 15  1  0  0  0  0
  2  9  1  0  0  0  0
  2  4  1  1  0  0  0
  3 14  1  6  0  0  0
  3  5  1  0  0  0  0
  4 16  1  0  0  0  0
  5  7  1  0  0  0  0
  5  2  1  0  0  0  0
  6  3  1  0  0  0  0
  6 10  1  0  0  0  0
  7 13  1  0  0  0  0
  8 11  1  0  0  0  0
  9 12  1  0  0  0  0
 10  9  1  0  0  0  0
 11  7  1  0  0  0  0
 13  4  1  0  0  0  0
 14  1  1  0  0  0  0
 15  8  2  0  0  0  0
 16 18  1  0  0  0  0
 18 19  1  0  0  0  0
 18 17  1  0  0  0  0
 21 19  1  0  0  0  0
 21 20  1  0  0  0  0
 22 21  1  0  0  0  0
 23 25  2  0  0  0  0
 24 26  1  0  0  0  0
 25 22  1  0  0  0  0
 25 24  1  0  0  0  0
 26 20  1  0  0  0  0
 27 13  1  0  0  0  0
 27 29  1  0  0  0  0
 28 31  1  0  0  0  0
 29 28  2  0  0  0  0
 31 30  1  0  0  0  0
 32 29  1  0  0  0  0
 33 34  1  0  0  0  0
 33 32  1  0  0  0  0
 34 35  1  0  0  0  0
 35 37  1  0  0  0  0
 37 36  1  0  0  0  0
M  END
>  <MODEL>
6

>  <REMARK>
 VINA RESULT:      -6.3      1.895      5.642
  Name = 
  12 active torsions:
  status: ('A' for Active; 'I' for Inactive)
    1  A    between atoms: N_1  and  C_5
    2  A    between atoms: N_1  and  C_23
    3  A    between atoms: C_5  and  O_17
    4  A    between atoms: C_6  and  C_37
    5  A    between atoms: N_10  and  C_14
    6  A    between atoms: C_14  and  C_31
    7  A    between atoms: O_17  and  C_26
    8  A    between atoms: C_26  and  C_33
    9  A    between atoms: C_27  and  C_34
   10  A    between atoms: C_29  and  C_36
   11  A    between atoms: C_31  and  C_37
   12  A    between atoms: C_33  and  C_36
                            x       y       z     vdW  Elec       q    Type
                         _______ _______ _______ _____ _____    ______ ____

>  <TORSDO>
F 12

$$$$
=
 OpenBabel11052420003D

 37 40  0  0  1  0  0  0  0  0999 V2000
  184.7450  177.3550  146.3230 N   0  0  0  0  0  2  0  0  0  0  0  0
  187.3050  177.5460  142.4030 C   0  0  2  0  0  3  0  0  0  0  0  0
  185.2740  177.7390  143.9540 C   0  0  2  0  0  3  0  0  0  0  0  0
  188.3510  176.5290  142.6120 N   0  0  0  0  0  0  0  0  0  0  0  0
  186.7790  177.9550  143.7800 C   0  0  1  0  0  3  0  0  0  0  0  0
  184.4740  178.3850  142.8160 C   0  0  0  0  0  2  0  0  0  0  0  0
  187.5020  177.1300  144.7270 N   0  0  2  0  0  0  0  0  0  0  0  0
  187.0950  177.2010  147.0950 C   0  0  0  0  0  3  0  0  0  0  0  0
  186.2150  177.1910  141.3730 C   0  0  1  0  0  3  0  0  0  0  0  0
  185.1000  178.2310  141.4210 C   0  0  0  0  0  2  0  0  0  0  0  0
  187.7380  177.8990  145.9430 C   0  0  0  0  0  2  0  0  0  0  0  0
  186.8070  177.1690  139.9760 C   0  0  0  0  0  1  0  0  0  0  0  0
  188.7180  176.7110  144.0150 C   0  0  2  0  0  3  0  0  0  0  0  0
  184.8310  178.3600  145.2690 C   0  0  0  0  0  2  0  0  0  0  0  0
  185.7870  176.9520  147.2280 C   0  0  0  0  0  3  0  0  0  0  0  0
  187.8020  175.1710  142.5040 C   0  0  0  0  0  2  0  0  0  0  0  0
  190.1680  174.8330  141.7500 C   0  0  0  0  0  1  0  0  0  0  0  0
  188.8820  174.1460  142.1700 C   0  0  2  0  0  3  0  0  0  0  0  0
  188.4040  173.1660  141.0980 C   0  0  0  0  0  2  0  0  0  0  0  0
  189.4940  171.9280  139.1720 C   0  0  0  0  0  2  0  0  0  0  0  0
  189.1790  173.2900  139.7890 C   0  0  1  0  0  3  0  0  0  0  0  0
  188.4730  174.1540  138.8450 N   0  0  0  0  0  2  0  0  0  0  0  0
  188.1700  174.9480  136.6530 N   0  0  0  0  0  2  0  0  0  0  0  0
  189.3310  172.8470  136.8470 C   0  0  0  0  0  2  0  0  0  0  0  0
  188.7190  174.0830  137.4370 C   0  0  0  0  0  0  0  0  0  0  0  0
  190.2310  172.1360  137.8550 C   0  0  0  0  0  2  0  0  0  0  0  0
  189.8710  177.7270  144.1180 C   0  0  0  0  0  2  0  0  0  0  0  0
  190.8440  176.5520  146.0230 C   0  0  0  0  0  3  0  0  0  0  0  0
  191.0440  177.1480  144.8380 C   0  0  0  0  0  0  0  0  0  0  0  0
  191.3650  175.2980  148.0960 C   0  0  0  0  0  1  0  0  0  0  0  0
  191.9370  175.9480  146.8510 C   0  0  0  0  0  2  0  0  0  0  0  0
  192.4070  177.2850  144.2270 C   0  0  0  0  0  2  0  0  0  0  0  0
  192.7560  176.1130  143.5560 O   0  0  0  0  0  0  0  0  0  0  0  0
  194.1450  176.0390  143.6840 C   0  0  0  0  0  2  0  0  0  0  0  0
  194.5050  174.8760  144.4780 N   0  0  0  0  0  2  0  0  0  0  0  0
  196.3490  173.9820  145.7720 C   0  0  0  0  0  1  0  0  0  0  0  0
  195.9490  174.8900  144.6280 C   0  0  0  0  0  2  0  0  0  0  0  0
  1 15  1  0  0  0  0
  2  4  1  1  0  0  0
  2  5  1  0  0  0  0
  3  6  1  6  0  0  0
  3 14  1  0  0  0  0
  4 13  1  0  0  0  0
  5  3  1  0  0  0  0
  5  7  1  0  0  0  0
  7 11  1  0  0  0  0
  8 15  2  0  0  0  0
  9 10  1  0  0  0  0
  9  2  1  0  0  0  0
 10  6  1  0  0  0  0
 11  8  1  0  0  0  0
 12  9  1  0  0  0  0
 13 27  1  0  0  0  0
 13  7  1  0  0  0  0
 14  1  1  0  0  0  0
 16  4  1  0  0  0  0
 17 18  1  0  0  0  0
 18 16  1  0  0  0  0
 19 18  1  0  0  0  0
 20 21  1  0  0  0  0
 21 19  1  0  0  0  0
 22 21  1  0  0  0  0
 23 25  2  0  0  0  0
 24 25  1  0  0  0  0
 24 26  1  0  0  0  0
 25 22  1  0  0  0  0
 26 20  1  0  0  0  0
 27 29  1  0  0  0  0
 28 31  1  0  0  0  0
 29 28  2  0  0  0  0
 31 30  1  0  0  0  0
 32 29  1  0  0  0  0
 33 34  1  0  0  0  0
 33 32  1  0  0  0  0
 34 35  1  0  0  0  0
 35 37  1  0  0  0  0
 37 36  1  0  0  0  0
M  END
>  <MODEL>
7

>  <REMARK>
 VINA RESULT:      -6.2      1.996      2.995
  Name = 
  12 active torsions:
  status: ('A' for Active; 'I' for Inactive)
    1  A    between atoms: N_1  and  C_5
    2  A    between atoms: N_1  and  C_23
    3  A    between atoms: C_5  and  O_17
    4  A    between atoms: C_6  and  C_37
    5  A    between atoms: N_10  and  C_14
    6  A    between atoms: C_14  and  C_31
    7  A    between atoms: O_17  and  C_26
    8  A    between atoms: C_26  and  C_33
    9  A    between atoms: C_27  and  C_34
   10  A    between atoms: C_29  and  C_36
   11  A    between atoms: C_31  and  C_37
   12  A    between atoms: C_33  and  C_36
                            x       y       z     vdW  Elec       q    Type
                         _______ _______ _______ _____ _____    ______ ____

>  <TORSDO>
F 12

$$$$
=
 OpenBabel11052420003D

 37 40  0  0  1  0  0  0  0  0999 V2000
  194.6930  176.1530  144.5290 N   0  0  0  0  0  2  0  0  0  0  0  0
  190.1820  175.5650  145.6550 C   0  0  2  0  0  3  0  0  0  0  0  0
  192.6920  175.9950  145.9470 C   0  0  2  0  0  3  0  0  0  0  0  0
  189.6620  174.6920  144.5880 N   0  0  0  0  0  0  0  0  0  0  0  0
  191.4350  176.2550  145.1130 C   0  0  1  0  0  3  0  0  0  0  0  0
  192.4600  176.3020  147.4310 C   0  0  0  0  0  2  0  0  0  0  0  0
  191.6190  175.7250  143.7780 N   0  0  2  0  0  0  0  0  0  0  0  0
  193.4760  176.3300  142.3770 C   0  0  0  0  0  3  0  0  0  0  0  0
  190.3520  174.9090  147.0400 C   0  0  1  0  0  3  0  0  0  0  0  0
  191.0920  175.8600  147.9740 C   0  0  0  0  0  2  0  0  0  0  0  0
  192.1580  176.7730  142.9200 C   0  0  0  0  0  2  0  0  0  0  0  0
  188.9940  174.5930  147.6350 C   0  0  0  0  0  1  0  0  0  0  0  0
  190.2940  175.2240  143.3830 C   0  0  2  0  0  3  0  0  0  0  0  0
  193.8180  176.8820  145.4400 C   0  0  0  0  0  2  0  0  0  0  0  0
  194.5630  176.0400  143.1010 C   0  0  0  0  0  3  0  0  0  0  0  0
  190.1530  173.3160  144.7380 C   0  0  0  0  0  2  0  0  0  0  0  0
  188.7070  171.9190  143.2410 C   0  0  0  0  0  1  0  0  0  0  0  0
  190.0790  172.5400  143.4250 C   0  0  2  0  0  3  0  0  0  0  0  0
  191.1790  171.4810  143.3450 C   0  0  0  0  0  2  0  0  0  0  0  0
  191.0620  170.5460  140.9910 C   0  0  0  0  0  2  0  0  0  0  0  0
  191.8450  171.4160  141.9730 C   0  0  1  0  0  3  0  0  0  0  0  0
  192.0690  172.7580  141.4380 N   0  0  0  0  0  2  0  0  0  0  0  0
  192.5640  174.1630  139.6200 N   0  0  0  0  0  2  0  0  0  0  0  0
  191.7500  171.9700  139.0480 C   0  0  0  0  0  2  0  0  0  0  0  0
  192.2430  172.9850  140.0360 C   0  0  0  0  0  0  0  0  0  0  0  0
  191.7660  170.5630  139.6400 C   0  0  0  0  0  2  0  0  0  0  0  0
  189.3900  176.3040  142.7600 C   0  0  0  0  0  2  0  0  0  0  0  0
  189.0600  174.8560  140.8230 C   0  0  0  0  0  3  0  0  0  0  0  0
  188.5250  175.7350  141.6830 C   0  0  0  0  0  0  0  0  0  0  0  0
  188.2590  172.7200  139.8530 C   0  0  0  0  0  1  0  0  0  0  0  0
  188.3060  174.2280  139.6910 C   0  0  0  0  0  2  0  0  0  0  0  0
  187.1010  176.1950  141.5810 C   0  0  0  0  0  2  0  0  0  0  0  0
  186.4260  175.9460  142.7770 O   0  0  0  0  0  0  0  0  0  0  0  0
  185.8190  177.1630  143.0950 C   0  0  0  0  0  2  0  0  0  0  0  0
  185.4710  177.1840  144.5060 N   0  0  0  0  0  2  0  0  0  0  0  0
  186.5650  177.3100  146.6660 C   0  0  0  0  0  1  0  0  0  0  0  0
  186.6580  176.7910  145.2460 C   0  0  0  0  0  2  0  0  0  0  0  0
  1 14  1  0  0  0  0
  2  4  1  6  0  0  0
  2  9  1  0  0  0  0
  3 14  1  6  0  0  0
  3  6  1  0  0  0  0
  4 16  1  0  0  0  0
  5  2  1  0  0  0  0
  5  3  1  0  0  0  0
  6 10  1  0  0  0  0
  7  5  1  0  0  0  0
  8 11  1  0  0  0  0
  8 15  2  0  0  0  0
  9 12  1  0  0  0  0
  9 10  1  0  0  0  0
 11  7  1  0  0  0  0
 13  7  1  0  0  0  0
 13  4  1  0  0  0  0
 15  1  1  0  0  0  0
 17 18  1  0  0  0  0
 18 16  1  0  0  0  0
 19 18  1  0  0  0  0
 20 21  1  0  0  0  0
 21 19  1  0  0  0  0
 22 21  1  0  0  0  0
 23 25  2  0  0  0  0
 24 26  1  0  0  0  0
 24 25  1  0  0  0  0
 25 22  1  0  0  0  0
 26 20  1  0  0  0  0
 27 13  1  0  0  0  0
 28 29  2  0  0  0  0
 29 27  1  0  0  0  0
 31 30  1  0  0  0  0
 31 28  1  0  0  0  0
 32 29  1  0  0  0  0
 32 33  1  0  0  0  0
 33 34  1  0  0  0  0
 34 35  1  0  0  0  0
 35 37  1  0  0  0  0
 37 36  1  0  0  0  0
M  END
>  <MODEL>
8

>  <REMARK>
 VINA RESULT:      -6.2      2.137      6.544
  Name = 
  12 active torsions:
  status: ('A' for Active; 'I' for Inactive)
    1  A    between atoms: N_1  and  C_5
    2  A    between atoms: N_1  and  C_23
    3  A    between atoms: C_5  and  O_17
    4  A    between atoms: C_6  and  C_37
    5  A    between atoms: N_10  and  C_14
    6  A    between atoms: C_14  and  C_31
    7  A    between atoms: O_17  and  C_26
    8  A    between atoms: C_26  and  C_33
    9  A    between atoms: C_27  and  C_34
   10  A    between atoms: C_29  and  C_36
   11  A    between atoms: C_31  and  C_37
   12  A    between atoms: C_33  and  C_36
                            x       y       z     vdW  Elec       q    Type
                         _______ _______ _______ _____ _____    ______ ____

>  <TORSDO>
F 12

$$$$
=
 OpenBabel11052420003D

 37 40  0  0  1  0  0  0  0  0999 V2000
  185.6870  177.5270  146.5330 N   0  0  0  0  0  2  0  0  0  0  0  0
  187.6200  177.2440  142.2740 C   0  0  2  0  0  3  0  0  0  0  0  0
  185.9640  177.8940  144.1190 C   0  0  2  0  0  3  0  0  0  0  0  0
  188.3550  175.9680  142.3020 N   0  0  0  0  0  0  0  0  0  0  0  0
  187.4290  177.6970  143.7220 C   0  0  1  0  0  3  0  0  0  0  0  0
  185.2260  178.8030  143.1290 C   0  0  0  0  0  2  0  0  0  0  0  0
  188.0160  176.6500  144.5320 N   0  0  2  0  0  0  0  0  0  0  0  0
  187.9830  176.6850  146.9360 C   0  0  0  0  0  3  0  0  0  0  0  0
  186.3400  177.2660  141.4150 C   0  0  1  0  0  3  0  0  0  0  0  0
  185.5810  178.5680  141.6520 C   0  0  0  0  0  2  0  0  0  0  0  0
  188.6280  177.2480  145.7130 C   0  0  0  0  0  2  0  0  0  0  0  0
  186.6990  177.1670  139.9450 C   0  0  0  0  0  1  0  0  0  0  0  0
  188.9520  175.9560  143.6360 C   0  0  2  0  0  3  0  0  0  0  0  0
  185.9030  178.5310  145.4980 C   0  0  0  0  0  2  0  0  0  0  0  0
  186.6900  176.7980  147.2620 C   0  0  0  0  0  3  0  0  0  0  0  0
  187.4370  174.8230  142.2530 C   0  0  0  0  0  2  0  0  0  0  0  0
  188.5240  172.5680  142.3850 C   0  0  0  0  0  1  0  0  0  0  0  0
  188.0210  173.6590  141.4570 C   0  0  2  0  0  3  0  0  0  0  0  0
  189.1260  174.1320  140.5130 C   0  0  0  0  0  2  0  0  0  0  0  0
  190.6070  172.3850  139.4240 C   0  0  0  0  0  2  0  0  0  0  0  0
  190.4030  173.3050  140.6280 C   0  0  1  0  0  3  0  0  0  0  0  0
  191.5650  174.1650  140.8460 N   0  0  0  0  0  2  0  0  0  0  0  0
  193.8960  174.4640  140.8660 N   0  0  0  0  0  2  0  0  0  0  0  0
  193.1000  172.5910  139.5800 C   0  0  0  0  0  2  0  0  0  0  0  0
  192.8920  173.7230  140.5410 C   0  0  0  0  0  0  0  0  0  0  0  0
  191.9160  171.6250  139.5940 C   0  0  0  0  0  2  0  0  0  0  0  0
  190.3470  176.6070  143.5820 C   0  0  0  0  0  2  0  0  0  0  0  0
  191.0610  174.3990  144.3390 C   0  0  0  0  0  3  0  0  0  0  0  0
  191.4180  175.6340  143.9540 C   0  0  0  0  0  0  0  0  0  0  0  0
  191.9170  172.1260  143.8490 C   0  0  0  0  0  1  0  0  0  0  0  0
  192.0340  173.3380  144.7530 C   0  0  0  0  0  2  0  0  0  0  0  0
  192.8480  176.0830  143.9170 C   0  0  0  0  0  2  0  0  0  0  0  0
  193.0820  177.0320  144.9120 O   0  0  0  0  0  0  0  0  0  0  0  0
  193.8390  176.3540  145.8700 C   0  0  0  0  0  2  0  0  0  0  0  0
  193.4570  176.7960  147.2010 N   0  0  0  0  0  2  0  0  0  0  0  0
  191.5490  177.1620  148.6510 C   0  0  0  0  0  1  0  0  0  0  0  0
  192.0110  176.6850  147.2900 C   0  0  0  0  0  2  0  0  0  0  0  0
  1 15  1  0  0  0  0
  2  4  1  1  0  0  0
  2  5  1  0  0  0  0
  3  6  1  6  0  0  0
  3 14  1  0  0  0  0
  4 13  1  0  0  0  0
  5  3  1  0  0  0  0
  5  7  1  0  0  0  0
  7 11  1  0  0  0  0
  8 15  2  0  0  0  0
  9 10  1  0  0  0  0
  9  2  1  0  0  0  0
 10  6  1  0  0  0  0
 11  8  1  0  0  0  0
 12  9  1  0  0  0  0
 13  7  1  0  0  0  0
 14  1  1  0  0  0  0
 16  4  1  0  0  0  0
 18 16  1  0  0  0  0
 18 17  1  0  0  0  0
 19 21  1  0  0  0  0
 19 18  1  0  0  0  0
 20 26  1  0  0  0  0
 20 21  1  0  0  0  0
 21 22  1  0  0  0  0
 24 26  1  0  0  0  0
 24 25  1  0  0  0  0
 25 22  1  0  0  0  0
 25 23  2  0  0  0  0
 27 13  1  0  0  0  0
 27 29  1  0  0  0  0
 28 31  1  0  0  0  0
 29 28  2  0  0  0  0
 30 31  1  0  0  0  0
 32 29  1  0  0  0  0
 32 33  1  0  0  0  0
 33 34  1  0  0  0  0
 34 35  1  0  0  0  0
 35 37  1  0  0  0  0
 37 36  1  0  0  0  0
M  END
>  <MODEL>
9

>  <REMARK>
 VINA RESULT:      -6.2      1.823      2.767
  Name = 
  12 active torsions:
  status: ('A' for Active; 'I' for Inactive)
    1  A    between atoms: N_1  and  C_5
    2  A    between atoms: N_1  and  C_23
    3  A    between atoms: C_5  and  O_17
    4  A    between atoms: C_6  and  C_37
    5  A    between atoms: N_10  and  C_14
    6  A    between atoms: C_14  and  C_31
    7  A    between atoms: O_17  and  C_26
    8  A    between atoms: C_26  and  C_33
    9  A    between atoms: C_27  and  C_34
   10  A    between atoms: C_29  and  C_36
   11  A    between atoms: C_31  and  C_37
   12  A    between atoms: C_33  and  C_36
                            x       y       z     vdW  Elec       q    Type
                         _______ _______ _______ _____ _____    ______ ____

>  <TORSDO>
F 12

$$$$
