=
 OpenBabel11052420243D

 34 38  0  0  1  0  0  0  0  0999 V2000
  194.4730  174.1370  145.4320 C   0  0  0  0  0  0  0  0  0  0  0  0
  197.2670  172.5140  143.7390 C   0  0  0  0  0  2  0  0  0  0  0  0
  196.5640  174.5750  143.8890 N   0  0  0  0  0  0  0  0  0  0  0  0
  192.4970  175.0520  146.5300 C   0  0  0  0  0  0  0  0  0  0  0  0
  193.3250  173.9550  146.1000 C   0  0  0  0  0  3  0  0  0  0  0  0
  194.0860  176.5630  145.5890 C   0  0  0  0  0  0  0  0  0  0  0  0
  194.5470  177.9220  145.4510 N   0  0  0  0  0  1  0  0  0  0  0  0
  192.9720  176.3610  146.3230 C   0  0  0  0  0  3  0  0  0  0  0  0
  195.9040  175.6360  144.3330 C   0  0  0  0  0  0  0  0  0  0  0  0
  194.8310  175.4810  145.1150 C   0  0  0  0  0  0  0  0  0  0  0  0
  196.3600  176.7600  144.0510 O   0  0  0  0  0  0  0  0  0  0  0  0
  197.3280  171.0550  143.5910 C   0  0  0  0  0  2  0  0  0  0  0  0
  196.8950  170.2560  144.8870 C   0  0  1  0  0  3  0  0  0  0  0  0
  195.7510  170.5770  145.5110 C   0  0  0  0  0  2  0  0  0  0  0  0
  196.3010  173.2930  144.1550 C   0  0  0  0  0  0  0  0  0  0  0  0
  195.0740  171.8860  145.5840 C   0  0  0  0  0  3  0  0  0  0  0  0
  195.2370  173.0270  144.9540 C   0  0  0  0  0  0  0  0  0  0  0  0
  197.5730  168.9690  145.1870 N   0  0  0  0  0  0  0  0  0  0  0  0
  197.9410  168.2620  144.2570 O   0  0  0  0  0  0  0  0  0  0  0  0
  197.9220  168.6500  146.5220 O   0  0  0  0  0  0  0  0  0  0  0  0
  191.1570  175.0370  146.9860 O   0  0  0  0  0  0  0  0  0  0  0  0
  189.0610  176.5050  144.3160 C   0  0  0  0  0  3  0  0  0  0  0  0
  188.8870  175.7410  147.0020 C   0  0  0  0  0  3  0  0  0  0  0  0
  185.6560  177.6010  145.1290 C   0  0  0  0  0  0  0  0  0  0  0  0
  186.7990  177.3000  144.4120 C   0  0  0  0  0  3  0  0  0  0  0  0
  187.8650  176.6590  145.0130 C   0  0  0  0  0  0  0  0  0  0  0  0
  186.7210  176.6700  147.1880 C   0  0  0  0  0  3  0  0  0  0  0  0
  187.8140  176.3610  146.3810 C   0  0  0  0  0  0  0  0  0  0  0  0
  185.5940  177.2580  146.5450 C   0  0  0  0  0  3  0  0  0  0  0  0
  190.0060  175.4150  146.2480 C   0  0  0  0  0  0  0  0  0  0  0  0
  190.1380  175.8250  144.9420 C   0  0  0  0  0  3  0  0  0  0  0  0
  184.4470  178.2730  144.5360 C   0  0  0  0  0  0  0  0  0  0  0  0
  183.7330  178.9290  145.2960 O   0  0  0  0  0  1  0  0  0  0  0  0
  184.1920  178.1250  143.0820 O   0  0  0  0  0  0  0  0  0  0  0  0
  1  5  1  0  0  0  0
  2 15  1  0  0  0  0
  3 15  2  0  0  0  0
  3  9  1  0  0  0  0
  4 21  1  0  0  0  0
  5  4  2  0  0  0  0
  6  8  2  0  0  0  0
  7  6  1  0  0  0  0
  8  4  1  0  0  0  0
  9 10  1  0  0  0  0
 10  1  2  0  0  0  0
 10  6  1  0  0  0  0
 11  9  2  0  0  0  0
 12  2  1  0  0  0  0
 12 13  1  0  0  0  0
 13 18  1  6  0  0  0
 13 14  1  0  0  0  0
 14 16  1  0  0  0  0
 15 17  1  0  0  0  0
 17  1  1  0  0  0  0
 17 16  2  0  0  0  0
 18 20  2  0  0  0  0
 19 18  2  0  0  0  0
 22 31  2  0  0  0  0
 22 26  1  0  0  0  0
 24 29  1  0  0  0  0
 25 26  1  0  0  0  0
 25 24  2  0  0  0  0
 26 28  2  0  0  0  0
 28 23  1  0  0  0  0
 28 27  1  0  0  0  0
 29 27  2  0  0  0  0
 30 21  1  0  0  0  0
 30 23  2  0  0  0  0
 31 30  1  0  0  0  0
 32 24  1  0  0  0  0
 32 33  1  0  0  0  0
 34 32  2  0  0  0  0
M  END
>  <MODEL>
1

>  <REMARK>
 VINA RESULT:      -8.6      0.000      0.000
  Name = 
  4 active torsions:
  status: ('A' for Active; 'I' for Inactive)
    1  A    between atoms: N_3  and  C_25
    2  A    between atoms: C_7  and  C_11
    3  A    between atoms: C_8  and  O_18
    4  A    between atoms: O_18  and  C_30
                            x       y       z     vdW  Elec       q    Type
                         _______ _______ _______ _____ _____    ______ ____

>  <TORSDO>
F 4

$$$$
=
 OpenBabel11052420243D

 34 38  0  0  1  0  0  0  0  0999 V2000
  192.1070  174.5030  145.1860 C   0  0  0  0  0  0  0  0  0  0  0  0
  193.8150  172.4430  142.7050 C   0  0  0  0  0  2  0  0  0  0  0  0
  194.3450  174.2460  143.8180 N   0  0  0  0  0  0  0  0  0  0  0  0
  190.7900  175.8340  146.7480 C   0  0  0  0  0  0  0  0  0  0  0  0
  190.9440  174.7580  145.8040 C   0  0  0  0  0  3  0  0  0  0  0  0
  193.0930  176.3780  146.4380 C   0  0  0  0  0  0  0  0  0  0  0  0
  194.2390  177.1330  146.8770 N   0  0  0  0  0  1  0  0  0  0  0  0
  191.9350  176.5730  147.1030 C   0  0  0  0  0  3  0  0  0  0  0  0
  194.3050  175.1940  144.7440 C   0  0  0  0  0  0  0  0  0  0  0  0
  193.1970  175.3790  145.4690 C   0  0  0  0  0  0  0  0  0  0  0  0
  195.3460  175.8440  144.9510 O   0  0  0  0  0  0  0  0  0  0  0  0
  193.0920  171.4360  141.9200 C   0  0  0  0  0  2  0  0  0  0  0  0
  192.0530  170.5860  142.7590 C   0  0  1  0  0  3  0  0  0  0  0  0
  191.1790  171.2150  143.5600 C   0  0  0  0  0  2  0  0  0  0  0  0
  193.3760  173.3800  143.5090 C   0  0  0  0  0  0  0  0  0  0  0  0
  191.3320  172.5010  144.2680 C   0  0  0  0  0  3  0  0  0  0  0  0
  192.2120  173.4740  144.1980 C   0  0  0  0  0  0  0  0  0  0  0  0
  191.8420  169.1620  142.3940 N   0  0  0  0  0  0  0  0  0  0  0  0
  192.5950  168.3140  142.8560 O   0  0  0  0  0  0  0  0  0  0  0  0
  190.6960  168.7880  141.6500 O   0  0  0  0  0  0  0  0  0  0  0  0
  189.6040  176.4060  147.2680 O   0  0  0  0  0  0  0  0  0  0  0  0
  186.1380  176.7720  146.0340 C   0  0  0  0  0  3  0  0  0  0  0  0
  188.7680  177.2660  145.2170 C   0  0  0  0  0  3  0  0  0  0  0  0
  185.5860  177.9690  142.6110 C   0  0  0  0  0  0  0  0  0  0  0  0
  185.3470  177.5500  143.9070 C   0  0  0  0  0  3  0  0  0  0  0  0
  186.3890  177.3400  144.7880 C   0  0  0  0  0  0  0  0  0  0  0  0
  188.0430  177.8730  143.0490 C   0  0  0  0  0  3  0  0  0  0  0  0
  187.7120  177.4980  144.3500 C   0  0  0  0  0  0  0  0  0  0  0  0
  186.9610  178.1650  142.1690 C   0  0  0  0  0  3  0  0  0  0  0  0
  188.4960  176.8840  146.5230 C   0  0  0  0  0  0  0  0  0  0  0  0
  187.2190  176.5840  146.9340 C   0  0  0  0  0  3  0  0  0  0  0  0
  184.5000  178.2430  141.6050 C   0  0  0  0  0  0  0  0  0  0  0  0
  184.8450  178.4350  140.4380 O   0  0  0  0  0  0  0  0  0  0  0  0
  183.0900  178.2490  142.0640 O   0  0  0  0  0  1  0  0  0  0  0  0
  1 10  2  0  0  0  0
  1  5  1  0  0  0  0
  2 15  1  0  0  0  0
  3  9  1  0  0  0  0
  4  8  1  0  0  0  0
  4 21  1  0  0  0  0
  5  4  2  0  0  0  0
  6  7  1  0  0  0  0
  6  8  2  0  0  0  0
  9 11  2  0  0  0  0
  9 10  1  0  0  0  0
 10  6  1  0  0  0  0
 12  2  1  0  0  0  0
 12 13  1  0  0  0  0
 13 18  1  6  0  0  0
 13 14  1  0  0  0  0
 14 16  1  0  0  0  0
 15  3  2  0  0  0  0
 15 17  1  0  0  0  0
 17 16  2  0  0  0  0
 17  1  1  0  0  0  0
 18 19  2  0  0  0  0
 20 18  2  0  0  0  0
 22 31  1  0  0  0  0
 23 30  1  0  0  0  0
 24 25  2  0  0  0  0
 25 26  1  0  0  0  0
 26 22  2  0  0  0  0
 27 28  1  0  0  0  0
 28 26  1  0  0  0  0
 28 23  2  0  0  0  0
 29 24  1  0  0  0  0
 29 27  2  0  0  0  0
 30 31  2  0  0  0  0
 30 21  1  0  0  0  0
 32 34  1  0  0  0  0
 32 24  1  0  0  0  0
 33 32  2  0  0  0  0
M  END
>  <MODEL>
2

>  <REMARK>
 VINA RESULT:      -8.6      2.841      3.593
  Name = 
  4 active torsions:
  status: ('A' for Active; 'I' for Inactive)
    1  A    between atoms: N_3  and  C_25
    2  A    between atoms: C_7  and  C_11
    3  A    between atoms: C_8  and  O_18
    4  A    between atoms: O_18  and  C_30
                            x       y       z     vdW  Elec       q    Type
                         _______ _______ _______ _____ _____    ______ ____

>  <TORSDO>
F 4

$$$$
=
 OpenBabel11052420243D

 34 38  0  0  1  0  0  0  0  0999 V2000
  194.8360  173.4220  144.3120 C   0  0  0  0  0  0  0  0  0  0  0  0
  197.5500  171.1030  145.0670 C   0  0  0  0  0  2  0  0  0  0  0  0
  197.4310  173.0360  144.0590 N   0  0  0  0  0  0  0  0  0  0  0  0
  192.9000  174.8090  143.7890 C   0  0  0  0  0  0  0  0  0  0  0  0
  193.5080  173.6050  144.2930 C   0  0  0  0  0  3  0  0  0  0  0  0
  195.0800  175.6700  143.3430 C   0  0  0  0  0  0  0  0  0  0  0  0
  195.8960  176.8020  142.9790 N   0  0  0  0  0  1  0  0  0  0  0  0
  193.7460  175.8650  143.3990 C   0  0  0  0  0  3  0  0  0  0  0  0
  196.9500  174.2080  143.6660 C   0  0  0  0  0  0  0  0  0  0  0  0
  195.6420  174.4640  143.7640 C   0  0  0  0  0  0  0  0  0  0  0  0
  197.7640  175.0640  143.2760 O   0  0  0  0  0  0  0  0  0  0  0  0
  197.2810  169.7330  145.5190 C   0  0  0  0  0  2  0  0  0  0  0  0
  196.1140  169.6210  146.5830 C   0  0  1  0  0  3  0  0  0  0  0  0
  194.9430  170.2330  146.3460 C   0  0  0  0  0  2  0  0  0  0  0  0
  196.7460  172.0230  144.5950 C   0  0  0  0  0  0  0  0  0  0  0  0
  194.6810  171.4600  145.5690 C   0  0  0  0  0  3  0  0  0  0  0  0
  195.4080  172.1870  144.7510 C   0  0  0  0  0  0  0  0  0  0  0  0
  196.2140  168.5830  147.6400 N   0  0  0  0  0  0  0  0  0  0  0  0
  197.3230  168.1970  147.9890 O   0  0  0  0  0  0  0  0  0  0  0  0
  195.0510  168.1670  148.3320 O   0  0  0  0  0  0  0  0  0  0  0  0
  191.5490  175.0530  143.4440 O   0  0  0  0  0  0  0  0  0  0  0  0
  189.1160  175.6810  146.1570 C   0  0  0  0  0  3  0  0  0  0  0  0
  189.6870  176.5250  143.5510 C   0  0  0  0  0  3  0  0  0  0  0  0
  186.3000  177.9450  145.5310 C   0  0  0  0  0  0  0  0  0  0  0  0
  187.1840  177.1030  146.1790 C   0  0  0  0  0  3  0  0  0  0  0  0
  188.3230  176.6470  145.5440 C   0  0  0  0  0  0  0  0  0  0  0  0
  187.6980  177.8020  143.4660 C   0  0  0  0  0  3  0  0  0  0  0  0
  188.5600  176.9960  144.2070 C   0  0  0  0  0  0  0  0  0  0  0  0
  186.5670  178.3330  144.1510 C   0  0  0  0  0  3  0  0  0  0  0  0
  190.5760  175.7120  144.2390 C   0  0  0  0  0  0  0  0  0  0  0  0
  190.2950  175.2410  145.5000 C   0  0  0  0  0  3  0  0  0  0  0  0
  185.0540  178.5020  146.1670 C   0  0  0  0  0  0  0  0  0  0  0  0
  184.1740  178.9230  145.4150 O   0  0  0  0  0  0  0  0  0  0  0  0
  184.9470  178.4970  147.6460 O   0  0  0  0  0  1  0  0  0  0  0  0
  1 17  1  0  0  0  0
  2 12  1  0  0  0  0
  3 15  2  0  0  0  0
  4  5  2  0  0  0  0
  5  1  1  0  0  0  0
  6  8  2  0  0  0  0
  6 10  1  0  0  0  0
  7  6  1  0  0  0  0
  8  4  1  0  0  0  0
  9 10  1  0  0  0  0
  9  3  1  0  0  0  0
 10  1  2  0  0  0  0
 11  9  2  0  0  0  0
 12 13  1  0  0  0  0
 13 18  1  6  0  0  0
 14 13  1  0  0  0  0
 15 17  1  0  0  0  0
 15  2  1  0  0  0  0
 16 14  1  0  0  0  0
 17 16  2  0  0  0  0
 18 19  2  0  0  0  0
 18 20  2  0  0  0  0
 21  4  1  0  0  0  0
 21 30  1  0  0  0  0
 23 28  1  0  0  0  0
 23 30  2  0  0  0  0
 24 32  1  0  0  0  0
 24 25  1  0  0  0  0
 26 22  1  0  0  0  0
 26 25  2  0  0  0  0
 27 29  1  0  0  0  0
 27 28  2  0  0  0  0
 28 26  1  0  0  0  0
 29 24  2  0  0  0  0
 30 31  1  0  0  0  0
 31 22  2  0  0  0  0
 32 34  1  0  0  0  0
 33 32  2  0  0  0  0
M  END
>  <MODEL>
3

>  <REMARK>
 VINA RESULT:      -8.5      1.823      2.425
  Name = 
  4 active torsions:
  status: ('A' for Active; 'I' for Inactive)
    1  A    between atoms: N_3  and  C_25
    2  A    between atoms: C_7  and  C_11
    3  A    between atoms: C_8  and  O_18
    4  A    between atoms: O_18  and  C_30
                            x       y       z     vdW  Elec       q    Type
                         _______ _______ _______ _____ _____    ______ ____

>  <TORSDO>
F 4

$$$$
=
 OpenBabel11052420243D

 34 38  0  0  1  0  0  0  0  0999 V2000
  192.2240  175.5140  143.8440 C   0  0  0  0  0  0  0  0  0  0  0  0
  193.8270  174.5710  140.7050 C   0  0  0  0  0  2  0  0  0  0  0  0
  194.5090  175.5540  142.5320 N   0  0  0  0  0  0  0  0  0  0  0  0
  190.9810  176.1770  145.8340 C   0  0  0  0  0  0  0  0  0  0  0  0
  191.0610  175.6430  144.4990 C   0  0  0  0  0  3  0  0  0  0  0  0
  193.3540  176.4230  145.8310 C   0  0  0  0  0  0  0  0  0  0  0  0
  194.5550  176.6980  146.5810 N   0  0  0  0  0  1  0  0  0  0  0  0
  192.1840  176.4770  146.5020 C   0  0  0  0  0  3  0  0  0  0  0  0
  194.5250  175.9660  143.7920 C   0  0  0  0  0  0  0  0  0  0  0  0
  193.3980  175.9750  144.5100 C   0  0  0  0  0  0  0  0  0  0  0  0
  195.6260  176.2720  144.2850 O   0  0  0  0  0  0  0  0  0  0  0  0
  193.0380  174.1660  139.5360 C   0  0  0  0  0  2  0  0  0  0  0  0
  191.8260  173.2060  139.8760 C   0  0  1  0  0  3  0  0  0  0  0  0
  190.9840  173.5310  140.8690 C   0  0  0  0  0  2  0  0  0  0  0  0
  193.4580  175.0930  141.8480 C   0  0  0  0  0  0  0  0  0  0  0  0
  191.2560  174.3080  142.0940 C   0  0  0  0  0  3  0  0  0  0  0  0
  192.2650  175.0490  142.4920 C   0  0  0  0  0  0  0  0  0  0  0  0
  191.4490  172.1620  138.8890 N   0  0  0  0  0  0  0  0  0  0  0  0
  190.5600  171.3690  139.1750 O   0  0  0  0  0  0  0  0  0  0  0  0
  192.0060  172.1890  137.5870 O   0  0  0  0  0  0  0  0  0  0  0  0
  189.8470  176.6310  146.5500 O   0  0  0  0  0  0  0  0  0  0  0  0
  186.2170  176.7910  145.8610 C   0  0  0  0  0  3  0  0  0  0  0  0
  188.6560  177.4990  144.6860 C   0  0  0  0  0  3  0  0  0  0  0  0
  185.0770  178.0620  142.6150 C   0  0  0  0  0  0  0  0  0  0  0  0
  185.0650  177.5830  143.9120 C   0  0  0  0  0  3  0  0  0  0  0  0
  186.2400  177.4180  144.6180 C   0  0  0  0  0  0  0  0  0  0  0  0
  187.5740  178.1260  142.6790 C   0  0  0  0  0  3  0  0  0  0  0  0
  187.4680  177.6840  143.9960 C   0  0  0  0  0  0  0  0  0  0  0  0
  186.3550  178.3700  141.9830 C   0  0  0  0  0  3  0  0  0  0  0  0
  188.6100  177.0540  146.0000 C   0  0  0  0  0  0  0  0  0  0  0  0
  187.4320  176.6510  146.5820 C   0  0  0  0  0  3  0  0  0  0  0  0
  183.8370  178.2910  141.7940 C   0  0  0  0  0  0  0  0  0  0  0  0
  182.7570  178.2910  142.3870 O   0  0  0  0  0  1  0  0  0  0  0  0
  183.9810  178.5200  140.3360 O   0  0  0  0  0  0  0  0  0  0  0  0
  1  5  2  0  0  0  0
  1 10  1  0  0  0  0
  2 15  1  0  0  0  0
  3  9  1  0  0  0  0
  4  8  2  0  0  0  0
  4 21  1  0  0  0  0
  5  4  1  0  0  0  0
  6  8  1  0  0  0  0
  6  7  1  0  0  0  0
  9 11  2  0  0  0  0
  9 10  1  0  0  0  0
 10  6  2  0  0  0  0
 12 13  1  0  0  0  0
 12  2  1  0  0  0  0
 13 18  1  6  0  0  0
 13 14  1  0  0  0  0
 14 16  1  0  0  0  0
 15 17  1  0  0  0  0
 15  3  2  0  0  0  0
 16 17  2  0  0  0  0
 17  1  1  0  0  0  0
 18 19  2  0  0  0  0
 20 18  2  0  0  0  0
 22 31  1  0  0  0  0
 23 30  1  0  0  0  0
 24 25  2  0  0  0  0
 25 26  1  0  0  0  0
 26 22  2  0  0  0  0
 27 28  1  0  0  0  0
 28 26  1  0  0  0  0
 28 23  2  0  0  0  0
 29 24  1  0  0  0  0
 29 27  2  0  0  0  0
 30 21  1  0  0  0  0
 30 31  2  0  0  0  0
 32 33  1  0  0  0  0
 32 24  1  0  0  0  0
 34 32  2  0  0  0  0
M  END
>  <MODEL>
4

>  <REMARK>
 VINA RESULT:      -8.4      3.543      4.626
  Name = 
  4 active torsions:
  status: ('A' for Active; 'I' for Inactive)
    1  A    between atoms: N_3  and  C_25
    2  A    between atoms: C_7  and  C_11
    3  A    between atoms: C_8  and  O_18
    4  A    between atoms: O_18  and  C_30
                            x       y       z     vdW  Elec       q    Type
                         _______ _______ _______ _____ _____    ______ ____

>  <TORSDO>
F 4

$$$$
=
 OpenBabel11052420243D

 34 38  0  0  1  0  0  0  0  0999 V2000
  191.1890  176.5870  144.7110 C   0  0  0  0  0  0  0  0  0  0  0  0
  194.3940  175.5030  146.0750 C   0  0  0  0  0  2  0  0  0  0  0  0
  192.3720  175.6690  146.8800 N   0  0  0  0  0  0  0  0  0  0  0  0
  189.1500  177.4450  143.6850 C   0  0  0  0  0  0  0  0  0  0  0  0
  190.5650  177.1810  143.6830 C   0  0  0  0  0  3  0  0  0  0  0  0
  189.0080  176.4340  145.8420 C   0  0  0  0  0  0  0  0  0  0  0  0
  188.1710  175.9210  146.8980 N   0  0  0  0  0  1  0  0  0  0  0  0
  188.3870  176.9670  144.7680 C   0  0  0  0  0  3  0  0  0  0  0  0
  191.0520  175.7940  146.9150 C   0  0  0  0  0  0  0  0  0  0  0  0
  190.3930  176.2590  145.8490 C   0  0  0  0  0  0  0  0  0  0  0  0
  190.4620  175.4030  147.9380 O   0  0  0  0  0  0  0  0  0  0  0  0
  195.6530  175.7650  145.3680 C   0  0  0  0  0  2  0  0  0  0  0  0
  195.5790  175.5230  143.8050 C   0  0  1  0  0  3  0  0  0  0  0  0
  194.5710  176.0600  143.1000 C   0  0  0  0  0  2  0  0  0  0  0  0
  193.1790  175.9380  145.8510 C   0  0  0  0  0  0  0  0  0  0  0  0
  193.1960  176.3650  143.5390 C   0  0  0  0  0  3  0  0  0  0  0  0
  192.6070  176.4030  144.7130 C   0  0  0  0  0  0  0  0  0  0  0  0
  196.7850  175.0050  143.1090 N   0  0  0  0  0  0  0  0  0  0  0  0
  197.7720  175.7230  143.0200 O   0  0  0  0  0  0  0  0  0  0  0  0
  196.8340  173.6500  142.6990 O   0  0  0  0  0  0  0  0  0  0  0  0
  188.3950  178.2880  142.8340 O   0  0  0  0  0  0  0  0  0  0  0  0
  185.5260  177.9190  140.5300 C   0  0  0  0  0  3  0  0  0  0  0  0
  186.0610  178.5140  143.2110 C   0  0  0  0  0  3  0  0  0  0  0  0
  182.1530  178.6700  141.7580 C   0  0  0  0  0  0  0  0  0  0  0  0
  183.1870  178.2630  140.9360 C   0  0  0  0  0  3  0  0  0  0  0  0
  184.4810  178.1810  141.4120 C   0  0  0  0  0  0  0  0  0  0  0  0
  183.7890  179.0340  143.6110 C   0  0  0  0  0  3  0  0  0  0  0  0
  184.7620  178.5680  142.7290 C   0  0  0  0  0  0  0  0  0  0  0  0
  182.4440  179.0410  143.1370 C   0  0  0  0  0  3  0  0  0  0  0  0
  187.0720  178.0650  142.3750 C   0  0  0  0  0  0  0  0  0  0  0  0
  186.8470  177.8160  141.0420 C   0  0  0  0  0  3  0  0  0  0  0  0
  180.7160  178.7590  141.3170 C   0  0  0  0  0  0  0  0  0  0  0  0
  180.4170  179.6670  140.5390 O   0  0  0  0  0  0  0  0  0  0  0  0
  179.7530  177.7510  141.8220 O   0  0  0  0  0  1  0  0  0  0  0  0
  1 17  1  0  0  0  0
  1 10  1  0  0  0  0
  3  9  1  0  0  0  0
  4  8  2  0  0  0  0
  5  4  1  0  0  0  0
  5  1  2  0  0  0  0
  6 10  2  0  0  0  0
  6  7  1  0  0  0  0
  8  6  1  0  0  0  0
  9 11  2  0  0  0  0
 10  9  1  0  0  0  0
 12  2  1  0  0  0  0
 13 18  1  6  0  0  0
 13 12  1  0  0  0  0
 14 16  1  0  0  0  0
 14 13  1  0  0  0  0
 15  2  1  0  0  0  0
 15  3  2  0  0  0  0
 16 17  2  0  0  0  0
 17 15  1  0  0  0  0
 19 18  2  0  0  0  0
 20 18  2  0  0  0  0
 21  4  1  0  0  0  0
 22 31  2  0  0  0  0
 22 26  1  0  0  0  0
 24 29  1  0  0  0  0
 25 26  1  0  0  0  0
 25 24  2  0  0  0  0
 26 28  2  0  0  0  0
 28 23  1  0  0  0  0
 28 27  1  0  0  0  0
 29 27  2  0  0  0  0
 30 21  1  0  0  0  0
 30 23  2  0  0  0  0
 31 30  1  0  0  0  0
 32 24  1  0  0  0  0
 32 34  1  0  0  0  0
 33 32  2  0  0  0  0
M  END
>  <MODEL>
5

>  <REMARK>
 VINA RESULT:      -8.2      3.177      5.447
  Name = 
  4 active torsions:
  status: ('A' for Active; 'I' for Inactive)
    1  A    between atoms: N_3  and  C_25
    2  A    between atoms: C_7  and  C_11
    3  A    between atoms: C_8  and  O_18
    4  A    between atoms: O_18  and  C_30
                            x       y       z     vdW  Elec       q    Type
                         _______ _______ _______ _____ _____    ______ ____

>  <TORSDO>
F 4

$$$$
=
 OpenBabel11052420243D

 34 38  0  0  1  0  0  0  0  0999 V2000
  193.5260  174.9560  142.4750 C   0  0  0  0  0  0  0  0  0  0  0  0
  193.1850  174.1020  138.9440 C   0  0  0  0  0  2  0  0  0  0  0  0
  194.5480  175.3730  140.0820 N   0  0  0  0  0  0  0  0  0  0  0  0
  193.5510  175.5100  144.8500 C   0  0  0  0  0  0  0  0  0  0  0  0
  192.9650  174.8870  143.6910 C   0  0  0  0  0  3  0  0  0  0  0  0
  195.3510  176.2670  143.4780 C   0  0  0  0  0  0  0  0  0  0  0  0
  196.6600  176.8640  143.4010 N   0  0  0  0  0  1  0  0  0  0  0  0
  194.8090  176.1250  144.7060 C   0  0  0  0  0  3  0  0  0  0  0  0
  195.1940  175.8920  141.1170 C   0  0  0  0  0  0  0  0  0  0  0  0
  194.7240  175.7210  142.3560 C   0  0  0  0  0  0  0  0  0  0  0  0
  196.2700  176.4750  140.8930 O   0  0  0  0  0  0  0  0  0  0  0  0
  191.9850  173.4290  138.4330 C   0  0  0  0  0  2  0  0  0  0  0  0
  191.4530  172.2640  139.3630 C   0  0  1  0  0  3  0  0  0  0  0  0
  191.2930  172.4860  140.6760 C   0  0  0  0  0  2  0  0  0  0  0  0
  193.4360  174.6340  140.1140 C   0  0  0  0  0  0  0  0  0  0  0  0
  192.0350  173.4120  141.5540 C   0  0  0  0  0  3  0  0  0  0  0  0
  192.8850  174.3890  141.3290 C   0  0  0  0  0  0  0  0  0  0  0  0
  190.8280  171.0760  138.7250 N   0  0  0  0  0  0  0  0  0  0  0  0
  190.6720  170.0600  139.3890 O   0  0  0  0  0  0  0  0  0  0  0  0
  190.2870  171.1800  137.4200 O   0  0  0  0  0  0  0  0  0  0  0  0
  192.9720  175.7690  146.1150 O   0  0  0  0  0  0  0  0  0  0  0  0
  189.4900  175.2940  147.2670 C   0  0  0  0  0  3  0  0  0  0  0  0
  190.9570  176.8410  145.4550 C   0  0  0  0  0  3  0  0  0  0  0  0
  186.7980  177.1480  145.6030 C   0  0  0  0  0  0  0  0  0  0  0  0
  187.4700  176.3290  146.4920 C   0  0  0  0  0  3  0  0  0  0  0  0
  188.8480  176.2390  146.4710 C   0  0  0  0  0  0  0  0  0  0  0  0
  188.9760  177.7550  144.5400 C   0  0  0  0  0  3  0  0  0  0  0  0
  189.5750  176.9430  145.5020 C   0  0  0  0  0  0  0  0  0  0  0  0
  187.5610  177.9050  144.6180 C   0  0  0  0  0  3  0  0  0  0  0  0
  191.6060  176.0410  146.3840 C   0  0  0  0  0  0  0  0  0  0  0  0
  190.9080  175.2320  147.2490 C   0  0  0  0  0  3  0  0  0  0  0  0
  185.3030  177.3170  145.5840 C   0  0  0  0  0  0  0  0  0  0  0  0
  184.6800  176.9720  146.5890 O   0  0  0  0  0  1  0  0  0  0  0  0
  184.6680  177.8990  144.3760 O   0  0  0  0  0  0  0  0  0  0  0  0
  1  5  1  0  0  0  0
  2 15  1  0  0  0  0
  3 15  2  0  0  0  0
  3  9  1  0  0  0  0
  4 21  1  0  0  0  0
  5  4  2  0  0  0  0
  6  8  2  0  0  0  0
  7  6  1  0  0  0  0
  8  4  1  0  0  0  0
  9 10  1  0  0  0  0
 10  1  2  0  0  0  0
 10  6  1  0  0  0  0
 11  9  2  0  0  0  0
 12  2  1  0  0  0  0
 12 13  1  0  0  0  0
 13 18  1  6  0  0  0
 13 14  1  0  0  0  0
 14 16  1  0  0  0  0
 15 17  1  0  0  0  0
 17 16  2  0  0  0  0
 17  1  1  0  0  0  0
 18 19  2  0  0  0  0
 20 18  2  0  0  0  0
 21 30  1  0  0  0  0
 23 28  2  0  0  0  0
 23 30  1  0  0  0  0
 24 25  2  0  0  0  0
 26 25  1  0  0  0  0
 26 22  2  0  0  0  0
 27 29  2  0  0  0  0
 27 28  1  0  0  0  0
 28 26  1  0  0  0  0
 29 24  1  0  0  0  0
 30 31  2  0  0  0  0
 31 22  1  0  0  0  0
 32 24  1  0  0  0  0
 32 33  1  0  0  0  0
 34 32  2  0  0  0  0
M  END
>  <MODEL>
6

>  <REMARK>
 VINA RESULT:      -8.2      4.147      4.784
  Name = 
  4 active torsions:
  status: ('A' for Active; 'I' for Inactive)
    1  A    between atoms: N_3  and  C_25
    2  A    between atoms: C_7  and  C_11
    3  A    between atoms: C_8  and  O_18
    4  A    between atoms: O_18  and  C_30
                            x       y       z     vdW  Elec       q    Type
                         _______ _______ _______ _____ _____    ______ ____

>  <TORSDO>
F 4

$$$$
=
 OpenBabel11052420243D

 34 38  0  0  1  0  0  0  0  0999 V2000
  186.6460  177.3200  144.2460 C   0  0  0  0  0  0  0  0  0  0  0  0
  184.7110  178.2760  141.3040 C   0  0  0  0  0  2  0  0  0  0  0  0
  184.6250  178.7980  143.4220 N   0  0  0  0  0  0  0  0  0  0  0  0
  187.9630  176.4960  146.1260 C   0  0  0  0  0  0  0  0  0  0  0  0
  187.5740  176.4870  144.7390 C   0  0  0  0  0  3  0  0  0  0  0  0
  186.4290  178.2860  146.4980 C   0  0  0  0  0  0  0  0  0  0  0  0
  185.9410  179.3120  147.3860 N   0  0  0  0  0  1  0  0  0  0  0  0
  187.4160  177.4890  146.9610 C   0  0  0  0  0  3  0  0  0  0  0  0
  184.9980  178.9300  144.6880 C   0  0  0  0  0  0  0  0  0  0  0  0
  186.0130  178.2040  145.1680 C   0  0  0  0  0  0  0  0  0  0  0  0
  184.4180  179.7900  145.3740 O   0  0  0  0  0  0  0  0  0  0  0  0
  184.8280  177.5400  140.0400 C   0  0  0  0  0  2  0  0  0  0  0  0
  186.3140  177.1540  139.6530 C   0  0  1  0  0  3  0  0  0  0  0  0
  187.1040  176.5670  140.5650 C   0  0  0  0  0  2  0  0  0  0  0  0
  185.1780  178.0080  142.4980 C   0  0  0  0  0  0  0  0  0  0  0  0
  187.0790  176.7050  142.0350 C   0  0  0  0  0  3  0  0  0  0  0  0
  186.2270  177.2380  142.8810 C   0  0  0  0  0  0  0  0  0  0  0  0
  186.6910  177.1350  138.2160 N   0  0  0  0  0  0  0  0  0  0  0  0
  187.4410  178.0040  137.7890 O   0  0  0  0  0  0  0  0  0  0  0  0
  186.3100  176.0410  137.4020 O   0  0  0  0  0  0  0  0  0  0  0  0
  188.6980  175.5320  146.8560 O   0  0  0  0  0  0  0  0  0  0  0  0
  192.2480  176.4550  147.3260 C   0  0  0  0  0  3  0  0  0  0  0  0
  190.6860  174.5360  146.0190 C   0  0  0  0  0  3  0  0  0  0  0  0
  194.8270  174.5890  145.5040 C   0  0  0  0  0  0  0  0  0  0  0  0
  194.2200  175.4790  146.3710 C   0  0  0  0  0  3  0  0  0  0  0  0
  192.8540  175.4540  146.5710 C   0  0  0  0  0  0  0  0  0  0  0  0
  192.5850  173.6540  144.9190 C   0  0  0  0  0  3  0  0  0  0  0  0
  192.0620  174.5540  145.8460 C   0  0  0  0  0  0  0  0  0  0  0  0
  194.0030  173.6310  144.7770 C   0  0  0  0  0  3  0  0  0  0  0  0
  190.1100  175.4150  146.9240 C   0  0  0  0  0  0  0  0  0  0  0  0
  190.8460  176.4010  147.5390 C   0  0  0  0  0  3  0  0  0  0  0  0
  196.3110  174.5400  145.2560 C   0  0  0  0  0  0  0  0  0  0  0  0
  196.7530  175.2210  144.3300 O   0  0  0  0  0  0  0  0  0  0  0  0
  197.1520  173.6970  146.1400 O   0  0  0  0  0  1  0  0  0  0  0  0
  1  5  2  0  0  0  0
  1 10  1  0  0  0  0
  2 15  1  0  0  0  0
  3  9  1  0  0  0  0
  4 21  1  0  0  0  0
  4  8  2  0  0  0  0
  5  4  1  0  0  0  0
  6  8  1  0  0  0  0
  6  7  1  0  0  0  0
  9 10  1  0  0  0  0
  9 11  2  0  0  0  0
 10  6  2  0  0  0  0
 12  2  1  0  0  0  0
 13 18  1  6  0  0  0
 13 12  1  0  0  0  0
 13 14  1  0  0  0  0
 14 16  1  0  0  0  0
 15 17  1  0  0  0  0
 15  3  2  0  0  0  0
 16 17  2  0  0  0  0
 17  1  1  0  0  0  0
 19 18  2  0  0  0  0
 20 18  2  0  0  0  0
 21 30  1  0  0  0  0
 22 31  1  0  0  0  0
 23 30  1  0  0  0  0
 24 25  2  0  0  0  0
 25 26  1  0  0  0  0
 26 22  2  0  0  0  0
 27 28  1  0  0  0  0
 28 23  2  0  0  0  0
 28 26  1  0  0  0  0
 29 27  2  0  0  0  0
 29 24  1  0  0  0  0
 30 31  2  0  0  0  0
 32 24  1  0  0  0  0
 32 34  1  0  0  0  0
 33 32  2  0  0  0  0
M  END
>  <MODEL>
7

>  <REMARK>
 VINA RESULT:      -8.2      4.246     10.279
  Name = 
  4 active torsions:
  status: ('A' for Active; 'I' for Inactive)
    1  A    between atoms: N_3  and  C_25
    2  A    between atoms: C_7  and  C_11
    3  A    between atoms: C_8  and  O_18
    4  A    between atoms: O_18  and  C_30
                            x       y       z     vdW  Elec       q    Type
                         _______ _______ _______ _____ _____    ______ ____

>  <TORSDO>
F 4

$$$$
=
 OpenBabel11052420243D

 34 38  0  0  1  0  0  0  0  0999 V2000
  194.2080  174.6270  145.3730 C   0  0  0  0  0  0  0  0  0  0  0  0
  196.2310  172.3920  143.3170 C   0  0  0  0  0  2  0  0  0  0  0  0
  196.1410  174.5570  143.5830 N   0  0  0  0  0  0  0  0  0  0  0  0
  192.7030  175.9880  146.7260 C   0  0  0  0  0  0  0  0  0  0  0  0
  193.1420  174.7290  146.1800 C   0  0  0  0  0  3  0  0  0  0  0  0
  194.5220  177.0560  145.6110 C   0  0  0  0  0  0  0  0  0  0  0  0
  195.3170  178.2450  145.4340 N   0  0  0  0  0  1  0  0  0  0  0  0
  193.4910  177.1280  146.4780 C   0  0  0  0  0  3  0  0  0  0  0  0
  195.8550  175.7340  144.1220 C   0  0  0  0  0  0  0  0  0  0  0  0
  194.8810  175.8370  145.0320 C   0  0  0  0  0  0  0  0  0  0  0  0
  196.5640  176.7050  143.7990 O   0  0  0  0  0  0  0  0  0  0  0  0
  195.8710  170.9790  143.1430 C   0  0  0  0  0  2  0  0  0  0  0  0
  195.3940  170.2660  144.4730 C   0  0  1  0  0  3  0  0  0  0  0  0
  194.4630  170.8540  145.2410 C   0  0  0  0  0  2  0  0  0  0  0  0
  195.5710  173.3830  143.8640 C   0  0  0  0  0  0  0  0  0  0  0  0
  194.1840  172.2920  145.4170 C   0  0  0  0  0  3  0  0  0  0  0  0
  194.5780  173.3760  144.7870 C   0  0  0  0  0  0  0  0  0  0  0  0
  195.7240  168.8310  144.6670 N   0  0  0  0  0  0  0  0  0  0  0  0
  195.1670  168.2100  145.5630 O   0  0  0  0  0  0  0  0  0  0  0  0
  196.5520  168.1660  143.7290 O   0  0  0  0  0  0  0  0  0  0  0  0
  191.4740  176.3130  147.3480 O   0  0  0  0  0  0  0  0  0  0  0  0
  187.9110  176.2860  146.3610 C   0  0  0  0  0  3  0  0  0  0  0  0
  190.3950  177.1400  145.4000 C   0  0  0  0  0  3  0  0  0  0  0  0
  186.9750  177.5370  143.0420 C   0  0  0  0  0  0  0  0  0  0  0  0
  186.8820  177.0410  144.3290 C   0  0  0  0  0  3  0  0  0  0  0  0
  188.0020  176.9300  145.1300 C   0  0  0  0  0  0  0  0  0  0  0  0
  189.4510  177.7350  143.3150 C   0  0  0  0  0  3  0  0  0  0  0  0
  189.2600  177.2710  144.6150 C   0  0  0  0  0  0  0  0  0  0  0  0
  188.2820  177.9230  142.5220 C   0  0  0  0  0  3  0  0  0  0  0  0
  190.2660  176.6760  146.7000 C   0  0  0  0  0  0  0  0  0  0  0  0
  189.0670  176.2010  147.1790 C   0  0  0  0  0  3  0  0  0  0  0  0
  185.7960  177.7110  142.1230 C   0  0  0  0  0  0  0  0  0  0  0  0
  186.0100  177.6570  140.9110 O   0  0  0  0  0  0  0  0  0  0  0  0
  184.4540  177.9170  142.7190 O   0  0  0  0  0  1  0  0  0  0  0  0
  1  5  1  0  0  0  0
  2 15  1  0  0  0  0
  3 15  2  0  0  0  0
  3  9  1  0  0  0  0
  4 21  1  0  0  0  0
  5  4  2  0  0  0  0
  6  8  2  0  0  0  0
  7  6  1  0  0  0  0
  8  4  1  0  0  0  0
  9 10  1  0  0  0  0
 10  1  2  0  0  0  0
 10  6  1  0  0  0  0
 11  9  2  0  0  0  0
 12  2  1  0  0  0  0
 12 13  1  0  0  0  0
 13 18  1  6  0  0  0
 13 14  1  0  0  0  0
 14 16  1  0  0  0  0
 15 17  1  0  0  0  0
 17  1  1  0  0  0  0
 17 16  2  0  0  0  0
 18 19  2  0  0  0  0
 20 18  2  0  0  0  0
 22 31  1  0  0  0  0
 23 30  1  0  0  0  0
 24 25  2  0  0  0  0
 25 26  1  0  0  0  0
 26 22  2  0  0  0  0
 27 28  1  0  0  0  0
 28 26  1  0  0  0  0
 28 23  2  0  0  0  0
 29 24  1  0  0  0  0
 29 27  2  0  0  0  0
 30 31  2  0  0  0  0
 30 21  1  0  0  0  0
 32 34  1  0  0  0  0
 32 24  1  0  0  0  0
 33 32  2  0  0  0  0
M  END
>  <MODEL>
8

>  <REMARK>
 VINA RESULT:      -8.2      1.347      2.128
  Name = 
  4 active torsions:
  status: ('A' for Active; 'I' for Inactive)
    1  A    between atoms: N_3  and  C_25
    2  A    between atoms: C_7  and  C_11
    3  A    between atoms: C_8  and  O_18
    4  A    between atoms: O_18  and  C_30
                            x       y       z     vdW  Elec       q    Type
                         _______ _______ _______ _____ _____    ______ ____

>  <TORSDO>
F 4

$$$$
=
 OpenBabel11052420243D

 34 38  0  0  1  0  0  0  0  0999 V2000
  187.7060  175.8610  141.9750 C   0  0  0  0  0  0  0  0  0  0  0  0
  186.0120  178.9550  142.9070 C   0  0  0  0  0  2  0  0  0  0  0  0
  186.5550  178.0250  141.0080 N   0  0  0  0  0  0  0  0  0  0  0  0
  188.9500  173.8130  141.5220 C   0  0  0  0  0  0  0  0  0  0  0  0
  188.4190  174.8130  142.4120 C   0  0  0  0  0  3  0  0  0  0  0  0
  187.9600  174.9800  139.6920 C   0  0  0  0  0  0  0  0  0  0  0  0
  187.6060  174.9860  138.2940 N   0  0  0  0  0  1  0  0  0  0  0  0
  188.6140  173.8950  140.1580 C   0  0  0  0  0  3  0  0  0  0  0  0
  186.9300  177.0960  140.1380 C   0  0  0  0  0  0  0  0  0  0  0  0
  187.5240  175.9780  140.5650 C   0  0  0  0  0  0  0  0  0  0  0  0
  186.6470  177.2790  138.9400 O   0  0  0  0  0  0  0  0  0  0  0  0
  186.0360  179.4540  144.2870 C   0  0  0  0  0  2  0  0  0  0  0  0
  185.8300  178.3300  145.3830 C   0  0  1  0  0  3  0  0  0  0  0  0
  186.5580  177.2050  145.3210 C   0  0  0  0  0  2  0  0  0  0  0  0
  186.6740  177.9790  142.3370 C   0  0  0  0  0  0  0  0  0  0  0  0
  187.1160  176.5290  144.1340 C   0  0  0  0  0  3  0  0  0  0  0  0
  187.2540  176.8770  142.8740 C   0  0  0  0  0  0  0  0  0  0  0  0
  185.0980  178.6790  146.6280 N   0  0  0  0  0  0  0  0  0  0  0  0
  183.9670  178.2390  146.7940 O   0  0  0  0  0  0  0  0  0  0  0  0
  185.7630  179.3790  147.6640 O   0  0  0  0  0  0  0  0  0  0  0  0
  189.9300  172.8230  141.7710 O   0  0  0  0  0  0  0  0  0  0  0  0
  192.7030  173.3810  144.1530 C   0  0  0  0  0  3  0  0  0  0  0  0
  192.0770  173.7910  141.4570 C   0  0  0  0  0  3  0  0  0  0  0  0
  195.6870  175.1870  143.0170 C   0  0  0  0  0  0  0  0  0  0  0  0
  194.8170  174.4630  143.8110 C   0  0  0  0  0  3  0  0  0  0  0  0
  193.6310  173.9720  143.3000 C   0  0  0  0  0  0  0  0  0  0  0  0
  194.0700  175.0180  141.1190 C   0  0  0  0  0  3  0  0  0  0  0  0
  193.2750  174.2570  141.9740 C   0  0  0  0  0  0  0  0  0  0  0  0
  195.3280  175.4530  141.6290 C   0  0  0  0  0  3  0  0  0  0  0  0
  191.2420  173.0340  142.2670 C   0  0  0  0  0  0  0  0  0  0  0  0
  191.5010  172.8620  143.6060 C   0  0  0  0  0  3  0  0  0  0  0  0
  197.0050  175.7310  143.4970 C   0  0  0  0  0  0  0  0  0  0  0  0
  197.7760  174.9430  144.0480 O   0  0  0  0  0  1  0  0  0  0  0  0
  197.3110  177.1640  143.2670 O   0  0  0  0  0  0  0  0  0  0  0  0
  1  5  1  0  0  0  0
  1 17  1  0  0  0  0
  2 12  1  0  0  0  0
  3 15  2  0  0  0  0
  4 21  1  0  0  0  0
  4  5  2  0  0  0  0
  6  8  2  0  0  0  0
  6 10  1  0  0  0  0
  7  6  1  0  0  0  0
  8  4  1  0  0  0  0
  9 10  1  0  0  0  0
  9  3  1  0  0  0  0
 10  1  2  0  0  0  0
 11  9  2  0  0  0  0
 12 13  1  0  0  0  0
 13 18  1  1  0  0  0
 14 13  1  0  0  0  0
 15 17  1  0  0  0  0
 15  2  1  0  0  0  0
 16 14  1  0  0  0  0
 17 16  2  0  0  0  0
 18 19  2  0  0  0  0
 18 20  2  0  0  0  0
 21 30  1  0  0  0  0
 23 28  2  0  0  0  0
 23 30  1  0  0  0  0
 24 32  1  0  0  0  0
 24 25  2  0  0  0  0
 26 25  1  0  0  0  0
 26 22  2  0  0  0  0
 27 29  2  0  0  0  0
 27 28  1  0  0  0  0
 28 26  1  0  0  0  0
 29 24  1  0  0  0  0
 30 31  2  0  0  0  0
 31 22  1  0  0  0  0
 32 33  1  0  0  0  0
 34 32  2  0  0  0  0
M  END
>  <MODEL>
9

>  <REMARK>
 VINA RESULT:      -8.1      4.548     10.537
  Name = 
  4 active torsions:
  status: ('A' for Active; 'I' for Inactive)
    1  A    between atoms: N_3  and  C_25
    2  A    between atoms: C_7  and  C_11
    3  A    between atoms: C_8  and  O_18
    4  A    between atoms: O_18  and  C_30
                            x       y       z     vdW  Elec       q    Type
                         _______ _______ _______ _____ _____    ______ ____

>  <TORSDO>
F 4

$$$$
