=
 OpenBabel11052418023D

 28 30  0  0  1  0  0  0  0  0999 V2000
  187.1810  177.9900  142.4960 C   0  0  0  0  0  3  0  0  0  0  0  0
  186.7670  177.7630  145.2940 C   0  0  2  0  0  3  0  0  0  0  0  0
  186.0850  178.7240  143.2020 C   0  0  0  0  0  2  0  0  0  0  0  0
  186.4570  179.0140  144.5880 N   0  0  0  0  0  2  0  0  0  0  0  0
  188.0150  177.1680  143.1470 C   0  0  0  0  0  0  0  0  0  0  0  0
  187.9510  177.0280  144.6500 C   0  0  1  0  0  3  0  0  0  0  0  0
  184.5630  177.4760  146.1740 O   0  0  0  0  0  1  0  0  0  0  0  0
  185.5490  176.8530  145.4110 C   0  0  0  0  0  2  0  0  0  0  0  0
  189.0010  176.4370  142.4630 O   0  0  0  0  0  0  0  0  0  0  0  0
  188.7840  175.2720  141.6610 C   0  0  2  0  0  3  0  0  0  0  0  0
  189.3930  172.9640  142.0240 C   0  0  1  0  0  3  0  0  0  0  0  0
  187.6090  174.5970  142.0450 O   0  0  0  0  0  0  0  0  0  0  0  0
  191.0710  174.5920  141.6070 O   0  0  0  0  0  0  0  0  0  0  0  0
  189.8950  174.3110  141.7740 C   0  0  0  0  0  0  0  0  0  0  0  0
  189.8200  172.4910  143.4010 C   0  0  0  0  0  1  0  0  0  0  0  0
  187.8920  173.2070  142.0050 C   0  0  0  0  0  2  0  0  0  0  0  0
  189.2500  177.5190  145.2750 C   0  0  0  0  0  2  0  0  0  0  0  0
  190.0350  176.4070  145.9800 C   0  0  2  0  0  3  0  0  0  0  0  0
  191.9290  176.4220  144.4370 C   0  0  0  0  0  3  0  0  0  0  0  0
  192.5130  176.2360  146.8590 C   0  0  2  0  0  3  0  0  0  0  0  0
  194.2630  175.8320  145.1210 C   0  0  2  0  0  3  0  0  0  0  0  0
  191.5210  176.3950  145.7200 C   0  0  0  0  0  0  0  0  0  0  0  0
  193.9570  176.5210  146.4440 C   0  0  0  0  0  2  0  0  0  0  0  0
  192.4350  174.9580  147.3820 F   0  0  0  0  0  0  0  0  0  0  0  0
  195.6040  176.0290  144.7910 O   0  0  0  0  0  1  0  0  0  0  0  0
  193.3800  176.4400  144.0390 C   0  0  0  0  0  2  0  0  0  0  0  0
  189.0170  174.5920  147.4500 C   0  0  0  0  0  1  0  0  0  0  0  0
  189.3430  175.0410  146.0360 C   0  0  0  0  0  2  0  0  0  0  0  0
  1  5  2  0  0  0  0
  1  3  1  0  0  0  0
  2  8  1  6  0  0  0
  3  4  1  0  0  0  0
  4  2  1  0  0  0  0
  5  6  1  0  0  0  0
  6 17  1  1  0  0  0
  6  2  1  0  0  0  0
  8  7  1  0  0  0  0
  9  5  1  0  0  0  0
 10 14  1  0  0  0  0
 10 12  1  0  0  0  0
 10  9  1  1  0  0  0
 11 15  1  1  0  0  0
 13 14  2  0  0  0  0
 14 11  1  0  0  0  0
 16 11  1  0  0  0  0
 16 12  1  0  0  0  0
 18 17  1  6  0  0  0
 18 28  1  0  0  0  0
 19 22  2  0  0  0  0
 20 24  1  6  0  0  0
 21 25  1  6  0  0  0
 21 23  1  0  0  0  0
 22 18  1  0  0  0  0
 22 20  1  0  0  0  0
 23 20  1  0  0  0  0
 26 19  1  0  0  0  0
 26 21  1  0  0  0  0
 28 27  1  0  0  0  0
M  END
>  <MODEL>
1

>  <REMARK>
 VINA RESULT:      -6.9      0.000      0.000
  Name = 
  7 active torsions:
  status: ('A' for Active; 'I' for Inactive)
    1  A    between atoms: O_2  and  C_3
    2  A    between atoms: O_2  and  C_26
    3  A    between atoms: C_10  and  C_13
    4  A    between atoms: C_10  and  C_17
    5  A    between atoms: C_10  and  C_25
    6  A    between atoms: CA_16  and  C_20
    7  A    between atoms: C_17  and  C_27
                            x       y       z     vdW  Elec       q    Type
                         _______ _______ _______ _____ _____    ______ ____

>  <TORSDO>
F 7

$$$$
=
 OpenBabel11052418023D

 28 30  0  0  1  0  0  0  0  0999 V2000
  186.4990  176.9260  141.5800 C   0  0  0  0  0  3  0  0  0  0  0  0
  185.8150  178.6600  143.7190 C   0  0  2  0  0  3  0  0  0  0  0  0
  185.7330  178.1940  141.3650 C   0  0  0  0  0  2  0  0  0  0  0  0
  186.0820  179.1930  142.3760 N   0  0  0  0  0  2  0  0  0  0  0  0
  186.8860  176.5310  142.8000 C   0  0  0  0  0  0  0  0  0  0  0  0
  186.6550  177.4090  144.0100 C   0  0  1  0  0  3  0  0  0  0  0  0
  183.9690  178.7880  145.2330 O   0  0  0  0  0  1  0  0  0  0  0  0
  184.3310  178.3930  143.9460 C   0  0  0  0  0  2  0  0  0  0  0  0
  187.5500  175.3090  142.9960 O   0  0  0  0  0  0  0  0  0  0  0  0
  188.2780  174.5750  142.0060 C   0  0  2  0  0  3  0  0  0  0  0  0
  190.3440  173.3360  142.1560 C   0  0  1  0  0  3  0  0  0  0  0  0
  187.9330  173.2100  142.0240 O   0  0  0  0  0  0  0  0  0  0  0  0
  190.3520  175.7030  142.3530 O   0  0  0  0  0  0  0  0  0  0  0  0
  189.7330  174.6590  142.2180 C   0  0  0  0  0  0  0  0  0  0  0  0
  190.9150  172.9560  143.5090 C   0  0  0  0  0  1  0  0  0  0  0  0
  189.1310  172.4720  141.8460 C   0  0  0  0  0  2  0  0  0  0  0  0
  187.9900  177.8260  144.6120 C   0  0  0  0  0  2  0  0  0  0  0  0
  188.2210  177.2510  146.0130 C   0  0  2  0  0  3  0  0  0  0  0  0
  190.5910  177.0480  145.4560 C   0  0  0  0  0  3  0  0  0  0  0  0
  189.7770  175.5310  147.2660 C   0  0  2  0  0  3  0  0  0  0  0  0
  192.0380  175.1710  146.2630 C   0  0  2  0  0  3  0  0  0  0  0  0
  189.5830  176.6440  146.2500 C   0  0  0  0  0  0  0  0  0  0  0  0
  191.2470  175.2370  147.5630 C   0  0  0  0  0  2  0  0  0  0  0  0
  189.1620  174.3730  146.8250 F   0  0  0  0  0  0  0  0  0  0  0  0
  193.3590  174.8220  146.5370 O   0  0  0  0  0  1  0  0  0  0  0  0
  192.0020  176.5420  145.6000 C   0  0  0  0  0  2  0  0  0  0  0  0
  186.2280  177.3700  147.5960 C   0  0  0  0  0  1  0  0  0  0  0  0
  187.0300  176.5120  146.6320 C   0  0  0  0  0  2  0  0  0  0  0  0
  1  5  2  0  0  0  0
  2  8  1  6  0  0  0
  2  6  1  0  0  0  0
  3  1  1  0  0  0  0
  3  4  1  0  0  0  0
  4  2  1  0  0  0  0
  5  9  1  0  0  0  0
  5  6  1  0  0  0  0
  6 17  1  6  0  0  0
  8  7  1  0  0  0  0
 10 12  1  0  0  0  0
 10 14  1  0  0  0  0
 10  9  1  1  0  0  0
 11 14  1  0  0  0  0
 11 15  1  1  0  0  0
 14 13  2  0  0  0  0
 16 12  1  0  0  0  0
 16 11  1  0  0  0  0
 18 17  1  6  0  0  0
 18 22  1  0  0  0  0
 18 28  1  0  0  0  0
 19 26  1  0  0  0  0
 19 22  2  0  0  0  0
 20 24  1  6  0  0  0
 20 23  1  0  0  0  0
 21 25  1  1  0  0  0
 21 23  1  0  0  0  0
 22 20  1  0  0  0  0
 26 21  1  0  0  0  0
 28 27  1  0  0  0  0
M  END
>  <MODEL>
2

>  <REMARK>
 VINA RESULT:      -6.8      1.625      2.150
  Name = 
  7 active torsions:
  status: ('A' for Active; 'I' for Inactive)
    1  A    between atoms: O_2  and  C_3
    2  A    between atoms: O_2  and  C_26
    3  A    between atoms: C_10  and  C_13
    4  A    between atoms: C_10  and  C_17
    5  A    between atoms: C_10  and  C_25
    6  A    between atoms: CA_16  and  C_20
    7  A    between atoms: C_17  and  C_27
                            x       y       z     vdW  Elec       q    Type
                         _______ _______ _______ _____ _____    ______ ____

>  <TORSDO>
F 7

$$$$
=
 OpenBabel11052418023D

 28 30  0  0  1  0  0  0  0  0999 V2000
  186.4960  177.7210  147.2190 C   0  0  0  0  0  3  0  0  0  0  0  0
  185.1140  178.1330  144.7750 C   0  0  2  0  0  3  0  0  0  0  0  0
  185.0980  178.2520  147.1730 C   0  0  0  0  0  2  0  0  0  0  0  0
  184.3870  177.7540  145.9940 N   0  0  0  0  0  2  0  0  0  0  0  0
  187.1790  177.4310  146.1040 C   0  0  0  0  0  0  0  0  0  0  0  0
  186.5240  177.5270  144.7450 C   0  0  1  0  0  3  0  0  0  0  0  0
  185.8730  179.9530  143.4230 O   0  0  0  0  0  1  0  0  0  0  0  0
  185.1590  179.6450  144.5800 C   0  0  0  0  0  2  0  0  0  0  0  0
  188.5130  176.9910  146.1580 O   0  0  0  0  0  0  0  0  0  0  0  0
  189.2380  176.6380  147.3390 C   0  0  2  0  0  3  0  0  0  0  0  0
  191.2600  175.3500  147.6300 C   0  0  1  0  0  3  0  0  0  0  0  0
  190.2730  177.5580  147.5990 O   0  0  0  0  0  0  0  0  0  0  0  0
  189.2590  174.2910  146.9110 O   0  0  0  0  0  0  0  0  0  0  0  0
  189.8580  175.3070  147.2270 C   0  0  0  0  0  0  0  0  0  0  0  0
  192.1570  175.0530  146.4430 C   0  0  0  0  0  1  0  0  0  0  0  0
  191.3990  176.8110  148.0290 C   0  0  0  0  0  2  0  0  0  0  0  0
  186.4680  176.1510  144.0950 C   0  0  0  0  0  2  0  0  0  0  0  0
  187.3370  176.0460  142.8360 C   0  0  2  0  0  3  0  0  0  0  0  0
  189.4160  174.9390  143.4820 C   0  0  0  0  0  3  0  0  0  0  0  0
  187.9720  173.6720  141.8840 C   0  0  2  0  0  3  0  0  0  0  0  0
  190.3130  172.9120  142.3190 C   0  0  2  0  0  3  0  0  0  0  0  0
  188.2670  174.8590  142.7860 C   0  0  0  0  0  0  0  0  0  0  0  0
  188.8660  172.4650  142.1690 C   0  0  0  0  0  2  0  0  0  0  0  0
  188.1100  174.0370  140.5580 F   0  0  0  0  0  0  0  0  0  0  0  0
  191.1310  171.7970  142.4950 O   0  0  0  0  0  1  0  0  0  0  0  0
  190.4200  173.8180  143.5390 C   0  0  0  0  0  2  0  0  0  0  0  0
  187.3250  177.7570  140.9480 C   0  0  0  0  0  1  0  0  0  0  0  0
  187.8940  177.3700  142.3030 C   0  0  0  0  0  2  0  0  0  0  0  0
  2  8  1  1  0  0  0
  2  4  1  0  0  0  0
  3  1  1  0  0  0  0
  4  3  1  0  0  0  0
  5  9  1  0  0  0  0
  5  1  2  0  0  0  0
  6 17  1  1  0  0  0
  6  2  1  0  0  0  0
  6  5  1  0  0  0  0
  7  8  1  0  0  0  0
 10  9  1  6  0  0  0
 10 12  1  0  0  0  0
 11 15  1  6  0  0  0
 11 16  1  0  0  0  0
 12 16  1  0  0  0  0
 13 14  2  0  0  0  0
 14 10  1  0  0  0  0
 14 11  1  0  0  0  0
 18 28  1  1  0  0  0
 18 17  1  0  0  0  0
 19 26  1  0  0  0  0
 20 24  1  6  0  0  0
 20 23  1  0  0  0  0
 20 22  1  0  0  0  0
 21 25  1  1  0  0  0
 21 26  1  0  0  0  0
 22 18  1  0  0  0  0
 22 19  2  0  0  0  0
 23 21  1  0  0  0  0
 27 28  1  0  0  0  0
M  END
>  <MODEL>
3

>  <REMARK>
 VINA RESULT:      -6.7      2.866      5.255
  Name = 
  7 active torsions:
  status: ('A' for Active; 'I' for Inactive)
    1  A    between atoms: O_2  and  C_3
    2  A    between atoms: O_2  and  C_26
    3  A    between atoms: C_10  and  C_13
    4  A    between atoms: C_10  and  C_17
    5  A    between atoms: C_10  and  C_25
    6  A    between atoms: CA_16  and  C_20
    7  A    between atoms: C_17  and  C_27
                            x       y       z     vdW  Elec       q    Type
                         _______ _______ _______ _____ _____    ______ ____

>  <TORSDO>
F 7

$$$$
=
 OpenBabel11052418023D

 28 30  0  0  1  0  0  0  0  0999 V2000
  191.3870  174.0350  141.7750 C   0  0  0  0  0  3  0  0  0  0  0  0
  188.5840  174.0540  142.2120 C   0  0  2  0  0  3  0  0  0  0  0  0
  190.4080  173.7200  140.6870 C   0  0  0  0  0  2  0  0  0  0  0  0
  189.1420  174.4230  140.9040 N   0  0  0  0  0  2  0  0  0  0  0  0
  190.9910  174.3230  143.0210 C   0  0  0  0  0  0  0  0  0  0  0  0
  189.5240  174.4480  143.3610 C   0  0  1  0  0  3  0  0  0  0  0  0
  188.8630  171.9770  143.3620 O   0  0  0  0  0  1  0  0  0  0  0  0
  188.2150  172.5770  142.2830 C   0  0  0  0  0  2  0  0  0  0  0  0
  191.9220  174.5560  144.0470 O   0  0  0  0  0  0  0  0  0  0  0  0
  193.1800  175.2250  143.9110 C   0  0  2  0  0  3  0  0  0  0  0  0
  194.3310  176.7500  145.3880 C   0  0  1  0  0  3  0  0  0  0  0  0
  194.2170  174.4940  144.5230 O   0  0  0  0  0  0  0  0  0  0  0  0
  192.3260  177.4180  144.3020 O   0  0  0  0  0  0  0  0  0  0  0  0
  193.1640  176.5600  144.5320 C   0  0  0  0  0  0  0  0  0  0  0  0
  193.9030  176.8840  146.8370 C   0  0  0  0  0  1  0  0  0  0  0  0
  195.0560  175.4290  145.1830 C   0  0  0  0  0  2  0  0  0  0  0  0
  189.2110  175.8710  143.8030 C   0  0  0  0  0  2  0  0  0  0  0  0
  188.6140  175.9430  145.2130 C   0  0  2  0  0  3  0  0  0  0  0  0
  186.9280  177.0550  146.5880 C   0  0  0  0  0  3  0  0  0  0  0  0
  186.5400  177.1510  144.1220 C   0  0  2  0  0  3  0  0  0  0  0  0
  184.7260  177.8410  145.6960 C   0  0  2  0  0  3  0  0  0  0  0  0
  187.3560  176.7670  145.3450 C   0  0  0  0  0  0  0  0  0  0  0  0
  185.4710  178.2020  144.4180 C   0  0  0  0  0  2  0  0  0  0  0  0
  185.9380  176.0290  143.5810 F   0  0  0  0  0  0  0  0  0  0  0  0
  183.6990  178.7590  145.9130 O   0  0  0  0  0  1  0  0  0  0  0  0
  185.7050  177.8890  146.8610 C   0  0  0  0  0  2  0  0  0  0  0  0
  189.7400  174.7920  147.1870 C   0  0  0  0  0  1  0  0  0  0  0  0
  189.6260  176.0600  146.3570 C   0  0  0  0  0  2  0  0  0  0  0  0
  1  5  2  0  0  0  0
  2  8  1  6  0  0  0
  2  6  1  0  0  0  0
  3  4  1  0  0  0  0
  3  1  1  0  0  0  0
  4  2  1  0  0  0  0
  5  6  1  0  0  0  0
  5  9  1  0  0  0  0
  6 17  1  6  0  0  0
  8  7  1  0  0  0  0
 10  9  1  1  0  0  0
 10 12  1  0  0  0  0
 10 14  1  0  0  0  0
 11 15  1  1  0  0  0
 12 16  1  0  0  0  0
 13 14  2  0  0  0  0
 14 11  1  0  0  0  0
 16 11  1  0  0  0  0
 18 17  1  6  0  0  0
 18 22  1  0  0  0  0
 18 28  1  0  0  0  0
 19 26  1  0  0  0  0
 20 24  1  1  0  0  0
 20 23  1  0  0  0  0
 20 22  1  0  0  0  0
 21 25  1  1  0  0  0
 21 26  1  0  0  0  0
 22 19  2  0  0  0  0
 23 21  1  0  0  0  0
 28 27  1  0  0  0  0
M  END
>  <MODEL>
4

>  <REMARK>
 VINA RESULT:      -6.6      2.501      6.318
  Name = 
  7 active torsions:
  status: ('A' for Active; 'I' for Inactive)
    1  A    between atoms: O_2  and  C_3
    2  A    between atoms: O_2  and  C_26
    3  A    between atoms: C_10  and  C_13
    4  A    between atoms: C_10  and  C_17
    5  A    between atoms: C_10  and  C_25
    6  A    between atoms: CA_16  and  C_20
    7  A    between atoms: C_17  and  C_27
                            x       y       z     vdW  Elec       q    Type
                         _______ _______ _______ _____ _____    ______ ____

>  <TORSDO>
F 7

$$$$
=
 OpenBabel11052418023D

 28 30  0  0  1  0  0  0  0  0999 V2000
  187.6070  177.0960  144.1330 C   0  0  0  0  0  3  0  0  0  0  0  0
  190.3400  176.5130  143.6430 C   0  0  2  0  0  3  0  0  0  0  0  0
  188.0840  176.5520  142.8220 C   0  0  0  0  0  2  0  0  0  0  0  0
  189.2770  175.7240  143.0040 N   0  0  0  0  0  2  0  0  0  0  0  0
  188.4500  177.3570  145.1400 C   0  0  0  0  0  0  0  0  0  0  0  0
  189.9180  177.0100  145.0330 C   0  0  1  0  0  3  0  0  0  0  0  0
  191.3580  178.6740  143.5540 O   0  0  0  0  0  1  0  0  0  0  0  0
  190.8080  177.6660  142.7630 C   0  0  0  0  0  2  0  0  0  0  0  0
  187.9980  177.9250  146.3420 O   0  0  0  0  0  0  0  0  0  0  0  0
  186.8230  177.5480  147.0660 C   0  0  2  0  0  3  0  0  0  0  0  0
  184.5270  178.2590  146.8370 C   0  0  1  0  0  3  0  0  0  0  0  0
  186.1360  176.5030  146.4180 O   0  0  0  0  0  0  0  0  0  0  0  0
  186.1730  179.7710  147.6390 O   0  0  0  0  0  0  0  0  0  0  0  0
  185.8780  178.6690  147.2040 C   0  0  0  0  0  0  0  0  0  0  0  0
  184.0730  178.9980  145.5930 C   0  0  0  0  0  1  0  0  0  0  0  0
  184.7500  176.7900  146.5130 C   0  0  0  0  0  2  0  0  0  0  0  0
  190.2820  175.9620  146.0760 C   0  0  0  0  0  2  0  0  0  0  0  0
  191.5380  176.3250  146.8770 C   0  0  2  0  0  3  0  0  0  0  0  0
  193.0600  174.5410  146.1940 C   0  0  0  0  0  3  0  0  0  0  0  0
  193.9260  176.8660  145.9010 C   0  0  2  0  0  3  0  0  0  0  0  0
  195.4790  174.9210  145.6740 C   0  0  2  0  0  3  0  0  0  0  0  0
  192.8460  175.8670  146.2790 C   0  0  0  0  0  0  0  0  0  0  0  0
  195.0500  176.2500  145.0680 C   0  0  0  0  0  2  0  0  0  0  0  0
  194.4640  177.4360  147.0400 F   0  0  0  0  0  0  0  0  0  0  0  0
  196.5580  174.4070  144.9560 O   0  0  0  0  0  1  0  0  0  0  0  0
  194.3090  173.9490  145.5960 C   0  0  0  0  0  2  0  0  0  0  0  0
  191.5660  177.5410  149.1150 C   0  0  0  0  0  1  0  0  0  0  0  0
  191.4090  176.2110  148.3990 C   0  0  0  0  0  2  0  0  0  0  0  0
  1  5  2  0  0  0  0
  2  8  1  6  0  0  0
  2  6  1  0  0  0  0
  3  4  1  0  0  0  0
  3  1  1  0  0  0  0
  4  2  1  0  0  0  0
  5  9  1  0  0  0  0
  6  5  1  0  0  0  0
  6 17  1  1  0  0  0
  8  7  1  0  0  0  0
 10  9  1  6  0  0  0
 10 14  1  0  0  0  0
 11 15  1  6  0  0  0
 11 14  1  0  0  0  0
 12 16  1  0  0  0  0
 12 10  1  0  0  0  0
 14 13  2  0  0  0  0
 16 11  1  0  0  0  0
 18 17  1  6  0  0  0
 18 28  1  0  0  0  0
 19 22  2  0  0  0  0
 20 22  1  0  0  0  0
 20 24  1  1  0  0  0
 21 25  1  6  0  0  0
 22 18  1  0  0  0  0
 23 21  1  0  0  0  0
 23 20  1  0  0  0  0
 26 21  1  0  0  0  0
 26 19  1  0  0  0  0
 28 27  1  0  0  0  0
M  END
>  <MODEL>
5

>  <REMARK>
 VINA RESULT:      -6.6      2.562      4.853
  Name = 
  7 active torsions:
  status: ('A' for Active; 'I' for Inactive)
    1  A    between atoms: O_2  and  C_3
    2  A    between atoms: O_2  and  C_26
    3  A    between atoms: C_10  and  C_13
    4  A    between atoms: C_10  and  C_17
    5  A    between atoms: C_10  and  C_25
    6  A    between atoms: CA_16  and  C_20
    7  A    between atoms: C_17  and  C_27
                            x       y       z     vdW  Elec       q    Type
                         _______ _______ _______ _____ _____    ______ ____

>  <TORSDO>
F 7

$$$$
=
 OpenBabel11052418023D

 28 30  0  0  1  0  0  0  0  0999 V2000
  192.3340  175.6180  142.4130 C   0  0  0  0  0  3  0  0  0  0  0  0
  189.9890  174.2310  143.2050 C   0  0  2  0  0  3  0  0  0  0  0  0
  191.6990  174.5700  141.5540 C   0  0  0  0  0  2  0  0  0  0  0  0
  190.2550  174.5070  141.7870 N   0  0  0  0  0  2  0  0  0  0  0  0
  191.8390  175.9440  143.6140 C   0  0  0  0  0  0  0  0  0  0  0  0
  190.5470  175.3370  144.1120 C   0  0  1  0  0  3  0  0  0  0  0  0
  190.9500  172.9070  144.9480 O   0  0  0  0  0  1  0  0  0  0  0  0
  190.5010  172.8590  143.6290 C   0  0  0  0  0  2  0  0  0  0  0  0
  192.4790  176.8860  144.4370 O   0  0  0  0  0  0  0  0  0  0  0  0
  193.7030  176.6890  145.1510 C   0  0  2  0  0  3  0  0  0  0  0  0
  194.8350  174.6660  145.8270 C   0  0  1  0  0  3  0  0  0  0  0  0
  194.7890  176.5170  144.2700 O   0  0  0  0  0  0  0  0  0  0  0  0
  192.7720  175.2760  146.8340 O   0  0  0  0  0  0  0  0  0  0  0  0
  193.6510  175.4980  146.0160 C   0  0  0  0  0  0  0  0  0  0  0  0
  194.4490  173.3310  145.2190 C   0  0  0  0  0  1  0  0  0  0  0  0
  195.6080  175.4920  144.8100 C   0  0  0  0  0  2  0  0  0  0  0  0
  189.4950  176.4240  144.2880 C   0  0  0  0  0  2  0  0  0  0  0  0
  188.5720  176.1780  145.4860 C   0  0  2  0  0  3  0  0  0  0  0  0
  186.7920  177.3280  146.7010 C   0  0  0  0  0  3  0  0  0  0  0  0
  186.5500  177.2930  144.2150 C   0  0  2  0  0  3  0  0  0  0  0  0
  184.6350  178.0300  145.6430 C   0  0  2  0  0  3  0  0  0  0  0  0
  187.2970  176.9860  145.5010 C   0  0  0  0  0  0  0  0  0  0  0  0
  185.4500  178.3390  144.3940 C   0  0  0  0  0  2  0  0  0  0  0  0
  185.9970  176.1360  143.6980 F   0  0  0  0  0  0  0  0  0  0  0  0
  183.5850  178.9400  145.7530 O   0  0  0  0  0  1  0  0  0  0  0  0
  185.5430  178.1530  146.8600 C   0  0  0  0  0  2  0  0  0  0  0  0
  189.0830  174.5960  147.4170 C   0  0  0  0  0  1  0  0  0  0  0  0
  189.2720  175.9870  146.8350 C   0  0  0  0  0  2  0  0  0  0  0  0
  1  5  2  0  0  0  0
  2  8  1  1  0  0  0
  2  6  1  0  0  0  0
  3  4  1  0  0  0  0
  3  1  1  0  0  0  0
  4  2  1  0  0  0  0
  5  6  1  0  0  0  0
  5  9  1  0  0  0  0
  6 17  1  6  0  0  0
  8  7  1  0  0  0  0
 10  9  1  6  0  0  0
 10 14  1  0  0  0  0
 11 15  1  6  0  0  0
 11 14  1  0  0  0  0
 12 16  1  0  0  0  0
 12 10  1  0  0  0  0
 14 13  2  0  0  0  0
 16 11  1  0  0  0  0
 18 17  1  6  0  0  0
 18 22  1  0  0  0  0
 18 28  1  0  0  0  0
 19 26  1  0  0  0  0
 20 24  1  1  0  0  0
 20 23  1  0  0  0  0
 20 22  1  0  0  0  0
 21 25  1  1  0  0  0
 21 26  1  0  0  0  0
 22 19  2  0  0  0  0
 23 21  1  0  0  0  0
 28 27  1  0  0  0  0
M  END
>  <MODEL>
6

>  <REMARK>
 VINA RESULT:      -6.5      2.703      6.468
  Name = 
  7 active torsions:
  status: ('A' for Active; 'I' for Inactive)
    1  A    between atoms: O_2  and  C_3
    2  A    between atoms: O_2  and  C_26
    3  A    between atoms: C_10  and  C_13
    4  A    between atoms: C_10  and  C_17
    5  A    between atoms: C_10  and  C_25
    6  A    between atoms: CA_16  and  C_20
    7  A    between atoms: C_17  and  C_27
                            x       y       z     vdW  Elec       q    Type
                         _______ _______ _______ _____ _____    ______ ____

>  <TORSDO>
F 7

$$$$
=
 OpenBabel11052418023D

 28 30  0  0  1  0  0  0  0  0999 V2000
  191.4250  174.1040  141.1660 C   0  0  0  0  0  3  0  0  0  0  0  0
  188.6750  174.0750  141.8650 C   0  0  2  0  0  3  0  0  0  0  0  0
  190.3860  173.4760  140.2900 C   0  0  0  0  0  2  0  0  0  0  0  0
  189.0910  174.1390  140.4580 N   0  0  0  0  0  2  0  0  0  0  0  0
  191.1130  174.6690  142.3400 C   0  0  0  0  0  0  0  0  0  0  0  0
  189.6740  174.7920  142.7850 C   0  0  1  0  0  3  0  0  0  0  0  0
  189.1170  172.4030  143.5160 O   0  0  0  0  0  1  0  0  0  0  0  0
  188.4310  172.6420  142.3270 C   0  0  0  0  0  2  0  0  0  0  0  0
  192.1050  175.2000  143.1810 O   0  0  0  0  0  0  0  0  0  0  0  0
  192.7070  174.5400  144.2990 C   0  0  2  0  0  3  0  0  0  0  0  0
  194.0770  175.3950  146.0940 C   0  0  1  0  0  3  0  0  0  0  0  0
  191.8840  174.6110  145.4400 O   0  0  0  0  0  0  0  0  0  0  0  0
  194.9200  175.3240  143.8740 O   0  0  0  0  0  0  0  0  0  0  0  0
  194.0040  175.1380  144.6590 C   0  0  0  0  0  0  0  0  0  0  0  0
  194.1520  176.8870  146.3570 C   0  0  0  0  0  1  0  0  0  0  0  0
  192.7300  174.8570  146.5510 C   0  0  0  0  0  2  0  0  0  0  0  0
  189.2880  176.2610  142.9000 C   0  0  0  0  0  2  0  0  0  0  0  0
  189.1370  176.7280  144.3520 C   0  0  2  0  0  3  0  0  0  0  0  0
  187.1180  178.0610  144.0100 C   0  0  0  0  0  3  0  0  0  0  0  0
  187.1200  176.6100  146.0440 C   0  0  2  0  0  3  0  0  0  0  0  0
  185.3510  178.3530  145.7580 C   0  0  2  0  0  3  0  0  0  0  0  0
  187.7430  177.1360  144.7620 C   0  0  0  0  0  0  0  0  0  0  0  0
  185.6240  176.9080  146.1520 C   0  0  0  0  0  2  0  0  0  0  0  0
  187.7700  177.1450  147.1420 F   0  0  0  0  0  0  0  0  0  0  0  0
  183.9990  178.6390  145.9380 O   0  0  0  0  0  1  0  0  0  0  0  0
  185.7190  178.5380  144.2920 C   0  0  0  0  0  2  0  0  0  0  0  0
  191.0080  178.3710  143.8140 C   0  0  0  0  0  1  0  0  0  0  0  0
  190.2840  177.5870  144.8950 C   0  0  0  0  0  2  0  0  0  0  0  0
  1  5  2  0  0  0  0
  2  8  1  1  0  0  0
  2  6  1  0  0  0  0
  3  4  1  0  0  0  0
  3  1  1  0  0  0  0
  4  2  1  0  0  0  0
  5  6  1  0  0  0  0
  5  9  1  0  0  0  0
  6 17  1  6  0  0  0
  8  7  1  0  0  0  0
 10  9  1  6  0  0  0
 10 14  1  0  0  0  0
 10 12  1  0  0  0  0
 11 15  1  6  0  0  0
 11 16  1  0  0  0  0
 12 16  1  0  0  0  0
 13 14  2  0  0  0  0
 14 11  1  0  0  0  0
 18 17  1  6  0  0  0
 18 22  1  0  0  0  0
 18 28  1  0  0  0  0
 19 26  1  0  0  0  0
 19 22  2  0  0  0  0
 20 23  1  0  0  0  0
 20 24  1  1  0  0  0
 21 25  1  6  0  0  0
 21 23  1  0  0  0  0
 22 20  1  0  0  0  0
 26 21  1  0  0  0  0
 27 28  1  0  0  0  0
M  END
>  <MODEL>
7

>  <REMARK>
 VINA RESULT:      -6.5      2.324      6.103
  Name = 
  7 active torsions:
  status: ('A' for Active; 'I' for Inactive)
    1  A    between atoms: O_2  and  C_3
    2  A    between atoms: O_2  and  C_26
    3  A    between atoms: C_10  and  C_13
    4  A    between atoms: C_10  and  C_17
    5  A    between atoms: C_10  and  C_25
    6  A    between atoms: CA_16  and  C_20
    7  A    between atoms: C_17  and  C_27
                            x       y       z     vdW  Elec       q    Type
                         _______ _______ _______ _____ _____    ______ ____

>  <TORSDO>
F 7

$$$$
=
 OpenBabel11052418023D

 28 30  0  0  1  0  0  0  0  0999 V2000
  186.5210  177.3620  147.3480 C   0  0  0  0  0  3  0  0  0  0  0  0
  185.2460  178.2340  144.9680 C   0  0  2  0  0  3  0  0  0  0  0  0
  185.1000  177.8330  147.3310 C   0  0  0  0  0  2  0  0  0  0  0  0
  184.4780  177.5720  146.0320 N   0  0  0  0  0  2  0  0  0  0  0  0
  187.2740  177.3460  146.2400 C   0  0  0  0  0  0  0  0  0  0  0  0
  186.6850  177.7060  144.8950 C   0  0  1  0  0  3  0  0  0  0  0  0
  185.5680  180.3410  143.8870 O   0  0  0  0  0  1  0  0  0  0  0  0
  185.2200  179.7520  145.1010 C   0  0  0  0  0  2  0  0  0  0  0  0
  188.6240  176.9610  146.2810 O   0  0  0  0  0  0  0  0  0  0  0  0
  189.3760  176.6390  147.4560 C   0  0  2  0  0  3  0  0  0  0  0  0
  191.3640  175.3010  147.7470 C   0  0  1  0  0  3  0  0  0  0  0  0
  190.4470  177.5360  147.6400 O   0  0  0  0  0  0  0  0  0  0  0  0
  189.3090  174.2750  147.1410 O   0  0  0  0  0  0  0  0  0  0  0  0
  189.9490  175.2850  147.3890 C   0  0  0  0  0  0  0  0  0  0  0  0
  192.2130  174.9180  146.5500 C   0  0  0  0  0  1  0  0  0  0  0  0
  191.5620  176.7730  148.0710 C   0  0  0  0  0  2  0  0  0  0  0  0
  186.7350  176.5010  143.9660 C   0  0  0  0  0  2  0  0  0  0  0  0
  187.5220  176.7690  142.6780 C   0  0  2  0  0  3  0  0  0  0  0  0
  189.5300  175.3920  142.8770 C   0  0  0  0  0  3  0  0  0  0  0  0
  189.9070  177.8620  142.9310 C   0  0  2  0  0  3  0  0  0  0  0  0
  191.7610  176.3050  143.5510 C   0  0  2  0  0  3  0  0  0  0  0  0
  189.0210  176.6350  142.7930 C   0  0  0  0  0  0  0  0  0  0  0  0
  191.3940  177.5510  142.7580 C   0  0  0  0  0  2  0  0  0  0  0  0
  189.7070  178.4560  144.1630 F   0  0  0  0  0  0  0  0  0  0  0  0
  193.1330  176.0780  143.4550 O   0  0  0  0  0  1  0  0  0  0  0  0
  191.0080  175.1170  142.9700 C   0  0  0  0  0  2  0  0  0  0  0  0
  186.8060  177.5390  140.3580 C   0  0  0  0  0  1  0  0  0  0  0  0
  187.0060  177.9240  141.8140 C   0  0  0  0  0  2  0  0  0  0  0  0
  2  8  1  1  0  0  0
  2  4  1  0  0  0  0
  3  1  1  0  0  0  0
  4  3  1  0  0  0  0
  5  9  1  0  0  0  0
  5  1  2  0  0  0  0
  6 17  1  6  0  0  0
  6  2  1  0  0  0  0
  6  5  1  0  0  0  0
  7  8  1  0  0  0  0
 10  9  1  6  0  0  0
 10 12  1  0  0  0  0
 11 15  1  6  0  0  0
 11 16  1  0  0  0  0
 12 16  1  0  0  0  0
 13 14  2  0  0  0  0
 14 10  1  0  0  0  0
 14 11  1  0  0  0  0
 18 28  1  1  0  0  0
 18 22  1  0  0  0  0
 18 17  1  0  0  0  0
 19 26  1  0  0  0  0
 20 24  1  1  0  0  0
 21 25  1  6  0  0  0
 22 19  2  0  0  0  0
 22 20  1  0  0  0  0
 23 20  1  0  0  0  0
 23 21  1  0  0  0  0
 26 21  1  0  0  0  0
 27 28  1  0  0  0  0
M  END
>  <MODEL>
8

>  <REMARK>
 VINA RESULT:      -6.4      2.581      4.738
  Name = 
  7 active torsions:
  status: ('A' for Active; 'I' for Inactive)
    1  A    between atoms: O_2  and  C_3
    2  A    between atoms: O_2  and  C_26
    3  A    between atoms: C_10  and  C_13
    4  A    between atoms: C_10  and  C_17
    5  A    between atoms: C_10  and  C_25
    6  A    between atoms: CA_16  and  C_20
    7  A    between atoms: C_17  and  C_27
                            x       y       z     vdW  Elec       q    Type
                         _______ _______ _______ _____ _____    ______ ____

>  <TORSDO>
F 7

$$$$
=
 OpenBabel11052418023D

 28 30  0  0  1  0  0  0  0  0999 V2000
  187.8170  177.3040  141.8710 C   0  0  0  0  0  3  0  0  0  0  0  0
  185.2530  177.9730  142.8850 C   0  0  2  0  0  3  0  0  0  0  0  0
  187.2080  178.6560  141.6700 C   0  0  0  0  0  2  0  0  0  0  0  0
  186.3050  178.9930  142.7720 N   0  0  0  0  0  2  0  0  0  0  0  0
  187.1730  176.3290  142.5250 C   0  0  0  0  0  0  0  0  0  0  0  0
  185.8380  176.5860  143.1850 C   0  0  1  0  0  3  0  0  0  0  0  0
  183.0350  178.2100  142.0240 O   0  0  0  0  0  1  0  0  0  0  0  0
  184.3520  177.9390  141.6550 C   0  0  0  0  0  2  0  0  0  0  0  0
  187.7300  175.0450  142.6540 O   0  0  0  0  0  0  0  0  0  0  0  0
  188.4910  174.3510  141.6610 C   0  0  2  0  0  3  0  0  0  0  0  0
  190.4990  173.0230  141.8460 C   0  0  1  0  0  3  0  0  0  0  0  0
  188.0970  173.0020  141.5640 O   0  0  0  0  0  0  0  0  0  0  0  0
  190.5790  175.3700  142.2070 O   0  0  0  0  0  0  0  0  0  0  0  0
  189.9320  174.3630  141.9640 C   0  0  0  0  0  0  0  0  0  0  0  0
  190.9710  172.5320  143.2020 C   0  0  0  0  0  1  0  0  0  0  0  0
  189.2780  172.2320  141.4060 C   0  0  0  0  0  2  0  0  0  0  0  0
  185.9590  176.4050  144.6930 C   0  0  0  0  0  2  0  0  0  0  0  0
  186.9930  177.3400  145.3280 C   0  0  2  0  0  3  0  0  0  0  0  0
  188.2150  175.8210  146.8010 C   0  0  0  0  0  3  0  0  0  0  0  0
  189.6100  177.0740  145.1500 C   0  0  2  0  0  3  0  0  0  0  0  0
  190.7090  175.8190  147.0110 C   0  0  2  0  0  3  0  0  0  0  0  0
  188.2790  176.6830  145.7690 C   0  0  0  0  0  0  0  0  0  0  0  0
  190.7470  176.1220  145.5190 C   0  0  0  0  0  2  0  0  0  0  0  0
  189.9510  178.3590  145.5290 F   0  0  0  0  0  0  0  0  0  0  0  0
  191.7970  175.0170  147.3530 O   0  0  0  0  0  1  0  0  0  0  0  0
  189.4150  175.0790  147.3250 C   0  0  0  0  0  2  0  0  0  0  0  0
  185.0000  178.1490  146.6920 C   0  0  0  0  0  1  0  0  0  0  0  0
  186.4290  178.4210  146.2560 C   0  0  0  0  0  2  0  0  0  0  0  0
  1  5  2  0  0  0  0
  2  8  1  6  0  0  0
  2  6  1  0  0  0  0
  3  1  1  0  0  0  0
  3  4  1  0  0  0  0
  4  2  1  0  0  0  0
  5  9  1  0  0  0  0
  5  6  1  0  0  0  0
  6 17  1  1  0  0  0
  8  7  1  0  0  0  0
 10 14  1  0  0  0  0
 10  9  1  1  0  0  0
 11 14  1  0  0  0  0
 11 15  1  1  0  0  0
 12 10  1  0  0  0  0
 14 13  2  0  0  0  0
 16 12  1  0  0  0  0
 16 11  1  0  0  0  0
 18 17  1  1  0  0  0
 18 22  1  0  0  0  0
 18 28  1  0  0  0  0
 19 26  1  0  0  0  0
 20 23  1  0  0  0  0
 20 24  1  1  0  0  0
 20 22  1  0  0  0  0
 21 26  1  0  0  0  0
 21 25  1  6  0  0  0
 22 19  2  0  0  0  0
 23 21  1  0  0  0  0
 28 27  1  0  0  0  0
M  END
>  <MODEL>
9

>  <REMARK>
 VINA RESULT:      -6.3      2.130      3.219
  Name = 
  7 active torsions:
  status: ('A' for Active; 'I' for Inactive)
    1  A    between atoms: O_2  and  C_3
    2  A    between atoms: O_2  and  C_26
    3  A    between atoms: C_10  and  C_13
    4  A    between atoms: C_10  and  C_17
    5  A    between atoms: C_10  and  C_25
    6  A    between atoms: CA_16  and  C_20
    7  A    between atoms: C_17  and  C_27
                            x       y       z     vdW  Elec       q    Type
                         _______ _______ _______ _____ _____    ______ ____

>  <TORSDO>
F 7

$$$$
