=
 OpenBabel11052417163D

 30 34  0  0  1  0  0  0  0  0999 V2000
  189.5250  176.5040  144.3380 C   0  0  1  0  0  3  0  0  0  0  0  0
  188.0230  177.6270  142.6140 C   0  0  1  0  0  3  0  0  0  0  0  0
  189.3970  175.4470  145.3590 N   0  0  0  0  0  0  0  0  0  0  0  0
  186.7610  178.4630  142.4050 C   0  0  0  0  0  2  0  0  0  0  0  0
  189.1940  178.3720  141.9990 C   0  0  0  0  0  1  0  0  0  0  0  0
  187.2440  176.4840  146.2410 C   0  0  2  0  0  3  0  0  0  0  0  0
  185.5490  177.7780  143.0270 C   0  0  0  0  0  2  0  0  0  0  0  0
  188.2580  177.3670  144.1110 C   0  0  1  0  0  3  0  0  0  0  0  0
  188.4060  175.5570  146.4020 C   0  0  0  0  0  0  0  0  0  0  0  0
  188.5150  174.8870  147.4650 O   0  0  0  0  0  0  0  0  0  0  0  0
  185.7740  177.5860  144.5210 C   0  0  0  0  0  2  0  0  0  0  0  0
  187.0140  176.7290  144.7520 C   0  0  2  0  0  3  0  0  0  0  0  0
  190.4370  174.4110  145.4170 C   0  0  1  0  0  3  0  0  0  0  0  0
  189.8350  173.0150  145.3760 C   0  0  0  0  0  2  0  0  0  0  0  0
  190.5220  173.5520  144.1400 C   0  0  1  0  0  3  0  0  0  0  0  0
  190.1600  174.2240  141.7670 C   0  0  0  0  0  2  0  0  0  0  0  0
  188.6590  172.6300  142.7380 C   0  0  0  0  0  2  0  0  0  0  0  0
  188.2500  172.7900  141.2870 C   0  0  0  0  0  2  0  0  0  0  0  0
  189.4780  173.8580  143.0670 C   0  0  0  0  0  3  0  0  0  0  0  0
  189.1990  173.8030  140.6710 C   0  0  0  0  0  2  0  0  0  0  0  0
  187.5060  177.6860  146.9080 O   0  0  0  0  0  0  0  0  0  0  0  0
  186.4330  177.8570  147.7830 C   0  0  0  0  0  2  0  0  0  0  0  0
  185.9470  179.2900  147.7090 C   0  0  0  0  0  1  0  0  0  0  0  0
  190.6900  177.2830  144.5150 O   0  0  0  0  0  0  0  0  0  0  0  0
  191.6600  176.8620  143.5900 C   0  0  0  0  0  2  0  0  0  0  0  0
  192.8700  176.7600  145.7490 C   0  0  0  0  0  2  0  0  0  0  0  0
  193.7500  175.5270  143.8550 C   0  0  0  0  0  2  0  0  0  0  0  0
  193.0250  176.7960  144.2500 C   0  0  1  0  0  3  0  0  0  0  0  0
  194.2110  176.3400  146.3070 C   0  0  0  0  0  2  0  0  0  0  0  0
  194.9440  175.1250  145.1680 S   0  0  0  0  0  0  0  0  0  0  0  0
  1 24  1  1  0  0  0
  1  3  1  0  0  0  0
  2  5  1  1  0  0  0
  2  8  1  0  0  0  0
  3 13  1  0  0  0  0
  3  9  1  0  0  0  0
  4  2  1  0  0  0  0
  4  7  1  0  0  0  0
  6  9  1  0  0  0  0
  6 21  1  1  0  0  0
  7 11  1  0  0  0  0
  8  1  1  0  0  0  0
  8 12  1  0  0  0  0
  9 10  2  0  0  0  0
 11 12  1  0  0  0  0
 12  6  1  0  0  0  0
 14 13  1  0  0  0  0
 15 14  1  0  0  0  0
 15 13  1  0  0  0  0
 16 19  1  0  0  0  0
 17 19  1  0  0  0  0
 18 17  1  0  0  0  0
 19 15  1  0  0  0  0
 20 18  1  0  0  0  0
 20 16  1  0  0  0  0
 21 22  1  0  0  0  0
 23 22  1  0  0  0  0
 25 28  1  0  0  0  0
 25 24  1  0  0  0  0
 26 29  1  0  0  0  0
 27 28  1  0  0  0  0
 27 30  1  0  0  0  0
 28 26  1  0  0  0  0
 30 29  1  0  0  0  0
M  END
>  <MODEL>
1

>  <REMARK>
 VINA RESULT:      -6.9      0.000      0.000
  Name = 
  7 active torsions:
  status: ('A' for Active; 'I' for Inactive)
    1  A    between atoms: C_1  and  O_6
    2  A    between atoms: O_3  and  C_11
    3  A    between atoms: O_3  and  C_19
    4  A    between atoms: N_4  and  C_13
    5  A    between atoms: O_6  and  C_8
    6  A    between atoms: C_8  and  C_12
    7  A    between atoms: C_16  and  C_30
                            x       y       z     vdW  Elec       q    Type
                         _______ _______ _______ _____ _____    ______ ____

>  <TORSDO>
F 7

$$$$
=
 OpenBabel11052417163D

 30 34  0  0  1  0  0  0  0  0999 V2000
  191.8480  175.7310  143.7320 C   0  0  1  0  0  3  0  0  0  0  0  0
  191.2610  173.5040  142.6450 C   0  0  1  0  0  3  0  0  0  0  0  0
  192.2550  176.2080  145.0680 N   0  0  0  0  0  0  0  0  0  0  0  0
  190.3020  172.3140  142.6610 C   0  0  0  0  0  2  0  0  0  0  0  0
  191.2200  174.1290  141.2610 C   0  0  0  0  0  1  0  0  0  0  0  0
  190.3930  174.8670  146.1740 C   0  0  2  0  0  3  0  0  0  0  0  0
  190.2780  171.6580  144.0370 C   0  0  0  0  0  2  0  0  0  0  0  0
  190.8730  174.5270  143.7250 C   0  0  1  0  0  3  0  0  0  0  0  0
  191.4240  175.9480  146.2190 C   0  0  0  0  0  0  0  0  0  0  0  0
  191.5460  176.6380  147.2670 O   0  0  0  0  0  0  0  0  0  0  0  0
  189.8310  172.6690  145.0850 C   0  0  0  0  0  2  0  0  0  0  0  0
  190.7920  173.8530  145.1040 C   0  0  2  0  0  3  0  0  0  0  0  0
  193.3910  177.1350  145.1550 C   0  0  1  0  0  3  0  0  0  0  0  0
  194.2670  176.8290  146.3610 C   0  0  0  0  0  2  0  0  0  0  0  0
  194.7610  176.4470  144.9840 C   0  0  1  0  0  3  0  0  0  0  0  0
  195.3050  174.5240  143.4940 C   0  0  0  0  0  2  0  0  0  0  0  0
  195.6080  174.2540  145.8550 C   0  0  0  0  0  2  0  0  0  0  0  0
  196.0820  172.9700  145.2020 C   0  0  0  0  0  2  0  0  0  0  0  0
  194.7220  174.9270  144.8300 C   0  0  0  0  0  3  0  0  0  0  0  0
  195.8870  173.1390  143.7050 C   0  0  0  0  0  2  0  0  0  0  0  0
  189.1410  175.4230  145.8900 O   0  0  0  0  0  0  0  0  0  0  0  0
  188.4820  175.4790  147.1190 C   0  0  0  0  0  2  0  0  0  0  0  0
  187.3030  176.4240  147.0130 C   0  0  0  0  0  1  0  0  0  0  0  0
  191.4200  176.7840  142.8930 O   0  0  0  0  0  0  0  0  0  0  0  0
  190.1860  177.2640  143.3650 C   0  0  0  0  0  2  0  0  0  0  0  0
  187.9170  176.3140  143.0800 C   0  0  0  0  0  2  0  0  0  0  0  0
  188.5640  178.2220  141.7310 C   0  0  0  0  0  2  0  0  0  0  0  0
  189.0830  176.9530  142.3700 C   0  0  1  0  0  3  0  0  0  0  0  0
  186.7520  176.3640  142.1170 C   0  0  0  0  0  2  0  0  0  0  0  0
  186.8550  177.9230  141.1840 S   0  0  0  0  0  0  0  0  0  0  0  0
  1 24  1  1  0  0  0
  1  3  1  0  0  0  0
  2  5  1  6  0  0  0
  2  4  1  0  0  0  0
  2  8  1  0  0  0  0
  3 13  1  0  0  0  0
  3  9  1  0  0  0  0
  4  7  1  0  0  0  0
  6 21  1  6  0  0  0
  6  9  1  0  0  0  0
  7 11  1  0  0  0  0
  8  1  1  0  0  0  0
  8 12  1  0  0  0  0
  9 10  2  0  0  0  0
 11 12  1  0  0  0  0
 12  6  1  0  0  0  0
 13 14  1  0  0  0  0
 15 13  1  0  0  0  0
 15 14  1  0  0  0  0
 16 20  1  0  0  0  0
 16 19  1  0  0  0  0
 18 17  1  0  0  0  0
 19 15  1  0  0  0  0
 19 17  1  0  0  0  0
 20 18  1  0  0  0  0
 21 22  1  0  0  0  0
 23 22  1  0  0  0  0
 24 25  1  0  0  0  0
 27 28  1  0  0  0  0
 28 26  1  0  0  0  0
 28 25  1  0  0  0  0
 29 26  1  0  0  0  0
 30 27  1  0  0  0  0
 30 29  1  0  0  0  0
M  END
>  <MODEL>
2

>  <REMARK>
 VINA RESULT:      -6.3      2.455      5.502
  Name = 
  7 active torsions:
  status: ('A' for Active; 'I' for Inactive)
    1  A    between atoms: C_1  and  O_6
    2  A    between atoms: O_3  and  C_11
    3  A    between atoms: O_3  and  C_19
    4  A    between atoms: N_4  and  C_13
    5  A    between atoms: O_6  and  C_8
    6  A    between atoms: C_8  and  C_12
    7  A    between atoms: C_16  and  C_30
                            x       y       z     vdW  Elec       q    Type
                         _______ _______ _______ _____ _____    ______ ____

>  <TORSDO>
F 7

$$$$
=
 OpenBabel11052417163D

 30 34  0  0  1  0  0  0  0  0999 V2000
  189.9670  176.0790  143.2840 C   0  0  1  0  0  3  0  0  0  0  0  0
  190.3280  174.1400  144.8950 C   0  0  1  0  0  3  0  0  0  0  0  0
  188.9110  176.5360  142.3600 N   0  0  0  0  0  0  0  0  0  0  0  0
  190.4460  172.6220  145.0240 C   0  0  0  0  0  2  0  0  0  0  0  0
  191.5980  174.7630  145.4460 C   0  0  0  0  0  1  0  0  0  0  0  0
  188.6810  174.1960  141.3810 C   0  0  2  0  0  3  0  0  0  0  0  0
  189.2070  171.9340  144.4610 C   0  0  0  0  0  2  0  0  0  0  0  0
  190.1070  174.5430  143.4280 C   0  0  1  0  0  3  0  0  0  0  0  0
  188.4390  175.6690  141.3070 C   0  0  0  0  0  0  0  0  0  0  0  0
  187.8330  176.1440  140.3090 O   0  0  0  0  0  0  0  0  0  0  0  0
  189.0390  172.2940  142.9900 C   0  0  0  0  0  2  0  0  0  0  0  0
  188.8920  173.8050  142.8420 C   0  0  2  0  0  3  0  0  0  0  0  0
  188.5230  177.9530  142.3980 C   0  0  1  0  0  3  0  0  0  0  0  0
  187.0200  178.1220  142.2360 C   0  0  0  0  0  2  0  0  0  0  0  0
  187.6340  178.3150  143.6050 C   0  0  1  0  0  3  0  0  0  0  0  0
  187.8930  177.3000  145.8670 C   0  0  0  0  0  2  0  0  0  0  0  0
  185.7560  177.1550  144.7940 C   0  0  0  0  0  2  0  0  0  0  0  0
  185.6010  176.5300  146.1670 C   0  0  0  0  0  2  0  0  0  0  0  0
  187.2420  177.1480  144.5100 C   0  0  0  0  0  3  0  0  0  0  0  0
  186.9570  176.6180  146.8470 C   0  0  0  0  0  2  0  0  0  0  0  0
  189.8020  173.8650  140.6110 O   0  0  0  0  0  0  0  0  0  0  0  0
  189.3020  173.6150  139.3320 C   0  0  0  0  0  2  0  0  0  0  0  0
  188.1870  172.5930  139.4200 C   0  0  0  0  0  1  0  0  0  0  0  0
  191.2040  176.7180  143.0430 O   0  0  0  0  0  0  0  0  0  0  0  0
  192.0360  175.8380  142.3300 C   0  0  0  0  0  2  0  0  0  0  0  0
  194.1990  175.9880  143.5290 C   0  0  0  0  0  2  0  0  0  0  0  0
  194.2120  175.7790  141.1130 C   0  0  0  0  0  2  0  0  0  0  0  0
  193.4540  176.3770  142.2770 C   0  0  1  0  0  3  0  0  0  0  0  0
  195.6630  176.2410  143.2500 C   0  0  0  0  0  2  0  0  0  0  0  0
  195.9880  175.8290  141.5070 S   0  0  0  0  0  0  0  0  0  0  0  0
  1 24  1  6  0  0  0
  1  8  1  0  0  0  0
  2  4  1  0  0  0  0
  2  5  1  6  0  0  0
  3 13  1  0  0  0  0
  3  1  1  0  0  0  0
  6 21  1  6  0  0  0
  6 12  1  0  0  0  0
  7  4  1  0  0  0  0
  8  2  1  0  0  0  0
  9  6  1  0  0  0  0
  9  3  1  0  0  0  0
 10  9  2  0  0  0  0
 11  7  1  0  0  0  0
 12 11  1  0  0  0  0
 12  8  1  0  0  0  0
 13 15  1  0  0  0  0
 14 13  1  0  0  0  0
 14 15  1  0  0  0  0
 15 19  1  0  0  0  0
 16 20  1  0  0  0  0
 17 18  1  0  0  0  0
 18 20  1  0  0  0  0
 19 17  1  0  0  0  0
 19 16  1  0  0  0  0
 22 23  1  0  0  0  0
 22 21  1  0  0  0  0
 25 24  1  0  0  0  0
 27 30  1  0  0  0  0
 27 28  1  0  0  0  0
 28 25  1  0  0  0  0
 28 26  1  0  0  0  0
 29 26  1  0  0  0  0
 30 29  1  0  0  0  0
M  END
>  <MODEL>
3

>  <REMARK>
 VINA RESULT:      -6.3      2.148      5.639
  Name = 
  7 active torsions:
  status: ('A' for Active; 'I' for Inactive)
    1  A    between atoms: C_1  and  O_6
    2  A    between atoms: O_3  and  C_11
    3  A    between atoms: O_3  and  C_19
    4  A    between atoms: N_4  and  C_13
    5  A    between atoms: O_6  and  C_8
    6  A    between atoms: C_8  and  C_12
    7  A    between atoms: C_16  and  C_30
                            x       y       z     vdW  Elec       q    Type
                         _______ _______ _______ _____ _____    ______ ____

>  <TORSDO>
F 7

$$$$
=
 OpenBabel11052417163D

 30 34  0  0  1  0  0  0  0  0999 V2000
  193.1030  173.9170  144.9420 C   0  0  1  0  0  3  0  0  0  0  0  0
  192.6930  173.2150  142.5290 C   0  0  1  0  0  3  0  0  0  0  0  0
  193.1530  175.1770  145.7090 N   0  0  0  0  0  0  0  0  0  0  0  0
  193.1880  173.3290  141.0880 C   0  0  0  0  0  2  0  0  0  0  0  0
  192.6600  171.7440  142.9050 C   0  0  0  0  0  1  0  0  0  0  0  0
  194.6490  176.2510  143.9500 C   0  0  2  0  0  3  0  0  0  0  0  0
  193.2690  174.7890  140.6580 C   0  0  0  0  0  2  0  0  0  0  0  0
  193.6040  174.0080  143.4800 C   0  0  1  0  0  3  0  0  0  0  0  0
  194.0640  176.2280  145.3250 C   0  0  0  0  0  0  0  0  0  0  0  0
  194.3890  177.1280  146.1470 O   0  0  0  0  0  0  0  0  0  0  0  0
  194.2250  175.5450  141.5710 C   0  0  0  0  0  2  0  0  0  0  0  0
  193.7330  175.4680  143.0130 C   0  0  2  0  0  3  0  0  0  0  0  0
  192.4280  175.2400  146.9850 C   0  0  1  0  0  3  0  0  0  0  0  0
  191.9740  176.6580  147.2970 C   0  0  0  0  0  2  0  0  0  0  0  0
  190.9480  175.6480  146.8320 C   0  0  1  0  0  3  0  0  0  0  0  0
  189.3420  175.1080  145.0040 C   0  0  0  0  0  2  0  0  0  0  0  0
  189.9550  177.3990  145.3380 C   0  0  0  0  0  2  0  0  0  0  0  0
  188.9240  177.3780  144.2260 C   0  0  0  0  0  2  0  0  0  0  0  0
  190.5010  175.9900  145.4120 C   0  0  0  0  0  3  0  0  0  0  0  0
  188.5380  175.9250  144.0110 C   0  0  0  0  0  2  0  0  0  0  0  0
  195.9320  175.6900  143.9750 O   0  0  0  0  0  0  0  0  0  0  0  0
  196.7680  176.6740  143.4460 C   0  0  0  0  0  2  0  0  0  0  0  0
  197.9120  176.0140  142.7040 C   0  0  0  0  0  1  0  0  0  0  0  0
  193.6770  172.8360  145.6480 O   0  0  0  0  0  0  0  0  0  0  0  0
  195.0610  172.8200  145.4020 C   0  0  0  0  0  2  0  0  0  0  0  0
  196.8460  171.2260  146.0440 C   0  0  0  0  0  2  0  0  0  0  0  0
  194.5630  170.4240  145.8820 C   0  0  0  0  0  2  0  0  0  0  0  0
  195.5580  171.3910  145.2780 C   0  0  1  0  0  3  0  0  0  0  0  0
  197.0790  169.7380  146.1710 C   0  0  0  0  0  2  0  0  0  0  0  0
  195.4650  168.9270  146.3900 S   0  0  0  0  0  0  0  0  0  0  0  0
  1 24  1  1  0  0  0
  1  3  1  0  0  0  0
  2  5  1  1  0  0  0
  2  8  1  0  0  0  0
  3 13  1  0  0  0  0
  4  2  1  0  0  0  0
  6 21  1  1  0  0  0
  6  9  1  0  0  0  0
  7  4  1  0  0  0  0
  7 11  1  0  0  0  0
  8  1  1  0  0  0  0
  9  3  1  0  0  0  0
  9 10  2  0  0  0  0
 11 12  1  0  0  0  0
 12  8  1  0  0  0  0
 12  6  1  0  0  0  0
 13 14  1  0  0  0  0
 15 13  1  0  0  0  0
 15 14  1  0  0  0  0
 16 19  1  0  0  0  0
 17 19  1  0  0  0  0
 18 17  1  0  0  0  0
 19 15  1  0  0  0  0
 20 18  1  0  0  0  0
 20 16  1  0  0  0  0
 22 21  1  0  0  0  0
 23 22  1  0  0  0  0
 25 24  1  0  0  0  0
 26 29  1  0  0  0  0
 27 30  1  0  0  0  0
 28 25  1  0  0  0  0
 28 27  1  0  0  0  0
 28 26  1  0  0  0  0
 29 30  1  0  0  0  0
M  END
>  <MODEL>
4

>  <REMARK>
 VINA RESULT:      -6.0      3.554      6.789
  Name = 
  7 active torsions:
  status: ('A' for Active; 'I' for Inactive)
    1  A    between atoms: C_1  and  O_6
    2  A    between atoms: O_3  and  C_11
    3  A    between atoms: O_3  and  C_19
    4  A    between atoms: N_4  and  C_13
    5  A    between atoms: O_6  and  C_8
    6  A    between atoms: C_8  and  C_12
    7  A    between atoms: C_16  and  C_30
                            x       y       z     vdW  Elec       q    Type
                         _______ _______ _______ _____ _____    ______ ____

>  <TORSDO>
F 7

$$$$
=
 OpenBabel11052417163D

 30 34  0  0  1  0  0  0  0  0999 V2000
  189.9740  176.7300  143.5220 C   0  0  1  0  0  3  0  0  0  0  0  0
  190.6270  176.7760  145.9830 C   0  0  1  0  0  3  0  0  0  0  0  0
  188.8710  176.1870  142.7060 N   0  0  0  0  0  0  0  0  0  0  0  0
  190.9920  175.9270  147.2010 C   0  0  0  0  0  2  0  0  0  0  0  0
  191.7680  177.7430  145.7180 C   0  0  0  0  0  1  0  0  0  0  0  0
  189.0460  173.9290  143.8710 C   0  0  2  0  0  3  0  0  0  0  0  0
  189.8930  174.9150  147.5030 C   0  0  0  0  0  2  0  0  0  0  0  0
  190.3640  175.8830  144.7600 C   0  0  1  0  0  3  0  0  0  0  0  0
  188.5640  174.7780  142.7380 C   0  0  0  0  0  0  0  0  0  0  0  0
  187.9040  174.2430  141.8070 O   0  0  0  0  0  0  0  0  0  0  0  0
  189.6900  173.9980  146.3040 C   0  0  0  0  0  2  0  0  0  0  0  0
  189.2970  174.8240  145.0830 C   0  0  2  0  0  3  0  0  0  0  0  0
  188.2530  177.0680  141.7050 C   0  0  1  0  0  3  0  0  0  0  0  0
  186.7630  176.7940  141.5680 C   0  0  0  0  0  2  0  0  0  0  0  0
  187.2130  178.0390  142.2980 C   0  0  1  0  0  3  0  0  0  0  0  0
  186.3270  179.1490  144.3460 C   0  0  0  0  0  2  0  0  0  0  0  0
  185.9020  176.8110  144.0470 C   0  0  0  0  0  2  0  0  0  0  0  0
  185.1910  177.2270  145.3200 C   0  0  0  0  0  2  0  0  0  0  0  0
  186.9400  177.8820  143.7930 C   0  0  0  0  0  3  0  0  0  0  0  0
  185.4640  178.7090  145.5130 C   0  0  0  0  0  2  0  0  0  0  0  0
  190.2180  173.2630  143.4950 O   0  0  0  0  0  0  0  0  0  0  0  0
  189.8450  171.9250  143.3570 C   0  0  0  0  0  2  0  0  0  0  0  0
  190.4830  171.3520  142.1070 C   0  0  0  0  0  1  0  0  0  0  0  0
  191.0910  177.0950  142.7390 O   0  0  0  0  0  0  0  0  0  0  0  0
  191.9420  175.9830  142.6180 C   0  0  0  0  0  2  0  0  0  0  0  0
  194.0340  175.6810  143.9100 C   0  0  0  0  0  2  0  0  0  0  0  0
  194.1790  176.0470  141.5180 C   0  0  0  0  0  2  0  0  0  0  0  0
  193.3920  176.4100  142.7580 C   0  0  1  0  0  3  0  0  0  0  0  0
  195.5250  175.8800  143.7640 C   0  0  0  0  0  2  0  0  0  0  0  0
  195.9280  175.8660  141.9900 S   0  0  0  0  0  0  0  0  0  0  0  0
  1 24  1  6  0  0  0
  1  8  1  0  0  0  0
  2  5  1  6  0  0  0
  2  4  1  0  0  0  0
  3  9  1  0  0  0  0
  3  1  1  0  0  0  0
  4  7  1  0  0  0  0
  6 21  1  6  0  0  0
  6 12  1  0  0  0  0
  8 12  1  0  0  0  0
  8  2  1  0  0  0  0
  9  6  1  0  0  0  0
 10  9  2  0  0  0  0
 11  7  1  0  0  0  0
 12 11  1  0  0  0  0
 13 15  1  0  0  0  0
 13  3  1  0  0  0  0
 14 13  1  0  0  0  0
 14 15  1  0  0  0  0
 15 19  1  0  0  0  0
 16 20  1  0  0  0  0
 17 18  1  0  0  0  0
 18 20  1  0  0  0  0
 19 17  1  0  0  0  0
 19 16  1  0  0  0  0
 22 21  1  0  0  0  0
 23 22  1  0  0  0  0
 25 24  1  0  0  0  0
 25 28  1  0  0  0  0
 27 30  1  0  0  0  0
 27 28  1  0  0  0  0
 28 26  1  0  0  0  0
 29 26  1  0  0  0  0
 30 29  1  0  0  0  0
M  END
>  <MODEL>
5

>  <REMARK>
 VINA RESULT:      -6.0      2.194      5.205
  Name = 
  7 active torsions:
  status: ('A' for Active; 'I' for Inactive)
    1  A    between atoms: C_1  and  O_6
    2  A    between atoms: O_3  and  C_11
    3  A    between atoms: O_3  and  C_19
    4  A    between atoms: N_4  and  C_13
    5  A    between atoms: O_6  and  C_8
    6  A    between atoms: C_8  and  C_12
    7  A    between atoms: C_16  and  C_30
                            x       y       z     vdW  Elec       q    Type
                         _______ _______ _______ _____ _____    ______ ____

>  <TORSDO>
F 7

$$$$
=
 OpenBabel11052417163D

 30 34  0  0  1  0  0  0  0  0999 V2000
  191.4150  174.6570  144.3170 C   0  0  1  0  0  3  0  0  0  0  0  0
  189.6810  172.9220  143.6330 C   0  0  1  0  0  3  0  0  0  0  0  0
  192.0160  175.8730  143.7350 N   0  0  0  0  0  0  0  0  0  0  0  0
  189.3220  171.8420  142.6130 C   0  0  0  0  0  2  0  0  0  0  0  0
  189.6910  172.2880  145.0120 C   0  0  0  0  0  1  0  0  0  0  0  0
  192.4260  174.6780  141.5230 C   0  0  2  0  0  3  0  0  0  0  0  0
  189.3210  172.4120  141.1990 C   0  0  0  0  0  2  0  0  0  0  0  0
  191.0460  173.5470  143.3010 C   0  0  1  0  0  3  0  0  0  0  0  0
  192.6840  175.8160  142.4570 C   0  0  0  0  0  0  0  0  0  0  0  0
  193.5040  176.7140  142.1210 O   0  0  0  0  0  0  0  0  0  0  0  0
  190.6990  172.9690  140.8650 C   0  0  0  0  0  2  0  0  0  0  0  0
  191.0650  174.0700  141.8550 C   0  0  2  0  0  3  0  0  0  0  0  0
  192.1150  177.0690  144.5820 C   0  0  1  0  0  3  0  0  0  0  0  0
  191.5650  178.2980  143.8740 C   0  0  0  0  0  2  0  0  0  0  0  0
  190.7450  177.6610  144.9730 C   0  0  1  0  0  3  0  0  0  0  0  0
  188.4580  176.7740  145.4160 C   0  0  0  0  0  2  0  0  0  0  0  0
  188.8770  177.8330  143.3080 C   0  0  0  0  0  2  0  0  0  0  0  0
  187.4070  177.4650  143.3300 C   0  0  0  0  0  2  0  0  0  0  0  0
  189.5280  176.9660  144.3640 C   0  0  0  0  0  3  0  0  0  0  0  0
  187.1400  176.7910  144.6640 C   0  0  0  0  0  2  0  0  0  0  0  0
  193.4410  173.7240  141.6520 O   0  0  0  0  0  0  0  0  0  0  0  0
  194.2480  173.9000  140.5270 C   0  0  0  0  0  2  0  0  0  0  0  0
  195.6800  174.1240  140.9650 C   0  0  0  0  0  1  0  0  0  0  0  0
  192.1530  174.1660  145.4160 O   0  0  0  0  0  0  0  0  0  0  0  0
  193.0520  173.1870  144.9560 C   0  0  0  0  0  2  0  0  0  0  0  0
  195.2360  172.1400  145.4750 C   0  0  0  0  0  2  0  0  0  0  0  0
  195.1870  174.4630  144.7810 C   0  0  0  0  0  2  0  0  0  0  0  0
  194.4270  173.4100  145.5580 C   0  0  1  0  0  3  0  0  0  0  0  0
  196.6700  172.5290  145.7520 C   0  0  0  0  0  2  0  0  0  0  0  0
  196.9670  174.1660  145.0150 S   0  0  0  0  0  0  0  0  0  0  0  0
  1 24  1  1  0  0  0
  2  5  1  1  0  0  0
  3  1  1  0  0  0  0
  3 13  1  0  0  0  0
  4  2  1  0  0  0  0
  6 21  1  1  0  0  0
  6 12  1  0  0  0  0
  6  9  1  0  0  0  0
  7  4  1  0  0  0  0
  8  2  1  0  0  0  0
  8  1  1  0  0  0  0
  9  3  1  0  0  0  0
 10  9  2  0  0  0  0
 11  7  1  0  0  0  0
 11 12  1  0  0  0  0
 12  8  1  0  0  0  0
 13 15  1  0  0  0  0
 14 13  1  0  0  0  0
 14 15  1  0  0  0  0
 17 18  1  0  0  0  0
 17 19  1  0  0  0  0
 18 20  1  0  0  0  0
 19 15  1  0  0  0  0
 19 16  1  0  0  0  0
 20 16  1  0  0  0  0
 22 23  1  0  0  0  0
 22 21  1  0  0  0  0
 25 24  1  0  0  0  0
 25 28  1  0  0  0  0
 26 28  1  0  0  0  0
 26 29  1  0  0  0  0
 27 30  1  0  0  0  0
 27 28  1  0  0  0  0
 30 29  1  0  0  0  0
M  END
>  <MODEL>
6

>  <REMARK>
 VINA RESULT:      -6.0      2.479      6.051
  Name = 
  7 active torsions:
  status: ('A' for Active; 'I' for Inactive)
    1  A    between atoms: C_1  and  O_6
    2  A    between atoms: O_3  and  C_11
    3  A    between atoms: O_3  and  C_19
    4  A    between atoms: N_4  and  C_13
    5  A    between atoms: O_6  and  C_8
    6  A    between atoms: C_8  and  C_12
    7  A    between atoms: C_16  and  C_30
                            x       y       z     vdW  Elec       q    Type
                         _______ _______ _______ _____ _____    ______ ____

>  <TORSDO>
F 7

$$$$
=
 OpenBabel11052417163D

 30 34  0  0  1  0  0  0  0  0999 V2000
  190.0610  174.5830  145.5250 C   0  0  1  0  0  3  0  0  0  0  0  0
  192.1490  175.4500  146.6980 C   0  0  1  0  0  3  0  0  0  0  0  0
  189.6710  174.1980  144.1550 N   0  0  0  0  0  0  0  0  0  0  0  0
  193.1640  176.5910  146.7720 C   0  0  0  0  0  2  0  0  0  0  0  0
  191.5120  175.2900  148.0670 C   0  0  0  0  0  1  0  0  0  0  0  0
  190.6970  176.3280  143.2070 C   0  0  2  0  0  3  0  0  0  0  0  0
  193.8210  176.8180  145.4160 C   0  0  0  0  0  2  0  0  0  0  0  0
  191.0870  175.7390  145.6250 C   0  0  1  0  0  3  0  0  0  0  0  0
  189.8020  175.1390  143.0690 C   0  0  0  0  0  0  0  0  0  0  0  0
  189.1520  174.9800  142.0000 O   0  0  0  0  0  0  0  0  0  0  0  0
  192.7610  177.1660  144.3790 C   0  0  0  0  0  2  0  0  0  0  0  0
  191.7530  176.0280  144.2690 C   0  0  2  0  0  3  0  0  0  0  0  0
  188.9460  172.9340  143.9710 C   0  0  1  0  0  3  0  0  0  0  0  0
  189.0530  172.4360  142.5380 C   0  0  0  0  0  2  0  0  0  0  0  0
  189.8620  171.7460  143.6130 C   0  0  1  0  0  3  0  0  0  0  0  0
  192.1930  171.1470  144.2620 C   0  0  0  0  0  2  0  0  0  0  0  0
  191.7860  171.8460  142.0080 C   0  0  0  0  0  2  0  0  0  0  0  0
  193.2540  171.4780  142.0950 C   0  0  0  0  0  2  0  0  0  0  0  0
  191.3420  172.0840  143.4340 C   0  0  0  0  0  3  0  0  0  0  0  0
  193.5140  171.0380  143.5250 C   0  0  0  0  0  2  0  0  0  0  0  0
  189.9390  177.4490  143.5630 O   0  0  0  0  0  0  0  0  0  0  0  0
  189.8120  178.1900  142.3880 C   0  0  0  0  0  2  0  0  0  0  0  0
  188.3480  178.2910  142.0130 C   0  0  0  0  0  1  0  0  0  0  0  0
  188.9440  174.7720  146.3680 O   0  0  0  0  0  0  0  0  0  0  0  0
  188.6860  176.1500  146.4750 C   0  0  0  0  0  2  0  0  0  0  0  0
  186.8260  177.5840  147.2630 C   0  0  0  0  0  2  0  0  0  0  0  0
  186.8020  176.7910  144.9720 C   0  0  0  0  0  2  0  0  0  0  0  0
  187.1940  176.4160  146.3850 C   0  0  1  0  0  3  0  0  0  0  0  0
  185.4330  178.0040  146.8530 C   0  0  0  0  0  2  0  0  0  0  0  0
  185.2830  177.7900  145.0520 S   0  0  0  0  0  0  0  0  0  0  0  0
  1  8  1  0  0  0  0
  1 24  1  1  0  0  0
  2  4  1  0  0  0  0
  2  5  1  1  0  0  0
  3  1  1  0  0  0  0
  6 21  1  1  0  0  0
  6 12  1  0  0  0  0
  7  4  1  0  0  0  0
  8  2  1  0  0  0  0
  9  6  1  0  0  0  0
  9  3  1  0  0  0  0
 10  9  2  0  0  0  0
 11  7  1  0  0  0  0
 12 11  1  0  0  0  0
 12  8  1  0  0  0  0
 13  3  1  0  0  0  0
 14 15  1  0  0  0  0
 14 13  1  0  0  0  0
 15 13  1  0  0  0  0
 17 18  1  0  0  0  0
 17 19  1  0  0  0  0
 18 20  1  0  0  0  0
 19 15  1  0  0  0  0
 19 16  1  0  0  0  0
 20 16  1  0  0  0  0
 22 21  1  0  0  0  0
 23 22  1  0  0  0  0
 24 25  1  0  0  0  0
 27 30  1  0  0  0  0
 27 28  1  0  0  0  0
 28 25  1  0  0  0  0
 28 26  1  0  0  0  0
 29 26  1  0  0  0  0
 30 29  1  0  0  0  0
M  END
>  <MODEL>
7

>  <REMARK>
 VINA RESULT:      -5.9      2.599      5.607
  Name = 
  7 active torsions:
  status: ('A' for Active; 'I' for Inactive)
    1  A    between atoms: C_1  and  O_6
    2  A    between atoms: O_3  and  C_11
    3  A    between atoms: O_3  and  C_19
    4  A    between atoms: N_4  and  C_13
    5  A    between atoms: O_6  and  C_8
    6  A    between atoms: C_8  and  C_12
    7  A    between atoms: C_16  and  C_30
                            x       y       z     vdW  Elec       q    Type
                         _______ _______ _______ _____ _____    ______ ____

>  <TORSDO>
F 7

$$$$
=
 OpenBabel11052417163D

 30 34  0  0  1  0  0  0  0  0999 V2000
  191.7810  173.5630  144.6600 C   0  0  1  0  0  3  0  0  0  0  0  0
  189.6010  173.0150  143.4640 C   0  0  1  0  0  3  0  0  0  0  0  0
  192.6410  174.7460  144.8530 N   0  0  0  0  0  0  0  0  0  0  0  0
  188.8920  172.9590  142.1110 C   0  0  0  0  0  2  0  0  0  0  0  0
  189.5430  171.6320  144.0880 C   0  0  0  0  0  1  0  0  0  0  0  0
  192.5520  175.2840  142.3650 C   0  0  2  0  0  3  0  0  0  0  0  0
  188.9390  174.3170  141.4200 C   0  0  0  0  0  2  0  0  0  0  0  0
  191.0550  173.4840  143.2940 C   0  0  1  0  0  3  0  0  0  0  0  0
  193.1740  175.4540  143.7140 C   0  0  0  0  0  0  0  0  0  0  0  0
  194.1760  176.2080  143.8380 O   0  0  0  0  0  0  0  0  0  0  0  0
  190.3880  174.7370  141.2030 C   0  0  0  0  0  2  0  0  0  0  0  0
  191.1060  174.8260  142.5450 C   0  0  2  0  0  3  0  0  0  0  0  0
  193.1180  175.0420  146.2110 C   0  0  1  0  0  3  0  0  0  0  0  0
  192.9850  176.5210  146.5370 C   0  0  0  0  0  2  0  0  0  0  0  0
  192.0090  175.5450  147.1560 C   0  0  1  0  0  3  0  0  0  0  0  0
  189.6090  174.8790  147.2420 C   0  0  0  0  0  2  0  0  0  0  0  0
  190.1380  177.1480  146.6880 C   0  0  0  0  0  2  0  0  0  0  0  0
  188.6260  177.0500  146.7390 C   0  0  0  0  0  2  0  0  0  0  0  0
  190.6310  175.7280  146.5200 C   0  0  0  0  0  3  0  0  0  0  0  0
  188.2890  175.6100  147.0870 C   0  0  0  0  0  2  0  0  0  0  0  0
  193.2820  174.3470  141.6250 O   0  0  0  0  0  0  0  0  0  0  0  0
  193.9830  175.0970  140.6810 C   0  0  0  0  0  2  0  0  0  0  0  0
  195.4490  174.7180  140.7250 C   0  0  0  0  0  1  0  0  0  0  0  0
  192.4400  172.3600  144.9970 O   0  0  0  0  0  0  0  0  0  0  0  0
  193.1510  171.9040  143.8730 C   0  0  0  0  0  2  0  0  0  0  0  0
  195.2560  172.2000  145.1460 C   0  0  0  0  0  2  0  0  0  0  0  0
  194.1760  170.0290  145.1580 C   0  0  0  0  0  2  0  0  0  0  0  0
  194.4500  171.2460  144.3010 C   0  0  1  0  0  3  0  0  0  0  0  0
  196.3310  171.3750  145.8150 C   0  0  0  0  0  2  0  0  0  0  0  0
  195.6260  169.7470  146.2210 S   0  0  0  0  0  0  0  0  0  0  0  0
  1  3  1  0  0  0  0
  1 24  1  6  0  0  0
  2  5  1  6  0  0  0
  3 13  1  0  0  0  0
  4  2  1  0  0  0  0
  6 21  1  6  0  0  0
  6 12  1  0  0  0  0
  6  9  1  0  0  0  0
  7  4  1  0  0  0  0
  8  2  1  0  0  0  0
  8  1  1  0  0  0  0
  9 10  2  0  0  0  0
  9  3  1  0  0  0  0
 11  7  1  0  0  0  0
 11 12  1  0  0  0  0
 12  8  1  0  0  0  0
 13 14  1  0  0  0  0
 13 15  1  0  0  0  0
 14 15  1  0  0  0  0
 17 18  1  0  0  0  0
 18 20  1  0  0  0  0
 19 17  1  0  0  0  0
 19 15  1  0  0  0  0
 19 16  1  0  0  0  0
 20 16  1  0  0  0  0
 22 23  1  0  0  0  0
 22 21  1  0  0  0  0
 25 28  1  0  0  0  0
 25 24  1  0  0  0  0
 26 29  1  0  0  0  0
 27 30  1  0  0  0  0
 28 26  1  0  0  0  0
 28 27  1  0  0  0  0
 29 30  1  0  0  0  0
M  END
>  <MODEL>
8

>  <REMARK>
 VINA RESULT:      -5.8      3.117      6.194
  Name = 
  7 active torsions:
  status: ('A' for Active; 'I' for Inactive)
    1  A    between atoms: C_1  and  O_6
    2  A    between atoms: O_3  and  C_11
    3  A    between atoms: O_3  and  C_19
    4  A    between atoms: N_4  and  C_13
    5  A    between atoms: O_6  and  C_8
    6  A    between atoms: C_8  and  C_12
    7  A    between atoms: C_16  and  C_30
                            x       y       z     vdW  Elec       q    Type
                         _______ _______ _______ _____ _____    ______ ____

>  <TORSDO>
F 7

$$$$
=
 OpenBabel11052417163D

 30 34  0  0  1  0  0  0  0  0999 V2000
  190.3090  175.5100  143.0150 C   0  0  1  0  0  3  0  0  0  0  0  0
  190.1630  177.0380  145.0480 C   0  0  1  0  0  3  0  0  0  0  0  0
  189.6790  174.2570  142.5560 N   0  0  0  0  0  0  0  0  0  0  0  0
  190.3550  177.1340  146.5610 C   0  0  0  0  0  2  0  0  0  0  0  0
  191.0390  178.0880  144.3890 C   0  0  0  0  0  1  0  0  0  0  0  0
  190.0770  173.1640  144.8220 C   0  0  2  0  0  3  0  0  0  0  0  0
  189.5180  176.0830  147.2800 C   0  0  0  0  0  2  0  0  0  0  0  0
  190.5170  175.6280  144.5450 C   0  0  1  0  0  3  0  0  0  0  0  0
  189.7530  173.0650  143.3660 C   0  0  0  0  0  0  0  0  0  0  0  0
  189.5620  171.9280  142.8540 O   0  0  0  0  0  0  0  0  0  0  0  0
  189.9260  174.6900  146.8170 C   0  0  0  0  0  2  0  0  0  0  0  0
  189.7150  174.5640  145.3120 C   0  0  2  0  0  3  0  0  0  0  0  0
  189.1820  174.1980  141.1750 C   0  0  1  0  0  3  0  0  0  0  0  0
  187.6830  173.9430  141.1340 C   0  0  0  0  0  2  0  0  0  0  0  0
  188.1970  175.3320  140.8260 C   0  0  1  0  0  3  0  0  0  0  0  0
  187.6480  177.6810  141.4530 C   0  0  0  0  0  2  0  0  0  0  0  0
  186.5090  175.9060  142.5890 C   0  0  0  0  0  2  0  0  0  0  0  0
  185.9290  177.2060  143.1130 C   0  0  0  0  0  2  0  0  0  0  0  0
  187.8420  176.2750  141.9750 C   0  0  0  0  0  3  0  0  0  0  0  0
  186.6540  178.3320  142.3950 C   0  0  0  0  0  2  0  0  0  0  0  0
  191.4390  172.9050  145.0190 O   0  0  0  0  0  0  0  0  0  0  0  0
  191.7030  171.7620  144.2640 C   0  0  0  0  0  2  0  0  0  0  0  0
  193.1990  171.5290  144.2120 C   0  0  0  0  0  1  0  0  0  0  0  0
  191.4740  175.8250  142.2810 O   0  0  0  0  0  0  0  0  0  0  0  0
  192.5730  175.1900  142.8840 C   0  0  0  0  0  2  0  0  0  0  0  0
  194.8050  175.6380  143.8620 C   0  0  0  0  0  2  0  0  0  0  0  0
  194.4690  176.0150  141.4900 C   0  0  0  0  0  2  0  0  0  0  0  0
  193.7930  176.0930  142.8410 C   0  0  1  0  0  3  0  0  0  0  0  0
  196.0990  176.3400  143.5200 C   0  0  0  0  0  2  0  0  0  0  0  0
  196.2220  176.4540  141.7080 S   0  0  0  0  0  0  0  0  0  0  0  0
  1 24  1  6  0  0  0
  1  8  1  0  0  0  0
  2  5  1  6  0  0  0
  2  4  1  0  0  0  0
  3  1  1  0  0  0  0
  3  9  1  0  0  0  0
  4  7  1  0  0  0  0
  6 21  1  6  0  0  0
  6 12  1  0  0  0  0
  8  2  1  0  0  0  0
  8 12  1  0  0  0  0
  9  6  1  0  0  0  0
 10  9  2  0  0  0  0
 11  7  1  0  0  0  0
 12 11  1  0  0  0  0
 13  3  1  0  0  0  0
 14 13  1  0  0  0  0
 15 14  1  0  0  0  0
 15 13  1  0  0  0  0
 15 19  1  0  0  0  0
 16 19  1  0  0  0  0
 16 20  1  0  0  0  0
 17 18  1  0  0  0  0
 19 17  1  0  0  0  0
 20 18  1  0  0  0  0
 22 21  1  0  0  0  0
 23 22  1  0  0  0  0
 24 25  1  0  0  0  0
 27 30  1  0  0  0  0
 27 28  1  0  0  0  0
 28 25  1  0  0  0  0
 28 26  1  0  0  0  0
 29 26  1  0  0  0  0
 30 29  1  0  0  0  0
M  END
>  <MODEL>
9

>  <REMARK>
 VINA RESULT:      -5.6      2.462      4.787
  Name = 
  7 active torsions:
  status: ('A' for Active; 'I' for Inactive)
    1  A    between atoms: C_1  and  O_6
    2  A    between atoms: O_3  and  C_11
    3  A    between atoms: O_3  and  C_19
    4  A    between atoms: N_4  and  C_13
    5  A    between atoms: O_6  and  C_8
    6  A    between atoms: C_8  and  C_12
    7  A    between atoms: C_16  and  C_30
                            x       y       z     vdW  Elec       q    Type
                         _______ _______ _______ _____ _____    ______ ____

>  <TORSDO>
F 7

$$$$
