=
 OpenBabel11052417433D

 31 35  0  0  1  0  0  0  0  0999 V2000
  189.5360  172.2430  141.6770 C   0  0  0  0  0  0  0  0  0  0  0  0
  189.2670  175.5600  143.0790 C   0  0  0  0  0  0  0  0  0  0  0  0
  190.1210  175.4760  144.3300 C   0  0  2  0  0  3  0  0  0  0  0  0
  190.1940  174.2980  146.5090 C   0  0  0  0  0  3  0  0  0  0  0  0
  189.1160  174.5180  142.2250 C   0  0  0  0  0  0  0  0  0  0  0  0
  188.8010  172.3770  140.5010 C   0  0  0  0  0  3  0  0  0  0  0  0
  189.8350  174.2880  145.2190 C   0  0  0  0  0  3  0  0  0  0  0  0
  187.9810  176.9850  141.4660 N   0  0  0  0  0  0  0  0  0  0  0  0
  190.0660  171.1390  141.9700 O   0  0  0  0  0  0  0  0  0  0  0  0
  189.6030  177.8830  144.6920 C   0  0  0  0  0  3  0  0  0  0  0  0
  191.2920  175.4480  148.4520 N   0  0  0  0  0  1  0  0  0  0  0  0
  187.8350  175.8180  140.6500 C   0  0  0  0  0  3  0  0  0  0  0  0
  188.7180  176.8820  142.6930 C   0  0  0  0  0  0  0  0  0  0  0  0
  189.6780  173.3080  142.5050 N   0  0  0  0  0  2  0  0  0  0  0  0
  190.7710  175.5130  147.1300 C   0  0  0  0  0  0  0  0  0  0  0  0
  188.3820  174.6530  141.0150 C   0  0  0  0  0  0  0  0  0  0  0  0
  188.2430  173.5760  140.1970 N   0  0  0  0  0  0  0  0  0  0  0  0
  188.9100  177.9320  143.4390 N   0  0  0  0  0  0  0  0  0  0  0  0
  190.1400  176.7510  145.1460 C   0  0  0  0  0  0  0  0  0  0  0  0
  190.7040  176.6930  146.5020 C   0  0  0  0  0  3  0  0  0  0  0  0
  187.3310  178.2240  141.0590 C   0  0  0  0  0  2  0  0  0  0  0  0
  184.9790  177.9320  140.3430 C   0  0  0  0  0  1  0  0  0  0  0  0
  185.8820  178.2370  141.5210 C   0  0  1  0  0  3  0  0  0  0  0  0
  185.6860  177.2400  142.5650 N   0  0  0  0  0  2  0  0  0  0  0  0
  185.6030  177.2800  146.3090 C   0  0  0  0  0  0  0  0  0  0  0  0
  183.9730  178.8530  145.4530 C   0  0  0  0  0  3  0  0  0  0  0  0
  186.2750  176.6190  147.4570 C   0  0  0  0  0  1  0  0  0  0  0  0
  185.9680  176.9480  145.0000 C   0  0  0  0  0  3  0  0  0  0  0  0
  184.3380  178.5200  144.1450 C   0  0  0  0  0  3  0  0  0  0  0  0
  185.3370  177.5690  143.9120 C   0  0  0  0  0  0  0  0  0  0  0  0
  184.6060  178.2330  146.5350 C   0  0  0  0  0  3  0  0  0  0  0  0
  1  9  2  0  0  0  0
  1 14  1  0  0  0  0
  2  3  1  0  0  0  0
  3 19  1  0  0  0  0
  3  7  1  1  0  0  0
  4 15  1  0  0  0  0
  5 14  1  0  0  0  0
  5  2  2  0  0  0  0
  6  1  1  0  0  0  0
  7  4  2  0  0  0  0
  8 13  1  0  0  0  0
 10 19  2  0  0  0  0
 12 16  2  0  0  0  0
 12  8  1  0  0  0  0
 13  2  1  0  0  0  0
 13 18  2  0  0  0  0
 15 11  1  0  0  0  0
 16  5  1  0  0  0  0
 17  6  2  0  0  0  0
 17 16  1  0  0  0  0
 18 10  1  0  0  0  0
 19 20  1  0  0  0  0
 20 15  2  0  0  0  0
 21  8  1  0  0  0  0
 21 23  1  0  0  0  0
 23 22  1  6  0  0  0
 23 24  1  0  0  0  0
 24 30  1  0  0  0  0
 25 31  1  0  0  0  0
 25 27  1  0  0  0  0
 26 31  2  0  0  0  0
 28 25  2  0  0  0  0
 29 26  1  0  0  0  0
 30 29  2  0  0  0  0
 30 28  1  0  0  0  0
M  END
>  <MODEL>
1

>  <REMARK>
 VINA RESULT:      -8.4      0.000      0.000
  Name = 
  4 active torsions:
  status: ('A' for Active; 'I' for Inactive)
    1  A    between atoms: N_3  and  C_9
    2  A    between atoms: N_3  and  C_22
    3  A    between atoms: C_9  and  C_23
    4  A    between atoms: N_15  and  C_23
                            x       y       z     vdW  Elec       q    Type
                         _______ _______ _______ _____ _____    ______ ____

>  <TORSDO>
F 4

$$$$
=
 OpenBabel11052417433D

 31 35  0  0  1  0  0  0  0  0999 V2000
  192.2520  177.0560  144.4020 C   0  0  0  0  0  0  0  0  0  0  0  0
  189.8400  175.1250  142.5320 C   0  0  0  0  0  0  0  0  0  0  0  0
  190.2330  173.6920  142.8380 C   0  0  0  0  0  0  0  0  0  0  0  0
  192.1180  172.1230  142.4920 C   0  0  0  0  0  3  0  0  0  0  0  0
  190.4830  176.1910  143.0690 C   0  0  0  0  0  0  0  0  0  0  0  0
  191.8190  178.3570  144.1550 C   0  0  0  0  0  3  0  0  0  0  0  0
  191.7020  173.3830  142.6620 C   0  0  0  0  0  3  0  0  0  0  0  0
  188.1760  176.7140  141.5350 N   0  0  0  0  0  0  0  0  0  0  0  0
  193.2620  176.8520  145.1240 O   0  0  0  0  0  0  0  0  0  0  0  0
  188.2920  172.9960  141.4440 C   0  0  0  0  0  3  0  0  0  0  0  0
  191.6150  169.6680  142.3380 N   0  0  0  0  0  1  0  0  0  0  0  0
  188.9460  177.7790  142.1030 C   0  0  0  0  0  3  0  0  0  0  0  0
  188.5990  175.3610  141.7540 C   0  0  0  0  0  0  0  0  0  0  0  0
  191.5780  176.0110  143.8590 N   0  0  0  0  0  2  0  0  0  0  0  0
  191.1490  171.0110  142.3530 C   0  0  0  0  0  0  0  0  0  0  0  0
  190.0360  177.5210  142.8350 C   0  0  0  0  0  0  0  0  0  0  0  0
  190.7240  178.5600  143.3800 N   0  0  0  0  0  0  0  0  0  0  0  0
  187.8990  174.3650  141.2900 N   0  0  0  0  0  0  0  0  0  0  0  0
  189.3890  172.6600  142.1230 C   0  0  0  0  0  0  0  0  0  0  0  0
  189.8540  171.2660  142.1290 C   0  0  0  0  0  2  0  0  0  0  0  0
  187.0220  177.0360  140.7040 C   0  0  0  0  0  2  0  0  0  0  0  0
  184.9510  178.3820  140.5480 C   0  0  0  0  0  1  0  0  0  0  0  0
  186.0190  177.8650  141.4900 C   0  0  1  0  0  3  0  0  0  0  0  0
  185.4060  177.0460  142.5290 N   0  0  0  0  0  2  0  0  0  0  0  0
  186.5640  177.0660  146.0910 C   0  0  0  0  0  0  0  0  0  0  0  0
  184.6460  178.5270  145.8620 C   0  0  0  0  0  3  0  0  0  0  0  0
  187.6180  176.4490  146.9350 C   0  0  0  0  0  1  0  0  0  0  0  0
  186.4960  176.7650  144.7270 C   0  0  0  0  0  3  0  0  0  0  0  0
  184.5780  178.2250  144.4980 C   0  0  0  0  0  3  0  0  0  0  0  0
  185.5020  177.3460  143.9240 C   0  0  0  0  0  0  0  0  0  0  0  0
  185.6390  177.9480  146.6580 C   0  0  0  0  0  3  0  0  0  0  0  0
  1  9  2  0  0  0  0
  2  3  1  0  0  0  0
  2  5  2  0  0  0  0
  4  7  1  0  0  0  0
  5 14  1  0  0  0  0
  6  1  1  0  0  0  0
  7  3  2  0  0  0  0
  8 13  1  0  0  0  0
  8 12  1  0  0  0  0
 10 19  2  0  0  0  0
 11 15  1  0  0  0  0
 12 16  2  0  0  0  0
 13  2  1  0  0  0  0
 14  1  1  0  0  0  0
 15  4  2  0  0  0  0
 16  5  1  0  0  0  0
 16 17  1  0  0  0  0
 17  6  2  0  0  0  0
 18 10  1  0  0  0  0
 18 13  2  0  0  0  0
 19 20  1  0  0  0  0
 19  3  1  0  0  0  0
 20 15  1  0  0  0  0
 21 23  1  0  0  0  0
 21  8  1  0  0  0  0
 23 22  1  6  0  0  0
 23 24  1  0  0  0  0
 24 30  1  0  0  0  0
 25 31  1  0  0  0  0
 25 27  1  0  0  0  0
 26 31  2  0  0  0  0
 28 25  2  0  0  0  0
 29 26  1  0  0  0  0
 30 29  2  0  0  0  0
 30 28  1  0  0  0  0
M  END
>  <MODEL>
2

>  <REMARK>
 VINA RESULT:      -7.9      2.176      4.123
  Name = 
  4 active torsions:
  status: ('A' for Active; 'I' for Inactive)
    1  A    between atoms: N_3  and  C_9
    2  A    between atoms: N_3  and  C_22
    3  A    between atoms: C_9  and  C_23
    4  A    between atoms: N_15  and  C_23
                            x       y       z     vdW  Elec       q    Type
                         _______ _______ _______ _____ _____    ______ ____

>  <TORSDO>
F 4

$$$$
=
 OpenBabel11052417433D

 31 35  0  0  1  0  0  0  0  0999 V2000
  191.0010  173.5910  140.2760 C   0  0  0  0  0  0  0  0  0  0  0  0
  192.0830  175.3820  143.2200 C   0  0  0  0  0  0  0  0  0  0  0  0
  193.5840  175.4890  143.0260 C   0  0  2  0  0  3  0  0  0  0  0  0
  195.5900  174.0430  142.8730 C   0  0  0  0  0  3  0  0  0  0  0  0
  191.2680  174.7940  142.3100 C   0  0  0  0  0  0  0  0  0  0  0  0
  189.6190  173.5730  140.4530 C   0  0  0  0  0  3  0  0  0  0  0  0
  194.2750  174.1930  142.6720 C   0  0  0  0  0  3  0  0  0  0  0  0
  190.0430  176.0720  144.5050 N   0  0  0  0  0  0  0  0  0  0  0  0
  191.5170  173.0470  139.2650 O   0  0  0  0  0  0  0  0  0  0  0  0
  193.6390  176.7800  145.1540 C   0  0  0  0  0  3  0  0  0  0  0  0
  197.7980  174.9820  143.6100 N   0  0  0  0  0  1  0  0  0  0  0  0
  189.2660  175.3850  143.5170 C   0  0  0  0  0  3  0  0  0  0  0  0
  191.4710  176.0980  144.3650 C   0  0  0  0  0  0  0  0  0  0  0  0
  191.7880  174.1980  141.2000 N   0  0  0  0  0  2  0  0  0  0  0  0
  196.3820  175.0930  143.5550 C   0  0  0  0  0  0  0  0  0  0  0  0
  189.8560  174.7870  142.4760 C   0  0  0  0  0  0  0  0  0  0  0  0
  189.0790  174.1710  141.5450 N   0  0  0  0  0  0  0  0  0  0  0  0
  192.2070  176.7500  145.2200 N   0  0  0  0  0  0  0  0  0  0  0  0
  194.3020  176.1720  144.1700 C   0  0  0  0  0  0  0  0  0  0  0  0
  195.7680  176.0830  144.2140 C   0  0  0  0  0  3  0  0  0  0  0  0
  189.3700  176.6700  145.6500 C   0  0  0  0  0  2  0  0  0  0  0  0
  189.2050  174.7500  147.2030 C   0  0  0  0  0  1  0  0  0  0  0  0
  188.4210  175.6690  146.2890 C   0  0  1  0  0  3  0  0  0  0  0  0
  187.4000  176.3720  147.0540 N   0  0  0  0  0  2  0  0  0  0  0  0
  185.0690  177.8090  144.5000 C   0  0  0  0  0  0  0  0  0  0  0  0
  184.4800  178.6570  146.6900 C   0  0  0  0  0  3  0  0  0  0  0  0
  184.8310  177.7530  143.0350 C   0  0  0  0  0  1  0  0  0  0  0  0
  186.1080  177.0670  145.0680 C   0  0  0  0  0  3  0  0  0  0  0  0
  185.5200  177.9150  147.2580 C   0  0  0  0  0  3  0  0  0  0  0  0
  186.3370  177.1160  146.4510 C   0  0  0  0  0  0  0  0  0  0  0  0
  184.2540  178.6040  145.3110 C   0  0  0  0  0  3  0  0  0  0  0  0
  1  6  1  0  0  0  0
  1 14  1  0  0  0  0
  2 13  1  0  0  0  0
  3  7  1  1  0  0  0
  3  2  1  0  0  0  0
  3 19  1  0  0  0  0
  4 15  1  0  0  0  0
  5 16  1  0  0  0  0
  5  2  2  0  0  0  0
  6 17  2  0  0  0  0
  7  4  2  0  0  0  0
  8 21  1  0  0  0  0
  9  1  2  0  0  0  0
 10 18  1  0  0  0  0
 12  8  1  0  0  0  0
 13  8  1  0  0  0  0
 13 18  2  0  0  0  0
 14  5  1  0  0  0  0
 15 11  1  0  0  0  0
 15 20  2  0  0  0  0
 16 12  2  0  0  0  0
 17 16  1  0  0  0  0
 19 20  1  0  0  0  0
 19 10  2  0  0  0  0
 21 23  1  0  0  0  0
 23 24  1  0  0  0  0
 23 22  1  1  0  0  0
 25 28  2  0  0  0  0
 25 31  1  0  0  0  0
 26 29  1  0  0  0  0
 27 25  1  0  0  0  0
 28 30  1  0  0  0  0
 30 24  1  0  0  0  0
 30 29  2  0  0  0  0
 31 26  2  0  0  0  0
M  END
>  <MODEL>
3

>  <REMARK>
 VINA RESULT:      -7.8      3.243      4.293
  Name = 
  4 active torsions:
  status: ('A' for Active; 'I' for Inactive)
    1  A    between atoms: N_3  and  C_9
    2  A    between atoms: N_3  and  C_22
    3  A    between atoms: C_9  and  C_23
    4  A    between atoms: N_15  and  C_23
                            x       y       z     vdW  Elec       q    Type
                         _______ _______ _______ _____ _____    ______ ____

>  <TORSDO>
F 4

$$$$
=
 OpenBabel11052417433D

 31 35  0  0  1  0  0  0  0  0999 V2000
  190.7540  172.8380  141.7220 C   0  0  0  0  0  0  0  0  0  0  0  0
  191.6460  174.9140  144.5400 C   0  0  0  0  0  0  0  0  0  0  0  0
  193.1510  174.7450  144.6300 C   0  0  2  0  0  3  0  0  0  0  0  0
  194.8460  172.9940  145.0750 C   0  0  0  0  0  3  0  0  0  0  0  0
  190.8990  174.3150  143.5800 C   0  0  0  0  0  0  0  0  0  0  0  0
  189.3840  173.0710  141.6270 C   0  0  0  0  0  3  0  0  0  0  0  0
  193.6350  173.3140  144.6020 C   0  0  0  0  0  3  0  0  0  0  0  0
  189.5870  176.1300  145.2920 N   0  0  0  0  0  0  0  0  0  0  0  0
  191.3200  172.0520  140.9180 O   0  0  0  0  0  0  0  0  0  0  0  0
  193.0910  176.3580  146.5250 C   0  0  0  0  0  3  0  0  0  0  0  0
  197.0360  173.6830  146.0900 N   0  0  0  0  0  1  0  0  0  0  0  0
  188.8710  175.4170  144.2790 C   0  0  0  0  0  3  0  0  0  0  0  0
  190.9960  175.9040  145.4320 C   0  0  0  0  0  0  0  0  0  0  0  0
  191.4750  173.4620  142.6880 N   0  0  0  0  0  2  0  0  0  0  0  0
  195.6950  174.0060  145.7450 C   0  0  0  0  0  0  0  0  0  0  0  0
  189.5030  174.5620  143.4660 C   0  0  0  0  0  0  0  0  0  0  0  0
  188.7910  173.9260  142.4980 N   0  0  0  0  0  0  0  0  0  0  0  0
  191.6890  176.5680  146.3140 N   0  0  0  0  0  0  0  0  0  0  0  0
  193.7830  175.4920  145.7850 C   0  0  0  0  0  0  0  0  0  0  0  0
  195.1780  175.1800  146.1260 C   0  0  0  0  0  3  0  0  0  0  0  0
  188.8550  177.0170  146.1890 C   0  0  0  0  0  2  0  0  0  0  0  0
  186.5780  176.9270  147.1540 C   0  0  0  0  0  1  0  0  0  0  0  0
  187.3710  176.9910  145.8640 C   0  0  1  0  0  3  0  0  0  0  0  0
  187.0060  178.1890  145.1190 N   0  0  0  0  0  2  0  0  0  0  0  0
  185.8030  177.9380  141.5810 C   0  0  0  0  0  0  0  0  0  0  0  0
  183.9240  178.4010  143.0360 C   0  0  0  0  0  3  0  0  0  0  0  0
  186.3480  177.6920  140.2220 C   0  0  0  0  0  1  0  0  0  0  0  0
  186.6590  177.9410  142.6870 C   0  0  0  0  0  3  0  0  0  0  0  0
  184.7800  178.4040  144.1420 C   0  0  0  0  0  3  0  0  0  0  0  0
  186.1490  178.1720  143.9740 C   0  0  0  0  0  0  0  0  0  0  0  0
  184.4360  178.1670  141.7560 C   0  0  0  0  0  3  0  0  0  0  0  0
  1 14  1  0  0  0  0
  2  3  1  0  0  0  0
  2 13  1  0  0  0  0
  3  7  1  1  0  0  0
  3 19  1  0  0  0  0
  4 15  1  0  0  0  0
  5  2  2  0  0  0  0
  6  1  1  0  0  0  0
  6 17  2  0  0  0  0
  7  4  2  0  0  0  0
  8 13  1  0  0  0  0
  8 21  1  0  0  0  0
  9  1  2  0  0  0  0
 12  8  1  0  0  0  0
 13 18  2  0  0  0  0
 14  5  1  0  0  0  0
 15 11  1  0  0  0  0
 15 20  2  0  0  0  0
 16  5  1  0  0  0  0
 16 12  2  0  0  0  0
 17 16  1  0  0  0  0
 18 10  1  0  0  0  0
 19 20  1  0  0  0  0
 19 10  2  0  0  0  0
 23 21  1  0  0  0  0
 23 22  1  1  0  0  0
 24 23  1  0  0  0  0
 25 31  2  0  0  0  0
 25 28  1  0  0  0  0
 26 29  2  0  0  0  0
 27 25  1  0  0  0  0
 28 30  2  0  0  0  0
 30 29  1  0  0  0  0
 30 24  1  0  0  0  0
 31 26  1  0  0  0  0
M  END
>  <MODEL>
4

>  <REMARK>
 VINA RESULT:      -7.8      2.619      4.027
  Name = 
  4 active torsions:
  status: ('A' for Active; 'I' for Inactive)
    1  A    between atoms: N_3  and  C_9
    2  A    between atoms: N_3  and  C_22
    3  A    between atoms: C_9  and  C_23
    4  A    between atoms: N_15  and  C_23
                            x       y       z     vdW  Elec       q    Type
                         _______ _______ _______ _____ _____    ______ ____

>  <TORSDO>
F 4

$$$$
=
 OpenBabel11052417433D

 31 35  0  0  1  0  0  0  0  0999 V2000
  186.3940  178.5650  147.0550 C   0  0  0  0  0  0  0  0  0  0  0  0
  187.1860  177.2010  143.8060 C   0  0  0  0  0  0  0  0  0  0  0  0
  186.2220  177.9230  142.8840 C   0  0  0  0  0  0  0  0  0  0  0  0
  183.7890  178.1390  142.4680 C   0  0  0  0  0  3  0  0  0  0  0  0
  187.2460  177.4430  145.1390 C   0  0  0  0  0  0  0  0  0  0  0  0
  187.3400  177.9340  147.8600 C   0  0  0  0  0  3  0  0  0  0  0  0
  184.7810  177.9200  143.3400 C   0  0  0  0  0  3  0  0  0  0  0  0
  189.1840  175.7060  144.0560 N   0  0  0  0  0  0  0  0  0  0  0  0
  185.5670  179.3670  147.5600 O   0  0  0  0  0  0  0  0  0  0  0  0
  187.2900  176.6860  141.0070 C   0  0  0  0  0  3  0  0  0  0  0  0
  183.0180  178.6660  140.1380 N   0  0  0  0  0  1  0  0  0  0  0  0
  189.1390  175.9860  145.4590 C   0  0  0  0  0  3  0  0  0  0  0  0
  188.2150  176.3230  143.1970 C   0  0  0  0  0  0  0  0  0  0  0  0
  186.3690  178.3080  145.7230 N   0  0  0  0  0  2  0  0  0  0  0  0
  184.0630  178.2720  141.0190 C   0  0  0  0  0  0  0  0  0  0  0  0
  188.2190  176.8160  145.9630 C   0  0  0  0  0  0  0  0  0  0  0  0
  188.2300  177.0770  147.2980 N   0  0  0  0  0  0  0  0  0  0  0  0
  188.2520  176.1270  141.9100 N   0  0  0  0  0  0  0  0  0  0  0  0
  186.3170  177.4890  141.4370 C   0  0  0  0  0  0  0  0  0  0  0  0
  185.2530  177.9180  140.5190 C   0  0  0  0  0  2  0  0  0  0  0  0
  190.1700  174.7580  143.5510 C   0  0  0  0  0  2  0  0  0  0  0  0
  189.8540  172.4050  144.2490 C   0  0  0  0  0  1  0  0  0  0  0  0
  190.5030  173.7240  144.6140 C   0  0  1  0  0  3  0  0  0  0  0  0
  191.9480  173.5550  144.7040 N   0  0  0  0  0  2  0  0  0  0  0  0
  194.7810  176.0040  144.7410 C   0  0  0  0  0  0  0  0  0  0  0  0
  193.4910  176.2390  146.7760 C   0  0  0  0  0  3  0  0  0  0  0  0
  195.9240  176.4160  143.8880 C   0  0  0  0  0  1  0  0  0  0  0  0
  193.9190  174.9890  144.3130 C   0  0  0  0  0  3  0  0  0  0  0  0
  192.6290  175.2250  146.3480 C   0  0  0  0  0  3  0  0  0  0  0  0
  192.8380  174.5960  145.1160 C   0  0  0  0  0  0  0  0  0  0  0  0
  194.5660  176.6290  145.9730 C   0  0  0  0  0  3  0  0  0  0  0  0
  1  9  2  0  0  0  0
  1  6  1  0  0  0  0
  2  5  2  0  0  0  0
  3  7  2  0  0  0  0
  3  2  1  0  0  0  0
  4  7  1  0  0  0  0
  5 14  1  0  0  0  0
  5 16  1  0  0  0  0
  8 12  1  0  0  0  0
 10 19  2  0  0  0  0
 10 18  1  0  0  0  0
 11 15  1  0  0  0  0
 12 16  2  0  0  0  0
 13  2  1  0  0  0  0
 13  8  1  0  0  0  0
 14  1  1  0  0  0  0
 15  4  2  0  0  0  0
 16 17  1  0  0  0  0
 17  6  2  0  0  0  0
 18 13  2  0  0  0  0
 19  3  1  0  0  0  0
 20 15  1  0  0  0  0
 20 19  1  0  0  0  0
 21  8  1  0  0  0  0
 21 23  1  0  0  0  0
 23 22  1  6  0  0  0
 23 24  1  0  0  0  0
 24 30  1  0  0  0  0
 25 31  1  0  0  0  0
 27 25  1  0  0  0  0
 28 25  2  0  0  0  0
 28 30  1  0  0  0  0
 29 26  1  0  0  0  0
 30 29  2  0  0  0  0
 31 26  2  0  0  0  0
M  END
>  <MODEL>
5

>  <REMARK>
 VINA RESULT:      -7.8      3.186      7.627
  Name = 
  4 active torsions:
  status: ('A' for Active; 'I' for Inactive)
    1  A    between atoms: N_3  and  C_9
    2  A    between atoms: N_3  and  C_22
    3  A    between atoms: C_9  and  C_23
    4  A    between atoms: N_15  and  C_23
                            x       y       z     vdW  Elec       q    Type
                         _______ _______ _______ _____ _____    ______ ____

>  <TORSDO>
F 4

$$$$
=
 OpenBabel11052417433D

 31 35  0  0  1  0  0  0  0  0999 V2000
  188.7700  174.7080  140.8870 C   0  0  0  0  0  0  0  0  0  0  0  0
  188.2520  175.8420  144.2770 C   0  0  0  0  0  0  0  0  0  0  0  0
  186.8420  176.3990  144.2430 C   0  0  2  0  0  3  0  0  0  0  0  0
  185.5410  178.2190  143.1790 C   0  0  0  0  0  3  0  0  0  0  0  0
  188.8420  175.2760  143.1950 C   0  0  0  0  0  0  0  0  0  0  0  0
  190.0400  174.1430  140.9730 C   0  0  0  0  0  3  0  0  0  0  0  0
  186.5620  177.3560  143.1080 C   0  0  0  0  0  3  0  0  0  0  0  0
  190.2430  175.1570  145.6380 N   0  0  0  0  0  0  0  0  0  0  0  0
  188.1510  174.7120  139.7910 O   0  0  0  0  0  0  0  0  0  0  0  0
  187.1020  176.8620  146.6750 C   0  0  0  0  0  3  0  0  0  0  0  0
  183.5570  179.1450  144.4090 N   0  0  0  0  0  1  0  0  0  0  0  0
  190.8060  174.6270  144.4330 C   0  0  0  0  0  3  0  0  0  0  0  0
  188.9430  175.7610  145.5870 C   0  0  0  0  0  0  0  0  0  0  0  0
  188.2030  175.2560  141.9920 N   0  0  0  0  0  2  0  0  0  0  0  0
  184.7320  178.3440  144.4140 C   0  0  0  0  0  0  0  0  0  0  0  0
  190.1310  174.6830  143.2800 C   0  0  0  0  0  0  0  0  0  0  0  0
  190.6900  174.1430  142.1640 N   0  0  0  0  0  0  0  0  0  0  0  0
  188.3810  176.2140  146.6710 N   0  0  0  0  0  0  0  0  0  0  0  0
  186.3870  176.9950  145.5580 C   0  0  0  0  0  0  0  0  0  0  0  0
  185.1580  177.8000  145.5600 C   0  0  0  0  0  3  0  0  0  0  0  0
  191.0280  175.1210  146.8660 C   0  0  0  0  0  2  0  0  0  0  0  0
  191.3950  177.1630  148.2160 C   0  0  0  0  0  1  0  0  0  0  0  0
  191.8590  176.3870  147.0000 C   0  0  1  0  0  3  0  0  0  0  0  0
  193.2680  176.0430  147.1430 N   0  0  0  0  0  2  0  0  0  0  0  0
  196.0660  174.7150  145.0380 C   0  0  0  0  0  0  0  0  0  0  0  0
  194.7310  176.2480  143.7230 C   0  0  0  0  0  3  0  0  0  0  0  0
  197.2210  173.7890  145.1550 C   0  0  0  0  0  1  0  0  0  0  0  0
  195.2270  174.9280  146.1360 C   0  0  0  0  0  3  0  0  0  0  0  0
  193.8920  176.4610  144.8210 C   0  0  0  0  0  3  0  0  0  0  0  0
  194.1350  175.8020  146.0310 C   0  0  0  0  0  0  0  0  0  0  0  0
  195.8180  175.3750  143.8310 C   0  0  0  0  0  3  0  0  0  0  0  0
  1  6  1  0  0  0  0
  1 14  1  0  0  0  0
  2 13  1  0  0  0  0
  3  7  1  6  0  0  0
  3  2  1  0  0  0  0
  3 19  1  0  0  0  0
  4 15  1  0  0  0  0
  5 16  1  0  0  0  0
  5  2  2  0  0  0  0
  6 17  2  0  0  0  0
  7  4  2  0  0  0  0
  8 21  1  0  0  0  0
  9  1  2  0  0  0  0
 11 15  1  0  0  0  0
 12  8  1  0  0  0  0
 13  8  1  0  0  0  0
 13 18  2  0  0  0  0
 14  5  1  0  0  0  0
 15 20  2  0  0  0  0
 16 12  2  0  0  0  0
 17 16  1  0  0  0  0
 18 10  1  0  0  0  0
 19 20  1  0  0  0  0
 19 10  2  0  0  0  0
 21 23  1  0  0  0  0
 23 24  1  0  0  0  0
 23 22  1  1  0  0  0
 25 27  1  0  0  0  0
 25 28  1  0  0  0  0
 26 31  1  0  0  0  0
 26 29  2  0  0  0  0
 29 30  1  0  0  0  0
 30 28  2  0  0  0  0
 30 24  1  0  0  0  0
 31 25  2  0  0  0  0
M  END
>  <MODEL>
6

>  <REMARK>
 VINA RESULT:      -7.8      2.967      7.002
  Name = 
  4 active torsions:
  status: ('A' for Active; 'I' for Inactive)
    1  A    between atoms: N_3  and  C_9
    2  A    between atoms: N_3  and  C_22
    3  A    between atoms: C_9  and  C_23
    4  A    between atoms: N_15  and  C_23
                            x       y       z     vdW  Elec       q    Type
                         _______ _______ _______ _____ _____    ______ ____

>  <TORSDO>
F 4

$$$$
=
 OpenBabel11052417433D

 31 35  0  0  1  0  0  0  0  0999 V2000
  188.7980  173.1920  140.0960 C   0  0  0  0  0  0  0  0  0  0  0  0
  189.4000  175.7200  142.6050 C   0  0  0  0  0  0  0  0  0  0  0  0
  188.0010  176.1180  143.0360 C   0  0  2  0  0  3  0  0  0  0  0  0
  185.9550  177.1710  142.1190 C   0  0  0  0  0  3  0  0  0  0  0  0
  189.6350  174.7570  141.6800 C   0  0  0  0  0  0  0  0  0  0  0  0
  190.0970  172.8040  139.7760 C   0  0  0  0  0  3  0  0  0  0  0  0
  187.0500  176.4320  141.9050 C   0  0  0  0  0  3  0  0  0  0  0  0
  191.8730  175.8490  143.0010 N   0  0  0  0  0  0  0  0  0  0  0  0
  187.8160  172.6580  139.5180 O   0  0  0  0  0  0  0  0  0  0  0  0
  189.0790  177.6560  144.6700 C   0  0  0  0  0  3  0  0  0  0  0  0
  184.4600  178.4410  143.6860 N   0  0  0  0  0  1  0  0  0  0  0  0
  192.0250  174.8600  141.9780 C   0  0  0  0  0  3  0  0  0  0  0  0
  190.5510  176.2880  143.3480 C   0  0  0  0  0  0  0  0  0  0  0  0
  188.5980  174.1520  141.0350 N   0  0  0  0  0  2  0  0  0  0  0  0
  185.7050  177.8000  143.4370 C   0  0  0  0  0  0  0  0  0  0  0  0
  190.9570  174.3430  141.3600 C   0  0  0  0  0  0  0  0  0  0  0  0
  191.1440  173.3850  140.4140 N   0  0  0  0  0  0  0  0  0  0  0  0
  190.3710  177.1530  144.3050 N   0  0  0  0  0  0  0  0  0  0  0  0
  187.9700  177.2220  144.0710 C   0  0  0  0  0  0  0  0  0  0  0  0
  186.6800  177.8670  144.3510 C   0  0  0  0  0  3  0  0  0  0  0  0
  193.0620  176.4240  143.6180 C   0  0  0  0  0  2  0  0  0  0  0  0
  195.4760  175.9320  143.8520 C   0  0  0  0  0  1  0  0  0  0  0  0
  194.0840  175.3380  143.9110 C   0  0  1  0  0  3  0  0  0  0  0  0
  193.8430  174.7760  145.2340 N   0  0  0  0  0  2  0  0  0  0  0  0
  190.6460  175.1910  147.1390 C   0  0  0  0  0  0  0  0  0  0  0  0
  192.1960  176.9350  147.7850 C   0  0  0  0  0  3  0  0  0  0  0  0
  189.3160  174.5410  147.2630 C   0  0  0  0  0  1  0  0  0  0  0  0
  191.5980  174.6720  146.2570 C   0  0  0  0  0  3  0  0  0  0  0  0
  193.1490  176.4160  146.9030 C   0  0  0  0  0  3  0  0  0  0  0  0
  192.8560  175.2830  146.1360 C   0  0  0  0  0  0  0  0  0  0  0  0
  190.9450  176.3220  147.9040 C   0  0  0  0  0  3  0  0  0  0  0  0
  1 14  1  0  0  0  0
  2  3  1  0  0  0  0
  2 13  1  0  0  0  0
  3  7  1  6  0  0  0
  3 19  1  0  0  0  0
  4 15  1  0  0  0  0
  5  2  2  0  0  0  0
  6  1  1  0  0  0  0
  6 17  2  0  0  0  0
  7  4  2  0  0  0  0
  8 13  1  0  0  0  0
  8 21  1  0  0  0  0
  9  1  2  0  0  0  0
 12  8  1  0  0  0  0
 13 18  2  0  0  0  0
 14  5  1  0  0  0  0
 15 11  1  0  0  0  0
 15 20  2  0  0  0  0
 16  5  1  0  0  0  0
 16 12  2  0  0  0  0
 17 16  1  0  0  0  0
 18 10  1  0  0  0  0
 19 20  1  0  0  0  0
 19 10  2  0  0  0  0
 21 23  1  0  0  0  0
 23 22  1  1  0  0  0
 23 24  1  0  0  0  0
 24 30  1  0  0  0  0
 25 27  1  0  0  0  0
 25 31  1  0  0  0  0
 26 31  2  0  0  0  0
 28 25  2  0  0  0  0
 29 26  1  0  0  0  0
 30 28  1  0  0  0  0
 30 29  2  0  0  0  0
M  END
>  <MODEL>
7

>  <REMARK>
 VINA RESULT:      -7.7      2.288      5.694
  Name = 
  4 active torsions:
  status: ('A' for Active; 'I' for Inactive)
    1  A    between atoms: N_3  and  C_9
    2  A    between atoms: N_3  and  C_22
    3  A    between atoms: C_9  and  C_23
    4  A    between atoms: N_15  and  C_23
                            x       y       z     vdW  Elec       q    Type
                         _______ _______ _______ _____ _____    ______ ____

>  <TORSDO>
F 4

$$$$
=
 OpenBabel11052417433D

 31 35  0  0  1  0  0  0  0  0999 V2000
  190.7860  171.5980  141.3920 C   0  0  0  0  0  0  0  0  0  0  0  0
  192.1360  173.6120  144.0690 C   0  0  0  0  0  0  0  0  0  0  0  0
  193.5650  173.1150  144.1870 C   0  0  2  0  0  3  0  0  0  0  0  0
  194.8220  171.0620  144.7730 C   0  0  0  0  0  3  0  0  0  0  0  0
  191.2690  173.1310  143.1440 C   0  0  0  0  0  0  0  0  0  0  0  0
  189.5030  172.1270  141.2650 C   0  0  0  0  0  3  0  0  0  0  0  0
  193.7130  171.6140  144.2650 C   0  0  0  0  0  3  0  0  0  0  0  0
  190.4080  175.3110  144.7110 N   0  0  0  0  0  0  0  0  0  0  0  0
  191.1560  170.6500  140.6510 O   0  0  0  0  0  0  0  0  0  0  0  0
  193.8790  174.8290  145.9650 C   0  0  0  0  0  3  0  0  0  0  0  0
  197.1160  171.3090  145.7620 N   0  0  0  0  0  1  0  0  0  0  0  0
  189.5450  174.7080  143.7410 C   0  0  0  0  0  3  0  0  0  0  0  0
  191.7310  174.7840  144.8820 C   0  0  0  0  0  0  0  0  0  0  0  0
  191.6340  172.1090  142.3200 N   0  0  0  0  0  2  0  0  0  0  0  0
  195.8810  171.9010  145.3800 C   0  0  0  0  0  0  0  0  0  0  0  0
  189.9640  173.6780  142.9980 C   0  0  0  0  0  0  0  0  0  0  0  0
  189.1230  173.1520  142.0680 N   0  0  0  0  0  0  0  0  0  0  0  0
  192.5590  175.3340  145.7240 N   0  0  0  0  0  0  0  0  0  0  0  0
  194.3540  173.7790  145.2950 C   0  0  0  0  0  0  0  0  0  0  0  0
  195.6440  173.1850  145.6730 C   0  0  0  0  0  3  0  0  0  0  0  0
  189.9000  176.4010  145.5360 C   0  0  0  0  0  2  0  0  0  0  0  0
  188.9390  174.9210  147.2710 C   0  0  0  0  0  1  0  0  0  0  0  0
  188.6180  175.9800  146.2370 C   0  0  1  0  0  3  0  0  0  0  0  0
  188.0070  177.1340  146.8850 N   0  0  0  0  0  2  0  0  0  0  0  0
  185.3420  178.8050  144.8550 C   0  0  0  0  0  0  0  0  0  0  0  0
  184.4400  178.1990  147.0180 C   0  0  0  0  0  3  0  0  0  0  0  0
  185.1660  179.4160  143.5120 C   0  0  0  0  0  1  0  0  0  0  0  0
  186.5780  178.2640  145.2190 C   0  0  0  0  0  3  0  0  0  0  0  0
  185.6770  177.6570  147.3830 C   0  0  0  0  0  3  0  0  0  0  0  0
  186.7500  177.6860  146.4860 C   0  0  0  0  0  0  0  0  0  0  0  0
  184.2720  178.7720  145.7540 C   0  0  0  0  0  3  0  0  0  0  0  0
  1 14  1  0  0  0  0
  2  3  1  0  0  0  0
  2 13  1  0  0  0  0
  3  7  1  1  0  0  0
  3 19  1  0  0  0  0
  4 15  1  0  0  0  0
  5  2  2  0  0  0  0
  6  1  1  0  0  0  0
  6 17  2  0  0  0  0
  7  4  2  0  0  0  0
  8 13  1  0  0  0  0
  8 21  1  0  0  0  0
  9  1  2  0  0  0  0
 12  8  1  0  0  0  0
 13 18  2  0  0  0  0
 14  5  1  0  0  0  0
 15 20  2  0  0  0  0
 15 11  1  0  0  0  0
 16  5  1  0  0  0  0
 16 12  2  0  0  0  0
 17 16  1  0  0  0  0
 18 10  1  0  0  0  0
 19 20  1  0  0  0  0
 19 10  2  0  0  0  0
 21 23  1  0  0  0  0
 23 24  1  0  0  0  0
 23 22  1  1  0  0  0
 25 28  2  0  0  0  0
 25 31  1  0  0  0  0
 26 29  1  0  0  0  0
 27 25  1  0  0  0  0
 28 30  1  0  0  0  0
 30 24  1  0  0  0  0
 30 29  2  0  0  0  0
 31 26  2  0  0  0  0
M  END
>  <MODEL>
8

>  <REMARK>
 VINA RESULT:      -7.6      3.174      4.429
  Name = 
  4 active torsions:
  status: ('A' for Active; 'I' for Inactive)
    1  A    between atoms: N_3  and  C_9
    2  A    between atoms: N_3  and  C_22
    3  A    between atoms: C_9  and  C_23
    4  A    between atoms: N_15  and  C_23
                            x       y       z     vdW  Elec       q    Type
                         _______ _______ _______ _____ _____    ______ ____

>  <TORSDO>
F 4

$$$$
=
 OpenBabel11052417433D

 31 35  0  0  1  0  0  0  0  0999 V2000
  189.1910  173.9310  141.3610 C   0  0  0  0  0  0  0  0  0  0  0  0
  190.0400  175.7550  144.3600 C   0  0  0  0  0  0  0  0  0  0  0  0
  188.7080  175.8840  145.0740 C   0  0  2  0  0  3  0  0  0  0  0  0
  186.4840  176.9330  144.7760 C   0  0  0  0  0  3  0  0  0  0  0  0
  190.1790  175.0980  143.1830 C   0  0  0  0  0  0  0  0  0  0  0  0
  190.4420  173.7710  140.7690 C   0  0  0  0  0  3  0  0  0  0  0  0
  187.5710  176.3890  144.2170 C   0  0  0  0  0  3  0  0  0  0  0  0
  192.5330  176.0210  144.4300 N   0  0  0  0  0  0  0  0  0  0  0  0
  188.1620  173.4730  140.8010 O   0  0  0  0  0  0  0  0  0  0  0  0
  189.9430  177.0380  146.9020 C   0  0  0  0  0  3  0  0  0  0  0  0
  185.1890  177.5910  146.8240 N   0  0  0  0  0  1  0  0  0  0  0  0
  192.5760  175.3570  143.1620 C   0  0  0  0  0  3  0  0  0  0  0  0
  191.2610  176.2190  145.0640 C   0  0  0  0  0  0  0  0  0  0  0  0
  189.0890  174.5840  142.5460 N   0  0  0  0  0  2  0  0  0  0  0  0
  186.4120  177.1650  146.2370 C   0  0  0  0  0  0  0  0  0  0  0  0
  191.4540  174.9170  142.5810 C   0  0  0  0  0  0  0  0  0  0  0  0
  191.5420  174.2660  141.3910 N   0  0  0  0  0  0  0  0  0  0  0  0
  191.1870  176.7800  146.2370 N   0  0  0  0  0  0  0  0  0  0  0  0
  188.7800  176.6680  146.3670 C   0  0  0  0  0  0  0  0  0  0  0  0
  187.5160  177.0850  146.9910 C   0  0  0  0  0  3  0  0  0  0  0  0
  193.7700  176.5290  145.0100 C   0  0  0  0  0  2  0  0  0  0  0  0
  195.9260  176.7960  143.8240 C   0  0  0  0  0  1  0  0  0  0  0  0
  194.9670  175.7920  144.4300 C   0  0  1  0  0  3  0  0  0  0  0  0
  195.6400  175.0380  145.4800 N   0  0  0  0  0  2  0  0  0  0  0  0
  194.6260  171.4500  145.1350 C   0  0  0  0  0  0  0  0  0  0  0  0
  196.8290  171.5680  146.1300 C   0  0  0  0  0  3  0  0  0  0  0  0
  193.4770  170.6470  144.6430 C   0  0  0  0  0  1  0  0  0  0  0  0
  194.5820  172.8460  145.0670 C   0  0  0  0  0  3  0  0  0  0  0  0
  196.7860  172.9640  146.0630 C   0  0  0  0  0  3  0  0  0  0  0  0
  195.6640  173.6090  145.5310 C   0  0  0  0  0  0  0  0  0  0  0  0
  195.7500  170.8110  145.6660 C   0  0  0  0  0  3  0  0  0  0  0  0
  1 14  1  0  0  0  0
  2 13  1  0  0  0  0
  2  3  1  0  0  0  0
  3  7  1  6  0  0  0
  3 19  1  0  0  0  0
  4 15  1  0  0  0  0
  5  2  2  0  0  0  0
  6  1  1  0  0  0  0
  6 17  2  0  0  0  0
  7  4  2  0  0  0  0
  8 21  1  0  0  0  0
  8 13  1  0  0  0  0
  9  1  2  0  0  0  0
 12  8  1  0  0  0  0
 13 18  2  0  0  0  0
 14  5  1  0  0  0  0
 15 11  1  0  0  0  0
 15 20  2  0  0  0  0
 16 12  2  0  0  0  0
 16  5  1  0  0  0  0
 17 16  1  0  0  0  0
 18 10  1  0  0  0  0
 19 10  2  0  0  0  0
 19 20  1  0  0  0  0
 23 22  1  1  0  0  0
 23 21  1  0  0  0  0
 23 24  1  0  0  0  0
 24 30  1  0  0  0  0
 25 31  1  0  0  0  0
 27 25  1  0  0  0  0
 28 25  2  0  0  0  0
 28 30  1  0  0  0  0
 29 26  1  0  0  0  0
 30 29  2  0  0  0  0
 31 26  2  0  0  0  0
M  END
>  <MODEL>
9

>  <REMARK>
 VINA RESULT:      -7.5      3.773      7.359
  Name = 
  4 active torsions:
  status: ('A' for Active; 'I' for Inactive)
    1  A    between atoms: N_3  and  C_9
    2  A    between atoms: N_3  and  C_22
    3  A    between atoms: C_9  and  C_23
    4  A    between atoms: N_15  and  C_23
                            x       y       z     vdW  Elec       q    Type
                         _______ _______ _______ _____ _____    ______ ____

>  <TORSDO>
F 4

$$$$
