=
 OpenBabel11052421223D

 43 47  0  0  1  0  0  0  0  0999 V2000
  190.4600  172.0840  142.3190 N   0  0  0  0  0  0  0  0  0  0  0  0
  190.6970  172.2710  143.7240 C   0  0  0  0  0  0  0  0  0  0  0  0
  189.7390  172.2040  144.5410 O   0  0  0  0  0  0  0  0  0  0  0  0
  193.3560  174.4680  138.5810 C   0  0  0  0  0  0  0  0  0  0  0  0
  191.4650  172.9100  139.2360 C   0  0  1  0  0  3  0  0  0  0  0  0
  193.8350  174.4590  139.7860 N   0  0  0  0  0  0  0  0  0  0  0  0
  193.8990  175.4240  137.5780 C   0  0  0  0  0  1  0  0  0  0  0  0
  191.8860  173.2160  140.6660 C   0  0  2  0  0  3  0  0  0  0  0  0
  192.2640  173.6130  138.2290 N   0  0  0  0  0  2  0  0  0  0  0  0
  193.3910  173.4800  140.7710 C   0  0  0  0  0  2  0  0  0  0  0  0
  191.5920  171.9240  141.4040 C   0  0  2  0  0  3  0  0  0  0  0  0
  191.3300  170.8590  140.4340 N   0  0  0  0  0  2  0  0  0  0  0  0
  191.6160  171.4180  139.1160 C   0  0  0  0  0  2  0  0  0  0  0  0
  192.0810  172.4990  144.2450 C   0  0  0  0  0  2  0  0  0  0  0  0
  192.8820  175.7660  143.6810 C   0  0  1  0  0  3  0  0  0  0  0  0
  193.8300  176.2650  144.7810 C   0  0  2  0  0  3  0  0  0  0  0  0
  195.4760  176.4300  144.1160 Cl  0  0  0  0  0  0  0  0  0  0  0  0
  193.5640  173.9060  145.6560 C   0  0  0  0  0  2  0  0  0  0  0  0
  191.6990  174.9910  144.2600 C   0  0  0  0  0  2  0  0  0  0  0  0
  192.1510  173.7680  145.0810 C   0  0  1  0  0  3  0  0  0  0  0  0
  192.3790  176.9440  142.8710 C   0  0  0  0  0  1  0  0  0  0  0  0
  193.8640  175.3580  146.0200 C   0  0  0  0  0  2  0  0  0  0  0  0
  189.0860  171.9600  141.8290 C   0  0  0  0  0  2  0  0  0  0  0  0
  188.5460  173.2940  141.3110 C   0  0  0  0  0  2  0  0  0  0  0  0
  187.4960  173.7700  142.1070 O   0  0  0  0  0  0  0  0  0  0  0  0
  187.8650  175.0630  142.4930 C   0  0  0  0  0  2  0  0  0  0  0  0
  186.6480  175.9800  142.5390 C   0  0  0  0  0  2  0  0  0  0  0  0
  186.4740  178.4910  142.9300 N   0  0  0  0  0  2  0  0  0  0  0  0
  186.9990  177.3900  142.1800 C   0  0  0  0  0  0  0  0  0  0  0  0
  187.7110  177.6150  141.1680 O   0  0  0  0  0  0  0  0  0  0  0  0
  186.0720  178.4300  144.3070 C   0  0  0  0  0  0  0  0  0  0  0  0
  186.5850  177.9510  146.6340 C   0  0  0  0  0  3  0  0  0  0  0  0
  184.7410  178.6880  144.6720 C   0  0  0  0  0  3  0  0  0  0  0  0
  184.3370  178.5840  146.0040 C   0  0  0  0  0  3  0  0  0  0  0  0
  186.9950  178.0510  145.2980 C   0  0  0  0  0  0  0  0  0  0  0  0
  185.2590  178.2140  146.9850 C   0  0  0  0  0  3  0  0  0  0  0  0
  188.4390  177.8470  144.9660 C   0  0  0  0  0  2  0  0  0  0  0  0
  189.0730  176.9210  145.9520 C   0  0  0  0  0  0  0  0  0  0  0  0
  190.3020  175.1710  147.7600 C   0  0  0  0  0  3  0  0  0  0  0  0
  189.2050  174.7410  147.0080 C   0  0  0  0  0  3  0  0  0  0  0  0
  190.7850  176.4760  147.6120 C   0  0  0  0  0  3  0  0  0  0  0  0
  188.5900  175.6160  146.1070 C   0  0  0  0  0  3  0  0  0  0  0  0
  190.1730  177.3500  146.7070 C   0  0  0  0  0  3  0  0  0  0  0  0
  1  2  1  0  0  0  0
  2 14  1  0  0  0  0
  2  3  2  0  0  0  0
  4  6  2  0  0  0  0
  5 13  1  6  0  0  0
  5  8  1  0  0  0  0
  6 10  1  0  0  0  0
  7  4  1  0  0  0  0
  8 10  1  6  0  0  0
  8 11  1  0  0  0  0
  9  4  1  0  0  0  0
  9  5  1  0  0  0  0
 11  1  1  1  0  0  0
 12 11  1  0  0  0  0
 13 12  1  0  0  0  0
 15 21  1  1  0  0  0
 15 19  1  0  0  0  0
 15 16  1  0  0  0  0
 16 17  1  6  0  0  0
 16 22  1  0  0  0  0
 18 22  1  0  0  0  0
 19 20  1  0  0  0  0
 20 14  1  6  0  0  0
 20 18  1  0  0  0  0
 23  1  1  0  0  0  0
 24 23  1  0  0  0  0
 24 25  1  0  0  0  0
 25 26  1  0  0  0  0
 26 27  1  0  0  0  0
 28 31  1  0  0  0  0
 29 27  1  0  0  0  0
 29 28  1  0  0  0  0
 30 29  2  0  0  0  0
 31 33  2  0  0  0  0
 31 35  1  0  0  0  0
 32 36  1  0  0  0  0
 33 34  1  0  0  0  0
 34 36  2  0  0  0  0
 35 32  2  0  0  0  0
 37 35  1  0  0  0  0
 37 38  1  0  0  0  0
 38 42  2  0  0  0  0
 38 43  1  0  0  0  0
 40 39  2  0  0  0  0
 41 39  1  0  0  0  0
 42 40  1  0  0  0  0
 43 41  2  0  0  0  0
M  END
>  <MODEL>
1

>  <REMARK>
 VINA RESULT:      -7.6      0.000      0.000
  Name = 
  12 active torsions:
  status: ('A' for Active; 'I' for Inactive)
    1  A    between atoms: C_1  and  C_34
    2  A    between atoms: C_1  and  C_35
    3  A    between atoms: O_2  and  C_7
    4  A    between atoms: O_2  and  C_13
    5  A    between atoms: N_3  and  C_4
    6  A    between atoms: C_6  and  C_7
    7  A    between atoms: C_6  and  C_12
    8  A    between atoms: N_8  and  C_27
    9  A    between atoms: N_8  and  C_30
   10  A    between atoms: C_11  and  C_14
   11  A    between atoms: C_13  and  C_27
   12  A    between atoms: C_14  and  C_41
                            x       y       z     vdW  Elec       q    Type
                         _______ _______ _______ _____ _____    ______ ____

>  <TORSDO>
F 12

$$$$
=
 OpenBabel11052421223D

 43 47  0  0  1  0  0  0  0  0999 V2000
  195.5540  174.1970  143.7270 N   0  0  0  0  0  0  0  0  0  0  0  0
  194.8420  174.9390  142.7240 C   0  0  0  0  0  0  0  0  0  0  0  0
  194.9400  176.1940  142.6780 O   0  0  0  0  0  0  0  0  0  0  0  0
  195.2090  169.6770  146.4660 C   0  0  0  0  0  0  0  0  0  0  0  0
  196.6130  171.5240  145.4400 C   0  0  1  0  0  3  0  0  0  0  0  0
  194.1620  170.0470  145.7960 N   0  0  0  0  0  0  0  0  0  0  0  0
  195.0760  168.6580  147.5420 C   0  0  0  0  0  1  0  0  0  0  0  0
  195.2820  172.0860  144.9600 C   0  0  2  0  0  3  0  0  0  0  0  0
  196.4780  170.2940  146.2240 N   0  0  0  0  0  2  0  0  0  0  0  0
  194.2650  170.9760  144.6780 C   0  0  0  0  0  2  0  0  0  0  0  0
  195.6320  172.7370  143.6350 C   0  0  2  0  0  3  0  0  0  0  0  0
  196.9720  172.3130  143.2250 N   0  0  0  0  0  2  0  0  0  0  0  0
  197.3940  171.2890  144.1750 C   0  0  0  0  0  2  0  0  0  0  0  0
  194.0150  174.2370  141.6930 C   0  0  0  0  0  2  0  0  0  0  0  0
  191.1910  173.4110  143.4190 C   0  0  1  0  0  3  0  0  0  0  0  0
  190.0070  173.2910  142.4490 C   0  0  2  0  0  3  0  0  0  0  0  0
  189.5890  171.5710  142.2340 Cl  0  0  0  0  0  0  0  0  0  0  0  0
  191.7520  173.8990  140.7230 C   0  0  0  0  0  2  0  0  0  0  0  0
  192.0110  174.6740  143.1590 C   0  0  0  0  0  2  0  0  0  0  0  0
  192.5720  174.7180  141.7250 C   0  0  1  0  0  3  0  0  0  0  0  0
  190.6810  173.4120  144.8460 C   0  0  0  0  0  1  0  0  0  0  0  0
  190.2680  173.9320  141.0780 C   0  0  0  0  0  2  0  0  0  0  0  0
  196.2750  174.9140  144.7790 C   0  0  0  0  0  2  0  0  0  0  0  0
  195.3570  175.2860  145.9440 C   0  0  0  0  0  2  0  0  0  0  0  0
  194.8420  176.5800  145.8040 O   0  0  0  0  0  0  0  0  0  0  0  0
  193.9090  176.7350  146.8350 C   0  0  0  0  0  2  0  0  0  0  0  0
  192.5980  176.0440  146.4840 C   0  0  0  0  0  2  0  0  0  0  0  0
  190.3990  177.2810  146.8470 N   0  0  0  0  0  2  0  0  0  0  0  0
  191.4760  176.4940  147.3680 C   0  0  0  0  0  0  0  0  0  0  0  0
  191.5110  176.2330  148.5980 O   0  0  0  0  0  0  0  0  0  0  0  0
  189.9610  177.2700  145.4800 C   0  0  0  0  0  0  0  0  0  0  0  0
  188.3860  176.5420  143.7770 C   0  0  0  0  0  3  0  0  0  0  0  0
  190.7280  177.8900  144.4810 C   0  0  0  0  0  3  0  0  0  0  0  0
  190.3260  177.8410  143.1450 C   0  0  0  0  0  3  0  0  0  0  0  0
  188.7860  176.5860  145.1190 C   0  0  0  0  0  0  0  0  0  0  0  0
  189.1560  177.1660  142.7930 C   0  0  0  0  0  3  0  0  0  0  0  0
  187.8970  175.9830  146.1600 C   0  0  0  0  0  2  0  0  0  0  0  0
  186.7850  176.9210  146.5000 C   0  0  0  0  0  0  0  0  0  0  0  0
  184.7090  178.7070  147.0850 C   0  0  0  0  0  3  0  0  0  0  0  0
  185.9900  178.9300  147.6010 C   0  0  0  0  0  3  0  0  0  0  0  0
  184.4640  177.5900  146.2790 C   0  0  0  0  0  3  0  0  0  0  0  0
  187.0260  178.0370  147.3100 C   0  0  0  0  0  3  0  0  0  0  0  0
  185.5010  176.6980  145.9850 C   0  0  0  0  0  3  0  0  0  0  0  0
  1 23  1  0  0  0  0
  2  1  1  0  0  0  0
  3  2  2  0  0  0  0
  4  7  1  0  0  0  0
  5 13  1  6  0  0  0
  5  9  1  0  0  0  0
  6  4  2  0  0  0  0
  8 10  1  6  0  0  0
  8  5  1  0  0  0  0
  9  4  1  0  0  0  0
 10  6  1  0  0  0  0
 11  1  1  1  0  0  0
 11  8  1  0  0  0  0
 12 11  1  0  0  0  0
 12 13  1  0  0  0  0
 14  2  1  0  0  0  0
 15 21  1  1  0  0  0
 16 17  1  6  0  0  0
 16 15  1  0  0  0  0
 18 22  1  0  0  0  0
 18 20  1  0  0  0  0
 19 15  1  0  0  0  0
 20 14  1  1  0  0  0
 20 19  1  0  0  0  0
 22 16  1  0  0  0  0
 23 24  1  0  0  0  0
 25 24  1  0  0  0  0
 25 26  1  0  0  0  0
 27 26  1  0  0  0  0
 27 29  1  0  0  0  0
 28 29  1  0  0  0  0
 29 30  2  0  0  0  0
 31 28  1  0  0  0  0
 32 35  2  0  0  0  0
 33 31  2  0  0  0  0
 34 33  1  0  0  0  0
 35 31  1  0  0  0  0
 35 37  1  0  0  0  0
 36 34  2  0  0  0  0
 36 32  1  0  0  0  0
 37 38  1  0  0  0  0
 38 42  1  0  0  0  0
 39 40  1  0  0  0  0
 41 39  2  0  0  0  0
 42 40  2  0  0  0  0
 43 41  1  0  0  0  0
 43 38  2  0  0  0  0
M  END
>  <MODEL>
2

>  <REMARK>
 VINA RESULT:      -7.5      3.533      6.344
  Name = 
  12 active torsions:
  status: ('A' for Active; 'I' for Inactive)
    1  A    between atoms: C_1  and  C_34
    2  A    between atoms: C_1  and  C_35
    3  A    between atoms: O_2  and  C_7
    4  A    between atoms: O_2  and  C_13
    5  A    between atoms: N_3  and  C_4
    6  A    between atoms: C_6  and  C_7
    7  A    between atoms: C_6  and  C_12
    8  A    between atoms: N_8  and  C_27
    9  A    between atoms: N_8  and  C_30
   10  A    between atoms: C_11  and  C_14
   11  A    between atoms: C_13  and  C_27
   12  A    between atoms: C_14  and  C_41
                            x       y       z     vdW  Elec       q    Type
                         _______ _______ _______ _____ _____    ______ ____

>  <TORSDO>
F 12

$$$$
=
 OpenBabel11052421223D

 43 47  0  0  1  0  0  0  0  0999 V2000
  190.0330  172.3560  142.2660 N   0  0  0  0  0  0  0  0  0  0  0  0
  190.4760  172.5460  143.6190 C   0  0  0  0  0  0  0  0  0  0  0  0
  189.6360  172.6060  144.5570 O   0  0  0  0  0  0  0  0  0  0  0  0
  192.7660  174.3600  138.1960 C   0  0  0  0  0  0  0  0  0  0  0  0
  190.7610  173.0840  139.0820 C   0  0  1  0  0  3  0  0  0  0  0  0
  193.3830  174.2590  139.3330 N   0  0  0  0  0  0  0  0  0  0  0  0
  193.3160  175.2460  137.1340 C   0  0  0  0  0  1  0  0  0  0  0  0
  191.3960  173.2980  140.4480 C   0  0  2  0  0  3  0  0  0  0  0  0
  191.5250  173.6800  137.9830 N   0  0  0  0  0  2  0  0  0  0  0  0
  192.9250  173.3370  140.3650 C   0  0  0  0  0  2  0  0  0  0  0  0
  191.0080  172.0490  141.2170 C   0  0  2  0  0  3  0  0  0  0  0  0
  190.4750  171.0520  140.2860 N   0  0  0  0  0  2  0  0  0  0  0  0
  190.6750  171.5870  138.9440 C   0  0  0  0  0  2  0  0  0  0  0  0
  191.9340  172.6290  143.9450 C   0  0  0  0  0  2  0  0  0  0  0  0
  194.0730  175.2100  143.3170 C   0  0  1  0  0  3  0  0  0  0  0  0
  194.8130  175.5950  144.6070 C   0  0  2  0  0  3  0  0  0  0  0  0
  196.5030  175.0360  144.5100 Cl  0  0  0  0  0  0  0  0  0  0  0  0
  193.4210  173.7330  145.6010 C   0  0  0  0  0  2  0  0  0  0  0  0
  192.5740  175.0360  143.5550 C   0  0  0  0  0  2  0  0  0  0  0  0
  192.2740  173.9540  144.6100 C   0  0  1  0  0  3  0  0  0  0  0  0
  194.3080  176.2700  142.2610 C   0  0  0  0  0  1  0  0  0  0  0  0
  194.1590  175.0390  145.8800 C   0  0  0  0  0  2  0  0  0  0  0  0
  188.6010  172.3760  141.9650 C   0  0  0  0  0  2  0  0  0  0  0  0
  188.0210  173.7880  142.0580 C   0  0  0  0  0  2  0  0  0  0  0  0
  188.1470  174.4790  140.8470 O   0  0  0  0  0  0  0  0  0  0  0  0
  188.1450  175.8380  141.1800 C   0  0  0  0  0  2  0  0  0  0  0  0
  189.1850  176.1310  142.2550 C   0  0  0  0  0  2  0  0  0  0  0  0
  188.9390  177.8830  144.0900 N   0  0  0  0  0  2  0  0  0  0  0  0
  189.1320  177.5570  142.7080 C   0  0  0  0  0  0  0  0  0  0  0  0
  189.1910  178.4820  141.8590 O   0  0  0  0  0  0  0  0  0  0  0  0
  189.3090  177.0400  145.1910 C   0  0  0  0  0  0  0  0  0  0  0  0
  188.7390  175.3270  146.8190 C   0  0  0  0  0  3  0  0  0  0  0  0
  190.5700  177.1690  145.7950 C   0  0  0  0  0  3  0  0  0  0  0  0
  190.9150  176.3820  146.8950 C   0  0  0  0  0  3  0  0  0  0  0  0
  188.3880  176.1160  145.7160 C   0  0  0  0  0  0  0  0  0  0  0  0
  189.9980  175.4620  147.4080 C   0  0  0  0  0  3  0  0  0  0  0  0
  187.0660  175.8880  145.0540 C   0  0  0  0  0  2  0  0  0  0  0  0
  186.0910  176.9430  145.4660 C   0  0  0  0  0  0  0  0  0  0  0  0
  184.2230  178.8770  146.2480 C   0  0  0  0  0  3  0  0  0  0  0  0
  184.3980  178.5820  144.8920 C   0  0  0  0  0  3  0  0  0  0  0  0
  184.9830  178.2070  147.2140 C   0  0  0  0  0  3  0  0  0  0  0  0
  185.3320  177.6180  144.5020 C   0  0  0  0  0  3  0  0  0  0  0  0
  185.9150  177.2400  146.8240 C   0  0  0  0  0  3  0  0  0  0  0  0
  1  2  1  0  0  0  0
  2 14  1  0  0  0  0
  2  3  2  0  0  0  0
  4  6  2  0  0  0  0
  5 13  1  6  0  0  0
  5  8  1  0  0  0  0
  6 10  1  0  0  0  0
  7  4  1  0  0  0  0
  8 10  1  6  0  0  0
  8 11  1  0  0  0  0
  9  4  1  0  0  0  0
  9  5  1  0  0  0  0
 11  1  1  1  0  0  0
 12 11  1  0  0  0  0
 13 12  1  0  0  0  0
 15 21  1  6  0  0  0
 15 19  1  0  0  0  0
 15 16  1  0  0  0  0
 16 17  1  6  0  0  0
 16 22  1  0  0  0  0
 18 22  1  0  0  0  0
 19 20  1  0  0  0  0
 20 14  1  6  0  0  0
 20 18  1  0  0  0  0
 23 24  1  0  0  0  0
 23  1  1  0  0  0  0
 25 26  1  0  0  0  0
 25 24  1  0  0  0  0
 26 27  1  0  0  0  0
 27 29  1  0  0  0  0
 28 31  1  0  0  0  0
 29 28  1  0  0  0  0
 30 29  2  0  0  0  0
 31 35  2  0  0  0  0
 31 33  1  0  0  0  0
 32 36  2  0  0  0  0
 33 34  2  0  0  0  0
 34 36  1  0  0  0  0
 35 32  1  0  0  0  0
 37 38  1  0  0  0  0
 37 35  1  0  0  0  0
 38 43  1  0  0  0  0
 39 41  1  0  0  0  0
 40 39  2  0  0  0  0
 42 40  1  0  0  0  0
 42 38  2  0  0  0  0
 43 41  2  0  0  0  0
M  END
>  <MODEL>
3

>  <REMARK>
 VINA RESULT:      -7.3      1.135      2.964
  Name = 
  12 active torsions:
  status: ('A' for Active; 'I' for Inactive)
    1  A    between atoms: C_1  and  C_34
    2  A    between atoms: C_1  and  C_35
    3  A    between atoms: O_2  and  C_7
    4  A    between atoms: O_2  and  C_13
    5  A    between atoms: N_3  and  C_4
    6  A    between atoms: C_6  and  C_7
    7  A    between atoms: C_6  and  C_12
    8  A    between atoms: N_8  and  C_27
    9  A    between atoms: N_8  and  C_30
   10  A    between atoms: C_11  and  C_14
   11  A    between atoms: C_13  and  C_27
   12  A    between atoms: C_14  and  C_41
                            x       y       z     vdW  Elec       q    Type
                         _______ _______ _______ _____ _____    ______ ____

>  <TORSDO>
F 12

$$$$
=
 OpenBabel11052421223D

 43 47  0  0  1  0  0  0  0  0999 V2000
  191.2430  174.7900  143.1950 N   0  0  0  0  0  0  0  0  0  0  0  0
  192.2140  175.5670  143.9120 C   0  0  0  0  0  0  0  0  0  0  0  0
  192.3990  176.7780  143.6150 O   0  0  0  0  0  0  0  0  0  0  0  0
  191.7420  169.5770  142.4020 C   0  0  0  0  0  0  0  0  0  0  0  0
  190.4320  171.7290  142.1110 C   0  0  1  0  0  3  0  0  0  0  0  0
  192.5040  170.1160  143.3030 N   0  0  0  0  0  0  0  0  0  0  0  0
  192.0800  168.2350  141.8570 C   0  0  0  0  0  1  0  0  0  0  0  0
  191.5580  172.3670  142.9110 C   0  0  2  0  0  3  0  0  0  0  0  0
  190.6190  170.2950  141.8800 N   0  0  0  0  0  2  0  0  0  0  0  0
  192.1600  171.3890  143.9240 C   0  0  0  0  0  2  0  0  0  0  0  0
  190.8590  173.4660  143.6900 C   0  0  2  0  0  3  0  0  0  0  0  0
  189.4100  173.2770  143.6010 N   0  0  0  0  0  2  0  0  0  0  0  0
  189.1970  172.0000  142.9290 C   0  0  0  0  0  2  0  0  0  0  0  0
  192.9860  174.9720  145.0480 C   0  0  0  0  0  2  0  0  0  0  0  0
  195.3910  172.7620  144.0650 C   0  0  1  0  0  3  0  0  0  0  0  0
  196.6260  172.9050  144.9670 C   0  0  2  0  0  3  0  0  0  0  0  0
  196.7190  171.5070  146.0690 Cl  0  0  0  0  0  0  0  0  0  0  0  0
  195.2290  174.6950  146.0800 C   0  0  0  0  0  2  0  0  0  0  0  0
  194.8680  174.1210  143.6010 C   0  0  0  0  0  2  0  0  0  0  0  0
  194.4840  175.0300  144.7840 C   0  0  1  0  0  3  0  0  0  0  0  0
  195.7350  171.9060  142.8630 C   0  0  0  0  0  1  0  0  0  0  0  0
  196.6440  174.2060  145.7830 C   0  0  0  0  0  2  0  0  0  0  0  0
  190.5740  175.3680  142.0280 C   0  0  0  0  0  2  0  0  0  0  0  0
  189.2630  176.0560  142.4090 C   0  0  0  0  0  2  0  0  0  0  0  0
  189.4290  177.4390  142.5580 O   0  0  0  0  0  0  0  0  0  0  0  0
  188.4560  178.0310  141.7440 C   0  0  0  0  0  2  0  0  0  0  0  0
  187.2800  178.5210  142.5800 C   0  0  0  0  0  2  0  0  0  0  0  0
  185.4010  177.0310  143.4420 N   0  0  0  0  0  2  0  0  0  0  0  0
  186.0520  177.6950  142.3530 C   0  0  0  0  0  0  0  0  0  0  0  0
  185.6230  177.5290  141.1830 O   0  0  0  0  0  0  0  0  0  0  0  0
  185.4470  177.4600  144.8120 C   0  0  0  0  0  0  0  0  0  0  0  0
  186.3770  177.2700  147.0490 C   0  0  0  0  0  3  0  0  0  0  0  0
  184.5390  178.4170  145.2890 C   0  0  0  0  0  3  0  0  0  0  0  0
  184.5530  178.8020  146.6320 C   0  0  0  0  0  3  0  0  0  0  0  0
  186.3660  176.8790  145.7040 C   0  0  0  0  0  0  0  0  0  0  0  0
  185.4710  178.2270  147.5120 C   0  0  0  0  0  3  0  0  0  0  0  0
  187.4040  175.9160  145.2210 C   0  0  0  0  0  2  0  0  0  0  0  0
  188.6460  176.0350  146.0430 C   0  0  0  0  0  0  0  0  0  0  0  0
  190.9400  176.2720  147.6310 C   0  0  0  0  0  3  0  0  0  0  0  0
  190.5230  177.3480  146.8400 C   0  0  0  0  0  3  0  0  0  0  0  0
  190.2130  175.0770  147.6270 C   0  0  0  0  0  3  0  0  0  0  0  0
  189.3790  177.2280  146.0460 C   0  0  0  0  0  3  0  0  0  0  0  0
  189.0650  174.9580  146.8350 C   0  0  0  0  0  3  0  0  0  0  0  0
  1  2  1  0  0  0  0
  2 14  1  0  0  0  0
  3  2  2  0  0  0  0
  4  6  2  0  0  0  0
  5  8  1  0  0  0  0
  5 13  1  1  0  0  0
  6 10  1  0  0  0  0
  7  4  1  0  0  0  0
  8 11  1  0  0  0  0
  8 10  1  1  0  0  0
  9  5  1  0  0  0  0
  9  4  1  0  0  0  0
 11  1  1  6  0  0  0
 12 11  1  0  0  0  0
 13 12  1  0  0  0  0
 15 21  1  6  0  0  0
 15 16  1  0  0  0  0
 16 22  1  0  0  0  0
 16 17  1  1  0  0  0
 19 15  1  0  0  0  0
 19 20  1  0  0  0  0
 20 14  1  1  0  0  0
 20 18  1  0  0  0  0
 22 18  1  0  0  0  0
 23 24  1  0  0  0  0
 23  1  1  0  0  0  0
 24 25  1  0  0  0  0
 26 25  1  0  0  0  0
 26 27  1  0  0  0  0
 28 31  1  0  0  0  0
 29 27  1  0  0  0  0
 29 28  1  0  0  0  0
 30 29  2  0  0  0  0
 31 33  2  0  0  0  0
 31 35  1  0  0  0  0
 32 36  1  0  0  0  0
 33 34  1  0  0  0  0
 34 36  2  0  0  0  0
 35 32  2  0  0  0  0
 37 35  1  0  0  0  0
 37 38  1  0  0  0  0
 38 42  2  0  0  0  0
 38 43  1  0  0  0  0
 40 39  2  0  0  0  0
 41 39  1  0  0  0  0
 42 40  1  0  0  0  0
 43 41  2  0  0  0  0
M  END
>  <MODEL>
4

>  <REMARK>
 VINA RESULT:      -7.2      2.467      3.562
  Name = 
  12 active torsions:
  status: ('A' for Active; 'I' for Inactive)
    1  A    between atoms: C_1  and  C_34
    2  A    between atoms: C_1  and  C_35
    3  A    between atoms: O_2  and  C_7
    4  A    between atoms: O_2  and  C_13
    5  A    between atoms: N_3  and  C_4
    6  A    between atoms: C_6  and  C_7
    7  A    between atoms: C_6  and  C_12
    8  A    between atoms: N_8  and  C_27
    9  A    between atoms: N_8  and  C_30
   10  A    between atoms: C_11  and  C_14
   11  A    between atoms: C_13  and  C_27
   12  A    between atoms: C_14  and  C_41
                            x       y       z     vdW  Elec       q    Type
                         _______ _______ _______ _____ _____    ______ ____

>  <TORSDO>
F 12

$$$$
=
 OpenBabel11052421223D

 43 47  0  0  1  0  0  0  0  0999 V2000
  190.8120  172.4300  141.3160 N   0  0  0  0  0  0  0  0  0  0  0  0
  191.3280  172.8760  142.5800 C   0  0  0  0  0  0  0  0  0  0  0  0
  190.6140  172.8020  143.6160 O   0  0  0  0  0  0  0  0  0  0  0  0
  192.5970  174.7940  136.9260 C   0  0  0  0  0  0  0  0  0  0  0  0
  191.0210  173.1600  138.0570 C   0  0  1  0  0  3  0  0  0  0  0  0
  193.3390  174.8740  137.9870 N   0  0  0  0  0  0  0  0  0  0  0  0
  192.8260  175.7300  135.7920 C   0  0  0  0  0  1  0  0  0  0  0  0
  191.7370  173.5620  139.3380 C   0  0  2  0  0  3  0  0  0  0  0  0
  191.5150  173.8580  136.8680 N   0  0  0  0  0  2  0  0  0  0  0  0
  193.2040  173.9210  139.0810 C   0  0  0  0  0  2  0  0  0  0  0  0
  191.7120  172.2930  140.1690 C   0  0  2  0  0  3  0  0  0  0  0  0
  191.3100  171.1670  139.3240 N   0  0  0  0  0  2  0  0  0  0  0  0
  191.2450  171.6750  137.9570 C   0  0  0  0  0  2  0  0  0  0  0  0
  192.7290  173.3880  142.6990 C   0  0  0  0  0  2  0  0  0  0  0  0
  194.9080  175.7370  143.8710 C   0  0  1  0  0  3  0  0  0  0  0  0
  194.1540  176.7580  144.7340 C   0  0  2  0  0  3  0  0  0  0  0  0
  194.5460  176.4870  146.4520 Cl  0  0  0  0  0  0  0  0  0  0  0  0
  192.1550  175.3250  144.1460 C   0  0  0  0  0  2  0  0  0  0  0  0
  194.1740  175.4500  142.5610 C   0  0  0  0  0  2  0  0  0  0  0  0
  192.7530  174.9070  142.7990 C   0  0  1  0  0  3  0  0  0  0  0  0
  196.3030  176.2500  143.5780 C   0  0  0  0  0  1  0  0  0  0  0  0
  192.6300  176.7200  144.5420 C   0  0  0  0  0  2  0  0  0  0  0  0
  189.4090  172.0260  141.2110 C   0  0  0  0  0  2  0  0  0  0  0  0
  188.5070  173.1990  140.8260 C   0  0  0  0  0  2  0  0  0  0  0  0
  187.5600  173.4710  141.8210 O   0  0  0  0  0  0  0  0  0  0  0  0
  187.9490  174.6850  142.3990 C   0  0  0  0  0  2  0  0  0  0  0  0
  186.7570  175.6230  142.5370 C   0  0  0  0  0  2  0  0  0  0  0  0
  186.5250  178.1510  142.7560 N   0  0  0  0  0  2  0  0  0  0  0  0
  187.0870  177.0140  142.0910 C   0  0  0  0  0  0  0  0  0  0  0  0
  187.8150  177.1870  141.0810 O   0  0  0  0  0  0  0  0  0  0  0  0
  186.0950  178.1730  144.1250 C   0  0  0  0  0  0  0  0  0  0  0  0
  186.5950  177.9650  146.4950 C   0  0  0  0  0  3  0  0  0  0  0  0
  184.7360  178.3220  144.4430 C   0  0  0  0  0  3  0  0  0  0  0  0
  184.3110  178.2980  145.7730 C   0  0  0  0  0  3  0  0  0  0  0  0
  187.0270  177.9860  145.1630 C   0  0  0  0  0  0  0  0  0  0  0  0
  185.2400  178.1180  146.7980 C   0  0  0  0  0  3  0  0  0  0  0  0
  188.4930  177.9060  144.8740 C   0  0  0  0  0  2  0  0  0  0  0  0
  189.1640  176.9940  145.8480 C   0  0  0  0  0  0  0  0  0  0  0  0
  190.4710  175.2830  147.6380 C   0  0  0  0  0  3  0  0  0  0  0  0
  189.5960  174.7570  146.6820 C   0  0  0  0  0  3  0  0  0  0  0  0
  190.6920  176.6630  147.7020 C   0  0  0  0  0  3  0  0  0  0  0  0
  188.9420  175.6120  145.7900 C   0  0  0  0  0  3  0  0  0  0  0  0
  190.0410  177.5180  146.8070 C   0  0  0  0  0  3  0  0  0  0  0  0
  1  2  1  0  0  0  0
  2 14  1  0  0  0  0
  2  3  2  0  0  0  0
  4  6  2  0  0  0  0
  5 13  1  6  0  0  0
  5  8  1  0  0  0  0
  6 10  1  0  0  0  0
  7  4  1  0  0  0  0
  8 10  1  6  0  0  0
  8 11  1  0  0  0  0
  9  4  1  0  0  0  0
  9  5  1  0  0  0  0
 11  1  1  1  0  0  0
 12 11  1  0  0  0  0
 13 12  1  0  0  0  0
 15 21  1  6  0  0  0
 15 16  1  0  0  0  0
 16 17  1  1  0  0  0
 18 22  1  0  0  0  0
 19 20  1  0  0  0  0
 19 15  1  0  0  0  0
 20 14  1  1  0  0  0
 20 18  1  0  0  0  0
 22 16  1  0  0  0  0
 23  1  1  0  0  0  0
 24 23  1  0  0  0  0
 24 25  1  0  0  0  0
 25 26  1  0  0  0  0
 26 27  1  0  0  0  0
 28 31  1  0  0  0  0
 29 27  1  0  0  0  0
 29 28  1  0  0  0  0
 30 29  2  0  0  0  0
 31 33  2  0  0  0  0
 31 35  1  0  0  0  0
 32 36  1  0  0  0  0
 33 34  1  0  0  0  0
 34 36  2  0  0  0  0
 35 32  2  0  0  0  0
 37 35  1  0  0  0  0
 37 38  1  0  0  0  0
 38 43  1  0  0  0  0
 39 41  1  0  0  0  0
 40 39  2  0  0  0  0
 42 38  2  0  0  0  0
 42 40  1  0  0  0  0
 43 41  2  0  0  0  0
M  END
>  <MODEL>
5

>  <REMARK>
 VINA RESULT:      -7.0      1.124      1.464
  Name = 
  12 active torsions:
  status: ('A' for Active; 'I' for Inactive)
    1  A    between atoms: C_1  and  C_34
    2  A    between atoms: C_1  and  C_35
    3  A    between atoms: O_2  and  C_7
    4  A    between atoms: O_2  and  C_13
    5  A    between atoms: N_3  and  C_4
    6  A    between atoms: C_6  and  C_7
    7  A    between atoms: C_6  and  C_12
    8  A    between atoms: N_8  and  C_27
    9  A    between atoms: N_8  and  C_30
   10  A    between atoms: C_11  and  C_14
   11  A    between atoms: C_13  and  C_27
   12  A    between atoms: C_14  and  C_41
                            x       y       z     vdW  Elec       q    Type
                         _______ _______ _______ _____ _____    ______ ____

>  <TORSDO>
F 12

$$$$
=
 OpenBabel11052421223D

 43 47  0  0  1  0  0  0  0  0999 V2000
  191.4780  173.2710  144.7100 N   0  0  0  0  0  0  0  0  0  0  0  0
  192.4180  172.2450  144.3530 C   0  0  0  0  0  0  0  0  0  0  0  0
  192.0260  171.2110  143.7490 O   0  0  0  0  0  0  0  0  0  0  0  0
  190.2260  177.5530  147.5640 C   0  0  0  0  0  0  0  0  0  0  0  0
  190.4280  176.3900  145.3200 C   0  0  1  0  0  3  0  0  0  0  0  0
  190.9380  176.6390  148.1470 N   0  0  0  0  0  0  0  0  0  0  0  0
  189.5210  178.5750  148.3850 C   0  0  0  0  0  1  0  0  0  0  0  0
  190.9560  175.2130  146.1270 C   0  0  2  0  0  3  0  0  0  0  0  0
  190.0590  177.5440  146.1430 N   0  0  0  0  0  2  0  0  0  0  0  0
  191.7130  175.6740  147.3760 C   0  0  0  0  0  2  0  0  0  0  0  0
  191.9620  174.5670  145.1920 C   0  0  2  0  0  3  0  0  0  0  0  0
  192.2330  175.4710  144.0720 N   0  0  0  0  0  2  0  0  0  0  0  0
  191.5500  176.7240  144.3740 C   0  0  0  0  0  2  0  0  0  0  0  0
  193.8770  172.4050  144.6480 C   0  0  0  0  0  2  0  0  0  0  0  0
  196.4040  174.3000  143.3600 C   0  0  1  0  0  3  0  0  0  0  0  0
  196.0950  174.6520  141.8980 C   0  0  2  0  0  3  0  0  0  0  0  0
  195.6340  176.3710  141.7880 Cl  0  0  0  0  0  0  0  0  0  0  0  0
  194.0020  173.3000  142.3330 C   0  0  0  0  0  2  0  0  0  0  0  0
  196.1550  172.8200  143.6510 C   0  0  0  0  0  2  0  0  0  0  0  0
  194.6990  172.4090  143.3670 C   0  0  1  0  0  3  0  0  0  0  0  0
  197.8440  174.6510  143.6740 C   0  0  0  0  0  1  0  0  0  0  0  0
  194.9920  173.7820  141.2760 C   0  0  0  0  0  2  0  0  0  0  0  0
  190.0480  173.0460  144.4970 C   0  0  0  0  0  2  0  0  0  0  0  0
  189.6070  173.4730  143.0970 C   0  0  0  0  0  2  0  0  0  0  0  0
  188.7170  174.5530  143.1430 O   0  0  0  0  0  0  0  0  0  0  0  0
  188.8860  175.2410  141.9350 C   0  0  0  0  0  2  0  0  0  0  0  0
  187.7290  176.2020  141.6960 C   0  0  0  0  0  2  0  0  0  0  0  0
  187.2120  178.6970  141.6670 N   0  0  0  0  0  2  0  0  0  0  0  0
  188.1430  177.6290  141.8780 C   0  0  0  0  0  0  0  0  0  0  0  0
  189.3390  177.8990  142.1560 O   0  0  0  0  0  0  0  0  0  0  0  0
  185.7880  178.5860  141.8110 C   0  0  0  0  0  0  0  0  0  0  0  0
  183.7850  178.7800  143.1750 C   0  0  0  0  0  3  0  0  0  0  0  0
  185.0040  178.0750  140.7640 C   0  0  0  0  0  3  0  0  0  0  0  0
  183.6240  177.9240  140.9190 C   0  0  0  0  0  3  0  0  0  0  0  0
  185.1700  178.9320  143.0260 C   0  0  0  0  0  0  0  0  0  0  0  0
  183.0160  178.2750  142.1250 C   0  0  0  0  0  3  0  0  0  0  0  0
  185.9540  179.5550  144.1370 C   0  0  0  0  0  2  0  0  0  0  0  0
  186.0180  178.6310  145.3090 C   0  0  0  0  0  0  0  0  0  0  0  0
  186.1880  176.9270  147.5250 C   0  0  0  0  0  3  0  0  0  0  0  0
  186.7160  176.5270  146.2930 C   0  0  0  0  0  3  0  0  0  0  0  0
  185.5720  178.1770  147.6500 C   0  0  0  0  0  3  0  0  0  0  0  0
  186.6290  177.3770  145.1870 C   0  0  0  0  0  3  0  0  0  0  0  0
  185.4890  179.0300  146.5440 C   0  0  0  0  0  3  0  0  0  0  0  0
  2 14  1  0  0  0  0
  2  1  1  0  0  0  0
  3  2  2  0  0  0  0
  4  6  2  0  0  0  0
  4  7  1  0  0  0  0
  5 13  1  6  0  0  0
  5  8  1  0  0  0  0
  5  9  1  0  0  0  0
  8 10  1  1  0  0  0
  9  4  1  0  0  0  0
 10  6  1  0  0  0  0
 11  1  1  6  0  0  0
 11  8  1  0  0  0  0
 12 13  1  0  0  0  0
 12 11  1  0  0  0  0
 15 19  1  0  0  0  0
 15 21  1  6  0  0  0
 16 17  1  1  0  0  0
 16 15  1  0  0  0  0
 18 20  1  0  0  0  0
 20 19  1  0  0  0  0
 20 14  1  1  0  0  0
 22 16  1  0  0  0  0
 22 18  1  0  0  0  0
 23  1  1  0  0  0  0
 24 25  1  0  0  0  0
 24 23  1  0  0  0  0
 26 25  1  0  0  0  0
 27 29  1  0  0  0  0
 27 26  1  0  0  0  0
 28 31  1  0  0  0  0
 28 29  1  0  0  0  0
 29 30  2  0  0  0  0
 31 35  1  0  0  0  0
 33 34  1  0  0  0  0
 33 31  2  0  0  0  0
 34 36  2  0  0  0  0
 35 32  2  0  0  0  0
 35 37  1  0  0  0  0
 36 32  1  0  0  0  0
 37 38  1  0  0  0  0
 38 43  1  0  0  0  0
 39 41  1  0  0  0  0
 40 39  2  0  0  0  0
 42 38  2  0  0  0  0
 42 40  1  0  0  0  0
 43 41  2  0  0  0  0
M  END
>  <MODEL>
6

>  <REMARK>
 VINA RESULT:      -6.9      2.486      5.007
  Name = 
  12 active torsions:
  status: ('A' for Active; 'I' for Inactive)
    1  A    between atoms: C_1  and  C_34
    2  A    between atoms: C_1  and  C_35
    3  A    between atoms: O_2  and  C_7
    4  A    between atoms: O_2  and  C_13
    5  A    between atoms: N_3  and  C_4
    6  A    between atoms: C_6  and  C_7
    7  A    between atoms: C_6  and  C_12
    8  A    between atoms: N_8  and  C_27
    9  A    between atoms: N_8  and  C_30
   10  A    between atoms: C_11  and  C_14
   11  A    between atoms: C_13  and  C_27
   12  A    between atoms: C_14  and  C_41
                            x       y       z     vdW  Elec       q    Type
                         _______ _______ _______ _____ _____    ______ ____

>  <TORSDO>
F 12

$$$$
=
 OpenBabel11052421223D

 43 47  0  0  1  0  0  0  0  0999 V2000
  191.4970  171.2750  142.3760 N   0  0  0  0  0  0  0  0  0  0  0  0
  191.0160  171.8970  143.5780 C   0  0  0  0  0  0  0  0  0  0  0  0
  189.7770  172.0050  143.7810 O   0  0  0  0  0  0  0  0  0  0  0  0
  196.0630  172.6230  140.0550 C   0  0  0  0  0  0  0  0  0  0  0  0
  193.9720  171.1890  140.1240 C   0  0  1  0  0  3  0  0  0  0  0  0
  195.8740  173.0280  141.2720 N   0  0  0  0  0  0  0  0  0  0  0  0
  197.1120  173.2650  139.2170 C   0  0  0  0  0  1  0  0  0  0  0  0
  193.6490  171.9570  141.3980 C   0  0  2  0  0  3  0  0  0  0  0  0
  195.2230  171.6110  139.4900 N   0  0  0  0  0  2  0  0  0  0  0  0
  194.9170  172.3680  142.1520 C   0  0  0  0  0  2  0  0  0  0  0  0
  192.9170  170.9360  142.2490 C   0  0  2  0  0  3  0  0  0  0  0  0
  193.0840  169.6060  141.6620 N   0  0  0  0  0  2  0  0  0  0  0  0
  194.0350  169.7510  140.5650 C   0  0  0  0  0  2  0  0  0  0  0  0
  191.9680  172.3830  144.6250 C   0  0  0  0  0  2  0  0  0  0  0  0
  193.3310  175.2740  143.4350 C   0  0  1  0  0  3  0  0  0  0  0  0
  193.6880  176.2000  144.6080 C   0  0  2  0  0  3  0  0  0  0  0  0
  195.4580  176.2270  144.8240 Cl  0  0  0  0  0  0  0  0  0  0  0  0
  192.7530  174.3020  145.9940 C   0  0  0  0  0  2  0  0  0  0  0  0
  191.9310  174.6810  143.5880 C   0  0  0  0  0  2  0  0  0  0  0  0
  191.7830  173.8700  144.8890 C   0  0  1  0  0  3  0  0  0  0  0  0
  193.4250  176.0440  142.1340 C   0  0  0  0  0  1  0  0  0  0  0  0
  193.0140  175.8050  145.9300 C   0  0  0  0  0  2  0  0  0  0  0  0
  190.5480  170.8980  141.3280 C   0  0  0  0  0  2  0  0  0  0  0  0
  190.3720  172.0110  140.2940 C   0  0  0  0  0  2  0  0  0  0  0  0
  189.1470  172.6720  140.4490 O   0  0  0  0  0  0  0  0  0  0  0  0
  189.4630  173.9760  140.8460 C   0  0  0  0  0  2  0  0  0  0  0  0
  188.3080  174.5970  141.6230 C   0  0  0  0  0  2  0  0  0  0  0  0
  187.8880  177.1030  141.8150 N   0  0  0  0  0  2  0  0  0  0  0  0
  187.8780  175.9040  141.0320 C   0  0  0  0  0  0  0  0  0  0  0  0
  187.4400  175.9390  139.8540 O   0  0  0  0  0  0  0  0  0  0  0  0
  188.7460  177.3420  142.9400 C   0  0  0  0  0  0  0  0  0  0  0  0
  189.1330  177.3110  145.3400 C   0  0  0  0  0  3  0  0  0  0  0  0
  190.0040  177.9390  142.7630 C   0  0  0  0  0  3  0  0  0  0  0  0
  190.8210  178.2140  143.8620 C   0  0  0  0  0  3  0  0  0  0  0  0
  188.3080  177.0350  144.2420 C   0  0  0  0  0  0  0  0  0  0  0  0
  190.3840  177.9010  145.1500 C   0  0  0  0  0  3  0  0  0  0  0  0
  187.0110  176.3250  144.4690 C   0  0  0  0  0  2  0  0  0  0  0  0
  186.0050  177.2580  145.0600 C   0  0  0  0  0  0  0  0  0  0  0  0
  184.1640  179.0370  146.1950 C   0  0  0  0  0  3  0  0  0  0  0  0
  184.4080  177.8010  146.8030 C   0  0  0  0  0  3  0  0  0  0  0  0
  184.8390  179.3840  145.0200 C   0  0  0  0  0  3  0  0  0  0  0  0
  185.3250  176.9120  146.2340 C   0  0  0  0  0  3  0  0  0  0  0  0
  185.7600  178.4970  144.4530 C   0  0  0  0  0  3  0  0  0  0  0  0
  1  2  1  0  0  0  0
  2  3  2  0  0  0  0
  2 14  1  0  0  0  0
  4  6  2  0  0  0  0
  5 13  1  1  0  0  0
  5  8  1  0  0  0  0
  6 10  1  0  0  0  0
  7  4  1  0  0  0  0
  8 10  1  1  0  0  0
  8 11  1  0  0  0  0
  9  4  1  0  0  0  0
  9  5  1  0  0  0  0
 11  1  1  6  0  0  0
 12 11  1  0  0  0  0
 13 12  1  0  0  0  0
 15 21  1  6  0  0  0
 15 19  1  0  0  0  0
 15 16  1  0  0  0  0
 16 17  1  1  0  0  0
 16 22  1  0  0  0  0
 19 20  1  0  0  0  0
 20 14  1  6  0  0  0
 20 18  1  0  0  0  0
 22 18  1  0  0  0  0
 23  1  1  0  0  0  0
 24 25  1  0  0  0  0
 24 23  1  0  0  0  0
 25 26  1  0  0  0  0
 26 27  1  0  0  0  0
 28 31  1  0  0  0  0
 29 27  1  0  0  0  0
 29 28  1  0  0  0  0
 30 29  2  0  0  0  0
 31 35  1  0  0  0  0
 33 31  2  0  0  0  0
 33 34  1  0  0  0  0
 34 36  2  0  0  0  0
 35 37  1  0  0  0  0
 35 32  2  0  0  0  0
 36 32  1  0  0  0  0
 37 38  1  0  0  0  0
 38 42  1  0  0  0  0
 39 40  1  0  0  0  0
 41 39  2  0  0  0  0
 42 40  2  0  0  0  0
 43 41  1  0  0  0  0
 43 38  2  0  0  0  0
M  END
>  <MODEL>
7

>  <REMARK>
 VINA RESULT:      -6.9      1.890      3.298
  Name = 
  12 active torsions:
  status: ('A' for Active; 'I' for Inactive)
    1  A    between atoms: C_1  and  C_34
    2  A    between atoms: C_1  and  C_35
    3  A    between atoms: O_2  and  C_7
    4  A    between atoms: O_2  and  C_13
    5  A    between atoms: N_3  and  C_4
    6  A    between atoms: C_6  and  C_7
    7  A    between atoms: C_6  and  C_12
    8  A    between atoms: N_8  and  C_27
    9  A    between atoms: N_8  and  C_30
   10  A    between atoms: C_11  and  C_14
   11  A    between atoms: C_13  and  C_27
   12  A    between atoms: C_14  and  C_41
                            x       y       z     vdW  Elec       q    Type
                         _______ _______ _______ _____ _____    ______ ____

>  <TORSDO>
F 12

$$$$
=
 OpenBabel11052421223D

 43 47  0  0  1  0  0  0  0  0999 V2000
  191.7300  173.0660  142.5160 N   0  0  0  0  0  0  0  0  0  0  0  0
  191.7720  171.6360  142.6440 C   0  0  0  0  0  0  0  0  0  0  0  0
  191.4690  170.9040  141.6630 O   0  0  0  0  0  0  0  0  0  0  0  0
  190.6200  176.5920  146.3080 C   0  0  0  0  0  0  0  0  0  0  0  0
  191.3730  176.0720  143.9430 C   0  0  1  0  0  3  0  0  0  0  0  0
  190.7840  175.3590  146.6740 N   0  0  0  0  0  0  0  0  0  0  0  0
  189.9410  177.5500  147.2230 C   0  0  0  0  0  1  0  0  0  0  0  0
  191.2190  174.6150  144.3570 C   0  0  2  0  0  3  0  0  0  0  0  0
  191.0250  177.0200  145.0040 N   0  0  0  0  0  2  0  0  0  0  0  0
  191.5190  174.4120  145.8450 C   0  0  0  0  0  2  0  0  0  0  0  0
  192.3050  173.9080  143.5680 C   0  0  2  0  0  3  0  0  0  0  0  0
  193.2170  174.9020  142.9980 N   0  0  0  0  0  2  0  0  0  0  0  0
  192.8210  176.1940  143.5480 C   0  0  0  0  0  2  0  0  0  0  0  0
  192.2160  170.9920  143.9200 C   0  0  0  0  0  2  0  0  0  0  0  0
  194.7550  169.8930  145.9160 C   0  0  1  0  0  3  0  0  0  0  0  0
  196.1060  170.2160  145.2600 C   0  0  2  0  0  3  0  0  0  0  0  0
  196.8810  171.5630  146.1330 Cl  0  0  0  0  0  0  0  0  0  0  0  0
  194.6460  171.1920  143.4400 C   0  0  0  0  0  2  0  0  0  0  0  0
  193.7740  169.2790  144.9180 C   0  0  0  0  0  2  0  0  0  0  0  0
  193.5050  170.2080  143.7190 C   0  0  1  0  0  3  0  0  0  0  0  0
  194.9670  168.9460  147.0790 C   0  0  0  0  0  1  0  0  0  0  0  0
  195.9980  170.5640  143.7680 C   0  0  0  0  0  2  0  0  0  0  0  0
  191.2000  173.6660  141.2920 C   0  0  0  0  0  2  0  0  0  0  0  0
  189.6870  173.4740  141.1740 C   0  0  0  0  0  2  0  0  0  0  0  0
  189.0410  174.6640  140.8180 O   0  0  0  0  0  0  0  0  0  0  0  0
  188.3430  175.0780  141.9580 C   0  0  0  0  0  2  0  0  0  0  0  0
  187.3100  176.1400  141.6030 C   0  0  0  0  0  2  0  0  0  0  0  0
  186.9860  178.6660  141.6800 N   0  0  0  0  0  2  0  0  0  0  0  0
  187.8420  177.5250  141.8030 C   0  0  0  0  0  0  0  0  0  0  0  0
  189.0690  177.6940  142.0190 O   0  0  0  0  0  0  0  0  0  0  0  0
  185.5680  178.6570  141.9050 C   0  0  0  0  0  0  0  0  0  0  0  0
  183.6660  178.9860  143.3820 C   0  0  0  0  0  3  0  0  0  0  0  0
  184.6910  178.2130  140.9030 C   0  0  0  0  0  3  0  0  0  0  0  0
  183.3150  178.1610  141.1360 C   0  0  0  0  0  3  0  0  0  0  0  0
  185.0470  179.0380  143.1550 C   0  0  0  0  0  0  0  0  0  0  0  0
  182.8030  178.5460  142.3760 C   0  0  0  0  0  3  0  0  0  0  0  0
  185.9370  179.5940  144.2210 C   0  0  0  0  0  2  0  0  0  0  0  0
  185.9900  178.6640  145.3890 C   0  0  0  0  0  0  0  0  0  0  0  0
  186.1370  176.9530  147.6010 C   0  0  0  0  0  3  0  0  0  0  0  0
  186.7500  176.5930  146.3960 C   0  0  0  0  0  3  0  0  0  0  0  0
  185.4480  178.1670  147.7010 C   0  0  0  0  0  3  0  0  0  0  0  0
  186.6740  177.4470  145.2920 C   0  0  0  0  0  3  0  0  0  0  0  0
  185.3760  179.0230  146.5970 C   0  0  0  0  0  3  0  0  0  0  0  0
  1  2  1  0  0  0  0
  2 14  1  0  0  0  0
  3  2  2  0  0  0  0
  4  6  2  0  0  0  0
  4  7  1  0  0  0  0
  5 13  1  1  0  0  0
  5  8  1  0  0  0  0
  5  9  1  0  0  0  0
  8 10  1  1  0  0  0
  9  4  1  0  0  0  0
 10  6  1  0  0  0  0
 11  1  1  6  0  0  0
 11  8  1  0  0  0  0
 12 13  1  0  0  0  0
 12 11  1  0  0  0  0
 15 21  1  1  0  0  0
 16 15  1  0  0  0  0
 16 17  1  1  0  0  0
 18 20  1  0  0  0  0
 18 22  1  0  0  0  0
 19 15  1  0  0  0  0
 20 14  1  1  0  0  0
 20 19  1  0  0  0  0
 22 16  1  0  0  0  0
 23  1  1  0  0  0  0
 24 23  1  0  0  0  0
 25 24  1  0  0  0  0
 25 26  1  0  0  0  0
 27 29  1  0  0  0  0
 27 26  1  0  0  0  0
 28 29  1  0  0  0  0
 28 31  1  0  0  0  0
 29 30  2  0  0  0  0
 31 35  1  0  0  0  0
 33 34  1  0  0  0  0
 33 31  2  0  0  0  0
 34 36  2  0  0  0  0
 35 32  2  0  0  0  0
 35 37  1  0  0  0  0
 36 32  1  0  0  0  0
 37 38  1  0  0  0  0
 38 43  1  0  0  0  0
 39 41  1  0  0  0  0
 40 39  2  0  0  0  0
 42 38  2  0  0  0  0
 42 40  1  0  0  0  0
 43 41  2  0  0  0  0
M  END
>  <MODEL>
8

>  <REMARK>
 VINA RESULT:      -6.8      2.652      4.881
  Name = 
  12 active torsions:
  status: ('A' for Active; 'I' for Inactive)
    1  A    between atoms: C_1  and  C_34
    2  A    between atoms: C_1  and  C_35
    3  A    between atoms: O_2  and  C_7
    4  A    between atoms: O_2  and  C_13
    5  A    between atoms: N_3  and  C_4
    6  A    between atoms: C_6  and  C_7
    7  A    between atoms: C_6  and  C_12
    8  A    between atoms: N_8  and  C_27
    9  A    between atoms: N_8  and  C_30
   10  A    between atoms: C_11  and  C_14
   11  A    between atoms: C_13  and  C_27
   12  A    between atoms: C_14  and  C_41
                            x       y       z     vdW  Elec       q    Type
                         _______ _______ _______ _____ _____    ______ ____

>  <TORSDO>
F 12

$$$$
=
 OpenBabel11052421223D

 43 47  0  0  1  0  0  0  0  0999 V2000
  192.5850  175.9860  143.6560 N   0  0  0  0  0  0  0  0  0  0  0  0
  193.3240  176.1910  144.8700 C   0  0  0  0  0  0  0  0  0  0  0  0
  193.3900  177.3400  145.3840 O   0  0  0  0  0  0  0  0  0  0  0  0
  190.6890  173.0970  139.6420 C   0  0  0  0  0  0  0  0  0  0  0  0
  190.3520  174.2300  141.8860 C   0  0  1  0  0  3  0  0  0  0  0  0
  191.9780  173.2180  139.7300 N   0  0  0  0  0  0  0  0  0  0  0  0
  190.0750  172.6440  138.3640 C   0  0  0  0  0  1  0  0  0  0  0  0
  191.8160  174.6240  141.7570 C   0  0  2  0  0  3  0  0  0  0  0  0
  189.8510  173.4620  140.7430 N   0  0  0  0  0  2  0  0  0  0  0  0
  192.6230  173.5740  140.9870 C   0  0  0  0  0  2  0  0  0  0  0  0
  192.3090  174.6240  143.1910 C   0  0  2  0  0  3  0  0  0  0  0  0
  191.3140  173.9740  144.0470 N   0  0  0  0  0  2  0  0  0  0  0  0
  190.2960  173.4260  143.1570 C   0  0  0  0  0  2  0  0  0  0  0  0
  193.9860  175.0450  145.5680 C   0  0  0  0  0  2  0  0  0  0  0  0
  196.4770  174.6350  143.2740 C   0  0  1  0  0  3  0  0  0  0  0  0
  197.6300  173.8360  143.8990 C   0  0  2  0  0  3  0  0  0  0  0  0
  197.6380  172.1840  143.2290 Cl  0  0  0  0  0  0  0  0  0  0  0  0
  196.1350  173.8540  145.9390 C   0  0  0  0  0  2  0  0  0  0  0  0
  195.9880  175.7450  144.2040 C   0  0  0  0  0  2  0  0  0  0  0  0
  195.5000  175.1950  145.5580 C   0  0  1  0  0  3  0  0  0  0  0  0
  196.9260  175.2290  141.9550 C   0  0  0  0  0  1  0  0  0  0  0  0
  197.5720  173.7700  145.4320 C   0  0  0  0  0  2  0  0  0  0  0  0
  192.0310  177.1380  142.9440 C   0  0  0  0  0  2  0  0  0  0  0  0
  190.6950  177.5840  143.5390 C   0  0  0  0  0  2  0  0  0  0  0  0
  189.9230  178.2880  142.6060 O   0  0  0  0  0  0  0  0  0  0  0  0
  188.7980  177.4920  142.3610 C   0  0  0  0  0  2  0  0  0  0  0  0
  187.5180  178.2620  142.6590 C   0  0  0  0  0  2  0  0  0  0  0  0
  185.5670  176.8350  143.4650 N   0  0  0  0  0  2  0  0  0  0  0  0
  186.2960  177.4390  142.3910 C   0  0  0  0  0  0  0  0  0  0  0  0
  185.9430  177.2200  141.2040 O   0  0  0  0  0  0  0  0  0  0  0  0
  185.5290  177.3290  144.8120 C   0  0  0  0  0  0  0  0  0  0  0  0
  186.3210  177.2510  147.1090 C   0  0  0  0  0  3  0  0  0  0  0  0
  184.5920  178.3050  145.1870 C   0  0  0  0  0  3  0  0  0  0  0  0
  184.5240  178.7540  146.5070 C   0  0  0  0  0  3  0  0  0  0  0  0
  186.3920  176.7960  145.7860 C   0  0  0  0  0  0  0  0  0  0  0  0
  185.3870  178.2260  147.4680 C   0  0  0  0  0  3  0  0  0  0  0  0
  187.4590  175.8150  145.4140 C   0  0  0  0  0  2  0  0  0  0  0  0
  188.6800  176.0350  146.2460 C   0  0  0  0  0  0  0  0  0  0  0  0
  190.9340  176.4450  147.8550 C   0  0  0  0  0  3  0  0  0  0  0  0
  190.2860  177.5370  147.2680 C   0  0  0  0  0  3  0  0  0  0  0  0
  190.4580  175.1480  147.6370 C   0  0  0  0  0  3  0  0  0  0  0  0
  189.1620  177.3310  146.4630 C   0  0  0  0  0  3  0  0  0  0  0  0
  189.3300  174.9420  146.8350 C   0  0  0  0  0  3  0  0  0  0  0  0
  1  2  1  0  0  0  0
  2  3  2  0  0  0  0
  2 14  1  0  0  0  0
  4  6  2  0  0  0  0
  4  9  1  0  0  0  0
  5 13  1  1  0  0  0
  6 10  1  0  0  0  0
  7  4  1  0  0  0  0
  8 10  1  6  0  0  0
  8  5  1  0  0  0  0
  8 11  1  0  0  0  0
  9  5  1  0  0  0  0
 11  1  1  1  0  0  0
 11 12  1  0  0  0  0
 13 12  1  0  0  0  0
 15 21  1  6  0  0  0
 15 16  1  0  0  0  0
 15 19  1  0  0  0  0
 16 17  1  6  0  0  0
 16 22  1  0  0  0  0
 19 20  1  0  0  0  0
 20 14  1  6  0  0  0
 20 18  1  0  0  0  0
 22 18  1  0  0  0  0
 23 24  1  0  0  0  0
 23  1  1  0  0  0  0
 25 24  1  0  0  0  0
 26 25  1  0  0  0  0
 26 27  1  0  0  0  0
 28 31  1  0  0  0  0
 29 27  1  0  0  0  0
 29 28  1  0  0  0  0
 30 29  2  0  0  0  0
 31 33  2  0  0  0  0
 31 35  1  0  0  0  0
 32 36  1  0  0  0  0
 33 34  1  0  0  0  0
 34 36  2  0  0  0  0
 35 32  2  0  0  0  0
 37 35  1  0  0  0  0
 37 38  1  0  0  0  0
 38 42  2  0  0  0  0
 38 43  1  0  0  0  0
 40 39  2  0  0  0  0
 41 39  1  0  0  0  0
 42 40  1  0  0  0  0
 43 41  2  0  0  0  0
M  END
>  <MODEL>
9

>  <REMARK>
 VINA RESULT:      -6.8      2.287      3.421
  Name = 
  12 active torsions:
  status: ('A' for Active; 'I' for Inactive)
    1  A    between atoms: C_1  and  C_34
    2  A    between atoms: C_1  and  C_35
    3  A    between atoms: O_2  and  C_7
    4  A    between atoms: O_2  and  C_13
    5  A    between atoms: N_3  and  C_4
    6  A    between atoms: C_6  and  C_7
    7  A    between atoms: C_6  and  C_12
    8  A    between atoms: N_8  and  C_27
    9  A    between atoms: N_8  and  C_30
   10  A    between atoms: C_11  and  C_14
   11  A    between atoms: C_13  and  C_27
   12  A    between atoms: C_14  and  C_41
                            x       y       z     vdW  Elec       q    Type
                         _______ _______ _______ _____ _____    ______ ____

>  <TORSDO>
F 12

$$$$
