=
 OpenBabel11052421353D

 32 36  0  0  1  0  0  0  0  0999 V2000
  195.2290  176.3390  144.3820 C   0  0  1  0  0  3  0  0  0  0  0  0
  190.2050  176.2780  145.3480 C   0  0  0  0  0  0  0  0  0  0  0  0
  188.1960  175.2650  141.0300 C   0  0  0  0  0  3  0  0  0  0  0  0
  186.9400  175.5970  141.5380 C   0  0  0  0  0  3  0  0  0  0  0  0
  192.6320  175.7570  145.6680 C   0  0  1  0  0  3  0  0  0  0  0  0
  191.7150  175.4580  143.5030 C   0  0  0  0  0  2  0  0  0  0  0  0
  194.0440  175.5930  143.7530 C   0  0  0  0  0  2  0  0  0  0  0  0
  189.3270  175.3560  141.8450 C   0  0  0  0  0  3  0  0  0  0  0  0
  190.3520  175.8740  144.0040 C   0  0  0  0  0  0  0  0  0  0  0  0
  189.2140  175.7780  143.1790 C   0  0  0  0  0  0  0  0  0  0  0  0
  187.8110  176.5300  145.0350 C   0  0  0  0  0  0  0  0  0  0  0  0
  194.8640  176.9770  145.7290 C   0  0  0  0  0  2  0  0  0  0  0  0
  192.7780  176.1270  144.2490 N   0  0  2  0  0  0  0  0  0  0  0  0
  193.8690  176.1180  146.5080 C   0  0  0  0  0  2  0  0  0  0  0  0
  186.8100  176.0170  142.8630 C   0  0  0  0  0  3  0  0  0  0  0  0
  187.9360  176.1130  143.6960 C   0  0  0  0  0  0  0  0  0  0  0  0
  191.3970  176.4410  146.2480 C   0  0  0  0  0  2  0  0  0  0  0  0
  188.9460  176.6160  145.8440 C   0  0  0  0  0  3  0  0  0  0  0  0
  196.4070  175.3950  144.5580 C   0  0  0  0  0  2  0  0  0  0  0  0
  196.3210  173.1390  145.6730 C   0  0  0  0  0  0  0  0  0  0  0  0
  195.9380  174.0200  144.6180 N   0  0  0  0  0  2  0  0  0  0  0  0
  195.8430  171.7990  145.6790 N   0  0  0  0  0  1  0  0  0  0  0  0
  197.0810  173.5350  146.5960 O   0  0  0  0  0  0  0  0  0  0  0  0
  186.4930  176.9290  145.6190 C   0  0  0  0  0  2  0  0  0  0  0  0
  186.4730  178.3670  145.8680 N   0  0  0  0  0  0  0  0  0  0  0  0
  186.4240  178.9660  148.2840 C   0  0  1  0  0  3  0  0  0  0  0  0
  187.8030  178.9240  148.0520 O   0  0  0  0  0  1  0  0  0  0  0  0
  185.6160  178.6320  147.0270 C   0  0  2  0  0  3  0  0  0  0  0  0
  185.8440  177.5820  148.1000 C   0  0  0  0  0  2  0  0  0  0  0  0
  185.9400  179.0550  144.6840 C   0  0  0  0  0  2  0  0  0  0  0  0
  184.4300  178.8970  144.5130 C   0  0  0  0  0  2  0  0  0  0  0  0
  184.1240  178.4700  143.0940 C   0  0  0  0  0  1  0  0  0  0  0  0
  1 19  1  1  0  0  0
  1 12  1  0  0  0  0
  2 18  1  0  0  0  0
  2 17  1  0  0  0  0
  3  4  2  0  0  0  0
  3  8  1  0  0  0  0
  4 15  1  0  0  0  0
  5 17  1  1  0  0  0
  5 14  1  0  0  0  0
  6  9  1  0  0  0  0
  7 13  1  0  0  0  0
  7  1  1  0  0  0  0
  8 10  2  0  0  0  0
  9  2  2  0  0  0  0
 10 16  1  0  0  0  0
 10  9  1  0  0  0  0
 11 24  1  0  0  0  0
 11 18  2  0  0  0  0
 12 14  1  0  0  0  0
 13  6  1  6  0  0  0
 13  5  1  0  0  0  0
 15 16  2  0  0  0  0
 16 11  1  0  0  0  0
 19 21  1  0  0  0  0
 20 22  1  0  0  0  0
 20 23  2  0  0  0  0
 21 20  1  0  0  0  0
 24 25  1  0  0  0  0
 26 27  1  6  0  0  0
 28 25  1  6  0  0  0
 28 29  1  0  0  0  0
 28 26  1  0  0  0  0
 29 26  1  0  0  0  0
 30 25  1  0  0  0  0
 31 30  1  0  0  0  0
 32 31  1  0  0  0  0
M  END
>  <MODEL>
1

>  <REMARK>
 VINA RESULT:      -6.8      0.000      0.000
  Name = 
  7 active torsions:
  status: ('A' for Active; 'I' for Inactive)
    1  A    between atoms: C_2  and  C_24
    2  A    between atoms: C_6  and  C_7
    3  A    between atoms: C_7  and  N_32
    4  A    between atoms: N_10  and  C_24
    5  A    between atoms: C_16  and  C_27
    6  A    between atoms: C_22  and  N_32
    7  A    between atoms: C_27  and  N_32
                            x       y       z     vdW  Elec       q    Type
                         _______ _______ _______ _____ _____    ______ ____

>  <TORSDO>
F 7

$$$$
=
 OpenBabel11052421353D

 32 36  0  0  1  0  0  0  0  0999 V2000
  183.6560  178.6560  141.2840 C   0  0  1  0  0  3  0  0  0  0  0  0
  188.4240  177.4520  142.6950 C   0  0  0  0  0  0  0  0  0  0  0  0
  188.2670  177.5630  147.5610 C   0  0  0  0  0  3  0  0  0  0  0  0
  189.6610  177.4990  147.6050 C   0  0  0  0  0  3  0  0  0  0  0  0
  186.2600  177.2670  141.4520 C   0  0  1  0  0  3  0  0  0  0  0  0
  186.1620  177.5320  143.8060 C   0  0  0  0  0  2  0  0  0  0  0  0
  184.2460  177.9660  142.5220 C   0  0  0  0  0  2  0  0  0  0  0  0
  187.6070  177.5730  146.3300 C   0  0  0  0  0  3  0  0  0  0  0  0
  187.6710  177.5320  143.8850 C   0  0  0  0  0  0  0  0  0  0  0  0
  188.3320  177.5190  145.1290 C   0  0  0  0  0  0  0  0  0  0  0  0
  190.4850  177.3880  143.9770 C   0  0  0  0  0  0  0  0  0  0  0  0
  184.6700  178.7560  140.1370 C   0  0  0  0  0  2  0  0  0  0  0  0
  185.7010  178.0930  142.5370 N   0  0  2  0  0  0  0  0  0  0  0  0
  185.5930  177.5390  140.0930 C   0  0  0  0  0  2  0  0  0  0  0  0
  190.3970  177.4430  146.4210 C   0  0  0  0  0  3  0  0  0  0  0  0
  189.7480  177.4520  145.1760 C   0  0  0  0  0  0  0  0  0  0  0  0
  187.7620  177.5120  141.3470 C   0  0  0  0  0  2  0  0  0  0  0  0
  189.8170  177.3970  142.7510 C   0  0  0  0  0  3  0  0  0  0  0  0
  182.4150  177.9160  140.8140 C   0  0  0  0  0  2  0  0  0  0  0  0
  179.9420  178.2760  141.1260 C   0  0  0  0  0  0  0  0  0  0  0  0
  181.2740  178.2880  141.6360 N   0  0  0  0  0  2  0  0  0  0  0  0
  178.8620  178.6590  141.9680 N   0  0  0  0  0  1  0  0  0  0  0  0
  179.7140  177.9340  139.9350 O   0  0  0  0  0  0  0  0  0  0  0  0
  191.9810  177.3520  143.9690 C   0  0  0  0  0  2  0  0  0  0  0  0
  192.4500  176.0490  144.4310 N   0  0  0  0  0  0  0  0  0  0  0  0
  194.2390  175.7040  146.1280 C   0  0  1  0  0  3  0  0  0  0  0  0
  193.1060  175.3430  146.8640 O   0  0  0  0  0  1  0  0  0  0  0  0
  193.8870  176.1360  144.7000 C   0  0  2  0  0  3  0  0  0  0  0  0
  194.1580  177.1730  145.7760 C   0  0  0  0  0  2  0  0  0  0  0  0
  192.1960  175.0460  143.3870 C   0  0  0  0  0  2  0  0  0  0  0  0
  191.7420  173.6940  143.9370 C   0  0  0  0  0  2  0  0  0  0  0  0
  190.5920  173.9020  144.8990 C   0  0  0  0  0  1  0  0  0  0  0  0
  1 19  1  6  0  0  0
  1  7  1  0  0  0  0
  2 18  2  0  0  0  0
  2  9  1  0  0  0  0
  3  4  1  0  0  0  0
  5 14  1  6  0  0  0
  5 13  1  0  0  0  0
  6  9  1  0  0  0  0
  8  3  2  0  0  0  0
  9 10  2  0  0  0  0
 10 16  1  0  0  0  0
 10  8  1  0  0  0  0
 11 16  2  0  0  0  0
 12  1  1  0  0  0  0
 13  7  1  1  0  0  0
 13  6  1  0  0  0  0
 14 12  1  0  0  0  0
 15  4  2  0  0  0  0
 16 15  1  0  0  0  0
 17  5  1  0  0  0  0
 17  2  1  0  0  0  0
 18 11  1  0  0  0  0
 19 21  1  0  0  0  0
 20 21  1  0  0  0  0
 20 22  1  0  0  0  0
 23 20  2  0  0  0  0
 24 11  1  0  0  0  0
 24 25  1  0  0  0  0
 26 27  1  1  0  0  0
 28 25  1  1  0  0  0
 28 29  1  0  0  0  0
 28 26  1  0  0  0  0
 29 26  1  0  0  0  0
 30 31  1  0  0  0  0
 30 25  1  0  0  0  0
 31 32  1  0  0  0  0
M  END
>  <MODEL>
2

>  <REMARK>
 VINA RESULT:      -6.8      3.464      9.589
  Name = 
  7 active torsions:
  status: ('A' for Active; 'I' for Inactive)
    1  A    between atoms: C_2  and  C_24
    2  A    between atoms: C_6  and  C_7
    3  A    between atoms: C_7  and  N_32
    4  A    between atoms: N_10  and  C_24
    5  A    between atoms: C_16  and  C_27
    6  A    between atoms: C_22  and  N_32
    7  A    between atoms: C_27  and  N_32
                            x       y       z     vdW  Elec       q    Type
                         _______ _______ _______ _____ _____    ______ ____

>  <TORSDO>
F 7

$$$$
=
 OpenBabel11052421353D

 32 36  0  0  1  0  0  0  0  0999 V2000
  189.6970  171.7080  139.8210 C   0  0  1  0  0  3  0  0  0  0  0  0
  188.3980  175.8120  142.5860 C   0  0  0  0  0  0  0  0  0  0  0  0
  191.0620  175.3810  146.6400 C   0  0  0  0  0  3  0  0  0  0  0  0
  190.3090  176.3920  147.2400 C   0  0  0  0  0  3  0  0  0  0  0  0
  189.1020  174.5030  140.5720 C   0  0  1  0  0  3  0  0  0  0  0  0
  190.2750  174.1280  142.5970 C   0  0  0  0  0  2  0  0  0  0  0  0
  190.4390  172.5510  140.8680 C   0  0  0  0  0  2  0  0  0  0  0  0
  190.7740  174.9760  145.3340 C   0  0  0  0  0  3  0  0  0  0  0  0
  189.4360  175.1720  143.2960 C   0  0  0  0  0  0  0  0  0  0  0  0
  189.7320  175.5780  144.6120 C   0  0  0  0  0  0  0  0  0  0  0  0
  187.9260  177.2240  144.5030 C   0  0  0  0  0  0  0  0  0  0  0  0
  188.4220  172.3960  139.3190 C   0  0  0  0  0  2  0  0  0  0  0  0
  189.5190  173.4680  141.5350 N   0  0  2  0  0  0  0  0  0  0  0  0
  188.5910  173.9130  139.2460 C   0  0  0  0  0  2  0  0  0  0  0  0
  189.2690  177.0020  146.5350 C   0  0  0  0  0  3  0  0  0  0  0  0
  188.9690  176.6070  145.2220 C   0  0  0  0  0  0  0  0  0  0  0  0
  188.0180  175.3760  141.1990 C   0  0  0  0  0  2  0  0  0  0  0  0
  187.6470  176.8150  143.1980 C   0  0  0  0  0  3  0  0  0  0  0  0
  190.6150  171.4000  138.6500 C   0  0  0  0  0  2  0  0  0  0  0  0
  191.8080  173.3250  137.5480 C   0  0  0  0  0  0  0  0  0  0  0  0
  191.6990  172.3680  138.6000 N   0  0  0  0  0  2  0  0  0  0  0  0
  192.8940  174.2430  137.5400 N   0  0  0  0  0  1  0  0  0  0  0  0
  190.9530  173.3610  136.6230 O   0  0  0  0  0  0  0  0  0  0  0  0
  187.0680  178.2880  145.1110 C   0  0  0  0  0  2  0  0  0  0  0  0
  185.6970  177.8070  145.2450 N   0  0  0  0  0  0  0  0  0  0  0  0
  184.0540  178.8720  143.7070 C   0  0  1  0  0  3  0  0  0  0  0  0
  184.4410  177.7610  142.9500 O   0  0  0  0  0  1  0  0  0  0  0  0
  184.7810  178.9340  145.0540 C   0  0  2  0  0  3  0  0  0  0  0  0
  185.2410  179.7920  143.8880 C   0  0  0  0  0  2  0  0  0  0  0  0
  185.5140  177.2350  146.5870 C   0  0  0  0  0  2  0  0  0  0  0  0
  185.1950  178.2790  147.6570 C   0  0  0  0  0  2  0  0  0  0  0  0
  186.4730  178.7010  148.3480 C   0  0  0  0  0  1  0  0  0  0  0  0
  1 19  1  6  0  0  0
  1  7  1  0  0  0  0
  2 18  2  0  0  0  0
  2  9  1  0  0  0  0
  3  4  1  0  0  0  0
  5 14  1  6  0  0  0
  5 17  1  0  0  0  0
  5 13  1  0  0  0  0
  6  9  1  0  0  0  0
  8  3  2  0  0  0  0
  9 10  2  0  0  0  0
 10 16  1  0  0  0  0
 10  8  1  0  0  0  0
 11 24  1  0  0  0  0
 11 16  2  0  0  0  0
 12  1  1  0  0  0  0
 13  7  1  6  0  0  0
 13  6  1  0  0  0  0
 14 12  1  0  0  0  0
 15  4  2  0  0  0  0
 16 15  1  0  0  0  0
 17  2  1  0  0  0  0
 18 11  1  0  0  0  0
 20 21  1  0  0  0  0
 21 19  1  0  0  0  0
 22 20  1  0  0  0  0
 23 20  2  0  0  0  0
 24 25  1  0  0  0  0
 25 30  1  0  0  0  0
 26 27  1  6  0  0  0
 26 29  1  0  0  0  0
 26 28  1  0  0  0  0
 28 25  1  6  0  0  0
 29 28  1  0  0  0  0
 30 31  1  0  0  0  0
 31 32  1  0  0  0  0
M  END
>  <MODEL>
3

>  <REMARK>
 VINA RESULT:      -6.7      3.818      5.972
  Name = 
  7 active torsions:
  status: ('A' for Active; 'I' for Inactive)
    1  A    between atoms: C_2  and  C_24
    2  A    between atoms: C_6  and  C_7
    3  A    between atoms: C_7  and  N_32
    4  A    between atoms: N_10  and  C_24
    5  A    between atoms: C_16  and  C_27
    6  A    between atoms: C_22  and  N_32
    7  A    between atoms: C_27  and  N_32
                            x       y       z     vdW  Elec       q    Type
                         _______ _______ _______ _____ _____    ______ ____

>  <TORSDO>
F 7

$$$$
=
 OpenBabel11052421353D

 32 36  0  0  1  0  0  0  0  0999 V2000
  196.2150  175.3700  143.0460 C   0  0  1  0  0  3  0  0  0  0  0  0
  191.4440  176.6640  144.3660 C   0  0  0  0  0  0  0  0  0  0  0  0
  188.6490  173.6990  141.6990 C   0  0  0  0  0  3  0  0  0  0  0  0
  187.5260  174.4550  142.0390 C   0  0  0  0  0  3  0  0  0  0  0  0
  193.8480  176.0430  144.6820 C   0  0  1  0  0  3  0  0  0  0  0  0
  192.5490  174.7120  143.2140 C   0  0  0  0  0  2  0  0  0  0  0  0
  194.8900  174.5960  143.0990 C   0  0  0  0  0  2  0  0  0  0  0  0
  189.9080  174.0600  142.1850 C   0  0  0  0  0  3  0  0  0  0  0  0
  191.3260  175.5480  143.5100 C   0  0  0  0  0  0  0  0  0  0  0  0
  190.0580  175.1790  143.0190 C   0  0  0  0  0  0  0  0  0  0  0  0
  189.0550  177.0650  144.2090 C   0  0  0  0  0  0  0  0  0  0  0  0
  196.1350  176.7100  143.7890 C   0  0  0  0  0  2  0  0  0  0  0  0
  193.7700  175.5090  143.3110 N   0  0  2  0  0  0  0  0  0  0  0  0
  195.2340  176.6190  145.0200 C   0  0  0  0  0  2  0  0  0  0  0  0
  187.6580  175.5710  142.8680 C   0  0  0  0  0  3  0  0  0  0  0  0
  188.9160  175.9450  143.3660 C   0  0  0  0  0  0  0  0  0  0  0  0
  192.7830  177.1200  144.8710 C   0  0  0  0  0  2  0  0  0  0  0  0
  190.3170  177.4170  144.6930 C   0  0  0  0  0  3  0  0  0  0  0  0
  197.3380  174.5250  143.6220 C   0  0  0  0  0  2  0  0  0  0  0  0
  196.8300  172.9100  145.4860 C   0  0  0  0  0  0  0  0  0  0  0  0
  196.8100  173.2580  144.1030 N   0  0  0  0  0  2  0  0  0  0  0  0
  196.3100  171.6530  145.9040 N   0  0  0  0  0  1  0  0  0  0  0  0
  197.3050  173.7040  146.3410 O   0  0  0  0  0  0  0  0  0  0  0  0
  187.8890  177.9270  144.5770 C   0  0  0  0  0  2  0  0  0  0  0  0
  187.2510  177.4120  145.7840 N   0  0  0  0  0  0  0  0  0  0  0  0
  185.0050  177.9800  146.7000 C   0  0  1  0  0  3  0  0  0  0  0  0
  184.8190  176.6360  146.3600 O   0  0  0  0  0  1  0  0  0  0  0  0
  186.4180  178.4700  146.3630 C   0  0  2  0  0  3  0  0  0  0  0  0
  185.2520  178.7830  145.4420 C   0  0  0  0  0  2  0  0  0  0  0  0
  188.2870  177.0090  146.7450 C   0  0  0  0  0  2  0  0  0  0  0  0
  188.1190  175.5800  147.2600 C   0  0  0  0  0  2  0  0  0  0  0  0
  189.4490  174.8610  147.1940 C   0  0  0  0  0  1  0  0  0  0  0  0
  1  7  1  0  0  0  0
  1 19  1  1  0  0  0
  1 12  1  0  0  0  0
  2 18  1  0  0  0  0
  2 17  1  0  0  0  0
  3  4  2  0  0  0  0
  3  8  1  0  0  0  0
  4 15  1  0  0  0  0
  5 17  1  6  0  0  0
  5 14  1  0  0  0  0
  6 13  1  0  0  0  0
  6  9  1  0  0  0  0
  8 10  2  0  0  0  0
  9  2  2  0  0  0  0
 10 16  1  0  0  0  0
 10  9  1  0  0  0  0
 11 24  1  0  0  0  0
 11 18  2  0  0  0  0
 12 14  1  0  0  0  0
 13  7  1  1  0  0  0
 13  5  1  0  0  0  0
 15 16  2  0  0  0  0
 16 11  1  0  0  0  0
 19 21  1  0  0  0  0
 20 22  1  0  0  0  0
 20 23  2  0  0  0  0
 21 20  1  0  0  0  0
 24 25  1  0  0  0  0
 25 30  1  0  0  0  0
 26 27  1  6  0  0  0
 28 25  1  6  0  0  0
 28 26  1  0  0  0  0
 29 28  1  0  0  0  0
 29 26  1  0  0  0  0
 30 31  1  0  0  0  0
 32 31  1  0  0  0  0
M  END
>  <MODEL>
4

>  <REMARK>
 VINA RESULT:      -6.7      1.503      2.461
  Name = 
  7 active torsions:
  status: ('A' for Active; 'I' for Inactive)
    1  A    between atoms: C_2  and  C_24
    2  A    between atoms: C_6  and  C_7
    3  A    between atoms: C_7  and  N_32
    4  A    between atoms: N_10  and  C_24
    5  A    between atoms: C_16  and  C_27
    6  A    between atoms: C_22  and  N_32
    7  A    between atoms: C_27  and  N_32
                            x       y       z     vdW  Elec       q    Type
                         _______ _______ _______ _____ _____    ______ ____

>  <TORSDO>
F 7

$$$$
=
 OpenBabel11052421353D

 32 36  0  0  1  0  0  0  0  0999 V2000
  185.2590  178.8900  143.1720 C   0  0  1  0  0  3  0  0  0  0  0  0
  189.1460  176.0920  144.9720 C   0  0  0  0  0  0  0  0  0  0  0  0
  190.4450  178.3910  149.0640 C   0  0  0  0  0  3  0  0  0  0  0  0
  191.6070  177.6200  149.1260 C   0  0  0  0  0  3  0  0  0  0  0  0
  186.8800  176.5700  144.0240 C   0  0  1  0  0  3  0  0  0  0  0  0
  187.5860  177.8460  145.8920 C   0  0  0  0  0  2  0  0  0  0  0  0
  185.7980  178.6190  144.5840 C   0  0  0  0  0  2  0  0  0  0  0  0
  189.5420  178.2110  148.0130 C   0  0  0  0  0  3  0  0  0  0  0  0
  188.8830  177.0750  145.9500 C   0  0  0  0  0  0  0  0  0  0  0  0
  189.7890  177.2580  147.0130 C   0  0  0  0  0  0  0  0  0  0  0  0
  191.2230  175.5080  146.0850 C   0  0  0  0  0  0  0  0  0  0  0  0
  185.8360  177.9170  142.1350 C   0  0  0  0  0  2  0  0  0  0  0  0
  187.0890  177.9410  144.5210 N   0  0  2  0  0  0  0  0  0  0  0  0
  186.0530  176.5250  142.7270 C   0  0  0  0  0  2  0  0  0  0  0  0
  191.8680  176.6670  148.1400 C   0  0  0  0  0  3  0  0  0  0  0  0
  190.9690  176.4730  147.0780 C   0  0  0  0  0  0  0  0  0  0  0  0
  188.2310  175.8980  143.7960 C   0  0  0  0  0  2  0  0  0  0  0  0
  190.3150  175.3330  145.0400 C   0  0  0  0  0  3  0  0  0  0  0  0
  183.7420  178.8120  143.1670 C   0  0  0  0  0  2  0  0  0  0  0  0
  181.9350  178.4730  141.4450 C   0  0  0  0  0  0  0  0  0  0  0  0
  183.2750  178.2820  141.8950 N   0  0  0  0  0  2  0  0  0  0  0  0
  181.5270  177.9240  140.1980 N   0  0  0  0  0  1  0  0  0  0  0  0
  181.1100  179.1210  142.1430 O   0  0  0  0  0  0  0  0  0  0  0  0
  192.4690  174.6800  146.0870 C   0  0  0  0  0  2  0  0  0  0  0  0
  192.9810  174.5470  144.7260 N   0  0  0  0  0  0  0  0  0  0  0  0
  192.8000  172.5690  143.2250 C   0  0  1  0  0  3  0  0  0  0  0  0
  191.9850  173.4850  142.5520 O   0  0  0  0  0  1  0  0  0  0  0  0
  193.3900  173.1570  144.5110 C   0  0  2  0  0  3  0  0  0  0  0  0
  192.1800  172.2390  144.5640 C   0  0  0  0  0  2  0  0  0  0  0  0
  194.1350  175.4400  144.5550 C   0  0  0  0  0  2  0  0  0  0  0  0
  194.6530  176.0280  145.8670 C   0  0  0  0  0  2  0  0  0  0  0  0
  194.6330  177.5390  145.7860 C   0  0  0  0  0  1  0  0  0  0  0  0
  1 19  1  1  0  0  0
  1  7  1  0  0  0  0
  2 18  2  0  0  0  0
  2  9  1  0  0  0  0
  3  4  1  0  0  0  0
  5 14  1  6  0  0  0
  5 13  1  0  0  0  0
  6  9  1  0  0  0  0
  8  3  2  0  0  0  0
  9 10  2  0  0  0  0
 10 16  1  0  0  0  0
 10  8  1  0  0  0  0
 11 24  1  0  0  0  0
 11 16  2  0  0  0  0
 12 14  1  0  0  0  0
 12  1  1  0  0  0  0
 13  7  1  1  0  0  0
 13  6  1  0  0  0  0
 15  4  2  0  0  0  0
 16 15  1  0  0  0  0
 17  5  1  0  0  0  0
 17  2  1  0  0  0  0
 18 11  1  0  0  0  0
 20 21  1  0  0  0  0
 20 23  2  0  0  0  0
 21 19  1  0  0  0  0
 22 20  1  0  0  0  0
 25 24  1  0  0  0  0
 26 27  1  6  0  0  0
 26 28  1  0  0  0  0
 26 29  1  0  0  0  0
 28 29  1  0  0  0  0
 28 25  1  6  0  0  0
 30 25  1  0  0  0  0
 30 31  1  0  0  0  0
 32 31  1  0  0  0  0
M  END
>  <MODEL>
5

>  <REMARK>
 VINA RESULT:      -6.7      3.063      9.300
  Name = 
  7 active torsions:
  status: ('A' for Active; 'I' for Inactive)
    1  A    between atoms: C_2  and  C_24
    2  A    between atoms: C_6  and  C_7
    3  A    between atoms: C_7  and  N_32
    4  A    between atoms: N_10  and  C_24
    5  A    between atoms: C_16  and  C_27
    6  A    between atoms: C_22  and  N_32
    7  A    between atoms: C_27  and  N_32
                            x       y       z     vdW  Elec       q    Type
                         _______ _______ _______ _____ _____    ______ ____

>  <TORSDO>
F 7

$$$$
=
 OpenBabel11052421353D

 32 36  0  0  1  0  0  0  0  0999 V2000
  185.3850  178.8450  143.4270 C   0  0  1  0  0  3  0  0  0  0  0  0
  190.0710  176.7950  143.3450 C   0  0  0  0  0  0  0  0  0  0  0  0
  191.4370  176.8120  148.0190 C   0  0  0  0  0  3  0  0  0  0  0  0
  192.7440  176.5050  147.6360 C   0  0  0  0  0  3  0  0  0  0  0  0
  187.6320  177.0210  142.8320 C   0  0  1  0  0  3  0  0  0  0  0  0
  188.3090  177.2410  145.0920 C   0  0  0  0  0  2  0  0  0  0  0  0
  186.1970  178.0330  144.4450 C   0  0  0  0  0  2  0  0  0  0  0  0
  190.4430  176.9680  147.0500 C   0  0  0  0  0  3  0  0  0  0  0  0
  189.7450  176.9760  144.7060 C   0  0  0  0  0  0  0  0  0  0  0  0
  190.7430  176.8180  145.6870 C   0  0  0  0  0  0  0  0  0  0  0  0
  192.3820  176.3420  143.9350 C   0  0  0  0  0  0  0  0  0  0  0  0
  185.9980  178.7960  142.0220 C   0  0  0  0  0  2  0  0  0  0  0  0
  187.5850  177.9050  144.0100 N   0  0  2  0  0  0  0  0  0  0  0  0
  186.6380  177.4380  141.7340 C   0  0  0  0  0  2  0  0  0  0  0  0
  193.0590  176.3510  146.2850 C   0  0  0  0  0  3  0  0  0  0  0  0
  192.0710  176.5030  145.2990 C   0  0  0  0  0  0  0  0  0  0  0  0
  189.0490  177.0030  142.2640 C   0  0  0  0  0  2  0  0  0  0  0  0
  191.3820  176.4970  142.9730 C   0  0  0  0  0  3  0  0  0  0  0  0
  183.9510  178.3450  143.3830 C   0  0  0  0  0  2  0  0  0  0  0  0
  182.3030  178.2870  141.4790 C   0  0  0  0  0  0  0  0  0  0  0  0
  183.5890  177.9900  142.0200 N   0  0  0  0  0  2  0  0  0  0  0  0
  181.9960  177.9090  140.1430 N   0  0  0  0  0  1  0  0  0  0  0  0
  181.4360  178.8800  142.1760 O   0  0  0  0  0  0  0  0  0  0  0  0
  193.7730  176.0460  143.4700 C   0  0  0  0  0  2  0  0  0  0  0  0
  194.2070  174.7530  143.9900 N   0  0  0  0  0  0  0  0  0  0  0  0
  196.5680  174.3810  144.6890 C   0  0  1  0  0  3  0  0  0  0  0  0
  195.9530  174.5670  145.9310 O   0  0  0  0  0  1  0  0  0  0  0  0
  195.5740  174.4960  143.5290 C   0  0  2  0  0  3  0  0  0  0  0  0
  196.4780  175.6610  143.8900 C   0  0  0  0  0  2  0  0  0  0  0  0
  193.3060  173.7040  143.4930 C   0  0  0  0  0  2  0  0  0  0  0  0
  192.7630  172.7930  144.5940 C   0  0  0  0  0  2  0  0  0  0  0  0
  191.2540  172.8990  144.6370 C   0  0  0  0  0  1  0  0  0  0  0  0
  1 19  1  6  0  0  0
  1  7  1  0  0  0  0
  2  9  1  0  0  0  0
  4  3  1  0  0  0  0
  5 14  1  6  0  0  0
  5 13  1  0  0  0  0
  8  3  2  0  0  0  0
  9  6  1  0  0  0  0
  9 10  2  0  0  0  0
 10  8  1  0  0  0  0
 11 16  2  0  0  0  0
 12  1  1  0  0  0  0
 13  7  1  1  0  0  0
 13  6  1  0  0  0  0
 14 12  1  0  0  0  0
 15  4  2  0  0  0  0
 16 10  1  0  0  0  0
 16 15  1  0  0  0  0
 17  5  1  0  0  0  0
 17  2  1  0  0  0  0
 18  2  2  0  0  0  0
 18 11  1  0  0  0  0
 20 21  1  0  0  0  0
 20 23  2  0  0  0  0
 21 19  1  0  0  0  0
 22 20  1  0  0  0  0
 24 11  1  0  0  0  0
 24 25  1  0  0  0  0
 26 27  1  1  0  0  0
 28 29  1  0  0  0  0
 28 25  1  1  0  0  0
 28 26  1  0  0  0  0
 29 26  1  0  0  0  0
 30 25  1  0  0  0  0
 30 31  1  0  0  0  0
 31 32  1  0  0  0  0
M  END
>  <MODEL>
6

>  <REMARK>
 VINA RESULT:      -6.5      2.662      9.303
  Name = 
  7 active torsions:
  status: ('A' for Active; 'I' for Inactive)
    1  A    between atoms: C_2  and  C_24
    2  A    between atoms: C_6  and  C_7
    3  A    between atoms: C_7  and  N_32
    4  A    between atoms: N_10  and  C_24
    5  A    between atoms: C_16  and  C_27
    6  A    between atoms: C_22  and  N_32
    7  A    between atoms: C_27  and  N_32
                            x       y       z     vdW  Elec       q    Type
                         _______ _______ _______ _____ _____    ______ ____

>  <TORSDO>
F 7

$$$$
=
 OpenBabel11052421353D

 32 36  0  0  1  0  0  0  0  0999 V2000
  196.1540  173.0680  144.7780 C   0  0  1  0  0  3  0  0  0  0  0  0
  191.7990  175.7490  144.6260 C   0  0  0  0  0  0  0  0  0  0  0  0
  188.7540  172.8930  142.1190 C   0  0  0  0  0  3  0  0  0  0  0  0
  187.8530  173.9530  142.0100 C   0  0  0  0  0  3  0  0  0  0  0  0
  193.8410  174.7010  145.6240 C   0  0  1  0  0  3  0  0  0  0  0  0
  192.4770  173.3530  144.2320 C   0  0  0  0  0  2  0  0  0  0  0  0
  194.6730  172.6700  144.6940 C   0  0  0  0  0  2  0  0  0  0  0  0
  189.9660  173.0720  142.7910 C   0  0  0  0  0  3  0  0  0  0  0  0
  191.5110  174.4990  144.0400 C   0  0  0  0  0  0  0  0  0  0  0  0
  190.2900  174.3120  143.3630 C   0  0  0  0  0  0  0  0  0  0  0  0
  189.6830  176.6340  143.8320 C   0  0  0  0  0  0  0  0  0  0  0  0
  196.3380  174.5420  145.1610 C   0  0  0  0  0  2  0  0  0  0  0  0
  193.8410  173.8390  144.4290 N   0  0  2  0  0  0  0  0  0  0  0  0
  195.2590  175.0100  146.1370 C   0  0  0  0  0  2  0  0  0  0  0  0
  188.1590  175.1930  142.5750 C   0  0  0  0  0  3  0  0  0  0  0  0
  189.3720  175.3880  143.2540 C   0  0  0  0  0  0  0  0  0  0  0  0
  193.1110  176.0050  145.3130 C   0  0  0  0  0  2  0  0  0  0  0  0
  190.8950  176.8040  144.5030 C   0  0  0  0  0  3  0  0  0  0  0  0
  196.8790  172.1800  145.7750 C   0  0  0  0  0  2  0  0  0  0  0  0
  196.7260  169.6670  145.8020 C   0  0  0  0  0  0  0  0  0  0  0  0
  197.1460  170.8800  145.1810 N   0  0  0  0  0  2  0  0  0  0  0  0
  197.0220  168.4200  145.1850 N   0  0  0  0  0  1  0  0  0  0  0  0
  196.0980  169.6890  146.8940 O   0  0  0  0  0  0  0  0  0  0  0  0
  188.7670  177.8110  143.7140 C   0  0  0  0  0  2  0  0  0  0  0  0
  187.5780  177.6010  144.5360 N   0  0  0  0  0  0  0  0  0  0  0  0
  185.2960  178.1550  143.7100 C   0  0  1  0  0  3  0  0  0  0  0  0
  185.2970  176.7640  143.5640 O   0  0  0  0  0  1  0  0  0  0  0  0
  186.6240  178.6790  144.2660 C   0  0  2  0  0  3  0  0  0  0  0  0
  186.3250  178.7560  142.7790 C   0  0  0  0  0  2  0  0  0  0  0  0
  187.9620  177.6160  145.9540 C   0  0  0  0  0  2  0  0  0  0  0  0
  187.4500  176.4070  146.7380 C   0  0  0  0  0  2  0  0  0  0  0  0
  188.5730  175.4080  146.9140 C   0  0  0  0  0  1  0  0  0  0  0  0
  1 12  1  0  0  0  0
  1 19  1  1  0  0  0
  2 17  1  0  0  0  0
  3  8  1  0  0  0  0
  4  3  2  0  0  0  0
  4 15  1  0  0  0  0
  5 17  1  6  0  0  0
  5 14  1  0  0  0  0
  7  1  1  0  0  0  0
  8 10  2  0  0  0  0
  9  6  1  0  0  0  0
  9  2  2  0  0  0  0
 10  9  1  0  0  0  0
 11 18  2  0  0  0  0
 12 14  1  0  0  0  0
 13  6  1  1  0  0  0
 13  7  1  0  0  0  0
 13  5  1  0  0  0  0
 15 16  2  0  0  0  0
 16 10  1  0  0  0  0
 16 11  1  0  0  0  0
 18  2  1  0  0  0  0
 20 23  2  0  0  0  0
 21 19  1  0  0  0  0
 21 20  1  0  0  0  0
 22 20  1  0  0  0  0
 24 11  1  0  0  0  0
 24 25  1  0  0  0  0
 25 30  1  0  0  0  0
 26 27  1  6  0  0  0
 26 28  1  0  0  0  0
 28 25  1  6  0  0  0
 29 26  1  0  0  0  0
 29 28  1  0  0  0  0
 30 31  1  0  0  0  0
 31 32  1  0  0  0  0
M  END
>  <MODEL>
7

>  <REMARK>
 VINA RESULT:      -6.5      2.128      3.247
  Name = 
  7 active torsions:
  status: ('A' for Active; 'I' for Inactive)
    1  A    between atoms: C_2  and  C_24
    2  A    between atoms: C_6  and  C_7
    3  A    between atoms: C_7  and  N_32
    4  A    between atoms: N_10  and  C_24
    5  A    between atoms: C_16  and  C_27
    6  A    between atoms: C_22  and  N_32
    7  A    between atoms: C_27  and  N_32
                            x       y       z     vdW  Elec       q    Type
                         _______ _______ _______ _____ _____    ______ ____

>  <TORSDO>
F 7

$$$$
=
 OpenBabel11052421353D

 32 36  0  0  1  0  0  0  0  0999 V2000
  195.3130  175.0550  145.1740 C   0  0  1  0  0  3  0  0  0  0  0  0
  190.3100  175.2620  144.1220 C   0  0  0  0  0  0  0  0  0  0  0  0
  190.0000  173.5470  139.5740 C   0  0  0  0  0  3  0  0  0  0  0  0
  188.6780  173.9870  139.5010 C   0  0  0  0  0  3  0  0  0  0  0  0
  192.3840  174.7570  145.4300 C   0  0  1  0  0  3  0  0  0  0  0  0
  192.3290  174.1020  143.1530 C   0  0  0  0  0  2  0  0  0  0  0  0
  194.3940  174.2340  144.2590 C   0  0  0  0  0  2  0  0  0  0  0  0
  190.7430  173.7580  140.7380 C   0  0  0  0  0  3  0  0  0  0  0  0
  190.9180  174.6260  143.0180 C   0  0  0  0  0  0  0  0  0  0  0  0
  190.1720  174.4090  141.8430 C   0  0  0  0  0  0  0  0  0  0  0  0
  188.2420  175.5010  142.8730 C   0  0  0  0  0  0  0  0  0  0  0  0
  194.5230  175.9250  146.1600 C   0  0  0  0  0  2  0  0  0  0  0  0
  193.0850  174.8710  144.1390 N   0  0  2  0  0  0  0  0  0  0  0  0
  193.2380  175.2360  146.6170 C   0  0  0  0  0  2  0  0  0  0  0  0
  188.0940  174.6360  140.5900 C   0  0  0  0  0  3  0  0  0  0  0  0
  188.8270  174.8540  141.7680 C   0  0  0  0  0  0  0  0  0  0  0  0
  191.0840  175.5560  145.3760 C   0  0  0  0  0  2  0  0  0  0  0  0
  188.9910  175.7050  144.0340 C   0  0  0  0  0  3  0  0  0  0  0  0
  196.2520  174.1350  145.9340 C   0  0  0  0  0  2  0  0  0  0  0  0
  197.1140  171.8350  145.3750 C   0  0  0  0  0  0  0  0  0  0  0  0
  196.8790  173.1960  145.0170 N   0  0  0  0  0  2  0  0  0  0  0  0
  197.7400  170.9610  144.4450 N   0  0  0  0  0  1  0  0  0  0  0  0
  196.7740  171.4020  146.5090 O   0  0  0  0  0  0  0  0  0  0  0  0
  186.8390  176.0210  142.8340 C   0  0  0  0  0  2  0  0  0  0  0  0
  186.7970  177.3780  143.3680 N   0  0  0  0  0  0  0  0  0  0  0  0
  185.9280  177.9590  145.6280 C   0  0  1  0  0  3  0  0  0  0  0  0
  187.3040  178.1080  145.8300 O   0  0  0  0  0  1  0  0  0  0  0  0
  185.5980  177.5200  144.1980 C   0  0  2  0  0  3  0  0  0  0  0  0
  185.6210  176.5090  145.3310 C   0  0  0  0  0  2  0  0  0  0  0  0
  186.7500  178.3350  142.2540 C   0  0  0  0  0  2  0  0  0  0  0  0
  186.1690  177.7470  140.9680 C   0  0  0  0  0  2  0  0  0  0  0  0
  184.8050  178.3490  140.7100 C   0  0  0  0  0  1  0  0  0  0  0  0
  1 19  1  1  0  0  0
  1 12  1  0  0  0  0
  2 17  1  0  0  0  0
  3  8  1  0  0  0  0
  4  3  2  0  0  0  0
  4 15  1  0  0  0  0
  5 17  1  6  0  0  0
  5 14  1  0  0  0  0
  7  1  1  0  0  0  0
  8 10  2  0  0  0  0
  9  6  1  0  0  0  0
  9  2  2  0  0  0  0
 10  9  1  0  0  0  0
 11 18  2  0  0  0  0
 12 14  1  0  0  0  0
 13  6  1  6  0  0  0
 13  7  1  0  0  0  0
 13  5  1  0  0  0  0
 15 16  2  0  0  0  0
 16 10  1  0  0  0  0
 16 11  1  0  0  0  0
 18  2  1  0  0  0  0
 20 23  2  0  0  0  0
 21 20  1  0  0  0  0
 21 19  1  0  0  0  0
 22 20  1  0  0  0  0
 24 11  1  0  0  0  0
 24 25  1  0  0  0  0
 26 27  1  6  0  0  0
 28 25  1  6  0  0  0
 28 29  1  0  0  0  0
 28 26  1  0  0  0  0
 29 26  1  0  0  0  0
 30 25  1  0  0  0  0
 31 30  1  0  0  0  0
 32 31  1  0  0  0  0
M  END
>  <MODEL>
8

>  <REMARK>
 VINA RESULT:      -6.4      1.662      2.299
  Name = 
  7 active torsions:
  status: ('A' for Active; 'I' for Inactive)
    1  A    between atoms: C_2  and  C_24
    2  A    between atoms: C_6  and  C_7
    3  A    between atoms: C_7  and  N_32
    4  A    between atoms: N_10  and  C_24
    5  A    between atoms: C_16  and  C_27
    6  A    between atoms: C_22  and  N_32
    7  A    between atoms: C_27  and  N_32
                            x       y       z     vdW  Elec       q    Type
                         _______ _______ _______ _____ _____    ______ ____

>  <TORSDO>
F 7

$$$$
=
 OpenBabel11052421353D

 32 36  0  0  1  0  0  0  0  0999 V2000
  187.3010  176.5980  146.3660 C   0  0  1  0  0  3  0  0  0  0  0  0
  191.5530  175.6190  143.6960 C   0  0  0  0  0  0  0  0  0  0  0  0
  189.9390  173.2750  139.7440 C   0  0  0  0  0  3  0  0  0  0  0  0
  191.2500  172.9210  139.4210 C   0  0  0  0  0  3  0  0  0  0  0  0
  189.9070  176.9590  145.0220 C   0  0  1  0  0  3  0  0  0  0  0  0
  189.0760  175.6540  143.2260 C   0  0  0  0  0  2  0  0  0  0  0  0
  187.5880  176.4280  144.8670 C   0  0  0  0  0  2  0  0  0  0  0  0
  189.6810  174.0290  140.8910 C   0  0  0  0  0  3  0  0  0  0  0  0
  190.4760  175.1990  142.8870 C   0  0  0  0  0  0  0  0  0  0  0  0
  190.7310  174.4400  141.7280 C   0  0  0  0  0  0  0  0  0  0  0  0
  193.1250  174.4960  142.2250 C   0  0  0  0  0  0  0  0  0  0  0  0
  188.5840  176.7740  147.1870 C   0  0  0  0  0  2  0  0  0  0  0  0
  188.9380  175.9110  144.6590 N   0  0  2  0  0  0  0  0  0  0  0  0
  189.6450  177.5580  146.4150 C   0  0  0  0  0  2  0  0  0  0  0  0
  192.3060  173.3220  140.2420 C   0  0  0  0  0  3  0  0  0  0  0  0
  192.0630  174.0820  141.3970 C   0  0  0  0  0  0  0  0  0  0  0  0
  191.3210  176.3870  144.9660 C   0  0  0  0  0  2  0  0  0  0  0  0
  192.8590  175.2520  143.3680 C   0  0  0  0  0  3  0  0  0  0  0  0
  186.3760  177.7830  146.5900 C   0  0  0  0  0  2  0  0  0  0  0  0
  184.5130  178.6890  145.1590 C   0  0  0  0  0  0  0  0  0  0  0  0
  185.8650  178.2630  145.3160 N   0  0  0  0  0  2  0  0  0  0  0  0
  184.0600  179.1410  143.8880 N   0  0  0  0  0  1  0  0  0  0  0  0
  183.7150  178.6650  146.1340 O   0  0  0  0  0  0  0  0  0  0  0  0
  194.5440  174.1160  141.9410 C   0  0  0  0  0  2  0  0  0  0  0  0
  195.3970  174.5080  143.0590 N   0  0  0  0  0  0  0  0  0  0  0  0
  196.8960  176.4940  143.1480 C   0  0  1  0  0  3  0  0  0  0  0  0
  195.9140  176.8650  144.0720 O   0  0  0  0  0  1  0  0  0  0  0  0
  196.6160  175.1220  142.5260 C   0  0  2  0  0  3  0  0  0  0  0  0
  196.2770  176.3950  141.7720 C   0  0  0  0  0  2  0  0  0  0  0  0
  195.7400  173.3160  143.8470 C   0  0  0  0  0  2  0  0  0  0  0  0
  195.5230  173.4940  145.3500 C   0  0  0  0  0  2  0  0  0  0  0  0
  196.8480  173.7890  146.0180 C   0  0  0  0  0  1  0  0  0  0  0  0
  1 19  1  6  0  0  0
  1 12  1  0  0  0  0
  2 17  1  0  0  0  0
  3  8  1  0  0  0  0
  4  3  2  0  0  0  0
  4 15  1  0  0  0  0
  5 17  1  1  0  0  0
  5 14  1  0  0  0  0
  7  1  1  0  0  0  0
  8 10  2  0  0  0  0
  9  6  1  0  0  0  0
  9  2  2  0  0  0  0
 10  9  1  0  0  0  0
 11 18  2  0  0  0  0
 13  6  1  6  0  0  0
 13  7  1  0  0  0  0
 13  5  1  0  0  0  0
 14 12  1  0  0  0  0
 15 16  2  0  0  0  0
 16 10  1  0  0  0  0
 16 11  1  0  0  0  0
 18  2  1  0  0  0  0
 20 21  1  0  0  0  0
 20 23  2  0  0  0  0
 21 19  1  0  0  0  0
 22 20  1  0  0  0  0
 24 11  1  0  0  0  0
 24 25  1  0  0  0  0
 25 30  1  0  0  0  0
 26 27  1  1  0  0  0
 28 25  1  1  0  0  0
 28 26  1  0  0  0  0
 29 28  1  0  0  0  0
 29 26  1  0  0  0  0
 30 31  1  0  0  0  0
 31 32  1  0  0  0  0
M  END
>  <MODEL>
9

>  <REMARK>
 VINA RESULT:      -6.4      2.250      8.645
  Name = 
  7 active torsions:
  status: ('A' for Active; 'I' for Inactive)
    1  A    between atoms: C_2  and  C_24
    2  A    between atoms: C_6  and  C_7
    3  A    between atoms: C_7  and  N_32
    4  A    between atoms: N_10  and  C_24
    5  A    between atoms: C_16  and  C_27
    6  A    between atoms: C_22  and  N_32
    7  A    between atoms: C_27  and  N_32
                            x       y       z     vdW  Elec       q    Type
                         _______ _______ _______ _____ _____    ______ ____

>  <TORSDO>
F 7

$$$$
