=
 OpenBabel11052421193D

 43 46  0  0  1  0  0  0  0  0999 V2000
  192.2790  172.3540  143.5760 N   0  0  0  0  0  0  0  0  0  0  0  0
  190.3100  173.7700  143.9490 C   0  0  0  0  0  3  0  0  0  0  0  0
  190.0710  173.7400  142.6310 C   0  0  0  0  0  0  0  0  0  0  0  0
  191.6120  173.2660  144.5110 C   0  0  2  0  0  3  0  0  0  0  0  0
  192.0670  172.5100  142.1610 C   0  0  0  0  0  0  0  0  0  0  0  0
  191.0290  173.1610  141.7330 N   0  0  0  0  0  0  0  0  0  0  0  0
  194.1080  176.6030  145.4720 C   0  0  0  0  0  0  0  0  0  0  0  0
  193.6470  174.2480  145.6530 C   0  0  0  0  0  3  0  0  0  0  0  0
  193.0060  176.7510  144.6880 N   0  0  0  0  0  0  0  0  0  0  0  0
  194.8770  177.6770  145.7700 F   0  0  0  0  0  0  0  0  0  0  0  0
  192.5130  174.4180  144.8490 C   0  0  0  0  0  0  0  0  0  0  0  0
  194.4510  175.3440  145.9670 C   0  0  0  0  0  3  0  0  0  0  0  0
  192.2080  175.6950  144.3710 C   0  0  0  0  0  3  0  0  0  0  0  0
  188.8540  174.4010  142.0580 C   0  0  1  0  0  3  0  0  0  0  0  0
  187.7550  173.3870  141.7930 C   0  0  0  0  0  1  0  0  0  0  0  0
  188.3680  175.4350  142.9620 N   0  0  0  0  0  2  0  0  0  0  0  0
  187.7640  176.6440  142.4940 C   0  0  0  0  0  0  0  0  0  0  0  0
  187.4820  176.7910  141.2740 O   0  0  0  0  0  0  0  0  0  0  0  0
  187.5220  177.7660  143.4410 C   0  0  0  0  0  2  0  0  0  0  0  0
  186.3440  177.4350  144.3530 C   0  0  2  0  0  3  0  0  0  0  0  0
  185.6680  179.8450  143.9630 C   0  0  0  0  0  1  0  0  0  0  0  0
  185.1900  178.4080  144.0520 C   0  0  0  0  0  3  0  0  0  0  0  0
  184.3830  178.0270  142.8210 C   0  0  0  0  0  1  0  0  0  0  0  0
  186.7960  177.3900  145.8260 C   0  0  1  0  0  3  0  0  0  0  0  0
  185.6390  177.6550  146.7790 C   0  0  0  0  0  1  0  0  0  0  0  0
  187.3950  176.0210  146.1460 C   0  0  0  0  0  2  0  0  0  0  0  0
  188.7510  176.1470  146.7540 C   0  0  0  0  0  0  0  0  0  0  0  0
  190.6650  175.1290  147.8360 C   0  0  0  0  0  3  0  0  0  0  0  0
  190.6380  177.5150  147.4200 C   0  0  0  0  0  3  0  0  0  0  0  0
  191.2850  176.3800  147.9190 C   0  0  0  0  0  3  0  0  0  0  0  0
  189.3710  177.3990  146.8380 C   0  0  0  0  0  3  0  0  0  0  0  0
  189.3980  175.0130  147.2560 C   0  0  0  0  0  3  0  0  0  0  0  0
  193.2810  171.4340  144.0980 C   0  0  0  0  0  2  0  0  0  0  0  0
  192.6910  170.0420  144.2350 C   0  0  0  0  0  1  0  0  0  0  0  0
  193.2520  171.8860  140.9670 S   0  0  0  0  0  0  0  0  0  0  0  0
  195.2080  175.3170  141.9550 C   0  0  0  0  0  3  0  0  0  0  0  0
  196.4360  174.8530  142.4380 C   0  0  0  0  0  0  0  0  0  0  0  0
  195.7350  172.5710  141.9800 C   0  0  0  0  0  3  0  0  0  0  0  0
  194.2450  174.4160  141.4930 C   0  0  0  0  0  3  0  0  0  0  0  0
  194.5060  173.0420  141.5100 C   0  0  0  0  0  0  0  0  0  0  0  0
  196.6990  173.4720  142.4420 C   0  0  0  0  0  3  0  0  0  0  0  0
  197.0160  177.0920  143.3120 C   0  0  0  0  0  1  0  0  0  0  0  0
  197.3720  175.7770  142.9090 O   0  0  0  0  0  0  0  0  0  0  0  0
  1 33  1  0  0  0  0
  1  4  1  0  0  0  0
  2  4  1  0  0  0  0
  3  2  2  0  0  0  0
  4 11  1  6  0  0  0
  5  1  1  0  0  0  0
  6  5  2  0  0  0  0
  6  3  1  0  0  0  0
  7 10  1  0  0  0  0
  7 12  1  0  0  0  0
  8 12  2  0  0  0  0
  9  7  2  0  0  0  0
 11  8  1  0  0  0  0
 13  9  1  0  0  0  0
 13 11  2  0  0  0  0
 14 15  1  1  0  0  0
 14  3  1  0  0  0  0
 14 16  1  0  0  0  0
 17 16  1  0  0  0  0
 17 19  1  0  0  0  0
 18 17  2  0  0  0  0
 20 19  1  6  0  0  0
 20 24  1  0  0  0  0
 21 22  1  0  0  0  0
 22 20  1  0  0  0  0
 23 22  1  0  0  0  0
 24 26  1  0  0  0  0
 24 25  1  1  0  0  0
 26 27  1  0  0  0  0
 27 31  2  0  0  0  0
 27 32  1  0  0  0  0
 28 30  1  0  0  0  0
 29 30  2  0  0  0  0
 31 29  1  0  0  0  0
 32 28  2  0  0  0  0
 33 34  1  0  0  0  0
 35 40  1  0  0  0  0
 35  5  1  0  0  0  0
 36 37  1  0  0  0  0
 37 41  2  0  0  0  0
 37 43  1  0  0  0  0
 38 41  1  0  0  0  0
 39 40  1  0  0  0  0
 39 36  2  0  0  0  0
 40 38  2  0  0  0  0
 43 42  1  0  0  0  0
M  END
>  <MODEL>
1

>  <REMARK>
 VINA RESULT:      -7.2      0.000      0.000
  Name = 
  13 active torsions:
  status: ('A' for Active; 'I' for Inactive)
    1  A    between atoms: S_1  and  C_34
    2  A    between atoms: S_1  and  C_35
    3  A    between atoms: C_2  and  N_6
    4  A    between atoms: C_2  and  C_27
    5  A    between atoms: C_3  and  C_4
    6  A    between atoms: C_3  and  C_12
    7  A    between atoms: C_4  and  C_15
    8  A    between atoms: C_4  and  C_22
    9  A    between atoms: N_8  and  C_33
   10  A    between atoms: C_11  and  C_14
   11  A    between atoms: C_14  and  C_22
   12  A    between atoms: C_19  and  O_37
   13  A    between atoms: C_21  and  C_30
                            x       y       z     vdW  Elec       q    Type
                         _______ _______ _______ _____ _____    ______ ____

>  <TORSDO>
F 13

$$$$
=
 OpenBabel11052421193D

 43 46  0  0  1  0  0  0  0  0999 V2000
  192.4910  173.3550  144.4510 N   0  0  0  0  0  0  0  0  0  0  0  0
  192.8610  175.7810  144.4710 C   0  0  0  0  0  3  0  0  0  0  0  0
  191.5320  175.9570  144.5100 C   0  0  0  0  0  0  0  0  0  0  0  0
  193.4540  174.4280  144.1820 C   0  0  2  0  0  3  0  0  0  0  0  0
  191.0810  173.6160  144.3140 C   0  0  0  0  0  0  0  0  0  0  0  0
  190.6480  174.8400  144.3440 N   0  0  0  0  0  0  0  0  0  0  0  0
  194.8250  174.1530  140.1400 C   0  0  0  0  0  0  0  0  0  0  0  0
  193.3260  175.1280  141.7520 C   0  0  0  0  0  3  0  0  0  0  0  0
  195.4010  173.4200  141.1310 N   0  0  0  0  0  0  0  0  0  0  0  0
  195.2710  174.0410  138.8670 F   0  0  0  0  0  0  0  0  0  0  0  0
  193.9270  174.3610  142.7600 C   0  0  0  0  0  0  0  0  0  0  0  0
  193.7760  175.0250  140.4360 C   0  0  0  0  0  3  0  0  0  0  0  0
  194.9770  173.5040  142.4220 C   0  0  0  0  0  3  0  0  0  0  0  0
  190.9460  177.3310  144.6230 C   0  0  1  0  0  3  0  0  0  0  0  0
  191.4070  178.2180  143.4800 C   0  0  0  0  0  1  0  0  0  0  0  0
  189.4900  177.2590  144.6400 N   0  0  0  0  0  2  0  0  0  0  0  0
  188.7310  177.3110  145.8510 C   0  0  0  0  0  0  0  0  0  0  0  0
  189.2900  177.5830  146.9470 O   0  0  0  0  0  0  0  0  0  0  0  0
  187.2810  176.9780  145.8300 C   0  0  0  0  0  2  0  0  0  0  0  0
  186.4510  178.2490  145.9930 C   0  0  2  0  0  3  0  0  0  0  0  0
  185.9530  176.9590  148.1150 C   0  0  0  0  0  1  0  0  0  0  0  0
  185.9130  178.3130  147.4330 C   0  0  0  0  0  3  0  0  0  0  0  0
  186.5930  179.3720  148.2880 C   0  0  0  0  0  1  0  0  0  0  0  0
  185.3810  178.3430  144.8880 C   0  0  1  0  0  3  0  0  0  0  0  0
  184.0300  178.7680  145.4460 C   0  0  0  0  0  1  0  0  0  0  0  0
  185.8160  179.3500  143.8250 C   0  0  0  0  0  2  0  0  0  0  0  0
  186.1010  178.6810  142.5230 C   0  0  0  0  0  0  0  0  0  0  0  0
  185.3350  177.8670  140.3720 C   0  0  0  0  0  3  0  0  0  0  0  0
  187.6510  177.5770  141.0210 C   0  0  0  0  0  3  0  0  0  0  0  0
  186.6230  177.4040  140.0880 C   0  0  0  0  0  3  0  0  0  0  0  0
  187.3900  178.2150  142.2380 C   0  0  0  0  0  3  0  0  0  0  0  0
  185.0730  178.5040  141.5900 C   0  0  0  0  0  3  0  0  0  0  0  0
  192.9960  172.0060  144.6690 C   0  0  0  0  0  2  0  0  0  0  0  0
  194.1510  172.0330  145.6520 C   0  0  0  0  0  1  0  0  0  0  0  0
  189.9110  172.2880  144.0260 S   0  0  0  0  0  0  0  0  0  0  0  0
  188.3670  173.6790  140.5240 C   0  0  0  0  0  3  0  0  0  0  0  0
  189.4350  173.5400  139.6310 C   0  0  0  0  0  0  0  0  0  0  0  0
  190.7840  172.5920  141.4160 C   0  0  0  0  0  3  0  0  0  0  0  0
  188.5060  173.2840  141.8580 C   0  0  0  0  0  3  0  0  0  0  0  0
  189.7170  172.7450  142.3060 C   0  0  0  0  0  0  0  0  0  0  0  0
  190.6450  172.9860  140.0830 C   0  0  0  0  0  3  0  0  0  0  0  0
  188.0440  174.4800  137.8150 C   0  0  0  0  0  1  0  0  0  0  0  0
  189.2710  173.9600  138.3080 O   0  0  0  0  0  0  0  0  0  0  0  0
  1 33  1  0  0  0  0
  2  3  2  0  0  0  0
  3 14  1  0  0  0  0
  4 11  1  6  0  0  0
  4  1  1  0  0  0  0
  4  2  1  0  0  0  0
  5  6  2  0  0  0  0
  5  1  1  0  0  0  0
  6  3  1  0  0  0  0
  7 12  2  0  0  0  0
  7  9  1  0  0  0  0
  8 11  2  0  0  0  0
  9 13  2  0  0  0  0
 10  7  1  0  0  0  0
 12  8  1  0  0  0  0
 13 11  1  0  0  0  0
 14 15  1  6  0  0  0
 14 16  1  0  0  0  0
 16 17  1  0  0  0  0
 17 18  2  0  0  0  0
 19 17  1  0  0  0  0
 20 19  1  1  0  0  0
 20 22  1  0  0  0  0
 22 21  1  0  0  0  0
 22 23  1  0  0  0  0
 24 25  1  1  0  0  0
 24 20  1  0  0  0  0
 26 24  1  0  0  0  0
 27 26  1  0  0  0  0
 28 32  1  0  0  0  0
 29 31  2  0  0  0  0
 30 28  2  0  0  0  0
 30 29  1  0  0  0  0
 31 27  1  0  0  0  0
 32 27  2  0  0  0  0
 33 34  1  0  0  0  0
 35  5  1  0  0  0  0
 36 39  1  0  0  0  0
 37 41  1  0  0  0  0
 37 36  2  0  0  0  0
 38 40  1  0  0  0  0
 39 40  2  0  0  0  0
 40 35  1  0  0  0  0
 41 38  2  0  0  0  0
 42 43  1  0  0  0  0
 43 37  1  0  0  0  0
M  END
>  <MODEL>
2

>  <REMARK>
 VINA RESULT:      -6.9      2.744      5.468
  Name = 
  13 active torsions:
  status: ('A' for Active; 'I' for Inactive)
    1  A    between atoms: S_1  and  C_34
    2  A    between atoms: S_1  and  C_35
    3  A    between atoms: C_2  and  N_6
    4  A    between atoms: C_2  and  C_27
    5  A    between atoms: C_3  and  C_4
    6  A    between atoms: C_3  and  C_12
    7  A    between atoms: C_4  and  C_15
    8  A    between atoms: C_4  and  C_22
    9  A    between atoms: N_8  and  C_33
   10  A    between atoms: C_11  and  C_14
   11  A    between atoms: C_14  and  C_22
   12  A    between atoms: C_19  and  O_37
   13  A    between atoms: C_21  and  C_30
                            x       y       z     vdW  Elec       q    Type
                         _______ _______ _______ _____ _____    ______ ____

>  <TORSDO>
F 13

$$$$
=
 OpenBabel11052421193D

 43 46  0  0  1  0  0  0  0  0999 V2000
  195.6550  173.0340  144.1290 N   0  0  0  0  0  0  0  0  0  0  0  0
  195.4600  175.4200  144.6680 C   0  0  0  0  0  3  0  0  0  0  0  0
  194.5030  175.1140  145.5560 C   0  0  0  0  0  0  0  0  0  0  0  0
  195.9520  174.3980  143.6790 C   0  0  2  0  0  3  0  0  0  0  0  0
  194.5060  172.7970  144.9640 C   0  0  0  0  0  0  0  0  0  0  0  0
  193.9780  173.7810  145.6260 N   0  0  0  0  0  0  0  0  0  0  0  0
  194.2980  175.0730  139.7930 C   0  0  0  0  0  0  0  0  0  0  0  0
  193.9620  174.5800  142.1250 C   0  0  0  0  0  3  0  0  0  0  0  0
  195.6400  175.1390  140.0090 N   0  0  0  0  0  0  0  0  0  0  0  0
  193.8000  175.2810  138.5520 F   0  0  0  0  0  0  0  0  0  0  0  0
  195.3460  174.6470  142.3290 C   0  0  0  0  0  0  0  0  0  0  0  0
  193.4330  174.7950  140.8530 C   0  0  0  0  0  3  0  0  0  0  0  0
  196.1770  174.9320  141.2420 C   0  0  0  0  0  3  0  0  0  0  0  0
  193.8920  176.1770  146.4180 C   0  0  1  0  0  3  0  0  0  0  0  0
  194.5880  177.5110  146.2190 C   0  0  0  0  0  1  0  0  0  0  0  0
  192.4710  176.3090  146.1250 N   0  0  0  0  0  2  0  0  0  0  0  0
  191.9860  176.8970  144.9140 C   0  0  0  0  0  0  0  0  0  0  0  0
  192.7790  177.1810  143.9760 O   0  0  0  0  0  0  0  0  0  0  0  0
  190.5440  177.2370  144.7820 C   0  0  0  0  0  2  0  0  0  0  0  0
  189.7400  175.9850  144.4430 C   0  0  2  0  0  3  0  0  0  0  0  0
  187.7270  175.5770  142.9620 C   0  0  0  0  0  1  0  0  0  0  0  0
  189.1310  176.1460  143.0390 C   0  0  0  0  0  3  0  0  0  0  0  0
  189.1670  177.5770  142.5240 C   0  0  0  0  0  1  0  0  0  0  0  0
  188.7310  175.6690  145.5640 C   0  0  1  0  0  3  0  0  0  0  0  0
  189.2660  174.6170  146.5260 C   0  0  0  0  0  1  0  0  0  0  0  0
  188.4100  176.9400  146.3500 C   0  0  0  0  0  2  0  0  0  0  0  0
  187.0360  177.4360  146.0490 C   0  0  0  0  0  0  0  0  0  0  0  0
  185.5720  178.9500  144.8510 C   0  0  0  0  0  3  0  0  0  0  0  0
  184.6420  177.3540  146.4180 C   0  0  0  0  0  3  0  0  0  0  0  0
  184.4640  178.3900  145.4950 C   0  0  0  0  0  3  0  0  0  0  0  0
  185.9270  176.8770  146.6950 C   0  0  0  0  0  3  0  0  0  0  0  0
  186.8570  178.4740  145.1280 C   0  0  0  0  0  3  0  0  0  0  0  0
  196.4250  171.9330  143.5660 C   0  0  0  0  0  2  0  0  0  0  0  0
  197.5740  171.5730  144.4900 C   0  0  0  0  0  1  0  0  0  0  0  0
  193.7360  171.1790  145.0530 S   0  0  0  0  0  0  0  0  0  0  0  0
  191.8390  171.4750  141.4620 C   0  0  0  0  0  3  0  0  0  0  0  0
  190.6740  172.1810  141.7780 C   0  0  0  0  0  0  0  0  0  0  0  0
  191.4010  172.3160  144.0930 C   0  0  0  0  0  3  0  0  0  0  0  0
  192.7780  171.1830  142.4550 C   0  0  0  0  0  3  0  0  0  0  0  0
  192.5570  171.5990  143.7720 C   0  0  0  0  0  0  0  0  0  0  0  0
  190.4620  172.6080  143.1000 C   0  0  0  0  0  3  0  0  0  0  0  0
  189.6220  173.7180  140.1500 C   0  0  0  0  0  1  0  0  0  0  0  0
  189.7450  172.4440  140.7670 O   0  0  0  0  0  0  0  0  0  0  0  0
  1  5  1  0  0  0  0
  2  3  2  0  0  0  0
  3  6  1  0  0  0  0
  3 14  1  0  0  0  0
  4 11  1  6  0  0  0
  4  1  1  0  0  0  0
  4  2  1  0  0  0  0
  5 35  1  0  0  0  0
  5  6  2  0  0  0  0
  7  9  2  0  0  0  0
  7 12  1  0  0  0  0
  8 11  1  0  0  0  0
  9 13  1  0  0  0  0
 10  7  1  0  0  0  0
 12  8  2  0  0  0  0
 13 11  2  0  0  0  0
 14 15  1  6  0  0  0
 16 14  1  0  0  0  0
 17 16  1  0  0  0  0
 18 17  2  0  0  0  0
 19 17  1  0  0  0  0
 20 19  1  1  0  0  0
 20 24  1  0  0  0  0
 21 22  1  0  0  0  0
 22 20  1  0  0  0  0
 23 22  1  0  0  0  0
 24 26  1  0  0  0  0
 24 25  1  1  0  0  0
 27 26  1  0  0  0  0
 27 31  1  0  0  0  0
 28 32  1  0  0  0  0
 28 30  2  0  0  0  0
 29 31  2  0  0  0  0
 30 29  1  0  0  0  0
 32 27  2  0  0  0  0
 33  1  1  0  0  0  0
 33 34  1  0  0  0  0
 36 37  2  0  0  0  0
 36 39  1  0  0  0  0
 37 41  1  0  0  0  0
 39 40  2  0  0  0  0
 40 38  1  0  0  0  0
 40 35  1  0  0  0  0
 41 38  2  0  0  0  0
 42 43  1  0  0  0  0
 43 37  1  0  0  0  0
M  END
>  <MODEL>
3

>  <REMARK>
 VINA RESULT:      -6.8      2.540      5.329
  Name = 
  13 active torsions:
  status: ('A' for Active; 'I' for Inactive)
    1  A    between atoms: S_1  and  C_34
    2  A    between atoms: S_1  and  C_35
    3  A    between atoms: C_2  and  N_6
    4  A    between atoms: C_2  and  C_27
    5  A    between atoms: C_3  and  C_4
    6  A    between atoms: C_3  and  C_12
    7  A    between atoms: C_4  and  C_15
    8  A    between atoms: C_4  and  C_22
    9  A    between atoms: N_8  and  C_33
   10  A    between atoms: C_11  and  C_14
   11  A    between atoms: C_14  and  C_22
   12  A    between atoms: C_19  and  O_37
   13  A    between atoms: C_21  and  C_30
                            x       y       z     vdW  Elec       q    Type
                         _______ _______ _______ _____ _____    ______ ____

>  <TORSDO>
F 13

$$$$
=
 OpenBabel11052421193D

 43 46  0  0  1  0  0  0  0  0999 V2000
  195.2970  172.7400  144.5750 N   0  0  0  0  0  0  0  0  0  0  0  0
  195.6240  175.0070  145.4550 C   0  0  0  0  0  3  0  0  0  0  0  0
  194.3390  175.0170  145.8360 C   0  0  0  0  0  0  0  0  0  0  0  0
  196.1540  173.9290  144.5480 C   0  0  2  0  0  3  0  0  0  0  0  0
  193.8900  172.8860  144.8470 C   0  0  0  0  0  0  0  0  0  0  0  0
  193.4570  173.9570  145.4380 N   0  0  0  0  0  0  0  0  0  0  0  0
  196.5870  175.3470  140.5360 C   0  0  0  0  0  0  0  0  0  0  0  0
  195.1910  175.0010  142.4660 C   0  0  0  0  0  3  0  0  0  0  0  0
  197.6400  174.8120  141.2120 N   0  0  0  0  0  0  0  0  0  0  0  0
  196.7480  175.7790  139.2630 F   0  0  0  0  0  0  0  0  0  0  0  0
  196.2840  174.4480  143.1460 C   0  0  0  0  0  0  0  0  0  0  0  0
  195.3410  175.4540  141.1550 C   0  0  0  0  0  3  0  0  0  0  0  0
  197.5160  174.3630  142.4910 C   0  0  0  0  0  3  0  0  0  0  0  0
  193.7730  176.1800  146.5910 C   0  0  1  0  0  3  0  0  0  0  0  0
  194.5560  177.4500  146.3070 C   0  0  0  0  0  1  0  0  0  0  0  0
  192.3710  176.3740  146.2460 N   0  0  0  0  0  2  0  0  0  0  0  0
  191.9540  176.8820  144.9760 C   0  0  0  0  0  0  0  0  0  0  0  0
  192.7850  177.0340  144.0410 O   0  0  0  0  0  0  0  0  0  0  0  0
  190.5390  177.2970  144.7720 C   0  0  0  0  0  2  0  0  0  0  0  0
  189.6740  176.0750  144.4770 C   0  0  2  0  0  3  0  0  0  0  0  0
  187.7180  175.6480  142.9250 C   0  0  0  0  0  1  0  0  0  0  0  0
  189.1330  176.1820  143.0400 C   0  0  0  0  0  3  0  0  0  0  0  0
  189.2340  177.5830  142.4570 C   0  0  0  0  0  1  0  0  0  0  0  0
  188.6020  175.8940  145.5690 C   0  0  1  0  0  3  0  0  0  0  0  0
  189.0440  174.8990  146.6330 C   0  0  0  0  0  1  0  0  0  0  0  0
  188.3070  177.2350  146.2390 C   0  0  0  0  0  2  0  0  0  0  0  0
  186.9040  177.6750  145.9850 C   0  0  0  0  0  0  0  0  0  0  0  0
  185.3170  178.9790  144.7000 C   0  0  0  0  0  3  0  0  0  0  0  0
  184.5530  177.6450  146.5720 C   0  0  0  0  0  3  0  0  0  0  0  0
  184.2780  178.5240  145.5190 C   0  0  0  0  0  3  0  0  0  0  0  0
  185.8650  177.2210  146.8050 C   0  0  0  0  0  3  0  0  0  0  0  0
  186.6290  178.5560  144.9340 C   0  0  0  0  0  3  0  0  0  0  0  0
  195.8590  171.4670  144.1420 C   0  0  0  0  0  2  0  0  0  0  0  0
  197.0620  171.1110  144.9960 C   0  0  0  0  0  1  0  0  0  0  0  0
  192.7050  171.6470  144.3180 S   0  0  0  0  0  0  0  0  0  0  0  0
  193.1280  172.3870  140.3370 C   0  0  0  0  0  3  0  0  0  0  0  0
  192.2810  173.4810  140.1280 C   0  0  0  0  0  0  0  0  0  0  0  0
  191.7260  173.4840  142.4940 C   0  0  0  0  0  3  0  0  0  0  0  0
  193.2690  171.8380  141.6150 C   0  0  0  0  0  3  0  0  0  0  0  0
  192.5640  172.3830  142.6930 C   0  0  0  0  0  0  0  0  0  0  0  0
  191.5850  174.0330  141.2170 C   0  0  0  0  0  3  0  0  0  0  0  0
  192.1480  173.1750  137.6770 C   0  0  0  0  0  1  0  0  0  0  0  0
  192.1490  173.9970  138.8360 O   0  0  0  0  0  0  0  0  0  0  0  0
  1  5  1  0  0  0  0
  2  3  2  0  0  0  0
  3 14  1  0  0  0  0
  4 11  1  6  0  0  0
  4  1  1  0  0  0  0
  4  2  1  0  0  0  0
  5  6  2  0  0  0  0
  6  3  1  0  0  0  0
  7 12  2  0  0  0  0
  7  9  1  0  0  0  0
  8 11  2  0  0  0  0
  9 13  2  0  0  0  0
 10  7  1  0  0  0  0
 12  8  1  0  0  0  0
 13 11  1  0  0  0  0
 14 15  1  6  0  0  0
 16 14  1  0  0  0  0
 17 16  1  0  0  0  0
 18 17  2  0  0  0  0
 19 17  1  0  0  0  0
 20 19  1  1  0  0  0
 20 24  1  0  0  0  0
 21 22  1  0  0  0  0
 22 20  1  0  0  0  0
 23 22  1  0  0  0  0
 24 26  1  0  0  0  0
 24 25  1  1  0  0  0
 27 26  1  0  0  0  0
 27 31  1  0  0  0  0
 28 32  1  0  0  0  0
 28 30  2  0  0  0  0
 29 31  2  0  0  0  0
 30 29  1  0  0  0  0
 32 27  2  0  0  0  0
 33  1  1  0  0  0  0
 33 34  1  0  0  0  0
 35  5  1  0  0  0  0
 36 39  1  0  0  0  0
 37 36  2  0  0  0  0
 37 41  1  0  0  0  0
 38 40  1  0  0  0  0
 39 40  2  0  0  0  0
 40 35  1  0  0  0  0
 41 38  2  0  0  0  0
 42 43  1  0  0  0  0
 43 37  1  0  0  0  0
M  END
>  <MODEL>
4

>  <REMARK>
 VINA RESULT:      -6.8      2.566      5.101
  Name = 
  13 active torsions:
  status: ('A' for Active; 'I' for Inactive)
    1  A    between atoms: S_1  and  C_34
    2  A    between atoms: S_1  and  C_35
    3  A    between atoms: C_2  and  N_6
    4  A    between atoms: C_2  and  C_27
    5  A    between atoms: C_3  and  C_4
    6  A    between atoms: C_3  and  C_12
    7  A    between atoms: C_4  and  C_15
    8  A    between atoms: C_4  and  C_22
    9  A    between atoms: N_8  and  C_33
   10  A    between atoms: C_11  and  C_14
   11  A    between atoms: C_14  and  C_22
   12  A    between atoms: C_19  and  O_37
   13  A    between atoms: C_21  and  C_30
                            x       y       z     vdW  Elec       q    Type
                         _______ _______ _______ _____ _____    ______ ____

>  <TORSDO>
F 13

$$$$
=
 OpenBabel11052421193D

 43 46  0  0  1  0  0  0  0  0999 V2000
  192.7090  172.9630  143.2010 N   0  0  0  0  0  0  0  0  0  0  0  0
  190.6340  174.1020  143.8450 C   0  0  0  0  0  3  0  0  0  0  0  0
  190.3530  174.2690  142.5450 C   0  0  0  0  0  0  0  0  0  0  0  0
  191.9950  173.6390  144.2890 C   0  0  2  0  0  3  0  0  0  0  0  0
  192.4360  173.3310  141.8360 C   0  0  0  0  0  0  0  0  0  0  0  0
  191.3280  173.9420  141.5450 N   0  0  0  0  0  0  0  0  0  0  0  0
  194.2120  176.9990  145.7330 C   0  0  0  0  0  0  0  0  0  0  0  0
  193.8070  174.6260  145.7550 C   0  0  0  0  0  3  0  0  0  0  0  0
  193.2330  177.1500  144.8010 N   0  0  0  0  0  0  0  0  0  0  0  0
  194.8930  178.0800  146.1820 F   0  0  0  0  0  0  0  0  0  0  0  0
  192.7980  174.8000  144.7990 C   0  0  0  0  0  0  0  0  0  0  0  0
  194.5200  175.7300  146.2260 C   0  0  0  0  0  3  0  0  0  0  0  0
  192.5250  176.0870  144.3300 C   0  0  0  0  0  3  0  0  0  0  0  0
  189.0610  174.8960  142.1150 C   0  0  1  0  0  3  0  0  0  0  0  0
  188.0180  173.8380  141.8010 C   0  0  0  0  0  1  0  0  0  0  0  0
  188.5640  175.7910  143.1520 N   0  0  0  0  0  2  0  0  0  0  0  0
  187.9420  177.0440  142.8530 C   0  0  0  0  0  0  0  0  0  0  0  0
  187.6550  177.3510  141.6650 O   0  0  0  0  0  0  0  0  0  0  0  0
  187.6890  178.0230  143.9440 C   0  0  0  0  0  2  0  0  0  0  0  0
  186.4010  177.6650  144.6800 C   0  0  2  0  0  3  0  0  0  0  0  0
  185.7630  179.9580  143.8130 C   0  0  0  0  0  1  0  0  0  0  0  0
  185.2650  178.5700  144.1700 C   0  0  0  0  0  3  0  0  0  0  0  0
  184.4770  177.9630  143.0200 C   0  0  0  0  0  1  0  0  0  0  0  0
  186.6230  177.6870  146.2040 C   0  0  1  0  0  3  0  0  0  0  0  0
  185.3750  178.1370  146.9500 C   0  0  0  0  0  1  0  0  0  0  0  0
  187.0160  176.2940  146.6950 C   0  0  0  0  0  2  0  0  0  0  0  0
  188.4630  176.2280  147.0510 C   0  0  0  0  0  0  0  0  0  0  0  0
  190.4350  174.9210  147.5720 C   0  0  0  0  0  3  0  0  0  0  0  0
  190.5540  177.3400  147.5670 C   0  0  0  0  0  3  0  0  0  0  0  0
  191.1720  176.0970  147.7420 C   0  0  0  0  0  3  0  0  0  0  0  0
  189.2000  177.4060  147.2220 C   0  0  0  0  0  3  0  0  0  0  0  0
  189.0810  174.9860  147.2280 C   0  0  0  0  0  3  0  0  0  0  0  0
  193.8090  172.0700  143.5410 C   0  0  0  0  0  2  0  0  0  0  0  0
  193.3620  171.0670  144.5890 C   0  0  0  0  0  1  0  0  0  0  0  0
  193.6300  173.0300  140.5320 S   0  0  0  0  0  0  0  0  0  0  0  0
  191.0940  173.1520  137.3490 C   0  0  0  0  0  3  0  0  0  0  0  0
  190.3820  171.9540  137.4670 C   0  0  0  0  0  0  0  0  0  0  0  0
  191.6260  171.4310  139.4880 C   0  0  0  0  0  3  0  0  0  0  0  0
  192.0720  173.4880  138.2900 C   0  0  0  0  0  3  0  0  0  0  0  0
  192.3420  172.6250  139.3570 C   0  0  0  0  0  0  0  0  0  0  0  0
  190.6480  171.0960  138.5480 C   0  0  0  0  0  3  0  0  0  0  0  0
  189.7080  171.6320  135.1090 C   0  0  0  0  0  1  0  0  0  0  0  0
  189.4230  171.6380  136.5010 O   0  0  0  0  0  0  0  0  0  0  0  0
  1 33  1  0  0  0  0
  1  4  1  0  0  0  0
  2  4  1  0  0  0  0
  3  2  2  0  0  0  0
  4 11  1  6  0  0  0
  5  1  1  0  0  0  0
  6  5  2  0  0  0  0
  6  3  1  0  0  0  0
  7 10  1  0  0  0  0
  7 12  1  0  0  0  0
  8 12  2  0  0  0  0
  9  7  2  0  0  0  0
 11  8  1  0  0  0  0
 13 11  2  0  0  0  0
 13  9  1  0  0  0  0
 14 15  1  1  0  0  0
 14  3  1  0  0  0  0
 14 16  1  0  0  0  0
 17 16  1  0  0  0  0
 17 19  1  0  0  0  0
 18 17  2  0  0  0  0
 20 19  1  6  0  0  0
 20 24  1  0  0  0  0
 21 22  1  0  0  0  0
 22 20  1  0  0  0  0
 23 22  1  0  0  0  0
 24 26  1  0  0  0  0
 24 25  1  1  0  0  0
 26 27  1  0  0  0  0
 27 31  2  0  0  0  0
 27 32  1  0  0  0  0
 28 30  1  0  0  0  0
 29 30  2  0  0  0  0
 31 29  1  0  0  0  0
 32 28  2  0  0  0  0
 33 34  1  0  0  0  0
 35  5  1  0  0  0  0
 36 37  2  0  0  0  0
 36 39  1  0  0  0  0
 37 41  1  0  0  0  0
 39 40  2  0  0  0  0
 40 38  1  0  0  0  0
 40 35  1  0  0  0  0
 41 38  2  0  0  0  0
 42 43  1  0  0  0  0
 43 37  1  0  0  0  0
M  END
>  <MODEL>
5

>  <REMARK>
 VINA RESULT:      -6.7      2.240      3.427
  Name = 
  13 active torsions:
  status: ('A' for Active; 'I' for Inactive)
    1  A    between atoms: S_1  and  C_34
    2  A    between atoms: S_1  and  C_35
    3  A    between atoms: C_2  and  N_6
    4  A    between atoms: C_2  and  C_27
    5  A    between atoms: C_3  and  C_4
    6  A    between atoms: C_3  and  C_12
    7  A    between atoms: C_4  and  C_15
    8  A    between atoms: C_4  and  C_22
    9  A    between atoms: N_8  and  C_33
   10  A    between atoms: C_11  and  C_14
   11  A    between atoms: C_14  and  C_22
   12  A    between atoms: C_19  and  O_37
   13  A    between atoms: C_21  and  C_30
                            x       y       z     vdW  Elec       q    Type
                         _______ _______ _______ _____ _____    ______ ____

>  <TORSDO>
F 13

$$$$
=
 OpenBabel11052421193D

 43 46  0  0  1  0  0  0  0  0999 V2000
  194.3740  172.8270  140.5120 N   0  0  0  0  0  0  0  0  0  0  0  0
  192.1070  171.9030  140.6790 C   0  0  0  0  0  3  0  0  0  0  0  0
  191.6180  173.1290  140.4440 C   0  0  0  0  0  0  0  0  0  0  0  0
  193.5660  171.6980  140.9840 C   0  0  2  0  0  3  0  0  0  0  0  0
  193.7850  174.1400  140.4430 C   0  0  0  0  0  0  0  0  0  0  0  0
  192.4940  174.2650  140.4110 N   0  0  0  0  0  0  0  0  0  0  0  0
  194.2090  171.0680  145.1650 C   0  0  0  0  0  0  0  0  0  0  0  0
  193.3150  172.4310  143.3940 C   0  0  0  0  0  3  0  0  0  0  0  0
  194.6350  170.1630  144.2430 N   0  0  0  0  0  0  0  0  0  0  0  0
  194.4330  170.8500  146.4820 F   0  0  0  0  0  0  0  0  0  0  0  0
  193.7650  171.4920  142.4570 C   0  0  0  0  0  0  0  0  0  0  0  0
  193.5360  172.2200  144.7550 C   0  0  0  0  0  3  0  0  0  0  0  0
  194.4310  170.3500  142.9100 C   0  0  0  0  0  3  0  0  0  0  0  0
  190.1420  173.3520  140.3150 C   0  0  1  0  0  3  0  0  0  0  0  0
  189.4830  172.2250  139.5400 C   0  0  0  0  0  1  0  0  0  0  0  0
  189.5320  173.4710  141.6330 N   0  0  0  0  0  2  0  0  0  0  0  0
  188.8730  174.6620  142.0710 C   0  0  0  0  0  0  0  0  0  0  0  0
  188.6540  175.6080  141.2670 O   0  0  0  0  0  0  0  0  0  0  0  0
  188.4970  174.8170  143.5030 C   0  0  0  0  0  2  0  0  0  0  0  0
  189.6370  175.4770  144.2740 C   0  0  2  0  0  3  0  0  0  0  0  0
  189.6360  174.8560  146.7290 C   0  0  0  0  0  1  0  0  0  0  0  0
  190.1470  174.4980  145.3470 C   0  0  0  0  0  3  0  0  0  0  0  0
  189.8590  173.0400  145.0220 C   0  0  0  0  0  1  0  0  0  0  0  0
  189.2070  176.8600  144.7990 C   0  0  1  0  0  3  0  0  0  0  0  0
  190.2270  177.9370  144.4540 C   0  0  0  0  0  1  0  0  0  0  0  0
  187.8570  177.2490  144.2000 C   0  0  0  0  0  2  0  0  0  0  0  0
  186.8740  177.6160  145.2610 C   0  0  0  0  0  0  0  0  0  0  0  0
  185.0780  179.0360  146.0520 C   0  0  0  0  0  3  0  0  0  0  0  0
  185.9270  177.2600  147.4630 C   0  0  0  0  0  3  0  0  0  0  0  0
  185.0450  178.3250  147.2560 C   0  0  0  0  0  3  0  0  0  0  0  0
  186.8420  176.9050  146.4670 C   0  0  0  0  0  3  0  0  0  0  0  0
  185.9930  178.6830  145.0560 C   0  0  0  0  0  3  0  0  0  0  0  0
  195.8010  172.6230  140.3040 C   0  0  0  0  0  2  0  0  0  0  0  0
  196.0280  171.5750  139.2300 C   0  0  0  0  0  1  0  0  0  0  0  0
  194.8000  175.6190  140.4750 S   0  0  0  0  0  0  0  0  0  0  0  0
  193.3460  176.2510  144.2250 C   0  0  0  0  0  3  0  0  0  0  0  0
  194.4180  175.8820  145.0450 C   0  0  0  0  0  0  0  0  0  0  0  0
  195.7430  175.3930  143.0680 C   0  0  0  0  0  3  0  0  0  0  0  0
  193.4670  176.1860  142.8340 C   0  0  0  0  0  3  0  0  0  0  0  0
  194.6640  175.7520  142.2550 C   0  0  0  0  0  0  0  0  0  0  0  0
  195.6230  175.4590  144.4580 C   0  0  0  0  0  3  0  0  0  0  0  0
  193.0700  176.4100  147.0510 C   0  0  0  0  0  1  0  0  0  0  0  0
  194.2610  175.9420  146.4330 O   0  0  0  0  0  0  0  0  0  0  0  0
  1  4  1  0  0  0  0
  2  4  1  0  0  0  0
  3  2  2  0  0  0  0
  4 11  1  1  0  0  0
  5 35  1  0  0  0  0
  5  1  1  0  0  0  0
  6  5  2  0  0  0  0
  6  3  1  0  0  0  0
  7 10  1  0  0  0  0
  8 12  2  0  0  0  0
  9  7  2  0  0  0  0
 11 13  2  0  0  0  0
 11  8  1  0  0  0  0
 12  7  1  0  0  0  0
 13  9  1  0  0  0  0
 14 15  1  1  0  0  0
 14  3  1  0  0  0  0
 14 16  1  0  0  0  0
 16 17  1  0  0  0  0
 17 19  1  0  0  0  0
 18 17  2  0  0  0  0
 20 19  1  1  0  0  0
 20 24  1  0  0  0  0
 20 22  1  0  0  0  0
 22 21  1  0  0  0  0
 23 22  1  0  0  0  0
 24 25  1  6  0  0  0
 26 24  1  0  0  0  0
 26 27  1  0  0  0  0
 27 31  1  0  0  0  0
 28 30  2  0  0  0  0
 30 29  1  0  0  0  0
 31 29  2  0  0  0  0
 32 27  2  0  0  0  0
 32 28  1  0  0  0  0
 33  1  1  0  0  0  0
 34 33  1  0  0  0  0
 35 40  1  0  0  0  0
 36 37  1  0  0  0  0
 37 43  1  0  0  0  0
 38 41  1  0  0  0  0
 39 36  2  0  0  0  0
 40 39  1  0  0  0  0
 40 38  2  0  0  0  0
 41 37  2  0  0  0  0
 43 42  1  0  0  0  0
M  END
>  <MODEL>
6

>  <REMARK>
 VINA RESULT:      -6.6      2.279      4.455
  Name = 
  13 active torsions:
  status: ('A' for Active; 'I' for Inactive)
    1  A    between atoms: S_1  and  C_34
    2  A    between atoms: S_1  and  C_35
    3  A    between atoms: C_2  and  N_6
    4  A    between atoms: C_2  and  C_27
    5  A    between atoms: C_3  and  C_4
    6  A    between atoms: C_3  and  C_12
    7  A    between atoms: C_4  and  C_15
    8  A    between atoms: C_4  and  C_22
    9  A    between atoms: N_8  and  C_33
   10  A    between atoms: C_11  and  C_14
   11  A    between atoms: C_14  and  C_22
   12  A    between atoms: C_19  and  O_37
   13  A    between atoms: C_21  and  C_30
                            x       y       z     vdW  Elec       q    Type
                         _______ _______ _______ _____ _____    ______ ____

>  <TORSDO>
F 13

$$$$
=
 OpenBabel11052421193D

 43 46  0  0  1  0  0  0  0  0999 V2000
  192.6950  171.0440  140.6120 N   0  0  0  0  0  0  0  0  0  0  0  0
  190.4800  171.8030  141.3470 C   0  0  0  0  0  3  0  0  0  0  0  0
  190.4310  172.6100  140.2770 C   0  0  0  0  0  0  0  0  0  0  0  0
  191.7610  171.1180  141.7410 C   0  0  2  0  0  3  0  0  0  0  0  0
  192.6540  172.0570  139.5900 C   0  0  0  0  0  0  0  0  0  0  0  0
  191.5860  172.7820  139.4450 N   0  0  0  0  0  0  0  0  0  0  0  0
  193.6210  173.0740  145.0570 C   0  0  0  0  0  0  0  0  0  0  0  0
  192.5630  173.2200  142.9000 C   0  0  0  0  0  3  0  0  0  0  0  0
  193.4460  171.7250  145.0430 N   0  0  0  0  0  0  0  0  0  0  0  0
  194.2220  173.6680  146.1150 F   0  0  0  0  0  0  0  0  0  0  0  0
  192.3960  171.8290  142.8990 C   0  0  0  0  0  0  0  0  0  0  0  0
  193.1770  173.8480  143.9840 C   0  0  0  0  0  3  0  0  0  0  0  0
  192.8500  171.0920  143.9960 C   0  0  0  0  0  3  0  0  0  0  0  0
  189.2070  173.4260  139.9900 C   0  0  1  0  0  3  0  0  0  0  0  0
  188.2430  172.6700  139.0920 C   0  0  0  0  0  1  0  0  0  0  0  0
  188.5430  173.7950  141.2330 N   0  0  0  0  0  2  0  0  0  0  0  0
  189.1000  174.7380  142.1530 C   0  0  0  0  0  0  0  0  0  0  0  0
  190.1200  175.4100  141.8440 O   0  0  0  0  0  0  0  0  0  0  0  0
  188.5110  174.8830  143.5120 C   0  0  0  0  0  2  0  0  0  0  0  0
  189.5120  175.5580  144.4460 C   0  0  2  0  0  3  0  0  0  0  0  0
  189.1030  174.9150  146.8620 C   0  0  0  0  0  1  0  0  0  0  0  0
  189.8610  174.5880  145.5890 C   0  0  0  0  0  3  0  0  0  0  0  0
  189.6880  173.1240  145.2150 C   0  0  0  0  0  1  0  0  0  0  0  0
  188.9910  176.9380  144.8920 C   0  0  1  0  0  3  0  0  0  0  0  0
  190.0770  178.0020  144.8180 C   0  0  0  0  0  1  0  0  0  0  0  0
  187.8200  177.3650  144.0090 C   0  0  0  0  0  2  0  0  0  0  0  0
  186.6200  177.7130  144.8230 C   0  0  0  0  0  0  0  0  0  0  0  0
  184.9010  179.3020  145.4480 C   0  0  0  0  0  3  0  0  0  0  0  0
  184.9830  177.1280  146.5120 C   0  0  0  0  0  3  0  0  0  0  0  0
  184.3820  178.3820  146.3650 C   0  0  0  0  0  3  0  0  0  0  0  0
  186.1010  176.7930  145.7420 C   0  0  0  0  0  3  0  0  0  0  0  0
  186.0190  178.9690  144.6780 C   0  0  0  0  0  3  0  0  0  0  0  0
  193.7600  170.0510  140.6550 C   0  0  0  0  0  2  0  0  0  0  0  0
  193.1780  168.6720  140.9070 C   0  0  0  0  0  1  0  0  0  0  0  0
  194.0790  172.3940  138.5540 S   0  0  0  0  0  0  0  0  0  0  0  0
  194.7410  175.8690  140.5700 C   0  0  0  0  0  3  0  0  0  0  0  0
  195.6420  175.4870  141.5700 C   0  0  0  0  0  0  0  0  0  0  0  0
  195.6230  173.2180  140.6980 C   0  0  0  0  0  3  0  0  0  0  0  0
  194.2770  174.9320  139.6420 C   0  0  0  0  0  3  0  0  0  0  0  0
  194.7140  173.6040  139.7100 C   0  0  0  0  0  0  0  0  0  0  0  0
  196.0870  174.1550  141.6250 C   0  0  0  0  0  3  0  0  0  0  0  0
  195.9640  176.2590  143.8980 C   0  0  0  0  0  1  0  0  0  0  0  0
  196.0750  176.4430  142.4930 O   0  0  0  0  0  0  0  0  0  0  0  0
  1 33  1  0  0  0  0
  1  4  1  0  0  0  0
  2  4  1  0  0  0  0
  3  2  2  0  0  0  0
  4 11  1  1  0  0  0
  5  1  1  0  0  0  0
  6  5  2  0  0  0  0
  6  3  1  0  0  0  0
  7 10  1  0  0  0  0
  8 12  1  0  0  0  0
  9  7  1  0  0  0  0
 11  8  2  0  0  0  0
 11 13  1  0  0  0  0
 12  7  2  0  0  0  0
 13  9  2  0  0  0  0
 14 15  1  6  0  0  0
 14  3  1  0  0  0  0
 14 16  1  0  0  0  0
 16 17  1  0  0  0  0
 17 19  1  0  0  0  0
 18 17  2  0  0  0  0
 20 19  1  6  0  0  0
 20 24  1  0  0  0  0
 20 22  1  0  0  0  0
 22 21  1  0  0  0  0
 23 22  1  0  0  0  0
 24 25  1  6  0  0  0
 26 27  1  0  0  0  0
 26 24  1  0  0  0  0
 27 31  1  0  0  0  0
 28 30  2  0  0  0  0
 30 29  1  0  0  0  0
 31 29  2  0  0  0  0
 32 27  2  0  0  0  0
 32 28  1  0  0  0  0
 33 34  1  0  0  0  0
 35  5  1  0  0  0  0
 35 40  1  0  0  0  0
 36 37  1  0  0  0  0
 37 41  2  0  0  0  0
 37 43  1  0  0  0  0
 38 41  1  0  0  0  0
 39 40  1  0  0  0  0
 39 36  2  0  0  0  0
 40 38  2  0  0  0  0
 43 42  1  0  0  0  0
M  END
>  <MODEL>
7

>  <REMARK>
 VINA RESULT:      -6.5      1.970      3.876
  Name = 
  13 active torsions:
  status: ('A' for Active; 'I' for Inactive)
    1  A    between atoms: S_1  and  C_34
    2  A    between atoms: S_1  and  C_35
    3  A    between atoms: C_2  and  N_6
    4  A    between atoms: C_2  and  C_27
    5  A    between atoms: C_3  and  C_4
    6  A    between atoms: C_3  and  C_12
    7  A    between atoms: C_4  and  C_15
    8  A    between atoms: C_4  and  C_22
    9  A    between atoms: N_8  and  C_33
   10  A    between atoms: C_11  and  C_14
   11  A    between atoms: C_14  and  C_22
   12  A    between atoms: C_19  and  O_37
   13  A    between atoms: C_21  and  C_30
                            x       y       z     vdW  Elec       q    Type
                         _______ _______ _______ _____ _____    ______ ____

>  <TORSDO>
F 13

$$$$
=
 OpenBabel11052421193D

 43 46  0  0  1  0  0  0  0  0999 V2000
  195.4370  172.4020  144.8230 N   0  0  0  0  0  0  0  0  0  0  0  0
  193.0080  172.7400  144.9080 C   0  0  0  0  0  3  0  0  0  0  0  0
  192.9290  172.2960  143.6450 C   0  0  0  0  0  0  0  0  0  0  0  0
  194.3380  173.0690  145.5300 C   0  0  2  0  0  3  0  0  0  0  0  0
  195.3020  172.1070  143.4200 C   0  0  0  0  0  0  0  0  0  0  0  0
  194.1210  172.0600  142.8830 N   0  0  0  0  0  0  0  0  0  0  0  0
  194.9490  177.3020  145.4850 C   0  0  0  0  0  0  0  0  0  0  0  0
  193.9930  175.3620  146.5440 C   0  0  0  0  0  3  0  0  0  0  0  0
  195.4880  176.5020  144.5250 N   0  0  0  0  0  0  0  0  0  0  0  0
  195.1490  178.6400  145.4420 F   0  0  0  0  0  0  0  0  0  0  0  0
  194.5510  174.5540  145.5450 C   0  0  0  0  0  0  0  0  0  0  0  0
  194.1920  176.7430  146.5170 C   0  0  0  0  0  3  0  0  0  0  0  0
  195.3050  175.1530  144.5330 C   0  0  0  0  0  3  0  0  0  0  0  0
  191.5990  172.1370  142.9710 C   0  0  1  0  0  3  0  0  0  0  0  0
  191.2190  170.6720  142.8500 C   0  0  0  0  0  1  0  0  0  0  0  0
  190.5700  172.8580  143.7090 N   0  0  0  0  0  2  0  0  0  0  0  0
  190.2400  174.2220  143.4340 C   0  0  0  0  0  0  0  0  0  0  0  0
  190.7210  174.8100  142.4290 O   0  0  0  0  0  0  0  0  0  0  0  0
  189.3710  174.9780  144.3770 C   0  0  0  0  0  2  0  0  0  0  0  0
  190.2130  175.9510  145.1980 C   0  0  2  0  0  3  0  0  0  0  0  0
  190.6500  176.4990  147.6320 C   0  0  0  0  0  1  0  0  0  0  0  0
  190.3600  175.4000  146.6280 C   0  0  0  0  0  3  0  0  0  0  0  0
  189.1780  174.5530  147.0750 C   0  0  0  0  0  1  0  0  0  0  0  0
  189.6410  177.3780  145.1010 C   0  0  1  0  0  3  0  0  0  0  0  0
  190.5490  178.2970  144.2960 C   0  0  0  0  0  1  0  0  0  0  0  0
  188.2620  177.3450  144.4420 C   0  0  0  0  0  2  0  0  0  0  0  0
  187.1960  177.7970  145.3820 C   0  0  0  0  0  0  0  0  0  0  0  0
  186.1620  177.7160  147.5720 C   0  0  0  0  0  3  0  0  0  0  0  0
  185.2130  179.1130  145.8360 C   0  0  0  0  0  3  0  0  0  0  0  0
  185.1850  178.6210  147.1450 C   0  0  0  0  0  3  0  0  0  0  0  0
  186.2180  178.7020  144.9550 C   0  0  0  0  0  3  0  0  0  0  0  0
  187.1660  177.3030  146.6910 C   0  0  0  0  0  3  0  0  0  0  0  0
  196.7050  172.2260  145.5180 C   0  0  0  0  0  2  0  0  0  0  0  0
  196.8540  170.7860  145.9750 C   0  0  0  0  0  1  0  0  0  0  0  0
  196.7410  171.8730  142.3740 S   0  0  0  0  0  0  0  0  0  0  0  0
  194.8500  173.0960  138.9820 C   0  0  0  0  0  3  0  0  0  0  0  0
  194.8800  174.4910  139.0890 C   0  0  0  0  0  0  0  0  0  0  0  0
  196.0900  174.2880  141.1870 C   0  0  0  0  0  3  0  0  0  0  0  0
  195.4300  172.2990  139.9730 C   0  0  0  0  0  3  0  0  0  0  0  0
  196.0450  172.8950  141.0800 C   0  0  0  0  0  0  0  0  0  0  0  0
  195.5110  175.0850  140.1960 C   0  0  0  0  0  3  0  0  0  0  0  0
  193.3940  174.7070  137.1240 C   0  0  0  0  0  1  0  0  0  0  0  0
  194.2780  175.2600  138.0900 O   0  0  0  0  0  0  0  0  0  0  0  0
  1 33  1  0  0  0  0
  1  4  1  0  0  0  0
  2  4  1  0  0  0  0
  3  2  2  0  0  0  0
  4 11  1  6  0  0  0
  5  1  1  0  0  0  0
  6  5  2  0  0  0  0
  6  3  1  0  0  0  0
  7 12  1  0  0  0  0
  9 13  1  0  0  0  0
  9  7  2  0  0  0  0
 10  7  1  0  0  0  0
 11  8  1  0  0  0  0
 12  8  2  0  0  0  0
 13 11  2  0  0  0  0
 14 15  1  1  0  0  0
 14  3  1  0  0  0  0
 14 16  1  0  0  0  0
 17 16  1  0  0  0  0
 17 19  1  0  0  0  0
 18 17  2  0  0  0  0
 20 19  1  6  0  0  0
 20 22  1  0  0  0  0
 22 23  1  0  0  0  0
 22 21  1  0  0  0  0
 24 25  1  6  0  0  0
 24 20  1  0  0  0  0
 26 24  1  0  0  0  0
 26 27  1  0  0  0  0
 27 32  1  0  0  0  0
 29 30  2  0  0  0  0
 30 28  1  0  0  0  0
 31 27  2  0  0  0  0
 31 29  1  0  0  0  0
 32 28  2  0  0  0  0
 33 34  1  0  0  0  0
 35  5  1  0  0  0  0
 36 37  2  0  0  0  0
 36 39  1  0  0  0  0
 37 41  1  0  0  0  0
 39 40  2  0  0  0  0
 40 38  1  0  0  0  0
 40 35  1  0  0  0  0
 41 38  2  0  0  0  0
 42 43  1  0  0  0  0
 43 37  1  0  0  0  0
M  END
>  <MODEL>
8

>  <REMARK>
 VINA RESULT:      -6.5      2.216      4.077
  Name = 
  13 active torsions:
  status: ('A' for Active; 'I' for Inactive)
    1  A    between atoms: S_1  and  C_34
    2  A    between atoms: S_1  and  C_35
    3  A    between atoms: C_2  and  N_6
    4  A    between atoms: C_2  and  C_27
    5  A    between atoms: C_3  and  C_4
    6  A    between atoms: C_3  and  C_12
    7  A    between atoms: C_4  and  C_15
    8  A    between atoms: C_4  and  C_22
    9  A    between atoms: N_8  and  C_33
   10  A    between atoms: C_11  and  C_14
   11  A    between atoms: C_14  and  C_22
   12  A    between atoms: C_19  and  O_37
   13  A    between atoms: C_21  and  C_30
                            x       y       z     vdW  Elec       q    Type
                         _______ _______ _______ _____ _____    ______ ____

>  <TORSDO>
F 13

$$$$
=
 OpenBabel11052421193D

 43 46  0  0  1  0  0  0  0  0999 V2000
  195.1470  173.6100  141.3610 N   0  0  0  0  0  0  0  0  0  0  0  0
  193.1940  172.2880  140.6820 C   0  0  0  0  0  3  0  0  0  0  0  0
  192.4660  173.4140  140.6780 C   0  0  0  0  0  0  0  0  0  0  0  0
  194.5750  172.2620  141.2800 C   0  0  2  0  0  3  0  0  0  0  0  0
  194.2710  174.7440  141.5100 C   0  0  0  0  0  0  0  0  0  0  0  0
  193.0190  174.6360  141.1860 N   0  0  0  0  0  0  0  0  0  0  0  0
  194.4080  170.4000  145.1260 C   0  0  0  0  0  0  0  0  0  0  0  0
  195.7130  171.4130  143.3750 C   0  0  0  0  0  3  0  0  0  0  0  0
  193.2780  170.6180  144.4000 N   0  0  0  0  0  0  0  0  0  0  0  0
  194.3290  169.8000  146.3370 F   0  0  0  0  0  0  0  0  0  0  0  0
  194.5410  171.6260  142.6380 C   0  0  0  0  0  0  0  0  0  0  0  0
  195.6490  170.7980  144.6260 C   0  0  0  0  0  3  0  0  0  0  0  0
  193.3190  171.2150  143.1770 C   0  0  0  0  0  3  0  0  0  0  0  0
  191.0320  173.3960  140.2450 C   0  0  1  0  0  3  0  0  0  0  0  0
  190.6470  172.0400  139.6800 C   0  0  0  0  0  1  0  0  0  0  0  0
  190.1610  173.7330  141.3640 N   0  0  0  0  0  2  0  0  0  0  0  0
  188.8980  174.3800  141.1890 C   0  0  0  0  0  0  0  0  0  0  0  0
  188.4140  174.5420  140.0370 O   0  0  0  0  0  0  0  0  0  0  0  0
  188.1750  174.9260  142.3700 C   0  0  0  0  0  2  0  0  0  0  0  0
  188.5260  176.3980  142.5630 C   0  0  2  0  0  3  0  0  0  0  0  0
  189.2340  177.9110  144.4680 C   0  0  0  0  0  1  0  0  0  0  0  0
  189.3910  176.5440  143.8280 C   0  0  0  0  0  3  0  0  0  0  0  0
  189.1640  175.4380  144.8470 C   0  0  0  0  0  1  0  0  0  0  0  0
  187.2540  177.2670  142.5340 C   0  0  1  0  0  3  0  0  0  0  0  0
  186.8910  177.6890  141.1170 C   0  0  0  0  0  1  0  0  0  0  0  0
  186.0810  176.4940  143.1350 C   0  0  0  0  0  2  0  0  0  0  0  0
  185.5050  177.2050  144.3130 C   0  0  0  0  0  0  0  0  0  0  0  0
  184.1220  178.9750  145.2220 C   0  0  0  0  0  3  0  0  0  0  0  0
  185.2930  177.4680  146.7140 C   0  0  0  0  0  3  0  0  0  0  0  0
  184.4410  178.5600  146.5190 C   0  0  0  0  0  3  0  0  0  0  0  0
  185.8250  176.7910  145.6120 C   0  0  0  0  0  3  0  0  0  0  0  0
  184.6550  178.3000  144.1200 C   0  0  0  0  0  3  0  0  0  0  0  0
  196.5920  173.7460  141.4750 C   0  0  0  0  0  2  0  0  0  0  0  0
  197.2740  173.0850  140.2920 C   0  0  0  0  0  1  0  0  0  0  0  0
  194.8580  176.2890  142.2070 S   0  0  0  0  0  0  0  0  0  0  0  0
  193.8110  174.5740  145.7490 C   0  0  0  0  0  3  0  0  0  0  0  0
  192.8790  175.4760  146.2730 C   0  0  0  0  0  0  0  0  0  0  0  0
  193.1230  176.8570  144.2880 C   0  0  0  0  0  3  0  0  0  0  0  0
  194.4020  174.8130  144.5050 C   0  0  0  0  0  3  0  0  0  0  0  0
  194.0620  175.9580  143.7760 C   0  0  0  0  0  0  0  0  0  0  0  0
  192.5310  176.6180  145.5310 C   0  0  0  0  0  3  0  0  0  0  0  0
  191.1790  175.9130  148.0150 C   0  0  0  0  0  1  0  0  0  0  0  0
  192.3180  175.2180  147.5260 O   0  0  0  0  0  0  0  0  0  0  0  0
  1 33  1  0  0  0  0
  1  5  1  0  0  0  0
  2  4  1  0  0  0  0
  3  2  2  0  0  0  0
  3  6  1  0  0  0  0
  4  1  1  0  0  0  0
  4 11  1  1  0  0  0
  5 35  1  0  0  0  0
  6  5  2  0  0  0  0
  7 10  1  0  0  0  0
  8 12  2  0  0  0  0
  9  7  2  0  0  0  0
 11 13  2  0  0  0  0
 11  8  1  0  0  0  0
 12  7  1  0  0  0  0
 13  9  1  0  0  0  0
 14 15  1  1  0  0  0
 14  3  1  0  0  0  0
 14 16  1  0  0  0  0
 17 16  1  0  0  0  0
 17 19  1  0  0  0  0
 18 17  2  0  0  0  0
 20 19  1  1  0  0  0
 20 22  1  0  0  0  0
 22 21  1  0  0  0  0
 22 23  1  0  0  0  0
 24 25  1  6  0  0  0
 24 20  1  0  0  0  0
 24 26  1  0  0  0  0
 26 27  1  0  0  0  0
 27 31  1  0  0  0  0
 28 30  2  0  0  0  0
 30 29  1  0  0  0  0
 31 29  2  0  0  0  0
 32 27  2  0  0  0  0
 32 28  1  0  0  0  0
 34 33  1  0  0  0  0
 35 40  1  0  0  0  0
 36 37  1  0  0  0  0
 37 43  1  0  0  0  0
 38 41  1  0  0  0  0
 39 36  2  0  0  0  0
 40 38  2  0  0  0  0
 40 39  1  0  0  0  0
 41 37  2  0  0  0  0
 43 42  1  0  0  0  0
M  END
>  <MODEL>
9

>  <REMARK>
 VINA RESULT:      -6.4      2.446      4.944
  Name = 
  13 active torsions:
  status: ('A' for Active; 'I' for Inactive)
    1  A    between atoms: S_1  and  C_34
    2  A    between atoms: S_1  and  C_35
    3  A    between atoms: C_2  and  N_6
    4  A    between atoms: C_2  and  C_27
    5  A    between atoms: C_3  and  C_4
    6  A    between atoms: C_3  and  C_12
    7  A    between atoms: C_4  and  C_15
    8  A    between atoms: C_4  and  C_22
    9  A    between atoms: N_8  and  C_33
   10  A    between atoms: C_11  and  C_14
   11  A    between atoms: C_14  and  C_22
   12  A    between atoms: C_19  and  O_37
   13  A    between atoms: C_21  and  C_30
                            x       y       z     vdW  Elec       q    Type
                         _______ _______ _______ _____ _____    ______ ____

>  <TORSDO>
F 13

$$$$
