=
 OpenBabel11052418573D

 34 38  0  0  1  0  0  0  0  0999 V2000
  185.9380  178.3490  145.7580 C   0  0  0  0  0  0  0  0  0  0  0  0
  186.0650  178.1080  143.3310 C   0  0  0  0  0  0  0  0  0  0  0  0
  187.9770  177.5180  144.7180 C   0  0  0  0  0  0  0  0  0  0  0  0
  190.1170  176.8670  143.6030 N   0  0  0  0  0  0  0  0  0  0  0  0
  184.0150  178.8700  144.3780 C   0  0  0  0  0  3  0  0  0  0  0  0
  184.7450  178.5540  143.2260 C   0  0  0  0  0  3  0  0  0  0  0  0
  188.1190  177.3970  142.2070 C   0  0  0  0  0  3  0  0  0  0  0  0
  186.6550  177.9740  144.6030 C   0  0  0  0  0  0  0  0  0  0  0  0
  190.3220  175.4140  141.7790 O   0  0  0  0  0  0  0  0  0  0  0  0
  184.6120  178.7770  145.6410 C   0  0  0  0  0  3  0  0  0  0  0  0
  188.6180  177.5400  145.9650 C   0  0  0  0  0  0  0  0  0  0  0  0
  186.5650  178.3150  147.0060 C   0  0  0  0  0  3  0  0  0  0  0  0
  186.8860  177.9120  142.1200 C   0  0  0  0  0  3  0  0  0  0  0  0
  190.8090  177.4860  144.7390 C   0  0  0  0  0  2  0  0  0  0  0  0
  190.0780  177.2110  146.0610 C   0  0  2  0  0  3  0  0  0  0  0  0
  190.8950  176.0970  142.6730 C   0  0  0  0  0  0  0  0  0  0  0  0
  188.6470  176.8760  143.5210 C   0  0  2  0  0  3  0  0  0  0  0  0
  187.9070  177.9280  147.1070 C   0  0  0  0  0  3  0  0  0  0  0  0
  191.5210  175.5230  147.2990 C   0  0  0  0  0  0  0  0  0  0  0  0
  191.4580  175.2680  148.5300 O   0  0  0  0  0  0  0  0  0  0  0  0
  190.3270  175.8620  146.5720 N   0  0  0  0  0  0  0  0  0  0  0  0
  193.0940  175.3890  146.4570 S   0  0  0  0  0  1  0  0  0  0  0  0
  188.7200  174.3420  147.6480 C   0  0  0  0  0  1  0  0  0  0  0  0
  189.8090  173.7160  145.4950 C   0  0  0  0  0  1  0  0  0  0  0  0
  189.2850  174.8640  146.3400 C   0  0  0  0  0  3  0  0  0  0  0  0
  192.2880  176.0940  142.7730 O   0  0  0  0  0  0  0  0  0  0  0  0
  193.1090  175.4480  141.8100 C   0  0  0  0  0  2  0  0  0  0  0  0
  195.4440  175.3720  139.8990 C   0  0  0  0  0  1  0  0  0  0  0  0
  194.5580  175.4540  142.2730 C   0  0  1  0  0  3  0  0  0  0  0  0
  195.4880  176.1140  141.2240 C   0  0  1  0  0  3  0  0  0  0  0  0
  196.8550  176.8310  142.8980 C   0  0  0  0  0  2  0  0  0  0  0  0
  195.9640  176.1370  143.9300 C   0  0  0  0  0  2  0  0  0  0  0  0
  194.6290  176.1690  143.4860 O   0  0  0  0  0  0  0  0  0  0  0  0
  196.8180  176.1110  141.6900 O   0  0  0  0  0  0  0  0  0  0  0  0
  1 12  1  0  0  0  0
  2  8  1  0  0  0  0
  3 11  2  0  0  0  0
  4 14  1  0  0  0  0
  5 10  2  0  0  0  0
  6  2  2  0  0  0  0
  6  5  1  0  0  0  0
  8  3  1  0  0  0  0
  8  1  2  0  0  0  0
  9 16  2  0  0  0  0
 10  1  1  0  0  0  0
 11 15  1  0  0  0  0
 11 18  1  0  0  0  0
 12 18  2  0  0  0  0
 13  7  2  0  0  0  0
 13  2  1  0  0  0  0
 14 15  1  0  0  0  0
 15 21  1  6  0  0  0
 16 26  1  0  0  0  0
 16  4  1  0  0  0  0
 17  7  1  6  0  0  0
 17  4  1  0  0  0  0
 17  3  1  0  0  0  0
 19 20  2  0  0  0  0
 21 19  1  0  0  0  0
 22 19  1  0  0  0  0
 24 25  1  0  0  0  0
 25 21  1  0  0  0  0
 25 23  1  0  0  0  0
 27 26  1  0  0  0  0
 29 27  1  6  0  0  0
 29 33  1  0  0  0  0
 30 28  1  6  0  0  0
 30 34  1  0  0  0  0
 30 29  1  0  0  0  0
 31 32  1  0  0  0  0
 33 32  1  0  0  0  0
 34 31  1  0  0  0  0
M  END
>  <MODEL>
1

>  <REMARK>
 VINA RESULT:      -8.6      0.000      0.000
  Name = 
  5 active torsions:
  status: ('A' for Active; 'I' for Inactive)
    1  A    between atoms: C_3  and  C_13
    2  A    between atoms: C_3  and  O_17
    3  A    between atoms: O_17  and  C_29
    4  A    between atoms: N_23  and  C_27
    5  A    between atoms: N_23  and  C_28
                            x       y       z     vdW  Elec       q    Type
                         _______ _______ _______ _____ _____    ______ ____

>  <TORSDO>
F 5

$$$$
=
 OpenBabel11052418573D

 34 38  0  0  1  0  0  0  0  0999 V2000
  185.8450  178.0520  144.9780 C   0  0  0  0  0  0  0  0  0  0  0  0
  186.3110  177.7090  142.6050 C   0  0  0  0  0  0  0  0  0  0  0  0
  188.0670  177.3630  144.2560 C   0  0  0  0  0  0  0  0  0  0  0  0
  190.3830  176.8610  143.4630 N   0  0  0  0  0  0  0  0  0  0  0  0
  184.0830  178.3270  143.3370 C   0  0  0  0  0  3  0  0  0  0  0  0
  184.9830  178.0250  142.3070 C   0  0  0  0  0  3  0  0  0  0  0  0
  188.5480  177.1370  141.7960 C   0  0  0  0  0  3  0  0  0  0  0  0
  186.7380  177.6900  143.9470 C   0  0  0  0  0  0  0  0  0  0  0  0
  190.9490  175.3470  141.7690 O   0  0  0  0  0  0  0  0  0  0  0  0
  184.5140  178.3490  144.6680 C   0  0  0  0  0  3  0  0  0  0  0  0
  188.5340  177.5040  145.5710 C   0  0  0  0  0  0  0  0  0  0  0  0
  186.3030  178.1350  146.2960 C   0  0  0  0  0  3  0  0  0  0  0  0
  187.2980  177.5310  141.5220 C   0  0  0  0  0  3  0  0  0  0  0  0
  190.8630  177.5940  144.6390 C   0  0  0  0  0  2  0  0  0  0  0  0
  189.9900  177.3160  145.8710 C   0  0  2  0  0  3  0  0  0  0  0  0
  191.3390  176.1220  142.6870 C   0  0  0  0  0  0  0  0  0  0  0  0
  188.9410  176.7300  143.1950 C   0  0  2  0  0  3  0  0  0  0  0  0
  187.6480  177.8790  146.5890 C   0  0  0  0  0  3  0  0  0  0  0  0
  191.4500  175.8040  147.3010 C   0  0  0  0  0  0  0  0  0  0  0  0
  191.3300  175.6280  148.5420 O   0  0  0  0  0  0  0  0  0  0  0  0
  190.2840  176.0210  146.4890 N   0  0  0  0  0  0  0  0  0  0  0  0
  193.0760  175.7070  146.5580 S   0  0  0  0  0  1  0  0  0  0  0  0
  188.7680  174.4250  147.5860 C   0  0  0  0  0  1  0  0  0  0  0  0
  189.9260  173.8180  145.4630 C   0  0  0  0  0  1  0  0  0  0  0  0
  189.3140  174.9500  146.2710 C   0  0  0  0  0  3  0  0  0  0  0  0
  192.7020  176.2520  142.9630 O   0  0  0  0  0  0  0  0  0  0  0  0
  193.6170  175.1860  142.7490 C   0  0  0  0  0  2  0  0  0  0  0  0
  195.1970  173.2800  144.4750 C   0  0  0  0  0  1  0  0  0  0  0  0
  194.9730  175.5370  143.3430 C   0  0  1  0  0  3  0  0  0  0  0  0
  195.8530  174.2770  143.5350 C   0  0  1  0  0  3  0  0  0  0  0  0
  197.7180  175.5360  143.1810 C   0  0  0  0  0  2  0  0  0  0  0  0
  196.8520  176.7890  143.0410 C   0  0  0  0  0  2  0  0  0  0  0  0
  195.6160  176.4370  142.4680 O   0  0  0  0  0  0  0  0  0  0  0  0
  197.1030  174.6400  144.0760 O   0  0  0  0  0  0  0  0  0  0  0  0
  1 12  1  0  0  0  0
  2  8  1  0  0  0  0
  3 11  2  0  0  0  0
  4 14  1  0  0  0  0
  5 10  2  0  0  0  0
  6  2  2  0  0  0  0
  6  5  1  0  0  0  0
  8  3  1  0  0  0  0
  8  1  2  0  0  0  0
  9 16  2  0  0  0  0
 10  1  1  0  0  0  0
 11 15  1  0  0  0  0
 11 18  1  0  0  0  0
 12 18  2  0  0  0  0
 13  7  2  0  0  0  0
 13  2  1  0  0  0  0
 14 15  1  0  0  0  0
 15 21  1  6  0  0  0
 16 26  1  0  0  0  0
 16  4  1  0  0  0  0
 17  7  1  6  0  0  0
 17  4  1  0  0  0  0
 17  3  1  0  0  0  0
 19 20  2  0  0  0  0
 21 19  1  0  0  0  0
 22 19  1  0  0  0  0
 24 25  1  0  0  0  0
 25 21  1  0  0  0  0
 25 23  1  0  0  0  0
 27 26  1  0  0  0  0
 29 27  1  6  0  0  0
 29 30  1  0  0  0  0
 30 34  1  0  0  0  0
 30 28  1  1  0  0  0
 31 34  1  0  0  0  0
 32 31  1  0  0  0  0
 33 32  1  0  0  0  0
 33 29  1  0  0  0  0
M  END
>  <MODEL>
2

>  <REMARK>
 VINA RESULT:      -8.5      1.026      1.340
  Name = 
  5 active torsions:
  status: ('A' for Active; 'I' for Inactive)
    1  A    between atoms: C_3  and  C_13
    2  A    between atoms: C_3  and  O_17
    3  A    between atoms: O_17  and  C_29
    4  A    between atoms: N_23  and  C_27
    5  A    between atoms: N_23  and  C_28
                            x       y       z     vdW  Elec       q    Type
                         _______ _______ _______ _____ _____    ______ ____

>  <TORSDO>
F 5

$$$$
=
 OpenBabel11052418573D

 34 38  0  0  1  0  0  0  0  0999 V2000
  185.5530  177.5530  143.9970 C   0  0  0  0  0  0  0  0  0  0  0  0
  186.3210  178.1450  146.2380 C   0  0  0  0  0  0  0  0  0  0  0  0
  187.6820  176.7050  144.8220 C   0  0  0  0  0  0  0  0  0  0  0  0
  189.7550  175.6900  145.7780 N   0  0  0  0  0  0  0  0  0  0  0  0
  184.2360  179.0410  145.3840 C   0  0  0  0  0  3  0  0  0  0  0  0
  185.1750  178.9250  146.4160 C   0  0  0  0  0  3  0  0  0  0  0  0
  188.3870  177.2340  147.1800 C   0  0  0  0  0  3  0  0  0  0  0  0
  186.5280  177.4820  145.0130 C   0  0  0  0  0  0  0  0  0  0  0  0
  191.3500  176.8060  147.0800 O   0  0  0  0  0  0  0  0  0  0  0  0
  184.4190  178.3500  144.1810 C   0  0  0  0  0  3  0  0  0  0  0  0
  187.8100  175.9150  143.6710 C   0  0  0  0  0  0  0  0  0  0  0  0
  185.7140  176.8070  142.8260 C   0  0  0  0  0  3  0  0  0  0  0  0
  187.2410  177.9010  147.3660 C   0  0  0  0  0  3  0  0  0  0  0  0
  189.4940  174.5320  144.9170 C   0  0  0  0  0  2  0  0  0  0  0  0
  188.9590  174.9610  143.5430 C   0  0  2  0  0  3  0  0  0  0  0  0
  191.0160  175.7560  146.4630 C   0  0  0  0  0  0  0  0  0  0  0  0
  188.8350  176.8390  145.7950 C   0  0  2  0  0  3  0  0  0  0  0  0
  186.8310  175.9760  142.6710 C   0  0  0  0  0  3  0  0  0  0  0  0
  190.6100  176.7530  142.8160 C   0  0  0  0  0  0  0  0  0  0  0  0
  191.8010  176.8560  143.2120 O   0  0  0  0  0  0  0  0  0  0  0  0
  190.0150  175.4540  142.6560 N   0  0  0  0  0  0  0  0  0  0  0  0
  189.6980  178.2330  142.3900 S   0  0  0  0  0  1  0  0  0  0  0  0
  189.3020  173.9580  140.8390 C   0  0  0  0  0  1  0  0  0  0  0  0
  191.3370  173.4390  142.1820 C   0  0  0  0  0  1  0  0  0  0  0  0
  190.4720  174.5470  141.6060 C   0  0  0  0  0  3  0  0  0  0  0  0
  191.8800  174.6590  146.4280 O   0  0  0  0  0  0  0  0  0  0  0  0
  193.2900  174.8100  146.5130 C   0  0  0  0  0  2  0  0  0  0  0  0
  194.5660  177.4530  145.8060 C   0  0  0  0  0  1  0  0  0  0  0  0
  193.8660  175.1100  145.1370 C   0  0  1  0  0  3  0  0  0  0  0  0
  195.0280  176.1310  145.2170 C   0  0  1  0  0  3  0  0  0  0  0  0
  196.0010  175.1530  143.4050 C   0  0  0  0  0  2  0  0  0  0  0  0
  194.8290  174.1760  143.2960 C   0  0  0  0  0  2  0  0  0  0  0  0
  194.3350  173.9000  144.5840 O   0  0  0  0  0  0  0  0  0  0  0  0
  195.5430  176.3760  143.9280 O   0  0  0  0  0  0  0  0  0  0  0  0
  1 10  2  0  0  0  0
  1  8  1  0  0  0  0
  2  6  1  0  0  0  0
  2 13  1  0  0  0  0
  3  8  1  0  0  0  0
  3 17  1  0  0  0  0
  4 17  1  0  0  0  0
  4 16  1  0  0  0  0
  5  6  2  0  0  0  0
  7 13  2  0  0  0  0
  8  2  2  0  0  0  0
 10  5  1  0  0  0  0
 11  3  2  0  0  0  0
 12  1  1  0  0  0  0
 14  4  1  0  0  0  0
 15 21  1  6  0  0  0
 15 11  1  0  0  0  0
 15 14  1  0  0  0  0
 16  9  2  0  0  0  0
 17  7  1  1  0  0  0
 18 12  2  0  0  0  0
 18 11  1  0  0  0  0
 19 20  2  0  0  0  0
 21 19  1  0  0  0  0
 22 19  1  0  0  0  0
 23 25  1  0  0  0  0
 25 24  1  0  0  0  0
 25 21  1  0  0  0  0
 26 16  1  0  0  0  0
 26 27  1  0  0  0  0
 29 30  1  0  0  0  0
 29 27  1  1  0  0  0
 30 28  1  6  0  0  0
 31 34  1  0  0  0  0
 32 31  1  0  0  0  0
 32 33  1  0  0  0  0
 33 29  1  0  0  0  0
 34 30  1  0  0  0  0
M  END
>  <MODEL>
3

>  <REMARK>
 VINA RESULT:      -8.1      1.929      3.943
  Name = 
  5 active torsions:
  status: ('A' for Active; 'I' for Inactive)
    1  A    between atoms: C_3  and  C_13
    2  A    between atoms: C_3  and  O_17
    3  A    between atoms: O_17  and  C_29
    4  A    between atoms: N_23  and  C_27
    5  A    between atoms: N_23  and  C_28
                            x       y       z     vdW  Elec       q    Type
                         _______ _______ _______ _____ _____    ______ ____

>  <TORSDO>
F 5

$$$$
=
 OpenBabel11052418573D

 34 38  0  0  1  0  0  0  0  0999 V2000
  186.2400  178.3600  146.0540 C   0  0  0  0  0  0  0  0  0  0  0  0
  185.5320  177.7440  143.8000 C   0  0  0  0  0  0  0  0  0  0  0  0
  187.7470  177.1210  144.5950 C   0  0  0  0  0  0  0  0  0  0  0  0
  189.3370  176.0350  143.0020 N   0  0  0  0  0  0  0  0  0  0  0  0
  184.0120  178.9160  145.2810 C   0  0  0  0  0  3  0  0  0  0  0  0
  184.2890  178.3380  144.0360 C   0  0  0  0  0  3  0  0  0  0  0  0
  187.0330  176.6080  142.2360 C   0  0  0  0  0  3  0  0  0  0  0  0
  186.5010  177.7250  144.8210 C   0  0  0  0  0  0  0  0  0  0  0  0
  188.8110  174.3110  141.5080 O   0  0  0  0  0  0  0  0  0  0  0  0
  184.9870  178.9360  146.2840 C   0  0  0  0  0  3  0  0  0  0  0  0
  188.7670  177.2450  145.5490 C   0  0  0  0  0  0  0  0  0  0  0  0
  187.2440  178.4300  147.0240 C   0  0  0  0  0  3  0  0  0  0  0  0
  185.8840  177.2620  142.4500 C   0  0  0  0  0  3  0  0  0  0  0  0
  190.4120  176.7200  143.7260 C   0  0  0  0  0  2  0  0  0  0  0  0
  190.1460  176.7450  145.2380 C   0  0  2  0  0  3  0  0  0  0  0  0
  189.6990  175.0390  142.0330 C   0  0  0  0  0  0  0  0  0  0  0  0
  187.9290  176.2250  143.3880 C   0  0  2  0  0  3  0  0  0  0  0  0
  188.5100  177.8900  146.7650 C   0  0  0  0  0  3  0  0  0  0  0  0
  191.7580  175.1520  146.3900 C   0  0  0  0  0  0  0  0  0  0  0  0
  191.9530  175.0760  147.6310 O   0  0  0  0  0  0  0  0  0  0  0  0
  190.4500  175.4670  145.8850 N   0  0  0  0  0  0  0  0  0  0  0  0
  193.1070  174.7940  145.2690 S   0  0  0  0  0  1  0  0  0  0  0  0
  188.9410  174.3610  147.4810 C   0  0  0  0  0  1  0  0  0  0  0  0
  189.7040  173.1720  145.4270 C   0  0  0  0  0  1  0  0  0  0  0  0
  189.3450  174.5200  146.0270 C   0  0  0  0  0  3  0  0  0  0  0  0
  191.0410  174.8670  141.6870 O   0  0  0  0  0  0  0  0  0  0  0  0
  191.7010  173.6170  141.8310 C   0  0  0  0  0  2  0  0  0  0  0  0
  190.6570  170.9940  140.7630 C   0  0  0  0  0  1  0  0  0  0  0  0
  192.0840  173.0690  140.4650 C   0  0  1  0  0  3  0  0  0  0  0  0
  190.9580  172.1870  139.8710 C   0  0  1  0  0  3  0  0  0  0  0  0
  191.5830  172.8160  137.7730 C   0  0  0  0  0  2  0  0  0  0  0  0
  192.7260  173.6480  138.3570 C   0  0  0  0  0  2  0  0  0  0  0  0
  192.3340  174.1600  139.6070 O   0  0  0  0  0  0  0  0  0  0  0  0
  191.3420  171.7050  138.6030 O   0  0  0  0  0  0  0  0  0  0  0  0
  1 10  1  0  0  0  0
  1 12  1  0  0  0  0
  2  6  2  0  0  0  0
  2  8  1  0  0  0  0
  3  8  1  0  0  0  0
  3 11  2  0  0  0  0
  4 17  1  0  0  0  0
  4 14  1  0  0  0  0
  5 10  2  0  0  0  0
  6  5  1  0  0  0  0
  7 13  2  0  0  0  0
  8  1  2  0  0  0  0
  9 16  2  0  0  0  0
 11 18  1  0  0  0  0
 13  2  1  0  0  0  0
 14 15  1  0  0  0  0
 15 11  1  0  0  0  0
 15 21  1  6  0  0  0
 16  4  1  0  0  0  0
 17  7  1  6  0  0  0
 17  3  1  0  0  0  0
 18 12  2  0  0  0  0
 19 20  2  0  0  0  0
 21 25  1  0  0  0  0
 21 19  1  0  0  0  0
 22 19  1  0  0  0  0
 24 25  1  0  0  0  0
 25 23  1  0  0  0  0
 26 27  1  0  0  0  0
 26 16  1  0  0  0  0
 29 27  1  1  0  0  0
 30 29  1  0  0  0  0
 30 28  1  1  0  0  0
 31 32  1  0  0  0  0
 31 34  1  0  0  0  0
 32 33  1  0  0  0  0
 33 29  1  0  0  0  0
 34 30  1  0  0  0  0
M  END
>  <MODEL>
4

>  <REMARK>
 VINA RESULT:      -7.7      2.325      3.122
  Name = 
  5 active torsions:
  status: ('A' for Active; 'I' for Inactive)
    1  A    between atoms: C_3  and  C_13
    2  A    between atoms: C_3  and  O_17
    3  A    between atoms: O_17  and  C_29
    4  A    between atoms: N_23  and  C_27
    5  A    between atoms: N_23  and  C_28
                            x       y       z     vdW  Elec       q    Type
                         _______ _______ _______ _____ _____    ______ ____

>  <TORSDO>
F 5

$$$$
=
 OpenBabel11052418573D

 34 38  0  0  1  0  0  0  0  0999 V2000
  187.0050  178.2120  146.9350 C   0  0  0  0  0  0  0  0  0  0  0  0
  185.5240  177.5210  145.1200 C   0  0  0  0  0  0  0  0  0  0  0  0
  187.9010  177.0000  145.0210 C   0  0  0  0  0  0  0  0  0  0  0  0
  188.8170  175.9420  142.9510 N   0  0  0  0  0  0  0  0  0  0  0  0
  184.6280  178.6660  147.0600 C   0  0  0  0  0  3  0  0  0  0  0  0
  184.4390  178.0720  145.8060 C   0  0  0  0  0  3  0  0  0  0  0  0
  186.3710  176.4100  143.1110 C   0  0  0  0  0  3  0  0  0  0  0  0
  186.8070  177.5610  145.6990 C   0  0  0  0  0  0  0  0  0  0  0  0
  187.8410  174.1670  141.7760 O   0  0  0  0  0  0  0  0  0  0  0  0
  185.9080  178.7440  147.6190 C   0  0  0  0  0  3  0  0  0  0  0  0
  189.1990  177.1840  145.5170 C   0  0  0  0  0  0  0  0  0  0  0  0
  188.2970  178.3420  147.4520 C   0  0  0  0  0  3  0  0  0  0  0  0
  185.3610  177.0240  143.7400 C   0  0  0  0  0  3  0  0  0  0  0  0
  190.0550  176.6840  143.2100 C   0  0  0  0  0  2  0  0  0  0  0  0
  190.3790  176.7310  144.7110 C   0  0  2  0  0  3  0  0  0  0  0  0
  188.8290  174.9400  141.9220 C   0  0  0  0  0  0  0  0  0  0  0  0
  187.6520  176.0860  143.8400 C   0  0  2  0  0  3  0  0  0  0  0  0
  189.3930  177.8450  146.7370 C   0  0  0  0  0  3  0  0  0  0  0  0
  190.1510  174.3930  145.6840 C   0  0  0  0  0  0  0  0  0  0  0  0
  190.0650  173.3280  145.0190 O   0  0  0  0  0  0  0  0  0  0  0  0
  190.9600  175.4790  145.2010 N   0  0  0  0  0  0  0  0  0  0  0  0
  189.3160  174.5090  147.2630 S   0  0  0  0  0  1  0  0  0  0  0  0
  192.9510  174.6070  146.3510 C   0  0  0  0  0  1  0  0  0  0  0  0
  193.0680  176.7300  145.0500 C   0  0  0  0  0  1  0  0  0  0  0  0
  192.4150  175.3620  145.1480 C   0  0  0  0  0  3  0  0  0  0  0  0
  189.9460  174.8130  141.0950 O   0  0  0  0  0  0  0  0  0  0  0  0
  190.9480  173.8330  141.3300 C   0  0  0  0  0  2  0  0  0  0  0  0
  190.6670  170.8520  141.7130 C   0  0  0  0  0  1  0  0  0  0  0  0
  190.9900  172.8430  140.1760 C   0  0  1  0  0  3  0  0  0  0  0  0
  190.1510  171.5770  140.4820 C   0  0  1  0  0  3  0  0  0  0  0  0
  189.6890  171.3570  138.2620 C   0  0  0  0  0  2  0  0  0  0  0  0
  190.5590  172.5770  137.9550 C   0  0  0  0  0  2  0  0  0  0  0  0
  190.4810  173.4840  139.0280 O   0  0  0  0  0  0  0  0  0  0  0  0
  190.2040  170.6880  139.3890 O   0  0  0  0  0  0  0  0  0  0  0  0
  1 12  1  0  0  0  0
  1 10  2  0  0  0  0
  2  8  2  0  0  0  0
  2  6  1  0  0  0  0
  3 11  2  0  0  0  0
  3  8  1  0  0  0  0
  4 14  1  0  0  0  0
  4 17  1  0  0  0  0
  5 10  1  0  0  0  0
  6  5  2  0  0  0  0
  7 13  2  0  0  0  0
  8  1  1  0  0  0  0
  9 16  2  0  0  0  0
 11 18  1  0  0  0  0
 13  2  1  0  0  0  0
 14 15  1  0  0  0  0
 15 21  1  1  0  0  0
 15 11  1  0  0  0  0
 16  4  1  0  0  0  0
 17  7  1  6  0  0  0
 17  3  1  0  0  0  0
 18 12  2  0  0  0  0
 19 22  1  0  0  0  0
 20 19  2  0  0  0  0
 21 19  1  0  0  0  0
 24 25  1  0  0  0  0
 25 21  1  0  0  0  0
 25 23  1  0  0  0  0
 26 27  1  0  0  0  0
 26 16  1  0  0  0  0
 29 30  1  0  0  0  0
 29 27  1  1  0  0  0
 30 28  1  1  0  0  0
 31 34  1  0  0  0  0
 32 31  1  0  0  0  0
 32 33  1  0  0  0  0
 33 29  1  0  0  0  0
 34 30  1  0  0  0  0
M  END
>  <MODEL>
5

>  <REMARK>
 VINA RESULT:      -7.7      2.786      4.211
  Name = 
  5 active torsions:
  status: ('A' for Active; 'I' for Inactive)
    1  A    between atoms: C_3  and  C_13
    2  A    between atoms: C_3  and  O_17
    3  A    between atoms: O_17  and  C_29
    4  A    between atoms: N_23  and  C_27
    5  A    between atoms: N_23  and  C_28
                            x       y       z     vdW  Elec       q    Type
                         _______ _______ _______ _____ _____    ______ ____

>  <TORSDO>
F 5

$$$$
=
 OpenBabel11052418573D

 34 38  0  0  1  0  0  0  0  0999 V2000
  194.8450  174.6530  141.9870 C   0  0  0  0  0  0  0  0  0  0  0  0
  195.4290  175.8750  144.0190 C   0  0  0  0  0  0  0  0  0  0  0  0
  193.0910  175.5400  143.4260 C   0  0  0  0  0  0  0  0  0  0  0  0
  191.3280  176.6410  144.8130 N   0  0  0  0  0  0  0  0  0  0  0  0
  197.1680  174.9300  142.6190 C   0  0  0  0  0  3  0  0  0  0  0  0
  196.7830  175.6630  143.7480 C   0  0  0  0  0  3  0  0  0  0  0  0
  193.7270  176.8990  145.4470 C   0  0  0  0  0  3  0  0  0  0  0  0
  194.4540  175.3420  143.1540 C   0  0  0  0  0  0  0  0  0  0  0  0
  191.2710  176.7070  147.1520 O   0  0  0  0  0  0  0  0  0  0  0  0
  196.2020  174.4340  141.7360 C   0  0  0  0  0  3  0  0  0  0  0  0
  192.1270  175.1540  142.4840 C   0  0  0  0  0  0  0  0  0  0  0  0
  193.8750  174.2200  141.0790 C   0  0  0  0  0  3  0  0  0  0  0  0
  195.0180  176.7660  145.1220 C   0  0  0  0  0  3  0  0  0  0  0  0
  190.5400  176.7600  143.5810 C   0  0  0  0  0  2  0  0  0  0  0  0
  190.6880  175.5140  142.6960 C   0  0  2  0  0  3  0  0  0  0  0  0
  190.6870  176.9520  146.0600 C   0  0  0  0  0  0  0  0  0  0  0  0
  192.6720  176.0410  144.7920 C   0  0  2  0  0  3  0  0  0  0  0  0
  192.5210  174.4850  141.3180 C   0  0  0  0  0  3  0  0  0  0  0  0
  190.2520  173.6030  144.3140 C   0  0  0  0  0  0  0  0  0  0  0  0
  189.5810  173.6800  145.3770 O   0  0  0  0  0  0  0  0  0  0  0  0
  189.8800  174.3880  143.1690 N   0  0  0  0  0  0  0  0  0  0  0  0
  191.6230  172.4550  144.2270 S   0  0  0  0  0  1  0  0  0  0  0  0
  188.5040  172.6290  142.1390 C   0  0  0  0  0  1  0  0  0  0  0  0
  188.5750  174.9190  141.1580 C   0  0  0  0  0  1  0  0  0  0  0  0
  188.6440  174.1100  142.4410 C   0  0  0  0  0  3  0  0  0  0  0  0
  189.4080  177.5120  146.0600 O   0  0  0  0  0  0  0  0  0  0  0  0
  188.2620  176.7680  146.4530 C   0  0  0  0  0  2  0  0  0  0  0  0
  186.5420  176.7180  143.9730 C   0  0  0  0  0  1  0  0  0  0  0  0
  187.0110  177.6190  146.2960 C   0  0  1  0  0  3  0  0  0  0  0  0
  185.9750  176.9410  145.3650 C   0  0  1  0  0  3  0  0  0  0  0  0
  184.2890  177.9210  146.5410 C   0  0  0  0  0  2  0  0  0  0  0  0
  185.3120  178.6300  147.4290 C   0  0  0  0  0  2  0  0  0  0  0  0
  186.4460  177.8100  147.5740 O   0  0  0  0  0  0  0  0  0  0  0  0
  184.8270  177.7500  145.2520 O   0  0  0  0  0  0  0  0  0  0  0  0
  1  8  1  0  0  0  0
  2 13  1  0  0  0  0
  3 17  1  0  0  0  0
  4 16  1  0  0  0  0
  5  6  2  0  0  0  0
  6  2  1  0  0  0  0
  8  3  1  0  0  0  0
  8  2  2  0  0  0  0
 10  1  2  0  0  0  0
 10  5  1  0  0  0  0
 11 15  1  0  0  0  0
 11  3  2  0  0  0  0
 12 18  2  0  0  0  0
 12  1  1  0  0  0  0
 13  7  2  0  0  0  0
 14  4  1  0  0  0  0
 15 21  1  1  0  0  0
 15 14  1  0  0  0  0
 16  9  2  0  0  0  0
 17  4  1  0  0  0  0
 17  7  1  6  0  0  0
 18 11  1  0  0  0  0
 19 20  2  0  0  0  0
 21 19  1  0  0  0  0
 22 19  1  0  0  0  0
 23 25  1  0  0  0  0
 24 25  1  0  0  0  0
 25 21  1  0  0  0  0
 26 16  1  0  0  0  0
 26 27  1  0  0  0  0
 29 27  1  1  0  0  0
 29 33  1  0  0  0  0
 30 28  1  6  0  0  0
 30 29  1  0  0  0  0
 31 32  1  0  0  0  0
 32 33  1  0  0  0  0
 34 30  1  0  0  0  0
 34 31  1  0  0  0  0
M  END
>  <MODEL>
6

>  <REMARK>
 VINA RESULT:      -7.6      2.578      8.136
  Name = 
  5 active torsions:
  status: ('A' for Active; 'I' for Inactive)
    1  A    between atoms: C_3  and  C_13
    2  A    between atoms: C_3  and  O_17
    3  A    between atoms: O_17  and  C_29
    4  A    between atoms: N_23  and  C_27
    5  A    between atoms: N_23  and  C_28
                            x       y       z     vdW  Elec       q    Type
                         _______ _______ _______ _____ _____    ______ ____

>  <TORSDO>
F 5

$$$$
=
 OpenBabel11052418573D

 34 38  0  0  1  0  0  0  0  0999 V2000
  191.4390  171.6570  142.5760 C   0  0  0  0  0  0  0  0  0  0  0  0
  189.9380  172.4580  140.8250 C   0  0  0  0  0  0  0  0  0  0  0  0
  190.2630  173.7720  142.8490 C   0  0  0  0  0  0  0  0  0  0  0  0
  188.8840  175.8290  143.1830 N   0  0  0  0  0  0  0  0  0  0  0  0
  191.1650  170.3880  140.5300 C   0  0  0  0  0  3  0  0  0  0  0  0
  190.2470  171.3330  140.0560 C   0  0  0  0  0  3  0  0  0  0  0  0
  188.6300  174.5100  141.0810 C   0  0  0  0  0  3  0  0  0  0  0  0
  190.5590  172.6390  142.0750 C   0  0  0  0  0  0  0  0  0  0  0  0
  188.4470  177.4610  141.5620 O   0  0  0  0  0  0  0  0  0  0  0  0
  191.7530  170.5440  141.7900 C   0  0  0  0  0  3  0  0  0  0  0  0
  190.7520  173.8720  144.1590 C   0  0  0  0  0  0  0  0  0  0  0  0
  191.9690  171.7900  143.8620 C   0  0  0  0  0  3  0  0  0  0  0  0
  188.8680  173.3820  140.4000 C   0  0  0  0  0  3  0  0  0  0  0  0
  188.9270  175.5330  144.6190 C   0  0  0  0  0  2  0  0  0  0  0  0
  190.3020  174.9960  145.0420 C   0  0  2  0  0  3  0  0  0  0  0  0
  188.3530  177.0970  142.7670 C   0  0  0  0  0  0  0  0  0  0  0  0
  189.5350  174.9360  142.2100 C   0  0  2  0  0  3  0  0  0  0  0  0
  191.6130  172.8860  144.6580 C   0  0  0  0  0  3  0  0  0  0  0  0
  191.8120  176.7790  144.0380 C   0  0  0  0  0  0  0  0  0  0  0  0
  191.5080  177.9900  143.8760 O   0  0  0  0  0  0  0  0  0  0  0  0
  191.3040  176.0560  145.1730 N   0  0  0  0  0  0  0  0  0  0  0  0
  192.9350  175.9960  142.8850 S   0  0  0  0  0  1  0  0  0  0  0  0
  193.2650  176.3460  146.6290 C   0  0  0  0  0  1  0  0  0  0  0  0
  191.1320  175.4350  147.5430 C   0  0  0  0  0  1  0  0  0  0  0  0
  191.7510  176.3790  146.5260 C   0  0  0  0  0  3  0  0  0  0  0  0
  187.7470  177.9340  143.7070 O   0  0  0  0  0  0  0  0  0  0  0  0
  186.5900  178.6990  143.3970 C   0  0  0  0  0  2  0  0  0  0  0  0
  183.5820  178.9290  143.4990 C   0  0  0  0  0  1  0  0  0  0  0  0
  185.8280  179.0310  144.6710 C   0  0  1  0  0  3  0  0  0  0  0  0
  184.4090  178.4100  144.6640 C   0  0  1  0  0  3  0  0  0  0  0  0
  184.4920  178.2140  146.9310 C   0  0  0  0  0  2  0  0  0  0  0  0
  185.8730  178.8720  146.9430 C   0  0  0  0  0  2  0  0  0  0  0  0
  186.5610  178.5270  145.7650 O   0  0  0  0  0  0  0  0  0  0  0  0
  183.7380  178.7290  145.8610 O   0  0  0  0  0  0  0  0  0  0  0  0
  1 12  1  0  0  0  0
  2  8  1  0  0  0  0
  3 11  2  0  0  0  0
  4 14  1  0  0  0  0
  5 10  2  0  0  0  0
  6  5  1  0  0  0  0
  6  2  2  0  0  0  0
  8  1  2  0  0  0  0
  8  3  1  0  0  0  0
  9 16  2  0  0  0  0
 10  1  1  0  0  0  0
 11 18  1  0  0  0  0
 11 15  1  0  0  0  0
 12 18  2  0  0  0  0
 13  2  1  0  0  0  0
 13  7  2  0  0  0  0
 14 15  1  0  0  0  0
 15 21  1  6  0  0  0
 16  4  1  0  0  0  0
 16 26  1  0  0  0  0
 17  7  1  6  0  0  0
 17  3  1  0  0  0  0
 17  4  1  0  0  0  0
 19 21  1  0  0  0  0
 20 19  2  0  0  0  0
 21 25  1  0  0  0  0
 22 19  1  0  0  0  0
 25 23  1  0  0  0  0
 25 24  1  0  0  0  0
 27 26  1  0  0  0  0
 29 27  1  6  0  0  0
 29 33  1  0  0  0  0
 30 28  1  6  0  0  0
 30 29  1  0  0  0  0
 30 34  1  0  0  0  0
 31 32  1  0  0  0  0
 33 32  1  0  0  0  0
 34 31  1  0  0  0  0
M  END
>  <MODEL>
7

>  <REMARK>
 VINA RESULT:      -7.6      3.272      7.555
  Name = 
  5 active torsions:
  status: ('A' for Active; 'I' for Inactive)
    1  A    between atoms: C_3  and  C_13
    2  A    between atoms: C_3  and  O_17
    3  A    between atoms: O_17  and  C_29
    4  A    between atoms: N_23  and  C_27
    5  A    between atoms: N_23  and  C_28
                            x       y       z     vdW  Elec       q    Type
                         _______ _______ _______ _____ _____    ______ ____

>  <TORSDO>
F 5

$$$$
=
 OpenBabel11052418573D

 34 38  0  0  1  0  0  0  0  0999 V2000
  195.2300  173.8640  143.2960 C   0  0  0  0  0  0  0  0  0  0  0  0
  195.0330  174.8210  145.5340 C   0  0  0  0  0  0  0  0  0  0  0  0
  193.1180  174.8290  144.0310 C   0  0  0  0  0  0  0  0  0  0  0  0
  191.0340  176.0100  144.7420 N   0  0  0  0  0  0  0  0  0  0  0  0
  197.1120  173.7970  144.8210 C   0  0  0  0  0  3  0  0  0  0  0  0
  196.3610  174.4700  145.7920 C   0  0  0  0  0  3  0  0  0  0  0  0
  192.9820  175.9160  146.2970 C   0  0  0  0  0  3  0  0  0  0  0  0
  194.4540  174.4900  144.2940 C   0  0  0  0  0  0  0  0  0  0  0  0
  190.0400  175.8760  146.8570 O   0  0  0  0  0  0  0  0  0  0  0  0
  196.5520  173.5030  143.5730 C   0  0  0  0  0  3  0  0  0  0  0  0
  192.5920  174.6480  142.7440 C   0  0  0  0  0  0  0  0  0  0  0  0
  194.6810  173.6350  142.0310 C   0  0  0  0  0  3  0  0  0  0  0  0
  194.2810  175.6540  146.4920 C   0  0  0  0  0  3  0  0  0  0  0  0
  190.8240  176.3330  143.3270 C   0  0  0  0  0  2  0  0  0  0  0  0
  191.2220  175.1620  142.4170 C   0  0  2  0  0  3  0  0  0  0  0  0
  189.9690  176.2860  145.6660 C   0  0  0  0  0  0  0  0  0  0  0  0
  192.2220  175.2550  145.1740 C   0  0  2  0  0  3  0  0  0  0  0  0
  193.3710  174.0420  141.7500 C   0  0  0  0  0  3  0  0  0  0  0  0
  188.9730  174.2480  141.6610 C   0  0  0  0  0  0  0  0  0  0  0  0
  188.7700  173.5680  140.6210 O   0  0  0  0  0  0  0  0  0  0  0  0
  190.2080  174.1060  142.3840 N   0  0  0  0  0  0  0  0  0  0  0  0
  187.6830  175.3320  142.2630 S   0  0  0  0  0  1  0  0  0  0  0  0
  190.4170  171.6630  142.1830 C   0  0  0  0  0  1  0  0  0  0  0  0
  189.6110  172.6950  144.3040 C   0  0  0  0  0  1  0  0  0  0  0  0
  190.5180  172.8700  143.0980 C   0  0  0  0  0  3  0  0  0  0  0  0
  188.8460  176.9960  145.2340 O   0  0  0  0  0  0  0  0  0  0  0  0
  187.7000  177.1610  146.0570 C   0  0  0  0  0  2  0  0  0  0  0  0
  185.1610  178.2060  147.3110 C   0  0  0  0  0  1  0  0  0  0  0  0
  186.5550  177.7460  145.2440 C   0  0  1  0  0  3  0  0  0  0  0  0
  185.7660  178.8050  146.0530 C   0  0  1  0  0  3  0  0  0  0  0  0
  185.2940  179.9160  144.1210 C   0  0  0  0  0  2  0  0  0  0  0  0
  186.0310  178.8430  143.3180 C   0  0  0  0  0  2  0  0  0  0  0  0
  187.0970  178.3400  144.0860 O   0  0  0  0  0  0  0  0  0  0  0  0
  184.7210  179.3320  145.2660 O   0  0  0  0  0  0  0  0  0  0  0  0
  1 10  2  0  0  0  0
  1  8  1  0  0  0  0
  2  6  1  0  0  0  0
  2 13  1  0  0  0  0
  3  8  1  0  0  0  0
  3 17  1  0  0  0  0
  4 17  1  0  0  0  0
  4 16  1  0  0  0  0
  5  6  2  0  0  0  0
  7 13  2  0  0  0  0
  8  2  2  0  0  0  0
 10  5  1  0  0  0  0
 11  3  2  0  0  0  0
 12  1  1  0  0  0  0
 14  4  1  0  0  0  0
 15 21  1  1  0  0  0
 15 11  1  0  0  0  0
 15 14  1  0  0  0  0
 16  9  2  0  0  0  0
 17  7  1  1  0  0  0
 18 12  2  0  0  0  0
 18 11  1  0  0  0  0
 19 22  1  0  0  0  0
 19 21  1  0  0  0  0
 20 19  2  0  0  0  0
 21 25  1  0  0  0  0
 23 25  1  0  0  0  0
 25 24  1  0  0  0  0
 26 16  1  0  0  0  0
 26 27  1  0  0  0  0
 29 30  1  0  0  0  0
 29 27  1  1  0  0  0
 30 28  1  1  0  0  0
 31 34  1  0  0  0  0
 32 33  1  0  0  0  0
 32 31  1  0  0  0  0
 33 29  1  0  0  0  0
 34 30  1  0  0  0  0
M  END
>  <MODEL>
8

>  <REMARK>
 VINA RESULT:      -7.6      2.866      8.452
  Name = 
  5 active torsions:
  status: ('A' for Active; 'I' for Inactive)
    1  A    between atoms: C_3  and  C_13
    2  A    between atoms: C_3  and  O_17
    3  A    between atoms: O_17  and  C_29
    4  A    between atoms: N_23  and  C_27
    5  A    between atoms: N_23  and  C_28
                            x       y       z     vdW  Elec       q    Type
                         _______ _______ _______ _____ _____    ______ ____

>  <TORSDO>
F 5

$$$$
=
 OpenBabel11052418573D

 34 38  0  0  1  0  0  0  0  0999 V2000
  187.0230  178.1800  146.9400 C   0  0  0  0  0  0  0  0  0  0  0  0
  185.5100  177.5190  145.1400 C   0  0  0  0  0  0  0  0  0  0  0  0
  187.8770  176.9640  145.0100 C   0  0  0  0  0  0  0  0  0  0  0  0
  188.7510  175.9010  142.9240 N   0  0  0  0  0  0  0  0  0  0  0  0
  184.6550  178.6690  147.0960 C   0  0  0  0  0  3  0  0  0  0  0  0
  184.4410  178.0840  145.8420 C   0  0  0  0  0  3  0  0  0  0  0  0
  186.3150  176.4050  143.1170 C   0  0  0  0  0  3  0  0  0  0  0  0
  186.8000  177.5380  145.7040 C   0  0  0  0  0  0  0  0  0  0  0  0
  187.7340  174.1460  141.7540 O   0  0  0  0  0  0  0  0  0  0  0  0
  185.9430  178.7260  147.6400 C   0  0  0  0  0  3  0  0  0  0  0  0
  189.1840  177.1260  145.4910 C   0  0  0  0  0  0  0  0  0  0  0  0
  188.3230  178.2880  147.4420 C   0  0  0  0  0  3  0  0  0  0  0  0
  185.3220  177.0310  143.7600 C   0  0  0  0  0  3  0  0  0  0  0  0
  190.0030  176.6230  143.1710 C   0  0  0  0  0  2  0  0  0  0  0  0
  190.3460  176.6590  144.6680 C   0  0  2  0  0  3  0  0  0  0  0  0
  188.7350  174.9030  141.8910 C   0  0  0  0  0  0  0  0  0  0  0  0
  187.5990  176.0590  143.8280 C   0  0  2  0  0  3  0  0  0  0  0  0
  189.4020  177.7780  146.7110 C   0  0  0  0  0  3  0  0  0  0  0  0
  190.0970  174.3310  145.6590 C   0  0  0  0  0  0  0  0  0  0  0  0
  189.9650  173.2640  145.0030 O   0  0  0  0  0  0  0  0  0  0  0  0
  190.9140  175.3960  145.1450 N   0  0  0  0  0  0  0  0  0  0  0  0
  189.3170  174.4730  147.2640 S   0  0  0  0  0  1  0  0  0  0  0  0
  192.7980  173.8370  145.4100 C   0  0  0  0  0  1  0  0  0  0  0  0
  193.0780  176.2610  145.9230 C   0  0  0  0  0  1  0  0  0  0  0  0
  192.3640  175.2450  145.0470 C   0  0  0  0  0  3  0  0  0  0  0  0
  189.8400  174.7630  141.0490 O   0  0  0  0  0  0  0  0  0  0  0  0
  189.9450  173.6940  140.1180 C   0  0  0  0  0  2  0  0  0  0  0  0
  192.8690  174.0150  140.7960 C   0  0  0  0  0  1  0  0  0  0  0  0
  190.7860  172.5710  140.7070 C   0  0  1  0  0  3  0  0  0  0  0  0
  191.9320  173.1230  141.5920 C   0  0  1  0  0  3  0  0  0  0  0  0
  191.8140  171.2580  142.8930 C   0  0  0  0  0  2  0  0  0  0  0  0
  190.7170  170.6910  141.9900 C   0  0  0  0  0  2  0  0  0  0  0  0
  189.9430  171.7490  141.4810 O   0  0  0  0  0  0  0  0  0  0  0  0
  192.6830  172.0580  142.1280 O   0  0  0  0  0  0  0  0  0  0  0  0
  1 12  1  0  0  0  0
  1 10  2  0  0  0  0
  2  8  2  0  0  0  0
  2  6  1  0  0  0  0
  3 11  2  0  0  0  0
  3  8  1  0  0  0  0
  4 14  1  0  0  0  0
  4 17  1  0  0  0  0
  5 10  1  0  0  0  0
  6  5  2  0  0  0  0
  7 13  2  0  0  0  0
  8  1  1  0  0  0  0
  9 16  2  0  0  0  0
 11 18  1  0  0  0  0
 13  2  1  0  0  0  0
 14 15  1  0  0  0  0
 15 21  1  1  0  0  0
 15 11  1  0  0  0  0
 16  4  1  0  0  0  0
 17  7  1  6  0  0  0
 17  3  1  0  0  0  0
 18 12  2  0  0  0  0
 19 22  1  0  0  0  0
 20 19  2  0  0  0  0
 21 19  1  0  0  0  0
 25 21  1  0  0  0  0
 25 23  1  0  0  0  0
 25 24  1  0  0  0  0
 26 16  1  0  0  0  0
 27 26  1  0  0  0  0
 29 27  1  1  0  0  0
 29 33  1  0  0  0  0
 29 30  1  0  0  0  0
 30 28  1  6  0  0  0
 30 34  1  0  0  0  0
 32 31  1  0  0  0  0
 33 32  1  0  0  0  0
 34 31  1  0  0  0  0
M  END
>  <MODEL>
9

>  <REMARK>
 VINA RESULT:      -7.2      2.511      3.621
  Name = 
  5 active torsions:
  status: ('A' for Active; 'I' for Inactive)
    1  A    between atoms: C_3  and  C_13
    2  A    between atoms: C_3  and  O_17
    3  A    between atoms: O_17  and  C_29
    4  A    between atoms: N_23  and  C_27
    5  A    between atoms: N_23  and  C_28
                            x       y       z     vdW  Elec       q    Type
                         _______ _______ _______ _____ _____    ______ ____

>  <TORSDO>
F 5

$$$$
