=
 OpenBabel11052417323D

 25 28  0  0  1  0  0  0  0  0999 V2000
  187.2390  176.8250  143.9380 N   0  0  0  0  0  0  0  0  0  0  0  0
  187.9260  175.5850  144.3100 C   0  0  2  0  0  3  0  0  0  0  0  0
  187.9920  176.7710  141.6600 C   0  0  0  0  0  3  0  0  0  0  0  0
  186.1900  177.4390  144.6740 C   0  0  0  0  0  0  0  0  0  0  0  0
  184.0450  178.7560  145.8610 C   0  0  0  0  0  3  0  0  0  0  0  0
  188.9280  175.6930  142.0280 C   0  0  0  0  0  3  0  0  0  0  0  0
  185.4660  178.3760  143.9520 C   0  0  0  0  0  0  0  0  0  0  0  0
  184.3870  179.0440  144.5320 C   0  0  0  0  0  3  0  0  0  0  0  0
  189.9260  174.1540  143.6830 C   0  0  0  0  0  0  0  0  0  0  0  0
  190.9200  173.4010  142.6190 S   0  0  0  0  0  0  0  0  0  0  0  0
  188.5750  175.7210  145.6010 N   0  0  0  0  0  0  0  0  0  0  0  0
  184.7760  177.8040  146.5910 C   0  0  0  0  0  3  0  0  0  0  0  0
  187.2120  177.3060  142.5950 C   0  0  0  0  0  0  0  0  0  0  0  0
  186.0140  178.6040  142.2590 S   0  0  0  0  0  0  0  0  0  0  0  0
  189.9620  173.7580  145.1300 C   0  0  0  0  0  2  0  0  0  0  0  0
  185.8550  177.1350  145.9980 C   0  0  0  0  0  3  0  0  0  0  0  0
  189.4780  174.8890  146.0100 C   0  0  0  0  0  0  0  0  0  0  0  0
  188.9340  175.1610  143.2600 C   0  0  0  0  0  0  0  0  0  0  0  0
  190.0820  175.0600  147.3650 C   0  0  0  0  0  2  0  0  0  0  0  0
  191.3040  176.4080  147.3570 S   0  0  0  0  0  0  0  0  0  0  0  0
  192.6270  175.3250  146.7390 C   0  0  0  0  0  2  0  0  0  0  0  0
  192.9530  175.6800  145.3690 N   0  0  0  0  0  2  0  0  0  0  0  0
  192.5750  177.0170  145.1910 N   0  0  0  0  0  2  0  0  0  0  0  0
  192.0440  177.1330  143.8420 C   0  0  0  0  0  2  0  0  0  0  0  0
  190.9670  178.2000  143.8050 C   0  0  0  0  0  1  0  0  0  0  0  0
  1  2  1  0  0  0  0
  1  4  1  0  0  0  0
  2 18  1  6  0  0  0
  2 11  1  0  0  0  0
  3  6  1  0  0  0  0
  3 13  2  0  0  0  0
  4 16  1  0  0  0  0
  5 12  1  0  0  0  0
  6 18  2  0  0  0  0
  7  8  1  0  0  0  0
  7  4  2  0  0  0  0
  8  5  2  0  0  0  0
  9 15  1  0  0  0  0
 10  9  2  0  0  0  0
 11 17  2  0  0  0  0
 13  1  1  0  0  0  0
 14 13  1  0  0  0  0
 14  7  1  0  0  0  0
 15 17  1  0  0  0  0
 16 12  2  0  0  0  0
 17 19  1  0  0  0  0
 18  9  1  0  0  0  0
 20 19  1  0  0  0  0
 21 20  1  0  0  0  0
 22 21  1  0  0  0  0
 23 22  1  0  0  0  0
 24 23  1  0  0  0  0
 25 24  1  0  0  0  0
M  END
>  <MODEL>
1

>  <REMARK>
 VINA RESULT:      -6.4      0.000      0.000
  Name = 
  6 active torsions:
  status: ('A' for Active; 'I' for Inactive)
    1  A    between atoms: C_2  and  N_12
    2  A    between atoms: C_6  and  S_15
    3  A    between atoms: C_6  and  C_23
    4  A    between atoms: N_12  and  N_25
    5  A    between atoms: S_15  and  C_21
    6  A    between atoms: C_21  and  N_25
                            x       y       z     vdW  Elec       q    Type
                         _______ _______ _______ _____ _____    ______ ____

>  <TORSDO>
F 6

$$$$
=
 OpenBabel11052417323D

 25 28  0  0  1  0  0  0  0  0999 V2000
  187.0190  177.0870  143.6590 N   0  0  0  0  0  0  0  0  0  0  0  0
  187.4540  175.7590  143.2150 C   0  0  2  0  0  3  0  0  0  0  0  0
  186.5900  177.8880  141.4380 C   0  0  0  0  0  3  0  0  0  0  0  0
  186.6260  177.4250  144.9820 C   0  0  0  0  0  0  0  0  0  0  0  0
  185.6940  178.3000  147.4540 C   0  0  0  0  0  3  0  0  0  0  0  0
  187.2770  176.6950  140.9100 C   0  0  0  0  0  3  0  0  0  0  0  0
  185.9200  178.6150  145.0760 C   0  0  0  0  0  0  0  0  0  0  0  0
  185.4440  179.0670  146.3070 C   0  0  0  0  0  3  0  0  0  0  0  0
  188.4930  174.5690  141.2290 C   0  0  0  0  0  0  0  0  0  0  0  0
  188.6490  174.2350  139.6320 S   0  0  0  0  0  0  0  0  0  0  0  0
  188.6360  175.3340  143.9410 N   0  0  0  0  0  0  0  0  0  0  0  0
  186.4070  177.0940  147.3600 C   0  0  0  0  0  3  0  0  0  0  0  0
  186.4980  178.0590  142.7540 C   0  0  0  0  0  0  0  0  0  0  0  0
  185.6610  179.4570  143.5120 S   0  0  0  0  0  0  0  0  0  0  0  0
  189.0900  173.6330  142.2390 C   0  0  0  0  0  2  0  0  0  0  0  0
  186.8760  176.6460  146.1170 C   0  0  0  0  0  3  0  0  0  0  0  0
  189.3770  174.3520  143.5380 C   0  0  0  0  0  0  0  0  0  0  0  0
  187.7140  175.7210  141.7230 C   0  0  0  0  0  0  0  0  0  0  0  0
  190.5600  173.9360  144.3490 C   0  0  0  0  0  2  0  0  0  0  0  0
  190.4270  174.5720  146.0480 S   0  0  0  0  0  0  0  0  0  0  0  0
  191.9690  175.5230  145.9090 C   0  0  0  0  0  2  0  0  0  0  0  0
  191.7020  176.8030  145.2740 N   0  0  0  0  0  2  0  0  0  0  0  0
  192.5520  176.8950  144.1640 N   0  0  0  0  0  2  0  0  0  0  0  0
  191.7410  177.3390  143.0430 C   0  0  0  0  0  2  0  0  0  0  0  0
  190.5970  178.1980  143.5450 C   0  0  0  0  0  1  0  0  0  0  0  0
  1  4  1  0  0  0  0
  2 18  1  6  0  0  0
  2  1  1  0  0  0  0
  2 11  1  0  0  0  0
  3 13  2  0  0  0  0
  4  7  2  0  0  0  0
  4 16  1  0  0  0  0
  6  3  1  0  0  0  0
  6 18  2  0  0  0  0
  7  8  1  0  0  0  0
  8  5  2  0  0  0  0
  9 18  1  0  0  0  0
  9 15  1  0  0  0  0
 10  9  2  0  0  0  0
 12  5  1  0  0  0  0
 13 14  1  0  0  0  0
 13  1  1  0  0  0  0
 14  7  1  0  0  0  0
 15 17  1  0  0  0  0
 16 12  2  0  0  0  0
 17 11  2  0  0  0  0
 17 19  1  0  0  0  0
 19 20  1  0  0  0  0
 21 20  1  0  0  0  0
 22 21  1  0  0  0  0
 23 22  1  0  0  0  0
 24 25  1  0  0  0  0
 24 23  1  0  0  0  0
M  END
>  <MODEL>
2

>  <REMARK>
 VINA RESULT:      -6.3      1.534      1.981
  Name = 
  6 active torsions:
  status: ('A' for Active; 'I' for Inactive)
    1  A    between atoms: C_2  and  N_12
    2  A    between atoms: C_6  and  S_15
    3  A    between atoms: C_6  and  C_23
    4  A    between atoms: N_12  and  N_25
    5  A    between atoms: S_15  and  C_21
    6  A    between atoms: C_21  and  N_25
                            x       y       z     vdW  Elec       q    Type
                         _______ _______ _______ _____ _____    ______ ____

>  <TORSDO>
F 6

$$$$
=
 OpenBabel11052417323D

 25 28  0  0  1  0  0  0  0  0999 V2000
  189.0690  175.8480  144.1810 N   0  0  0  0  0  0  0  0  0  0  0  0
  188.5700  176.9400  143.3390 C   0  0  2  0  0  3  0  0  0  0  0  0
  188.9800  174.2130  142.4270 C   0  0  0  0  0  3  0  0  0  0  0  0
  189.7390  176.0070  145.4240 C   0  0  0  0  0  0  0  0  0  0  0  0
  191.1800  176.0600  147.8040 C   0  0  0  0  0  3  0  0  0  0  0  0
  188.2150  175.1740  141.6120 C   0  0  0  0  0  3  0  0  0  0  0  0
  190.4270  174.8780  145.8440 C   0  0  0  0  0  0  0  0  0  0  0  0
  191.1560  174.8890  147.0330 C   0  0  0  0  0  3  0  0  0  0  0  0
  187.1380  177.3740  141.2890 C   0  0  0  0  0  0  0  0  0  0  0  0
  186.6370  177.0810  139.7560 S   0  0  0  0  0  0  0  0  0  0  0  0
  187.5860  177.7330  144.0510 N   0  0  0  0  0  0  0  0  0  0  0  0
  190.4860  177.2040  147.3780 C   0  0  0  0  0  3  0  0  0  0  0  0
  189.3580  174.5530  143.6560 C   0  0  0  0  0  0  0  0  0  0  0  0
  190.3180  173.4760  144.7280 S   0  0  0  0  0  0  0  0  0  0  0  0
  186.7970  178.6840  141.9370 C   0  0  0  0  0  2  0  0  0  0  0  0
  189.7610  177.1840  146.1780 C   0  0  0  0  0  3  0  0  0  0  0  0
  186.7920  178.5550  143.4440 C   0  0  0  0  0  0  0  0  0  0  0  0
  187.9860  176.4260  142.0380 C   0  0  0  0  0  0  0  0  0  0  0  0
  185.8260  179.3730  144.2370 C   0  0  0  0  0  2  0  0  0  0  0  0
  184.1190  178.8220  143.9320 S   0  0  0  0  0  0  0  0  0  0  0  0
  183.6810  178.9080  145.6930 C   0  0  0  0  0  2  0  0  0  0  0  0
  184.4140  177.8940  146.4330 N   0  0  0  0  0  2  0  0  0  0  0  0
  184.9230  178.5130  147.5820 N   0  0  0  0  0  2  0  0  0  0  0  0
  186.3210  178.1270  147.6890 C   0  0  0  0  0  2  0  0  0  0  0  0
  186.4820  176.6690  147.3020 C   0  0  0  0  0  1  0  0  0  0  0  0
  1  4  1  0  0  0  0
  2 18  1  6  0  0  0
  2 11  1  0  0  0  0
  2  1  1  0  0  0  0
  3 13  2  0  0  0  0
  4  7  2  0  0  0  0
  4 16  1  0  0  0  0
  6 18  2  0  0  0  0
  6  3  1  0  0  0  0
  7  8  1  0  0  0  0
  8  5  2  0  0  0  0
  9 15  1  0  0  0  0
  9 18  1  0  0  0  0
 10  9  2  0  0  0  0
 12  5  1  0  0  0  0
 13  1  1  0  0  0  0
 13 14  1  0  0  0  0
 14  7  1  0  0  0  0
 15 17  1  0  0  0  0
 16 12  2  0  0  0  0
 17 11  2  0  0  0  0
 17 19  1  0  0  0  0
 20 19  1  0  0  0  0
 20 21  1  0  0  0  0
 21 22  1  0  0  0  0
 22 23  1  0  0  0  0
 23 24  1  0  0  0  0
 25 24  1  0  0  0  0
M  END
>  <MODEL>
3

>  <REMARK>
 VINA RESULT:      -6.2      2.046      6.007
  Name = 
  6 active torsions:
  status: ('A' for Active; 'I' for Inactive)
    1  A    between atoms: C_2  and  N_12
    2  A    between atoms: C_6  and  S_15
    3  A    between atoms: C_6  and  C_23
    4  A    between atoms: N_12  and  N_25
    5  A    between atoms: S_15  and  C_21
    6  A    between atoms: C_21  and  N_25
                            x       y       z     vdW  Elec       q    Type
                         _______ _______ _______ _____ _____    ______ ____

>  <TORSDO>
F 6

$$$$
=
 OpenBabel11052417323D

 25 28  0  0  1  0  0  0  0  0999 V2000
  187.1170  176.8950  143.8900 N   0  0  0  0  0  0  0  0  0  0  0  0
  187.8550  175.6320  143.7910 C   0  0  2  0  0  3  0  0  0  0  0  0
  186.9770  177.2070  141.5150 C   0  0  0  0  0  3  0  0  0  0  0  0
  186.4310  177.3600  145.0430 C   0  0  0  0  0  0  0  0  0  0  0  0
  184.9140  178.4210  147.1210 C   0  0  0  0  0  3  0  0  0  0  0  0
  187.9500  176.1130  141.3450 C   0  0  0  0  0  3  0  0  0  0  0  0
  185.5210  178.3750  144.7900 C   0  0  0  0  0  0  0  0  0  0  0  0
  184.7500  178.9160  145.8200 C   0  0  0  0  0  3  0  0  0  0  0  0
  189.4410  174.3710  142.2630 C   0  0  0  0  0  0  0  0  0  0  0  0
  189.9500  173.8150  140.8070 S   0  0  0  0  0  0  0  0  0  0  0  0
  188.9380  175.5900  144.7560 N   0  0  0  0  0  0  0  0  0  0  0  0
  185.8340  177.3910  147.3780 C   0  0  0  0  0  3  0  0  0  0  0  0
  186.6120  177.5720  142.7400 C   0  0  0  0  0  0  0  0  0  0  0  0
  185.4130  178.8710  143.0690 S   0  0  0  0  0  0  0  0  0  0  0  0
  189.9950  173.7610  143.5180 C   0  0  0  0  0  2  0  0  0  0  0  0
  186.5980  176.8500  146.3350 C   0  0  0  0  0  3  0  0  0  0  0  0
  189.9030  174.7310  144.6740 C   0  0  0  0  0  0  0  0  0  0  0  0
  188.3930  175.4010  142.3930 C   0  0  0  0  0  0  0  0  0  0  0  0
  190.9680  174.7120  145.7210 C   0  0  0  0  0  2  0  0  0  0  0  0
  190.3160  175.3160  147.3090 S   0  0  0  0  0  0  0  0  0  0  0  0
  191.7330  176.4240  147.5710 C   0  0  0  0  0  2  0  0  0  0  0  0
  192.5490  176.4710  146.3700 N   0  0  0  0  0  2  0  0  0  0  0  0
  193.8400  176.8460  146.7670 N   0  0  0  0  0  2  0  0  0  0  0  0
  194.7500  176.4150  145.7180 C   0  0  0  0  0  2  0  0  0  0  0  0
  195.1190  174.9590  145.9240 C   0  0  0  0  0  1  0  0  0  0  0  0
  1  4  1  0  0  0  0
  2 18  1  6  0  0  0
  2  1  1  0  0  0  0
  2 11  1  0  0  0  0
  3 13  2  0  0  0  0
  4 16  1  0  0  0  0
  5 12  1  0  0  0  0
  6  3  1  0  0  0  0
  6 18  2  0  0  0  0
  7  4  2  0  0  0  0
  7  8  1  0  0  0  0
  8  5  2  0  0  0  0
  9 18  1  0  0  0  0
  9 15  1  0  0  0  0
 10  9  2  0  0  0  0
 13 14  1  0  0  0  0
 13  1  1  0  0  0  0
 14  7  1  0  0  0  0
 15 17  1  0  0  0  0
 16 12  2  0  0  0  0
 17 11  2  0  0  0  0
 17 19  1  0  0  0  0
 19 20  1  0  0  0  0
 20 21  1  0  0  0  0
 22 23  1  0  0  0  0
 22 21  1  0  0  0  0
 24 25  1  0  0  0  0
 24 23  1  0  0  0  0
M  END
>  <MODEL>
4

>  <REMARK>
 VINA RESULT:      -6.1      1.465      1.830
  Name = 
  6 active torsions:
  status: ('A' for Active; 'I' for Inactive)
    1  A    between atoms: C_2  and  N_12
    2  A    between atoms: C_6  and  S_15
    3  A    between atoms: C_6  and  C_23
    4  A    between atoms: N_12  and  N_25
    5  A    between atoms: S_15  and  C_21
    6  A    between atoms: C_21  and  N_25
                            x       y       z     vdW  Elec       q    Type
                         _______ _______ _______ _____ _____    ______ ____

>  <TORSDO>
F 6

$$$$
=
 OpenBabel11052417323D

 25 28  0  0  1  0  0  0  0  0999 V2000
  187.7880  177.5880  145.2730 N   0  0  0  0  0  0  0  0  0  0  0  0
  188.9670  177.4920  144.4070 C   0  0  2  0  0  3  0  0  0  0  0  0
  189.0570  177.5390  147.3100 C   0  0  0  0  0  3  0  0  0  0  0  0
  186.4960  178.0100  144.8610 C   0  0  0  0  0  0  0  0  0  0  0  0
  183.9210  178.9230  144.3310 C   0  0  0  0  0  3  0  0  0  0  0  0
  190.2440  177.1560  146.5240 C   0  0  0  0  0  3  0  0  0  0  0  0
  185.6570  178.3660  145.9070 C   0  0  0  0  0  0  0  0  0  0  0  0
  184.3640  178.8280  145.6580 C   0  0  0  0  0  3  0  0  0  0  0  0
  191.3490  176.6160  144.3820 C   0  0  0  0  0  0  0  0  0  0  0  0
  192.8390  176.3880  145.0260 S   0  0  0  0  0  0  0  0  0  0  0  0
  188.7360  176.5570  143.3220 N   0  0  0  0  0  0  0  0  0  0  0  0
  184.7710  178.5650  143.2720 C   0  0  0  0  0  3  0  0  0  0  0  0
  187.8940  177.7200  146.6900 C   0  0  0  0  0  0  0  0  0  0  0  0
  186.3880  178.2150  147.5390 S   0  0  0  0  0  0  0  0  0  0  0  0
  191.1450  176.4120  142.9090 C   0  0  0  0  0  2  0  0  0  0  0  0
  186.0700  178.1080  143.5330 C   0  0  0  0  0  3  0  0  0  0  0  0
  189.7020  176.0770  142.6060 C   0  0  0  0  0  0  0  0  0  0  0  0
  190.2070  177.0940  145.1840 C   0  0  0  0  0  0  0  0  0  0  0  0
  189.3960  175.1490  141.4770 C   0  0  0  0  0  2  0  0  0  0  0  0
  188.0840  173.9800  141.9470 S   0  0  0  0  0  0  0  0  0  0  0  0
  188.9640  172.5630  141.2250 C   0  0  0  0  0  2  0  0  0  0  0  0
  189.8620  171.9870  142.2120 N   0  0  0  0  0  2  0  0  0  0  0  0
  189.1860  172.0050  143.4400 N   0  0  0  0  0  2  0  0  0  0  0  0
  190.1860  172.2250  144.4720 C   0  0  0  0  0  2  0  0  0  0  0  0
  189.8020  173.4300  145.3090 C   0  0  0  0  0  1  0  0  0  0  0  0
  1 13  1  0  0  0  0
  2 11  1  6  0  0  0
  2 18  1  0  0  0  0
  2  1  1  0  0  0  0
  4  1  1  0  0  0  0
  4  7  1  0  0  0  0
  5  8  1  0  0  0  0
  6  3  1  0  0  0  0
  7 14  1  0  0  0  0
  8  7  2  0  0  0  0
  9 10  2  0  0  0  0
  9 18  1  0  0  0  0
 12 16  1  0  0  0  0
 12  5  2  0  0  0  0
 13  3  2  0  0  0  0
 13 14  1  0  0  0  0
 15  9  1  0  0  0  0
 16  4  2  0  0  0  0
 17 15  1  0  0  0  0
 17 11  2  0  0  0  0
 18  6  2  0  0  0  0
 19 20  1  0  0  0  0
 19 17  1  0  0  0  0
 21 20  1  0  0  0  0
 21 22  1  0  0  0  0
 22 23  1  0  0  0  0
 23 24  1  0  0  0  0
 24 25  1  0  0  0  0
M  END
>  <MODEL>
5

>  <REMARK>
 VINA RESULT:      -6.0      2.390      4.313
  Name = 
  6 active torsions:
  status: ('A' for Active; 'I' for Inactive)
    1  A    between atoms: C_2  and  N_12
    2  A    between atoms: C_6  and  S_15
    3  A    between atoms: C_6  and  C_23
    4  A    between atoms: N_12  and  N_25
    5  A    between atoms: S_15  and  C_21
    6  A    between atoms: C_21  and  N_25
                            x       y       z     vdW  Elec       q    Type
                         _______ _______ _______ _____ _____    ______ ____

>  <TORSDO>
F 6

$$$$
=
 OpenBabel11052417323D

 25 28  0  0  1  0  0  0  0  0999 V2000
  187.1160  177.0100  144.1010 N   0  0  0  0  0  0  0  0  0  0  0  0
  188.1760  176.0110  144.2690 C   0  0  2  0  0  3  0  0  0  0  0  0
  187.0000  176.7510  141.7190 C   0  0  0  0  0  3  0  0  0  0  0  0
  186.2790  177.5040  145.1370 C   0  0  0  0  0  0  0  0  0  0  0  0
  184.4400  178.5260  146.9590 C   0  0  0  0  0  3  0  0  0  0  0  0
  188.2420  175.9590  141.7760 C   0  0  0  0  0  3  0  0  0  0  0  0
  185.1380  178.1480  144.6840 C   0  0  0  0  0  0  0  0  0  0  0  0
  184.2040  178.6640  145.5830 C   0  0  0  0  0  3  0  0  0  0  0  0
  190.1110  174.9380  143.0260 C   0  0  0  0  0  0  0  0  0  0  0  0
  190.8160  174.2450  141.7190 S   0  0  0  0  0  0  0  0  0  0  0  0
  189.1850  176.4790  145.2000 N   0  0  0  0  0  0  0  0  0  0  0  0
  185.5950  177.8720  147.4190 C   0  0  0  0  0  3  0  0  0  0  0  0
  186.4950  177.2570  142.8410 C   0  0  0  0  0  0  0  0  0  0  0  0
  184.9740  178.2120  142.8980 S   0  0  0  0  0  0  0  0  0  0  0  0
  190.7560  174.7920  144.3740 C   0  0  0  0  0  2  0  0  0  0  0  0
  186.5230  177.3520  146.5060 C   0  0  0  0  0  3  0  0  0  0  0  0
  190.3510  175.9240  145.2910 C   0  0  0  0  0  0  0  0  0  0  0  0
  188.8160  175.6410  142.9460 C   0  0  0  0  0  0  0  0  0  0  0  0
  191.3330  176.4260  146.2970 C   0  0  0  0  0  2  0  0  0  0  0  0
  192.6950  175.2390  146.5110 S   0  0  0  0  0  0  0  0  0  0  0  0
  193.9660  176.5090  146.2360 C   0  0  0  0  0  2  0  0  0  0  0  0
  194.6040  176.2940  144.9490 N   0  0  0  0  0  2  0  0  0  0  0  0
  195.3600  175.1190  145.0570 N   0  0  0  0  0  2  0  0  0  0  0  0
  196.5460  175.2990  144.2360 C   0  0  0  0  0  2  0  0  0  0  0  0
  196.4730  176.6300  143.5120 C   0  0  0  0  0  1  0  0  0  0  0  0
  1  2  1  0  0  0  0
  1  4  1  0  0  0  0
  2 18  1  6  0  0  0
  2 11  1  0  0  0  0
  3  6  1  0  0  0  0
  3 13  2  0  0  0  0
  4 16  1  0  0  0  0
  5 12  1  0  0  0  0
  6 18  2  0  0  0  0
  7  4  2  0  0  0  0
  7  8  1  0  0  0  0
  8  5  2  0  0  0  0
  9 15  1  0  0  0  0
 10  9  2  0  0  0  0
 11 17  2  0  0  0  0
 13 14  1  0  0  0  0
 13  1  1  0  0  0  0
 14  7  1  0  0  0  0
 15 17  1  0  0  0  0
 16 12  2  0  0  0  0
 17 19  1  0  0  0  0
 18  9  1  0  0  0  0
 19 20  1  0  0  0  0
 21 20  1  0  0  0  0
 22 23  1  0  0  0  0
 22 21  1  0  0  0  0
 24 23  1  0  0  0  0
 25 24  1  0  0  0  0
M  END
>  <MODEL>
6

>  <REMARK>
 VINA RESULT:      -5.9      1.763      2.019
  Name = 
  6 active torsions:
  status: ('A' for Active; 'I' for Inactive)
    1  A    between atoms: C_2  and  N_12
    2  A    between atoms: C_6  and  S_15
    3  A    between atoms: C_6  and  C_23
    4  A    between atoms: N_12  and  N_25
    5  A    between atoms: S_15  and  C_21
    6  A    between atoms: C_21  and  N_25
                            x       y       z     vdW  Elec       q    Type
                         _______ _______ _______ _____ _____    ______ ____

>  <TORSDO>
F 6

$$$$
=
 OpenBabel11052417323D

 25 28  0  0  1  0  0  0  0  0999 V2000
  187.3630  177.3750  144.4310 N   0  0  0  0  0  0  0  0  0  0  0  0
  188.8290  177.4070  144.4010 C   0  0  2  0  0  3  0  0  0  0  0  0
  187.2300  177.4580  146.8250 C   0  0  0  0  0  3  0  0  0  0  0  0
  186.5110  177.6580  143.3300 C   0  0  0  0  0  0  0  0  0  0  0  0
  184.6390  178.2910  141.3710 C   0  0  0  0  0  3  0  0  0  0  0  0
  188.6820  177.2060  146.8830 C   0  0  0  0  0  3  0  0  0  0  0  0
  185.1960  177.9200  143.6860 C   0  0  0  0  0  0  0  0  0  0  0  0
  184.2460  178.2410  142.7160 C   0  0  0  0  0  3  0  0  0  0  0  0
  190.8590  176.7910  145.7940 C   0  0  0  0  0  0  0  0  0  0  0  0
  191.7220  176.7220  147.1850 S   0  0  0  0  0  0  0  0  0  0  0  0
  189.3470  176.4550  143.4360 N   0  0  0  0  0  0  0  0  0  0  0  0
  185.9710  178.0280  141.0100 C   0  0  0  0  0  3  0  0  0  0  0  0
  186.6240  177.5150  145.6430 C   0  0  0  0  0  0  0  0  0  0  0  0
  184.8670  177.8440  145.4480 S   0  0  0  0  0  0  0  0  0  0  0  0
  191.5570  176.5690  144.4830 C   0  0  0  0  0  2  0  0  0  0  0  0
  186.9190  177.7120  141.9930 C   0  0  0  0  0  3  0  0  0  0  0  0
  190.5860  176.0830  143.4310 C   0  0  0  0  0  0  0  0  0  0  0  0
  189.4260  177.1430  145.7690 C   0  0  0  0  0  0  0  0  0  0  0  0
  191.0680  175.1290  142.3880 C   0  0  0  0  0  2  0  0  0  0  0  0
  189.6710  174.2240  141.6530 S   0  0  0  0  0  0  0  0  0  0  0  0
  190.5450  172.6330  141.7310 C   0  0  0  0  0  2  0  0  0  0  0  0
  189.6910  171.6330  142.3520 N   0  0  0  0  0  2  0  0  0  0  0  0
  188.9750  172.2810  143.3670 N   0  0  0  0  0  2  0  0  0  0  0  0
  189.6930  172.0490  144.6090 C   0  0  0  0  0  2  0  0  0  0  0  0
  189.6910  173.3130  145.4470 C   0  0  0  0  0  1  0  0  0  0  0  0
  1 13  1  0  0  0  0
  2 11  1  6  0  0  0
  2  1  1  0  0  0  0
  2 18  1  0  0  0  0
  3  6  1  0  0  0  0
  4  7  1  0  0  0  0
  4  1  1  0  0  0  0
  5  8  1  0  0  0  0
  7 14  1  0  0  0  0
  8  7  2  0  0  0  0
  9 10  2  0  0  0  0
 12  5  2  0  0  0  0
 12 16  1  0  0  0  0
 13  3  2  0  0  0  0
 14 13  1  0  0  0  0
 15  9  1  0  0  0  0
 16  4  2  0  0  0  0
 17 11  2  0  0  0  0
 17 15  1  0  0  0  0
 18  9  1  0  0  0  0
 18  6  2  0  0  0  0
 19 17  1  0  0  0  0
 20 21  1  0  0  0  0
 20 19  1  0  0  0  0
 21 22  1  0  0  0  0
 22 23  1  0  0  0  0
 23 24  1  0  0  0  0
 24 25  1  0  0  0  0
M  END
>  <MODEL>
7

>  <REMARK>
 VINA RESULT:      -5.9      2.253      4.363
  Name = 
  6 active torsions:
  status: ('A' for Active; 'I' for Inactive)
    1  A    between atoms: C_2  and  N_12
    2  A    between atoms: C_6  and  S_15
    3  A    between atoms: C_6  and  C_23
    4  A    between atoms: N_12  and  N_25
    5  A    between atoms: S_15  and  C_21
    6  A    between atoms: C_21  and  N_25
                            x       y       z     vdW  Elec       q    Type
                         _______ _______ _______ _____ _____    ______ ____

>  <TORSDO>
F 6

$$$$
=
 OpenBabel11052417323D

 25 28  0  0  1  0  0  0  0  0999 V2000
  186.9480  177.4990  144.6920 N   0  0  0  0  0  0  0  0  0  0  0  0
  188.4100  177.4010  144.7410 C   0  0  2  0  0  3  0  0  0  0  0  0
  186.7130  177.8660  147.0520 C   0  0  0  0  0  3  0  0  0  0  0  0
  186.1760  177.7260  143.5210 C   0  0  0  0  0  0  0  0  0  0  0  0
  184.4620  178.2890  141.4020 C   0  0  0  0  0  3  0  0  0  0  0  0
  188.1310  177.4990  147.2180 C   0  0  0  0  0  3  0  0  0  0  0  0
  184.8760  178.1390  143.7710 C   0  0  0  0  0  0  0  0  0  0  0  0
  184.0050  178.4280  142.7200 C   0  0  0  0  0  3  0  0  0  0  0  0
  190.3090  176.7760  146.3040 C   0  0  0  0  0  0  0  0  0  0  0  0
  191.0970  176.7930  147.7410 S   0  0  0  0  0  0  0  0  0  0  0  0
  188.8820  176.3030  143.9170 N   0  0  0  0  0  0  0  0  0  0  0  0
  185.7800  177.8720  141.1480 C   0  0  0  0  0  3  0  0  0  0  0  0
  186.1690  177.8390  145.8380 C   0  0  0  0  0  0  0  0  0  0  0  0
  184.4620  178.2940  145.5100 S   0  0  0  0  0  0  0  0  0  0  0  0
  191.0430  176.3460  145.0680 C   0  0  0  0  0  2  0  0  0  0  0  0
  186.6480  177.5910  142.2110 C   0  0  0  0  0  3  0  0  0  0  0  0
  190.0810  175.8280  144.0220 C   0  0  0  0  0  0  0  0  0  0  0  0
  188.9170  177.2440  146.1610 C   0  0  0  0  0  0  0  0  0  0  0  0
  190.5210  174.7230  143.1190 C   0  0  0  0  0  2  0  0  0  0  0  0
  189.7080  173.1600  143.5750 S   0  0  0  0  0  0  0  0  0  0  0  0
  189.0880  172.8860  141.8890 C   0  0  0  0  0  2  0  0  0  0  0  0
  187.9420  173.7440  141.6400 N   0  0  0  0  0  2  0  0  0  0  0  0
  188.2970  174.6080  140.5950 N   0  0  0  0  0  2  0  0  0  0  0  0
  188.9350  173.7960  139.5710 C   0  0  0  0  0  2  0  0  0  0  0  0
  188.1920  173.9500  138.2580 C   0  0  0  0  0  1  0  0  0  0  0  0
  1  2  1  0  0  0  0
  1 13  1  0  0  0  0
  2 11  1  6  0  0  0
  2 18  1  0  0  0  0
  3  6  1  0  0  0  0
  4  7  1  0  0  0  0
  4  1  1  0  0  0  0
  5  8  1  0  0  0  0
  7 14  1  0  0  0  0
  8  7  2  0  0  0  0
  9 10  2  0  0  0  0
 11 17  2  0  0  0  0
 12  5  2  0  0  0  0
 12 16  1  0  0  0  0
 13  3  2  0  0  0  0
 14 13  1  0  0  0  0
 15  9  1  0  0  0  0
 16  4  2  0  0  0  0
 17 15  1  0  0  0  0
 18  9  1  0  0  0  0
 18  6  2  0  0  0  0
 19 20  1  0  0  0  0
 19 17  1  0  0  0  0
 21 20  1  0  0  0  0
 22 21  1  0  0  0  0
 23 22  1  0  0  0  0
 24 23  1  0  0  0  0
 25 24  1  0  0  0  0
M  END
>  <MODEL>
8

>  <REMARK>
 VINA RESULT:      -5.8      2.307      4.545
  Name = 
  6 active torsions:
  status: ('A' for Active; 'I' for Inactive)
    1  A    between atoms: C_2  and  N_12
    2  A    between atoms: C_6  and  S_15
    3  A    between atoms: C_6  and  C_23
    4  A    between atoms: N_12  and  N_25
    5  A    between atoms: S_15  and  C_21
    6  A    between atoms: C_21  and  N_25
                            x       y       z     vdW  Elec       q    Type
                         _______ _______ _______ _____ _____    ______ ____

>  <TORSDO>
F 6

$$$$
=
 OpenBabel11052417323D

 25 28  0  0  1  0  0  0  0  0999 V2000
  187.6560  176.6460  145.1770 N   0  0  0  0  0  0  0  0  0  0  0  0
  188.7970  176.2860  144.3300 C   0  0  2  0  0  3  0  0  0  0  0  0
  188.5180  175.5390  147.1230 C   0  0  0  0  0  3  0  0  0  0  0  0
  186.7100  177.6680  144.8940 C   0  0  0  0  0  0  0  0  0  0  0  0
  184.8170  179.6910  144.6280 C   0  0  0  0  0  3  0  0  0  0  0  0
  189.5410  174.9060  146.2710 C   0  0  0  0  0  3  0  0  0  0  0  0
  185.9580  178.0630  145.9900 C   0  0  0  0  0  0  0  0  0  0  0  0
  185.0070  179.0770  145.8740 C   0  0  0  0  0  3  0  0  0  0  0  0
  190.6030  174.5210  144.0740 C   0  0  0  0  0  0  0  0  0  0  0  0
  191.7750  173.5240  144.6370 S   0  0  0  0  0  0  0  0  0  0  0  0
  188.3520  175.8540  143.0190 N   0  0  0  0  0  0  0  0  0  0  0  0
  185.5800  179.2930  143.5180 C   0  0  0  0  0  3  0  0  0  0  0  0
  187.6200  176.3500  146.5720 C   0  0  0  0  0  0  0  0  0  0  0  0
  186.3460  177.1990  147.5140 S   0  0  0  0  0  0  0  0  0  0  0  0
  190.5280  174.8120  142.6030 C   0  0  0  0  0  2  0  0  0  0  0  0
  186.5380  178.2780  143.6460 C   0  0  0  0  0  3  0  0  0  0  0  0
  189.1260  175.2130  142.2040 C   0  0  0  0  0  0  0  0  0  0  0  0
  189.6570  175.2140  144.9700 C   0  0  0  0  0  0  0  0  0  0  0  0
  188.6210  174.8290  140.8510 C   0  0  0  0  0  2  0  0  0  0  0  0
  189.2420  173.1860  140.3790 S   0  0  0  0  0  0  0  0  0  0  0  0
  188.5480  173.3070  138.7030 C   0  0  0  0  0  2  0  0  0  0  0  0
  189.1420  172.2910  137.8510 N   0  0  0  0  0  2  0  0  0  0  0  0
  189.3190  171.1460  138.6400 N   0  0  0  0  0  2  0  0  0  0  0  0
  189.7200  170.0720  137.7470 C   0  0  0  0  0  2  0  0  0  0  0  0
  190.0880  170.6410  136.3910 C   0  0  0  0  0  1  0  0  0  0  0  0
  1 13  1  0  0  0  0
  2 11  1  6  0  0  0
  2 18  1  0  0  0  0
  2  1  1  0  0  0  0
  4  1  1  0  0  0  0
  4  7  1  0  0  0  0
  5  8  1  0  0  0  0
  6  3  1  0  0  0  0
  7 14  1  0  0  0  0
  8  7  2  0  0  0  0
  9 10  2  0  0  0  0
  9 18  1  0  0  0  0
 12 16  1  0  0  0  0
 12  5  2  0  0  0  0
 13  3  2  0  0  0  0
 13 14  1  0  0  0  0
 15  9  1  0  0  0  0
 16  4  2  0  0  0  0
 17 15  1  0  0  0  0
 17 11  2  0  0  0  0
 18  6  2  0  0  0  0
 19 17  1  0  0  0  0
 20 19  1  0  0  0  0
 21 20  1  0  0  0  0
 22 23  1  0  0  0  0
 22 21  1  0  0  0  0
 24 23  1  0  0  0  0
 25 24  1  0  0  0  0
M  END
>  <MODEL>
9

>  <REMARK>
 VINA RESULT:      -5.7      3.546      5.430
  Name = 
  6 active torsions:
  status: ('A' for Active; 'I' for Inactive)
    1  A    between atoms: C_2  and  N_12
    2  A    between atoms: C_6  and  S_15
    3  A    between atoms: C_6  and  C_23
    4  A    between atoms: N_12  and  N_25
    5  A    between atoms: S_15  and  C_21
    6  A    between atoms: C_21  and  N_25
                            x       y       z     vdW  Elec       q    Type
                         _______ _______ _______ _____ _____    ______ ____

>  <TORSDO>
F 6

$$$$
