=
 OpenBabel11052418053D

 28 30  0  0  1  0  0  0  0  0999 V2000
  190.0960  175.4150  144.7900 C   0  0  1  0  0  3  0  0  0  0  0  0
  189.1210  172.7620  142.4740 O   0  0  0  0  0  0  0  0  0  0  0  0
  189.6370  174.7540  143.5730 N   0  0  0  0  0  0  0  0  0  0  0  0
  189.4900  173.3300  143.5350 C   0  0  0  0  0  0  0  0  0  0  0  0
  189.4030  175.4820  142.4540 O   0  0  0  0  0  1  0  0  0  0  0  0
  189.7550  172.5450  144.6940 N   0  0  0  0  0  1  0  0  0  0  0  0
  191.5960  175.7220  144.7140 C   0  0  2  0  0  3  0  0  0  0  0  0
  192.3140  175.2980  146.0010 C   0  0  2  0  0  3  0  0  0  0  0  0
  194.6960  174.9270  145.9870 N   0  0  0  0  0  0  0  0  0  0  0  0
  193.0360  176.5010  146.6310 C   0  0  0  0  0  3  0  0  0  0  0  0
  193.2830  173.1970  145.2690 O   0  0  0  0  0  0  0  0  0  0  0  0
  193.4330  174.3700  145.7040 C   0  0  0  0  0  0  0  0  0  0  0  0
  195.9720  174.2910  145.7170 C   0  0  0  0  0  1  0  0  0  0  0  0
  194.5490  176.2710  146.4980 C   0  0  0  0  0  3  0  0  0  0  0  0
  191.8020  177.0840  144.4600 O   0  0  0  0  0  0  0  0  0  0  0  0
  192.2480  177.1280  143.2230 O   0  0  0  0  0  1  0  0  0  0  0  0
  189.2560  176.6610  145.0980 C   0  0  0  0  0  2  0  0  0  0  0  0
  186.2170  176.4400  143.4610 C   0  0  0  0  0  2  0  0  0  0  0  0
  185.8220  177.6490  145.6000 C   0  0  0  0  0  0  0  0  0  0  0  0
  187.7890  176.3380  145.3820 C   0  0  2  0  0  3  0  0  0  0  0  0
  184.2600  177.9490  142.9510 C   0  0  1  0  0  3  0  0  0  0  0  0
  186.8460  177.2370  144.5970 C   0  0  1  0  0  3  0  0  0  0  0  0
  186.0810  177.1230  146.9600 C   0  0  0  0  0  2  0  0  0  0  0  0
  184.5250  179.0390  143.9830 C   0  0  0  0  0  2  0  0  0  0  0  0
  184.7850  178.4550  145.3400 C   0  0  0  0  0  3  0  0  0  0  0  0
  183.5580  178.4980  141.8800 O   0  0  0  0  0  1  0  0  0  0  0  0
  185.5690  177.3620  142.4370 C   0  0  0  0  0  2  0  0  0  0  0  0
  187.4450  176.4630  146.8660 C   0  0  0  0  0  2  0  0  0  0  0  0
  1 17  1  6  0  0  0
  2  4  2  0  0  0  0
  3  1  1  0  0  0  0
  4  3  1  0  0  0  0
  4  6  1  0  0  0  0
  5  3  1  0  0  0  0
  7 15  1  1  0  0  0
  7  1  1  0  0  0  0
  8  7  1  6  0  0  0
  8 10  1  0  0  0  0
  9 14  1  0  0  0  0
 11 12  2  0  0  0  0
 12  9  1  0  0  0  0
 12  8  1  0  0  0  0
 13  9  1  0  0  0  0
 14 10  2  0  0  0  0
 16 15  1  0  0  0  0
 19 23  1  0  0  0  0
 20 17  1  1  0  0  0
 20 28  1  0  0  0  0
 21 26  1  6  0  0  0
 21 24  1  0  0  0  0
 22 18  1  6  0  0  0
 22 20  1  0  0  0  0
 22 19  1  0  0  0  0
 24 25  1  0  0  0  0
 25 19  2  0  0  0  0
 27 21  1  0  0  0  0
 27 18  1  0  0  0  0
 28 23  1  0  0  0  0
M  END
>  <MODEL>
1

>  <REMARK>
 VINA RESULT:      -7.3      0.000      0.000
  Name = 
  6 active torsions:
  status: ('A' for Active; 'I' for Inactive)
    1  A    between atoms: O_1  and  C_2
    2  A    between atoms: C_2  and  C_3
    3  A    between atoms: C_2  and  C_27
    4  A    between atoms: C_10  and  C_17
    5  A    between atoms: N_16  and  C_27
    6  A    between atoms: C_17  and  C_27
                            x       y       z     vdW  Elec       q    Type
                         _______ _______ _______ _____ _____    ______ ____

>  <TORSDO>
F 6

$$$$
=
 OpenBabel11052418053D

 28 30  0  0  1  0  0  0  0  0999 V2000
  189.4570  175.9570  144.5990 C   0  0  1  0  0  3  0  0  0  0  0  0
  191.3960  178.9160  143.6850 O   0  0  0  0  0  0  0  0  0  0  0  0
  190.4420  177.0310  144.6730 N   0  0  0  0  0  0  0  0  0  0  0  0
  190.5260  178.0080  143.6300 C   0  0  0  0  0  0  0  0  0  0  0  0
  191.3210  177.0730  145.7030 O   0  0  0  0  0  1  0  0  0  0  0  0
  189.6260  177.9670  142.5260 N   0  0  0  0  0  1  0  0  0  0  0  0
  190.0960  174.6620  144.0840 C   0  0  2  0  0  3  0  0  0  0  0  0
  189.0650  173.7830  143.3650 C   0  0  2  0  0  3  0  0  0  0  0  0
  189.6680  172.6300  141.3360 N   0  0  0  0  0  0  0  0  0  0  0  0
  189.3280  172.2980  143.6640 C   0  0  0  0  0  3  0  0  0  0  0  0
  189.0130  174.8790  141.2000 O   0  0  0  0  0  0  0  0  0  0  0  0
  189.2410  173.8520  141.8940 C   0  0  0  0  0  0  0  0  0  0  0  0
  190.0070  172.4180  139.9410 C   0  0  0  0  0  1  0  0  0  0  0  0
  189.8170  171.6310  142.3700 C   0  0  0  0  0  3  0  0  0  0  0  0
  190.6930  173.9600  145.1380 O   0  0  0  0  0  0  0  0  0  0  0  0
  191.9790  173.9710  144.8590 O   0  0  0  0  0  1  0  0  0  0  0  0
  188.7400  175.7640  145.9410 C   0  0  0  0  0  2  0  0  0  0  0  0
  186.1190  176.2700  143.7410 C   0  0  0  0  0  2  0  0  0  0  0  0
  186.2630  178.2810  145.2000 C   0  0  0  0  0  0  0  0  0  0  0  0
  187.2980  176.2730  145.9280 C   0  0  2  0  0  3  0  0  0  0  0  0
  185.2380  178.1360  142.2890 C   0  0  1  0  0  3  0  0  0  0  0  0
  186.9940  177.0890  144.6810 C   0  0  1  0  0  3  0  0  0  0  0  0
  186.1330  178.3000  146.6750 C   0  0  0  0  0  2  0  0  0  0  0  0
  185.9570  179.3080  142.9460 C   0  0  0  0  0  2  0  0  0  0  0  0
  185.7980  179.2780  144.4370 C   0  0  0  0  0  3  0  0  0  0  0  0
  184.9810  178.4500  140.9560 O   0  0  0  0  0  1  0  0  0  0  0  0
  186.0950  176.8770  142.3440 C   0  0  0  0  0  2  0  0  0  0  0  0
  186.9740  177.1290  147.1520 C   0  0  0  0  0  2  0  0  0  0  0  0
  1  3  1  0  0  0  0
  1 17  1  1  0  0  0
  3  5  1  0  0  0  0
  4  2  2  0  0  0  0
  4  3  1  0  0  0  0
  6  4  1  0  0  0  0
  7  1  1  0  0  0  0
  7 15  1  1  0  0  0
  8 10  1  0  0  0  0
  8  7  1  1  0  0  0
  9 12  1  0  0  0  0
  9 14  1  0  0  0  0
 11 12  2  0  0  0  0
 12  8  1  0  0  0  0
 13  9  1  0  0  0  0
 14 10  2  0  0  0  0
 16 15  1  0  0  0  0
 19 23  1  0  0  0  0
 20 17  1  1  0  0  0
 20 28  1  0  0  0  0
 21 26  1  6  0  0  0
 21 27  1  0  0  0  0
 21 24  1  0  0  0  0
 22 18  1  6  0  0  0
 22 19  1  0  0  0  0
 22 20  1  0  0  0  0
 23 28  1  0  0  0  0
 24 25  1  0  0  0  0
 25 19  2  0  0  0  0
 27 18  1  0  0  0  0
M  END
>  <MODEL>
2

>  <REMARK>
 VINA RESULT:      -7.2      2.548      4.165
  Name = 
  6 active torsions:
  status: ('A' for Active; 'I' for Inactive)
    1  A    between atoms: O_1  and  C_2
    2  A    between atoms: C_2  and  C_3
    3  A    between atoms: C_2  and  C_27
    4  A    between atoms: C_10  and  C_17
    5  A    between atoms: N_16  and  C_27
    6  A    between atoms: C_17  and  C_27
                            x       y       z     vdW  Elec       q    Type
                         _______ _______ _______ _____ _____    ______ ____

>  <TORSDO>
F 6

$$$$
=
 OpenBabel11052418053D

 28 30  0  0  1  0  0  0  0  0999 V2000
  191.7280  174.8770  144.4230 C   0  0  1  0  0  3  0  0  0  0  0  0
  195.3270  174.3510  144.0750 O   0  0  0  0  0  0  0  0  0  0  0  0
  193.0620  174.3250  144.6320 N   0  0  0  0  0  0  0  0  0  0  0  0
  194.1830  174.8490  143.9120 C   0  0  0  0  0  0  0  0  0  0  0  0
  193.2350  173.2720  145.4680 O   0  0  0  0  0  1  0  0  0  0  0  0
  194.0170  175.9400  143.0090 N   0  0  0  0  0  1  0  0  0  0  0  0
  190.8120  173.8530  143.7420 C   0  0  2  0  0  3  0  0  0  0  0  0
  190.1200  174.4580  142.5130 C   0  0  2  0  0  3  0  0  0  0  0  0
  189.4040  173.0310  140.7080 N   0  0  0  0  0  0  0  0  0  0  0  0
  188.6010  174.2360  142.5920 C   0  0  0  0  0  3  0  0  0  0  0  0
  191.6440  173.7260  140.7720 O   0  0  0  0  0  0  0  0  0  0  0  0
  190.4910  173.7220  141.2800 C   0  0  0  0  0  0  0  0  0  0  0  0
  189.4810  172.1570  139.5520 C   0  0  0  0  0  1  0  0  0  0  0  0
  188.2090  173.2340  141.4960 C   0  0  0  0  0  3  0  0  0  0  0  0
  189.8640  173.3670  144.6510 O   0  0  0  0  0  0  0  0  0  0  0  0
  190.1450  172.0870  144.7730 O   0  0  0  0  0  1  0  0  0  0  0  0
  191.1360  175.4160  145.7310 C   0  0  0  0  0  2  0  0  0  0  0  0
  188.3210  177.1380  146.7680 C   0  0  0  0  0  2  0  0  0  0  0  0
  188.5970  177.5650  144.3320 C   0  0  0  0  0  0  0  0  0  0  0  0
  190.4660  176.7810  145.5670 C   0  0  2  0  0  3  0  0  0  0  0  0
  185.9650  177.5260  145.9490 C   0  0  1  0  0  3  0  0  0  0  0  0
  188.9530  176.6650  145.4650 C   0  0  1  0  0  3  0  0  0  0  0  0
  189.7710  178.1930  143.6830 C   0  0  0  0  0  2  0  0  0  0  0  0
  186.1490  177.1120  144.4940 C   0  0  0  0  0  2  0  0  0  0  0  0
  187.3510  177.7710  143.8860 C   0  0  0  0  0  3  0  0  0  0  0  0
  184.6370  177.3200  146.3170 O   0  0  0  0  0  1  0  0  0  0  0  0
  186.8650  176.7010  146.8620 C   0  0  0  0  0  2  0  0  0  0  0  0
  190.9730  177.5310  144.3350 C   0  0  0  0  0  2  0  0  0  0  0  0
  1  3  1  0  0  0  0
  1 17  1  1  0  0  0
  3  5  1  0  0  0  0
  4  2  2  0  0  0  0
  4  3  1  0  0  0  0
  6  4  1  0  0  0  0
  7  1  1  0  0  0  0
  7 15  1  1  0  0  0
  8 10  1  0  0  0  0
  8  7  1  1  0  0  0
  9 12  1  0  0  0  0
  9 14  1  0  0  0  0
 11 12  2  0  0  0  0
 12  8  1  0  0  0  0
 13  9  1  0  0  0  0
 14 10  2  0  0  0  0
 15 16  1  0  0  0  0
 18 27  1  0  0  0  0
 19 22  1  0  0  0  0
 20 17  1  6  0  0  0
 21 26  1  1  0  0  0
 21 27  1  0  0  0  0
 22 20  1  0  0  0  0
 22 18  1  1  0  0  0
 23 19  1  0  0  0  0
 23 28  1  0  0  0  0
 24 21  1  0  0  0  0
 25 19  2  0  0  0  0
 25 24  1  0  0  0  0
 28 20  1  0  0  0  0
M  END
>  <MODEL>
3

>  <REMARK>
 VINA RESULT:      -6.9      2.393      4.965
  Name = 
  6 active torsions:
  status: ('A' for Active; 'I' for Inactive)
    1  A    between atoms: O_1  and  C_2
    2  A    between atoms: C_2  and  C_3
    3  A    between atoms: C_2  and  C_27
    4  A    between atoms: C_10  and  C_17
    5  A    between atoms: N_16  and  C_27
    6  A    between atoms: C_17  and  C_27
                            x       y       z     vdW  Elec       q    Type
                         _______ _______ _______ _____ _____    ______ ____

>  <TORSDO>
F 6

$$$$
=
 OpenBabel11052418053D

 28 30  0  0  1  0  0  0  0  0999 V2000
  190.5120  175.2780  143.4910 C   0  0  1  0  0  3  0  0  0  0  0  0
  189.4020  171.9420  144.4860 O   0  0  0  0  0  0  0  0  0  0  0  0
  190.0990  173.8820  143.3940 N   0  0  0  0  0  0  0  0  0  0  0  0
  189.7300  173.1540  144.5710 C   0  0  0  0  0  0  0  0  0  0  0  0
  190.1190  173.2510  142.1950 O   0  0  0  0  0  1  0  0  0  0  0  0
  189.7260  173.7930  145.8450 N   0  0  0  0  0  1  0  0  0  0  0  0
  192.0400  175.3960  143.5280 C   0  0  2  0  0  3  0  0  0  0  0  0
  192.5400  175.6850  144.9490 C   0  0  2  0  0  3  0  0  0  0  0  0
  194.8220  175.1940  145.5480 N   0  0  0  0  0  0  0  0  0  0  0  0
  193.3660  176.9820  144.9720 C   0  0  0  0  0  3  0  0  0  0  0  0
  193.2460  173.4580  145.6070 O   0  0  0  0  0  0  0  0  0  0  0  0
  193.5270  174.6660  145.3820 C   0  0  0  0  0  0  0  0  0  0  0  0
  196.0060  174.4230  145.8780 C   0  0  0  0  0  1  0  0  0  0  0  0
  194.8300  176.6080  145.2450 C   0  0  0  0  0  3  0  0  0  0  0  0
  192.4730  176.3900  142.6420 O   0  0  0  0  0  0  0  0  0  0  0  0
  193.3360  175.7820  141.8550 O   0  0  0  0  0  1  0  0  0  0  0  0
  189.8850  176.1230  142.3760 C   0  0  0  0  0  2  0  0  0  0  0  0
  188.7130  177.4400  145.3520 C   0  0  0  0  0  2  0  0  0  0  0  0
  186.9010  177.6910  143.6650 C   0  0  0  0  0  0  0  0  0  0  0  0
  189.1210  177.3390  142.9030 C   0  0  2  0  0  3  0  0  0  0  0  0
  186.5950  177.3590  146.7210 C   0  0  1  0  0  3  0  0  0  0  0  0
  188.1550  176.9650  144.0170 C   0  0  1  0  0  3  0  0  0  0  0  0
  186.9910  178.4450  142.3940 C   0  0  0  0  0  2  0  0  0  0  0  0
  185.6380  176.8550  145.6480 C   0  0  0  0  0  2  0  0  0  0  0  0
  185.7710  177.6480  144.3820 C   0  0  0  0  0  3  0  0  0  0  0  0
  186.1210  176.9690  147.9720 O   0  0  0  0  0  1  0  0  0  0  0  0
  187.9890  176.7780  146.5170 C   0  0  0  0  0  2  0  0  0  0  0  0
  188.3340  178.0510  141.8040 C   0  0  0  0  0  2  0  0  0  0  0  0
  1 17  1  6  0  0  0
  1  7  1  0  0  0  0
  2  4  2  0  0  0  0
  3  1  1  0  0  0  0
  3  4  1  0  0  0  0
  4  6  1  0  0  0  0
  5  3  1  0  0  0  0
  7 15  1  6  0  0  0
  8  7  1  6  0  0  0
  8 10  1  0  0  0  0
  8 12  1  0  0  0  0
  9 13  1  0  0  0  0
 10 14  2  0  0  0  0
 12  9  1  0  0  0  0
 12 11  2  0  0  0  0
 14  9  1  0  0  0  0
 16 15  1  0  0  0  0
 18 27  1  0  0  0  0
 19 22  1  0  0  0  0
 19 25  2  0  0  0  0
 20 17  1  6  0  0  0
 20 22  1  0  0  0  0
 21 26  1  1  0  0  0
 22 18  1  1  0  0  0
 23 19  1  0  0  0  0
 24 21  1  0  0  0  0
 25 24  1  0  0  0  0
 27 21  1  0  0  0  0
 28 23  1  0  0  0  0
 28 20  1  0  0  0  0
M  END
>  <MODEL>
4

>  <REMARK>
 VINA RESULT:      -6.8      1.899      2.818
  Name = 
  6 active torsions:
  status: ('A' for Active; 'I' for Inactive)
    1  A    between atoms: O_1  and  C_2
    2  A    between atoms: C_2  and  C_3
    3  A    between atoms: C_2  and  C_27
    4  A    between atoms: C_10  and  C_17
    5  A    between atoms: N_16  and  C_27
    6  A    between atoms: C_17  and  C_27
                            x       y       z     vdW  Elec       q    Type
                         _______ _______ _______ _____ _____    ______ ____

>  <TORSDO>
F 6

$$$$
=
 OpenBabel11052418053D

 28 30  0  0  1  0  0  0  0  0999 V2000
  190.3740  174.7460  144.6620 C   0  0  1  0  0  3  0  0  0  0  0  0
  188.9020  171.9810  142.7810 O   0  0  0  0  0  0  0  0  0  0  0  0
  189.7570  174.0030  143.5670 N   0  0  0  0  0  0  0  0  0  0  0  0
  189.4080  172.6250  143.7360 C   0  0  0  0  0  0  0  0  0  0  0  0
  189.5660  174.6010  142.3660 O   0  0  0  0  0  1  0  0  0  0  0  0
  189.6240  171.9710  144.9840 N   0  0  0  0  0  1  0  0  0  0  0  0
  191.9020  174.7450  144.5320 C   0  0  2  0  0  3  0  0  0  0  0  0
  192.4110  176.0770  143.9650 C   0  0  2  0  0  3  0  0  0  0  0  0
  194.7690  176.4060  143.5940 N   0  0  0  0  0  0  0  0  0  0  0  0
  192.7310  175.9330  142.4680 C   0  0  0  0  0  3  0  0  0  0  0  0
  193.9120  176.7460  145.7510 O   0  0  0  0  0  0  0  0  0  0  0  0
  193.7300  176.4300  144.5450 C   0  0  0  0  0  0  0  0  0  0  0  0
  196.1750  176.6210  143.8840 C   0  0  0  0  0  1  0  0  0  0  0  0
  194.2540  176.0370  142.2950 C   0  0  0  0  0  3  0  0  0  0  0  0
  192.3220  173.6760  143.7310 O   0  0  0  0  0  0  0  0  0  0  0  0
  193.0470  172.9240  144.5320 O   0  0  0  0  0  1  0  0  0  0  0  0
  189.7950  176.1620  144.7700 C   0  0  0  0  0  2  0  0  0  0  0  0
  186.5630  176.3030  143.5460 C   0  0  0  0  0  2  0  0  0  0  0  0
  186.6960  177.8700  145.4740 C   0  0  0  0  0  0  0  0  0  0  0  0
  188.3500  176.1800  145.2680 C   0  0  2  0  0  3  0  0  0  0  0  0
  184.8500  178.0760  143.0050 C   0  0  1  0  0  3  0  0  0  0  0  0
  187.4770  177.1200  144.4500 C   0  0  1  0  0  3  0  0  0  0  0  0
  187.0480  177.5110  146.8670 C   0  0  0  0  0  2  0  0  0  0  0  0
  185.4480  179.2320  143.7960 C   0  0  0  0  0  2  0  0  0  0  0  0
  185.7900  178.8170  145.1960 C   0  0  0  0  0  3  0  0  0  0  0  0
  184.1110  178.5870  141.9400 O   0  0  0  0  0  1  0  0  0  0  0  0
  185.9490  177.1720  142.4560 C   0  0  0  0  0  2  0  0  0  0  0  0
  188.2470  176.5890  146.7370 C   0  0  0  0  0  2  0  0  0  0  0  0
  1 17  1  6  0  0  0
  2  4  2  0  0  0  0
  3  4  1  0  0  0  0
  3  1  1  0  0  0  0
  4  6  1  0  0  0  0
  5  3  1  0  0  0  0
  7 15  1  6  0  0  0
  7  1  1  0  0  0  0
  8  7  1  1  0  0  0
  8 12  1  0  0  0  0
  9 13  1  0  0  0  0
  9 12  1  0  0  0  0
 10  8  1  0  0  0  0
 12 11  2  0  0  0  0
 14 10  2  0  0  0  0
 14  9  1  0  0  0  0
 15 16  1  0  0  0  0
 19 23  1  0  0  0  0
 20 17  1  6  0  0  0
 20 28  1  0  0  0  0
 21 26  1  6  0  0  0
 21 24  1  0  0  0  0
 22 18  1  6  0  0  0
 22 20  1  0  0  0  0
 22 19  1  0  0  0  0
 24 25  1  0  0  0  0
 25 19  2  0  0  0  0
 27 21  1  0  0  0  0
 27 18  1  0  0  0  0
 28 23  1  0  0  0  0
M  END
>  <MODEL>
5

>  <REMARK>
 VINA RESULT:      -6.6      1.515      2.072
  Name = 
  6 active torsions:
  status: ('A' for Active; 'I' for Inactive)
    1  A    between atoms: O_1  and  C_2
    2  A    between atoms: C_2  and  C_3
    3  A    between atoms: C_2  and  C_27
    4  A    between atoms: C_10  and  C_17
    5  A    between atoms: N_16  and  C_27
    6  A    between atoms: C_17  and  C_27
                            x       y       z     vdW  Elec       q    Type
                         _______ _______ _______ _____ _____    ______ ____

>  <TORSDO>
F 6

$$$$
=
 OpenBabel11052418053D

 28 30  0  0  1  0  0  0  0  0999 V2000
  188.7940  175.2870  142.4450 C   0  0  1  0  0  3  0  0  0  0  0  0
  190.9620  176.8020  144.9660 O   0  0  0  0  0  0  0  0  0  0  0  0
  189.4500  175.5310  143.7260 N   0  0  0  0  0  0  0  0  0  0  0  0
  190.3780  176.6120  143.8680 C   0  0  0  0  0  0  0  0  0  0  0  0
  189.2270  174.6970  144.7710 O   0  0  0  0  0  1  0  0  0  0  0  0
  190.6450  177.4850  142.7740 N   0  0  0  0  0  1  0  0  0  0  0  0
  189.1170  173.8820  141.9230 C   0  0  2  0  0  3  0  0  0  0  0  0
  189.6990  173.9380  140.5050 C   0  0  2  0  0  3  0  0  0  0  0  0
  189.7070  171.9620  139.1260 N   0  0  0  0  0  0  0  0  0  0  0  0
  188.5680  174.0190  139.4670 C   0  0  0  0  0  3  0  0  0  0  0  0
  191.4290  172.2460  140.6940 O   0  0  0  0  0  0  0  0  0  0  0  0
  190.3680  172.6610  140.1550 C   0  0  0  0  0  0  0  0  0  0  0  0
  190.0770  170.6470  138.6350 C   0  0  0  0  0  1  0  0  0  0  0  0
  188.5400  172.6950  138.6890 C   0  0  0  0  0  3  0  0  0  0  0  0
  187.9740  173.0750  141.9550 O   0  0  0  0  0  0  0  0  0  0  0  0
  188.2840  172.0890  142.7700 O   0  0  0  0  0  1  0  0  0  0  0  0
  187.2850  175.5470  142.5340 C   0  0  0  0  0  2  0  0  0  0  0  0
  187.2040  177.9770  144.9940 C   0  0  0  0  0  2  0  0  0  0  0  0
  185.1100  178.1940  143.6680 C   0  0  0  0  0  0  0  0  0  0  0  0
  186.9430  177.0270  142.7140 C   0  0  2  0  0  3  0  0  0  0  0  0
  185.5350  178.9050  146.6440 C   0  0  1  0  0  3  0  0  0  0  0  0
  186.2390  177.2920  144.0350 C   0  0  1  0  0  3  0  0  0  0  0  0
  185.0210  178.4690  142.2150 C   0  0  0  0  0  2  0  0  0  0  0  0
  184.2540  178.3840  146.0040 C   0  0  0  0  0  2  0  0  0  0  0  0
  184.2160  178.6850  144.5350 C   0  0  0  0  0  3  0  0  0  0  0  0
  185.3280  179.0620  148.0130 O   0  0  0  0  0  1  0  0  0  0  0  0
  186.6840  177.9280  146.4250 C   0  0  0  0  0  2  0  0  0  0  0  0
  186.0610  177.5590  141.5850 C   0  0  0  0  0  2  0  0  0  0  0  0
  1 17  1  1  0  0  0
  1  3  1  0  0  0  0
  3  4  1  0  0  0  0
  3  5  1  0  0  0  0
  4  2  2  0  0  0  0
  6  4  1  0  0  0  0
  7 15  1  6  0  0  0
  7  1  1  0  0  0  0
  8  7  1  1  0  0  0
  9 12  1  0  0  0  0
 10  8  1  0  0  0  0
 12  8  1  0  0  0  0
 12 11  2  0  0  0  0
 13  9  1  0  0  0  0
 14  9  1  0  0  0  0
 14 10  2  0  0  0  0
 15 16  1  0  0  0  0
 18 27  1  0  0  0  0
 19 22  1  0  0  0  0
 19 25  2  0  0  0  0
 20 17  1  6  0  0  0
 20 22  1  0  0  0  0
 21 26  1  1  0  0  0
 22 18  1  1  0  0  0
 23 19  1  0  0  0  0
 24 21  1  0  0  0  0
 25 24  1  0  0  0  0
 27 21  1  0  0  0  0
 28 23  1  0  0  0  0
 28 20  1  0  0  0  0
M  END
>  <MODEL>
6

>  <REMARK>
 VINA RESULT:      -6.6      2.980      5.402
  Name = 
  6 active torsions:
  status: ('A' for Active; 'I' for Inactive)
    1  A    between atoms: O_1  and  C_2
    2  A    between atoms: C_2  and  C_3
    3  A    between atoms: C_2  and  C_27
    4  A    between atoms: C_10  and  C_17
    5  A    between atoms: N_16  and  C_27
    6  A    between atoms: C_17  and  C_27
                            x       y       z     vdW  Elec       q    Type
                         _______ _______ _______ _____ _____    ______ ____

>  <TORSDO>
F 6

$$$$
=
 OpenBabel11052418053D

 28 30  0  0  1  0  0  0  0  0999 V2000
  190.5590  176.1470  144.9660 C   0  0  1  0  0  3  0  0  0  0  0  0
  191.1910  175.0420  148.3910 O   0  0  0  0  0  0  0  0  0  0  0  0
  190.4290  175.4070  146.2170 N   0  0  0  0  0  0  0  0  0  0  0  0
  191.2880  175.7020  147.3240 C   0  0  0  0  0  0  0  0  0  0  0  0
  189.5310  174.3970  146.3160 O   0  0  0  0  0  1  0  0  0  0  0  0
  192.2560  176.7440  147.2320 N   0  0  0  0  0  1  0  0  0  0  0  0
  190.3230  175.2300  143.7610 C   0  0  2  0  0  3  0  0  0  0  0  0
  191.6480  174.6960  143.2020 C   0  0  2  0  0  3  0  0  0  0  0  0
  193.7280  175.2650  144.2800 N   0  0  0  0  0  0  0  0  0  0  0  0
  192.1440  173.5090  144.0450 C   0  0  0  0  0  3  0  0  0  0  0  0
  192.7930  176.7910  142.7630 O   0  0  0  0  0  0  0  0  0  0  0  0
  192.7360  175.6910  143.3740 C   0  0  0  0  0  0  0  0  0  0  0  0
  194.8630  176.0580  144.7130 C   0  0  0  0  0  1  0  0  0  0  0  0
  193.4050  173.9550  144.7990 C   0  0  0  0  0  3  0  0  0  0  0  0
  189.6060  175.9070  142.7670 O   0  0  0  0  0  0  0  0  0  0  0  0
  189.3900  175.0020  141.8360 O   0  0  0  0  0  1  0  0  0  0  0  0
  189.6500  177.3820  144.9520 C   0  0  0  0  0  2  0  0  0  0  0  0
  186.4700  176.7140  143.7640 C   0  0  0  0  0  2  0  0  0  0  0  0
  186.2410  178.3630  145.6140 C   0  0  0  0  0  0  0  0  0  0  0  0
  188.2390  177.0910  145.4670 C   0  0  2  0  0  3  0  0  0  0  0  0
  184.3940  178.0160  143.1620 C   0  0  1  0  0  3  0  0  0  0  0  0
  187.1730  177.7630  144.6170 C   0  0  1  0  0  3  0  0  0  0  0  0
  186.6690  178.1640  147.0180 C   0  0  0  0  0  2  0  0  0  0  0  0
  184.7100  179.3170  143.8900 C   0  0  0  0  0  2  0  0  0  0  0  0
  185.1410  179.0610  145.3030 C   0  0  0  0  0  3  0  0  0  0  0  0
  183.5550  178.2900  142.0840 O   0  0  0  0  0  1  0  0  0  0  0  0
  185.6700  177.3640  142.6430 C   0  0  0  0  0  2  0  0  0  0  0  0
  188.0480  177.5370  146.9160 C   0  0  0  0  0  2  0  0  0  0  0  0
  1 17  1  1  0  0  0
  1  3  1  0  0  0  0
  3  5  1  0  0  0  0
  3  4  1  0  0  0  0
  4  2  2  0  0  0  0
  6  4  1  0  0  0  0
  7 15  1  6  0  0  0
  7  1  1  0  0  0  0
  8 12  1  0  0  0  0
  8  7  1  1  0  0  0
  8 10  1  0  0  0  0
  9 13  1  0  0  0  0
  9 14  1  0  0  0  0
 10 14  2  0  0  0  0
 11 12  2  0  0  0  0
 12  9  1  0  0  0  0
 16 15  1  0  0  0  0
 19 23  1  0  0  0  0
 20 17  1  6  0  0  0
 20 28  1  0  0  0  0
 21 26  1  6  0  0  0
 21 24  1  0  0  0  0
 22 18  1  1  0  0  0
 22 20  1  0  0  0  0
 22 19  1  0  0  0  0
 24 25  1  0  0  0  0
 25 19  2  0  0  0  0
 27 21  1  0  0  0  0
 27 18  1  0  0  0  0
 28 23  1  0  0  0  0
M  END
>  <MODEL>
7

>  <REMARK>
 VINA RESULT:      -6.6      1.743      2.848
  Name = 
  6 active torsions:
  status: ('A' for Active; 'I' for Inactive)
    1  A    between atoms: O_1  and  C_2
    2  A    between atoms: C_2  and  C_3
    3  A    between atoms: C_2  and  C_27
    4  A    between atoms: C_10  and  C_17
    5  A    between atoms: N_16  and  C_27
    6  A    between atoms: C_17  and  C_27
                            x       y       z     vdW  Elec       q    Type
                         _______ _______ _______ _____ _____    ______ ____

>  <TORSDO>
F 6

$$$$
=
 OpenBabel11052418053D

 28 30  0  0  1  0  0  0  0  0999 V2000
  188.2120  176.9060  144.5820 C   0  0  1  0  0  3  0  0  0  0  0  0
  189.1450  175.6880  141.2660 O   0  0  0  0  0  0  0  0  0  0  0  0
  188.4790  175.9860  143.4810 N   0  0  0  0  0  0  0  0  0  0  0  0
  188.9430  176.4820  142.2210 C   0  0  0  0  0  0  0  0  0  0  0  0
  188.2330  174.6610  143.6310 O   0  0  0  0  0  1  0  0  0  0  0  0
  189.1840  177.8740  142.0360 N   0  0  0  0  0  1  0  0  0  0  0  0
  186.7100  177.1860  144.7090 C   0  0  2  0  0  3  0  0  0  0  0  0
  186.3050  178.4210  143.8930 C   0  0  2  0  0  3  0  0  0  0  0  0
  184.0990  178.5620  142.9350 N   0  0  0  0  0  0  0  0  0  0  0  0
  185.4250  179.3550  144.7400 C   0  0  0  0  0  3  0  0  0  0  0  0
  185.7520  177.3640  141.7800 O   0  0  0  0  0  0  0  0  0  0  0  0
  185.4010  178.0470  142.7790 C   0  0  0  0  0  0  0  0  0  0  0  0
  182.9790  178.2910  142.0520 C   0  0  0  0  0  1  0  0  0  0  0  0
  184.0040  179.3250  144.1590 C   0  0  0  0  0  3  0  0  0  0  0  0
  186.3570  177.3470  146.0550 O   0  0  0  0  0  0  0  0  0  0  0  0
  185.4530  176.4150  146.2750 O   0  0  0  0  0  1  0  0  0  0  0  0
  188.8280  176.4010  145.8930 C   0  0  0  0  0  2  0  0  0  0  0  0
  191.8490  177.1710  144.3940 C   0  0  0  0  0  2  0  0  0  0  0  0
  192.3530  176.2470  146.6490 C   0  0  0  0  0  0  0  0  0  0  0  0
  190.1660  177.0640  146.2190 C   0  0  2  0  0  3  0  0  0  0  0  0
  194.1190  176.1030  144.1190 C   0  0  1  0  0  3  0  0  0  0  0  0
  191.3340  176.3420  145.5650 C   0  0  1  0  0  3  0  0  0  0  0  0
  191.8940  176.8030  147.9430 C   0  0  0  0  0  2  0  0  0  0  0  0
  194.0280  175.0630  145.2290 C   0  0  0  0  0  2  0  0  0  0  0  0
  193.5560  175.6760  146.5140 C   0  0  0  0  0  3  0  0  0  0  0  0
  194.9950  175.6450  143.1370 O   0  0  0  0  0  1  0  0  0  0  0  0
  192.7510  176.3410  143.4900 C   0  0  0  0  0  2  0  0  0  0  0  0
  190.4280  177.1330  147.7230 C   0  0  0  0  0  2  0  0  0  0  0  0
  1  7  1  0  0  0  0
  1 17  1  1  0  0  0
  2  4  2  0  0  0  0
  3  5  1  0  0  0  0
  3  1  1  0  0  0  0
  4  3  1  0  0  0  0
  6  4  1  0  0  0  0
  7 15  1  1  0  0  0
  8  7  1  1  0  0  0
  8 10  1  0  0  0  0
  9 14  1  0  0  0  0
 11 12  2  0  0  0  0
 12  9  1  0  0  0  0
 12  8  1  0  0  0  0
 13  9  1  0  0  0  0
 14 10  2  0  0  0  0
 15 16  1  0  0  0  0
 19 23  1  0  0  0  0
 20 17  1  1  0  0  0
 20 28  1  0  0  0  0
 21 26  1  6  0  0  0
 21 24  1  0  0  0  0
 22 18  1  6  0  0  0
 22 20  1  0  0  0  0
 22 19  1  0  0  0  0
 24 25  1  0  0  0  0
 25 19  2  0  0  0  0
 27 21  1  0  0  0  0
 27 18  1  0  0  0  0
 28 23  1  0  0  0  0
M  END
>  <MODEL>
8

>  <REMARK>
 VINA RESULT:      -6.5      2.543      7.510
  Name = 
  6 active torsions:
  status: ('A' for Active; 'I' for Inactive)
    1  A    between atoms: O_1  and  C_2
    2  A    between atoms: C_2  and  C_3
    3  A    between atoms: C_2  and  C_27
    4  A    between atoms: C_10  and  C_17
    5  A    between atoms: N_16  and  C_27
    6  A    between atoms: C_17  and  C_27
                            x       y       z     vdW  Elec       q    Type
                         _______ _______ _______ _____ _____    ______ ____

>  <TORSDO>
F 6

$$$$
=
 OpenBabel11052418053D

 28 30  0  0  1  0  0  0  0  0999 V2000
  190.1810  174.8070  144.7950 C   0  0  1  0  0  3  0  0  0  0  0  0
  188.8990  172.4730  142.2920 O   0  0  0  0  0  0  0  0  0  0  0  0
  189.7420  173.5600  144.1760 N   0  0  0  0  0  0  0  0  0  0  0  0
  189.3040  173.5450  142.8130 C   0  0  0  0  0  0  0  0  0  0  0  0
  189.6920  172.4210  144.9090 O   0  0  0  0  0  1  0  0  0  0  0  0
  189.3250  174.7370  142.0330 N   0  0  0  0  0  1  0  0  0  0  0  0
  189.1580  175.2950  145.8270 C   0  0  2  0  0  3  0  0  0  0  0  0
  188.7590  176.7530  145.5650 C   0  0  2  0  0  3  0  0  0  0  0  0
  186.5020  177.4810  145.9960 N   0  0  0  0  0  0  0  0  0  0  0  0
  188.7040  177.5380  146.8860 C   0  0  0  0  0  3  0  0  0  0  0  0
  186.9710  176.4160  143.9590 O   0  0  0  0  0  0  0  0  0  0  0  0
  187.3600  176.8410  145.0790 C   0  0  0  0  0  0  0  0  0  0  0  0
  185.0680  177.6340  145.8350 C   0  0  0  0  0  1  0  0  0  0  0  0
  187.2360  177.8810  147.1750 C   0  0  0  0  0  3  0  0  0  0  0  0
  189.6670  175.1490  147.1230 O   0  0  0  0  0  0  0  0  0  0  0  0
  188.9410  174.1910  147.6600 O   0  0  0  0  0  1  0  0  0  0  0  0
  191.5900  174.6700  145.3830 C   0  0  0  0  0  2  0  0  0  0  0  0
  193.2200  176.3790  142.8560 C   0  0  0  0  0  2  0  0  0  0  0  0
  194.7650  176.2840  144.8040 C   0  0  0  0  0  0  0  0  0  0  0  0
  192.4500  175.9170  145.1720 C   0  0  2  0  0  3  0  0  0  0  0  0
  195.5170  176.4160  141.8100 C   0  0  1  0  0  3  0  0  0  0  0  0
  193.5630  175.6780  144.1640 C   0  0  1  0  0  3  0  0  0  0  0  0
  194.5030  176.8350  146.1530 C   0  0  0  0  0  2  0  0  0  0  0  0
  196.2920  175.7090  142.9150 C   0  0  0  0  0  2  0  0  0  0  0  0
  195.9890  176.3010  144.2590 C   0  0  0  0  0  3  0  0  0  0  0  0
  196.1630  176.2040  140.5940 O   0  0  0  0  0  1  0  0  0  0  0  0
  194.0950  175.8730  141.7160 C   0  0  0  0  0  2  0  0  0  0  0  0
  193.0800  176.4150  146.4720 C   0  0  0  0  0  2  0  0  0  0  0  0
  1 17  1  1  0  0  0
  1  7  1  0  0  0  0
  2  4  2  0  0  0  0
  3  1  1  0  0  0  0
  3  5  1  0  0  0  0
  4  3  1  0  0  0  0
  6  4  1  0  0  0  0
  7 15  1  1  0  0  0
  8  7  1  1  0  0  0
  8 10  1  0  0  0  0
  9 14  1  0  0  0  0
 10 14  2  0  0  0  0
 11 12  2  0  0  0  0
 12  8  1  0  0  0  0
 12  9  1  0  0  0  0
 13  9  1  0  0  0  0
 15 16  1  0  0  0  0
 19 23  1  0  0  0  0
 20 17  1  1  0  0  0
 20 28  1  0  0  0  0
 21 26  1  6  0  0  0
 21 24  1  0  0  0  0
 22 18  1  6  0  0  0
 22 19  1  0  0  0  0
 22 20  1  0  0  0  0
 23 28  1  0  0  0  0
 24 25  1  0  0  0  0
 25 19  2  0  0  0  0
 27 21  1  0  0  0  0
 27 18  1  0  0  0  0
M  END
>  <MODEL>
9

>  <REMARK>
 VINA RESULT:      -6.5      2.560      7.199
  Name = 
  6 active torsions:
  status: ('A' for Active; 'I' for Inactive)
    1  A    between atoms: O_1  and  C_2
    2  A    between atoms: C_2  and  C_3
    3  A    between atoms: C_2  and  C_27
    4  A    between atoms: C_10  and  C_17
    5  A    between atoms: N_16  and  C_27
    6  A    between atoms: C_17  and  C_27
                            x       y       z     vdW  Elec       q    Type
                         _______ _______ _______ _____ _____    ______ ____

>  <TORSDO>
F 6

$$$$
