=
 OpenBabel11052421323D

 32 36  0  0  1  0  0  0  0  0999 V2000
  187.8900  176.8860  145.0850 C   0  0  0  0  0  0  0  0  0  0  0  0
  189.9180  172.5430  144.1660 C   0  0  0  0  0  3  0  0  0  0  0  0
  189.2180  172.5150  142.8370 C   0  0  0  0  0  2  0  0  0  0  0  0
  186.8230  178.2650  143.2190 C   0  0  0  0  0  0  0  0  0  0  0  0
  186.2640  178.3180  141.8320 C   0  0  1  0  0  3  0  0  0  0  0  0
  189.7830  173.5900  144.9820 C   0  0  0  0  0  3  0  0  0  0  0  0
  188.6330  175.7610  145.5010 C   0  0  0  0  0  0  0  0  0  0  0  0
  188.6660  174.9330  143.2100 C   0  0  0  0  0  0  0  0  0  0  0  0
  187.9420  176.0580  142.7790 C   0  0  0  0  0  0  0  0  0  0  0  0
  189.1720  173.9120  142.2160 C   0  0  0  0  0  2  0  0  0  0  0  0
  189.0170  174.7880  144.5640 C   0  0  0  0  0  0  0  0  0  0  0  0
  187.5500  176.1350  141.3190 C   0  0  0  0  0  2  0  0  0  0  0  0
  186.6740  179.2810  143.9480 O   0  0  0  0  0  0  0  0  0  0  0  0
  187.3270  177.8970  139.7770 O   0  0  0  0  0  0  0  0  0  0  0  0
  187.5490  177.0520  143.7140 C   0  0  0  0  0  0  0  0  0  0  0  0
  187.0890  177.4930  140.9030 C   0  0  0  0  0  0  0  0  0  0  0  0
  184.2660  177.5560  142.8860 O   0  0  0  0  0  1  0  0  0  0  0  0
  184.1140  177.8660  140.6210 O   0  0  0  0  0  0  0  0  0  0  0  0
  184.8300  177.8890  141.8120 C   0  0  0  0  0  0  0  0  0  0  0  0
  188.9890  175.5830  146.9500 C   0  0  0  0  0  2  0  0  0  0  0  0
  190.2490  176.3610  147.2810 C   0  0  0  0  0  2  0  0  0  0  0  0
  191.2920  175.4150  147.8420 C   0  0  0  0  0  2  0  0  0  0  0  0
  192.4000  175.1760  146.8260 C   0  0  0  0  0  2  0  0  0  0  0  0
  193.1230  176.4690  146.4720 C   0  0  0  0  0  2  0  0  0  0  0  0
  192.1690  176.8380  144.3290 C   0  0  0  0  0  0  0  0  0  0  0  0
  191.2450  177.6190  143.9900 O   0  0  0  0  0  0  0  0  0  0  0  0
  192.8190  175.4510  144.3420 N   0  0  0  0  0  2  0  0  0  0  0  0
  193.3650  176.5660  144.9750 C   0  0  2  0  0  3  0  0  0  0  0  0
  187.4300  177.8680  146.1280 C   0  0  0  0  0  2  0  0  0  0  0  0
  186.0990  177.4290  146.7100 C   0  0  0  0  0  3  0  0  0  0  0  0
  185.9910  177.9530  148.1270 C   0  0  0  0  0  2  0  0  0  0  0  0
  185.2620  178.6570  147.0050 C   0  0  0  0  0  2  0  0  0  0  0  0
  1  7  1  0  0  0  0
  1 29  1  0  0  0  0
  2  6  2  0  0  0  0
  3  2  1  0  0  0  0
  4 15  1  0  0  0  0
  4 13  2  0  0  0  0
  5 19  1  1  0  0  0
  5  4  1  0  0  0  0
  7 20  1  0  0  0  0
  8 11  1  0  0  0  0
  9  8  2  0  0  0  0
  9 15  1  0  0  0  0
 10  3  1  0  0  0  0
 10  8  1  0  0  0  0
 11  6  1  0  0  0  0
 11  7  2  0  0  0  0
 12  9  1  0  0  0  0
 14 16  2  0  0  0  0
 15  1  2  0  0  0  0
 16 12  1  0  0  0  0
 16  5  1  0  0  0  0
 18 19  2  0  0  0  0
 19 17  1  0  0  0  0
 20 21  1  0  0  0  0
 21 22  1  0  0  0  0
 23 22  1  0  0  0  0
 24 23  1  0  0  0  0
 25 27  1  0  0  0  0
 25 28  1  0  0  0  0
 26 25  2  0  0  0  0
 27 28  1  0  0  0  0
 28 24  1  1  0  0  0
 29 30  1  0  0  0  0
 30 32  1  0  0  0  0
 30 31  1  0  0  0  0
 32 31  1  0  0  0  0
M  END
>  <MODEL>
1

>  <REMARK>
 VINA RESULT:      -7.3      0.000      0.000
  Name = 
  9 active torsions:
  status: ('A' for Active; 'I' for Inactive)
    1  A    between atoms: C_2  and  C_10
    2  A    between atoms: C_2  and  C_12
    3  A    between atoms: C_3  and  C_28
    4  A    between atoms: C_7  and  C_22
    5  A    between atoms: C_8  and  C_28
    6  A    between atoms: C_9  and  C_14
    7  A    between atoms: C_9  and  C_21
    8  A    between atoms: C_10  and  CA_24
    9  A    between atoms: C_12  and  C_21
                            x       y       z     vdW  Elec       q    Type
                         _______ _______ _______ _____ _____    ______ ____

>  <TORSDO>
F 9

$$$$
=
 OpenBabel11052421323D

 32 36  0  0  1  0  0  0  0  0999 V2000
  188.7450  175.9530  143.7630 C   0  0  0  0  0  0  0  0  0  0  0  0
  191.1280  176.5450  147.9810 C   0  0  0  0  0  3  0  0  0  0  0  0
  191.9480  175.3250  147.6720 C   0  0  0  0  0  2  0  0  0  0  0  0
  189.6560  174.4150  141.9380 C   0  0  0  0  0  0  0  0  0  0  0  0
  190.5810  173.3060  141.5500 C   0  0  1  0  0  3  0  0  0  0  0  0
  190.2080  176.9820  147.1190 C   0  0  0  0  0  3  0  0  0  0  0  0
  188.9010  176.5940  145.0110 C   0  0  0  0  0  0  0  0  0  0  0  0
  191.0180  175.4360  145.3450 C   0  0  0  0  0  0  0  0  0  0  0  0
  190.8850  174.8050  144.0960 C   0  0  0  0  0  0  0  0  0  0  0  0
  192.2660  175.2480  146.1780 C   0  0  0  0  0  2  0  0  0  0  0  0
  190.0340  176.3330  145.7980 C   0  0  0  0  0  0  0  0  0  0  0  0
  191.9510  173.8130  143.6840 C   0  0  0  0  0  2  0  0  0  0  0  0
  188.8090  174.7940  141.0870 O   0  0  0  0  0  0  0  0  0  0  0  0
  192.9310  173.2260  141.6270 O   0  0  0  0  0  0  0  0  0  0  0  0
  189.7460  175.0610  143.2870 C   0  0  0  0  0  0  0  0  0  0  0  0
  191.8990  173.4590  142.2340 C   0  0  0  0  0  0  0  0  0  0  0  0
  190.4040  170.9480  141.2440 O   0  0  0  0  0  0  0  0  0  0  0  0
  188.9440  171.8450  142.7660 O   0  0  0  0  0  1  0  0  0  0  0  0
  189.9730  171.9700  141.8390 C   0  0  0  0  0  0  0  0  0  0  0  0
  187.8410  177.5330  145.5160 C   0  0  0  0  0  2  0  0  0  0  0  0
  186.7750  176.7640  146.2740 C   0  0  0  0  0  2  0  0  0  0  0  0
  186.3820  177.5390  147.5160 C   0  0  0  0  0  2  0  0  0  0  0  0
  185.2850  178.5440  147.1940 C   0  0  0  0  0  2  0  0  0  0  0  0
  184.3400  178.0160  146.1230 C   0  0  0  0  0  2  0  0  0  0  0  0
  184.1610  178.7090  143.8590 C   0  0  0  0  0  0  0  0  0  0  0  0
  183.8600  178.0370  142.8400 O   0  0  0  0  0  0  0  0  0  0  0  0
  185.0730  179.6910  144.5990 N   0  0  0  0  0  2  0  0  0  0  0  0
  183.9330  179.1210  145.1630 C   0  0  2  0  0  3  0  0  0  0  0  0
  187.4840  176.1980  142.9830 C   0  0  0  0  0  2  0  0  0  0  0  0
  187.3510  177.6730  142.6510 C   0  0  0  0  0  3  0  0  0  0  0  0
  188.4490  178.0550  141.6800 C   0  0  0  0  0  2  0  0  0  0  0  0
  187.0450  177.8200  141.1740 C   0  0  0  0  0  2  0  0  0  0  0  0
  1  7  1  0  0  0  0
  3  2  1  0  0  0  0
  4 15  1  0  0  0  0
  5 19  1  1  0  0  0
  5  4  1  0  0  0  0
  5 16  1  0  0  0  0
  6  2  2  0  0  0  0
  7 20  1  0  0  0  0
  7 11  2  0  0  0  0
  8 11  1  0  0  0  0
  8 10  1  0  0  0  0
  9  8  2  0  0  0  0
 10  3  1  0  0  0  0
 11  6  1  0  0  0  0
 12  9  1  0  0  0  0
 13  4  2  0  0  0  0
 14 16  2  0  0  0  0
 15  1  2  0  0  0  0
 15  9  1  0  0  0  0
 16 12  1  0  0  0  0
 17 19  2  0  0  0  0
 19 18  1  0  0  0  0
 20 21  1  0  0  0  0
 21 22  1  0  0  0  0
 23 22  1  0  0  0  0
 24 23  1  0  0  0  0
 25 27  1  0  0  0  0
 25 28  1  0  0  0  0
 26 25  2  0  0  0  0
 27 28  1  0  0  0  0
 28 24  1  1  0  0  0
 29  1  1  0  0  0  0
 30 29  1  0  0  0  0
 31 30  1  0  0  0  0
 32 31  1  0  0  0  0
 32 30  1  0  0  0  0
M  END
>  <MODEL>
2

>  <REMARK>
 VINA RESULT:      -6.7      2.888      6.120
  Name = 
  9 active torsions:
  status: ('A' for Active; 'I' for Inactive)
    1  A    between atoms: C_2  and  C_10
    2  A    between atoms: C_2  and  C_12
    3  A    between atoms: C_3  and  C_28
    4  A    between atoms: C_7  and  C_22
    5  A    between atoms: C_8  and  C_28
    6  A    between atoms: C_9  and  C_14
    7  A    between atoms: C_9  and  C_21
    8  A    between atoms: C_10  and  CA_24
    9  A    between atoms: C_12  and  C_21
                            x       y       z     vdW  Elec       q    Type
                         _______ _______ _______ _____ _____    ______ ____

>  <TORSDO>
F 9

$$$$
=
 OpenBabel11052421323D

 32 36  0  0  1  0  0  0  0  0999 V2000
  188.4400  176.2760  143.0840 C   0  0  0  0  0  0  0  0  0  0  0  0
  185.1020  177.4300  146.4520 C   0  0  0  0  0  3  0  0  0  0  0  0
  186.0410  176.9550  147.5240 C   0  0  0  0  0  2  0  0  0  0  0  0
  190.8710  175.8360  143.7330 C   0  0  0  0  0  0  0  0  0  0  0  0
  191.8690  175.5220  144.8020 C   0  0  1  0  0  3  0  0  0  0  0  0
  185.4660  177.4020  145.1690 C   0  0  0  0  0  3  0  0  0  0  0  0
  187.1360  176.6840  143.4370 C   0  0  0  0  0  0  0  0  0  0  0  0
  187.8270  176.8890  145.7640 C   0  0  0  0  0  0  0  0  0  0  0  0
  189.1350  176.5030  145.4240 C   0  0  0  0  0  0  0  0  0  0  0  0
  187.4880  177.3100  147.1770 C   0  0  0  0  0  2  0  0  0  0  0  0
  186.8330  176.9880  144.7740 C   0  0  0  0  0  0  0  0  0  0  0  0
  190.1490  176.3670  146.5390 C   0  0  0  0  0  2  0  0  0  0  0  0
  191.2660  175.8000  142.5380 O   0  0  0  0  0  0  0  0  0  0  0  0
  192.4600  176.7730  146.7050 O   0  0  0  0  0  0  0  0  0  0  0  0
  189.4570  176.1950  144.0750 C   0  0  0  0  0  0  0  0  0  0  0  0
  191.5580  176.2820  146.0480 C   0  0  0  0  0  0  0  0  0  0  0  0
  192.9990  173.5420  145.4990 O   0  0  0  0  0  1  0  0  0  0  0  0
  190.8220  173.2430  144.8480 O   0  0  0  0  0  0  0  0  0  0  0  0
  191.9330  174.0510  145.0660 C   0  0  0  0  0  0  0  0  0  0  0  0
  186.0600  176.7650  142.3910 C   0  0  0  0  0  2  0  0  0  0  0  0
  186.0680  178.1330  141.7340 C   0  0  0  0  0  2  0  0  0  0  0  0
  184.8090  178.3010  140.9070 C   0  0  0  0  0  2  0  0  0  0  0  0
  183.5720  178.1910  141.7880 C   0  0  0  0  0  2  0  0  0  0  0  0
  182.2990  178.1080  140.9570 C   0  0  0  0  0  2  0  0  0  0  0  0
  179.9510  178.3700  141.2060 C   0  0  0  0  0  0  0  0  0  0  0  0
  179.0510  177.4930  141.2520 O   0  0  0  0  0  0  0  0  0  0  0  0
  180.5310  179.6720  140.6470 N   0  0  0  0  0  2  0  0  0  0  0  0
  181.1710  178.8920  141.6080 C   0  0  2  0  0  3  0  0  0  0  0  0
  188.7090  175.8860  141.6570 C   0  0  0  0  0  2  0  0  0  0  0  0
  188.1480  174.5030  141.3780 C   0  0  0  0  0  3  0  0  0  0  0  0
  188.5290  174.0990  139.9680 C   0  0  0  0  0  2  0  0  0  0  0  0
  189.2970  173.5440  141.1450 C   0  0  0  0  0  2  0  0  0  0  0  0
  1  7  2  0  0  0  0
  1 15  1  0  0  0  0
  2  3  1  0  0  0  0
  4 15  1  0  0  0  0
  4  5  1  0  0  0  0
  5 19  1  1  0  0  0
  5 16  1  0  0  0  0
  6  2  2  0  0  0  0
  7 11  1  0  0  0  0
  8 10  1  0  0  0  0
  9  8  1  0  0  0  0
  9 12  1  0  0  0  0
 10  3  1  0  0  0  0
 11  6  1  0  0  0  0
 11  8  2  0  0  0  0
 13  4  2  0  0  0  0
 15  9  2  0  0  0  0
 16 12  1  0  0  0  0
 16 14  2  0  0  0  0
 18 19  2  0  0  0  0
 19 17  1  0  0  0  0
 20  7  1  0  0  0  0
 21 20  1  0  0  0  0
 22 21  1  0  0  0  0
 22 23  1  0  0  0  0
 24 23  1  0  0  0  0
 25 26  2  0  0  0  0
 25 28  1  0  0  0  0
 27 25  1  0  0  0  0
 27 28  1  0  0  0  0
 28 24  1  6  0  0  0
 29  1  1  0  0  0  0
 30 29  1  0  0  0  0
 31 32  1  0  0  0  0
 31 30  1  0  0  0  0
 32 30  1  0  0  0  0
M  END
>  <MODEL>
3

>  <REMARK>
 VINA RESULT:      -6.5      3.355      8.072
  Name = 
  9 active torsions:
  status: ('A' for Active; 'I' for Inactive)
    1  A    between atoms: C_2  and  C_10
    2  A    between atoms: C_2  and  C_12
    3  A    between atoms: C_3  and  C_28
    4  A    between atoms: C_7  and  C_22
    5  A    between atoms: C_8  and  C_28
    6  A    between atoms: C_9  and  C_14
    7  A    between atoms: C_9  and  C_21
    8  A    between atoms: C_10  and  CA_24
    9  A    between atoms: C_12  and  C_21
                            x       y       z     vdW  Elec       q    Type
                         _______ _______ _______ _____ _____    ______ ____

>  <TORSDO>
F 9

$$$$
=
 OpenBabel11052421323D

 32 36  0  0  1  0  0  0  0  0999 V2000
  190.5410  175.3660  144.4340 C   0  0  0  0  0  0  0  0  0  0  0  0
  187.1650  178.2720  142.4390 C   0  0  0  0  0  3  0  0  0  0  0  0
  187.4450  177.6510  141.1000 C   0  0  0  0  0  2  0  0  0  0  0  0
  191.4240  173.3200  143.1860 C   0  0  0  0  0  0  0  0  0  0  0  0
  191.5830  172.5860  141.8920 C   0  0  1  0  0  3  0  0  0  0  0  0
  187.8130  177.8550  143.5290 C   0  0  0  0  0  3  0  0  0  0  0  0
  189.6410  176.4500  144.5210 C   0  0  0  0  0  0  0  0  0  0  0  0
  188.7580  175.8960  142.3190 C   0  0  0  0  0  0  0  0  0  0  0  0
  189.6350  174.8030  142.2270 C   0  0  0  0  0  0  0  0  0  0  0  0
  187.7290  176.1550  141.2410 C   0  0  0  0  0  2  0  0  0  0  0  0
  188.7540  176.7120  143.4650 C   0  0  0  0  0  0  0  0  0  0  0  0
  189.6280  173.9900  140.9500 C   0  0  0  0  0  2  0  0  0  0  0  0
  192.0530  172.8840  144.1860 O   0  0  0  0  0  0  0  0  0  0  0  0
  189.9350  171.7100  140.4610 O   0  0  0  0  0  0  0  0  0  0  0  0
  190.5360  174.5230  143.2890 C   0  0  0  0  0  0  0  0  0  0  0  0
  190.3370  172.6820  141.0790 C   0  0  0  0  0  0  0  0  0  0  0  0
  193.2420  172.3950  140.1910 O   0  0  0  0  0  0  0  0  0  0  0  0
  193.3440  174.3140  141.4400 O   0  0  0  0  0  1  0  0  0  0  0  0
  192.7690  173.0870  141.1300 C   0  0  0  0  0  0  0  0  0  0  0  0
  189.6490  177.3440  145.7290 C   0  0  0  0  0  2  0  0  0  0  0  0
  189.2520  176.5610  146.9660 C   0  0  0  0  0  2  0  0  0  0  0  0
  187.8510  176.0110  146.7850 C   0  0  0  0  0  2  0  0  0  0  0  0
  186.8210  177.1270  146.8870 C   0  0  0  0  0  2  0  0  0  0  0  0
  185.5440  176.7820  146.1340 C   0  0  0  0  0  2  0  0  0  0  0  0
  184.6050  178.9200  145.7010 C   0  0  0  0  0  0  0  0  0  0  0  0
  184.5340  179.5560  144.6190 O   0  0  0  0  0  0  0  0  0  0  0  0
  184.9600  178.8340  147.1880 N   0  0  0  0  0  2  0  0  0  0  0  0
  184.4360  177.7700  146.4570 C   0  0  2  0  0  3  0  0  0  0  0  0
  191.5280  175.1610  145.5500 C   0  0  0  0  0  2  0  0  0  0  0  0
  192.7630  176.0120  145.3200 C   0  0  0  0  0  3  0  0  0  0  0  0
  193.2700  176.5070  146.6590 C   0  0  0  0  0  2  0  0  0  0  0  0
  193.9520  175.3420  145.9780 C   0  0  0  0  0  2  0  0  0  0  0  0
  1  7  1  0  0  0  0
  1 29  1  0  0  0  0
  2  6  2  0  0  0  0
  3 10  1  0  0  0  0
  3  2  1  0  0  0  0
  4 15  1  0  0  0  0
  4 13  2  0  0  0  0
  5 19  1  6  0  0  0
  5  4  1  0  0  0  0
  7 20  1  0  0  0  0
  8 11  1  0  0  0  0
  9  8  2  0  0  0  0
  9 15  1  0  0  0  0
 10  8  1  0  0  0  0
 11  6  1  0  0  0  0
 11  7  2  0  0  0  0
 12 16  1  0  0  0  0
 12  9  1  0  0  0  0
 14 16  2  0  0  0  0
 15  1  2  0  0  0  0
 16  5  1  0  0  0  0
 17 19  2  0  0  0  0
 19 18  1  0  0  0  0
 20 21  1  0  0  0  0
 22 23  1  0  0  0  0
 22 21  1  0  0  0  0
 24 23  1  0  0  0  0
 25 28  1  0  0  0  0
 25 27  1  0  0  0  0
 26 25  2  0  0  0  0
 28 24  1  6  0  0  0
 28 27  1  0  0  0  0
 30 29  1  0  0  0  0
 30 32  1  0  0  0  0
 30 31  1  0  0  0  0
 32 31  1  0  0  0  0
M  END
>  <MODEL>
4

>  <REMARK>
 VINA RESULT:      -6.5      2.983      6.420
  Name = 
  9 active torsions:
  status: ('A' for Active; 'I' for Inactive)
    1  A    between atoms: C_2  and  C_10
    2  A    between atoms: C_2  and  C_12
    3  A    between atoms: C_3  and  C_28
    4  A    between atoms: C_7  and  C_22
    5  A    between atoms: C_8  and  C_28
    6  A    between atoms: C_9  and  C_14
    7  A    between atoms: C_9  and  C_21
    8  A    between atoms: C_10  and  CA_24
    9  A    between atoms: C_12  and  C_21
                            x       y       z     vdW  Elec       q    Type
                         _______ _______ _______ _____ _____    ______ ____

>  <TORSDO>
F 9

$$$$
=
 OpenBabel11052421323D

 32 36  0  0  1  0  0  0  0  0999 V2000
  189.2710  175.6470  145.4060 C   0  0  0  0  0  0  0  0  0  0  0  0
  189.5060  173.3050  141.1300 C   0  0  0  0  0  3  0  0  0  0  0  0
  188.1810  173.9000  140.7490 C   0  0  0  0  0  2  0  0  0  0  0  0
  187.6200  177.5610  145.7720 C   0  0  0  0  0  0  0  0  0  0  0  0
  186.3890  178.2860  145.3290 C   0  0  1  0  0  3  0  0  0  0  0  0
  190.0730  173.6030  142.3010 C   0  0  0  0  0  3  0  0  0  0  0  0
  189.8810  174.7070  144.5480 C   0  0  0  0  0  0  0  0  0  0  0  0
  188.4280  175.4220  142.7280 C   0  0  0  0  0  0  0  0  0  0  0  0
  187.8250  176.3750  143.5660 C   0  0  0  0  0  0  0  0  0  0  0  0
  188.0600  175.3350  141.2630 C   0  0  0  0  0  2  0  0  0  0  0  0
  189.4570  174.5950  143.2140 C   0  0  0  0  0  0  0  0  0  0  0  0
  186.6900  177.2010  143.0010 C   0  0  0  0  0  2  0  0  0  0  0  0
  188.1190  177.8830  146.8830 O   0  0  0  0  0  0  0  0  0  0  0  0
  185.9710  179.4200  143.3110 O   0  0  0  0  0  0  0  0  0  0  0  0
  188.2450  176.5010  144.9170 C   0  0  0  0  0  0  0  0  0  0  0  0
  186.3490  178.3890  143.8410 C   0  0  0  0  0  0  0  0  0  0  0  0
  185.1900  176.4150  146.1910 O   0  0  0  0  0  1  0  0  0  0  0  0
  183.9740  178.3490  146.0040 O   0  0  0  0  0  0  0  0  0  0  0  0
  185.1550  177.6290  145.8600 C   0  0  0  0  0  0  0  0  0  0  0  0
  190.9620  173.8000  145.0660 C   0  0  0  0  0  2  0  0  0  0  0  0
  192.3190  174.2630  144.5690 C   0  0  0  0  0  2  0  0  0  0  0  0
  193.4080  173.6080  145.3950 C   0  0  0  0  0  2  0  0  0  0  0  0
  194.4870  174.6200  145.7560 C   0  0  0  0  0  2  0  0  0  0  0  0
  194.2080  175.9810  145.1320 C   0  0  0  0  0  2  0  0  0  0  0  0
  195.3090  175.9460  143.0280 C   0  0  0  0  0  0  0  0  0  0  0  0
  194.8180  175.9330  141.8710 O   0  0  0  0  0  0  0  0  0  0  0  0
  196.2650  175.3930  144.0880 N   0  0  0  0  0  2  0  0  0  0  0  0
  195.3960  176.4580  144.3140 C   0  0  2  0  0  3  0  0  0  0  0  0
  189.6970  175.6850  146.8480 C   0  0  0  0  0  2  0  0  0  0  0  0
  191.0250  176.4080  146.9830 C   0  0  0  0  0  3  0  0  0  0  0  0
  191.1110  177.0140  148.3690 C   0  0  0  0  0  2  0  0  0  0  0  0
  191.8470  175.7300  148.0600 C   0  0  0  0  0  2  0  0  0  0  0  0
  1 29  1  0  0  0  0
  2  6  2  0  0  0  0
  3  2  1  0  0  0  0
  3 10  1  0  0  0  0
  4 13  2  0  0  0  0
  5  4  1  0  0  0  0
  5 19  1  6  0  0  0
  6 11  1  0  0  0  0
  7 20  1  0  0  0  0
  7  1  2  0  0  0  0
  8 11  2  0  0  0  0
  8  9  1  0  0  0  0
  9 15  2  0  0  0  0
 10  8  1  0  0  0  0
 11  7  1  0  0  0  0
 12  9  1  0  0  0  0
 12 16  1  0  0  0  0
 14 16  2  0  0  0  0
 15  1  1  0  0  0  0
 15  4  1  0  0  0  0
 16  5  1  0  0  0  0
 19 18  2  0  0  0  0
 19 17  1  0  0  0  0
 21 20  1  0  0  0  0
 21 22  1  0  0  0  0
 22 23  1  0  0  0  0
 24 23  1  0  0  0  0
 25 27  1  0  0  0  0
 25 28  1  0  0  0  0
 26 25  2  0  0  0  0
 27 28  1  0  0  0  0
 28 24  1  1  0  0  0
 29 30  1  0  0  0  0
 30 32  1  0  0  0  0
 30 31  1  0  0  0  0
 32 31  1  0  0  0  0
M  END
>  <MODEL>
5

>  <REMARK>
 VINA RESULT:      -6.4      1.943      3.439
  Name = 
  9 active torsions:
  status: ('A' for Active; 'I' for Inactive)
    1  A    between atoms: C_2  and  C_10
    2  A    between atoms: C_2  and  C_12
    3  A    between atoms: C_3  and  C_28
    4  A    between atoms: C_7  and  C_22
    5  A    between atoms: C_8  and  C_28
    6  A    between atoms: C_9  and  C_14
    7  A    between atoms: C_9  and  C_21
    8  A    between atoms: C_10  and  CA_24
    9  A    between atoms: C_12  and  C_21
                            x       y       z     vdW  Elec       q    Type
                         _______ _______ _______ _____ _____    ______ ____

>  <TORSDO>
F 9

$$$$
=
 OpenBabel11052421323D

 32 36  0  0  1  0  0  0  0  0999 V2000
  189.4310  175.8000  144.1500 C   0  0  0  0  0  0  0  0  0  0  0  0
  188.6230  172.7450  140.4290 C   0  0  0  0  0  3  0  0  0  0  0  0
  190.0720  172.3500  140.4590 C   0  0  0  0  0  2  0  0  0  0  0  0
  191.5570  175.6320  145.5550 C   0  0  0  0  0  0  0  0  0  0  0  0
  192.9550  175.1180  145.6970 C   0  0  1  0  0  3  0  0  0  0  0  0
  188.1410  173.6260  141.3090 C   0  0  0  0  0  3  0  0  0  0  0  0
  188.5950  175.2890  143.1340 C   0  0  0  0  0  0  0  0  0  0  0  0
  190.2320  173.5490  142.6560 C   0  0  0  0  0  0  0  0  0  0  0  0
  191.0670  174.0360  143.6770 C   0  0  0  0  0  0  0  0  0  0  0  0
  190.5910  172.2920  141.8960 C   0  0  0  0  0  2  0  0  0  0  0  0
  188.9970  174.1680  142.3900 C   0  0  0  0  0  0  0  0  0  0  0  0
  192.4050  173.3600  143.8830 C   0  0  0  0  0  2  0  0  0  0  0  0
  191.1490  176.4580  146.4130 O   0  0  0  0  0  0  0  0  0  0  0  0
  193.7290  172.8980  145.7720 O   0  0  0  0  0  0  0  0  0  0  0  0
  190.6720  175.1670  144.4390 C   0  0  0  0  0  0  0  0  0  0  0  0
  193.0560  173.7240  145.1780 C   0  0  0  0  0  0  0  0  0  0  0  0
  193.5380  176.7940  144.1050 O   0  0  0  0  0  0  0  0  0  0  0  0
  195.2730  176.0280  145.3920 O   0  0  0  0  0  1  0  0  0  0  0  0
  193.9340  176.0230  145.0170 C   0  0  0  0  0  0  0  0  0  0  0  0
  187.2860  175.9600  142.8240 C   0  0  0  0  0  2  0  0  0  0  0  0
  187.4270  176.8480  141.6010 C   0  0  0  0  0  2  0  0  0  0  0  0
  187.1490  178.2860  141.9900 C   0  0  0  0  0  2  0  0  0  0  0  0
  185.8800  178.3790  142.8250 C   0  0  0  0  0  2  0  0  0  0  0  0
  185.9980  179.4440  143.9070 C   0  0  0  0  0  2  0  0  0  0  0  0
  184.2220  178.6780  145.2840 C   0  0  0  0  0  0  0  0  0  0  0  0
  184.2650  177.9740  146.3250 O   0  0  0  0  0  0  0  0  0  0  0  0
  183.6630  178.9840  143.8910 N   0  0  0  0  0  2  0  0  0  0  0  0
  184.6420  179.7540  144.5170 C   0  0  2  0  0  3  0  0  0  0  0  0
  189.0030  177.0460  144.8730 C   0  0  0  0  0  2  0  0  0  0  0  0
  187.6950  176.8040  145.6050 C   0  0  0  0  0  3  0  0  0  0  0  0
  187.9860  176.0460  146.8840 C   0  0  0  0  0  2  0  0  0  0  0  0
  187.7310  177.5350  146.9310 C   0  0  0  0  0  2  0  0  0  0  0  0
  1 15  1  0  0  0  0
  1 29  1  0  0  0  0
  2  3  1  0  0  0  0
  2  6  2  0  0  0  0
  3 10  1  0  0  0  0
  4  5  1  0  0  0  0
  4 13  2  0  0  0  0
  5 19  1  6  0  0  0
  6 11  1  0  0  0  0
  7  1  2  0  0  0  0
  8  9  1  0  0  0  0
  9 12  1  0  0  0  0
  9 15  2  0  0  0  0
 10  8  1  0  0  0  0
 11  8  2  0  0  0  0
 11  7  1  0  0  0  0
 12 16  1  0  0  0  0
 15  4  1  0  0  0  0
 16  5  1  0  0  0  0
 16 14  2  0  0  0  0
 17 19  2  0  0  0  0
 19 18  1  0  0  0  0
 20  7  1  0  0  0  0
 21 22  1  0  0  0  0
 21 20  1  0  0  0  0
 22 23  1  0  0  0  0
 23 24  1  0  0  0  0
 25 26  2  0  0  0  0
 27 28  1  0  0  0  0
 27 25  1  0  0  0  0
 28 24  1  6  0  0  0
 28 25  1  0  0  0  0
 29 30  1  0  0  0  0
 30 31  1  0  0  0  0
 30 32  1  0  0  0  0
 31 32  1  0  0  0  0
M  END
>  <MODEL>
6

>  <REMARK>
 VINA RESULT:      -6.3      2.882      6.516
  Name = 
  9 active torsions:
  status: ('A' for Active; 'I' for Inactive)
    1  A    between atoms: C_2  and  C_10
    2  A    between atoms: C_2  and  C_12
    3  A    between atoms: C_3  and  C_28
    4  A    between atoms: C_7  and  C_22
    5  A    between atoms: C_8  and  C_28
    6  A    between atoms: C_9  and  C_14
    7  A    between atoms: C_9  and  C_21
    8  A    between atoms: C_10  and  CA_24
    9  A    between atoms: C_12  and  C_21
                            x       y       z     vdW  Elec       q    Type
                         _______ _______ _______ _____ _____    ______ ____

>  <TORSDO>
F 9

$$$$
=
 OpenBabel11052421323D

 32 36  0  0  1  0  0  0  0  0999 V2000
  189.2660  175.5000  143.2570 C   0  0  0  0  0  0  0  0  0  0  0  0
  192.1520  175.0530  147.1690 C   0  0  0  0  0  3  0  0  0  0  0  0
  191.2200  175.9450  147.9390 C   0  0  0  0  0  2  0  0  0  0  0  0
  186.8880  176.4070  143.4700 C   0  0  0  0  0  0  0  0  0  0  0  0
  185.8760  177.1540  144.2790 C   0  0  1  0  0  3  0  0  0  0  0  0
  191.8870  174.7260  145.9030 C   0  0  0  0  0  3  0  0  0  0  0  0
  190.4680  175.0680  143.8600 C   0  0  0  0  0  0  0  0  0  0  0  0
  189.5920  175.6770  146.0500 C   0  0  0  0  0  0  0  0  0  0  0  0
  188.3830  176.0930  145.4660 C   0  0  0  0  0  0  0  0  0  0  0  0
  189.7650  175.6760  147.5530 C   0  0  0  0  0  2  0  0  0  0  0  0
  190.6270  175.1590  145.2520 C   0  0  0  0  0  0  0  0  0  0  0  0
  187.3250  176.6880  146.3690 C   0  0  0  0  0  2  0  0  0  0  0  0
  186.5880  176.1190  142.2810 O   0  0  0  0  0  0  0  0  0  0  0  0
  184.9730  176.6330  146.3880 O   0  0  0  0  0  0  0  0  0  0  0  0
  188.2060  176.0050  144.0590 C   0  0  0  0  0  0  0  0  0  0  0  0
  185.9830  176.7850  145.7210 C   0  0  0  0  0  0  0  0  0  0  0  0
  186.3680  179.0810  142.9650 O   0  0  0  0  0  0  0  0  0  0  0  0
  185.7400  179.5110  145.1270 O   0  0  0  0  0  1  0  0  0  0  0  0
  186.0130  178.6310  144.0850 C   0  0  0  0  0  0  0  0  0  0  0  0
  191.5910  174.5390  143.0120 C   0  0  0  0  0  2  0  0  0  0  0  0
  192.4790  175.6770  142.5460 C   0  0  0  0  0  2  0  0  0  0  0  0
  193.9180  175.3760  142.9160 C   0  0  0  0  0  2  0  0  0  0  0  0
  194.4390  176.4010  143.9140 C   0  0  0  0  0  2  0  0  0  0  0  0
  195.2610  175.7430  145.0140 C   0  0  0  0  0  2  0  0  0  0  0  0
  196.8510  174.0370  145.4630 C   0  0  0  0  0  0  0  0  0  0  0  0
  197.0900  173.4320  146.5390 O   0  0  0  0  0  0  0  0  0  0  0  0
  197.3130  174.8230  144.2330 N   0  0  0  0  0  2  0  0  0  0  0  0
  195.9800  174.5100  144.4930 C   0  0  2  0  0  3  0  0  0  0  0  0
  189.1600  175.4590  141.7580 C   0  0  0  0  0  2  0  0  0  0  0  0
  188.8380  174.0500  141.2940 C   0  0  0  0  0  3  0  0  0  0  0  0
  188.3780  174.1060  139.8520 C   0  0  0  0  0  2  0  0  0  0  0  0
  189.7880  173.6700  140.1770 C   0  0  0  0  0  2  0  0  0  0  0  0
  1  7  2  0  0  0  0
  1 15  1  0  0  0  0
  2  3  1  0  0  0  0
  4 15  1  0  0  0  0
  4  5  1  0  0  0  0
  5 19  1  1  0  0  0
  5 16  1  0  0  0  0
  6  2  2  0  0  0  0
  7 11  1  0  0  0  0
  8 10  1  0  0  0  0
  9  8  1  0  0  0  0
  9 12  1  0  0  0  0
 10  3  1  0  0  0  0
 11  6  1  0  0  0  0
 11  8  2  0  0  0  0
 13  4  2  0  0  0  0
 15  9  2  0  0  0  0
 16 12  1  0  0  0  0
 16 14  2  0  0  0  0
 17 19  2  0  0  0  0
 19 18  1  0  0  0  0
 20  7  1  0  0  0  0
 21 22  1  0  0  0  0
 21 20  1  0  0  0  0
 22 23  1  0  0  0  0
 23 24  1  0  0  0  0
 25 26  2  0  0  0  0
 27 28  1  0  0  0  0
 27 25  1  0  0  0  0
 28 24  1  1  0  0  0
 28 25  1  0  0  0  0
 29  1  1  0  0  0  0
 30 29  1  0  0  0  0
 31 32  1  0  0  0  0
 31 30  1  0  0  0  0
 32 30  1  0  0  0  0
M  END
>  <MODEL>
7

>  <REMARK>
 VINA RESULT:      -6.3      2.455      4.947
  Name = 
  9 active torsions:
  status: ('A' for Active; 'I' for Inactive)
    1  A    between atoms: C_2  and  C_10
    2  A    between atoms: C_2  and  C_12
    3  A    between atoms: C_3  and  C_28
    4  A    between atoms: C_7  and  C_22
    5  A    between atoms: C_8  and  C_28
    6  A    between atoms: C_9  and  C_14
    7  A    between atoms: C_9  and  C_21
    8  A    between atoms: C_10  and  CA_24
    9  A    between atoms: C_12  and  C_21
                            x       y       z     vdW  Elec       q    Type
                         _______ _______ _______ _____ _____    ______ ____

>  <TORSDO>
F 9

$$$$
=
 OpenBabel11052421323D

 32 36  0  0  1  0  0  0  0  0999 V2000
  188.8960  175.9430  145.1760 C   0  0  0  0  0  0  0  0  0  0  0  0
  188.9730  174.5790  140.4900 C   0  0  0  0  0  3  0  0  0  0  0  0
  187.6560  175.2710  140.2830 C   0  0  0  0  0  2  0  0  0  0  0  0
  187.3060  177.7680  145.9920 C   0  0  0  0  0  0  0  0  0  0  0  0
  186.0850  178.5980  145.7500 C   0  0  1  0  0  3  0  0  0  0  0  0
  189.5730  174.6040  141.6820 C   0  0  0  0  0  3  0  0  0  0  0  0
  189.4600  175.1980  144.1190 C   0  0  0  0  0  0  0  0  0  0  0  0
  187.9880  176.3220  142.5360 C   0  0  0  0  0  0  0  0  0  0  0  0
  187.4300  177.0840  143.5770 C   0  0  0  0  0  0  0  0  0  0  0  0
  187.5860  176.5630  141.0980 C   0  0  0  0  0  2  0  0  0  0  0  0
  189.0050  175.3880  142.8040 C   0  0  0  0  0  0  0  0  0  0  0  0
  186.3050  178.0370  143.2350 C   0  0  0  0  0  2  0  0  0  0  0  0
  187.8370  177.8310  147.1320 O   0  0  0  0  0  0  0  0  0  0  0  0
  185.6530  180.1510  144.0360 O   0  0  0  0  0  0  0  0  0  0  0  0
  187.8820  176.9050  144.9110 C   0  0  0  0  0  0  0  0  0  0  0  0
  186.0150  179.0220  144.3210 C   0  0  0  0  0  0  0  0  0  0  0  0
  183.7460  178.4790  146.1940 O   0  0  0  0  0  0  0  0  0  0  0  0
  184.8950  176.5190  146.4920 O   0  0  0  0  0  1  0  0  0  0  0  0
  184.8450  177.8680  146.1600 C   0  0  0  0  0  0  0  0  0  0  0  0
  190.5280  174.1780  144.3990 C   0  0  0  0  0  2  0  0  0  0  0  0
  189.9040  172.8860  144.8940 C   0  0  0  0  0  2  0  0  0  0  0  0
  189.8240  171.8950  143.7490 C   0  0  0  0  0  2  0  0  0  0  0  0
  191.2000  171.6750  143.1370 C   0  0  0  0  0  2  0  0  0  0  0  0
  192.0910  170.8400  144.0470 C   0  0  0  0  0  2  0  0  0  0  0  0
  193.6790  172.4790  144.7030 C   0  0  0  0  0  0  0  0  0  0  0  0
  193.7780  173.1050  145.7890 O   0  0  0  0  0  0  0  0  0  0  0  0
  193.6170  172.4450  143.1730 N   0  0  0  0  0  2  0  0  0  0  0  0
  193.5350  171.3080  143.9760 C   0  0  2  0  0  3  0  0  0  0  0  0
  189.3540  175.6590  146.5800 C   0  0  0  0  0  2  0  0  0  0  0  0
  190.8090  176.0560  146.7460 C   0  0  0  0  0  3  0  0  0  0  0  0
  190.9640  176.8030  148.0550 C   0  0  0  0  0  2  0  0  0  0  0  0
  191.3760  175.3520  147.9620 C   0  0  0  0  0  2  0  0  0  0  0  0
  1 29  1  0  0  0  0
  2  6  2  0  0  0  0
  3  2  1  0  0  0  0
  3 10  1  0  0  0  0
  4 13  2  0  0  0  0
  5  4  1  0  0  0  0
  5 19  1  6  0  0  0
  6 11  1  0  0  0  0
  7 20  1  0  0  0  0
  7  1  2  0  0  0  0
  8 11  2  0  0  0  0
  8  9  1  0  0  0  0
  9 15  2  0  0  0  0
 10  8  1  0  0  0  0
 11  7  1  0  0  0  0
 12  9  1  0  0  0  0
 12 16  1  0  0  0  0
 14 16  2  0  0  0  0
 15  1  1  0  0  0  0
 15  4  1  0  0  0  0
 16  5  1  0  0  0  0
 19 17  2  0  0  0  0
 19 18  1  0  0  0  0
 20 21  1  0  0  0  0
 22 21  1  0  0  0  0
 23 22  1  0  0  0  0
 23 24  1  0  0  0  0
 25 26  2  0  0  0  0
 27 28  1  0  0  0  0
 27 25  1  0  0  0  0
 28 24  1  1  0  0  0
 28 25  1  0  0  0  0
 29 30  1  0  0  0  0
 30 32  1  0  0  0  0
 30 31  1  0  0  0  0
 32 31  1  0  0  0  0
M  END
>  <MODEL>
8

>  <REMARK>
 VINA RESULT:      -6.2      2.101      4.157
  Name = 
  9 active torsions:
  status: ('A' for Active; 'I' for Inactive)
    1  A    between atoms: C_2  and  C_10
    2  A    between atoms: C_2  and  C_12
    3  A    between atoms: C_3  and  C_28
    4  A    between atoms: C_7  and  C_22
    5  A    between atoms: C_8  and  C_28
    6  A    between atoms: C_9  and  C_14
    7  A    between atoms: C_9  and  C_21
    8  A    between atoms: C_10  and  CA_24
    9  A    between atoms: C_12  and  C_21
                            x       y       z     vdW  Elec       q    Type
                         _______ _______ _______ _____ _____    ______ ____

>  <TORSDO>
F 9

$$$$
=
 OpenBabel11052421323D

 32 36  0  0  1  0  0  0  0  0999 V2000
  189.6050  174.3910  143.7370 C   0  0  0  0  0  0  0  0  0  0  0  0
  191.1880  176.3170  147.9330 C   0  0  0  0  0  3  0  0  0  0  0  0
  190.3920  177.5590  147.6460 C   0  0  0  0  0  2  0  0  0  0  0  0
  187.6100  175.3930  142.4950 C   0  0  0  0  0  0  0  0  0  0  0  0
  186.6880  176.5530  142.2900 C   0  0  1  0  0  3  0  0  0  0  0  0
  191.1600  175.2830  147.0910 C   0  0  0  0  0  3  0  0  0  0  0  0
  190.4450  174.3540  144.8700 C   0  0  0  0  0  0  0  0  0  0  0  0
  189.2710  176.2720  145.8080 C   0  0  0  0  0  0  0  0  0  0  0  0
  188.4140  176.3080  144.6940 C   0  0  0  0  0  0  0  0  0  0  0  0
  189.0620  177.2100  146.9760 C   0  0  0  0  0  2  0  0  0  0  0  0
  190.2770  175.2940  145.9000 C   0  0  0  0  0  0  0  0  0  0  0  0
  187.3820  177.4130  144.6270 C   0  0  0  0  0  2  0  0  0  0  0  0
  187.5420  174.4400  141.6750 O   0  0  0  0  0  0  0  0  0  0  0  0
  185.1840  177.5500  143.8000 O   0  0  0  0  0  0  0  0  0  0  0  0
  188.5700  175.3630  143.6460 C   0  0  0  0  0  0  0  0  0  0  0  0
  186.3270  177.1730  143.5980 C   0  0  0  0  0  0  0  0  0  0  0  0
  188.3970  178.0790  141.6350 O   0  0  0  0  0  1  0  0  0  0  0  0
  186.6300  177.9160  140.1850 O   0  0  0  0  0  0  0  0  0  0  0  0
  187.2850  177.5590  141.3580 C   0  0  0  0  0  0  0  0  0  0  0  0
  191.5420  173.3300  144.9650 C   0  0  0  0  0  2  0  0  0  0  0  0
  192.8610  173.9290  144.5120 C   0  0  0  0  0  2  0  0  0  0  0  0
  193.9530  173.5340  145.4860 C   0  0  0  0  0  2  0  0  0  0  0  0
  194.8490  174.7260  145.7950 C   0  0  0  0  0  2  0  0  0  0  0  0
  194.3620  175.9880  145.0960 C   0  0  0  0  0  2  0  0  0  0  0  0
  195.4020  176.1220  142.9650 C   0  0  0  0  0  0  0  0  0  0  0  0
  194.8830  176.0840  141.8200 O   0  0  0  0  0  0  0  0  0  0  0  0
  196.4400  175.6480  143.9850 N   0  0  0  0  0  2  0  0  0  0  0  0
  195.4690  176.6090  144.2610 C   0  0  2  0  0  3  0  0  0  0  0  0
  189.8630  173.4180  142.6200 C   0  0  0  0  0  2  0  0  0  0  0  0
  190.8090  174.0280  141.6020 C   0  0  0  0  0  3  0  0  0  0  0  0
  191.7490  172.9500  141.1040 C   0  0  0  0  0  2  0  0  0  0  0  0
  190.5720  173.3750  140.2560 C   0  0  0  0  0  2  0  0  0  0  0  0
  1  7  1  0  0  0  0
  3  2  1  0  0  0  0
  4 15  1  0  0  0  0
  5 19  1  6  0  0  0
  5  4  1  0  0  0  0
  5 16  1  0  0  0  0
  6  2  2  0  0  0  0
  7 20  1  0  0  0  0
  7 11  2  0  0  0  0
  8 11  1  0  0  0  0
  8 10  1  0  0  0  0
  9  8  2  0  0  0  0
 10  3  1  0  0  0  0
 11  6  1  0  0  0  0
 12  9  1  0  0  0  0
 13  4  2  0  0  0  0
 15  1  2  0  0  0  0
 15  9  1  0  0  0  0
 16 14  2  0  0  0  0
 16 12  1  0  0  0  0
 18 19  2  0  0  0  0
 19 17  1  0  0  0  0
 21 20  1  0  0  0  0
 21 22  1  0  0  0  0
 22 23  1  0  0  0  0
 24 23  1  0  0  0  0
 25 27  1  0  0  0  0
 25 28  1  0  0  0  0
 26 25  2  0  0  0  0
 27 28  1  0  0  0  0
 28 24  1  1  0  0  0
 29  1  1  0  0  0  0
 30 29  1  0  0  0  0
 31 30  1  0  0  0  0
 32 31  1  0  0  0  0
 32 30  1  0  0  0  0
M  END
>  <MODEL>
9

>  <REMARK>
 VINA RESULT:      -6.2      2.018      4.666
  Name = 
  9 active torsions:
  status: ('A' for Active; 'I' for Inactive)
    1  A    between atoms: C_2  and  C_10
    2  A    between atoms: C_2  and  C_12
    3  A    between atoms: C_3  and  C_28
    4  A    between atoms: C_7  and  C_22
    5  A    between atoms: C_8  and  C_28
    6  A    between atoms: C_9  and  C_14
    7  A    between atoms: C_9  and  C_21
    8  A    between atoms: C_10  and  CA_24
    9  A    between atoms: C_12  and  C_21
                            x       y       z     vdW  Elec       q    Type
                         _______ _______ _______ _____ _____    ______ ____

>  <TORSDO>
F 9

$$$$
