=
 OpenBabel11052419273D

 55 62  0  0  1  0  0  0  0  0999 V2000
  188.2640  175.4130  141.7560 O   0  0  0  0  0  0  0  0  0  0  0  0
  191.8650  174.5480  146.2800 O   0  0  0  0  0  0  0  0  0  0  0  0
  188.9920  174.1610  147.3470 C   0  0  0  0  0  1  0  0  0  0  0  0
  193.8190  173.8670  144.3650 C   0  0  0  0  0  2  0  0  0  0  0  0
  195.1480  175.8840  145.0750 C   0  0  0  0  0  2  0  0  0  0  0  0
  189.1920  178.0350  147.1770 S   0  0  0  0  0  0  0  0  0  0  0  0
  188.1050  179.0890  148.2210 C   0  0  0  0  0  2  0  0  0  0  0  0
  186.7420  177.7160  145.9610 C   0  0  1  0  0  3  0  0  0  0  0  0
  185.9620  178.4780  147.0370 C   0  0  0  0  0  2  0  0  0  0  0  0
  188.8870  176.3720  144.2990 O   0  0  0  0  0  0  0  0  0  0  0  0
  196.1550  173.7040  144.9710 O   0  0  0  0  0  0  0  0  0  0  0  0
  196.0820  174.8740  145.7450 C   0  0  0  0  0  2  0  0  0  0  0  0
  186.6860  178.5440  148.3820 C   0  0  0  0  0  2  0  0  0  0  0  0
  191.0940  173.1090  141.1810 C   0  0  0  0  0  3  0  0  0  0  0  0
  187.9090  176.8940  146.5370 C   0  0  1  0  0  3  0  0  0  0  0  0
  191.9720  175.2130  142.0020 C   0  0  0  0  0  0  0  0  0  0  0  0
  187.9260  176.7630  142.0790 C   0  0  1  0  0  3  0  0  0  0  0  0
  190.6720  175.7320  142.0450 C   0  0  0  0  0  3  0  0  0  0  0  0
  186.4010  176.4730  143.8730 C   0  0  2  0  0  3  0  0  0  0  0  0
  186.5000  177.0080  141.5980 C   0  0  0  0  0  2  0  0  0  0  0  0
  193.0630  175.2800  146.3060 C   0  0  0  0  0  2  0  0  0  0  0  0
  185.8220  176.8950  145.1690 N   0  0  0  0  0  2  0  0  0  0  0  0
  190.8520  175.5050  146.3460 C   0  0  0  0  0  2  0  0  0  0  0  0
  189.4970  174.8580  146.0960 C   0  0  2  0  0  3  0  0  0  0  0  0
  189.7950  173.6240  141.2480 C   0  0  0  0  0  3  0  0  0  0  0  0
  194.9080  173.0620  145.0950 C   0  0  2  0  0  3  0  0  0  0  0  0
  193.7390  175.2990  144.9270 C   0  0  2  0  0  0  0  0  0  0  0  0
  189.5760  174.9350  141.6800 C   0  0  0  0  0  0  0  0  0  0  0  0
  188.4590  175.8420  145.5380 C   0  0  2  0  0  3  0  0  0  0  0  0
  187.8190  176.9690  143.5760 C   0  0  1  0  0  3  0  0  0  0  0  0
  192.9270  176.2360  144.0250 C   0  0  0  0  0  2  0  0  0  0  0  0
  185.5680  176.8310  142.7150 N   0  0  0  0  0  0  0  0  0  0  0  0
  193.1130  176.0200  142.5250 C   0  0  0  0  0  2  0  0  0  0  0  0
  192.1810  173.9020  141.5630 C   0  0  0  0  0  3  0  0  0  0  0  0
  184.9280  178.1330  142.9010 C   0  0  0  0  0  2  0  0  0  0  0  0
  184.1820  178.5560  141.6370 C   0  0  0  0  0  2  0  0  0  0  0  0
  181.9080  179.0390  142.6380 C   0  0  0  0  0  2  0  0  0  0  0  0
  180.6680  178.2010  140.5370 C   0  0  0  0  0  2  0  0  0  0  0  0
  182.6940  178.1970  141.6560 C   0  0  1  0  0  3  0  0  0  0  0  0
  182.1000  178.3320  140.3380 N   0  0  0  0  0  2  0  0  0  0  0  0
  180.1950  179.0850  142.0520 S   0  0  0  0  0  0  0  0  0  0  0  0
  194.9910  171.5640  144.6670 C   0  0  2  0  0  0  0  0  0  0  0  0
  193.8450  170.7330  145.2860 C   0  0  0  0  0  3  0  0  0  0  0  0
  194.2700  169.4490  145.6340 O   0  0  0  0  0  1  0  0  0  0  0  0
  192.7310  170.6500  144.4500 O   0  0  0  0  0  1  0  0  0  0  0  0
  196.3020  170.9040  145.1520 C   0  0  0  0  0  2  0  0  0  0  0  0
  196.5900  171.2170  146.4850 O   0  0  0  0  0  1  0  0  0  0  0  0
  194.8550  171.4330  143.2570 O   0  0  0  0  0  0  0  0  0  0  0  0
  195.3350  169.7360  140.4350 O   0  0  0  0  0  0  0  0  0  0  0  0
  196.0670  171.0190  142.6650 C   0  0  2  0  0  3  0  0  0  0  0  0
  196.4680  171.8570  141.5740 C   0  0  2  0  0  0  0  0  0  0  0  0
  195.7810  170.5430  141.2320 C   0  0  0  0  0  0  0  0  0  0  0  0
  197.9410  171.8410  141.2170 C   0  0  0  0  0  1  0  0  0  0  0  0
  195.6410  173.0800  141.1940 C   0  0  0  0  0  2  0  0  0  0  0  0
  196.1730  174.2170  141.8030 O   0  0  0  0  0  1  0  0  0  0  0  0
  1 17  1  0  0  0  0
  2 21  1  0  0  0  0
  2 23  1  0  0  0  0
  4 27  1  0  0  0  0
  4 26  1  0  0  0  0
  5 12  1  0  0  0  0
  6  7  1  0  0  0  0
  7 13  1  0  0  0  0
  8 15  1  0  0  0  0
  8  9  1  1  0  0  0
  9 13  1  0  0  0  0
 11 26  1  0  0  0  0
 11 12  1  0  0  0  0
 14 25  2  0  0  0  0
 14 34  1  0  0  0  0
 15  6  1  6  0  0  0
 16 18  1  0  0  0  0
 16 33  1  0  0  0  0
 17 20  1  6  0  0  0
 17 30  1  0  0  0  0
 19 22  1  1  0  0  0
 20 32  1  0  0  0  0
 22  8  1  0  0  0  0
 24 23  1  0  0  0  0
 24  3  1  1  0  0  0
 25 28  1  0  0  0  0
 26 42  1  6  0  0  0
 27 31  1  6  0  0  0
 27  5  1  0  0  0  0
 27 21  1  0  0  0  0
 28  1  1  0  0  0  0
 28 18  2  0  0  0  0
 29 10  1  6  0  0  0
 29 24  1  0  0  0  0
 29 15  1  0  0  0  0
 30 19  1  0  0  0  0
 30 10  1  1  0  0  0
 32 35  1  0  0  0  0
 32 19  1  0  0  0  0
 33 31  1  0  0  0  0
 34 16  2  0  0  0  0
 36 35  1  0  0  0  0
 38 41  1  0  0  0  0
 39 36  1  6  0  0  0
 39 37  1  0  0  0  0
 40 38  1  0  0  0  0
 40 39  1  0  0  0  0
 41 37  1  0  0  0  0
 42 46  1  1  0  0  0
 42 43  1  0  0  0  0
 43 44  1  0  0  0  0
 45 43  1  0  0  0  0
 46 47  1  0  0  0  0
 48 42  1  0  0  0  0
 49 52  2  0  0  0  0
 50 48  1  1  0  0  0
 51 53  1  6  0  0  0
 51 50  1  0  0  0  0
 52 51  1  0  0  0  0
 52 50  1  0  0  0  0
 54 51  1  0  0  0  0
 54 55  1  0  0  0  0
M  END
>  <MODEL>
1

>  <REMARK>
 VINA RESULT:      -7.1      0.000      0.000
  Name = 
  9 active torsions:
  status: ('A' for Active; 'I' for Inactive)
    1  A    between atoms: C_1  and  C_53
    2  A    between atoms: C_6  and  C_53
    3  A    between atoms: C_11  and  C_29
    4  A    between atoms: C_12  and  O_14
    5  A    between atoms: C_13  and  C_48
    6  A    between atoms: C_13  and  N_52
    7  A    between atoms: O_14  and  C_53
    8  A    between atoms: C_32  and  C_48
    9  A    between atoms: C_42  and  C_53
                            x       y       z     vdW  Elec       q    Type
                         _______ _______ _______ _____ _____    ______ ____

>  <TORSDO>
F 9

$$$$
=
 OpenBabel11052419273D

 55 62  0  0  1  0  0  0  0  0999 V2000
  188.1930  175.5320  141.8070 O   0  0  0  0  0  0  0  0  0  0  0  0
  191.9320  174.7670  146.2370 O   0  0  0  0  0  0  0  0  0  0  0  0
  189.1080  174.2090  147.3550 C   0  0  0  0  0  1  0  0  0  0  0  0
  193.8770  174.2290  144.2680 C   0  0  0  0  0  2  0  0  0  0  0  0
  195.1140  176.2990  144.9930 C   0  0  0  0  0  2  0  0  0  0  0  0
  189.1000  178.0900  147.2620 S   0  0  0  0  0  0  0  0  0  0  0  0
  187.9820  179.0650  148.3500 C   0  0  0  0  0  2  0  0  0  0  0  0
  186.6450  177.6670  146.0900 C   0  0  1  0  0  3  0  0  0  0  0  0
  185.8490  178.3650  147.1980 C   0  0  0  0  0  2  0  0  0  0  0  0
  188.8200  176.4720  144.3570 O   0  0  0  0  0  0  0  0  0  0  0  0
  196.2310  174.1780  144.8220 O   0  0  0  0  0  0  0  0  0  0  0  0
  196.1130  175.3270  145.6220 C   0  0  0  0  0  2  0  0  0  0  0  0
  186.5980  178.4430  148.5290 C   0  0  0  0  0  2  0  0  0  0  0  0
  191.1270  173.3920  141.1250 C   0  0  0  0  0  3  0  0  0  0  0  0
  187.8650  176.8960  146.6250 C   0  0  1  0  0  3  0  0  0  0  0  0
  191.9110  175.5220  141.9720 C   0  0  0  0  0  0  0  0  0  0  0  0
  187.7920  176.8550  142.1650 C   0  0  1  0  0  3  0  0  0  0  0  0
  190.5870  175.9710  142.0530 C   0  0  0  0  0  3  0  0  0  0  0  0
  186.3240  176.4490  143.9840 C   0  0  2  0  0  3  0  0  0  0  0  0
  186.3450  177.0330  141.7190 C   0  0  0  0  0  2  0  0  0  0  0  0
  193.0900  175.5610  146.2530 C   0  0  0  0  0  2  0  0  0  0  0  0
  185.7520  176.8150  145.3010 N   0  0  0  0  0  2  0  0  0  0  0  0
  190.8720  175.6690  146.3440 C   0  0  0  0  0  2  0  0  0  0  0  0
  189.5480  174.9560  146.1080 C   0  0  2  0  0  3  0  0  0  0  0  0
  189.8050  173.8360  141.2300 C   0  0  0  0  0  3  0  0  0  0  0  0
  195.0220  173.4680  144.9580 C   0  0  2  0  0  3  0  0  0  0  0  0
  193.7350  175.6430  144.8620 C   0  0  2  0  0  0  0  0  0  0  0  0
  189.5270  175.1250  141.6950 C   0  0  0  0  0  0  0  0  0  0  0  0
  188.4470  175.8950  145.5920 C   0  0  2  0  0  3  0  0  0  0  0  0
  187.7070  177.0250  143.6680 C   0  0  1  0  0  3  0  0  0  0  0  0
  192.8550  176.5540  143.9960 C   0  0  0  0  0  2  0  0  0  0  0  0
  185.4480  176.7860  142.8510 N   0  0  0  0  0  0  0  0  0  0  0  0
  193.0190  176.3780  142.4880 C   0  0  0  0  0  2  0  0  0  0  0  0
  192.1790  174.2330  141.5010 C   0  0  0  0  0  3  0  0  0  0  0  0
  184.7450  178.0480  143.0780 C   0  0  0  0  0  2  0  0  0  0  0  0
  184.0860  178.5390  141.7900 C   0  0  0  0  0  2  0  0  0  0  0  0
  181.7230  179.1010  142.5020 C   0  0  0  0  0  2  0  0  0  0  0  0
  180.7030  178.0730  140.3670 C   0  0  0  0  0  2  0  0  0  0  0  0
  182.6020  178.1780  141.6860 C   0  0  1  0  0  3  0  0  0  0  0  0
  182.1490  178.1910  140.3070 N   0  0  0  0  0  2  0  0  0  0  0  0
  180.0800  179.0880  141.7390 S   0  0  0  0  0  0  0  0  0  0  0  0
  195.1740  171.9860  144.4970 C   0  0  2  0  0  0  0  0  0  0  0  0
  196.3550  171.2890  145.2110 C   0  0  0  0  0  3  0  0  0  0  0  0
  196.1110  169.9270  145.3980 O   0  0  0  0  0  1  0  0  0  0  0  0
  196.6670  171.8840  146.4330 O   0  0  0  0  0  1  0  0  0  0  0  0
  195.4770  171.8870  142.9840 C   0  0  0  0  0  2  0  0  0  0  0  0
  196.8480  171.7720  142.7250 O   0  0  0  0  0  1  0  0  0  0  0  0
  194.0150  171.2320  144.8270 O   0  0  0  0  0  0  0  0  0  0  0  0
  192.5200  168.2590  144.8580 O   0  0  0  0  0  0  0  0  0  0  0  0
  193.5990  170.4350  143.7380 C   0  0  2  0  0  3  0  0  0  0  0  0
  192.1890  170.5190  143.4930 C   0  0  2  0  0  0  0  0  0  0  0  0
  192.6950  169.3100  144.2660 C   0  0  0  0  0  0  0  0  0  0  0  0
  191.7240  170.1520  142.0990 C   0  0  0  0  0  1  0  0  0  0  0  0
  191.3120  171.4400  144.3350 C   0  0  0  0  0  2  0  0  0  0  0  0
  190.0310  171.5030  143.7850 O   0  0  0  0  0  1  0  0  0  0  0  0
  1 17  1  0  0  0  0
  2 21  1  0  0  0  0
  2 23  1  0  0  0  0
  4 27  1  0  0  0  0
  4 26  1  0  0  0  0
  5 12  1  0  0  0  0
  6  7  1  0  0  0  0
  7 13  1  0  0  0  0
  8 15  1  0  0  0  0
  8  9  1  1  0  0  0
  9 13  1  0  0  0  0
 11 26  1  0  0  0  0
 11 12  1  0  0  0  0
 14 25  2  0  0  0  0
 14 34  1  0  0  0  0
 15  6  1  6  0  0  0
 16 18  1  0  0  0  0
 16 33  1  0  0  0  0
 17 20  1  6  0  0  0
 17 30  1  0  0  0  0
 19 22  1  1  0  0  0
 20 32  1  0  0  0  0
 22  8  1  0  0  0  0
 24 23  1  0  0  0  0
 24  3  1  1  0  0  0
 25 28  1  0  0  0  0
 26 42  1  6  0  0  0
 27 31  1  6  0  0  0
 27  5  1  0  0  0  0
 27 21  1  0  0  0  0
 28  1  1  0  0  0  0
 28 18  2  0  0  0  0
 29 10  1  6  0  0  0
 29 24  1  0  0  0  0
 29 15  1  0  0  0  0
 30 19  1  0  0  0  0
 30 10  1  1  0  0  0
 32 35  1  0  0  0  0
 32 19  1  0  0  0  0
 33 31  1  0  0  0  0
 34 16  2  0  0  0  0
 36 35  1  0  0  0  0
 38 41  1  0  0  0  0
 39 36  1  6  0  0  0
 39 37  1  0  0  0  0
 40 38  1  0  0  0  0
 40 39  1  0  0  0  0
 41 37  1  0  0  0  0
 42 46  1  6  0  0  0
 42 48  1  0  0  0  0
 42 43  1  0  0  0  0
 43 44  1  0  0  0  0
 43 45  1  0  0  0  0
 47 46  1  0  0  0  0
 50 52  1  0  0  0  0
 50 48  1  1  0  0  0
 51 53  1  6  0  0  0
 51 50  1  0  0  0  0
 51 52  1  0  0  0  0
 51 54  1  0  0  0  0
 52 49  2  0  0  0  0
 55 54  1  0  0  0  0
M  END
>  <MODEL>
2

>  <REMARK>
 VINA RESULT:      -7.0      1.033      2.183
  Name = 
  9 active torsions:
  status: ('A' for Active; 'I' for Inactive)
    1  A    between atoms: C_1  and  C_53
    2  A    between atoms: C_6  and  C_53
    3  A    between atoms: C_11  and  C_29
    4  A    between atoms: C_12  and  O_14
    5  A    between atoms: C_13  and  C_48
    6  A    between atoms: C_13  and  N_52
    7  A    between atoms: O_14  and  C_53
    8  A    between atoms: C_32  and  C_48
    9  A    between atoms: C_42  and  C_53
                            x       y       z     vdW  Elec       q    Type
                         _______ _______ _______ _____ _____    ______ ____

>  <TORSDO>
F 9

$$$$
=
 OpenBabel11052419273D

 55 62  0  0  1  0  0  0  0  0999 V2000
  190.9820  171.2440  139.2970 O   0  0  0  0  0  0  0  0  0  0  0  0
  191.8420  175.1580  143.5560 O   0  0  0  0  0  0  0  0  0  0  0  0
  193.9950  175.6980  141.4070 C   0  0  0  0  0  1  0  0  0  0  0  0
  189.1130  174.8150  144.1760 C   0  0  0  0  0  2  0  0  0  0  0  0
  189.7910  173.8450  146.4000 C   0  0  0  0  0  2  0  0  0  0  0  0
  195.4910  172.5800  143.1710 S   0  0  0  0  0  0  0  0  0  0  0  0
  197.2960  172.2270  143.1070 C   0  0  0  0  0  2  0  0  0  0  0  0
  195.8230  171.7520  140.5660 C   0  0  1  0  0  3  0  0  0  0  0  0
  197.3520  171.6920  140.6420 C   0  0  0  0  0  2  0  0  0  0  0  0
  192.8750  172.1100  141.1540 O   0  0  0  0  0  0  0  0  0  0  0  0
  188.1960  175.6380  146.2580 O   0  0  0  0  0  0  0  0  0  0  0  0
  189.3070  175.1750  146.9830 C   0  0  0  0  0  2  0  0  0  0  0  0
  197.9410  172.5520  141.7610 C   0  0  0  0  0  2  0  0  0  0  0  0
  188.0020  173.1080  140.4360 C   0  0  0  0  0  3  0  0  0  0  0  0
  195.2290  172.9100  141.3880 C   0  0  1  0  0  3  0  0  0  0  0  0
  189.0440  172.0740  142.3640 C   0  0  0  0  0  0  0  0  0  0  0  0
  191.9980  170.3310  139.7150 C   0  0  1  0  0  3  0  0  0  0  0  0
  190.0150  171.5080  141.5280 C   0  0  0  0  0  3  0  0  0  0  0  0
  193.9730  171.4240  138.9880 C   0  0  2  0  0  3  0  0  0  0  0  0
  192.5430  169.6470  138.4660 C   0  0  0  0  0  2  0  0  0  0  0  0
  191.5320  174.7670  144.8680 C   0  0  0  0  0  2  0  0  0  0  0  0
  195.3980  171.7900  139.1640 N   0  0  0  0  0  2  0  0  0  0  0  0
  192.8680  174.3020  143.1540 C   0  0  0  0  0  2  0  0  0  0  0  0
  193.1410  174.4690  141.6650 C   0  0  2  0  0  3  0  0  0  0  0  0
  188.9890  172.5610  139.6090 C   0  0  0  0  0  3  0  0  0  0  0  0
  188.6780  176.0410  144.9980 C   0  0  2  0  0  3  0  0  0  0  0  0
  190.1940  174.0180  144.9310 C   0  0  2  0  0  0  0  0  0  0  0  0
  189.9990  171.7600  140.1480 C   0  0  0  0  0  0  0  0  0  0  0  0
  193.7500  173.2120  141.0250 C   0  0  2  0  0  3  0  0  0  0  0  0
  193.2100  171.0550  140.2630 C   0  0  1  0  0  3  0  0  0  0  0  0
  190.4140  172.6230  144.3320 C   0  0  0  0  0  2  0  0  0  0  0  0
  193.7660  170.3270  138.0290 N   0  0  0  0  0  0  0  0  0  0  0  0
  189.1520  171.9150  143.8440 C   0  0  0  0  0  2  0  0  0  0  0  0
  188.0340  172.8690  141.8130 C   0  0  0  0  0  3  0  0  0  0  0  0
  194.8280  169.3250  138.1280 C   0  0  0  0  0  2  0  0  0  0  0  0
  195.0510  168.6390  136.7810 C   0  0  0  0  0  2  0  0  0  0  0  0
  195.5570  170.3130  134.9510 C   0  0  0  0  0  2  0  0  0  0  0  0
  197.9410  170.7450  135.8350 C   0  0  0  0  0  2  0  0  0  0  0  0
  196.1300  169.3070  135.9250 C   0  0  1  0  0  3  0  0  0  0  0  0
  197.1290  169.9630  136.7500 N   0  0  0  0  0  2  0  0  0  0  0  0
  196.8640  171.5140  134.5900 S   0  0  0  0  0  0  0  0  0  0  0  0
  187.6610  176.9720  144.2680 C   0  0  2  0  0  0  0  0  0  0  0  0
  187.1690  176.3450  142.9430 C   0  0  0  0  0  3  0  0  0  0  0  0
  187.7110  176.9960  141.8330 O   0  0  0  0  0  1  0  0  0  0  0  0
  185.7770  176.3260  142.8460 O   0  0  0  0  0  1  0  0  0  0  0  0
  188.3010  178.3250  143.8820 C   0  0  0  0  0  2  0  0  0  0  0  0
  189.6910  178.3190  144.0430 O   0  0  0  0  0  1  0  0  0  0  0  0
  186.5000  177.1740  145.0620 O   0  0  0  0  0  0  0  0  0  0  0  0
  183.8910  179.2260  145.3060 O   0  0  0  0  0  0  0  0  0  0  0  0
  186.4500  178.4920  145.5650 C   0  0  2  0  0  3  0  0  0  0  0  0
  185.9190  178.5610  146.8950 C   0  0  2  0  0  0  0  0  0  0  0  0
  184.9790  178.8970  145.7470 C   0  0  0  0  0  0  0  0  0  0  0  0
  186.2910  179.7860  147.7060 C   0  0  0  0  0  1  0  0  0  0  0  0
  185.5250  177.2880  147.6370 C   0  0  0  0  0  2  0  0  0  0  0  0
  184.6590  176.5320  146.8460 O   0  0  0  0  0  1  0  0  0  0  0  0
  1 17  1  0  0  0  0
  1 28  1  0  0  0  0
  2 21  1  0  0  0  0
  4 26  1  0  0  0  0
  5 12  1  0  0  0  0
  7  6  1  0  0  0  0
  8  9  1  6  0  0  0
  8 15  1  0  0  0  0
  9 13  1  0  0  0  0
 11 12  1  0  0  0  0
 13  7  1  0  0  0  0
 14 34  1  0  0  0  0
 15  6  1  1  0  0  0
 16 33  1  0  0  0  0
 17 20  1  6  0  0  0
 17 30  1  0  0  0  0
 18 16  1  0  0  0  0
 19 22  1  1  0  0  0
 19 30  1  0  0  0  0
 21 27  1  0  0  0  0
 22  8  1  0  0  0  0
 23  2  1  0  0  0  0
 24  3  1  1  0  0  0
 24 23  1  0  0  0  0
 25 28  1  0  0  0  0
 25 14  2  0  0  0  0
 26 42  1  6  0  0  0
 26 11  1  0  0  0  0
 27  4  1  6  0  0  0
 27  5  1  0  0  0  0
 28 18  2  0  0  0  0
 29 10  1  1  0  0  0
 29 15  1  0  0  0  0
 29 24  1  0  0  0  0
 30 10  1  6  0  0  0
 31 27  1  0  0  0  0
 32 35  1  0  0  0  0
 32 20  1  0  0  0  0
 32 19  1  0  0  0  0
 33 31  1  0  0  0  0
 34 16  2  0  0  0  0
 36 35  1  0  0  0  0
 37 39  1  0  0  0  0
 38 40  1  0  0  0  0
 39 40  1  0  0  0  0
 39 36  1  1  0  0  0
 41 37  1  0  0  0  0
 41 38  1  0  0  0  0
 42 46  1  6  0  0  0
 42 48  1  0  0  0  0
 43 42  1  0  0  0  0
 44 43  1  0  0  0  0
 45 43  1  0  0  0  0
 46 47  1  0  0  0  0
 49 52  2  0  0  0  0
 50 48  1  6  0  0  0
 50 52  1  0  0  0  0
 50 51  1  0  0  0  0
 51 54  1  0  0  0  0
 51 53  1  1  0  0  0
 52 51  1  0  0  0  0
 55 54  1  0  0  0  0
M  END
>  <MODEL>
3

>  <REMARK>
 VINA RESULT:      -6.6      4.799     10.742
  Name = 
  9 active torsions:
  status: ('A' for Active; 'I' for Inactive)
    1  A    between atoms: C_1  and  C_53
    2  A    between atoms: C_6  and  C_53
    3  A    between atoms: C_11  and  C_29
    4  A    between atoms: C_12  and  O_14
    5  A    between atoms: C_13  and  C_48
    6  A    between atoms: C_13  and  N_52
    7  A    between atoms: O_14  and  C_53
    8  A    between atoms: C_32  and  C_48
    9  A    between atoms: C_42  and  C_53
                            x       y       z     vdW  Elec       q    Type
                         _______ _______ _______ _____ _____    ______ ____

>  <TORSDO>
F 9

$$$$
=
 OpenBabel11052419273D

 55 62  0  0  1  0  0  0  0  0999 V2000
  194.0580  170.7550  142.7290 O   0  0  0  0  0  0  0  0  0  0  0  0
  189.6700  174.6090  142.4260 O   0  0  0  0  0  0  0  0  0  0  0  0
  188.5580  171.9160  141.4000 C   0  0  0  0  0  1  0  0  0  0  0  0
  191.0100  176.0240  144.4630 C   0  0  0  0  0  2  0  0  0  0  0  0
  191.3630  177.9220  142.8450 C   0  0  0  0  0  2  0  0  0  0  0  0
  190.5830  173.0950  138.3050 S   0  0  0  0  0  0  0  0  0  0  0  0
  190.1830  172.4810  136.6170 C   0  0  0  0  0  2  0  0  0  0  0  0
  191.4990  170.5010  138.4050 C   0  0  1  0  0  3  0  0  0  0  0  0
  190.9290  170.1080  137.0390 C   0  0  0  0  0  2  0  0  0  0  0  0
  192.2960  171.9620  140.9350 O   0  0  0  0  0  0  0  0  0  0  0  0
  190.3950  178.2980  145.0130 O   0  0  0  0  0  0  0  0  0  0  0  0
  190.2840  178.6440  143.6560 C   0  0  0  0  0  2  0  0  0  0  0  0
  189.7830  171.0070  136.5760 C   0  0  0  0  0  2  0  0  0  0  0  0
  193.4360  172.7740  145.7610 C   0  0  0  0  0  3  0  0  0  0  0  0
  190.5940  171.4810  139.1720 C   0  0  1  0  0  3  0  0  0  0  0  0
  193.7350  174.2780  143.8850 C   0  0  0  0  0  0  0  0  0  0  0  0
  194.4300  170.8310  141.3520 C   0  0  1  0  0  3  0  0  0  0  0  0
  193.9520  173.1790  143.0450 C   0  0  0  0  0  3  0  0  0  0  0  0
  192.7240  169.5540  140.3090 C   0  0  2  0  0  3  0  0  0  0  0  0
  194.9740  169.4660  140.9470 C   0  0  0  0  0  2  0  0  0  0  0  0
  189.9990  175.9470  142.1590 C   0  0  0  0  0  2  0  0  0  0  0  0
  191.7970  169.2950  139.1830 N   0  0  0  0  0  2  0  0  0  0  0  0
  190.0790  173.9010  141.2950 C   0  0  0  0  0  2  0  0  0  0  0  0
  189.9880  172.4030  141.5490 C   0  0  2  0  0  3  0  0  0  0  0  0
  193.6300  171.6770  144.9130 C   0  0  0  0  0  3  0  0  0  0  0  0
  189.9790  176.9570  145.1210 C   0  0  2  0  0  3  0  0  0  0  0  0
  191.2120  176.4020  142.9840 C   0  0  2  0  0  0  0  0  0  0  0  0
  193.8880  171.8730  143.5530 C   0  0  0  0  0  0  0  0  0  0  0  0
  190.9570  171.5890  140.6770 C   0  0  2  0  0  3  0  0  0  0  0  0
  193.2210  170.9960  140.4540 C   0  0  1  0  0  3  0  0  0  0  0  0
  192.4580  175.7450  142.3780 C   0  0  0  0  0  2  0  0  0  0  0  0
  193.9130  168.6880  140.2990 N   0  0  0  0  0  0  0  0  0  0  0  0
  193.6650  175.6530  143.3090 C   0  0  0  0  0  2  0  0  0  0  0  0
  193.4830  174.0720  145.2450 C   0  0  0  0  0  3  0  0  0  0  0  0
  194.3830  168.4440  138.9350 C   0  0  0  0  0  2  0  0  0  0  0  0
  195.9070  168.5390  138.8630 C   0  0  0  0  0  2  0  0  0  0  0  0
  195.3000  170.1420  137.0000 C   0  0  0  0  0  2  0  0  0  0  0  0
  197.6480  171.2080  136.9850 C   0  0  0  0  0  2  0  0  0  0  0  0
  196.4130  169.3830  137.6900 C   0  0  1  0  0  3  0  0  0  0  0  0
  197.4330  170.3240  138.1170 N   0  0  0  0  0  2  0  0  0  0  0  0
  196.0480  171.5940  136.2180 S   0  0  0  0  0  0  0  0  0  0  0  0
  189.6270  176.5840  146.5940 C   0  0  2  0  0  0  0  0  0  0  0  0
  190.5520  177.3090  147.5980 C   0  0  0  0  0  3  0  0  0  0  0  0
  191.1970  176.4070  148.4480 O   0  0  0  0  0  1  0  0  0  0  0  0
  189.8750  178.2660  148.3540 O   0  0  0  0  0  1  0  0  0  0  0  0
  189.8160  175.0730  146.8610 C   0  0  0  0  0  2  0  0  0  0  0  0
  188.7810  174.5400  147.6380 O   0  0  0  0  0  1  0  0  0  0  0  0
  188.3030  176.9890  146.9160 O   0  0  0  0  0  0  0  0  0  0  0  0
  185.1610  176.0370  146.3740 O   0  0  0  0  0  0  0  0  0  0  0  0
  187.5180  177.1360  145.7520 C   0  0  2  0  0  3  0  0  0  0  0  0
  186.5850  178.2210  145.8440 C   0  0  2  0  0  0  0  0  0  0  0  0
  186.0550  176.8170  146.0980 C   0  0  0  0  0  0  0  0  0  0  0  0
  186.0840  178.7910  144.5320 C   0  0  0  0  0  1  0  0  0  0  0  0
  186.5490  179.1060  147.0850 C   0  0  0  0  0  2  0  0  0  0  0  0
  185.2850  179.0410  147.6730 O   0  0  0  0  0  1  0  0  0  0  0  0
  1 28  1  0  0  0  0
  4 26  1  0  0  0  0
  5 27  1  0  0  0  0
  5 12  1  0  0  0  0
  7  6  1  0  0  0  0
  8  9  1  6  0  0  0
  8 15  1  0  0  0  0
  8 22  1  0  0  0  0
 11 26  1  0  0  0  0
 12 11  1  0  0  0  0
 13  7  1  0  0  0  0
 13  9  1  0  0  0  0
 15  6  1  6  0  0  0
 15 29  1  0  0  0  0
 16 34  2  0  0  0  0
 17 20  1  6  0  0  0
 17  1  1  0  0  0  0
 18 28  2  0  0  0  0
 18 16  1  0  0  0  0
 19 22  1  6  0  0  0
 19 30  1  0  0  0  0
 21  2  1  0  0  0  0
 23 24  1  0  0  0  0
 23  2  1  0  0  0  0
 24  3  1  6  0  0  0
 25 14  2  0  0  0  0
 26 42  1  1  0  0  0
 27 21  1  6  0  0  0
 27  4  1  0  0  0  0
 28 25  1  0  0  0  0
 29 10  1  6  0  0  0
 29 24  1  0  0  0  0
 30 10  1  1  0  0  0
 30 17  1  0  0  0  0
 31 27  1  0  0  0  0
 31 33  1  0  0  0  0
 32 19  1  0  0  0  0
 32 20  1  0  0  0  0
 33 16  1  0  0  0  0
 34 14  1  0  0  0  0
 35 32  1  0  0  0  0
 36 35  1  0  0  0  0
 37 39  1  0  0  0  0
 38 40  1  0  0  0  0
 39 40  1  0  0  0  0
 39 36  1  1  0  0  0
 41 38  1  0  0  0  0
 41 37  1  0  0  0  0
 42 46  1  1  0  0  0
 42 48  1  0  0  0  0
 42 43  1  0  0  0  0
 43 45  1  0  0  0  0
 43 44  1  0  0  0  0
 46 47  1  0  0  0  0
 50 51  1  0  0  0  0
 50 52  1  0  0  0  0
 50 48  1  1  0  0  0
 51 53  1  6  0  0  0
 51 52  1  0  0  0  0
 51 54  1  0  0  0  0
 52 49  2  0  0  0  0
 54 55  1  0  0  0  0
M  END
>  <MODEL>
4

>  <REMARK>
 VINA RESULT:      -6.2      4.555     10.290
  Name = 
  9 active torsions:
  status: ('A' for Active; 'I' for Inactive)
    1  A    between atoms: C_1  and  C_53
    2  A    between atoms: C_6  and  C_53
    3  A    between atoms: C_11  and  C_29
    4  A    between atoms: C_12  and  O_14
    5  A    between atoms: C_13  and  C_48
    6  A    between atoms: C_13  and  N_52
    7  A    between atoms: O_14  and  C_53
    8  A    between atoms: C_32  and  C_48
    9  A    between atoms: C_42  and  C_53
                            x       y       z     vdW  Elec       q    Type
                         _______ _______ _______ _____ _____    ______ ____

>  <TORSDO>
F 9

$$$$
=
 OpenBabel11052419273D

 55 62  0  0  1  0  0  0  0  0999 V2000
  195.2930  171.6470  143.3080 O   0  0  0  0  0  0  0  0  0  0  0  0
  190.1030  174.2670  142.6880 O   0  0  0  0  0  0  0  0  0  0  0  0
  189.6920  171.2980  141.9400 C   0  0  0  0  0  1  0  0  0  0  0  0
  191.0340  176.1570  144.5610 C   0  0  0  0  0  2  0  0  0  0  0  0
  190.9320  177.9170  142.7630 C   0  0  0  0  0  2  0  0  0  0  0  0
  191.4050  172.6300  138.7210 S   0  0  0  0  0  0  0  0  0  0  0  0
  191.1870  171.7760  137.1060 C   0  0  0  0  0  2  0  0  0  0  0  0
  192.9250  170.3590  139.0610 C   0  0  1  0  0  3  0  0  0  0  0  0
  192.4840  169.7080  137.7460 C   0  0  0  0  0  2  0  0  0  0  0  0
  193.3120  172.2080  141.4280 O   0  0  0  0  0  0  0  0  0  0  0  0
  189.8760  178.2540  144.8960 O   0  0  0  0  0  0  0  0  0  0  0  0
  189.7010  178.4300  143.5130 C   0  0  0  0  0  2  0  0  0  0  0  0
  191.1580  170.2520  137.2120 C   0  0  0  0  0  2  0  0  0  0  0  0
  194.1630  173.7370  146.1380 C   0  0  0  0  0  3  0  0  0  0  0  0
  191.7990  171.1590  139.7400 C   0  0  1  0  0  3  0  0  0  0  0  0
  194.1080  175.0790  144.1210 C   0  0  0  0  0  0  0  0  0  0  0  0
  195.6520  171.6770  141.9260 C   0  0  1  0  0  3  0  0  0  0  0  0
  194.5970  173.9900  143.3900 C   0  0  0  0  0  3  0  0  0  0  0  0
  194.3210  169.9280  141.0330 C   0  0  2  0  0  3  0  0  0  0  0  0
  196.5170  170.4530  141.6480 C   0  0  0  0  0  2  0  0  0  0  0  0
  190.0990  175.6130  142.2880 C   0  0  0  0  0  2  0  0  0  0  0  0
  193.4980  169.3430  139.9490 N   0  0  0  0  0  2  0  0  0  0  0  0
  190.6850  173.5740  141.6250 C   0  0  0  0  0  2  0  0  0  0  0  0
  190.9590  172.1310  142.0240 C   0  0  2  0  0  3  0  0  0  0  0  0
  194.6280  172.6440  145.3980 C   0  0  0  0  0  3  0  0  0  0  0  0
  189.7980  176.8690  145.1380 C   0  0  2  0  0  3  0  0  0  0  0  0
  191.1550  176.4270  143.0500 C   0  0  2  0  0  0  0  0  0  0  0  0
  194.8470  172.7630  144.0230 C   0  0  0  0  0  0  0  0  0  0  0  0
  192.1070  171.4970  141.2230 C   0  0  2  0  0  3  0  0  0  0  0  0
  194.4500  171.4540  141.0310 C   0  0  1  0  0  3  0  0  0  0  0  0
  192.5310  176.0380  142.4950 C   0  0  0  0  0  2  0  0  0  0  0  0
  195.6850  169.3810  141.0920 N   0  0  0  0  0  0  0  0  0  0  0  0
  193.7130  176.3330  143.4160 C   0  0  0  0  0  2  0  0  0  0  0  0
  193.8980  174.9510  145.4980 C   0  0  0  0  0  3  0  0  0  0  0  0
  196.2160  169.1280  139.7520 C   0  0  0  0  0  2  0  0  0  0  0  0
  197.4980  169.9270  139.5190 C   0  0  0  0  0  2  0  0  0  0  0  0
  196.2530  170.5040  137.3920 C   0  0  0  0  0  2  0  0  0  0  0  0
  197.1650  172.9170  137.3660 C   0  0  0  0  0  2  0  0  0  0  0  0
  197.4530  170.8040  138.2650 C   0  0  1  0  0  3  0  0  0  0  0  0
  197.4490  172.2150  138.6050 N   0  0  0  0  0  2  0  0  0  0  0  0
  195.8940  172.0050  136.4430 S   0  0  0  0  0  0  0  0  0  0  0  0
  189.5310  176.5670  146.6450 C   0  0  2  0  0  0  0  0  0  0  0  0
  190.4230  177.4310  147.5640 C   0  0  0  0  0  3  0  0  0  0  0  0
  191.2220  176.6440  148.3960 O   0  0  0  0  0  1  0  0  0  0  0  0
  189.6850  178.3310  148.3330 O   0  0  0  0  0  1  0  0  0  0  0  0
  189.8580  175.0980  146.9990 C   0  0  0  0  0  2  0  0  0  0  0  0
  188.7910  174.4570  147.6390 O   0  0  0  0  0  1  0  0  0  0  0  0
  188.1880  176.8790  146.9930 O   0  0  0  0  0  0  0  0  0  0  0  0
  185.0050  176.0450  146.5010 O   0  0  0  0  0  0  0  0  0  0  0  0
  187.3920  177.0560  145.8420 C   0  0  2  0  0  3  0  0  0  0  0  0
  186.5010  178.1750  145.9470 C   0  0  2  0  0  0  0  0  0  0  0  0
  185.9230  176.7910  146.2110 C   0  0  0  0  0  0  0  0  0  0  0  0
  186.0010  178.7630  144.6430 C   0  0  0  0  0  1  0  0  0  0  0  0
  186.5170  179.0610  147.1880 C   0  0  0  0  0  2  0  0  0  0  0  0
  185.4090  178.7750  147.9850 O   0  0  0  0  0  1  0  0  0  0  0  0
  1 28  1  0  0  0  0
  4 26  1  0  0  0  0
  5 27  1  0  0  0  0
  5 12  1  0  0  0  0
  7 13  1  0  0  0  0
  7  6  1  0  0  0  0
  8  9  1  6  0  0  0
  8 15  1  0  0  0  0
  8 22  1  0  0  0  0
 11 26  1  0  0  0  0
 12 11  1  0  0  0  0
 13  9  1  0  0  0  0
 15  6  1  6  0  0  0
 15 29  1  0  0  0  0
 16 34  2  0  0  0  0
 17 20  1  1  0  0  0
 17  1  1  0  0  0  0
 18 28  2  0  0  0  0
 18 16  1  0  0  0  0
 19 22  1  6  0  0  0
 19 32  1  0  0  0  0
 21  2  1  0  0  0  0
 23 24  1  0  0  0  0
 23  2  1  0  0  0  0
 24  3  1  6  0  0  0
 25 14  2  0  0  0  0
 26 42  1  1  0  0  0
 27 21  1  6  0  0  0
 27  4  1  0  0  0  0
 28 25  1  0  0  0  0
 29 10  1  6  0  0  0
 29 24  1  0  0  0  0
 30 19  1  0  0  0  0
 30 10  1  1  0  0  0
 30 17  1  0  0  0  0
 31 27  1  0  0  0  0
 31 33  1  0  0  0  0
 32 20  1  0  0  0  0
 33 16  1  0  0  0  0
 34 14  1  0  0  0  0
 35 32  1  0  0  0  0
 36 35  1  0  0  0  0
 37 39  1  0  0  0  0
 38 40  1  0  0  0  0
 39 40  1  0  0  0  0
 39 36  1  1  0  0  0
 41 38  1  0  0  0  0
 41 37  1  0  0  0  0
 42 48  1  0  0  0  0
 42 46  1  1  0  0  0
 42 43  1  0  0  0  0
 43 45  1  0  0  0  0
 43 44  1  0  0  0  0
 46 47  1  0  0  0  0
 50 51  1  0  0  0  0
 50 52  1  0  0  0  0
 50 48  1  1  0  0  0
 51 53  1  6  0  0  0
 51 52  1  0  0  0  0
 51 54  1  0  0  0  0
 52 49  2  0  0  0  0
 54 55  1  0  0  0  0
M  END
>  <MODEL>
5

>  <REMARK>
 VINA RESULT:      -6.2      4.444     10.423
  Name = 
  9 active torsions:
  status: ('A' for Active; 'I' for Inactive)
    1  A    between atoms: C_1  and  C_53
    2  A    between atoms: C_6  and  C_53
    3  A    between atoms: C_11  and  C_29
    4  A    between atoms: C_12  and  O_14
    5  A    between atoms: C_13  and  C_48
    6  A    between atoms: C_13  and  N_52
    7  A    between atoms: O_14  and  C_53
    8  A    between atoms: C_32  and  C_48
    9  A    between atoms: C_42  and  C_53
                            x       y       z     vdW  Elec       q    Type
                         _______ _______ _______ _____ _____    ______ ____

>  <TORSDO>
F 9

$$$$
=
 OpenBabel11052419273D

 55 62  0  0  1  0  0  0  0  0999 V2000
  189.4610  173.8350  141.4900 O   0  0  0  0  0  0  0  0  0  0  0  0
  195.1700  172.6470  141.0570 O   0  0  0  0  0  0  0  0  0  0  0  0
  194.3870  172.1720  144.0070 C   0  0  0  0  0  1  0  0  0  0  0  0
  194.6700  172.1180  138.3330 C   0  0  0  0  0  2  0  0  0  0  0  0
  196.1290  174.0810  137.7340 C   0  0  0  0  0  2  0  0  0  0  0  0
  194.5900  176.0490  143.9210 S   0  0  0  0  0  0  0  0  0  0  0  0
  194.8900  177.0180  145.4550 C   0  0  0  0  0  2  0  0  0  0  0  0
  192.1800  175.8130  145.2310 C   0  0  1  0  0  3  0  0  0  0  0  0
  192.6640  176.4890  146.5180 C   0  0  0  0  0  2  0  0  0  0  0  0
  191.9580  174.6040  142.4640 O   0  0  0  0  0  0  0  0  0  0  0  0
  196.4870  171.9180  136.7490 O   0  0  0  0  0  0  0  0  0  0  0  0
  197.1500  173.0270  137.3010 C   0  0  0  0  0  2  0  0  0  0  0  0
  194.1830  176.4580  146.6880 C   0  0  0  0  0  2  0  0  0  0  0  0
  190.4640  171.5890  138.7320 C   0  0  0  0  0  3  0  0  0  0  0  0
  193.2680  174.9540  144.5620 C   0  0  1  0  0  3  0  0  0  0  0  0
  191.7610  173.6290  138.5720 C   0  0  0  0  0  0  0  0  0  0  0  0
  189.6130  175.1550  142.0130 C   0  0  1  0  0  3  0  0  0  0  0  0
  191.0870  174.1390  139.6880 C   0  0  0  0  0  3  0  0  0  0  0  0
  190.2000  174.7270  144.2710 C   0  0  2  0  0  3  0  0  0  0  0  0
  188.4220  175.4300  142.9230 C   0  0  0  0  0  2  0  0  0  0  0  0
  195.9160  173.3800  140.1190 C   0  0  0  0  0  2  0  0  0  0  0  0
  190.9580  175.0500  145.5020 N   0  0  0  0  0  2  0  0  0  0  0  0
  194.7040  173.5940  141.9700 C   0  0  0  0  0  2  0  0  0  0  0  0
  193.6890  172.9620  142.9130 C   0  0  2  0  0  3  0  0  0  0  0  0
  189.8100  172.0930  139.8620 C   0  0  0  0  0  3  0  0  0  0  0  0
  195.8410  171.2640  137.8150 C   0  0  2  0  0  3  0  0  0  0  0  0
  195.1710  173.5030  138.7820 C   0  0  2  0  0  0  0  0  0  0  0  0
  190.1180  173.3680  140.3470 C   0  0  0  0  0  0  0  0  0  0  0  0
  192.6990  173.9810  143.4950 C   0  0  2  0  0  3  0  0  0  0  0  0
  190.7920  175.2490  142.9590 C   0  0  1  0  0  3  0  0  0  0  0  0
  194.0250  174.5030  138.9800 C   0  0  0  0  0  2  0  0  0  0  0  0
  188.7970  175.1680  144.3150 N   0  0  0  0  0  0  0  0  0  0  0  0
  192.8870  174.3990  137.9670 C   0  0  0  0  0  2  0  0  0  0  0  0
  191.4420  172.3560  138.0920 C   0  0  0  0  0  3  0  0  0  0  0  0
  188.6630  176.4500  145.0060 C   0  0  0  0  0  2  0  0  0  0  0  0
  187.4690  176.4300  145.9580 C   0  0  0  0  0  2  0  0  0  0  0  0
  185.1290  177.2790  146.4190 C   0  0  0  0  0  2  0  0  0  0  0  0
  185.2360  178.9870  144.4890 C   0  0  0  0  0  2  0  0  0  0  0  0
  186.2130  177.0880  145.3800 C   0  0  1  0  0  3  0  0  0  0  0  0
  186.5200  178.3720  144.7750 N   0  0  0  0  0  2  0  0  0  0  0  0
  184.1000  178.6640  145.8700 S   0  0  0  0  0  0  0  0  0  0  0  0
  195.4490  169.8030  137.4360 C   0  0  2  0  0  0  0  0  0  0  0  0
  196.6750  168.9930  136.9590 C   0  0  0  0  0  3  0  0  0  0  0  0
  197.8230  169.3210  137.6840 O   0  0  0  0  0  1  0  0  0  0  0  0
  196.9190  169.1450  135.5940 O   0  0  0  0  0  1  0  0  0  0  0  0
  194.4390  169.7680  136.2670 C   0  0  0  0  0  2  0  0  0  0  0  0
  193.9930  168.4710  135.9910 O   0  0  0  0  0  1  0  0  0  0  0  0
  194.9330  169.1090  138.5650 O   0  0  0  0  0  0  0  0  0  0  0  0
  191.7440  168.1710  138.7180 O   0  0  0  0  0  0  0  0  0  0  0  0
  193.8320  169.7920  139.1240 C   0  0  2  0  0  3  0  0  0  0  0  0
  193.4620  169.2890  140.4140 C   0  0  2  0  0  0  0  0  0  0  0  0
  192.6440  168.8220  139.2190 C   0  0  0  0  0  0  0  0  0  0  0  0
  192.6810  170.2330  141.3070 C   0  0  0  0  0  1  0  0  0  0  0  0
  194.2630  168.1670  141.0650 C   0  0  0  0  0  2  0  0  0  0  0  0
  195.3280  168.7050  141.7870 O   0  0  0  0  0  1  0  0  0  0  0  0
  1 17  1  0  0  0  0
  2 23  1  0  0  0  0
  4 27  1  0  0  0  0
  6  7  1  0  0  0  0
  7 13  1  0  0  0  0
  8 22  1  0  0  0  0
  8  9  1  1  0  0  0
  9 13  1  0  0  0  0
 11 12  1  0  0  0  0
 11 26  1  0  0  0  0
 12  5  1  0  0  0  0
 14 25  1  0  0  0  0
 15  6  1  6  0  0  0
 15  8  1  0  0  0  0
 16 18  2  0  0  0  0
 17 20  1  1  0  0  0
 17 30  1  0  0  0  0
 18 28  1  0  0  0  0
 19 32  1  0  0  0  0
 19 22  1  1  0  0  0
 20 32  1  0  0  0  0
 21  2  1  0  0  0  0
 23 24  1  0  0  0  0
 24 29  1  0  0  0  0
 24  3  1  1  0  0  0
 25 28  2  0  0  0  0
 26 42  1  6  0  0  0
 26  4  1  0  0  0  0
 27  5  1  6  0  0  0
 27 31  1  0  0  0  0
 27 21  1  0  0  0  0
 28  1  1  0  0  0  0
 29 10  1  6  0  0  0
 29 15  1  0  0  0  0
 30 10  1  6  0  0  0
 30 19  1  0  0  0  0
 32 35  1  0  0  0  0
 33 16  1  0  0  0  0
 33 31  1  0  0  0  0
 34 16  1  0  0  0  0
 34 14  2  0  0  0  0
 35 36  1  0  0  0  0
 38 40  1  0  0  0  0
 38 41  1  0  0  0  0
 39 36  1  1  0  0  0
 39 37  1  0  0  0  0
 40 39  1  0  0  0  0
 41 37  1  0  0  0  0
 42 46  1  6  0  0  0
 42 48  1  0  0  0  0
 43 42  1  0  0  0  0
 43 44  1  0  0  0  0
 45 43  1  0  0  0  0
 47 46  1  0  0  0  0
 49 52  2  0  0  0  0
 50 48  1  6  0  0  0
 50 52  1  0  0  0  0
 50 51  1  0  0  0  0
 51 54  1  0  0  0  0
 51 53  1  1  0  0  0
 52 51  1  0  0  0  0
 54 55  1  0  0  0  0
M  END
>  <MODEL>
6

>  <REMARK>
 VINA RESULT:      -5.7      3.056      6.027
  Name = 
  9 active torsions:
  status: ('A' for Active; 'I' for Inactive)
    1  A    between atoms: C_1  and  C_53
    2  A    between atoms: C_6  and  C_53
    3  A    between atoms: C_11  and  C_29
    4  A    between atoms: C_12  and  O_14
    5  A    between atoms: C_13  and  C_48
    6  A    between atoms: C_13  and  N_52
    7  A    between atoms: O_14  and  C_53
    8  A    between atoms: C_32  and  C_48
    9  A    between atoms: C_42  and  C_53
                            x       y       z     vdW  Elec       q    Type
                         _______ _______ _______ _____ _____    ______ ____

>  <TORSDO>
F 9

$$$$
=
 OpenBabel11052419273D

 55 62  0  0  1  0  0  0  0  0999 V2000
  194.1930  175.2670  142.3150 O   0  0  0  0  0  0  0  0  0  0  0  0
  188.3840  174.7620  142.7630 O   0  0  0  0  0  0  0  0  0  0  0  0
  189.4840  171.9220  142.2490 C   0  0  0  0  0  1  0  0  0  0  0  0
  188.4770  177.1220  144.3020 C   0  0  0  0  0  2  0  0  0  0  0  0
  187.1600  178.2900  142.5010 C   0  0  0  0  0  2  0  0  0  0  0  0
  189.6640  173.4310  138.6760 S   0  0  0  0  0  0  0  0  0  0  0  0
  189.6610  172.3500  137.1870 C   0  0  0  0  0  2  0  0  0  0  0  0
  192.1850  172.3270  138.7610 C   0  0  1  0  0  3  0  0  0  0  0  0
  191.9400  171.3510  137.6060 C   0  0  0  0  0  2  0  0  0  0  0  0
  191.9300  174.4520  140.9030 O   0  0  0  0  0  0  0  0  0  0  0  0
  186.4630  178.3650  144.8000 O   0  0  0  0  0  0  0  0  0  0  0  0
  185.9910  178.2150  143.4850 C   0  0  0  0  0  2  0  0  0  0  0  0
  190.4590  171.0590  137.3600 C   0  0  0  0  0  2  0  0  0  0  0  0
  192.6260  176.8970  145.2370 C   0  0  0  0  0  3  0  0  0  0  0  0
  190.9400  172.5380  139.6410 C   0  0  1  0  0  3  0  0  0  0  0  0
  191.5310  177.7010  143.2310 C   0  0  0  0  0  0  0  0  0  0  0  0
  194.2420  175.2650  140.8880 C   0  0  1  0  0  3  0  0  0  0  0  0
  192.3890  176.9140  142.4540 C   0  0  0  0  0  3  0  0  0  0  0  0
  193.9070  172.9700  140.3870 C   0  0  2  0  0  3  0  0  0  0  0  0
  195.5610  174.6230  140.4740 C   0  0  0  0  0  2  0  0  0  0  0  0
  187.6030  175.8410  142.3200 C   0  0  0  0  0  2  0  0  0  0  0  0
  193.3480  171.8920  139.5390 N   0  0  0  0  0  2  0  0  0  0  0  0
  189.0560  174.3090  141.6270 C   0  0  0  0  0  2  0  0  0  0  0  0
  190.1130  173.2840  142.0130 C   0  0  2  0  0  3  0  0  0  0  0  0
  193.4650  176.0940  144.4580 C   0  0  0  0  0  3  0  0  0  0  0  0
  187.1700  177.1880  145.1100 C   0  0  2  0  0  3  0  0  0  0  0  0
  188.1800  177.1840  142.7920 C   0  0  2  0  0  0  0  0  0  0  0  0
  193.3520  176.0970  143.0650 C   0  0  0  0  0  0  0  0  0  0  0  0
  191.2680  173.2070  141.0030 C   0  0  2  0  0  3  0  0  0  0  0  0
  193.2080  174.3300  140.2940 C   0  0  1  0  0  3  0  0  0  0  0  0
  189.4380  177.4670  141.9600 C   0  0  0  0  0  2  0  0  0  0  0  0
  195.3420  173.2070  140.1620 N   0  0  0  0  0  0  0  0  0  0  0  0
  190.4210  178.4570  142.5810 C   0  0  0  0  0  2  0  0  0  0  0  0
  191.6560  177.6960  144.6240 C   0  0  0  0  0  3  0  0  0  0  0  0
  195.6910  173.0590  138.7500 C   0  0  0  0  0  2  0  0  0  0  0  0
  196.7580  174.0750  138.3460 C   0  0  0  0  0  2  0  0  0  0  0  0
  195.1180  174.7950  136.5580 C   0  0  0  0  0  2  0  0  0  0  0  0
  196.8110  176.4160  135.4820 C   0  0  0  0  0  2  0  0  0  0  0  0
  196.5750  174.6260  136.9300 C   0  0  1  0  0  3  0  0  0  0  0  0
  197.2560  175.8970  136.7630 N   0  0  0  0  0  2  0  0  0  0  0  0
  195.0350  176.0860  135.2900 S   0  0  0  0  0  0  0  0  0  0  0  0
  187.3620  177.0250  146.6500 C   0  0  2  0  0  0  0  0  0  0  0  0
  186.0040  176.9540  147.3850 C   0  0  0  0  0  3  0  0  0  0  0  0
  186.0380  176.0410  148.4410 O   0  0  0  0  0  1  0  0  0  0  0  0
  184.9470  176.6450  146.5290 O   0  0  0  0  0  1  0  0  0  0  0  0
  188.1120  178.2290  147.2630 C   0  0  0  0  0  2  0  0  0  0  0  0
  187.3030  178.9700  148.1320 O   0  0  0  0  0  1  0  0  0  0  0  0
  188.0350  175.8090  146.9500 O   0  0  0  0  0  0  0  0  0  0  0  0
  190.9910  175.2870  148.3880 O   0  0  0  0  0  0  0  0  0  0  0  0
  189.3170  175.7780  146.3600 C   0  0  2  0  0  3  0  0  0  0  0  0
  189.8050  174.4450  146.1590 C   0  0  2  0  0  0  0  0  0  0  0  0
  190.3160  175.2030  147.3760 C   0  0  0  0  0  0  0  0  0  0  0  0
  190.8780  174.2730  145.1030 C   0  0  0  0  0  1  0  0  0  0  0  0
  188.9410  173.2430  146.5230 C   0  0  0  0  0  2  0  0  0  0  0  0
  189.3160  172.1430  145.7520 O   0  0  0  0  0  1  0  0  0  0  0  0
  1 28  1  0  0  0  0
  4 26  1  0  0  0  0
  5 27  1  0  0  0  0
  5 12  1  0  0  0  0
  7 13  1  0  0  0  0
  7  6  1  0  0  0  0
  8  9  1  6  0  0  0
  8 22  1  0  0  0  0
  8 15  1  0  0  0  0
 11 26  1  0  0  0  0
 12 11  1  0  0  0  0
 13  9  1  0  0  0  0
 15  6  1  6  0  0  0
 15 29  1  0  0  0  0
 16 34  2  0  0  0  0
 17 20  1  1  0  0  0
 17  1  1  0  0  0  0
 18 28  2  0  0  0  0
 18 16  1  0  0  0  0
 19 22  1  6  0  0  0
 21  2  1  0  0  0  0
 21 27  1  0  0  0  0
 23 24  1  0  0  0  0
 23  2  1  0  0  0  0
 24  3  1  6  0  0  0
 25 14  2  0  0  0  0
 26 42  1  1  0  0  0
 27 31  1  6  0  0  0
 27  4  1  0  0  0  0
 28 25  1  0  0  0  0
 29 10  1  6  0  0  0
 29 24  1  0  0  0  0
 30 19  1  0  0  0  0
 30 17  1  0  0  0  0
 30 10  1  1  0  0  0
 31 33  1  0  0  0  0
 32 19  1  0  0  0  0
 32 20  1  0  0  0  0
 33 16  1  0  0  0  0
 34 14  1  0  0  0  0
 35 32  1  0  0  0  0
 36 35  1  0  0  0  0
 37 39  1  0  0  0  0
 38 40  1  0  0  0  0
 39 36  1  1  0  0  0
 40 39  1  0  0  0  0
 41 38  1  0  0  0  0
 41 37  1  0  0  0  0
 42 48  1  0  0  0  0
 42 46  1  1  0  0  0
 42 43  1  0  0  0  0
 43 44  1  0  0  0  0
 45 43  1  0  0  0  0
 46 47  1  0  0  0  0
 50 48  1  1  0  0  0
 50 52  1  0  0  0  0
 51 53  1  6  0  0  0
 51 50  1  0  0  0  0
 51 54  1  0  0  0  0
 51 52  1  0  0  0  0
 52 49  2  0  0  0  0
 55 54  1  0  0  0  0
M  END
>  <MODEL>
7

>  <REMARK>
 VINA RESULT:      -5.7      4.350      9.646
  Name = 
  9 active torsions:
  status: ('A' for Active; 'I' for Inactive)
    1  A    between atoms: C_1  and  C_53
    2  A    between atoms: C_6  and  C_53
    3  A    between atoms: C_11  and  C_29
    4  A    between atoms: C_12  and  O_14
    5  A    between atoms: C_13  and  C_48
    6  A    between atoms: C_13  and  N_52
    7  A    between atoms: O_14  and  C_53
    8  A    between atoms: C_32  and  C_48
    9  A    between atoms: C_42  and  C_53
                            x       y       z     vdW  Elec       q    Type
                         _______ _______ _______ _____ _____    ______ ____

>  <TORSDO>
F 9

$$$$
=
 OpenBabel11052419273D

 55 62  0  0  1  0  0  0  0  0999 V2000
  193.4860  175.1970  142.5610 O   0  0  0  0  0  0  0  0  0  0  0  0
  187.6390  175.2490  142.6550 O   0  0  0  0  0  0  0  0  0  0  0  0
  188.4960  172.2910  142.4110 C   0  0  0  0  0  1  0  0  0  0  0  0
  187.8620  177.6990  144.0320 C   0  0  0  0  0  2  0  0  0  0  0  0
  186.7700  178.8430  142.0720 C   0  0  0  0  0  2  0  0  0  0  0  0
  189.0300  173.5090  138.7630 S   0  0  0  0  0  0  0  0  0  0  0  0
  189.0150  172.3250  137.3550 C   0  0  0  0  0  2  0  0  0  0  0  0
  191.4270  172.1930  139.0910 C   0  0  1  0  0  3  0  0  0  0  0  0
  191.1600  171.1600  137.9910 C   0  0  0  0  0  2  0  0  0  0  0  0
  191.2450  174.4850  141.0610 O   0  0  0  0  0  0  0  0  0  0  0  0
  185.9470  179.1510  144.3100 O   0  0  0  0  0  0  0  0  0  0  0  0
  185.5420  178.9460  142.9800 C   0  0  0  0  0  2  0  0  0  0  0  0
  189.6760  170.9840  137.6680 C   0  0  0  0  0  2  0  0  0  0  0  0
  191.9070  177.1730  145.2550 C   0  0  0  0  0  3  0  0  0  0  0  0
  190.1560  172.5790  139.8700 C   0  0  1  0  0  3  0  0  0  0  0  0
  191.0150  177.9210  143.1300 C   0  0  0  0  0  0  0  0  0  0  0  0
  193.6200  175.0840  141.1440 C   0  0  1  0  0  3  0  0  0  0  0  0
  191.8400  177.0050  142.4670 C   0  0  0  0  0  3  0  0  0  0  0  0
  193.1010  172.7980  140.7800 C   0  0  2  0  0  3  0  0  0  0  0  0
  194.8950  174.2980  140.8630 C   0  0  0  0  0  2  0  0  0  0  0  0
  186.9910  176.3580  142.0890 C   0  0  0  0  0  2  0  0  0  0  0  0
  192.4950  171.7140  139.9720 N   0  0  0  0  0  2  0  0  0  0  0  0
  188.3320  174.6540  141.6000 C   0  0  0  0  0  2  0  0  0  0  0  0
  189.2630  173.5700  142.1250 C   0  0  2  0  0  3  0  0  0  0  0  0
  192.7120  176.2420  144.5900 C   0  0  0  0  0  3  0  0  0  0  0  0
  186.5210  177.9410  144.7460 C   0  0  2  0  0  3  0  0  0  0  0  0
  187.6620  177.6740  142.5050 C   0  0  2  0  0  0  0  0  0  0  0  0
  192.6830  176.1520  143.1950 C   0  0  0  0  0  0  0  0  0  0  0  0
  190.4640  173.3150  141.2010 C   0  0  2  0  0  3  0  0  0  0  0  0
  192.5400  174.2040  140.5480 C   0  0  1  0  0  3  0  0  0  0  0  0
  188.9880  177.7810  141.7420 C   0  0  0  0  0  2  0  0  0  0  0  0
  194.5630  172.8880  140.6350 N   0  0  0  0  0  0  0  0  0  0  0  0
  190.0210  178.7230  142.3570 C   0  0  0  0  0  2  0  0  0  0  0  0
  191.0550  178.0080  144.5250 C   0  0  0  0  0  3  0  0  0  0  0  0
  194.9800  172.6050  139.2620 C   0  0  0  0  0  2  0  0  0  0  0  0
  196.4680  172.8980  139.0780 C   0  0  0  0  0  2  0  0  0  0  0  0
  195.6060  173.7090  136.8410 C   0  0  0  0  0  2  0  0  0  0  0  0
  197.2850  175.6650  136.7620 C   0  0  0  0  0  2  0  0  0  0  0  0
  196.7890  173.6480  137.7820 C   0  0  1  0  0  3  0  0  0  0  0  0
  197.2490  174.9980  138.0520 N   0  0  0  0  0  2  0  0  0  0  0  0
  195.8280  175.1710  135.7950 S   0  0  0  0  0  0  0  0  0  0  0  0
  186.6030  177.8760  146.3020 C   0  0  2  0  0  0  0  0  0  0  0  0
  185.5640  176.8910  146.8840 C   0  0  0  0  0  3  0  0  0  0  0  0
  184.2760  177.1690  146.4210 O   0  0  0  0  0  1  0  0  0  0  0  0
  185.5690  176.8720  148.2800 O   0  0  0  0  0  1  0  0  0  0  0  0
  186.2950  179.2460  146.9480 C   0  0  0  0  0  2  0  0  0  0  0  0
  186.9580  179.4170  148.1680 O   0  0  0  0  0  1  0  0  0  0  0  0
  187.8750  177.3980  146.7220 O   0  0  0  0  0  0  0  0  0  0  0  0
  189.3810  175.0340  144.9290 O   0  0  0  0  0  0  0  0  0  0  0  0
  187.8580  175.9990  146.9050 C   0  0  2  0  0  3  0  0  0  0  0  0
  189.0520  175.5050  147.5270 C   0  0  2  0  0  0  0  0  0  0  0  0
  188.9430  175.3710  146.0150 C   0  0  0  0  0  0  0  0  0  0  0  0
  188.9410  174.1660  148.2280 C   0  0  0  0  0  1  0  0  0  0  0  0
  190.1510  176.4670  147.9630 C   0  0  0  0  0  2  0  0  0  0  0  0
  191.3120  175.7520  148.2590 O   0  0  0  0  0  1  0  0  0  0  0  0
  1 28  1  0  0  0  0
  4 26  1  0  0  0  0
  5 27  1  0  0  0  0
  5 12  1  0  0  0  0
  7 13  1  0  0  0  0
  7  6  1  0  0  0  0
  8  9  1  6  0  0  0
  8 15  1  0  0  0  0
  8 22  1  0  0  0  0
 11 26  1  0  0  0  0
 12 11  1  0  0  0  0
 13  9  1  0  0  0  0
 15  6  1  6  0  0  0
 15 29  1  0  0  0  0
 16 34  1  0  0  0  0
 17 20  1  1  0  0  0
 17  1  1  0  0  0  0
 18 16  2  0  0  0  0
 18 28  1  0  0  0  0
 19 22  1  6  0  0  0
 21 27  1  0  0  0  0
 21  2  1  0  0  0  0
 23 24  1  0  0  0  0
 23  2  1  0  0  0  0
 24  3  1  6  0  0  0
 25 14  1  0  0  0  0
 26 42  1  1  0  0  0
 27 31  1  6  0  0  0
 27  4  1  0  0  0  0
 28 25  2  0  0  0  0
 29 10  1  6  0  0  0
 29 24  1  0  0  0  0
 30 19  1  0  0  0  0
 30 10  1  1  0  0  0
 30 17  1  0  0  0  0
 31 33  1  0  0  0  0
 32 19  1  0  0  0  0
 32 20  1  0  0  0  0
 33 16  1  0  0  0  0
 34 14  2  0  0  0  0
 35 32  1  0  0  0  0
 36 35  1  0  0  0  0
 37 39  1  0  0  0  0
 38 40  1  0  0  0  0
 39 40  1  0  0  0  0
 39 36  1  1  0  0  0
 41 38  1  0  0  0  0
 41 37  1  0  0  0  0
 42 48  1  0  0  0  0
 42 43  1  0  0  0  0
 42 46  1  1  0  0  0
 43 45  1  0  0  0  0
 44 43  1  0  0  0  0
 46 47  1  0  0  0  0
 49 52  2  0  0  0  0
 50 48  1  6  0  0  0
 50 51  1  0  0  0  0
 51 54  1  0  0  0  0
 51 53  1  1  0  0  0
 52 50  1  0  0  0  0
 52 51  1  0  0  0  0
 54 55  1  0  0  0  0
M  END
>  <MODEL>
8

>  <REMARK>
 VINA RESULT:      -5.6      4.260      9.900
  Name = 
  9 active torsions:
  status: ('A' for Active; 'I' for Inactive)
    1  A    between atoms: C_1  and  C_53
    2  A    between atoms: C_6  and  C_53
    3  A    between atoms: C_11  and  C_29
    4  A    between atoms: C_12  and  O_14
    5  A    between atoms: C_13  and  C_48
    6  A    between atoms: C_13  and  N_52
    7  A    between atoms: O_14  and  C_53
    8  A    between atoms: C_32  and  C_48
    9  A    between atoms: C_42  and  C_53
                            x       y       z     vdW  Elec       q    Type
                         _______ _______ _______ _____ _____    ______ ____

>  <TORSDO>
F 9

$$$$
=
 OpenBabel11052419273D

 55 62  0  0  1  0  0  0  0  0999 V2000
  190.9960  172.8560  139.2300 O   0  0  0  0  0  0  0  0  0  0  0  0
  191.6310  175.9020  144.1810 O   0  0  0  0  0  0  0  0  0  0  0  0
  193.5340  177.1740  142.1070 C   0  0  0  0  0  1  0  0  0  0  0  0
  189.0230  175.0500  144.8290 C   0  0  0  0  0  2  0  0  0  0  0  0
  189.9800  173.7560  146.7660 C   0  0  0  0  0  2  0  0  0  0  0  0
  195.5530  174.0120  143.1060 S   0  0  0  0  0  0  0  0  0  0  0  0
  197.3790  173.9430  142.8930 C   0  0  0  0  0  2  0  0  0  0  0  0
  195.8050  173.7890  140.3730 C   0  0  1  0  0  3  0  0  0  0  0  0
  197.3300  173.9350  140.3700 C   0  0  0  0  0  2  0  0  0  0  0  0
  192.8840  173.5900  141.1470 O   0  0  0  0  0  0  0  0  0  0  0  0
  188.1550  175.2910  147.0740 O   0  0  0  0  0  0  0  0  0  0  0  0
  189.3670  174.8550  147.6370 C   0  0  0  0  0  2  0  0  0  0  0  0
  197.8780  174.6250  141.6200 C   0  0  0  0  0  2  0  0  0  0  0  0
  187.8840  173.9980  140.8630 C   0  0  0  0  0  3  0  0  0  0  0  0
  195.1230  174.6560  141.4460 C   0  0  1  0  0  3  0  0  0  0  0  0
  189.1890  172.7550  142.4820 C   0  0  0  0  0  0  0  0  0  0  0  0
  192.1510  172.0330  139.4020 C   0  0  1  0  0  3  0  0  0  0  0  0
  190.1640  172.5170  141.5060 C   0  0  0  0  0  3  0  0  0  0  0  0
  193.9070  173.5250  138.8400 C   0  0  2  0  0  3  0  0  0  0  0  0
  192.6910  171.7040  138.0150 C   0  0  0  0  0  2  0  0  0  0  0  0
  191.4700  175.2120  145.3930 C   0  0  0  0  0  2  0  0  0  0  0  0
  195.2800  174.0490  139.0310 N   0  0  0  0  0  2  0  0  0  0  0  0
  192.7300  175.3040  143.5640 C   0  0  0  0  0  2  0  0  0  0  0  0
  192.8720  175.8080  142.1340 C   0  0  2  0  0  3  0  0  0  0  0  0
  188.8730  173.7790  139.8970 C   0  0  0  0  0  3  0  0  0  0  0  0
  188.4890  176.0070  145.9090 C   0  0  2  0  0  3  0  0  0  0  0  0
  190.2510  174.2800  145.3510 C   0  0  2  0  0  0  0  0  0  0  0  0
  190.0170  173.0400  140.2120 C   0  0  0  0  0  0  0  0  0  0  0  0
  193.5950  174.8100  141.2180 C   0  0  2  0  0  3  0  0  0  0  0  0
  193.2920  172.7970  140.0390 C   0  0  1  0  0  3  0  0  0  0  0  0
  190.6110  173.0830  144.4620 C   0  0  0  0  0  2  0  0  0  0  0  0
  193.7790  172.6280  137.6810 N   0  0  0  0  0  0  0  0  0  0  0  0
  189.4220  172.3160  143.8890 C   0  0  0  0  0  2  0  0  0  0  0  0
  188.0460  173.4910  142.1550 C   0  0  0  0  0  3  0  0  0  0  0  0
  194.9680  171.7910  137.5210 C   0  0  0  0  0  2  0  0  0  0  0  0
  194.5780  170.3280  137.3170 C   0  0  0  0  0  2  0  0  0  0  0  0
  195.3280  168.6070  135.6200 C   0  0  0  0  0  2  0  0  0  0  0  0
  197.7940  169.3460  135.7760 C   0  0  0  0  0  2  0  0  0  0  0  0
  195.7260  169.4530  136.8100 C   0  0  1  0  0  3  0  0  0  0  0  0
  196.8850  170.2520  136.4550 N   0  0  0  0  0  2  0  0  0  0  0  0
  196.8390  168.2490  134.6880 S   0  0  0  0  0  0  0  0  0  0  0  0
  187.3080  176.9100  145.4360 C   0  0  2  0  0  0  0  0  0  0  0  0
  186.9470  177.9730  146.4980 C   0  0  0  0  0  3  0  0  0  0  0  0
  186.3660  179.1030  145.9180 O   0  0  0  0  0  1  0  0  0  0  0  0
  188.0450  178.3510  147.2710 O   0  0  0  0  0  1  0  0  0  0  0  0
  186.0190  176.0900  145.2030 C   0  0  0  0  0  2  0  0  0  0  0  0
  185.0060  176.4290  146.1070 O   0  0  0  0  0  1  0  0  0  0  0  0
  187.6620  177.6310  144.2620 O   0  0  0  0  0  0  0  0  0  0  0  0
  185.3310  179.4750  142.7650 O   0  0  0  0  0  0  0  0  0  0  0  0
  186.8190  177.2920  143.1830 C   0  0  2  0  0  3  0  0  0  0  0  0
  187.2620  177.8430  141.9350 C   0  0  2  0  0  0  0  0  0  0  0  0
  186.1400  178.5690  142.6640 C   0  0  0  0  0  0  0  0  0  0  0  0
  186.7720  177.1490  140.6800 C   0  0  0  0  0  1  0  0  0  0  0  0
  188.5510  178.6540  141.8640 C   0  0  0  0  0  2  0  0  0  0  0  0
  189.6490  177.8070  142.0130 O   0  0  0  0  0  1  0  0  0  0  0  0
  1 17  1  0  0  0  0
  1 28  1  0  0  0  0
  2 21  1  0  0  0  0
  4 27  1  0  0  0  0
  4 26  1  0  0  0  0
  5 12  1  0  0  0  0
  7  6  1  0  0  0  0
  8  9  1  6  0  0  0
  8 15  1  0  0  0  0
  9 13  1  0  0  0  0
 11 12  1  0  0  0  0
 13  7  1  0  0  0  0
 14 34  1  0  0  0  0
 15  6  1  1  0  0  0
 16 33  1  0  0  0  0
 17 20  1  6  0  0  0
 17 30  1  0  0  0  0
 18 16  1  0  0  0  0
 19 22  1  1  0  0  0
 19 30  1  0  0  0  0
 22  8  1  0  0  0  0
 23  2  1  0  0  0  0
 24  3  1  1  0  0  0
 24 23  1  0  0  0  0
 25 28  1  0  0  0  0
 25 14  2  0  0  0  0
 26 42  1  6  0  0  0
 26 11  1  0  0  0  0
 27 31  1  6  0  0  0
 27 21  1  0  0  0  0
 27  5  1  0  0  0  0
 28 18  2  0  0  0  0
 29 10  1  1  0  0  0
 29 15  1  0  0  0  0
 29 24  1  0  0  0  0
 30 10  1  1  0  0  0
 32 20  1  0  0  0  0
 32 19  1  0  0  0  0
 33 31  1  0  0  0  0
 34 16  2  0  0  0  0
 35 32  1  0  0  0  0
 36 35  1  0  0  0  0
 37 39  1  0  0  0  0
 38 40  1  0  0  0  0
 39 36  1  6  0  0  0
 40 39  1  0  0  0  0
 41 37  1  0  0  0  0
 41 38  1  0  0  0  0
 42 46  1  6  0  0  0
 42 43  1  0  0  0  0
 43 45  1  0  0  0  0
 44 43  1  0  0  0  0
 46 47  1  0  0  0  0
 48 42  1  0  0  0  0
 50 48  1  1  0  0  0
 51 53  1  6  0  0  0
 51 52  1  0  0  0  0
 51 50  1  0  0  0  0
 52 49  2  0  0  0  0
 52 50  1  0  0  0  0
 54 51  1  0  0  0  0
 54 55  1  0  0  0  0
M  END
>  <MODEL>
9

>  <REMARK>
 VINA RESULT:      -5.3      4.649     10.194
  Name = 
  9 active torsions:
  status: ('A' for Active; 'I' for Inactive)
    1  A    between atoms: C_1  and  C_53
    2  A    between atoms: C_6  and  C_53
    3  A    between atoms: C_11  and  C_29
    4  A    between atoms: C_12  and  O_14
    5  A    between atoms: C_13  and  C_48
    6  A    between atoms: C_13  and  N_52
    7  A    between atoms: O_14  and  C_53
    8  A    between atoms: C_32  and  C_48
    9  A    between atoms: C_42  and  C_53
                            x       y       z     vdW  Elec       q    Type
                         _______ _______ _______ _____ _____    ______ ____

>  <TORSDO>
F 9

$$$$
