=
 OpenBabel11052419173D

 32 37  0  0  1  0  0  0  0  0999 V2000
  189.3420  175.4120  144.6710 C   0  0  0  0  0  0  0  0  0  0  0  0
  187.3350  176.9060  144.4630 C   0  0  2  0  0  3  0  0  0  0  0  0
  190.2270  174.7220  145.4460 N   0  0  0  0  0  0  0  0  0  0  0  0
  188.2470  176.0500  145.2850 C   0  0  0  0  0  0  0  0  0  0  0  0
  186.0090  177.1580  145.1440 C   0  0  0  0  0  0  0  0  0  0  0  0
  185.3500  178.4810  140.3790 C   0  0  0  0  0  2  0  0  0  0  0  0
  187.1910  176.3340  143.0630 C   0  0  2  0  0  3  0  0  0  0  0  0
  183.9520  178.3810  142.4380 C   0  0  0  0  0  2  0  0  0  0  0  0
  184.8230  177.2710  143.0190 C   0  0  2  0  0  3  0  0  0  0  0  0
  188.0670  175.9430  146.6720 C   0  0  0  0  0  0  0  0  0  0  0  0
  184.9350  177.4100  144.4650 N   0  0  0  0  0  0  0  0  0  0  0  0
  186.9590  176.5280  147.3030 O   0  0  0  0  0  0  0  0  0  0  0  0
  188.9890  175.2200  147.4290 C   0  0  0  0  0  3  0  0  0  0  0  0
  188.5820  176.2960  142.4240 C   0  0  0  0  0  2  0  0  0  0  0  0
  189.4950  175.4690  143.2280 N   0  0  0  0  0  0  0  0  0  0  0  0
  186.1710  177.1560  142.3340 C   0  0  0  0  0  0  0  0  0  0  0  0
  186.0090  177.3700  146.6340 C   0  0  1  0  0  3  0  0  0  0  0  0
  190.0770  174.6170  146.7930 C   0  0  0  0  0  3  0  0  0  0  0  0
  183.9380  178.2600  140.9190 C   0  0  0  0  0  2  0  0  0  0  0  0
  186.3700  177.6280  141.0890 C   0  0  0  0  0  3  0  0  0  0  0  0
  191.5750  172.4910  141.9810 C   0  0  1  0  0  3  0  0  0  0  0  0
  193.8340  174.2990  139.4470 C   0  0  0  0  0  1  0  0  0  0  0  0
  191.1900  171.0280  142.0920 C   0  0  0  0  0  1  0  0  0  0  0  0
  192.9720  174.9630  141.6750 C   0  0  0  0  0  2  0  0  0  0  0  0
  190.5730  174.8040  142.5400 C   0  0  0  0  0  0  0  0  0  0  0  0
  192.4160  172.7110  140.7180 C   0  0  0  0  0  2  0  0  0  0  0  0
  191.7200  175.4790  142.3220 C   0  0  0  0  0  3  0  0  0  0  0  0
  190.3310  173.3850  142.0630 C   0  0  1  0  0  3  0  0  0  0  0  0
  189.4820  173.3640  140.7980 C   0  0  0  0  0  1  0  0  0  0  0  0
  192.6670  174.1840  140.4060 C   0  0  2  0  0  3  0  0  0  0  0  0
  186.2460  178.8330  146.9900 C   0  0  0  0  0  2  0  0  0  0  0  0
  186.8470  178.9480  148.2450 O   0  0  0  0  0  1  0  0  0  0  0  0
  1  4  2  0  0  0  0
  1  3  1  0  0  0  0
  2  5  1  1  0  0  0
  2  4  1  0  0  0  0
  3 18  2  0  0  0  0
  4 10  1  0  0  0  0
  5 17  1  0  0  0  0
  6 19  1  0  0  0  0
  6 20  1  0  0  0  0
  7 14  1  6  0  0  0
  7  2  1  0  0  0  0
  9  8  1  6  0  0  0
  9 11  1  0  0  0  0
 10 12  1  0  0  0  0
 10 13  2  0  0  0  0
 11  5  2  0  0  0  0
 14 15  1  0  0  0  0
 15  1  1  0  0  0  0
 16  9  1  0  0  0  0
 16  7  1  0  0  0  0
 17 31  1  6  0  0  0
 17 12  1  0  0  0  0
 18 13  1  0  0  0  0
 19  8  1  0  0  0  0
 20 16  2  0  0  0  0
 21 28  1  0  0  0  0
 21 23  1  6  0  0  0
 24 27  1  0  0  0  0
 25 15  1  0  0  0  0
 26 21  1  0  0  0  0
 27 25  2  0  0  0  0
 28 29  1  6  0  0  0
 28 25  1  0  0  0  0
 30 22  1  6  0  0  0
 30 26  1  0  0  0  0
 30 24  1  0  0  0  0
 31 32  1  0  0  0  0
M  END
>  <MODEL>
1

>  <REMARK>
 VINA RESULT:      -8.1      0.000      0.000
  Name = 
  2 active torsions:
  status: ('A' for Active; 'I' for Inactive)
    1  A    between atoms: C_13  and  C_29
    2  A    between atoms: C_16  and  N_27
                            x       y       z     vdW  Elec       q    Type
                         _______ _______ _______ _____ _____    ______ ____

>  <TORSDO>
F 2

$$$$
=
 OpenBabel11052419173D

 32 37  0  0  1  0  0  0  0  0999 V2000
  187.7310  175.7200  141.3020 C   0  0  0  0  0  0  0  0  0  0  0  0
  186.1850  177.0600  142.7570 C   0  0  2  0  0  3  0  0  0  0  0  0
  188.1300  175.3100  140.0640 N   0  0  0  0  0  0  0  0  0  0  0  0
  186.7140  176.6870  141.4070 C   0  0  0  0  0  0  0  0  0  0  0  0
  185.4380  178.3740  142.7430 C   0  0  0  0  0  0  0  0  0  0  0  0
  186.3250  177.3780  147.5510 C   0  0  0  0  0  2  0  0  0  0  0  0
  187.2960  177.0120  143.7920 C   0  0  2  0  0  3  0  0  0  0  0  0
  185.2520  179.2130  146.2520 C   0  0  0  0  0  2  0  0  0  0  0  0
  186.1050  178.8950  145.0270 C   0  0  2  0  0  3  0  0  0  0  0  0
  186.1510  177.2350  140.2440 C   0  0  0  0  0  0  0  0  0  0  0  0
  185.3470  179.1130  143.8020 N   0  0  0  0  0  0  0  0  0  0  0  0
  185.1700  178.2350  140.3200 O   0  0  0  0  0  0  0  0  0  0  0  0
  186.5940  176.7970  138.9970 C   0  0  0  0  0  3  0  0  0  0  0  0
  187.8470  175.5840  143.8260 C   0  0  0  0  0  2  0  0  0  0  0  0
  188.3580  175.1970  142.5030 N   0  0  0  0  0  0  0  0  0  0  0  0
  186.7370  177.5170  145.0880 C   0  0  0  0  0  0  0  0  0  0  0  0
  184.5780  178.6850  141.5470 C   0  0  1  0  0  3  0  0  0  0  0  0
  187.5880  175.8190  138.9250 C   0  0  0  0  0  3  0  0  0  0  0  0
  186.0420  178.8780  147.5110 C   0  0  0  0  0  2  0  0  0  0  0  0
  186.9200  176.8770  146.2590 C   0  0  0  0  0  3  0  0  0  0  0  0
  191.7470  173.7430  141.4290 C   0  0  1  0  0  3  0  0  0  0  0  0
  192.0390  170.8570  143.9530 C   0  0  0  0  0  1  0  0  0  0  0  0
  192.8140  174.4690  140.6320 C   0  0  0  0  0  1  0  0  0  0  0  0
  190.1070  171.7830  142.7040 C   0  0  0  0  0  2  0  0  0  0  0  0
  189.4300  174.2340  142.4570 C   0  0  0  0  0  0  0  0  0  0  0  0
  192.4060  172.7380  142.3810 C   0  0  0  0  0  2  0  0  0  0  0  0
  189.1570  172.9450  142.7410 C   0  0  0  0  0  3  0  0  0  0  0  0
  190.8190  174.7460  142.1270 C   0  0  1  0  0  3  0  0  0  0  0  0
  191.4570  175.4300  143.3300 C   0  0  0  0  0  1  0  0  0  0  0  0
  191.4290  172.1170  143.3770 C   0  0  2  0  0  3  0  0  0  0  0  0
  183.1740  178.1150  141.7060 C   0  0  0  0  0  2  0  0  0  0  0  0
  182.5610  177.9510  140.4620 O   0  0  0  0  0  1  0  0  0  0  0  0
  1  4  1  0  0  0  0
  1 15  1  0  0  0  0
  2  4  1  6  0  0  0
  2  7  1  0  0  0  0
  3  1  2  0  0  0  0
  5  2  1  0  0  0  0
  5 11  2  0  0  0  0
  7 14  1  1  0  0  0
  7 16  1  0  0  0  0
  8 19  1  0  0  0  0
  9 16  1  0  0  0  0
  9  8  1  1  0  0  0
 10 12  1  0  0  0  0
 10  4  2  0  0  0  0
 11  9  1  0  0  0  0
 12 17  1  0  0  0  0
 13 10  1  0  0  0  0
 15 14  1  0  0  0  0
 16 20  2  0  0  0  0
 17 31  1  1  0  0  0
 17  5  1  0  0  0  0
 18 13  2  0  0  0  0
 18  3  1  0  0  0  0
 19  6  1  0  0  0  0
 20  6  1  0  0  0  0
 21 23  1  1  0  0  0
 21 28  1  0  0  0  0
 21 26  1  0  0  0  0
 24 27  1  0  0  0  0
 24 30  1  0  0  0  0
 25 15  1  0  0  0  0
 25 27  2  0  0  0  0
 26 30  1  0  0  0  0
 28 25  1  0  0  0  0
 28 29  1  1  0  0  0
 30 22  1  6  0  0  0
 32 31  1  0  0  0  0
M  END
>  <MODEL>
2

>  <REMARK>
 VINA RESULT:      -7.8      2.486      4.904
  Name = 
  2 active torsions:
  status: ('A' for Active; 'I' for Inactive)
    1  A    between atoms: C_13  and  C_29
    2  A    between atoms: C_16  and  N_27
                            x       y       z     vdW  Elec       q    Type
                         _______ _______ _______ _____ _____    ______ ____

>  <TORSDO>
F 2

$$$$
=
 OpenBabel11052419173D

 32 37  0  0  1  0  0  0  0  0999 V2000
  189.4630  175.4910  145.0260 C   0  0  0  0  0  0  0  0  0  0  0  0
  187.4710  176.9140  144.4700 C   0  0  2  0  0  3  0  0  0  0  0  0
  190.2420  174.8550  145.9480 N   0  0  0  0  0  0  0  0  0  0  0  0
  188.2740  176.1140  145.4490 C   0  0  0  0  0  0  0  0  0  0  0  0
  186.0530  177.1470  144.9390 C   0  0  0  0  0  0  0  0  0  0  0  0
  186.0710  178.2910  140.0830 C   0  0  0  0  0  2  0  0  0  0  0  0
  187.5510  176.2910  143.0870 C   0  0  2  0  0  3  0  0  0  0  0  0
  184.3870  178.2150  141.9170 C   0  0  0  0  0  2  0  0  0  0  0  0
  185.1910  177.1530  142.6610 C   0  0  2  0  0  3  0  0  0  0  0  0
  187.8930  176.0470  146.7980 C   0  0  0  0  0  0  0  0  0  0  0  0
  185.0860  177.3430  144.1010 N   0  0  0  0  0  0  0  0  0  0  0  0
  186.6900  176.6190  147.2360 O   0  0  0  0  0  0  0  0  0  0  0  0
  188.7120  175.3790  147.7080 C   0  0  0  0  0  3  0  0  0  0  0  0
  189.0210  176.2750  142.6610 C   0  0  0  0  0  2  0  0  0  0  0  0
  189.8270  175.5050  143.6200 N   0  0  0  0  0  0  0  0  0  0  0  0
  186.6280  177.0570  142.1860 C   0  0  0  0  0  0  0  0  0  0  0  0
  185.8280  177.4080  146.4050 C   0  0  1  0  0  3  0  0  0  0  0  0
  189.8970  174.7900  147.2620 C   0  0  0  0  0  3  0  0  0  0  0  0
  184.6020  178.0440  140.4180 C   0  0  0  0  0  2  0  0  0  0  0  0
  186.9970  177.4930  140.9660 C   0  0  0  0  0  3  0  0  0  0  0  0
  193.2440  175.2430  141.8870 C   0  0  1  0  0  3  0  0  0  0  0  0
  194.2230  171.6730  142.9280 C   0  0  0  0  0  1  0  0  0  0  0  0
  194.1010  176.4080  141.4300 C   0  0  0  0  0  1  0  0  0  0  0  0
  192.0520  172.6770  142.2750 C   0  0  0  0  0  2  0  0  0  0  0  0
  191.0110  174.8510  143.1230 C   0  0  0  0  0  0  0  0  0  0  0  0
  194.1410  174.0680  142.2920 C   0  0  0  0  0  2  0  0  0  0  0  0
  190.9570  173.5330  142.8430 C   0  0  0  0  0  3  0  0  0  0  0  0
  192.2680  175.6890  142.9840 C   0  0  1  0  0  3  0  0  0  0  0  0
  192.9340  175.9150  144.3360 C   0  0  0  0  0  1  0  0  0  0  0  0
  193.3800  172.9300  142.9690 C   0  0  2  0  0  3  0  0  0  0  0  0
  185.9710  178.8890  146.7360 C   0  0  0  0  0  2  0  0  0  0  0  0
  186.5080  179.0620  148.0130 O   0  0  0  0  0  1  0  0  0  0  0  0
  1  4  2  0  0  0  0
  1  3  1  0  0  0  0
  2  5  1  1  0  0  0
  2  4  1  0  0  0  0
  3 18  2  0  0  0  0
  4 10  1  0  0  0  0
  5 17  1  0  0  0  0
  6 19  1  0  0  0  0
  6 20  1  0  0  0  0
  7 14  1  6  0  0  0
  7  2  1  0  0  0  0
  9  8  1  6  0  0  0
  9 11  1  0  0  0  0
 10 12  1  0  0  0  0
 10 13  2  0  0  0  0
 11  5  2  0  0  0  0
 14 15  1  0  0  0  0
 15  1  1  0  0  0  0
 16  9  1  0  0  0  0
 16  7  1  0  0  0  0
 17 31  1  6  0  0  0
 17 12  1  0  0  0  0
 18 13  1  0  0  0  0
 19  8  1  0  0  0  0
 20 16  2  0  0  0  0
 21 23  1  1  0  0  0
 21 26  1  0  0  0  0
 21 28  1  0  0  0  0
 24 27  1  0  0  0  0
 24 30  1  0  0  0  0
 25 15  1  0  0  0  0
 26 30  1  0  0  0  0
 27 25  2  0  0  0  0
 28 25  1  0  0  0  0
 28 29  1  1  0  0  0
 30 22  1  6  0  0  0
 31 32  1  0  0  0  0
M  END
>  <MODEL>
3

>  <REMARK>
 VINA RESULT:      -7.5      1.011      2.099
  Name = 
  2 active torsions:
  status: ('A' for Active; 'I' for Inactive)
    1  A    between atoms: C_13  and  C_29
    2  A    between atoms: C_16  and  N_27
                            x       y       z     vdW  Elec       q    Type
                         _______ _______ _______ _____ _____    ______ ____

>  <TORSDO>
F 2

$$$$
=
 OpenBabel11052419173D

 32 37  0  0  1  0  0  0  0  0999 V2000
  187.8010  175.6480  140.5550 C   0  0  0  0  0  0  0  0  0  0  0  0
  187.5130  176.3870  142.9370 C   0  0  2  0  0  3  0  0  0  0  0  0
  187.4870  175.7700  139.2330 N   0  0  0  0  0  0  0  0  0  0  0  0
  187.2720  176.5770  141.4720 C   0  0  0  0  0  0  0  0  0  0  0  0
  187.2680  177.6490  143.7320 C   0  0  0  0  0  0  0  0  0  0  0  0
  189.7830  174.6040  146.7810 C   0  0  0  0  0  2  0  0  0  0  0  0
  188.8880  175.7860  143.1740 C   0  0  2  0  0  3  0  0  0  0  0  0
  188.8660  176.9180  146.8880 C   0  0  0  0  0  2  0  0  0  0  0  0
  188.9720  177.0690  145.3730 C   0  0  2  0  0  3  0  0  0  0  0  0
  186.4600  177.6240  141.0130 C   0  0  0  0  0  0  0  0  0  0  0  0
  187.8670  177.8680  144.8590 N   0  0  0  0  0  0  0  0  0  0  0  0
  185.9590  178.5900  141.8980 O   0  0  0  0  0  0  0  0  0  0  0  0
  186.1700  177.7200  139.6520 C   0  0  0  0  0  3  0  0  0  0  0  0
  188.9410  174.4330  142.4600 C   0  0  0  0  0  2  0  0  0  0  0  0
  188.6930  174.6010  141.0200 N   0  0  0  0  0  0  0  0  0  0  0  0
  189.1200  175.7420  144.6550 C   0  0  0  0  0  0  0  0  0  0  0  0
  186.1170  178.5290  143.3230 C   0  0  1  0  0  3  0  0  0  0  0  0
  186.6910  176.7710  138.7700 C   0  0  0  0  0  3  0  0  0  0  0  0
  189.9780  175.9970  147.3760 C   0  0  0  0  0  2  0  0  0  0  0  0
  189.5850  174.6470  145.2870 C   0  0  0  0  0  3  0  0  0  0  0  0
  191.2410  173.2850  138.4650 C   0  0  1  0  0  3  0  0  0  0  0  0
  190.3290  169.5490  138.5120 C   0  0  0  0  0  1  0  0  0  0  0  0
  192.5190  173.9840  138.0430 C   0  0  0  0  0  1  0  0  0  0  0  0
  188.9410  171.6000  138.6350 C   0  0  0  0  0  2  0  0  0  0  0  0
  189.2950  173.6460  140.1240 C   0  0  0  0  0  0  0  0  0  0  0  0
  191.4340  171.7660  138.3960 C   0  0  0  0  0  2  0  0  0  0  0  0
  188.5300  172.6590  139.6160 C   0  0  0  0  0  3  0  0  0  0  0  0
  190.7780  173.7910  139.8380 C   0  0  1  0  0  3  0  0  0  0  0  0
  191.6180  173.2660  140.9960 C   0  0  0  0  0  1  0  0  0  0  0  0
  190.2780  170.9790  139.0080 C   0  0  2  0  0  3  0  0  0  0  0  0
  184.8170  178.0930  143.9880 C   0  0  0  0  0  2  0  0  0  0  0  0
  183.7290  178.2990  143.1370 O   0  0  0  0  0  1  0  0  0  0  0  0
  1 15  1  0  0  0  0
  1  4  1  0  0  0  0
  2  4  1  6  0  0  0
  2  7  1  0  0  0  0
  2  5  1  0  0  0  0
  3  1  2  0  0  0  0
  5 11  2  0  0  0  0
  6 19  1  0  0  0  0
  7 14  1  1  0  0  0
  7 16  1  0  0  0  0
  8 19  1  0  0  0  0
  9  8  1  1  0  0  0
 10  4  2  0  0  0  0
 10 12  1  0  0  0  0
 11  9  1  0  0  0  0
 12 17  1  0  0  0  0
 13 10  1  0  0  0  0
 15 14  1  0  0  0  0
 16 20  2  0  0  0  0
 16  9  1  0  0  0  0
 17  5  1  0  0  0  0
 17 31  1  1  0  0  0
 18  3  1  0  0  0  0
 18 13  2  0  0  0  0
 20  6  1  0  0  0  0
 21 23  1  1  0  0  0
 21 28  1  0  0  0  0
 24 30  1  0  0  0  0
 24 27  1  0  0  0  0
 25 15  1  0  0  0  0
 26 21  1  0  0  0  0
 26 30  1  0  0  0  0
 27 25  2  0  0  0  0
 28 25  1  0  0  0  0
 28 29  1  1  0  0  0
 30 22  1  6  0  0  0
 32 31  1  0  0  0  0
M  END
>  <MODEL>
4

>  <REMARK>
 VINA RESULT:      -7.4      2.430      5.186
  Name = 
  2 active torsions:
  status: ('A' for Active; 'I' for Inactive)
    1  A    between atoms: C_13  and  C_29
    2  A    between atoms: C_16  and  N_27
                            x       y       z     vdW  Elec       q    Type
                         _______ _______ _______ _____ _____    ______ ____

>  <TORSDO>
F 2

$$$$
=
 OpenBabel11052419173D

 32 37  0  0  1  0  0  0  0  0999 V2000
  192.9320  175.7500  144.1240 C   0  0  0  0  0  0  0  0  0  0  0  0
  194.9780  175.0490  142.8500 C   0  0  2  0  0  3  0  0  0  0  0  0
  192.3140  176.0310  145.3070 N   0  0  0  0  0  0  0  0  0  0  0  0
  194.3120  175.4720  144.1220 C   0  0  0  0  0  0  0  0  0  0  0  0
  196.4810  175.2060  142.9050 C   0  0  0  0  0  0  0  0  0  0  0  0
  195.3640  174.5910  138.0810 C   0  0  0  0  0  2  0  0  0  0  0  0
  194.3450  175.7520  141.6620 C   0  0  2  0  0  3  0  0  0  0  0  0
  197.4240  174.9860  139.4250 C   0  0  0  0  0  2  0  0  0  0  0  0
  196.6210  175.6820  140.5200 C   0  0  2  0  0  3  0  0  0  0  0  0
  195.0330  175.5170  145.3250 C   0  0  0  0  0  0  0  0  0  0  0  0
  197.1830  175.3910  141.8320 N   0  0  0  0  0  0  0  0  0  0  0  0
  196.4170  175.2910  145.3440 O   0  0  0  0  0  0  0  0  0  0  0  0
  194.3660  175.8170  146.5130 C   0  0  0  0  0  3  0  0  0  0  0  0
  192.8630  175.3700  141.6230 C   0  0  0  0  0  2  0  0  0  0  0  0
  192.1960  175.7660  142.8720 N   0  0  0  0  0  0  0  0  0  0  0  0
  195.1350  175.3890  140.4400 C   0  0  0  0  0  0  0  0  0  0  0  0
  197.1790  174.8810  144.1990 C   0  0  1  0  0  3  0  0  0  0  0  0
  192.9930  176.0660  146.4850 C   0  0  0  0  0  3  0  0  0  0  0  0
  196.7510  175.2320  138.0800 C   0  0  0  0  0  2  0  0  0  0  0  0
  194.5580  174.9850  139.2930 C   0  0  0  0  0  3  0  0  0  0  0  0
  188.4810  175.1680  142.1010 C   0  0  1  0  0  3  0  0  0  0  0  0
  186.9440  178.1450  143.9880 C   0  0  0  0  0  1  0  0  0  0  0  0
  187.8640  173.8550  141.6600 C   0  0  0  0  0  1  0  0  0  0  0  0
  189.0210  177.9180  142.6540 C   0  0  0  0  0  2  0  0  0  0  0  0
  190.7910  176.0810  142.8080 C   0  0  0  0  0  0  0  0  0  0  0  0
  187.4630  175.9690  142.9220 C   0  0  0  0  0  2  0  0  0  0  0  0
  190.4160  177.3760  142.7710 C   0  0  0  0  0  3  0  0  0  0  0  0
  189.8110  174.9230  142.8260 C   0  0  1  0  0  3  0  0  0  0  0  0
  189.6430  174.3640  144.2340 C   0  0  0  0  0  1  0  0  0  0  0  0
  188.0610  177.2040  143.5910 C   0  0  2  0  0  3  0  0  0  0  0  0
  197.5270  173.4000  144.2890 C   0  0  0  0  0  2  0  0  0  0  0  0
  197.1990  172.8890  145.5460 O   0  0  0  0  0  1  0  0  0  0  0  0
  1  3  1  0  0  0  0
  2  5  1  1  0  0  0
  2  4  1  0  0  0  0
  3 18  2  0  0  0  0
  4  1  2  0  0  0  0
  4 10  1  0  0  0  0
  5 17  1  0  0  0  0
  6 20  1  0  0  0  0
  7 14  1  6  0  0  0
  7  2  1  0  0  0  0
  9  8  1  6  0  0  0
  9 11  1  0  0  0  0
 10 12  1  0  0  0  0
 10 13  2  0  0  0  0
 11  5  2  0  0  0  0
 14 15  1  0  0  0  0
 15  1  1  0  0  0  0
 16  9  1  0  0  0  0
 16  7  1  0  0  0  0
 17 31  1  1  0  0  0
 17 12  1  0  0  0  0
 18 13  1  0  0  0  0
 19  6  1  0  0  0  0
 19  8  1  0  0  0  0
 20 16  2  0  0  0  0
 21 23  1  1  0  0  0
 21 28  1  0  0  0  0
 21 26  1  0  0  0  0
 24 27  1  0  0  0  0
 24 30  1  0  0  0  0
 25 28  1  0  0  0  0
 25 15  1  0  0  0  0
 26 30  1  0  0  0  0
 27 25  2  0  0  0  0
 28 29  1  1  0  0  0
 30 22  1  6  0  0  0
 31 32  1  0  0  0  0
M  END
>  <MODEL>
5

>  <REMARK>
 VINA RESULT:      -7.3      3.922      8.264
  Name = 
  2 active torsions:
  status: ('A' for Active; 'I' for Inactive)
    1  A    between atoms: C_13  and  C_29
    2  A    between atoms: C_16  and  N_27
                            x       y       z     vdW  Elec       q    Type
                         _______ _______ _______ _____ _____    ______ ____

>  <TORSDO>
F 2

$$$$
=
 OpenBabel11052419173D

 32 37  0  0  1  0  0  0  0  0999 V2000
  188.7740  174.7820  142.9440 C   0  0  0  0  0  0  0  0  0  0  0  0
  191.2520  174.4900  143.2230 C   0  0  2  0  0  3  0  0  0  0  0  0
  187.5920  174.3890  142.3880 N   0  0  0  0  0  0  0  0  0  0  0  0
  189.9280  174.0080  142.7170 C   0  0  0  0  0  0  0  0  0  0  0  0
  192.2830  173.3860  143.2850 C   0  0  0  0  0  0  0  0  0  0  0  0
  194.1510  177.1310  146.0010 C   0  0  0  0  0  2  0  0  0  0  0  0
  191.0790  175.2240  144.5420 C   0  0  2  0  0  3  0  0  0  0  0  0
  194.8460  174.8180  145.3900 C   0  0  0  0  0  2  0  0  0  0  0  0
  193.3930  174.3910  145.2060 C   0  0  2  0  0  3  0  0  0  0  0  0
  189.8400  172.8350  141.9510 C   0  0  0  0  0  0  0  0  0  0  0  0
  193.2730  173.4290  144.1180 N   0  0  0  0  0  0  0  0  0  0  0  0
  190.9640  172.0210  141.7490 O   0  0  0  0  0  0  0  0  0  0  0  0
  188.6110  172.4630  141.4080 C   0  0  0  0  0  3  0  0  0  0  0  0
  190.1510  176.4170  144.2990 C   0  0  0  0  0  2  0  0  0  0  0  0
  188.8500  175.9620  143.7880 N   0  0  0  0  0  0  0  0  0  0  0  0
  192.4440  175.5650  145.0590 C   0  0  0  0  0  0  0  0  0  0  0  0
  192.2890  172.3620  142.1810 C   0  0  1  0  0  3  0  0  0  0  0  0
  187.4890  173.2630  141.6330 C   0  0  0  0  0  3  0  0  0  0  0  0
  194.9170  175.8940  146.4660 C   0  0  0  0  0  2  0  0  0  0  0  0
  192.7650  176.7910  145.5140 C   0  0  0  0  0  3  0  0  0  0  0  0
  185.6420  176.9790  145.6410 C   0  0  1  0  0  3  0  0  0  0  0  0
  185.2050  180.5420  144.2630 C   0  0  0  0  0  1  0  0  0  0  0  0
  185.1040  176.3360  146.9040 C   0  0  0  0  0  1  0  0  0  0  0  0
  185.9680  178.4340  143.2050 C   0  0  0  0  0  2  0  0  0  0  0  0
  187.6950  176.7710  144.0870 C   0  0  0  0  0  0  0  0  0  0  0  0
  185.2660  178.4650  145.6140 C   0  0  0  0  0  2  0  0  0  0  0  0
  187.1840  177.5580  143.1190 C   0  0  0  0  0  3  0  0  0  0  0  0
  187.1480  176.7160  145.5010 C   0  0  1  0  0  3  0  0  0  0  0  0
  188.0010  177.5410  146.4570 C   0  0  0  0  0  1  0  0  0  0  0  0
  185.9480  179.2430  144.4910 C   0  0  2  0  0  3  0  0  0  0  0  0
  193.1360  172.8190  141.0000 C   0  0  0  0  0  2  0  0  0  0  0  0
  192.6600  172.2740  139.8060 O   0  0  0  0  0  1  0  0  0  0  0  0
  1 15  1  0  0  0  0
  2  4  1  1  0  0  0
  2  5  1  0  0  0  0
  2  7  1  0  0  0  0
  3  1  2  0  0  0  0
  4  1  1  0  0  0  0
  5 11  2  0  0  0  0
  6 19  1  0  0  0  0
  7 14  1  6  0  0  0
  7 16  1  0  0  0  0
  8 19  1  0  0  0  0
  9  8  1  6  0  0  0
 10  4  2  0  0  0  0
 11  9  1  0  0  0  0
 12 10  1  0  0  0  0
 12 17  1  0  0  0  0
 13 18  2  0  0  0  0
 13 10  1  0  0  0  0
 15 25  1  0  0  0  0
 15 14  1  0  0  0  0
 16  9  1  0  0  0  0
 16 20  2  0  0  0  0
 17 31  1  6  0  0  0
 17  5  1  0  0  0  0
 18  3  1  0  0  0  0
 20  6  1  0  0  0  0
 21 23  1  1  0  0  0
 24 30  1  0  0  0  0
 25 28  1  0  0  0  0
 26 21  1  0  0  0  0
 27 24  1  0  0  0  0
 27 25  2  0  0  0  0
 28 21  1  0  0  0  0
 28 29  1  1  0  0  0
 30 22  1  6  0  0  0
 30 26  1  0  0  0  0
 32 31  1  0  0  0  0
M  END
>  <MODEL>
6

>  <REMARK>
 VINA RESULT:      -7.3      3.256      7.988
  Name = 
  2 active torsions:
  status: ('A' for Active; 'I' for Inactive)
    1  A    between atoms: C_13  and  C_29
    2  A    between atoms: C_16  and  N_27
                            x       y       z     vdW  Elec       q    Type
                         _______ _______ _______ _____ _____    ______ ____

>  <TORSDO>
F 2

$$$$
=
 OpenBabel11052419173D

 32 37  0  0  1  0  0  0  0  0999 V2000
  190.1340  175.8010  145.4270 C   0  0  0  0  0  0  0  0  0  0  0  0
  190.9790  174.0830  143.8030 C   0  0  2  0  0  3  0  0  0  0  0  0
  190.2920  176.5230  146.5740 N   0  0  0  0  0  0  0  0  0  0  0  0
  191.1830  174.9680  144.9940 C   0  0  0  0  0  0  0  0  0  0  0  0
  192.2830  173.5940  143.2170 C   0  0  0  0  0  0  0  0  0  0  0  0
  188.8150  172.6660  139.7520 C   0  0  0  0  0  2  0  0  0  0  0  0
  190.0810  174.7650  142.7850 C   0  0  2  0  0  3  0  0  0  0  0  0
  191.2800  172.3800  139.9650 C   0  0  0  0  0  2  0  0  0  0  0  0
  191.3640  173.5330  140.9610 C   0  0  2  0  0  3  0  0  0  0  0  0
  192.3780  174.9140  145.7260 C   0  0  0  0  0  0  0  0  0  0  0  0
  192.3850  173.2690  141.9670 N   0  0  0  0  0  0  0  0  0  0  0  0
  193.4560  174.1300  145.2900 O   0  0  0  0  0  0  0  0  0  0  0  0
  192.5040  175.6750  146.8880 C   0  0  0  0  0  3  0  0  0  0  0  0
  188.7350  175.0480  143.4570 C   0  0  0  0  0  2  0  0  0  0  0  0
  188.9200  175.9060  144.6380 N   0  0  0  0  0  0  0  0  0  0  0  0
  190.0210  173.8900  141.5680 C   0  0  0  0  0  0  0  0  0  0  0  0
  193.3960  173.2390  144.1670 C   0  0  1  0  0  3  0  0  0  0  0  0
  191.4380  176.4750  147.3040 C   0  0  0  0  0  3  0  0  0  0  0  0
  190.1390  172.6450  138.9910 C   0  0  0  0  0  2  0  0  0  0  0  0
  188.8650  173.5730  140.9550 C   0  0  0  0  0  3  0  0  0  0  0  0
  186.3150  178.6910  144.1810 C   0  0  1  0  0  3  0  0  0  0  0  0
  184.1140  178.0260  147.2630 C   0  0  0  0  0  1  0  0  0  0  0  0
  186.0050  179.4160  142.8850 C   0  0  0  0  0  1  0  0  0  0  0  0
  186.5660  177.9110  146.9170 C   0  0  0  0  0  2  0  0  0  0  0  0
  187.8290  176.7710  145.0110 C   0  0  0  0  0  0  0  0  0  0  0  0
  185.0490  178.6070  145.0430 C   0  0  0  0  0  2  0  0  0  0  0  0
  187.6070  177.0100  146.3190 C   0  0  0  0  0  3  0  0  0  0  0  0
  186.9650  177.3300  143.8960 C   0  0  1  0  0  3  0  0  0  0  0  0
  185.9860  176.2850  143.3770 C   0  0  0  0  0  1  0  0  0  0  0  0
  185.2080  177.7070  146.2660 C   0  0  2  0  0  3  0  0  0  0  0  0
  193.2910  171.7920  144.6340 C   0  0  0  0  0  2  0  0  0  0  0  0
  194.1910  171.5390  145.6700 O   0  0  0  0  0  1  0  0  0  0  0  0
  1  3  1  0  0  0  0
  2  5  1  6  0  0  0
  2  4  1  0  0  0  0
  3 18  2  0  0  0  0
  4  1  2  0  0  0  0
  4 10  1  0  0  0  0
  5 17  1  0  0  0  0
  6 20  1  0  0  0  0
  7 14  1  1  0  0  0
  7  2  1  0  0  0  0
  9  8  1  1  0  0  0
  9 16  1  0  0  0  0
  9 11  1  0  0  0  0
 10 13  2  0  0  0  0
 11  5  2  0  0  0  0
 12 10  1  0  0  0  0
 13 18  1  0  0  0  0
 14 15  1  0  0  0  0
 15 25  1  0  0  0  0
 15  1  1  0  0  0  0
 16  7  1  0  0  0  0
 17 31  1  1  0  0  0
 17 12  1  0  0  0  0
 19  6  1  0  0  0  0
 19  8  1  0  0  0  0
 20 16  2  0  0  0  0
 21 23  1  6  0  0  0
 21 26  1  0  0  0  0
 25 27  2  0  0  0  0
 26 30  1  0  0  0  0
 27 24  1  0  0  0  0
 28 29  1  1  0  0  0
 28 21  1  0  0  0  0
 28 25  1  0  0  0  0
 30 24  1  0  0  0  0
 30 22  1  1  0  0  0
 31 32  1  0  0  0  0
M  END
>  <MODEL>
7

>  <REMARK>
 VINA RESULT:      -7.3      2.727      7.156
  Name = 
  2 active torsions:
  status: ('A' for Active; 'I' for Inactive)
    1  A    between atoms: C_13  and  C_29
    2  A    between atoms: C_16  and  N_27
                            x       y       z     vdW  Elec       q    Type
                         _______ _______ _______ _____ _____    ______ ____

>  <TORSDO>
F 2

$$$$
=
 OpenBabel11052419173D

 32 37  0  0  1  0  0  0  0  0999 V2000
  189.9780  173.7150  142.4820 C   0  0  0  0  0  0  0  0  0  0  0  0
  188.6400  175.6290  143.4020 C   0  0  2  0  0  3  0  0  0  0  0  0
  190.8960  172.7220  142.6570 N   0  0  0  0  0  0  0  0  0  0  0  0
  189.5570  174.4630  143.5980 C   0  0  0  0  0  0  0  0  0  0  0  0
  187.9540  176.0470  144.6830 C   0  0  0  0  0  0  0  0  0  0  0  0
  185.4310  178.2910  141.0100 C   0  0  0  0  0  2  0  0  0  0  0  0
  187.6710  175.3550  142.2640 C   0  0  2  0  0  3  0  0  0  0  0  0
  185.2670  178.1460  143.4910 C   0  0  0  0  0  2  0  0  0  0  0  0
  185.9600  176.7870  143.4950 C   0  0  2  0  0  3  0  0  0  0  0  0
  190.0630  174.1590  144.8710 C   0  0  0  0  0  0  0  0  0  0  0  0
  186.8050  176.6450  144.6730 N   0  0  0  0  0  0  0  0  0  0  0  0
  189.6250  174.8560  146.0060 O   0  0  0  0  0  0  0  0  0  0  0  0
  190.9940  173.1290  145.0100 C   0  0  0  0  0  3  0  0  0  0  0  0
  188.4910  175.1220  140.9930 C   0  0  0  0  0  2  0  0  0  0  0  0
  189.4090  173.9860  141.1730 N   0  0  0  0  0  0  0  0  0  0  0  0
  186.7010  176.4970  142.2030 C   0  0  0  0  0  0  0  0  0  0  0  0
  188.7480  175.9910  145.9610 C   0  0  1  0  0  3  0  0  0  0  0  0
  191.4080  172.4200  143.8800 C   0  0  0  0  0  3  0  0  0  0  0  0
  184.4730  178.2980  142.1990 C   0  0  0  0  0  2  0  0  0  0  0  0
  186.3830  177.1220  141.0540 C   0  0  0  0  0  3  0  0  0  0  0  0
  190.7770  173.4130  137.6310 C   0  0  1  0  0  3  0  0  0  0  0  0
  191.0190  169.5760  137.6470 C   0  0  0  0  0  1  0  0  0  0  0  0
  191.4880  174.4440  136.7740 C   0  0  0  0  0  1  0  0  0  0  0  0
  189.3450  171.1390  138.5960 C   0  0  0  0  0  2  0  0  0  0  0  0
  189.7710  173.2290  140.0020 C   0  0  0  0  0  0  0  0  0  0  0  0
  191.3150  172.0140  137.3120 C   0  0  0  0  0  2  0  0  0  0  0  0
  189.1540  172.0530  139.7720 C   0  0  0  0  0  3  0  0  0  0  0  0
  190.8670  173.7910  139.1150 C   0  0  1  0  0  3  0  0  0  0  0  0
  192.2450  173.5550  139.7210 C   0  0  0  0  0  1  0  0  0  0  0  0
  190.8170  170.9390  138.2740 C   0  0  2  0  0  3  0  0  0  0  0  0
  189.5280  177.2800  146.1890 C   0  0  0  0  0  2  0  0  0  0  0  0
  190.3620  177.1650  147.3030 O   0  0  0  0  0  1  0  0  0  0  0  0
  1  3  2  0  0  0  0
  1  4  1  0  0  0  0
  2  4  1  1  0  0  0
  2  5  1  0  0  0  0
  3 18  1  0  0  0  0
  4 10  2  0  0  0  0
  5 17  1  0  0  0  0
  6 20  1  0  0  0  0
  6 19  1  0  0  0  0
  7 14  1  6  0  0  0
  7  2  1  0  0  0  0
  9  8  1  6  0  0  0
  9 11  1  0  0  0  0
 10 13  1  0  0  0  0
 10 12  1  0  0  0  0
 11  5  2  0  0  0  0
 14 15  1  0  0  0  0
 15  1  1  0  0  0  0
 16  7  1  0  0  0  0
 16  9  1  0  0  0  0
 17 12  1  0  0  0  0
 17 31  1  6  0  0  0
 18 13  2  0  0  0  0
 19  8  1  0  0  0  0
 20 16  2  0  0  0  0
 21 23  1  6  0  0  0
 21 28  1  0  0  0  0
 24 27  1  0  0  0  0
 25 15  1  0  0  0  0
 26 21  1  0  0  0  0
 26 30  1  0  0  0  0
 27 25  2  0  0  0  0
 28 29  1  1  0  0  0
 28 25  1  0  0  0  0
 30 22  1  6  0  0  0
 30 24  1  0  0  0  0
 31 32  1  0  0  0  0
M  END
>  <MODEL>
8

>  <REMARK>
 VINA RESULT:      -7.0      2.268      3.389
  Name = 
  2 active torsions:
  status: ('A' for Active; 'I' for Inactive)
    1  A    between atoms: C_13  and  C_29
    2  A    between atoms: C_16  and  N_27
                            x       y       z     vdW  Elec       q    Type
                         _______ _______ _______ _____ _____    ______ ____

>  <TORSDO>
F 2

$$$$
=
 OpenBabel11052419173D

 32 37  0  0  1  0  0  0  0  0999 V2000
  192.0920  175.2180  145.2410 C   0  0  0  0  0  0  0  0  0  0  0  0
  193.0470  173.0610  144.3830 C   0  0  2  0  0  3  0  0  0  0  0  0
  192.2340  176.3760  145.9470 N   0  0  0  0  0  0  0  0  0  0  0  0
  193.2140  174.3890  145.0540 C   0  0  0  0  0  0  0  0  0  0  0  0
  194.3570  172.4990  143.8790 C   0  0  0  0  0  0  0  0  0  0  0  0
  190.7920  169.8220  141.6400 C   0  0  0  0  0  2  0  0  0  0  0  0
  191.9760  173.1420  143.3090 C   0  0  2  0  0  3  0  0  0  0  0  0
  193.2810  169.9050  141.6070 C   0  0  0  0  0  2  0  0  0  0  0  0
  193.2740  171.3780  142.0070 C   0  0  2  0  0  3  0  0  0  0  0  0
  194.4610  174.7770  145.5670 C   0  0  0  0  0  0  0  0  0  0  0  0
  194.4020  171.6790  142.8780 N   0  0  0  0  0  0  0  0  0  0  0  0
  195.6040  173.9940  145.3530 O   0  0  0  0  0  0  0  0  0  0  0  0
  194.5670  175.9750  146.2750 C   0  0  0  0  0  3  0  0  0  0  0  0
  190.6630  173.5510  143.9820 C   0  0  0  0  0  2  0  0  0  0  0  0
  190.8140  174.8490  144.6580 N   0  0  0  0  0  0  0  0  0  0  0  0
  191.9470  171.8260  142.5900 C   0  0  0  0  0  0  0  0  0  0  0  0
  195.5850  172.7040  144.7250 C   0  0  1  0  0  3  0  0  0  0  0  0
  193.4310  176.7640  146.4630 C   0  0  0  0  0  3  0  0  0  0  0  0
  192.0360  169.6070  140.7800 C   0  0  0  0  0  2  0  0  0  0  0  0
  190.8050  171.1610  142.3340 C   0  0  0  0  0  3  0  0  0  0  0  0
  188.2880  177.5600  143.6480 C   0  0  1  0  0  3  0  0  0  0  0  0
  185.4790  176.7900  146.1590 C   0  0  0  0  0  1  0  0  0  0  0  0
  188.2510  178.2910  142.3200 C   0  0  0  0  0  1  0  0  0  0  0  0
  187.9500  176.7540  146.3670 C   0  0  0  0  0  2  0  0  0  0  0  0
  189.6400  175.6760  144.7840 C   0  0  0  0  0  0  0  0  0  0  0  0
  186.8660  177.4270  144.2060 C   0  0  0  0  0  2  0  0  0  0  0  0
  189.1260  175.8920  146.0110 C   0  0  0  0  0  3  0  0  0  0  0  0
  189.0280  176.2230  143.5080 C   0  0  1  0  0  3  0  0  0  0  0  0
  188.2230  175.1550  142.7780 C   0  0  0  0  0  1  0  0  0  0  0  0
  186.7770  176.5180  145.4290 C   0  0  2  0  0  3  0  0  0  0  0  0
  195.7380  171.6000  145.7640 C   0  0  0  0  0  2  0  0  0  0  0  0
  197.0510  171.1250  145.7950 O   0  0  0  0  0  1  0  0  0  0  0  0
  1  3  1  0  0  0  0
  2  5  1  6  0  0  0
  2  4  1  0  0  0  0
  3 18  2  0  0  0  0
  4  1  2  0  0  0  0
  4 10  1  0  0  0  0
  5 17  1  0  0  0  0
  6 20  1  0  0  0  0
  7 14  1  1  0  0  0
  7  2  1  0  0  0  0
  9  8  1  1  0  0  0
  9 16  1  0  0  0  0
  9 11  1  0  0  0  0
 10 13  2  0  0  0  0
 11  5  2  0  0  0  0
 12 10  1  0  0  0  0
 13 18  1  0  0  0  0
 14 15  1  0  0  0  0
 15 25  1  0  0  0  0
 15  1  1  0  0  0  0
 16  7  1  0  0  0  0
 17 12  1  0  0  0  0
 17 31  1  1  0  0  0
 19  8  1  0  0  0  0
 19  6  1  0  0  0  0
 20 16  2  0  0  0  0
 21 23  1  6  0  0  0
 21 26  1  0  0  0  0
 25 27  2  0  0  0  0
 26 30  1  0  0  0  0
 27 24  1  0  0  0  0
 28 29  1  1  0  0  0
 28 21  1  0  0  0  0
 28 25  1  0  0  0  0
 30 22  1  1  0  0  0
 30 24  1  0  0  0  0
 31 32  1  0  0  0  0
M  END
>  <MODEL>
9

>  <REMARK>
 VINA RESULT:      -7.0      3.722      8.019
  Name = 
  2 active torsions:
  status: ('A' for Active; 'I' for Inactive)
    1  A    between atoms: C_13  and  C_29
    2  A    between atoms: C_16  and  N_27
                            x       y       z     vdW  Elec       q    Type
                         _______ _______ _______ _____ _____    ______ ____

>  <TORSDO>
F 2

$$$$
