=
 OpenBabel11052418253D

 27 33  0  0  1  0  0  0  0  0999 V2000
  190.5200  173.7940  144.3800 C   0  0  0  0  0  2  0  0  0  0  0  0
  189.1100  175.5580  145.5060 C   0  0  0  0  0  0  0  0  0  0  0  0
  188.4300  175.7260  143.1030 N   0  0  0  0  0  2  0  0  0  0  0  0
  185.6310  178.0540  146.7590 C   0  0  0  0  0  3  0  0  0  0  0  0
  183.9120  178.8170  144.7840 Cl  0  0  0  0  0  0  0  0  0  0  0  0
  188.7100  176.0490  146.7100 N   0  0  0  0  0  0  0  0  0  0  0  0
  186.1910  177.2650  144.5080 C   0  0  0  0  0  0  0  0  0  0  0  0
  188.7690  174.3930  141.0310 C   0  0  1  0  0  3  0  0  0  0  0  0
  185.8970  177.1750  143.0460 C   0  0  0  0  0  1  0  0  0  0  0  0
  189.7850  173.6070  140.1940 C   0  0  0  0  0  2  0  0  0  0  0  0
  187.3050  176.6290  145.0750 C   0  0  0  0  0  0  0  0  0  0  0  0
  190.3660  174.8770  145.3460 N   0  0  0  0  0  0  0  0  0  0  0  0
  185.3420  177.9870  145.3800 C   0  0  0  0  0  0  0  0  0  0  0  0
  187.5740  176.7040  146.4130 C   0  0  0  0  0  0  0  0  0  0  0  0
  190.5730  174.3490  142.9760 C   0  0  1  0  0  3  0  0  0  0  0  0
  188.2650  175.8930  144.4900 N   0  0  0  0  0  0  0  0  0  0  0  0
  188.2480  173.4590  142.1290 C   0  0  0  0  0  2  0  0  0  0  0  0
  186.7610  177.4110  147.2930 C   0  0  0  0  0  3  0  0  0  0  0  0
  191.2220  173.8310  140.6370 C   0  0  0  0  0  2  0  0  0  0  0  0
  191.3570  173.3970  142.0830 C   0  0  0  0  0  2  0  0  0  0  0  0
  189.1440  174.6170  142.4960 C   0  0  1  0  0  0  0  0  0  0  0  0
  194.3720  175.9040  146.4060 C   0  0  0  0  0  2  0  0  0  0  0  0
  191.4170  175.1180  146.3370 C   0  0  2  0  0  3  0  0  0  0  0  0
  191.9680  176.5270  146.2240 C   0  0  0  0  0  2  0  0  0  0  0  0
  193.2930  176.4410  145.4870 C   0  0  2  0  0  3  0  0  0  0  0  0
  193.6850  174.9740  145.4250 C   0  0  2  0  0  3  0  0  0  0  0  0
  192.5930  174.1820  146.1270 C   0  0  0  0  0  2  0  0  0  0  0  0
  1 12  1  0  0  0  0
  2  6  2  0  0  0  0
  3 16  1  0  0  0  0
  4 18  1  0  0  0  0
  5 13  1  0  0  0  0
  7 11  2  0  0  0  0
  7 13  1  0  0  0  0
  8 10  1  6  0  0  0
  8 17  1  0  0  0  0
  8 21  1  0  0  0  0
  9  7  1  0  0  0  0
 10 19  1  0  0  0  0
 11 14  1  0  0  0  0
 12  2  1  0  0  0  0
 13  4  2  0  0  0  0
 14  6  1  0  0  0  0
 14 18  2  0  0  0  0
 15 20  1  6  0  0  0
 15  1  1  0  0  0  0
 16 11  1  0  0  0  0
 16  2  1  0  0  0  0
 19 20  1  0  0  0  0
 21 17  1  1  0  0  0
 21 15  1  0  0  0  0
 21  3  1  0  0  0  0
 23 12  1  6  0  0  0
 24 23  1  0  0  0  0
 25 24  1  1  0  0  0
 25 22  1  0  0  0  0
 26 25  1  0  0  0  0
 26 27  1  1  0  0  0
 26 22  1  0  0  0  0
 27 23  1  0  0  0  0
M  END
>  <MODEL>
1

>  <REMARK>
 VINA RESULT:      -8.2      0.000      0.000
  Name = 
  1 active torsions:
  status: ('A' for Active; 'I' for Inactive)
    1  A    between atoms: C_9  and  N_15
                            x       y       z     vdW  Elec       q    Type
                         _______ _______ _______ _____ _____    ______ ____

>  <TORSDO>
F 1

$$$$
=
 OpenBabel11052418253D

 27 33  0  0  1  0  0  0  0  0999 V2000
  191.1380  175.0960  142.6940 C   0  0  0  0  0  2  0  0  0  0  0  0
  188.6830  175.6710  142.7940 C   0  0  0  0  0  0  0  0  0  0  0  0
  189.4030  175.8070  145.1870 N   0  0  0  0  0  2  0  0  0  0  0  0
  184.8350  177.7210  143.7400 C   0  0  0  0  0  3  0  0  0  0  0  0
  184.5040  178.5490  146.3180 Cl  0  0  0  0  0  0  0  0  0  0  0  0
  187.5900  175.9780  142.0440 N   0  0  0  0  0  0  0  0  0  0  0  0
  186.7080  177.2530  145.2490 C   0  0  0  0  0  0  0  0  0  0  0  0
  191.5570  175.8120  146.4290 C   0  0  1  0  0  3  0  0  0  0  0  0
  187.3450  177.3210  146.5990 C   0  0  0  0  0  1  0  0  0  0  0  0
  192.9420  175.1670  146.5460 C   0  0  0  0  0  2  0  0  0  0  0  0
  187.3640  176.6710  144.1540 C   0  0  0  0  0  0  0  0  0  0  0  0
  189.7590  174.8740  142.2720 N   0  0  0  0  0  0  0  0  0  0  0  0
  185.4180  177.7890  145.0240 C   0  0  0  0  0  0  0  0  0  0  0  0
  186.7860  176.6110  142.9170 C   0  0  0  0  0  0  0  0  0  0  0  0
  191.3470  174.5700  144.0950 C   0  0  1  0  0  3  0  0  0  0  0  0
  188.5730  176.0900  144.0870 N   0  0  0  0  0  0  0  0  0  0  0  0
  191.6300  176.8750  145.3280 C   0  0  0  0  0  2  0  0  0  0  0  0
  185.5180  177.1250  142.6670 C   0  0  0  0  0  3  0  0  0  0  0  0
  193.0710  173.8820  145.7430 C   0  0  0  0  0  2  0  0  0  0  0  0
  192.8110  174.1950  144.2830 C   0  0  0  0  0  2  0  0  0  0  0  0
  190.8390  175.6110  145.0960 C   0  0  1  0  0  0  0  0  0  0  0  0
  190.3420  171.2650  140.0670 C   0  0  0  0  0  2  0  0  0  0  0  0
  189.4850  174.0030  141.1270 C   0  0  2  0  0  3  0  0  0  0  0  0
  188.9350  172.6610  141.5750 C   0  0  0  0  0  2  0  0  0  0  0  0
  190.0730  171.6560  141.5060 C   0  0  2  0  0  3  0  0  0  0  0  0
  191.2110  172.3090  140.7390 C   0  0  2  0  0  3  0  0  0  0  0  0
  190.7530  173.7060  140.3480 C   0  0  0  0  0  2  0  0  0  0  0  0
  2 16  1  0  0  0  0
  4 13  1  0  0  0  0
  6  2  2  0  0  0  0
  6 14  1  0  0  0  0
  7  9  1  0  0  0  0
  8 17  1  6  0  0  0
  8 10  1  0  0  0  0
 11  7  1  0  0  0  0
 12  1  1  0  0  0  0
 12  2  1  0  0  0  0
 13  7  2  0  0  0  0
 13  5  1  0  0  0  0
 14 11  2  0  0  0  0
 15  1  1  6  0  0  0
 15 20  1  0  0  0  0
 15 21  1  0  0  0  0
 16 11  1  0  0  0  0
 16  3  1  0  0  0  0
 18 14  1  0  0  0  0
 18  4  2  0  0  0  0
 19 10  1  0  0  0  0
 20 19  1  0  0  0  0
 21  3  1  0  0  0  0
 21 17  1  6  0  0  0
 21  8  1  0  0  0  0
 23 27  1  1  0  0  0
 23 24  1  0  0  0  0
 23 12  1  0  0  0  0
 25 22  1  6  0  0  0
 25 24  1  0  0  0  0
 26 22  1  6  0  0  0
 26 25  1  0  0  0  0
 27 26  1  0  0  0  0
M  END
>  <MODEL>
2

>  <REMARK>
 VINA RESULT:      -7.8      1.260      4.586
  Name = 
  1 active torsions:
  status: ('A' for Active; 'I' for Inactive)
    1  A    between atoms: C_9  and  N_15
                            x       y       z     vdW  Elec       q    Type
                         _______ _______ _______ _____ _____    ______ ____

>  <TORSDO>
F 1

$$$$
=
 OpenBabel11052418253D

 27 33  0  0  1  0  0  0  0  0999 V2000
  186.8030  177.9830  143.9940 C   0  0  0  0  0  2  0  0  0  0  0  0
  188.2120  175.9480  144.4830 C   0  0  0  0  0  0  0  0  0  0  0  0
  187.6130  175.6670  142.0690 N   0  0  0  0  0  2  0  0  0  0  0  0
  191.3150  172.7570  144.1790 C   0  0  0  0  0  3  0  0  0  0  0  0
  191.6970  171.6690  141.7070 Cl  0  0  0  0  0  0  0  0  0  0  0  0
  189.0370  175.3710  145.3980 N   0  0  0  0  0  0  0  0  0  0  0  0
  189.9100  173.6720  142.3920 C   0  0  0  0  0  0  0  0  0  0  0  0
  186.5860  177.0650  140.2860 C   0  0  1  0  0  3  0  0  0  0  0  0
  189.4800  173.7140  140.9620 C   0  0  0  0  0  1  0  0  0  0  0  0
  185.4660  178.0570  139.9560 C   0  0  0  0  0  2  0  0  0  0  0  0
  189.3480  174.5240  143.3550 C   0  0  0  0  0  0  0  0  0  0  0  0
  187.1900  176.8820  144.8690 N   0  0  0  0  0  0  0  0  0  0  0  0
  190.9160  172.7770  142.8250 C   0  0  0  0  0  0  0  0  0  0  0  0
  189.7430  174.4920  144.6630 C   0  0  0  0  0  0  0  0  0  0  0  0
  185.9790  177.4680  142.8370 C   0  0  1  0  0  3  0  0  0  0  0  0
  188.3860  175.4530  143.2250 N   0  0  0  0  0  0  0  0  0  0  0  0
  187.7370  177.8540  140.9200 C   0  0  0  0  0  2  0  0  0  0  0  0
  190.7260  173.6190  145.1190 C   0  0  0  0  0  3  0  0  0  0  0  0
  184.4030  178.1380  141.0410 C   0  0  0  0  0  2  0  0  0  0  0  0
  185.0620  178.5750  142.3330 C   0  0  0  0  0  2  0  0  0  0  0  0
  186.9230  176.9090  141.7690 C   0  0  1  0  0  0  0  0  0  0  0  0
  184.7870  178.4110  148.0500 C   0  0  0  0  0  2  0  0  0  0  0  0
  186.7170  176.8590  146.2550 C   0  0  2  0  0  3  0  0  0  0  0  0
  185.2120  176.6710  146.3210 C   0  0  0  0  0  2  0  0  0  0  0  0
  184.5940  178.0310  146.5960 C   0  0  2  0  0  3  0  0  0  0  0  0
  185.7210  178.9700  146.9950 C   0  0  2  0  0  3  0  0  0  0  0  0
  187.0140  178.1700  146.9580 C   0  0  0  0  0  2  0  0  0  0  0  0
  1 12  1  0  0  0  0
  2 12  1  0  0  0  0
  2  6  2  0  0  0  0
  3 16  1  0  0  0  0
  4 18  1  0  0  0  0
  5 13  1  0  0  0  0
  7 13  1  0  0  0  0
  7 11  2  0  0  0  0
  8 10  1  1  0  0  0
  8 17  1  0  0  0  0
  8 21  1  0  0  0  0
  9  7  1  0  0  0  0
 10 19  1  0  0  0  0
 11 14  1  0  0  0  0
 13  4  2  0  0  0  0
 14 18  2  0  0  0  0
 14  6  1  0  0  0  0
 15 20  1  6  0  0  0
 15  1  1  0  0  0  0
 16 11  1  0  0  0  0
 16  2  1  0  0  0  0
 19 20  1  0  0  0  0
 21 17  1  1  0  0  0
 21  3  1  0  0  0  0
 21 15  1  0  0  0  0
 23 12  1  6  0  0  0
 23 24  1  0  0  0  0
 23 27  1  0  0  0  0
 25 24  1  1  0  0  0
 25 26  1  0  0  0  0
 25 22  1  0  0  0  0
 26 27  1  1  0  0  0
 26 22  1  0  0  0  0
M  END
>  <MODEL>
3

>  <REMARK>
 VINA RESULT:      -7.7      2.815      6.242
  Name = 
  1 active torsions:
  status: ('A' for Active; 'I' for Inactive)
    1  A    between atoms: C_9  and  N_15
                            x       y       z     vdW  Elec       q    Type
                         _______ _______ _______ _____ _____    ______ ____

>  <TORSDO>
F 1

$$$$
=
 OpenBabel11052418253D

 27 33  0  0  1  0  0  0  0  0999 V2000
  189.5570  174.2790  144.8040 C   0  0  0  0  0  2  0  0  0  0  0  0
  187.7880  176.0610  144.5550 C   0  0  0  0  0  0  0  0  0  0  0  0
  188.6510  175.7780  142.2230 N   0  0  0  0  0  2  0  0  0  0  0  0
  184.2850  178.3920  143.0740 C   0  0  0  0  0  3  0  0  0  0  0  0
  184.0670  178.6660  140.3690 Cl  0  0  0  0  0  0  0  0  0  0  0  0
  186.7680  176.6990  145.1890 N   0  0  0  0  0  0  0  0  0  0  0  0
  186.0440  177.3070  141.7560 C   0  0  0  0  0  0  0  0  0  0  0  0
  190.1160  174.1680  141.0200 C   0  0  1  0  0  3  0  0  0  0  0  0
  186.6620  176.9580  140.4420 C   0  0  0  0  0  1  0  0  0  0  0  0
  191.4140  173.3560  141.0890 C   0  0  0  0  0  2  0  0  0  0  0  0
  186.6010  176.8770  142.9700 C   0  0  0  0  0  0  0  0  0  0  0  0
  188.8860  175.4830  145.2810 N   0  0  0  0  0  0  0  0  0  0  0  0
  184.8590  178.0780  141.8230 C   0  0  0  0  0  0  0  0  0  0  0  0
  186.0350  177.1900  144.1740 C   0  0  0  0  0  0  0  0  0  0  0  0
  190.4340  174.6040  143.6180 C   0  0  1  0  0  3  0  0  0  0  0  0
  187.7070  176.1490  143.1970 N   0  0  0  0  0  0  0  0  0  0  0  0
  189.0320  173.3780  141.7620 C   0  0  0  0  0  2  0  0  0  0  0  0
  184.8730  177.9510  144.2700 C   0  0  0  0  0  3  0  0  0  0  0  0
  192.3220  173.7800  142.2330 C   0  0  0  0  0  2  0  0  0  0  0  0
  191.5750  173.5970  143.5380 C   0  0  0  0  0  2  0  0  0  0  0  0
  189.5650  174.6570  142.3590 C   0  0  1  0  0  0  0  0  0  0  0  0
  191.5660  176.4510  148.4610 C   0  0  0  0  0  2  0  0  0  0  0  0
  189.1600  175.9750  146.6330 C   0  0  2  0  0  3  0  0  0  0  0  0
  190.0780  177.1840  146.6030 C   0  0  0  0  0  2  0  0  0  0  0  0
  191.4730  176.7060  146.9700 C   0  0  2  0  0  3  0  0  0  0  0  0
  191.3420  175.2910  147.5100 C   0  0  2  0  0  3  0  0  0  0  0  0
  189.8670  174.9230  147.4670 C   0  0  0  0  0  2  0  0  0  0  0  0
  1 12  1  0  0  0  0
  2  6  2  0  0  0  0
  2 12  1  0  0  0  0
  3 21  1  0  0  0  0
  3 16  1  0  0  0  0
  4 18  1  0  0  0  0
  5 13  1  0  0  0  0
  7 13  1  0  0  0  0
  7 11  2  0  0  0  0
  8 10  1  1  0  0  0
  8 17  1  0  0  0  0
  8 21  1  0  0  0  0
  9  7  1  0  0  0  0
 10 19  1  0  0  0  0
 11 16  1  0  0  0  0
 11 14  1  0  0  0  0
 13  4  2  0  0  0  0
 14 18  2  0  0  0  0
 14  6  1  0  0  0  0
 15 20  1  6  0  0  0
 15  1  1  0  0  0  0
 16  2  1  0  0  0  0
 19 20  1  0  0  0  0
 21 17  1  1  0  0  0
 21 15  1  0  0  0  0
 23 12  1  6  0  0  0
 23 27  1  0  0  0  0
 24 23  1  0  0  0  0
 25 24  1  1  0  0  0
 25 26  1  0  0  0  0
 25 22  1  0  0  0  0
 26 27  1  1  0  0  0
 26 22  1  0  0  0  0
M  END
>  <MODEL>
4

>  <REMARK>
 VINA RESULT:      -7.7      1.802      2.474
  Name = 
  1 active torsions:
  status: ('A' for Active; 'I' for Inactive)
    1  A    between atoms: C_9  and  N_15
                            x       y       z     vdW  Elec       q    Type
                         _______ _______ _______ _____ _____    ______ ____

>  <TORSDO>
F 1

$$$$
=
 OpenBabel11052418253D

 27 33  0  0  1  0  0  0  0  0999 V2000
  189.0290  176.2170  143.0500 C   0  0  0  0  0  2  0  0  0  0  0  0
  190.9630  176.2100  144.6700 C   0  0  0  0  0  0  0  0  0  0  0  0
  191.0550  173.9240  143.6550 N   0  0  0  0  0  2  0  0  0  0  0  0
  195.0310  175.6920  146.4260 C   0  0  0  0  0  3  0  0  0  0  0  0
  196.3250  173.3670  145.8250 Cl  0  0  0  0  0  0  0  0  0  0  0  0
  191.7260  176.9910  145.4820 N   0  0  0  0  0  0  0  0  0  0  0  0
  193.8080  174.1480  144.9690 C   0  0  0  0  0  0  0  0  0  0  0  0
  189.9870  172.7530  141.7370 C   0  0  1  0  0  3  0  0  0  0  0  0
  193.7150  172.8610  144.2160 C   0  0  0  0  0  1  0  0  0  0  0  0
  188.6740  172.5160  140.9830 C   0  0  0  0  0  2  0  0  0  0  0  0
  192.7700  175.0920  144.9450 C   0  0  0  0  0  0  0  0  0  0  0  0
  189.6050  176.5540  144.3470 N   0  0  0  0  0  0  0  0  0  0  0  0
  194.9590  174.4680  145.7270 C   0  0  0  0  0  0  0  0  0  0  0  0
  192.8540  176.2720  145.6280 C   0  0  0  0  0  0  0  0  0  0  0  0
  188.7350  174.7370  142.9760 C   0  0  1  0  0  3  0  0  0  0  0  0
  191.5810  175.0450  144.3220 N   0  0  0  0  0  0  0  0  0  0  0  0
  190.5850  174.0700  141.2300 C   0  0  0  0  0  2  0  0  0  0  0  0
  193.9700  176.6120  146.3850 C   0  0  0  0  0  3  0  0  0  0  0  0
  187.4530  173.0050  141.7440 C   0  0  0  0  0  2  0  0  0  0  0  0
  187.5990  174.4930  141.9910 C   0  0  0  0  0  2  0  0  0  0  0  0
  190.0270  173.9930  142.6300 C   0  0  1  0  0  0  0  0  0  0  0  0
  186.2270  177.5840  146.7460 C   0  0  0  0  0  2  0  0  0  0  0  0
  188.8880  177.4640  145.2430 C   0  0  2  0  0  3  0  0  0  0  0  0
  188.5840  176.8010  146.5740 C   0  0  0  0  0  2  0  0  0  0  0  0
  187.1250  176.3790  146.5510 C   0  0  2  0  0  3  0  0  0  0  0  0
  186.4770  177.0490  145.3500 C   0  0  2  0  0  3  0  0  0  0  0  0
  187.5510  177.8720  144.6540 C   0  0  0  0  0  2  0  0  0  0  0  0
  1 12  1  0  0  0  0
  2  6  2  0  0  0  0
  3 16  1  0  0  0  0
  6 14  1  0  0  0  0
  7 13  1  0  0  0  0
  8 10  1  6  0  0  0
  8 21  1  0  0  0  0
  9  7  1  0  0  0  0
 10 19  1  0  0  0  0
 11  7  2  0  0  0  0
 11 14  1  0  0  0  0
 12  2  1  0  0  0  0
 13  5  1  0  0  0  0
 13  4  2  0  0  0  0
 14 18  2  0  0  0  0
 15 20  1  6  0  0  0
 15  1  1  0  0  0  0
 16  2  1  0  0  0  0
 16 11  1  0  0  0  0
 17  8  1  0  0  0  0
 18  4  1  0  0  0  0
 19 20  1  0  0  0  0
 21 17  1  6  0  0  0
 21 15  1  0  0  0  0
 21  3  1  0  0  0  0
 23 12  1  6  0  0  0
 23 24  1  0  0  0  0
 25 24  1  6  0  0  0
 25 22  1  0  0  0  0
 26 27  1  6  0  0  0
 26 25  1  0  0  0  0
 26 22  1  0  0  0  0
 27 23  1  0  0  0  0
M  END
>  <MODEL>
5

>  <REMARK>
 VINA RESULT:      -7.5      2.950      6.028
  Name = 
  1 active torsions:
  status: ('A' for Active; 'I' for Inactive)
    1  A    between atoms: C_9  and  N_15
                            x       y       z     vdW  Elec       q    Type
                         _______ _______ _______ _____ _____    ______ ____

>  <TORSDO>
F 1

$$$$
=
 OpenBabel11052418253D

 27 33  0  0  1  0  0  0  0  0999 V2000
  187.6600  176.2430  145.5140 C   0  0  0  0  0  2  0  0  0  0  0  0
  188.1320  175.5500  143.1340 C   0  0  0  0  0  0  0  0  0  0  0  0
  190.4150  175.7400  144.1400 N   0  0  0  0  0  2  0  0  0  0  0  0
  189.7770  173.4200  139.5760 C   0  0  0  0  0  3  0  0  0  0  0  0
  192.4520  172.8890  139.6110 Cl  0  0  0  0  0  0  0  0  0  0  0  0
  187.5640  175.0980  141.9840 N   0  0  0  0  0  0  0  0  0  0  0  0
  190.9770  174.1670  141.5780 C   0  0  0  0  0  0  0  0  0  0  0  0
  191.3690  176.0010  146.4220 C   0  0  1  0  0  3  0  0  0  0  0  0
  192.2350  174.2950  142.3740 C   0  0  0  0  0  1  0  0  0  0  0  0
  191.2380  176.7310  147.7640 C   0  0  0  0  0  2  0  0  0  0  0  0
  189.7500  174.6500  142.0580 C   0  0  0  0  0  0  0  0  0  0  0  0
  187.3930  176.3370  144.0830 N   0  0  0  0  0  0  0  0  0  0  0  0
  190.9760  173.5390  140.3100 C   0  0  0  0  0  0  0  0  0  0  0  0
  188.5960  174.5300  141.3350 C   0  0  0  0  0  0  0  0  0  0  0  0
  188.9560  176.9430  145.8510 C   0  0  1  0  0  3  0  0  0  0  0  0
  189.4660  175.2840  143.2070 N   0  0  0  0  0  0  0  0  0  0  0  0
  190.3930  174.8200  146.4370 C   0  0  0  0  0  2  0  0  0  0  0  0
  188.5660  173.9210  140.0840 C   0  0  0  0  0  3  0  0  0  0  0  0
  190.2870  177.9160  147.7070 C   0  0  0  0  0  2  0  0  0  0  0  0
  188.9160  177.4180  147.2980 C   0  0  0  0  0  2  0  0  0  0  0  0
  190.1230  176.0030  145.5380 C   0  0  1  0  0  0  0  0  0  0  0  0
  184.6550  179.6090  144.2600 C   0  0  0  0  0  2  0  0  0  0  0  0
  186.2010  177.0500  143.6160 C   0  0  2  0  0  3  0  0  0  0  0  0
  186.5480  178.4470  143.1350 C   0  0  0  0  0  2  0  0  0  0  0  0
  186.1580  179.4180  144.2360 C   0  0  2  0  0  3  0  0  0  0  0  0
  185.3090  178.6530  145.2380 C   0  0  2  0  0  3  0  0  0  0  0  0
  185.1910  177.2230  144.7350 C   0  0  0  0  0  2  0  0  0  0  0  0
  2 16  1  0  0  0  0
  2 12  1  0  0  0  0
  3 21  1  0  0  0  0
  4 18  2  0  0  0  0
  4 13  1  0  0  0  0
  5 13  1  0  0  0  0
  6  2  2  0  0  0  0
  7 11  1  0  0  0  0
  7  9  1  0  0  0  0
  8 17  1  1  0  0  0
  8 10  1  0  0  0  0
 11 16  1  0  0  0  0
 12  1  1  0  0  0  0
 13  7  2  0  0  0  0
 14  6  1  0  0  0  0
 14 11  2  0  0  0  0
 15  1  1  1  0  0  0
 15 20  1  0  0  0  0
 16  3  1  0  0  0  0
 18 14  1  0  0  0  0
 19 10  1  0  0  0  0
 20 19  1  0  0  0  0
 21 15  1  0  0  0  0
 21  8  1  0  0  0  0
 21 17  1  1  0  0  0
 23 24  1  1  0  0  0
 23 12  1  0  0  0  0
 23 27  1  0  0  0  0
 25 24  1  6  0  0  0
 25 22  1  0  0  0  0
 25 26  1  0  0  0  0
 26 22  1  6  0  0  0
 27 26  1  0  0  0  0
M  END
>  <MODEL>
6

>  <REMARK>
 VINA RESULT:      -7.5      2.713      6.836
  Name = 
  1 active torsions:
  status: ('A' for Active; 'I' for Inactive)
    1  A    between atoms: C_9  and  N_15
                            x       y       z     vdW  Elec       q    Type
                         _______ _______ _______ _____ _____    ______ ____

>  <TORSDO>
F 1

$$$$
=
 OpenBabel11052418253D

 27 33  0  0  1  0  0  0  0  0999 V2000
  189.6380  176.9740  143.8160 C   0  0  0  0  0  2  0  0  0  0  0  0
  190.5210  174.9780  142.5500 C   0  0  0  0  0  0  0  0  0  0  0  0
  188.2310  175.2980  141.5930 N   0  0  0  0  0  2  0  0  0  0  0  0
  191.6120  172.1860  139.2460 C   0  0  0  0  0  3  0  0  0  0  0  0
  189.7300  171.8080  137.3080 Cl  0  0  0  0  0  0  0  0  0  0  0  0
  191.6340  174.2380  142.2950 N   0  0  0  0  0  0  0  0  0  0  0  0
  189.5280  173.4420  139.5360 C   0  0  0  0  0  0  0  0  0  0  0  0
  186.4600  177.0420  141.6850 C   0  0  1  0  0  3  0  0  0  0  0  0
  188.1600  173.8270  139.0720 C   0  0  0  0  0  1  0  0  0  0  0  0
  185.6960  178.0110  142.5940 C   0  0  0  0  0  2  0  0  0  0  0  0
  190.0840  173.9750  140.7080 C   0  0  0  0  0  0  0  0  0  0  0  0
  190.3650  175.7110  143.7770 N   0  0  0  0  0  0  0  0  0  0  0  0
  190.3190  172.5320  138.7960 C   0  0  0  0  0  0  0  0  0  0  0  0
  191.3370  173.6290  141.1320 C   0  0  0  0  0  0  0  0  0  0  0  0
  188.1520  176.7260  143.7050 C   0  0  1  0  0  3  0  0  0  0  0  0
  189.5610  174.8410  141.5920 N   0  0  0  0  0  0  0  0  0  0  0  0
  187.7820  177.7120  141.2950 C   0  0  0  0  0  2  0  0  0  0  0  0
  192.1360  172.7330  140.4280 C   0  0  0  0  0  3  0  0  0  0  0  0
  185.9150  177.7370  144.0740 C   0  0  0  0  0  2  0  0  0  0  0  0
  187.3940  177.8640  144.3770 C   0  0  0  0  0  2  0  0  0  0  0  0
  187.7920  176.5270  142.2300 C   0  0  1  0  0  0  0  0  0  0  0  0
  190.9750  175.3770  147.9900 C   0  0  0  0  0  2  0  0  0  0  0  0
  191.1570  175.2960  144.9380 C   0  0  2  0  0  3  0  0  0  0  0  0
  190.3860  174.3240  145.8110 C   0  0  0  0  0  2  0  0  0  0  0  0
  189.8570  175.1020  147.0030 C   0  0  2  0  0  3  0  0  0  0  0  0
  190.5530  176.4540  147.0090 C   0  0  2  0  0  3  0  0  0  0  0  0
  191.5000  176.4820  145.8190 C   0  0  0  0  0  2  0  0  0  0  0  0
  2 12  1  0  0  0  0
  3 21  1  0  0  0  0
  4 18  1  0  0  0  0
  5 13  1  0  0  0  0
  6  2  2  0  0  0  0
  7 11  2  0  0  0  0
  8 17  1  6  0  0  0
  8 21  1  0  0  0  0
  8 10  1  0  0  0  0
  9  7  1  0  0  0  0
 10 19  1  0  0  0  0
 11 14  1  0  0  0  0
 11 16  1  0  0  0  0
 12  1  1  0  0  0  0
 13  4  2  0  0  0  0
 13  7  1  0  0  0  0
 14  6  1  0  0  0  0
 15  1  1  6  0  0  0
 15 20  1  0  0  0  0
 16  3  1  0  0  0  0
 16  2  1  0  0  0  0
 18 14  2  0  0  0  0
 19 20  1  0  0  0  0
 21 17  1  6  0  0  0
 21 15  1  0  0  0  0
 23 12  1  6  0  0  0
 23 24  1  0  0  0  0
 23 27  1  0  0  0  0
 25 24  1  6  0  0  0
 25 26  1  0  0  0  0
 25 22  1  0  0  0  0
 26 27  1  6  0  0  0
 26 22  1  0  0  0  0
M  END
>  <MODEL>
7

>  <REMARK>
 VINA RESULT:      -7.3      2.931      5.925
  Name = 
  1 active torsions:
  status: ('A' for Active; 'I' for Inactive)
    1  A    between atoms: C_9  and  N_15
                            x       y       z     vdW  Elec       q    Type
                         _______ _______ _______ _____ _____    ______ ____

>  <TORSDO>
F 1

$$$$
=
 OpenBabel11052418253D

 27 33  0  0  1  0  0  0  0  0999 V2000
  190.7480  175.5220  143.7760 C   0  0  0  0  0  2  0  0  0  0  0  0
  188.4190  176.0500  142.9590 C   0  0  0  0  0  0  0  0  0  0  0  0
  188.3200  176.6280  145.3920 N   0  0  0  0  0  2  0  0  0  0  0  0
  184.5540  178.1490  142.2100 C   0  0  0  0  0  3  0  0  0  0  0  0
  183.4290  179.4160  144.3470 Cl  0  0  0  0  0  0  0  0  0  0  0  0
  187.6450  176.1930  141.8500 N   0  0  0  0  0  0  0  0  0  0  0  0
  185.8100  178.0000  144.3090 C   0  0  0  0  0  0  0  0  0  0  0  0
  189.9480  176.9040  147.2530 C   0  0  1  0  0  3  0  0  0  0  0  0
  185.9720  178.3230  145.7590 C   0  0  0  0  0  1  0  0  0  0  0  0
  191.1930  176.3210  147.9300 C   0  0  0  0  0  2  0  0  0  0  0  0
  186.7660  177.2470  143.6120 C   0  0  0  0  0  0  0  0  0  0  0  0
  189.5760  175.1970  142.9690 N   0  0  0  0  0  0  0  0  0  0  0  0
  184.6870  178.4580  143.5810 C   0  0  0  0  0  0  0  0  0  0  0  0
  186.6240  176.9540  142.2840 C   0  0  0  0  0  0  0  0  0  0  0  0
  190.4660  175.2590  145.2370 C   0  0  1  0  0  3  0  0  0  0  0  0
  187.9080  176.6900  144.0490 N   0  0  0  0  0  0  0  0  0  0  0  0
  190.4170  177.7540  146.0670 C   0  0  0  0  0  2  0  0  0  0  0  0
  185.5280  177.3860  141.5440 C   0  0  0  0  0  3  0  0  0  0  0  0
  191.5280  174.9160  147.4540 C   0  0  0  0  0  2  0  0  0  0  0  0
  191.7730  174.9570  145.9590 C   0  0  0  0  0  2  0  0  0  0  0  0
  189.6980  176.4510  145.8150 C   0  0  1  0  0  0  0  0  0  0  0  0
  190.4410  171.1760  141.8250 C   0  0  0  0  0  2  0  0  0  0  0  0
  189.6590  174.1290  141.9710 C   0  0  2  0  0  3  0  0  0  0  0  0
  188.7770  172.9540  142.3460 C   0  0  0  0  0  2  0  0  0  0  0  0
  189.6750  171.8770  142.9290 C   0  0  2  0  0  3  0  0  0  0  0  0
  191.1120  172.2720  142.6290 C   0  0  2  0  0  3  0  0  0  0  0  0
  191.0720  173.5860  141.8650 C   0  0  0  0  0  2  0  0  0  0  0  0
  2 12  1  0  0  0  0
  2 16  1  0  0  0  0
  3 21  1  0  0  0  0
  4 13  1  0  0  0  0
  6 14  1  0  0  0  0
  6  2  2  0  0  0  0
  7  9  1  0  0  0  0
  8 17  1  6  0  0  0
  8 10  1  0  0  0  0
 11 16  1  0  0  0  0
 11  7  1  0  0  0  0
 12  1  1  0  0  0  0
 13  7  2  0  0  0  0
 13  5  1  0  0  0  0
 14 11  2  0  0  0  0
 15  1  1  6  0  0  0
 15 21  1  0  0  0  0
 15 20  1  0  0  0  0
 16  3  1  0  0  0  0
 18  4  2  0  0  0  0
 18 14  1  0  0  0  0
 19 10  1  0  0  0  0
 20 19  1  0  0  0  0
 21 17  1  6  0  0  0
 21  8  1  0  0  0  0
 23 27  1  1  0  0  0
 23 24  1  0  0  0  0
 23 12  1  0  0  0  0
 24 25  1  0  0  0  0
 25 22  1  6  0  0  0
 26 22  1  6  0  0  0
 26 25  1  0  0  0  0
 27 26  1  0  0  0  0
M  END
>  <MODEL>
8

>  <REMARK>
 VINA RESULT:      -7.3      1.517      4.648
  Name = 
  1 active torsions:
  status: ('A' for Active; 'I' for Inactive)
    1  A    between atoms: C_9  and  N_15
                            x       y       z     vdW  Elec       q    Type
                         _______ _______ _______ _____ _____    ______ ____

>  <TORSDO>
F 1

$$$$
=
 OpenBabel11052418253D

 27 33  0  0  1  0  0  0  0  0999 V2000
  192.3120  175.1540  142.5080 C   0  0  0  0  0  2  0  0  0  0  0  0
  189.8080  175.3240  142.7670 C   0  0  0  0  0  0  0  0  0  0  0  0
  190.6450  175.5560  145.1130 N   0  0  0  0  0  2  0  0  0  0  0  0
  185.7470  176.7170  143.9810 C   0  0  0  0  0  3  0  0  0  0  0  0
  185.4500  177.4610  146.5880 Cl  0  0  0  0  0  0  0  0  0  0  0  0
  188.6350  175.4550  142.0900 N   0  0  0  0  0  0  0  0  0  0  0  0
  187.7620  176.5460  145.3650 C   0  0  0  0  0  0  0  0  0  0  0  0
  192.8450  175.9010  146.2220 C   0  0  1  0  0  3  0  0  0  0  0  0
  188.4630  176.7070  146.6740 C   0  0  0  0  0  1  0  0  0  0  0  0
  194.3200  175.4870  146.2430 C   0  0  0  0  0  2  0  0  0  0  0  0
  188.4330  176.0860  144.2220 C   0  0  0  0  0  0  0  0  0  0  0  0
  190.9630  174.7150  142.1660 N   0  0  0  0  0  0  0  0  0  0  0  0
  186.3910  176.8680  145.2280 C   0  0  0  0  0  0  0  0  0  0  0  0
  187.7960  175.9430  143.0210 C   0  0  0  0  0  0  0  0  0  0  0  0
  192.6910  174.6580  143.8830 C   0  0  1  0  0  3  0  0  0  0  0  0
  189.7130  175.7090  144.0710 N   0  0  0  0  0  0  0  0  0  0  0  0
  192.6760  176.9700  145.1370 C   0  0  0  0  0  2  0  0  0  0  0  0
  186.4480  176.2470  142.8580 C   0  0  0  0  0  3  0  0  0  0  0  0
  194.6030  174.2460  145.4110 C   0  0  0  0  0  2  0  0  0  0  0  0
  194.2060  174.5230  143.9760 C   0  0  0  0  0  2  0  0  0  0  0  0
  192.0860  175.5960  144.9310 C   0  0  1  0  0  0  0  0  0  0  0  0
  191.9100  171.2070  139.9240 C   0  0  0  0  0  2  0  0  0  0  0  0
  190.7620  173.8190  141.0250 C   0  0  2  0  0  3  0  0  0  0  0  0
  190.3920  172.4200  141.4820 C   0  0  0  0  0  2  0  0  0  0  0  0
  191.6400  171.5600  141.3730 C   0  0  2  0  0  3  0  0  0  0  0  0
  192.6670  172.3480  140.5750 C   0  0  2  0  0  3  0  0  0  0  0  0
  192.0310  173.6790  140.2060 C   0  0  0  0  0  2  0  0  0  0  0  0
  2 16  1  0  0  0  0
  4 13  1  0  0  0  0
  6  2  2  0  0  0  0
  6 14  1  0  0  0  0
  7  9  1  0  0  0  0
  8 17  1  6  0  0  0
  8 10  1  0  0  0  0
 11  7  1  0  0  0  0
 12  1  1  0  0  0  0
 12  2  1  0  0  0  0
 13  7  2  0  0  0  0
 13  5  1  0  0  0  0
 14 11  2  0  0  0  0
 15  1  1  6  0  0  0
 15 20  1  0  0  0  0
 15 21  1  0  0  0  0
 16 11  1  0  0  0  0
 16  3  1  0  0  0  0
 18 14  1  0  0  0  0
 18  4  2  0  0  0  0
 19 10  1  0  0  0  0
 20 19  1  0  0  0  0
 21  3  1  0  0  0  0
 21 17  1  6  0  0  0
 21  8  1  0  0  0  0
 23 27  1  1  0  0  0
 23 24  1  0  0  0  0
 23 12  1  0  0  0  0
 25 22  1  6  0  0  0
 25 24  1  0  0  0  0
 26 22  1  6  0  0  0
 26 25  1  0  0  0  0
 27 26  1  0  0  0  0
M  END
>  <MODEL>
9

>  <REMARK>
 VINA RESULT:      -7.3      1.566      4.743
  Name = 
  1 active torsions:
  status: ('A' for Active; 'I' for Inactive)
    1  A    between atoms: C_9  and  N_15
                            x       y       z     vdW  Elec       q    Type
                         _______ _______ _______ _____ _____    ______ ____

>  <TORSDO>
F 1

$$$$
