=
 OpenBabel11052420033D

 37 39  0  0  1  0  0  0  0  0999 V2000
  188.6900  175.4140  145.1410 C   0  0  0  0  0  2  0  0  0  0  0  0
  187.4300  176.3310  142.3420 O   0  0  0  0  0  0  0  0  0  0  0  0
  192.6110  175.2880  145.2930 C   0  0  0  0  0  2  0  0  0  0  0  0
  188.6590  176.7340  144.3520 C   0  0  2  0  0  3  0  0  0  0  0  0
  191.2090  175.8550  145.0160 C   0  0  1  0  0  3  0  0  0  0  0  0
  186.2720  176.3560  144.3200 O   0  0  0  0  0  1  0  0  0  0  0  0
  190.2750  173.5420  145.4140 C   0  0  0  0  0  1  0  0  0  0  0  0
  190.9840  176.0250  143.4990 C   0  0  2  0  0  3  0  0  0  0  0  0
  193.1890  176.0800  143.0020 C   0  0  0  0  0  2  0  0  0  0  0  0
  190.0800  175.0320  145.6860 C   0  0  2  0  0  0  0  0  0  0  0  0
  191.9980  176.8230  142.9410 O   0  0  0  0  0  0  0  0  0  0  0  0
  187.3340  176.9340  143.6160 C   0  0  2  0  0  0  0  0  0  0  0  0
  189.6250  176.6800  143.2020 C   0  0  1  0  0  3  0  0  0  0  0  0
  193.6770  175.9850  144.4490 C   0  0  1  0  0  3  0  0  0  0  0  0
  188.7970  176.0820  142.0640 C   0  0  1  0  0  3  0  0  0  0  0  0
  194.4470  177.0450  146.2340 C   0  0  0  0  0  1  0  0  0  0  0  0
  193.9320  177.2630  144.9560 O   0  0  0  0  0  0  0  0  0  0  0  0
  190.5430  176.7230  147.5440 C   0  0  0  0  0  1  0  0  0  0  0  0
  190.1310  175.2990  147.1950 C   0  0  0  0  0  2  0  0  0  0  0  0
  189.0270  174.5690  141.8420 C   0  0  2  0  0  3  0  0  0  0  0  0
  190.5730  173.8160  140.1650 O   0  0  0  0  0  1  0  0  0  0  0  0
  188.5110  174.4580  139.4020 O   0  0  0  0  0  0  0  0  0  0  0  0
  189.4200  174.2480  140.4310 C   0  0  0  0  0  0  0  0  0  0  0  0
  187.8510  173.6950  142.2910 C   0  0  0  0  0  2  0  0  0  0  0  0
  188.1540  172.2060  142.1760 C   0  0  0  0  0  2  0  0  0  0  0  0
  189.3520  171.8420  143.0330 C   0  0  0  0  0  2  0  0  0  0  0  0
  191.6450  170.9110  142.9950 C   0  0  0  0  0  1  0  0  0  0  0  0
  190.3410  171.0160  142.2330 C   0  0  0  0  0  2  0  0  0  0  0  0
  187.0360  178.4240  143.4170 C   0  0  0  0  0  2  0  0  0  0  0  0
  185.7820  178.6740  142.5880 C   0  0  0  0  0  2  0  0  0  0  0  0
  183.5330  178.7200  143.3770 O   0  0  0  0  0  1  0  0  0  0  0  0
  184.7460  179.4060  143.4260 C   0  0  1  0  0  3  0  0  0  0  0  0
  185.2080  179.5110  144.8700 C   0  0  0  0  0  2  0  0  0  0  0  0
  184.2050  178.8530  145.8190 C   0  0  0  0  0  2  0  0  0  0  0  0
  184.7990  178.3390  147.1030 C   0  0  0  0  0  3  0  0  0  0  0  0
  186.0770  178.1350  147.2890 C   0  0  0  0  0  0  0  0  0  0  0  0
  187.2850  177.9390  147.4650 O   0  0  0  0  0  0  0  0  0  0  0  0
  1 10  1  0  0  0  0
  2 12  1  0  0  0  0
  4  1  1  6  0  0  0
  5  3  1  6  0  0  0
  5 10  1  0  0  0  0
  8 11  1  1  0  0  0
  8  5  1  0  0  0  0
  9 14  1  0  0  0  0
 10  7  1  6  0  0  0
 10 19  1  0  0  0  0
 11  9  1  0  0  0  0
 12  6  1  1  0  0  0
 12  4  1  0  0  0  0
 13  8  1  0  0  0  0
 13  4  1  0  0  0  0
 14 17  1  0  0  0  0
 14  3  1  0  0  0  0
 15  2  1  0  0  0  0
 15 13  1  0  0  0  0
 17 16  1  0  0  0  0
 19 18  1  0  0  0  0
 20 15  1  0  0  0  0
 20 24  1  0  0  0  0
 21 23  1  0  0  0  0
 22 23  2  0  0  0  0
 23 20  1  0  0  0  0
 25 24  1  0  0  0  0
 25 26  1  0  0  0  0
 28 27  1  0  0  0  0
 28 26  1  0  0  0  0
 29 12  1  0  0  0  0
 30 29  1  0  0  0  0
 30 32  1  0  0  0  0
 31 32  1  0  0  0  0
 32 33  1  0  0  0  0
 33 34  1  0  0  0  0
 34 35  1  0  0  0  0
 35 36  2  0  0  0  0
 36 37  2  0  0  0  0
M  END
>  <MODEL>
1

>  <REMARK>
 VINA RESULT:      -6.4      0.000      0.000
  Name = 
  14 active torsions:
  status: ('A' for Active; 'I' for Inactive)
    1  A    between atoms: C_1  and  C_23
    2  A    between atoms: C_1  and  C_33
    3  A    between atoms: C_1  and  C_36
    4  A    between atoms: C_6  and  C_8
    5  A    between atoms: C_6  and  C_31
    6  A    between atoms: C_8  and  C_19
    7  A    between atoms: C_15  and  C_19
    8  A    between atoms: C_17  and  C_26
    9  A    between atoms: C_17  and  C_33
   10  A    between atoms: C_24  and  C_28
   11  A    between atoms: C_26  and  C_34
   12  A    between atoms: C_27  and  C_37
   13  A    between atoms: O_30  and  C_32
   14  A    between atoms: C_31  and  C_37
                            x       y       z     vdW  Elec       q    Type
                         _______ _______ _______ _____ _____    ______ ____

>  <TORSDO>
F 14

$$$$
=
 OpenBabel11052420033D

 37 39  0  0  1  0  0  0  0  0999 V2000
  194.1040  175.7580  142.6910 C   0  0  0  0  0  2  0  0  0  0  0  0
  191.6950  175.7490  144.8020 O   0  0  0  0  0  0  0  0  0  0  0  0
  193.5690  173.5720  139.4750 C   0  0  0  0  0  2  0  0  0  0  0  0
  192.6650  176.3010  142.6880 C   0  0  2  0  0  3  0  0  0  0  0  0
  193.2540  174.6040  140.5710 C   0  0  1  0  0  3  0  0  0  0  0  0
  193.3340  177.3500  144.7610 O   0  0  0  0  0  1  0  0  0  0  0  0
  195.2430  173.7330  141.8610 C   0  0  0  0  0  1  0  0  0  0  0  0
  192.0790  174.1220  141.4470 C   0  0  2  0  0  3  0  0  0  0  0  0
  191.2710  172.7000  139.8840 C   0  0  0  0  0  2  0  0  0  0  0  0
  194.4950  174.9870  141.4160 C   0  0  2  0  0  0  0  0  0  0  0  0
  190.9580  173.8380  140.6470 O   0  0  0  0  0  0  0  0  0  0  0  0
  192.2440  176.8200  144.0630 C   0  0  2  0  0  0  0  0  0  0  0  0
  191.6840  175.1810  142.4890 C   0  0  1  0  0  3  0  0  0  0  0  0
  192.2970  173.0540  138.8060 C   0  0  1  0  0  3  0  0  0  0  0  0
  191.4030  174.6890  143.9090 C   0  0  1  0  0  3  0  0  0  0  0  0
  190.8760  173.3400  137.1320 C   0  0  0  0  0  1  0  0  0  0  0  0
  191.7760  174.0260  137.9470 O   0  0  0  0  0  0  0  0  0  0  0  0
  196.3300  176.7640  141.3560 C   0  0  0  0  0  1  0  0  0  0  0  0
  195.4080  175.8590  140.5470 C   0  0  0  0  0  2  0  0  0  0  0  0
  192.1960  173.4230  144.3090 C   0  0  2  0  0  3  0  0  0  0  0  0
  191.7650  171.0740  144.0530 O   0  0  0  0  0  0  0  0  0  0  0  0
  190.0160  172.3280  144.8370 O   0  0  0  0  0  1  0  0  0  0  0  0
  191.3270  172.2040  144.3980 C   0  0  0  0  0  0  0  0  0  0  0  0
  193.0250  173.5950  145.5860 C   0  0  0  0  0  2  0  0  0  0  0  0
  194.4690  173.1380  145.4100 C   0  0  0  0  0  2  0  0  0  0  0  0
  195.4250  174.2740  145.7240 C   0  0  0  0  0  2  0  0  0  0  0  0
  196.7900  172.2190  145.9240 C   0  0  0  0  0  1  0  0  0  0  0  0
  196.8140  173.7310  145.9990 C   0  0  0  0  0  2  0  0  0  0  0  0
  191.1710  177.9080  143.9340 C   0  0  0  0  0  2  0  0  0  0  0  0
  190.1350  177.8580  145.0500 C   0  0  0  0  0  2  0  0  0  0  0  0
  188.8200  177.6650  143.0720 O   0  0  0  0  0  1  0  0  0  0  0  0
  188.7560  177.6020  144.4640 C   0  0  1  0  0  3  0  0  0  0  0  0
  188.2460  176.2330  144.8830 C   0  0  0  0  0  2  0  0  0  0  0  0
  188.1480  176.1210  146.4050 C   0  0  0  0  0  2  0  0  0  0  0  0
  188.9330  174.9850  147.0040 C   0  0  0  0  0  3  0  0  0  0  0  0
  190.0980  175.1250  147.5820 C   0  0  0  0  0  0  0  0  0  0  0  0
  191.2010  175.2550  148.1250 O   0  0  0  0  0  0  0  0  0  0  0  0
  4  1  1  1  0  0  0
  4 12  1  0  0  0  0
  5  3  1  6  0  0  0
  5 10  1  0  0  0  0
  5  8  1  0  0  0  0
  8 11  1  6  0  0  0
  8 13  1  0  0  0  0
  9 11  1  0  0  0  0
 10  7  1  1  0  0  0
 10  1  1  0  0  0  0
 12  6  1  1  0  0  0
 12  2  1  0  0  0  0
 13  4  1  0  0  0  0
 13 15  1  0  0  0  0
 14  3  1  0  0  0  0
 14  9  1  0  0  0  0
 15 20  1  0  0  0  0
 15  2  1  0  0  0  0
 16 17  1  0  0  0  0
 17 14  1  0  0  0  0
 19 18  1  0  0  0  0
 19 10  1  0  0  0  0
 20 23  1  0  0  0  0
 20 24  1  0  0  0  0
 21 23  2  0  0  0  0
 23 22  1  0  0  0  0
 25 24  1  0  0  0  0
 25 26  1  0  0  0  0
 26 28  1  0  0  0  0
 27 28  1  0  0  0  0
 29 12  1  0  0  0  0
 29 30  1  0  0  0  0
 31 32  1  0  0  0  0
 32 33  1  0  0  0  0
 32 30  1  0  0  0  0
 33 34  1  0  0  0  0
 34 35  1  0  0  0  0
 35 36  2  0  0  0  0
 36 37  2  0  0  0  0
M  END
>  <MODEL>
2

>  <REMARK>
 VINA RESULT:      -6.2      2.787      5.869
  Name = 
  14 active torsions:
  status: ('A' for Active; 'I' for Inactive)
    1  A    between atoms: C_1  and  C_23
    2  A    between atoms: C_1  and  C_33
    3  A    between atoms: C_1  and  C_36
    4  A    between atoms: C_6  and  C_8
    5  A    between atoms: C_6  and  C_31
    6  A    between atoms: C_8  and  C_19
    7  A    between atoms: C_15  and  C_19
    8  A    between atoms: C_17  and  C_26
    9  A    between atoms: C_17  and  C_33
   10  A    between atoms: C_24  and  C_28
   11  A    between atoms: C_26  and  C_34
   12  A    between atoms: C_27  and  C_37
   13  A    between atoms: O_30  and  C_32
   14  A    between atoms: C_31  and  C_37
                            x       y       z     vdW  Elec       q    Type
                         _______ _______ _______ _____ _____    ______ ____

>  <TORSDO>
F 14

$$$$
=
 OpenBabel11052420033D

 37 39  0  0  1  0  0  0  0  0999 V2000
  191.1910  173.8380  145.0130 C   0  0  0  0  0  2  0  0  0  0  0  0
  190.6810  176.9990  144.9110 O   0  0  0  0  0  0  0  0  0  0  0  0
  190.1060  171.8260  141.8230 C   0  0  0  0  0  2  0  0  0  0  0  0
  191.7880  175.0020  144.2040 C   0  0  2  0  0  3  0  0  0  0  0  0
  190.7760  172.9300  142.6560 C   0  0  1  0  0  3  0  0  0  0  0  0
  192.1280  175.9980  146.3800 O   0  0  0  0  0  1  0  0  0  0  0  0
  189.4490  172.1290  144.6510 C   0  0  0  0  0  1  0  0  0  0  0  0
  190.1190  174.2970  142.3730 C   0  0  2  0  0  3  0  0  0  0  0  0
  189.2800  173.6730  140.3680 C   0  0  0  0  0  2  0  0  0  0  0  0
  190.8190  172.6030  144.1710 C   0  0  2  0  0  0  0  0  0  0  0  0
  190.1520  174.5780  140.9960 O   0  0  0  0  0  0  0  0  0  0  0  0
  191.8930  176.2830  145.0310 C   0  0  2  0  0  0  0  0  0  0  0  0
  190.8360  175.4310  143.1240 C   0  0  1  0  0  3  0  0  0  0  0  0
  189.8850  172.2680  140.3760 C   0  0  1  0  0  3  0  0  0  0  0  0
  189.9570  176.4760  143.8120 C   0  0  1  0  0  3  0  0  0  0  0  0
  190.7380  172.2670  138.3340 C   0  0  0  0  0  1  0  0  0  0  0  0
  191.0970  172.2610  139.6810 O   0  0  0  0  0  0  0  0  0  0  0  0
  193.1830  171.7680  143.6840 C   0  0  0  0  0  1  0  0  0  0  0  0
  191.8600  171.4990  144.3880 C   0  0  0  0  0  2  0  0  0  0  0  0
  188.5870  175.9360  144.2860 C   0  0  2  0  0  3  0  0  0  0  0  0
  186.4000  175.8510  143.2970 O   0  0  0  0  0  1  0  0  0  0  0  0
  187.5390  177.8200  143.0270 O   0  0  0  0  0  0  0  0  0  0  0  0
  187.4400  176.5260  143.5210 C   0  0  0  0  0  0  0  0  0  0  0  0
  188.3620  176.0730  145.7960 C   0  0  0  0  0  2  0  0  0  0  0  0
  187.4970  177.2790  146.1490 C   0  0  0  0  0  2  0  0  0  0  0  0
  186.4050  176.8780  147.1240 C   0  0  0  0  0  2  0  0  0  0  0  0
  184.4950  178.3420  146.5470 C   0  0  0  0  0  1  0  0  0  0  0  0
  185.0490  176.9370  146.4470 C   0  0  0  0  0  2  0  0  0  0  0  0
  193.0270  177.1780  144.5160 C   0  0  0  0  0  2  0  0  0  0  0  0
  194.4010  176.7370  145.0050 C   0  0  0  0  0  2  0  0  0  0  0  0
  196.4470  176.9030  143.7930 O   0  0  0  0  0  1  0  0  0  0  0  0
  195.2270  176.2290  143.8330 C   0  0  1  0  0  3  0  0  0  0  0  0
  195.4810  174.7370  143.9690 C   0  0  0  0  0  2  0  0  0  0  0  0
  195.4360  174.2990  145.4340 C   0  0  0  0  0  2  0  0  0  0  0  0
  196.6870  173.6230  145.9280 C   0  0  0  0  0  3  0  0  0  0  0  0
  196.8360  172.3270  146.0090 C   0  0  0  0  0  0  0  0  0  0  0  0
  196.9760  171.1010  146.0880 O   0  0  0  0  0  0  0  0  0  0  0  0
  2 12  1  0  0  0  0
  4  1  1  1  0  0  0
  4 12  1  0  0  0  0
  5  3  1  6  0  0  0
  5 10  1  0  0  0  0
  8 11  1  6  0  0  0
  8  5  1  0  0  0  0
  8 13  1  0  0  0  0
  9 14  1  0  0  0  0
  9 11  1  0  0  0  0
 10 19  1  0  0  0  0
 10  7  1  1  0  0  0
 10  1  1  0  0  0  0
 12  6  1  1  0  0  0
 13 15  1  0  0  0  0
 13  4  1  0  0  0  0
 14  3  1  0  0  0  0
 15 20  1  0  0  0  0
 15  2  1  0  0  0  0
 16 17  1  0  0  0  0
 17 14  1  0  0  0  0
 18 19  1  0  0  0  0
 20 24  1  0  0  0  0
 21 23  1  0  0  0  0
 22 23  2  0  0  0  0
 23 20  1  0  0  0  0
 24 25  1  0  0  0  0
 25 26  1  0  0  0  0
 28 27  1  0  0  0  0
 28 26  1  0  0  0  0
 29 30  1  0  0  0  0
 29 12  1  0  0  0  0
 31 32  1  0  0  0  0
 32 33  1  0  0  0  0
 32 30  1  0  0  0  0
 33 34  1  0  0  0  0
 34 35  1  0  0  0  0
 35 36  2  0  0  0  0
 36 37  2  0  0  0  0
M  END
>  <MODEL>
3

>  <REMARK>
 VINA RESULT:      -6.1      2.233      7.405
  Name = 
  14 active torsions:
  status: ('A' for Active; 'I' for Inactive)
    1  A    between atoms: C_1  and  C_23
    2  A    between atoms: C_1  and  C_33
    3  A    between atoms: C_1  and  C_36
    4  A    between atoms: C_6  and  C_8
    5  A    between atoms: C_6  and  C_31
    6  A    between atoms: C_8  and  C_19
    7  A    between atoms: C_15  and  C_19
    8  A    between atoms: C_17  and  C_26
    9  A    between atoms: C_17  and  C_33
   10  A    between atoms: C_24  and  C_28
   11  A    between atoms: C_26  and  C_34
   12  A    between atoms: C_27  and  C_37
   13  A    between atoms: O_30  and  C_32
   14  A    between atoms: C_31  and  C_37
                            x       y       z     vdW  Elec       q    Type
                         _______ _______ _______ _____ _____    ______ ____

>  <TORSDO>
F 14

$$$$
=
 OpenBabel11052420033D

 37 39  0  0  1  0  0  0  0  0999 V2000
  192.1140  176.3040  143.3300 C   0  0  0  0  0  2  0  0  0  0  0  0
  189.0860  176.1350  144.3600 O   0  0  0  0  0  0  0  0  0  0  0  0
  193.2990  173.3680  141.0100 C   0  0  0  0  0  2  0  0  0  0  0  0
  190.7360  176.4200  142.6550 C   0  0  2  0  0  3  0  0  0  0  0  0
  192.4030  174.5010  141.5360 C   0  0  1  0  0  3  0  0  0  0  0  0
  190.3210  178.0650  144.3770 O   0  0  0  0  0  1  0  0  0  0  0  0
  193.7980  174.5280  143.6410 C   0  0  0  0  0  1  0  0  0  0  0  0
  191.0650  173.9370  142.0560 C   0  0  2  0  0  3  0  0  0  0  0  0
  191.2050  172.0260  140.8540 C   0  0  0  0  0  2  0  0  0  0  0  0
  193.1100  175.3930  142.5870 C   0  0  2  0  0  0  0  0  0  0  0  0
  190.4310  173.1810  141.0530 O   0  0  0  0  0  0  0  0  0  0  0  0
  189.7120  177.1120  143.5540 C   0  0  2  0  0  0  0  0  0  0  0  0
  190.1140  175.0610  142.4980 C   0  0  1  0  0  3  0  0  0  0  0  0
  192.5120  172.3830  140.1450 C   0  0  1  0  0  3  0  0  0  0  0  0
  189.3570  174.8580  143.8110 C   0  0  1  0  0  3  0  0  0  0  0  0
  192.4830  171.9260  137.9790 C   0  0  0  0  0  1  0  0  0  0  0  0
  192.2430  172.9500  138.8960 O   0  0  0  0  0  0  0  0  0  0  0  0
  195.5270  176.2170  142.5060 C   0  0  0  0  0  1  0  0  0  0  0  0
  194.1490  176.2520  141.8580 C   0  0  0  0  0  2  0  0  0  0  0  0
  190.1060  173.9830  144.8430 C   0  0  2  0  0  3  0  0  0  0  0  0
  191.2100  171.8680  144.5630 O   0  0  0  0  0  1  0  0  0  0  0  0
  189.0090  171.9350  143.9300 O   0  0  0  0  0  0  0  0  0  0  0  0
  190.1470  172.5370  144.4520 C   0  0  0  0  0  0  0  0  0  0  0  0
  189.5870  174.1430  146.2770 C   0  0  0  0  0  2  0  0  0  0  0  0
  190.4030  175.1470  147.0840 C   0  0  0  0  0  2  0  0  0  0  0  0
  191.8620  175.0970  146.6690 C   0  0  0  0  0  2  0  0  0  0  0  0
  194.0090  176.3250  146.6120 C   0  0  0  0  0  1  0  0  0  0  0  0
  192.5480  176.4080  147.0000 C   0  0  0  0  0  2  0  0  0  0  0  0
  188.6290  177.8060  142.7200 C   0  0  0  0  0  2  0  0  0  0  0  0
  187.3010  177.9320  143.4560 C   0  0  0  0  0  2  0  0  0  0  0  0
  186.3260  178.3160  141.3150 O   0  0  0  0  0  1  0  0  0  0  0  0
  186.3330  178.7690  142.6350 C   0  0  1  0  0  3  0  0  0  0  0  0
  184.9280  178.6720  143.2070 C   0  0  0  0  0  2  0  0  0  0  0  0
  184.7760  179.5520  144.4490 C   0  0  0  0  0  2  0  0  0  0  0  0
  184.1600  178.8620  145.6360 C   0  0  0  0  0  3  0  0  0  0  0  0
  184.6160  177.7540  146.1580 C   0  0  0  0  0  0  0  0  0  0  0  0
  185.0450  176.7030  146.6500 O   0  0  0  0  0  0  0  0  0  0  0  0
  4  1  1  1  0  0  0
  4 12  1  0  0  0  0
  5  3  1  1  0  0  0
  5  8  1  0  0  0  0
  5 10  1  0  0  0  0
  8 11  1  6  0  0  0
  8 13  1  0  0  0  0
  9 11  1  0  0  0  0
 10  1  1  0  0  0  0
 10  7  1  1  0  0  0
 12  2  1  0  0  0  0
 12  6  1  1  0  0  0
 13  4  1  0  0  0  0
 13 15  1  0  0  0  0
 14  9  1  0  0  0  0
 14  3  1  0  0  0  0
 15  2  1  0  0  0  0
 15 20  1  0  0  0  0
 16 17  1  0  0  0  0
 17 14  1  0  0  0  0
 19 18  1  0  0  0  0
 19 10  1  0  0  0  0
 20 24  1  0  0  0  0
 22 23  2  0  0  0  0
 23 21  1  0  0  0  0
 23 20  1  0  0  0  0
 24 25  1  0  0  0  0
 26 28  1  0  0  0  0
 26 25  1  0  0  0  0
 27 28  1  0  0  0  0
 29 30  1  0  0  0  0
 29 12  1  0  0  0  0
 31 32  1  0  0  0  0
 32 33  1  0  0  0  0
 32 30  1  0  0  0  0
 33 34  1  0  0  0  0
 34 35  1  0  0  0  0
 35 36  2  0  0  0  0
 36 37  2  0  0  0  0
M  END
>  <MODEL>
4

>  <REMARK>
 VINA RESULT:      -6.1      2.134      4.614
  Name = 
  14 active torsions:
  status: ('A' for Active; 'I' for Inactive)
    1  A    between atoms: C_1  and  C_23
    2  A    between atoms: C_1  and  C_33
    3  A    between atoms: C_1  and  C_36
    4  A    between atoms: C_6  and  C_8
    5  A    between atoms: C_6  and  C_31
    6  A    between atoms: C_8  and  C_19
    7  A    between atoms: C_15  and  C_19
    8  A    between atoms: C_17  and  C_26
    9  A    between atoms: C_17  and  C_33
   10  A    between atoms: C_24  and  C_28
   11  A    between atoms: C_26  and  C_34
   12  A    between atoms: C_27  and  C_37
   13  A    between atoms: O_30  and  C_32
   14  A    between atoms: C_31  and  C_37
                            x       y       z     vdW  Elec       q    Type
                         _______ _______ _______ _____ _____    ______ ____

>  <TORSDO>
F 14

$$$$
=
 OpenBabel11052420033D

 37 39  0  0  1  0  0  0  0  0999 V2000
  188.4740  175.0110  144.4570 C   0  0  0  0  0  2  0  0  0  0  0  0
  188.2960  175.3110  141.2730 O   0  0  0  0  0  0  0  0  0  0  0  0
  192.0830  175.1640  145.9920 C   0  0  0  0  0  2  0  0  0  0  0  0
  188.7340  176.1570  143.4650 C   0  0  2  0  0  3  0  0  0  0  0  0
  190.8750  175.5790  145.1360 C   0  0  1  0  0  3  0  0  0  0  0  0
  186.5110  175.6290  142.6750 O   0  0  0  0  0  1  0  0  0  0  0  0
  189.8440  173.3260  145.6290 C   0  0  0  0  0  1  0  0  0  0  0  0
  191.2050  175.4500  143.6350 C   0  0  2  0  0  3  0  0  0  0  0  0
  193.4430  175.5520  143.9400 C   0  0  0  0  0  2  0  0  0  0  0  0
  189.5760  174.8250  145.5170 C   0  0  2  0  0  0  0  0  0  0  0  0
  192.3570  176.1930  143.3220 O   0  0  0  0  0  0  0  0  0  0  0  0
  187.7580  176.1320  142.2890 C   0  0  2  0  0  0  0  0  0  0  0  0
  190.0440  175.9510  142.7600 C   0  0  1  0  0  3  0  0  0  0  0  0
  193.3850  175.7580  145.4550 C   0  0  1  0  0  3  0  0  0  0  0  0
  189.6710  175.1020  141.5450 C   0  0  1  0  0  3  0  0  0  0  0  0
  194.8100  177.4330  145.7090 C   0  0  0  0  0  1  0  0  0  0  0  0
  193.4520  177.1210  145.7580 O   0  0  0  0  0  0  0  0  0  0  0  0
  188.9440  176.8870  146.8880 C   0  0  0  0  0  1  0  0  0  0  0  0
  189.0900  175.3700  146.8650 C   0  0  0  0  0  2  0  0  0  0  0  0
  189.9540  173.5910  141.7180 C   0  0  2  0  0  3  0  0  0  0  0  0
  191.8760  172.1510  141.6330 O   0  0  0  0  0  1  0  0  0  0  0  0
  191.9670  174.0160  140.3040 O   0  0  0  0  0  0  0  0  0  0  0  0
  191.3110  173.1980  141.2160 C   0  0  0  0  0  0  0  0  0  0  0  0
  188.8710  172.6890  141.1170 C   0  0  0  0  0  2  0  0  0  0  0  0
  189.1740  172.2940  139.6760 C   0  0  0  0  0  2  0  0  0  0  0  0
  188.2690  173.0470  138.7190 C   0  0  0  0  0  2  0  0  0  0  0  0
  189.4560  172.7570  136.5670 C   0  0  0  0  0  1  0  0  0  0  0  0
  189.0940  173.7460  137.6550 C   0  0  0  0  0  2  0  0  0  0  0  0
  187.5600  177.5380  141.7090 C   0  0  0  0  0  2  0  0  0  0  0  0
  186.1860  177.7350  141.0820 C   0  0  0  0  0  2  0  0  0  0  0  0
  184.2220  177.9730  142.4120 O   0  0  0  0  0  1  0  0  0  0  0  0
  185.3480  178.6560  141.9530 C   0  0  1  0  0  3  0  0  0  0  0  0
  186.1580  179.1460  143.1420 C   0  0  0  0  0  2  0  0  0  0  0  0
  185.2510  179.7200  144.2310 C   0  0  0  0  0  2  0  0  0  0  0  0
  185.3710  179.0450  145.5710 C   0  0  0  0  0  3  0  0  0  0  0  0
  185.4590  177.7510  145.7340 C   0  0  0  0  0  0  0  0  0  0  0  0
  185.5380  176.5260  145.8890 O   0  0  0  0  0  0  0  0  0  0  0  0
  1 10  1  0  0  0  0
  2 15  1  0  0  0  0
  2 12  1  0  0  0  0
  4  1  1  1  0  0  0
  5 10  1  0  0  0  0
  5  3  1  1  0  0  0
  8 11  1  1  0  0  0
  8  5  1  0  0  0  0
  9 14  1  0  0  0  0
 10  7  1  1  0  0  0
 10 19  1  0  0  0  0
 11  9  1  0  0  0  0
 12  6  1  1  0  0  0
 12  4  1  0  0  0  0
 13  4  1  0  0  0  0
 13  8  1  0  0  0  0
 14 17  1  0  0  0  0
 14  3  1  0  0  0  0
 15 20  1  0  0  0  0
 15 13  1  0  0  0  0
 16 17  1  0  0  0  0
 19 18  1  0  0  0  0
 22 23  2  0  0  0  0
 23 21  1  0  0  0  0
 23 20  1  0  0  0  0
 24 20  1  0  0  0  0
 25 24  1  0  0  0  0
 26 25  1  0  0  0  0
 27 28  1  0  0  0  0
 28 26  1  0  0  0  0
 29 12  1  0  0  0  0
 30 29  1  0  0  0  0
 30 32  1  0  0  0  0
 32 31  1  0  0  0  0
 32 33  1  0  0  0  0
 33 34  1  0  0  0  0
 34 35  1  0  0  0  0
 35 36  2  0  0  0  0
 36 37  2  0  0  0  0
M  END
>  <MODEL>
5

>  <REMARK>
 VINA RESULT:      -6.0      1.550      2.306
  Name = 
  14 active torsions:
  status: ('A' for Active; 'I' for Inactive)
    1  A    between atoms: C_1  and  C_23
    2  A    between atoms: C_1  and  C_33
    3  A    between atoms: C_1  and  C_36
    4  A    between atoms: C_6  and  C_8
    5  A    between atoms: C_6  and  C_31
    6  A    between atoms: C_8  and  C_19
    7  A    between atoms: C_15  and  C_19
    8  A    between atoms: C_17  and  C_26
    9  A    between atoms: C_17  and  C_33
   10  A    between atoms: C_24  and  C_28
   11  A    between atoms: C_26  and  C_34
   12  A    between atoms: C_27  and  C_37
   13  A    between atoms: O_30  and  C_32
   14  A    between atoms: C_31  and  C_37
                            x       y       z     vdW  Elec       q    Type
                         _______ _______ _______ _____ _____    ______ ____

>  <TORSDO>
F 14

$$$$
=
 OpenBabel11052420033D

 37 39  0  0  1  0  0  0  0  0999 V2000
  192.7580  174.1310  146.0610 C   0  0  0  0  0  2  0  0  0  0  0  0
  194.1020  172.7190  143.5200 O   0  0  0  0  0  0  0  0  0  0  0  0
  190.6630  177.3650  145.3130 C   0  0  0  0  0  2  0  0  0  0  0  0
  192.2170  173.3720  144.8370 C   0  0  2  0  0  3  0  0  0  0  0  0
  191.1510  175.9140  145.1720 C   0  0  1  0  0  3  0  0  0  0  0  0
  193.7840  171.6660  145.5300 O   0  0  0  0  0  1  0  0  0  0  0  0
  193.0890  176.4950  146.6850 C   0  0  0  0  0  1  0  0  0  0  0  0
  191.8620  175.7110  143.8180 C   0  0  2  0  0  3  0  0  0  0  0  0
  190.8680  177.4870  142.8320 C   0  0  0  0  0  2  0  0  0  0  0  0
  192.0220  175.4500  146.3660 C   0  0  2  0  0  0  0  0  0  0  0  0
  191.0180  176.0910  142.7600 O   0  0  0  0  0  0  0  0  0  0  0  0
  193.1360  172.2230  144.4220 C   0  0  2  0  0  0  0  0  0  0  0  0
  192.2740  174.2430  143.6140 C   0  0  1  0  0  3  0  0  0  0  0  0
  189.9950  177.8620  144.0310 C   0  0  1  0  0  3  0  0  0  0  0  0
  193.6710  173.9840  143.0500 C   0  0  1  0  0  3  0  0  0  0  0  0
  188.0260  177.7110  145.0310 C   0  0  0  0  0  1  0  0  0  0  0  0
  188.7260  177.2920  143.8990 O   0  0  0  0  0  0  0  0  0  0  0  0
  189.7100  174.7620  147.2060 C   0  0  0  0  0  1  0  0  0  0  0  0
  191.1020  175.2570  147.5770 C   0  0  0  0  0  2  0  0  0  0  0  0
  194.7110  175.0690  143.4130 C   0  0  2  0  0  3  0  0  0  0  0  0
  194.2190  176.0680  141.2840 O   0  0  0  0  0  0  0  0  0  0  0  0
  196.1650  176.7530  142.2810 O   0  0  0  0  0  1  0  0  0  0  0  0
  195.0020  175.9940  142.2690 C   0  0  0  0  0  0  0  0  0  0  0  0
  196.0100  174.5040  143.9990 C   0  0  0  0  0  2  0  0  0  0  0  0
  196.1000  174.6960  145.5090 C   0  0  0  0  0  2  0  0  0  0  0  0
  196.7770  173.5000  146.1530 C   0  0  0  0  0  2  0  0  0  0  0  0
  197.1460  171.1120  145.6180 C   0  0  0  0  0  1  0  0  0  0  0  0
  197.2520  172.5270  145.0910 C   0  0  0  0  0  2  0  0  0  0  0  0
  192.3450  171.1170  143.7120 C   0  0  0  0  0  2  0  0  0  0  0  0
  192.8750  170.8080  142.3180 C   0  0  0  0  0  2  0  0  0  0  0  0
  191.7060  170.1060  140.3630 O   0  0  0  0  0  1  0  0  0  0  0  0
  191.8220  171.1530  141.2770 C   0  0  1  0  0  3  0  0  0  0  0  0
  190.4760  171.3920  141.9420 C   0  0  0  0  0  2  0  0  0  0  0  0
  189.5880  172.2950  141.0840 C   0  0  0  0  0  2  0  0  0  0  0  0
  188.7200  173.2470  141.8620 C   0  0  0  0  0  3  0  0  0  0  0  0
  188.3840  174.4390  141.4450 C   0  0  0  0  0  0  0  0  0  0  0  0
  188.0680  175.5690  141.0520 O   0  0  0  0  0  0  0  0  0  0  0  0
  1 10  1  0  0  0  0
  2 12  1  0  0  0  0
  4  1  1  1  0  0  0
  5  3  1  1  0  0  0
  5 10  1  0  0  0  0
  8 11  1  6  0  0  0
  8  5  1  0  0  0  0
  9 14  1  0  0  0  0
 10  7  1  1  0  0  0
 10 19  1  0  0  0  0
 11  9  1  0  0  0  0
 12  4  1  0  0  0  0
 12  6  1  1  0  0  0
 13  8  1  0  0  0  0
 13  4  1  0  0  0  0
 14  3  1  0  0  0  0
 15 20  1  0  0  0  0
 15  2  1  0  0  0  0
 15 13  1  0  0  0  0
 17 14  1  0  0  0  0
 17 16  1  0  0  0  0
 18 19  1  0  0  0  0
 20 24  1  0  0  0  0
 21 23  2  0  0  0  0
 23 22  1  0  0  0  0
 23 20  1  0  0  0  0
 24 25  1  0  0  0  0
 25 26  1  0  0  0  0
 28 27  1  0  0  0  0
 28 26  1  0  0  0  0
 29 12  1  0  0  0  0
 30 29  1  0  0  0  0
 31 32  1  0  0  0  0
 32 33  1  0  0  0  0
 32 30  1  0  0  0  0
 34 35  1  0  0  0  0
 34 33  1  0  0  0  0
 36 35  2  0  0  0  0
 37 36  2  0  0  0  0
M  END
>  <MODEL>
6

>  <REMARK>
 VINA RESULT:      -6.0      2.595      6.831
  Name = 
  14 active torsions:
  status: ('A' for Active; 'I' for Inactive)
    1  A    between atoms: C_1  and  C_23
    2  A    between atoms: C_1  and  C_33
    3  A    between atoms: C_1  and  C_36
    4  A    between atoms: C_6  and  C_8
    5  A    between atoms: C_6  and  C_31
    6  A    between atoms: C_8  and  C_19
    7  A    between atoms: C_15  and  C_19
    8  A    between atoms: C_17  and  C_26
    9  A    between atoms: C_17  and  C_33
   10  A    between atoms: C_24  and  C_28
   11  A    between atoms: C_26  and  C_34
   12  A    between atoms: C_27  and  C_37
   13  A    between atoms: O_30  and  C_32
   14  A    between atoms: C_31  and  C_37
                            x       y       z     vdW  Elec       q    Type
                         _______ _______ _______ _____ _____    ______ ____

>  <TORSDO>
F 14

$$$$
=
 OpenBabel11052420033D

 37 39  0  0  1  0  0  0  0  0999 V2000
  192.3000  176.3840  144.6500 C   0  0  0  0  0  2  0  0  0  0  0  0
  189.5020  175.6930  143.2520 O   0  0  0  0  0  0  0  0  0  0  0  0
  195.4850  174.8290  142.9640 C   0  0  0  0  0  2  0  0  0  0  0  0
  191.6430  176.7540  143.3090 C   0  0  2  0  0  3  0  0  0  0  0  0
  194.1500  175.5830  143.0720 C   0  0  1  0  0  3  0  0  0  0  0  0
  189.7930  177.4430  144.7040 O   0  0  0  0  0  1  0  0  0  0  0  0
  193.9280  174.7010  145.4290 C   0  0  0  0  0  1  0  0  0  0  0  0
  193.0310  174.8110  142.3440 C   0  0  2  0  0  3  0  0  0  0  0  0
  194.4540  173.6440  141.0290 C   0  0  0  0  0  2  0  0  0  0  0  0
  193.7670  175.9280  144.5340 C   0  0  2  0  0  0  0  0  0  0  0  0
  193.3950  174.5680  141.0070 O   0  0  0  0  0  0  0  0  0  0  0  0
  190.1320  176.9430  143.4420 C   0  0  2  0  0  0  0  0  0  0  0  0
  191.7080  175.5940  142.3570 C   0  0  1  0  0  3  0  0  0  0  0  0
  195.7280  174.3150  141.5450 C   0  0  1  0  0  3  0  0  0  0  0  0
  190.4350  174.8040  142.6630 C   0  0  1  0  0  3  0  0  0  0  0  0
  197.3740  175.7320  141.1130 C   0  0  0  0  0  1  0  0  0  0  0  0
  196.0880  175.3740  140.7060 O   0  0  0  0  0  0  0  0  0  0  0  0
  194.5060  177.4040  146.4840 C   0  0  0  0  0  1  0  0  0  0  0  0
  194.6950  177.0500  145.0140 C   0  0  0  0  0  2  0  0  0  0  0  0
  190.6560  173.5800  143.5820 C   0  0  2  0  0  3  0  0  0  0  0  0
  191.7110  171.5730  142.7880 O   0  0  0  0  0  1  0  0  0  0  0  0
  189.5400  171.8850  142.1280 O   0  0  0  0  0  0  0  0  0  0  0  0
  190.6730  172.2860  142.8240 C   0  0  0  0  0  0  0  0  0  0  0  0
  189.6750  173.5080  144.7580 C   0  0  0  0  0  2  0  0  0  0  0  0
  190.3260  173.8840  146.0840 C   0  0  0  0  0  2  0  0  0  0  0  0
  189.3660  174.6970  146.9330 C   0  0  0  0  0  2  0  0  0  0  0  0
  191.4690  175.3430  148.0660 C   0  0  0  0  0  1  0  0  0  0  0  0
  190.1030  175.8260  147.6260 C   0  0  0  0  0  2  0  0  0  0  0  0
  189.6030  177.9090  142.3750 C   0  0  0  0  0  2  0  0  0  0  0  0
  188.1160  178.2040  142.5250 C   0  0  0  0  0  2  0  0  0  0  0  0
  187.4350  176.4520  141.0580 O   0  0  0  0  0  1  0  0  0  0  0  0
  187.3850  177.8340  141.2440 C   0  0  1  0  0  3  0  0  0  0  0  0
  185.9340  178.2810  141.3110 C   0  0  0  0  0  2  0  0  0  0  0  0
  185.1720  177.5240  142.4000 C   0  0  0  0  0  2  0  0  0  0  0  0
  184.4400  178.4000  143.3810 C   0  0  0  0  0  3  0  0  0  0  0  0
  185.0170  179.3090  144.1220 C   0  0  0  0  0  0  0  0  0  0  0  0
  185.5620  180.1670  144.8270 O   0  0  0  0  0  0  0  0  0  0  0  0
  2 12  1  0  0  0  0
  4 12  1  0  0  0  0
  4  1  1  1  0  0  0
  5  3  1  1  0  0  0
  5 10  1  0  0  0  0
  8 11  1  6  0  0  0
  8 13  1  0  0  0  0
  8  5  1  0  0  0  0
  9 14  1  0  0  0  0
 10  1  1  0  0  0  0
 10 19  1  0  0  0  0
 10  7  1  1  0  0  0
 11  9  1  0  0  0  0
 12  6  1  1  0  0  0
 13 15  1  0  0  0  0
 13  4  1  0  0  0  0
 14  3  1  0  0  0  0
 15  2  1  0  0  0  0
 15 20  1  0  0  0  0
 17 16  1  0  0  0  0
 17 14  1  0  0  0  0
 19 18  1  0  0  0  0
 20 24  1  0  0  0  0
 21 23  1  0  0  0  0
 22 23  2  0  0  0  0
 23 20  1  0  0  0  0
 24 25  1  0  0  0  0
 25 26  1  0  0  0  0
 26 28  1  0  0  0  0
 28 27  1  0  0  0  0
 29 30  1  0  0  0  0
 29 12  1  0  0  0  0
 31 32  1  0  0  0  0
 32 33  1  0  0  0  0
 32 30  1  0  0  0  0
 33 34  1  0  0  0  0
 34 35  1  0  0  0  0
 35 36  2  0  0  0  0
 36 37  2  0  0  0  0
M  END
>  <MODEL>
7

>  <REMARK>
 VINA RESULT:      -5.9      2.143      4.013
  Name = 
  14 active torsions:
  status: ('A' for Active; 'I' for Inactive)
    1  A    between atoms: C_1  and  C_23
    2  A    between atoms: C_1  and  C_33
    3  A    between atoms: C_1  and  C_36
    4  A    between atoms: C_6  and  C_8
    5  A    between atoms: C_6  and  C_31
    6  A    between atoms: C_8  and  C_19
    7  A    between atoms: C_15  and  C_19
    8  A    between atoms: C_17  and  C_26
    9  A    between atoms: C_17  and  C_33
   10  A    between atoms: C_24  and  C_28
   11  A    between atoms: C_26  and  C_34
   12  A    between atoms: C_27  and  C_37
   13  A    between atoms: O_30  and  C_32
   14  A    between atoms: C_31  and  C_37
                            x       y       z     vdW  Elec       q    Type
                         _______ _______ _______ _____ _____    ______ ____

>  <TORSDO>
F 14

$$$$
=
 OpenBabel11052420033D

 37 39  0  0  1  0  0  0  0  0999 V2000
  191.2240  173.7350  145.0440 C   0  0  0  0  0  2  0  0  0  0  0  0
  190.8150  176.9120  145.0790 O   0  0  0  0  0  0  0  0  0  0  0  0
  190.1160  171.9030  141.7540 C   0  0  0  0  0  2  0  0  0  0  0  0
  191.8670  174.9140  144.2940 C   0  0  2  0  0  3  0  0  0  0  0  0
  190.8100  172.9470  142.6440 C   0  0  1  0  0  3  0  0  0  0  0  0
  192.2110  175.8000  146.5170 O   0  0  0  0  0  1  0  0  0  0  0  0
  189.4340  172.0990  144.5860 C   0  0  0  0  0  1  0  0  0  0  0  0
  190.1990  174.3450  142.4160 C   0  0  2  0  0  3  0  0  0  0  0  0
  189.3660  173.8380  140.3750 C   0  0  0  0  0  2  0  0  0  0  0  0
  190.8240  172.5510  144.1420 C   0  0  2  0  0  0  0  0  0  0  0  0
  190.2580  174.6870  141.0530 O   0  0  0  0  0  0  0  0  0  0  0  0
  192.0020  176.1530  145.1790 C   0  0  2  0  0  0  0  0  0  0  0  0
  190.9430  175.4210  143.2240 C   0  0  1  0  0  3  0  0  0  0  0  0
  189.9260  172.4160  140.3270 C   0  0  1  0  0  3  0  0  0  0  0  0
  190.0880  176.4610  143.9490 C   0  0  1  0  0  3  0  0  0  0  0  0
  190.8050  172.4980  138.2970 C   0  0  0  0  0  1  0  0  0  0  0  0
  191.1460  172.4020  139.6460 O   0  0  0  0  0  0  0  0  0  0  0  0
  193.2140  171.7260  143.7780 C   0  0  0  0  0  1  0  0  0  0  0  0
  191.8270  171.4060  144.3210 C   0  0  0  0  0  2  0  0  0  0  0  0
  188.6960  175.9450  144.3840 C   0  0  2  0  0  3  0  0  0  0  0  0
  186.4820  176.0050  143.4540 O   0  0  0  0  0  1  0  0  0  0  0  0
  187.7630  177.8710  143.0990 O   0  0  0  0  0  0  0  0  0  0  0  0
  187.5780  176.6020  143.6320 C   0  0  0  0  0  0  0  0  0  0  0  0
  188.4560  176.0240  145.8950 C   0  0  0  0  0  2  0  0  0  0  0  0
  187.6450  177.2530  146.2930 C   0  0  0  0  0  2  0  0  0  0  0  0
  186.4170  176.8420  147.0840 C   0  0  0  0  0  2  0  0  0  0  0  0
  185.4960  178.7620  145.8230 C   0  0  0  0  0  1  0  0  0  0  0  0
  185.1660  177.4270  146.4570 C   0  0  0  0  0  2  0  0  0  0  0  0
  193.1700  177.0330  144.7180 C   0  0  0  0  0  2  0  0  0  0  0  0
  194.4510  176.7810  145.5030 C   0  0  0  0  0  2  0  0  0  0  0  0
  195.2530  174.5900  145.0160 O   0  0  0  0  0  1  0  0  0  0  0  0
  195.4050  175.9340  144.6760 C   0  0  1  0  0  3  0  0  0  0  0  0
  195.1250  176.1120  143.1930 C   0  0  0  0  0  2  0  0  0  0  0  0
  195.1440  174.7690  142.4610 C   0  0  0  0  0  2  0  0  0  0  0  0
  194.0490  174.5900  141.4440 C   0  0  0  0  0  3  0  0  0  0  0  0
  194.1530  174.9360  140.1880 C   0  0  0  0  0  0  0  0  0  0  0  0
  194.2500  175.2670  139.0000 O   0  0  0  0  0  0  0  0  0  0  0  0
  2 12  1  0  0  0  0
  4  1  1  1  0  0  0
  4 12  1  0  0  0  0
  5  3  1  6  0  0  0
  5 10  1  0  0  0  0
  8 11  1  6  0  0  0
  8  5  1  0  0  0  0
  8 13  1  0  0  0  0
  9 11  1  0  0  0  0
 10 19  1  0  0  0  0
 10  7  1  1  0  0  0
 10  1  1  0  0  0  0
 12  6  1  1  0  0  0
 13 15  1  0  0  0  0
 13  4  1  0  0  0  0
 14  9  1  0  0  0  0
 14  3  1  0  0  0  0
 15 20  1  0  0  0  0
 15  2  1  0  0  0  0
 16 17  1  0  0  0  0
 17 14  1  0  0  0  0
 18 19  1  0  0  0  0
 20 24  1  0  0  0  0
 21 23  1  0  0  0  0
 22 23  2  0  0  0  0
 23 20  1  0  0  0  0
 24 25  1  0  0  0  0
 25 26  1  0  0  0  0
 27 28  1  0  0  0  0
 28 26  1  0  0  0  0
 29 12  1  0  0  0  0
 29 30  1  0  0  0  0
 32 31  1  0  0  0  0
 32 30  1  0  0  0  0
 33 32  1  0  0  0  0
 34 33  1  0  0  0  0
 35 34  1  0  0  0  0
 36 35  2  0  0  0  0
 37 36  2  0  0  0  0
M  END
>  <MODEL>
8

>  <REMARK>
 VINA RESULT:      -5.9      1.904      7.235
  Name = 
  14 active torsions:
  status: ('A' for Active; 'I' for Inactive)
    1  A    between atoms: C_1  and  C_23
    2  A    between atoms: C_1  and  C_33
    3  A    between atoms: C_1  and  C_36
    4  A    between atoms: C_6  and  C_8
    5  A    between atoms: C_6  and  C_31
    6  A    between atoms: C_8  and  C_19
    7  A    between atoms: C_15  and  C_19
    8  A    between atoms: C_17  and  C_26
    9  A    between atoms: C_17  and  C_33
   10  A    between atoms: C_24  and  C_28
   11  A    between atoms: C_26  and  C_34
   12  A    between atoms: C_27  and  C_37
   13  A    between atoms: O_30  and  C_32
   14  A    between atoms: C_31  and  C_37
                            x       y       z     vdW  Elec       q    Type
                         _______ _______ _______ _____ _____    ______ ____

>  <TORSDO>
F 14

$$$$
=
 OpenBabel11052420033D

 37 39  0  0  1  0  0  0  0  0999 V2000
  193.7940  175.7660  142.6480 C   0  0  0  0  0  2  0  0  0  0  0  0
  191.2560  175.8460  144.6010 O   0  0  0  0  0  0  0  0  0  0  0  0
  193.4470  173.4680  139.4850 C   0  0  0  0  0  2  0  0  0  0  0  0
  192.3620  176.3160  142.5340 C   0  0  2  0  0  3  0  0  0  0  0  0
  193.0700  174.5400  140.5200 C   0  0  1  0  0  3  0  0  0  0  0  0
  192.9070  177.4360  144.6060 O   0  0  0  0  0  1  0  0  0  0  0  0
  194.9670  173.7060  141.9650 C   0  0  0  0  0  1  0  0  0  0  0  0
  191.8390  174.0970  141.3360 C   0  0  2  0  0  3  0  0  0  0  0  0
  191.1200  172.6240  139.7770 C   0  0  0  0  0  2  0  0  0  0  0  0
  194.2580  174.9470  141.4280 C   0  0  2  0  0  0  0  0  0  0  0  0
  190.7680  173.7910  140.4780 O   0  0  0  0  0  0  0  0  0  0  0  0
  191.8580  176.8870  143.8600 C   0  0  2  0  0  0  0  0  0  0  0  0
  191.3860  175.1950  142.3130 C   0  0  1  0  0  3  0  0  0  0  0  0
  192.2150  172.9330  138.7550 C   0  0  1  0  0  3  0  0  0  0  0  0
  191.0120  174.7570  143.7290 C   0  0  1  0  0  3  0  0  0  0  0  0
  192.0570  173.3310  136.5820 C   0  0  0  0  0  1  0  0  0  0  0  0
  191.7570  173.8770  137.8300 O   0  0  0  0  0  0  0  0  0  0  0  0
  196.3820  176.3670  141.3990 C   0  0  0  0  0  1  0  0  0  0  0  0
  195.2320  175.7830  140.5890 C   0  0  0  0  0  2  0  0  0  0  0  0
  191.7690  173.5020  144.2230 C   0  0  2  0  0  3  0  0  0  0  0  0
  189.8550  172.2550  144.9690 O   0  0  0  0  0  1  0  0  0  0  0  0
  191.2610  171.1580  143.5300 O   0  0  0  0  0  0  0  0  0  0  0  0
  190.8980  172.2820  144.2600 C   0  0  0  0  0  0  0  0  0  0  0  0
  192.4810  173.7010  145.5650 C   0  0  0  0  0  2  0  0  0  0  0  0
  193.9780  173.4250  145.4770 C   0  0  0  0  0  2  0  0  0  0  0  0
  194.7670  174.6700  145.8400 C   0  0  0  0  0  2  0  0  0  0  0  0
  196.8890  173.4300  146.1360 C   0  0  0  0  0  1  0  0  0  0  0  0
  196.2030  174.5400  145.3670 C   0  0  0  0  0  2  0  0  0  0  0  0
  190.8040  177.9760  143.6240 C   0  0  0  0  0  2  0  0  0  0  0  0
  189.6550  177.9180  144.6230 C   0  0  0  0  0  2  0  0  0  0  0  0
  187.3080  178.2790  144.4170 O   0  0  0  0  0  1  0  0  0  0  0  0
  188.3700  177.5300  143.9100 C   0  0  1  0  0  3  0  0  0  0  0  0
  188.4940  177.7800  142.4160 C   0  0  0  0  0  2  0  0  0  0  0  0
  188.0140  176.5710  141.6110 C   0  0  0  0  0  2  0  0  0  0  0  0
  187.5180  175.4190  142.4420 C   0  0  0  0  0  3  0  0  0  0  0  0
  187.7670  174.1630  142.1750 C   0  0  0  0  0  0  0  0  0  0  0  0
  187.9990  172.9750  141.9220 O   0  0  0  0  0  0  0  0  0  0  0  0
  4  1  1  1  0  0  0
  4 12  1  0  0  0  0
  5  3  1  6  0  0  0
  5  8  1  0  0  0  0
  5 10  1  0  0  0  0
  8 11  1  6  0  0  0
  8 13  1  0  0  0  0
  9 11  1  0  0  0  0
 10  7  1  1  0  0  0
 10  1  1  0  0  0  0
 12  2  1  0  0  0  0
 12  6  1  1  0  0  0
 13  4  1  0  0  0  0
 13 15  1  0  0  0  0
 14  3  1  0  0  0  0
 14  9  1  0  0  0  0
 15 20  1  0  0  0  0
 15  2  1  0  0  0  0
 16 17  1  0  0  0  0
 17 14  1  0  0  0  0
 19 18  1  0  0  0  0
 19 10  1  0  0  0  0
 20 23  1  0  0  0  0
 20 24  1  0  0  0  0
 22 23  2  0  0  0  0
 23 21  1  0  0  0  0
 25 24  1  0  0  0  0
 25 26  1  0  0  0  0
 28 26  1  0  0  0  0
 28 27  1  0  0  0  0
 29 12  1  0  0  0  0
 29 30  1  0  0  0  0
 32 31  1  0  0  0  0
 32 30  1  0  0  0  0
 33 32  1  0  0  0  0
 34 33  1  0  0  0  0
 34 35  1  0  0  0  0
 36 35  2  0  0  0  0
 37 36  2  0  0  0  0
M  END
>  <MODEL>
9

>  <REMARK>
 VINA RESULT:      -5.9      2.605      5.891
  Name = 
  14 active torsions:
  status: ('A' for Active; 'I' for Inactive)
    1  A    between atoms: C_1  and  C_23
    2  A    between atoms: C_1  and  C_33
    3  A    between atoms: C_1  and  C_36
    4  A    between atoms: C_6  and  C_8
    5  A    between atoms: C_6  and  C_31
    6  A    between atoms: C_8  and  C_19
    7  A    between atoms: C_15  and  C_19
    8  A    between atoms: C_17  and  C_26
    9  A    between atoms: C_17  and  C_33
   10  A    between atoms: C_24  and  C_28
   11  A    between atoms: C_26  and  C_34
   12  A    between atoms: C_27  and  C_37
   13  A    between atoms: O_30  and  C_32
   14  A    between atoms: C_31  and  C_37
                            x       y       z     vdW  Elec       q    Type
                         _______ _______ _______ _____ _____    ______ ____

>  <TORSDO>
F 14

$$$$
