=
 OpenBabel11052419213D

 32 34  0  0  1  0  0  0  0  0999 V2000
  187.3100  176.3590  145.5490 C   0  0  2  0  0  3  0  0  0  0  0  0
  188.7500  175.8600  145.6770 C   0  0  2  0  0  3  0  0  0  0  0  0
  189.0600  175.4330  147.1430 C   0  0  0  0  0  2  0  0  0  0  0  0
  193.2230  176.7580  145.7550 C   0  0  0  0  0  0  0  0  0  0  0  0
  189.7850  176.8490  145.0800 C   0  0  0  0  0  2  0  0  0  0  0  0
  192.7580  176.1480  146.9160 O   0  0  0  0  0  0  0  0  0  0  0  0
  191.3520  176.2060  146.8260 C   0  0  2  0  0  3  0  0  0  0  0  0
  190.5400  175.0570  147.3730 C   0  0  0  0  0  2  0  0  0  0  0  0
  192.3150  176.9360  144.8480 N   0  0  0  0  0  0  0  0  0  0  0  0
  194.6270  177.2140  145.5820 C   0  0  0  0  0  1  0  0  0  0  0  0
  191.1410  176.2430  145.3440 C   0  0  2  0  0  3  0  0  0  0  0  0
  187.1660  177.2130  144.2930 C   0  0  0  0  0  2  0  0  0  0  0  0
  186.5500  176.4390  143.1330 C   0  0  1  0  0  3  0  0  0  0  0  0
  185.4620  177.3130  142.5310 C   0  0  0  0  0  1  0  0  0  0  0  0
  187.6230  176.0780  142.0900 C   0  0  2  0  0  3  0  0  0  0  0  0
  187.3410  176.6790  140.7190 C   0  0  0  0  0  1  0  0  0  0  0  0
  187.8630  174.5670  141.9660 C   0  0  0  0  0  2  0  0  0  0  0  0
  189.2460  174.2370  141.6130 N   0  0  0  0  0  0  0  0  0  0  0  0
  189.2060  172.9200  140.9900 C   0  0  1  0  0  3  0  0  0  0  0  0
  188.3840  172.9700  139.7180 C   0  0  0  0  0  2  0  0  0  0  0  0
  189.8930  172.9760  139.6370 C   0  0  2  0  0  3  0  0  0  0  0  0
  190.3420  171.7010  139.3020 O   0  0  0  0  0  1  0  0  0  0  0  0
  189.9410  174.0940  142.7700 O   0  0  0  0  0  0  0  0  0  0  0  0
  189.5190  172.8680  143.2960 C   0  0  0  0  0  2  0  0  0  0  0  0
  189.3590  172.4370  145.6240 F   0  0  0  0  0  0  0  0  0  0  0  0
  190.2610  172.5800  144.5860 C   0  0  0  0  0  2  0  0  0  0  0  0
  186.8690  177.1220  146.7970 C   0  0  0  0  0  2  0  0  0  0  0  0
  185.3640  177.0210  146.9660 C   0  0  0  0  0  2  0  0  0  0  0  0
  184.7460  178.3980  147.1180 C   0  0  1  0  0  3  0  0  0  0  0  0
  185.8290  179.4180  147.4260 C   0  0  0  0  0  1  0  0  0  0  0  0
  184.8520  179.6240  145.0720 O   0  0  0  0  0  1  0  0  0  0  0  0
  184.0460  178.7680  145.8240 C   0  0  0  0  0  2  0  0  0  0  0  0
  1 12  1  6  0  0  0
  1 27  1  0  0  0  0
  2  1  1  1  0  0  0
  2  3  1  0  0  0  0
  3  8  1  0  0  0  0
  4  6  1  0  0  0  0
  5  2  1  0  0  0  0
  7  6  1  0  0  0  0
  7  8  1  6  0  0  0
  9 11  1  0  0  0  0
  9  4  2  0  0  0  0
 10  4  1  0  0  0  0
 11  5  1  1  0  0  0
 11  7  1  0  0  0  0
 13 14  1  6  0  0  0
 13 12  1  0  0  0  0
 15 16  1  6  0  0  0
 15 13  1  0  0  0  0
 17 15  1  0  0  0  0
 18 17  1  0  0  0  0
 18 23  1  0  0  0  0
 19 18  1  1  0  0  0
 20 19  1  0  0  0  0
 21 22  1  6  0  0  0
 21 20  1  0  0  0  0
 21 19  1  0  0  0  0
 23 24  1  0  0  0  0
 24 26  1  0  0  0  0
 26 25  1  0  0  0  0
 27 28  1  0  0  0  0
 28 29  1  0  0  0  0
 29 30  1  6  0  0  0
 31 32  1  0  0  0  0
 32 29  1  0  0  0  0
M  END
>  <MODEL>
1

>  <REMARK>
 VINA RESULT:      -6.5      0.000      0.000
  Name = 
  14 active torsions:
  status: ('A' for Active; 'I' for Inactive)
    1  A    between atoms: C_1  and  C_4
    2  A    between atoms: C_1  and  C_5
    3  A    between atoms: C_2  and  C_5
    4  A    between atoms: C_3  and  N_20
    5  A    between atoms: C_4  and  C_24
    6  A    between atoms: C_5  and  C_14
    7  A    between atoms: C_13  and  C_29
    8  A    between atoms: C_13  and  C_30
    9  A    between atoms: C_14  and  C_30
   10  A    between atoms: O_15  and  N_20
   11  A    between atoms: O_15  and  C_26
   12  A    between atoms: C_16  and  N_20
   13  A    between atoms: C_16  and  C_24
   14  A    between atoms: C_19  and  C_26
                            x       y       z     vdW  Elec       q    Type
                         _______ _______ _______ _____ _____    ______ ____

>  <TORSDO>
F 14

$$$$
=
 OpenBabel11052419213D

 32 34  0  0  1  0  0  0  0  0999 V2000
  187.4260  176.1770  146.0270 C   0  0  2  0  0  3  0  0  0  0  0  0
  188.8170  175.8980  146.5990 C   0  0  2  0  0  3  0  0  0  0  0  0
  189.5010  177.2190  147.0620 C   0  0  0  0  0  2  0  0  0  0  0  0
  193.1760  174.7260  145.9250 C   0  0  0  0  0  0  0  0  0  0  0  0
  189.6950  175.0360  145.6530 C   0  0  0  0  0  2  0  0  0  0  0  0
  193.0220  175.9700  146.5280 O   0  0  0  0  0  0  0  0  0  0  0  0
  191.6510  176.2760  146.4000 C   0  0  2  0  0  3  0  0  0  0  0  0
  190.9640  177.0280  147.5140 C   0  0  0  0  0  2  0  0  0  0  0  0
  192.0610  174.1080  145.6890 N   0  0  0  0  0  0  0  0  0  0  0  0
  194.4980  174.1690  145.5370 C   0  0  0  0  0  1  0  0  0  0  0  0
  191.0380  174.9120  146.3300 C   0  0  2  0  0  3  0  0  0  0  0  0
  187.5410  177.0670  144.7930 C   0  0  0  0  0  2  0  0  0  0  0  0
  187.2650  176.3060  143.5020 C   0  0  1  0  0  3  0  0  0  0  0  0
  185.9220  176.7820  142.9720 C   0  0  0  0  0  1  0  0  0  0  0  0
  188.3890  176.5460  142.4780 C   0  0  2  0  0  3  0  0  0  0  0  0
  188.2130  177.8420  141.6970 C   0  0  0  0  0  1  0  0  0  0  0  0
  188.5900  175.3700  141.5130 C   0  0  0  0  0  2  0  0  0  0  0  0
  189.8770  174.6960  141.6950 N   0  0  0  0  0  0  0  0  0  0  0  0
  189.6000  173.4780  142.4460 C   0  0  1  0  0  3  0  0  0  0  0  0
  188.3270  172.8310  141.9360 C   0  0  0  0  0  2  0  0  0  0  0  0
  189.6700  172.2800  141.5150 C   0  0  2  0  0  3  0  0  0  0  0  0
  189.9560  171.1400  142.2630 O   0  0  0  0  0  1  0  0  0  0  0  0
  190.6390  175.4780  142.5010 O   0  0  0  0  0  0  0  0  0  0  0  0
  191.9610  175.1510  142.1790 C   0  0  0  0  0  2  0  0  0  0  0  0
  194.1930  175.8200  142.6250 F   0  0  0  0  0  0  0  0  0  0  0  0
  192.8870  176.2710  142.6110 C   0  0  0  0  0  2  0  0  0  0  0  0
  186.5030  176.7920  147.0760 C   0  0  0  0  0  2  0  0  0  0  0  0
  185.0960  176.9260  146.5200 C   0  0  0  0  0  2  0  0  0  0  0  0
  184.5630  178.3280  146.7400 C   0  0  1  0  0  3  0  0  0  0  0  0
  185.6600  179.2160  147.3010 C   0  0  0  0  0  1  0  0  0  0  0  0
  185.0820  179.6640  144.8300 O   0  0  0  0  0  1  0  0  0  0  0  0
  184.0810  178.8850  145.4130 C   0  0  0  0  0  2  0  0  0  0  0  0
  1 12  1  6  0  0  0
  1 27  1  0  0  0  0
  2  1  1  6  0  0  0
  2  3  1  0  0  0  0
  3  8  1  0  0  0  0
  4  6  1  0  0  0  0
  5  2  1  0  0  0  0
  7  6  1  0  0  0  0
  7  8  1  1  0  0  0
  9  4  2  0  0  0  0
  9 11  1  0  0  0  0
 10  4  1  0  0  0  0
 11  5  1  6  0  0  0
 11  7  1  0  0  0  0
 13 14  1  6  0  0  0
 13 12  1  0  0  0  0
 15 16  1  6  0  0  0
 15 13  1  0  0  0  0
 17 18  1  0  0  0  0
 17 15  1  0  0  0  0
 18 23  1  0  0  0  0
 19 18  1  6  0  0  0
 20 19  1  0  0  0  0
 21 20  1  0  0  0  0
 21 22  1  1  0  0  0
 21 19  1  0  0  0  0
 24 23  1  0  0  0  0
 24 26  1  0  0  0  0
 26 25  1  0  0  0  0
 28 29  1  0  0  0  0
 28 27  1  0  0  0  0
 29 30  1  6  0  0  0
 31 32  1  0  0  0  0
 32 29  1  0  0  0  0
M  END
>  <MODEL>
2

>  <REMARK>
 VINA RESULT:      -6.2      1.938      2.170
  Name = 
  14 active torsions:
  status: ('A' for Active; 'I' for Inactive)
    1  A    between atoms: C_1  and  C_4
    2  A    between atoms: C_1  and  C_5
    3  A    between atoms: C_2  and  C_5
    4  A    between atoms: C_3  and  N_20
    5  A    between atoms: C_4  and  C_24
    6  A    between atoms: C_5  and  C_14
    7  A    between atoms: C_13  and  C_29
    8  A    between atoms: C_13  and  C_30
    9  A    between atoms: C_14  and  C_30
   10  A    between atoms: O_15  and  N_20
   11  A    between atoms: O_15  and  C_26
   12  A    between atoms: C_16  and  N_20
   13  A    between atoms: C_16  and  C_24
   14  A    between atoms: C_19  and  C_26
                            x       y       z     vdW  Elec       q    Type
                         _______ _______ _______ _____ _____    ______ ____

>  <TORSDO>
F 14

$$$$
=
 OpenBabel11052419213D

 32 34  0  0  1  0  0  0  0  0999 V2000
  188.6400  177.3680  144.4220 C   0  0  2  0  0  3  0  0  0  0  0  0
  187.4060  178.1370  143.9480 C   0  0  2  0  0  3  0  0  0  0  0  0
  186.4060  178.3580  145.1210 C   0  0  0  0  0  2  0  0  0  0  0  0
  183.5150  178.2320  141.5660 C   0  0  0  0  0  0  0  0  0  0  0  0
  186.7600  177.5160  142.6810 C   0  0  0  0  0  2  0  0  0  0  0  0
  183.3460  178.5140  142.9180 O   0  0  0  0  0  0  0  0  0  0  0  0
  184.5720  178.1700  143.5230 C   0  0  2  0  0  3  0  0  0  0  0  0
  185.0730  179.0010  144.6790 C   0  0  0  0  0  2  0  0  0  0  0  0
  184.7450  178.0220  141.2160 N   0  0  0  0  0  0  0  0  0  0  0  0
  182.3820  178.1290  140.6090 C   0  0  0  0  0  1  0  0  0  0  0  0
  185.5340  178.3460  142.3900 C   0  0  2  0  0  3  0  0  0  0  0  0
  189.2650  176.6150  143.2520 C   0  0  0  0  0  2  0  0  0  0  0  0
  190.7460  176.9300  143.0850 C   0  0  1  0  0  3  0  0  0  0  0  0
  190.9910  178.3000  143.6950 C   0  0  0  0  0  1  0  0  0  0  0  0
  191.6110  175.8510  143.7620 C   0  0  2  0  0  3  0  0  0  0  0  0
  192.8340  176.4270  144.4630 C   0  0  0  0  0  1  0  0  0  0  0  0
  192.0310  174.7240  142.8080 C   0  0  0  0  0  2  0  0  0  0  0  0
  191.2840  173.4840  143.0260 N   0  0  0  0  0  0  0  0  0  0  0  0
  192.2690  172.4110  143.0520 C   0  0  1  0  0  3  0  0  0  0  0  0
  193.2300  172.6140  144.2060 C   0  0  0  0  0  2  0  0  0  0  0  0
  192.1110  171.6060  144.3300 C   0  0  2  0  0  3  0  0  0  0  0  0
  192.6190  170.3250  144.1260 O   0  0  0  0  0  1  0  0  0  0  0  0
  190.5140  173.2720  141.9280 O   0  0  0  0  0  0  0  0  0  0  0  0
  189.3350  172.6990  142.4180 C   0  0  0  0  0  2  0  0  0  0  0  0
  186.9940  172.5860  142.0470 F   0  0  0  0  0  0  0  0  0  0  0  0
  188.1810  173.0290  141.4930 C   0  0  0  0  0  2  0  0  0  0  0  0
  188.3020  176.4260  145.5760 C   0  0  0  0  0  2  0  0  0  0  0  0
  189.2820  176.6260  146.7180 C   0  0  0  0  0  2  0  0  0  0  0  0
  189.7550  175.2910  147.2600 C   0  0  1  0  0  3  0  0  0  0  0  0
  189.5970  174.2170  146.1980 C   0  0  0  0  0  1  0  0  0  0  0  0
  191.4180  176.5810  148.3870 O   0  0  0  0  0  1  0  0  0  0  0  0
  191.2150  175.4100  147.6560 C   0  0  0  0  0  2  0  0  0  0  0  0
  1 12  1  6  0  0  0
  1 27  1  0  0  0  0
  2  1  1  1  0  0  0
  2  3  1  0  0  0  0
  4  6  1  0  0  0  0
  5  2  1  0  0  0  0
  6  7  1  0  0  0  0
  7  8  1  1  0  0  0
  8  3  1  0  0  0  0
  9  4  2  0  0  0  0
  9 11  1  0  0  0  0
 10  4  1  0  0  0  0
 11  5  1  1  0  0  0
 11  7  1  0  0  0  0
 13 12  1  0  0  0  0
 13 14  1  1  0  0  0
 13 15  1  0  0  0  0
 15 16  1  6  0  0  0
 17 18  1  0  0  0  0
 17 15  1  0  0  0  0
 19 18  1  1  0  0  0
 19 20  1  0  0  0  0
 19 21  1  0  0  0  0
 20 21  1  0  0  0  0
 21 22  1  6  0  0  0
 23 24  1  0  0  0  0
 23 18  1  0  0  0  0
 26 25  1  0  0  0  0
 26 24  1  0  0  0  0
 27 28  1  0  0  0  0
 28 29  1  0  0  0  0
 29 30  1  6  0  0  0
 29 32  1  0  0  0  0
 32 31  1  0  0  0  0
M  END
>  <MODEL>
3

>  <REMARK>
 VINA RESULT:      -5.9      2.410      6.127
  Name = 
  14 active torsions:
  status: ('A' for Active; 'I' for Inactive)
    1  A    between atoms: C_1  and  C_4
    2  A    between atoms: C_1  and  C_5
    3  A    between atoms: C_2  and  C_5
    4  A    between atoms: C_3  and  N_20
    5  A    between atoms: C_4  and  C_24
    6  A    between atoms: C_5  and  C_14
    7  A    between atoms: C_13  and  C_29
    8  A    between atoms: C_13  and  C_30
    9  A    between atoms: C_14  and  C_30
   10  A    between atoms: O_15  and  N_20
   11  A    between atoms: O_15  and  C_26
   12  A    between atoms: C_16  and  N_20
   13  A    between atoms: C_16  and  C_24
   14  A    between atoms: C_19  and  C_26
                            x       y       z     vdW  Elec       q    Type
                         _______ _______ _______ _____ _____    ______ ____

>  <TORSDO>
F 14

$$$$
=
 OpenBabel11052419213D

 32 34  0  0  1  0  0  0  0  0999 V2000
  190.2000  175.0090  145.7480 C   0  0  2  0  0  3  0  0  0  0  0  0
  189.4760  174.2040  144.6690 C   0  0  2  0  0  3  0  0  0  0  0  0
  190.0180  172.7440  144.6090 C   0  0  0  0  0  2  0  0  0  0  0  0
  188.7350  173.3420  140.2490 C   0  0  0  0  0  0  0  0  0  0  0  0
  189.4570  174.9220  143.2930 C   0  0  0  0  0  2  0  0  0  0  0  0
  189.1990  172.2400  140.9600 O   0  0  0  0  0  0  0  0  0  0  0  0
  189.6270  172.7550  142.2010 C   0  0  2  0  0  3  0  0  0  0  0  0
  189.4320  171.9190  143.4430 C   0  0  0  0  0  2  0  0  0  0  0  0
  188.5670  174.4070  140.9690 N   0  0  0  0  0  0  0  0  0  0  0  0
  188.4980  173.3220  138.7820 C   0  0  0  0  0  1  0  0  0  0  0  0
  188.7720  173.9750  142.3380 C   0  0  2  0  0  3  0  0  0  0  0  0
  189.8410  176.4870  145.6230 C   0  0  0  0  0  2  0  0  0  0  0  0
  188.8920  176.9470  146.7230 C   0  0  1  0  0  3  0  0  0  0  0  0
  189.6070  178.0290  147.5160 C   0  0  0  0  0  1  0  0  0  0  0  0
  187.5740  177.4690  146.1220 C   0  0  2  0  0  3  0  0  0  0  0  0
  186.4170  176.4950  146.2980 C   0  0  0  0  0  1  0  0  0  0  0  0
  187.7010  177.8790  144.6490 C   0  0  0  0  0  2  0  0  0  0  0  0
  186.4320  178.3200  144.0680 N   0  0  0  0  0  0  0  0  0  0  0  0
  186.7170  178.6830  142.6860 C   0  0  1  0  0  3  0  0  0  0  0  0
  187.7860  177.7710  142.1180 C   0  0  0  0  0  2  0  0  0  0  0  0
  186.3350  177.5340  141.7690 C   0  0  2  0  0  3  0  0  0  0  0  0
  186.0800  178.0360  140.4950 O   0  0  0  0  0  1  0  0  0  0  0  0
  186.0680  179.4660  144.6990 O   0  0  0  0  0  0  0  0  0  0  0  0
  184.7180  179.6430  144.3760 C   0  0  0  0  0  2  0  0  0  0  0  0
  184.3420  178.9670  146.6190 F   0  0  0  0  0  0  0  0  0  0  0  0
  183.8540  178.8450  145.3320 C   0  0  0  0  0  2  0  0  0  0  0  0
  191.7110  174.7950  145.6870 C   0  0  0  0  0  2  0  0  0  0  0  0
  192.4080  175.6980  146.6890 C   0  0  0  0  0  2  0  0  0  0  0  0
  193.6300  176.3480  146.0690 C   0  0  1  0  0  3  0  0  0  0  0  0
  194.8330  175.4330  146.2180 C   0  0  0  0  0  1  0  0  0  0  0  0
  194.5030  176.3300  143.8470 O   0  0  0  0  0  1  0  0  0  0  0  0
  193.3580  176.6020  144.5980 C   0  0  0  0  0  2  0  0  0  0  0  0
  1 12  1  6  0  0  0
  2  1  1  1  0  0  0
  3  2  1  0  0  0  0
  4  6  1  0  0  0  0
  4  9  2  0  0  0  0
  5  2  1  0  0  0  0
  6  7  1  0  0  0  0
  7 11  1  0  0  0  0
  7  8  1  1  0  0  0
  8  3  1  0  0  0  0
  9 11  1  0  0  0  0
 10  4  1  0  0  0  0
 11  5  1  1  0  0  0
 12 13  1  0  0  0  0
 13 14  1  6  0  0  0
 15 16  1  6  0  0  0
 15 13  1  0  0  0  0
 17 15  1  0  0  0  0
 18 17  1  0  0  0  0
 18 23  1  0  0  0  0
 19 18  1  1  0  0  0
 20 19  1  0  0  0  0
 21 22  1  6  0  0  0
 21 20  1  0  0  0  0
 21 19  1  0  0  0  0
 24 23  1  0  0  0  0
 24 26  1  0  0  0  0
 26 25  1  0  0  0  0
 27  1  1  0  0  0  0
 27 28  1  0  0  0  0
 29 30  1  6  0  0  0
 29 28  1  0  0  0  0
 31 32  1  0  0  0  0
 32 29  1  0  0  0  0
M  END
>  <MODEL>
4

>  <REMARK>
 VINA RESULT:      -5.9      2.450      6.725
  Name = 
  14 active torsions:
  status: ('A' for Active; 'I' for Inactive)
    1  A    between atoms: C_1  and  C_4
    2  A    between atoms: C_1  and  C_5
    3  A    between atoms: C_2  and  C_5
    4  A    between atoms: C_3  and  N_20
    5  A    between atoms: C_4  and  C_24
    6  A    between atoms: C_5  and  C_14
    7  A    between atoms: C_13  and  C_29
    8  A    between atoms: C_13  and  C_30
    9  A    between atoms: C_14  and  C_30
   10  A    between atoms: O_15  and  N_20
   11  A    between atoms: O_15  and  C_26
   12  A    between atoms: C_16  and  N_20
   13  A    between atoms: C_16  and  C_24
   14  A    between atoms: C_19  and  C_26
                            x       y       z     vdW  Elec       q    Type
                         _______ _______ _______ _____ _____    ______ ____

>  <TORSDO>
F 14

$$$$
=
 OpenBabel11052419213D

 32 34  0  0  1  0  0  0  0  0999 V2000
  190.2270  174.3060  145.2250 C   0  0  2  0  0  3  0  0  0  0  0  0
  191.7550  174.3720  145.1790 C   0  0  2  0  0  3  0  0  0  0  0  0
  192.3180  175.0720  146.4510 C   0  0  0  0  0  2  0  0  0  0  0  0
  195.5540  176.1600  143.3930 C   0  0  0  0  0  0  0  0  0  0  0  0
  192.2920  174.9640  143.8480 C   0  0  0  0  0  2  0  0  0  0  0  0
  195.4470  176.3440  144.7680 O   0  0  0  0  0  0  0  0  0  0  0  0
  194.1190  175.9880  145.0850 C   0  0  2  0  0  3  0  0  0  0  0  0
  193.8440  175.3020  146.4010 C   0  0  0  0  0  2  0  0  0  0  0  0
  194.5760  175.4910  142.8670 N   0  0  0  0  0  0  0  0  0  0  0  0
  196.6660  176.7230  142.5820 C   0  0  0  0  0  1  0  0  0  0  0  0
  193.7930  175.0180  143.9930 C   0  0  2  0  0  3  0  0  0  0  0  0
  189.7160  174.9800  146.4940 C   0  0  0  0  0  2  0  0  0  0  0  0
  188.8460  176.1950  146.1950 C   0  0  1  0  0  3  0  0  0  0  0  0
  189.4260  177.3700  146.9660 C   0  0  0  0  0  1  0  0  0  0  0  0
  188.8090  176.4780  144.6830 C   0  0  2  0  0  3  0  0  0  0  0  0
  189.5720  177.7390  144.2980 C   0  0  0  0  0  1  0  0  0  0  0  0
  187.3850  176.5270  144.1100 C   0  0  0  0  0  2  0  0  0  0  0  0
  186.7850  177.8600  144.1870 N   0  0  0  0  0  0  0  0  0  0  0  0
  185.4060  177.6640  144.6170 C   0  0  1  0  0  3  0  0  0  0  0  0
  185.3740  177.0930  146.0210 C   0  0  0  0  0  2  0  0  0  0  0  0
  185.1100  178.5650  145.8030 C   0  0  2  0  0  3  0  0  0  0  0  0
  183.7380  178.8020  145.8630 O   0  0  0  0  0  1  0  0  0  0  0  0
  186.7260  178.3570  142.9250 O   0  0  0  0  0  0  0  0  0  0  0  0
  186.1860  177.3220  142.1540 C   0  0  0  0  0  2  0  0  0  0  0  0
  187.3100  176.4250  140.2660 F   0  0  0  0  0  0  0  0  0  0  0  0
  186.5720  177.5100  140.7000 C   0  0  0  0  0  2  0  0  0  0  0  0
  189.7260  172.8680  145.1150 C   0  0  0  0  0  2  0  0  0  0  0  0
  190.4830  172.1330  144.0230 C   0  0  0  0  0  2  0  0  0  0  0  0
  189.5510  171.7350  142.8960 C   0  0  1  0  0  3  0  0  0  0  0  0
  188.7750  172.9500  142.4150 C   0  0  0  0  0  1  0  0  0  0  0  0
  190.6160  169.8100  141.9690 O   0  0  0  0  0  1  0  0  0  0  0  0
  190.3730  171.1670  141.7540 C   0  0  0  0  0  2  0  0  0  0  0  0
  1 27  1  1  0  0  0
  1 12  1  0  0  0  0
  2  1  1  6  0  0  0
  2  3  1  0  0  0  0
  4  6  1  0  0  0  0
  5  2  1  0  0  0  0
  6  7  1  0  0  0  0
  7  8  1  1  0  0  0
  8  3  1  0  0  0  0
  9  4  2  0  0  0  0
  9 11  1  0  0  0  0
 10  4  1  0  0  0  0
 11  5  1  6  0  0  0
 11  7  1  0  0  0  0
 13 12  1  0  0  0  0
 13 14  1  1  0  0  0
 15 16  1  1  0  0  0
 15 13  1  0  0  0  0
 17 18  1  0  0  0  0
 17 15  1  0  0  0  0
 19 18  1  1  0  0  0
 19 21  1  0  0  0  0
 19 20  1  0  0  0  0
 21 22  1  6  0  0  0
 21 20  1  0  0  0  0
 23 18  1  0  0  0  0
 24 23  1  0  0  0  0
 25 26  1  0  0  0  0
 26 24  1  0  0  0  0
 28 27  1  0  0  0  0
 29 30  1  6  0  0  0
 29 28  1  0  0  0  0
 32 31  1  0  0  0  0
 32 29  1  0  0  0  0
M  END
>  <MODEL>
5

>  <REMARK>
 VINA RESULT:      -5.9      2.449      6.289
  Name = 
  14 active torsions:
  status: ('A' for Active; 'I' for Inactive)
    1  A    between atoms: C_1  and  C_4
    2  A    between atoms: C_1  and  C_5
    3  A    between atoms: C_2  and  C_5
    4  A    between atoms: C_3  and  N_20
    5  A    between atoms: C_4  and  C_24
    6  A    between atoms: C_5  and  C_14
    7  A    between atoms: C_13  and  C_29
    8  A    between atoms: C_13  and  C_30
    9  A    between atoms: C_14  and  C_30
   10  A    between atoms: O_15  and  N_20
   11  A    between atoms: O_15  and  C_26
   12  A    between atoms: C_16  and  N_20
   13  A    between atoms: C_16  and  C_24
   14  A    between atoms: C_19  and  C_26
                            x       y       z     vdW  Elec       q    Type
                         _______ _______ _______ _____ _____    ______ ____

>  <TORSDO>
F 14

$$$$
=
 OpenBabel11052419213D

 32 34  0  0  1  0  0  0  0  0999 V2000
  189.1670  175.6800  144.7500 C   0  0  2  0  0  3  0  0  0  0  0  0
  190.1240  174.5950  144.2540 C   0  0  2  0  0  3  0  0  0  0  0  0
  191.2800  175.2160  143.4140 C   0  0  0  0  0  2  0  0  0  0  0  0
  190.9630  171.0770  141.4700 C   0  0  0  0  0  0  0  0  0  0  0  0
  189.3910  173.4270  143.5420 C   0  0  0  0  0  2  0  0  0  0  0  0
  191.8560  172.1340  141.3160 O   0  0  0  0  0  0  0  0  0  0  0  0
  191.2860  173.2060  142.0320 C   0  0  2  0  0  3  0  0  0  0  0  0
  192.1990  174.1630  142.7600 C   0  0  0  0  0  2  0  0  0  0  0  0
  190.0720  171.2640  142.3930 N   0  0  0  0  0  0  0  0  0  0  0  0
  190.9910  169.8590  140.6200 C   0  0  0  0  0  1  0  0  0  0  0  0
  190.4700  172.4880  143.0620 C   0  0  2  0  0  3  0  0  0  0  0  0
  189.5110  177.0150  144.0970 C   0  0  0  0  0  2  0  0  0  0  0  0
  188.3460  177.5870  143.3000 C   0  0  1  0  0  3  0  0  0  0  0  0
  188.9270  178.2740  142.0740 C   0  0  0  0  0  1  0  0  0  0  0  0
  187.3590  176.4740  142.9040 C   0  0  2  0  0  3  0  0  0  0  0  0
  187.4940  176.0530  141.4460 C   0  0  0  0  0  1  0  0  0  0  0  0
  185.8970  176.8200  143.2210 C   0  0  0  0  0  2  0  0  0  0  0  0
  185.7500  178.1100  143.8980 N   0  0  0  0  0  0  0  0  0  0  0  0
  184.9170  177.8650  145.0690 C   0  0  1  0  0  3  0  0  0  0  0  0
  185.6070  176.8930  146.0050 C   0  0  0  0  0  2  0  0  0  0  0  0
  185.6260  178.3730  146.3120 C   0  0  2  0  0  3  0  0  0  0  0  0
  184.6770  178.6520  147.2940 O   0  0  0  0  0  1  0  0  0  0  0  0
  185.0330  178.9230  143.0800 O   0  0  0  0  0  0  0  0  0  0  0  0
  183.7380  178.3920  143.0870 C   0  0  0  0  0  2  0  0  0  0  0  0
  181.8960  178.6760  141.6190 F   0  0  0  0  0  0  0  0  0  0  0  0
  183.2210  178.2830  141.6670 C   0  0  0  0  0  2  0  0  0  0  0  0
  189.1820  175.7840  146.2740 C   0  0  0  0  0  2  0  0  0  0  0  0
  190.1770  174.7940  146.8550 C   0  0  0  0  0  2  0  0  0  0  0  0
  191.2530  175.5140  147.6440 C   0  0  1  0  0  3  0  0  0  0  0  0
  192.5660  175.4750  146.8800 C   0  0  0  0  0  1  0  0  0  0  0  0
  191.5580  177.5200  148.9020 O   0  0  0  0  0  1  0  0  0  0  0  0
  190.8270  176.9550  147.8570 C   0  0  0  0  0  2  0  0  0  0  0  0
  1 12  1  6  0  0  0
  1 27  1  0  0  0  0
  2  1  1  6  0  0  0
  3  2  1  0  0  0  0
  4  9  2  0  0  0  0
  5  2  1  0  0  0  0
  6  4  1  0  0  0  0
  6  7  1  0  0  0  0
  7  8  1  1  0  0  0
  7 11  1  0  0  0  0
  8  3  1  0  0  0  0
  9 11  1  0  0  0  0
 10  4  1  0  0  0  0
 11  5  1  6  0  0  0
 13 14  1  6  0  0  0
 13 12  1  0  0  0  0
 15 16  1  6  0  0  0
 15 17  1  0  0  0  0
 15 13  1  0  0  0  0
 17 18  1  0  0  0  0
 19 18  1  6  0  0  0
 19 20  1  0  0  0  0
 19 21  1  0  0  0  0
 20 21  1  0  0  0  0
 21 22  1  1  0  0  0
 23 24  1  0  0  0  0
 23 18  1  0  0  0  0
 25 26  1  0  0  0  0
 26 24  1  0  0  0  0
 27 28  1  0  0  0  0
 28 29  1  0  0  0  0
 29 30  1  6  0  0  0
 29 32  1  0  0  0  0
 32 31  1  0  0  0  0
M  END
>  <MODEL>
6

>  <REMARK>
 VINA RESULT:      -5.8      2.866      6.527
  Name = 
  14 active torsions:
  status: ('A' for Active; 'I' for Inactive)
    1  A    between atoms: C_1  and  C_4
    2  A    between atoms: C_1  and  C_5
    3  A    between atoms: C_2  and  C_5
    4  A    between atoms: C_3  and  N_20
    5  A    between atoms: C_4  and  C_24
    6  A    between atoms: C_5  and  C_14
    7  A    between atoms: C_13  and  C_29
    8  A    between atoms: C_13  and  C_30
    9  A    between atoms: C_14  and  C_30
   10  A    between atoms: O_15  and  N_20
   11  A    between atoms: O_15  and  C_26
   12  A    between atoms: C_16  and  N_20
   13  A    between atoms: C_16  and  C_24
   14  A    between atoms: C_19  and  C_26
                            x       y       z     vdW  Elec       q    Type
                         _______ _______ _______ _____ _____    ______ ____

>  <TORSDO>
F 14

$$$$
=
 OpenBabel11052419213D

 32 34  0  0  1  0  0  0  0  0999 V2000
  191.5720  174.5940  144.8640 C   0  0  2  0  0  3  0  0  0  0  0  0
  190.4350  174.0790  143.9790 C   0  0  2  0  0  3  0  0  0  0  0  0
  190.4210  172.5220  143.9450 C   0  0  0  0  0  2  0  0  0  0  0  0
  188.6710  173.4680  139.8150 C   0  0  0  0  0  0  0  0  0  0  0  0
  190.4210  174.7370  142.5740 C   0  0  0  0  0  2  0  0  0  0  0  0
  188.8450  172.2830  140.5240 O   0  0  0  0  0  0  0  0  0  0  0  0
  189.6380  172.6330  141.6370 C   0  0  2  0  0  3  0  0  0  0  0  0
  189.3900  171.9380  142.9550 C   0  0  0  0  0  2  0  0  0  0  0  0
  189.0100  174.5340  140.4690 N   0  0  0  0  0  0  0  0  0  0  0  0
  188.1850  173.5100  138.4110 C   0  0  0  0  0  1  0  0  0  0  0  0
  189.2940  174.0780  141.8170 C   0  0  2  0  0  3  0  0  0  0  0  0
  191.0130  175.0750  146.2000 C   0  0  0  0  0  2  0  0  0  0  0  0
  189.4980  175.2370  146.1700 C   0  0  1  0  0  3  0  0  0  0  0  0
  188.9450  174.5690  147.4180 C   0  0  0  0  0  1  0  0  0  0  0  0
  189.1120  176.7260  146.1110 C   0  0  2  0  0  3  0  0  0  0  0  0
  189.7170  177.5400  147.2480 C   0  0  0  0  0  1  0  0  0  0  0  0
  187.5960  176.9570  146.0460 C   0  0  0  0  0  2  0  0  0  0  0  0
  187.1580  177.5090  144.7620 N   0  0  0  0  0  0  0  0  0  0  0  0
  185.7650  177.9020  144.9380 C   0  0  1  0  0  3  0  0  0  0  0  0
  185.6480  178.9100  146.0640 C   0  0  0  0  0  2  0  0  0  0  0  0
  185.6110  179.3800  144.6280 C   0  0  2  0  0  3  0  0  0  0  0  0
  184.2920  179.6310  144.2580 O   0  0  0  0  0  1  0  0  0  0  0  0
  187.1590  176.4960  143.8580 O   0  0  0  0  0  0  0  0  0  0  0  0
  187.4030  177.1110  142.6250 C   0  0  0  0  0  2  0  0  0  0  0  0
  188.8770  178.6770  141.6230 F   0  0  0  0  0  0  0  0  0  0  0  0
  188.7870  177.7290  142.6250 C   0  0  0  0  0  2  0  0  0  0  0  0
  192.3710  175.6920  144.1650 C   0  0  0  0  0  2  0  0  0  0  0  0
  193.0080  176.6090  145.1930 C   0  0  0  0  0  2  0  0  0  0  0  0
  194.5150  176.4430  145.2010 C   0  0  1  0  0  3  0  0  0  0  0  0
  194.9050  175.3220  146.1490 C   0  0  0  0  0  1  0  0  0  0  0  0
  196.2060  176.7290  143.5410 O   0  0  0  0  0  1  0  0  0  0  0  0
  194.9820  176.1110  143.7960 C   0  0  0  0  0  2  0  0  0  0  0  0
  1 27  1  6  0  0  0
  1 12  1  0  0  0  0
  2  1  1  6  0  0  0
  3  2  1  0  0  0  0
  4  9  2  0  0  0  0
  4  6  1  0  0  0  0
  5  2  1  0  0  0  0
  6  7  1  0  0  0  0
  7 11  1  0  0  0  0
  7  8  1  1  0  0  0
  8  3  1  0  0  0  0
  9 11  1  0  0  0  0
 10  4  1  0  0  0  0
 11  5  1  6  0  0  0
 13 12  1  0  0  0  0
 13 14  1  1  0  0  0
 15 13  1  0  0  0  0
 15 16  1  1  0  0  0
 17 15  1  0  0  0  0
 18 17  1  0  0  0  0
 19 18  1  1  0  0  0
 19 20  1  0  0  0  0
 21 22  1  6  0  0  0
 21 19  1  0  0  0  0
 21 20  1  0  0  0  0
 23 18  1  0  0  0  0
 24 23  1  0  0  0  0
 25 26  1  0  0  0  0
 26 24  1  0  0  0  0
 27 28  1  0  0  0  0
 28 29  1  0  0  0  0
 29 30  1  1  0  0  0
 31 32  1  0  0  0  0
 32 29  1  0  0  0  0
M  END
>  <MODEL>
7

>  <REMARK>
 VINA RESULT:      -5.7      2.372      7.249
  Name = 
  14 active torsions:
  status: ('A' for Active; 'I' for Inactive)
    1  A    between atoms: C_1  and  C_4
    2  A    between atoms: C_1  and  C_5
    3  A    between atoms: C_2  and  C_5
    4  A    between atoms: C_3  and  N_20
    5  A    between atoms: C_4  and  C_24
    6  A    between atoms: C_5  and  C_14
    7  A    between atoms: C_13  and  C_29
    8  A    between atoms: C_13  and  C_30
    9  A    between atoms: C_14  and  C_30
   10  A    between atoms: O_15  and  N_20
   11  A    between atoms: O_15  and  C_26
   12  A    between atoms: C_16  and  N_20
   13  A    between atoms: C_16  and  C_24
   14  A    between atoms: C_19  and  C_26
                            x       y       z     vdW  Elec       q    Type
                         _______ _______ _______ _____ _____    ______ ____

>  <TORSDO>
F 14

$$$$
=
 OpenBabel11052419213D

 32 34  0  0  1  0  0  0  0  0999 V2000
  188.5170  177.5170  144.3390 C   0  0  2  0  0  3  0  0  0  0  0  0
  187.2740  178.2730  143.8660 C   0  0  2  0  0  3  0  0  0  0  0  0
  186.3050  178.5450  145.0550 C   0  0  0  0  0  2  0  0  0  0  0  0
  183.3220  178.2920  141.5830 C   0  0  0  0  0  0  0  0  0  0  0  0
  186.5920  177.6050  142.6420 C   0  0  0  0  0  2  0  0  0  0  0  0
  183.1900  178.6280  142.9270 O   0  0  0  0  0  0  0  0  0  0  0  0
  184.4300  178.3020  143.5130 C   0  0  2  0  0  3  0  0  0  0  0  0
  184.9640  179.1760  144.6230 C   0  0  0  0  0  2  0  0  0  0  0  0
  184.5420  178.0630  141.2100 N   0  0  0  0  0  0  0  0  0  0  0  0
  182.1650  178.1570  140.6610 C   0  0  0  0  0  1  0  0  0  0  0  0
  185.3620  178.4290  142.3490 C   0  0  2  0  0  3  0  0  0  0  0  0
  188.8890  176.4420  143.3220 C   0  0  0  0  0  2  0  0  0  0  0  0
  190.2880  176.6420  142.7530 C   0  0  1  0  0  3  0  0  0  0  0  0
  190.8550  177.9070  143.3770 C   0  0  0  0  0  1  0  0  0  0  0  0
  191.1770  175.4210  143.0520 C   0  0  2  0  0  3  0  0  0  0  0  0
  192.4820  175.7940  143.7430 C   0  0  0  0  0  1  0  0  0  0  0  0
  191.4620  174.5610  141.8130 C   0  0  0  0  0  2  0  0  0  0  0  0
  190.6810  173.3230  141.7870 N   0  0  0  0  0  0  0  0  0  0  0  0
  189.5510  173.5690  140.8990 C   0  0  1  0  0  3  0  0  0  0  0  0
  190.0380  173.7520  139.4760 C   0  0  0  0  0  2  0  0  0  0  0  0
  189.4340  172.4330  139.8990 C   0  0  2  0  0  3  0  0  0  0  0  0
  188.1190  172.3620  139.4450 O   0  0  0  0  0  1  0  0  0  0  0  0
  190.1620  173.1390  143.0280 O   0  0  0  0  0  0  0  0  0  0  0  0
  190.5000  171.8250  143.3710 C   0  0  0  0  0  2  0  0  0  0  0  0
  192.1120  172.4760  144.9850 F   0  0  0  0  0  0  0  0  0  0  0  0
  191.9490  171.7670  143.8100 C   0  0  0  0  0  2  0  0  0  0  0  0
  188.3130  176.9230  145.7310 C   0  0  0  0  0  2  0  0  0  0  0  0
  189.6230  176.9350  146.5000 C   0  0  0  0  0  2  0  0  0  0  0  0
  189.8070  175.6400  147.2670 C   0  0  1  0  0  3  0  0  0  0  0  0
  189.6910  174.4580  146.3210 C   0  0  0  0  0  1  0  0  0  0  0  0
  192.0910  174.9640  147.1100 O   0  0  0  0  0  1  0  0  0  0  0  0
  191.1780  175.6440  147.9170 C   0  0  0  0  0  2  0  0  0  0  0  0
  1 12  1  6  0  0  0
  1 27  1  0  0  0  0
  2  1  1  1  0  0  0
  2  3  1  0  0  0  0
  4  6  1  0  0  0  0
  5  2  1  0  0  0  0
  6  7  1  0  0  0  0
  7  8  1  1  0  0  0
  8  3  1  0  0  0  0
  9  4  2  0  0  0  0
  9 11  1  0  0  0  0
 10  4  1  0  0  0  0
 11  5  1  1  0  0  0
 11  7  1  0  0  0  0
 13 15  1  0  0  0  0
 13 12  1  0  0  0  0
 13 14  1  1  0  0  0
 15 16  1  6  0  0  0
 17 15  1  0  0  0  0
 18 17  1  0  0  0  0
 18 23  1  0  0  0  0
 19 18  1  1  0  0  0
 20 21  1  0  0  0  0
 20 19  1  0  0  0  0
 21 22  1  6  0  0  0
 21 19  1  0  0  0  0
 23 24  1  0  0  0  0
 24 26  1  0  0  0  0
 26 25  1  0  0  0  0
 27 28  1  0  0  0  0
 28 29  1  0  0  0  0
 29 30  1  6  0  0  0
 29 32  1  0  0  0  0
 31 32  1  0  0  0  0
M  END
>  <MODEL>
8

>  <REMARK>
 VINA RESULT:      -5.7      2.155      5.825
  Name = 
  14 active torsions:
  status: ('A' for Active; 'I' for Inactive)
    1  A    between atoms: C_1  and  C_4
    2  A    between atoms: C_1  and  C_5
    3  A    between atoms: C_2  and  C_5
    4  A    between atoms: C_3  and  N_20
    5  A    between atoms: C_4  and  C_24
    6  A    between atoms: C_5  and  C_14
    7  A    between atoms: C_13  and  C_29
    8  A    between atoms: C_13  and  C_30
    9  A    between atoms: C_14  and  C_30
   10  A    between atoms: O_15  and  N_20
   11  A    between atoms: O_15  and  C_26
   12  A    between atoms: C_16  and  N_20
   13  A    between atoms: C_16  and  C_24
   14  A    between atoms: C_19  and  C_26
                            x       y       z     vdW  Elec       q    Type
                         _______ _______ _______ _____ _____    ______ ____

>  <TORSDO>
F 14

$$$$
=
 OpenBabel11052419213D

 32 34  0  0  1  0  0  0  0  0999 V2000
  188.2100  176.7920  144.1970 C   0  0  2  0  0  3  0  0  0  0  0  0
  187.1000  177.7470  143.7530 C   0  0  2  0  0  3  0  0  0  0  0  0
  186.2990  178.2750  144.9790 C   0  0  0  0  0  2  0  0  0  0  0  0
  183.0550  178.3970  141.7430 C   0  0  0  0  0  0  0  0  0  0  0  0
  186.2080  177.1510  142.6310 C   0  0  0  0  0  2  0  0  0  0  0  0
  183.0960  178.8350  143.0630 O   0  0  0  0  0  0  0  0  0  0  0  0
  184.2950  178.3090  143.5890 C   0  0  2  0  0  3  0  0  0  0  0  0
  185.0720  179.1280  144.5910 C   0  0  0  0  0  2  0  0  0  0  0  0
  184.1750  177.9110  141.3080 N   0  0  0  0  0  0  0  0  0  0  0  0
  181.8220  178.4340  140.9130 C   0  0  0  0  0  1  0  0  0  0  0  0
  185.1380  178.1790  142.3590 C   0  0  2  0  0  3  0  0  0  0  0  0
  188.3840  176.8680  145.7110 C   0  0  0  0  0  2  0  0  0  0  0  0
  189.8490  176.8250  146.1280 C   0  0  1  0  0  3  0  0  0  0  0  0
  190.0030  177.7280  147.3410 C   0  0  0  0  0  1  0  0  0  0  0  0
  190.2820  175.3820  146.4440 C   0  0  2  0  0  3  0  0  0  0  0  0
  189.2490  174.6200  147.2640 C   0  0  0  0  0  1  0  0  0  0  0  0
  191.6590  175.2960  147.1180 C   0  0  0  0  0  2  0  0  0  0  0  0
  192.7030  174.7960  146.2220 N   0  0  0  0  0  0  0  0  0  0  0  0
  193.2710  175.9640  145.5610 C   0  0  1  0  0  3  0  0  0  0  0  0
  193.9710  176.8470  146.5750 C   0  0  0  0  0  2  0  0  0  0  0  0
  194.7840  175.9340  145.6860 C   0  0  2  0  0  3  0  0  0  0  0  0
  195.3400  176.6780  144.6480 O   0  0  0  0  0  1  0  0  0  0  0  0
  192.0950  174.0650  145.2520 O   0  0  0  0  0  0  0  0  0  0  0  0
  192.9700  173.0030  144.9970 C   0  0  0  0  0  2  0  0  0  0  0  0
  194.7570  173.2580  143.4570 F   0  0  0  0  0  0  0  0  0  0  0  0
  193.3960  173.0280  143.5430 C   0  0  0  0  0  2  0  0  0  0  0  0
  189.5200  177.0810  143.4690 C   0  0  0  0  0  2  0  0  0  0  0  0
  190.0380  175.8170  142.8040 C   0  0  0  0  0  2  0  0  0  0  0  0
  188.9180  174.8120  142.6150 C   0  0  1  0  0  3  0  0  0  0  0  0
  188.5530  174.7190  141.1440 C   0  0  0  0  0  1  0  0  0  0  0  0
  188.9460  172.4530  142.2510 O   0  0  0  0  0  1  0  0  0  0  0  0
  189.3840  173.4570  143.1150 C   0  0  0  0  0  2  0  0  0  0  0  0
  1 27  1  6  0  0  0
  1 12  1  0  0  0  0
  2  1  1  1  0  0  0
  2  3  1  0  0  0  0
  4  6  1  0  0  0  0
  5  2  1  0  0  0  0
  6  7  1  0  0  0  0
  7  8  1  1  0  0  0
  8  3  1  0  0  0  0
  9  4  2  0  0  0  0
  9 11  1  0  0  0  0
 10  4  1  0  0  0  0
 11  5  1  1  0  0  0
 11  7  1  0  0  0  0
 12 13  1  0  0  0  0
 13 15  1  0  0  0  0
 13 14  1  1  0  0  0
 15 17  1  0  0  0  0
 15 16  1  1  0  0  0
 18 17  1  0  0  0  0
 19 21  1  0  0  0  0
 19 18  1  1  0  0  0
 19 20  1  0  0  0  0
 21 22  1  6  0  0  0
 21 20  1  0  0  0  0
 23 18  1  0  0  0  0
 24 23  1  0  0  0  0
 25 26  1  0  0  0  0
 26 24  1  0  0  0  0
 28 27  1  0  0  0  0
 29 30  1  6  0  0  0
 29 28  1  0  0  0  0
 29 32  1  0  0  0  0
 31 32  1  0  0  0  0
M  END
>  <MODEL>
9

>  <REMARK>
 VINA RESULT:      -5.7      2.452      7.118
  Name = 
  14 active torsions:
  status: ('A' for Active; 'I' for Inactive)
    1  A    between atoms: C_1  and  C_4
    2  A    between atoms: C_1  and  C_5
    3  A    between atoms: C_2  and  C_5
    4  A    between atoms: C_3  and  N_20
    5  A    between atoms: C_4  and  C_24
    6  A    between atoms: C_5  and  C_14
    7  A    between atoms: C_13  and  C_29
    8  A    between atoms: C_13  and  C_30
    9  A    between atoms: C_14  and  C_30
   10  A    between atoms: O_15  and  N_20
   11  A    between atoms: O_15  and  C_26
   12  A    between atoms: C_16  and  N_20
   13  A    between atoms: C_16  and  C_24
   14  A    between atoms: C_19  and  C_26
                            x       y       z     vdW  Elec       q    Type
                         _______ _______ _______ _____ _____    ______ ____

>  <TORSDO>
F 14

$$$$
