=
 OpenBabel11052419183D

 32 36  0  0  1  0  0  0  0  0999 V2000
  188.3630  176.1840  142.2990 C   0  0  0  0  0  2  0  0  0  0  0  0
  191.3750  174.8500  143.7120 C   0  0  1  0  0  3  0  0  0  0  0  0
  187.8820  174.7320  142.2560 C   0  0  0  0  0  2  0  0  0  0  0  0
  190.5770  174.5690  142.6110 O   0  0  0  0  0  0  0  0  0  0  0  0
  192.8360  174.9400  143.2230 C   0  0  2  0  0  0  0  0  0  0  0  0
  190.7760  176.0890  144.3920 C   0  0  1  0  0  3  0  0  0  0  0  0
  193.1720  174.0470  142.0620 C   0  0  1  0  0  0  0  0  0  0  0  0
  190.7830  173.2330  142.2940 C   0  0  2  0  0  3  0  0  0  0  0  0
  192.0740  173.1270  141.4770 C   0  0  0  0  0  2  0  0  0  0  0  0
  189.5490  172.6680  141.5810 C   0  0  0  0  0  2  0  0  0  0  0  0
  189.3390  175.8650  144.5930 N   0  0  0  0  0  2  0  0  0  0  0  0
  194.4130  174.3160  141.2300 C   0  0  0  0  0  1  0  0  0  0  0  0
  188.5690  176.7510  143.7180 C   0  0  2  0  0  3  0  0  0  0  0  0
  193.5120  173.7090  143.3880 O   0  0  0  0  0  0  0  0  0  0  0  0
  188.5170  173.9350  140.7310 S   0  0  0  0  0  0  0  0  0  0  0  0
  183.9530  178.6710  146.3030 F   0  0  0  0  0  0  0  0  0  0  0  0
  185.5620  176.9160  146.1380 C   0  0  0  0  0  2  0  0  0  0  0  0
  187.2760  177.1460  144.3690 C   0  0  0  0  0  0  0  0  0  0  0  0
  185.4680  178.7890  144.4930 C   0  0  0  0  0  3  0  0  0  0  0  0
  186.8810  176.5610  145.5090 C   0  0  0  0  0  3  0  0  0  0  0  0
  186.4490  178.2300  143.7750 C   0  0  0  0  0  0  0  0  0  0  0  0
  185.2540  178.4000  145.9300 C   0  0  1  0  0  3  0  0  0  0  0  0
  186.6660  178.6820  142.3680 C   0  0  0  0  0  2  0  0  0  0  0  0
  185.4840  178.3080  141.4870 C   0  0  0  0  0  2  0  0  0  0  0  0
  185.9310  177.9080  140.2270 O   0  0  0  0  0  1  0  0  0  0  0  0
  191.1060  175.3630  147.8320 C   0  0  0  0  0  2  0  0  0  0  0  0
  190.5420  177.1670  146.6460 C   0  0  0  0  0  2  0  0  0  0  0  0
  191.4640  176.3910  145.7290 C   0  0  1  0  0  3  0  0  0  0  0  0
  190.0790  176.3020  147.6490 O   0  0  0  0  0  0  0  0  0  0  0  0
  191.7920  175.1440  146.5050 C   0  0  0  0  0  2  0  0  0  0  0  0
  194.6710  175.8410  144.4770 O   0  0  0  0  0  1  0  0  0  0  0  0
  193.7300  176.1470  143.4930 C   0  0  0  0  0  2  0  0  0  0  0  0
  1 13  1  0  0  0  0
  2  4  1  6  0  0  0
  2  6  1  0  0  0  0
  3  1  1  0  0  0  0
  5 14  1  0  0  0  0
  5 32  1  1  0  0  0
  5  2  1  0  0  0  0
  6 11  1  1  0  0  0
  6 28  1  0  0  0  0
  7 12  1  6  0  0  0
  7  5  1  0  0  0  0
  7 14  1  0  0  0  0
  8  9  1  6  0  0  0
  8  4  1  0  0  0  0
  9  7  1  0  0  0  0
 10  8  1  0  0  0  0
 13 18  1  1  0  0  0
 13 11  1  0  0  0  0
 15 10  1  0  0  0  0
 15  3  1  0  0  0  0
 18 20  2  0  0  0  0
 19 22  1  0  0  0  0
 20 17  1  0  0  0  0
 21 18  1  0  0  0  0
 21 19  2  0  0  0  0
 22 17  1  0  0  0  0
 22 16  1  6  0  0  0
 23 21  1  0  0  0  0
 24 23  1  0  0  0  0
 25 24  1  0  0  0  0
 27 29  1  0  0  0  0
 28 30  1  1  0  0  0
 28 27  1  0  0  0  0
 29 26  1  0  0  0  0
 30 26  1  0  0  0  0
 32 31  1  0  0  0  0
M  END
>  <MODEL>
1

>  <REMARK>
 VINA RESULT:      -7.6      0.000      0.000
  Name = 
  5 active torsions:
  status: ('A' for Active; 'I' for Inactive)
    1  A    between atoms: C_3  and  C_23
    2  A    between atoms: C_6  and  C_17
    3  A    between atoms: C_10  and  C_28
    4  A    between atoms: C_16  and  C_27
    5  A    between atoms: C_22  and  C_23
                            x       y       z     vdW  Elec       q    Type
                         _______ _______ _______ _____ _____    ______ ____

>  <TORSDO>
F 5

$$$$
=
 OpenBabel11052419183D

 32 36  0  0  1  0  0  0  0  0999 V2000
  187.5330  175.4720  142.1990 C   0  0  0  0  0  2  0  0  0  0  0  0
  187.2640  177.6700  145.0170 C   0  0  1  0  0  3  0  0  0  0  0  0
  187.7540  176.7450  141.3780 C   0  0  0  0  0  2  0  0  0  0  0  0
  186.7140  177.6050  143.7440 O   0  0  0  0  0  0  0  0  0  0  0  0
  186.1080  177.8780  146.0180 C   0  0  2  0  0  0  0  0  0  0  0  0
  188.1380  176.4210  145.1900 C   0  0  1  0  0  3  0  0  0  0  0  0
  184.9460  178.6700  145.4890 C   0  0  1  0  0  0  0  0  0  0  0  0
  186.3520  178.8990  143.3930 C   0  0  2  0  0  3  0  0  0  0  0  0
  185.0000  179.2110  144.0400 C   0  0  0  0  0  2  0  0  0  0  0  0
  186.3590  179.0490  141.8680 C   0  0  0  0  0  2  0  0  0  0  0  0
  189.0340  176.3110  144.0310 N   0  0  0  0  0  2  0  0  0  0  0  0
  183.6010  178.6080  146.1920 C   0  0  0  0  0  1  0  0  0  0  0  0
  188.6510  175.1590  143.2130 C   0  0  2  0  0  3  0  0  0  0  0  0
  185.9270  179.2480  146.3210 O   0  0  0  0  0  0  0  0  0  0  0  0
  186.1250  177.4710  140.9480 S   0  0  0  0  0  0  0  0  0  0  0  0
  193.1520  172.4940  141.1350 F   0  0  0  0  0  0  0  0  0  0  0  0
  192.2680  174.5310  142.0100 C   0  0  0  0  0  2  0  0  0  0  0  0
  189.8570  174.5470  142.5620 C   0  0  0  0  0  0  0  0  0  0  0  0
  190.8150  172.5740  141.4780 C   0  0  0  0  0  3  0  0  0  0  0  0
  191.0660  175.1110  142.7020 C   0  0  0  0  0  3  0  0  0  0  0  0
  189.7230  173.2770  141.8010 C   0  0  0  0  0  0  0  0  0  0  0  0
  192.1720  173.0050  141.9620 C   0  0  1  0  0  3  0  0  0  0  0  0
  188.3860  172.7870  141.3480 C   0  0  0  0  0  2  0  0  0  0  0  0
  188.3190  172.7140  139.8300 C   0  0  0  0  0  2  0  0  0  0  0  0
  188.5350  173.9770  139.2780 O   0  0  0  0  0  1  0  0  0  0  0  0
  191.2540  176.0370  146.8040 C   0  0  0  0  0  2  0  0  0  0  0  0
  189.2510  175.0720  146.9900 C   0  0  0  0  0  2  0  0  0  0  0  0
  188.9480  176.4690  146.4920 C   0  0  1  0  0  3  0  0  0  0  0  0
  190.6040  174.7940  146.7430 O   0  0  0  0  0  0  0  0  0  0  0  0
  190.3020  177.0970  146.3060 C   0  0  0  0  0  2  0  0  0  0  0  0
  186.1550  177.6600  148.4070 O   0  0  0  0  0  1  0  0  0  0  0  0
  185.8810  176.9710  147.2240 C   0  0  0  0  0  2  0  0  0  0  0  0
  1 13  1  0  0  0  0
  2  4  1  6  0  0  0
  2  6  1  0  0  0  0
  2  5  1  0  0  0  0
  3  1  1  0  0  0  0
  5 14  1  0  0  0  0
  5 32  1  1  0  0  0
  6 11  1  6  0  0  0
  6 28  1  0  0  0  0
  7  5  1  0  0  0  0
  7 12  1  1  0  0  0
  7 14  1  0  0  0  0
  8 10  1  6  0  0  0
  8  4  1  0  0  0  0
  8  9  1  0  0  0  0
  9  7  1  0  0  0  0
 13 18  1  6  0  0  0
 13 11  1  0  0  0  0
 15  3  1  0  0  0  0
 15 10  1  0  0  0  0
 17 20  1  0  0  0  0
 18 20  2  0  0  0  0
 19 21  2  0  0  0  0
 19 22  1  0  0  0  0
 21 18  1  0  0  0  0
 22 16  1  6  0  0  0
 22 17  1  0  0  0  0
 23 21  1  0  0  0  0
 24 23  1  0  0  0  0
 25 24  1  0  0  0  0
 28 30  1  6  0  0  0
 28 27  1  0  0  0  0
 29 26  1  0  0  0  0
 29 27  1  0  0  0  0
 30 26  1  0  0  0  0
 32 31  1  0  0  0  0
M  END
>  <MODEL>
2

>  <REMARK>
 VINA RESULT:      -7.2      2.968      6.776
  Name = 
  5 active torsions:
  status: ('A' for Active; 'I' for Inactive)
    1  A    between atoms: C_3  and  C_23
    2  A    between atoms: C_6  and  C_17
    3  A    between atoms: C_10  and  C_28
    4  A    between atoms: C_16  and  C_27
    5  A    between atoms: C_22  and  C_23
                            x       y       z     vdW  Elec       q    Type
                         _______ _______ _______ _____ _____    ______ ____

>  <TORSDO>
F 5

$$$$
=
 OpenBabel11052419183D

 32 36  0  0  1  0  0  0  0  0999 V2000
  191.4750  176.2360  145.1970 C   0  0  0  0  0  2  0  0  0  0  0  0
  192.8320  173.4300  143.4280 C   0  0  1  0  0  3  0  0  0  0  0  0
  192.5980  177.0420  144.5390 C   0  0  0  0  0  2  0  0  0  0  0  0
  193.3350  174.4370  144.2420 O   0  0  0  0  0  0  0  0  0  0  0  0
  193.3800  172.0850  143.9520 C   0  0  2  0  0  0  0  0  0  0  0  0
  191.3080  173.6080  143.3860 C   0  0  1  0  0  3  0  0  0  0  0  0
  194.7480  172.1560  144.5710 C   0  0  1  0  0  0  0  0  0  0  0  0
  194.6710  174.6000  143.9040 C   0  0  2  0  0  3  0  0  0  0  0  0
  195.4830  173.5170  144.6200 C   0  0  0  0  0  2  0  0  0  0  0  0
  195.1220  176.0280  144.2270 C   0  0  0  0  0  2  0  0  0  0  0  0
  191.0090  175.0070  143.0550 N   0  0  0  0  0  2  0  0  0  0  0  0
  195.2320  171.0360  145.4750 C   0  0  0  0  0  1  0  0  0  0  0  0
  190.4230  175.6790  144.2160 C   0  0  2  0  0  3  0  0  0  0  0  0
  194.5470  171.6960  143.2540 O   0  0  0  0  0  0  0  0  0  0  0  0
  194.1280  176.8610  145.5350 S   0  0  0  0  0  0  0  0  0  0  0  0
  186.3580  179.2410  142.6450 F   0  0  0  0  0  0  0  0  0  0  0  0
  188.4190  178.1870  142.0660 C   0  0  0  0  0  2  0  0  0  0  0  0
  189.4380  176.7250  143.7820 C   0  0  0  0  0  0  0  0  0  0  0  0
  187.4320  178.0050  144.3490 C   0  0  0  0  0  3  0  0  0  0  0  0
  189.3690  177.1030  142.4970 C   0  0  0  0  0  3  0  0  0  0  0  0
  188.4940  177.3090  144.7710 C   0  0  0  0  0  0  0  0  0  0  0  0
  187.1270  178.1190  142.8810 C   0  0  1  0  0  3  0  0  0  0  0  0
  188.7340  177.1710  146.2400 C   0  0  0  0  0  2  0  0  0  0  0  0
  187.8550  176.0810  146.8350 C   0  0  0  0  0  2  0  0  0  0  0  0
  188.6410  175.0080  147.2560 O   0  0  0  0  0  1  0  0  0  0  0  0
  188.7610  173.0610  141.0040 C   0  0  0  0  0  2  0  0  0  0  0  0
  189.3640  172.0910  142.9200 C   0  0  0  0  0  2  0  0  0  0  0  0
  190.6530  172.6640  142.3710 C   0  0  1  0  0  3  0  0  0  0  0  0
  188.2870  172.7220  142.2800 O   0  0  0  0  0  0  0  0  0  0  0  0
  190.2340  173.3720  141.1110 C   0  0  0  0  0  2  0  0  0  0  0  0
  192.5440  169.9300  143.3110 O   0  0  0  0  0  1  0  0  0  0  0  0
  192.4820  170.9040  144.3080 C   0  0  0  0  0  2  0  0  0  0  0  0
  2  5  1  0  0  0  0
  2  4  1  1  0  0  0
  3  1  1  0  0  0  0
  3 15  1  0  0  0  0
  5 32  1  1  0  0  0
  5  7  1  0  0  0  0
  6 11  1  6  0  0  0
  6  2  1  0  0  0  0
  7  9  1  0  0  0  0
  7 12  1  1  0  0  0
  8 10  1  1  0  0  0
  8  4  1  0  0  0  0
  8  9  1  0  0  0  0
 10 15  1  0  0  0  0
 11 13  1  0  0  0  0
 13 18  1  6  0  0  0
 13  1  1  0  0  0  0
 14  5  1  0  0  0  0
 14  7  1  0  0  0  0
 17 20  1  0  0  0  0
 17 22  1  0  0  0  0
 18 21  1  0  0  0  0
 19 21  2  0  0  0  0
 20 18  2  0  0  0  0
 21 23  1  0  0  0  0
 22 16  1  1  0  0  0
 22 19  1  0  0  0  0
 23 24  1  0  0  0  0
 24 25  1  0  0  0  0
 26 30  1  0  0  0  0
 26 29  1  0  0  0  0
 28 30  1  6  0  0  0
 28 27  1  0  0  0  0
 28  6  1  0  0  0  0
 29 27  1  0  0  0  0
 31 32  1  0  0  0  0
M  END
>  <MODEL>
3

>  <REMARK>
 VINA RESULT:      -7.2      2.651      4.948
  Name = 
  5 active torsions:
  status: ('A' for Active; 'I' for Inactive)
    1  A    between atoms: C_3  and  C_23
    2  A    between atoms: C_6  and  C_17
    3  A    between atoms: C_10  and  C_28
    4  A    between atoms: C_16  and  C_27
    5  A    between atoms: C_22  and  C_23
                            x       y       z     vdW  Elec       q    Type
                         _______ _______ _______ _____ _____    ______ ____

>  <TORSDO>
F 5

$$$$
=
 OpenBabel11052419183D

 32 36  0  0  1  0  0  0  0  0999 V2000
  187.7970  174.9810  142.4270 C   0  0  0  0  0  2  0  0  0  0  0  0
  187.4080  177.4270  145.0190 C   0  0  1  0  0  3  0  0  0  0  0  0
  188.2800  176.1490  141.5630 C   0  0  0  0  0  2  0  0  0  0  0  0
  187.0340  177.3140  143.6860 O   0  0  0  0  0  0  0  0  0  0  0  0
  186.1580  177.8430  145.8230 C   0  0  2  0  0  0  0  0  0  0  0  0
  188.0930  176.1090  145.4030 C   0  0  1  0  0  3  0  0  0  0  0  0
  185.1830  178.7090  145.0760 C   0  0  1  0  0  0  0  0  0  0  0  0
  186.8820  178.6060  143.1990 C   0  0  2  0  0  3  0  0  0  0  0  0
  185.5010  179.1170  143.6170 C   0  0  0  0  0  2  0  0  0  0  0  0
  187.1180  178.6240  141.6840 C   0  0  0  0  0  2  0  0  0  0  0  0
  189.1200  175.8040  144.3990 N   0  0  0  0  0  2  0  0  0  0  0  0
  183.7560  178.8530  145.5760 C   0  0  0  0  0  1  0  0  0  0  0  0
  188.7190  174.6350  143.6140 C   0  0  2  0  0  3  0  0  0  0  0  0
  186.1020  179.2450  146.0010 O   0  0  0  0  0  0  0  0  0  0  0  0
  186.8250  177.0080  140.8490 S   0  0  0  0  0  0  0  0  0  0  0  0
  193.1860  171.8930  141.5630 F   0  0  0  0  0  0  0  0  0  0  0  0
  191.0290  171.7190  142.5710 C   0  0  0  0  0  2  0  0  0  0  0  0
  189.9210  173.8430  143.1900 C   0  0  0  0  0  0  0  0  0  0  0  0
  192.2120  173.9030  142.3350 C   0  0  0  0  0  3  0  0  0  0  0  0
  189.8180  172.5280  142.9450 C   0  0  0  0  0  3  0  0  0  0  0  0
  191.2260  174.5270  142.9900 C   0  0  0  0  0  0  0  0  0  0  0  0
  191.9830  172.5530  141.7130 C   0  0  1  0  0  3  0  0  0  0  0  0
  191.4740  175.8910  143.5470 C   0  0  0  0  0  2  0  0  0  0  0  0
  192.8750  175.9940  144.1300 C   0  0  0  0  0  2  0  0  0  0  0  0
  193.0520  177.2390  144.7360 O   0  0  0  0  0  1  0  0  0  0  0  0
  191.0070  176.2710  147.3890 C   0  0  0  0  0  2  0  0  0  0  0  0
  189.3050  174.8420  147.1980 C   0  0  0  0  0  2  0  0  0  0  0  0
  188.7150  176.1790  146.8030 C   0  0  1  0  0  3  0  0  0  0  0  0
  190.7030  174.9280  147.1160 O   0  0  0  0  0  0  0  0  0  0  0  0
  189.8790  177.1290  146.8700 C   0  0  0  0  0  2  0  0  0  0  0  0
  185.9970  177.7490  148.2140 O   0  0  0  0  0  1  0  0  0  0  0  0
  185.6590  177.0720  147.0420 C   0  0  0  0  0  2  0  0  0  0  0  0
  1 13  1  0  0  0  0
  2  4  1  6  0  0  0
  2  6  1  0  0  0  0
  2  5  1  0  0  0  0
  3  1  1  0  0  0  0
  5 14  1  0  0  0  0
  5 32  1  1  0  0  0
  6 11  1  6  0  0  0
  6 28  1  0  0  0  0
  7 12  1  1  0  0  0
  7  5  1  0  0  0  0
  7 14  1  0  0  0  0
  8 10  1  6  0  0  0
  8  9  1  0  0  0  0
  8  4  1  0  0  0  0
  9  7  1  0  0  0  0
 13 18  1  6  0  0  0
 13 11  1  0  0  0  0
 15  3  1  0  0  0  0
 15 10  1  0  0  0  0
 17 20  1  0  0  0  0
 19 21  2  0  0  0  0
 20 18  2  0  0  0  0
 21 18  1  0  0  0  0
 21 23  1  0  0  0  0
 22 16  1  1  0  0  0
 22 19  1  0  0  0  0
 22 17  1  0  0  0  0
 23 24  1  0  0  0  0
 24 25  1  0  0  0  0
 28 30  1  6  0  0  0
 28 27  1  0  0  0  0
 29 27  1  0  0  0  0
 29 26  1  0  0  0  0
 30 26  1  0  0  0  0
 32 31  1  0  0  0  0
M  END
>  <MODEL>
4

>  <REMARK>
 VINA RESULT:      -7.0      2.883      6.839
  Name = 
  5 active torsions:
  status: ('A' for Active; 'I' for Inactive)
    1  A    between atoms: C_3  and  C_23
    2  A    between atoms: C_6  and  C_17
    3  A    between atoms: C_10  and  C_28
    4  A    between atoms: C_16  and  C_27
    5  A    between atoms: C_22  and  C_23
                            x       y       z     vdW  Elec       q    Type
                         _______ _______ _______ _____ _____    ______ ____

>  <TORSDO>
F 5

$$$$
=
 OpenBabel11052419183D

 32 36  0  0  1  0  0  0  0  0999 V2000
  191.1190  176.7690  145.3700 C   0  0  0  0  0  2  0  0  0  0  0  0
  188.1720  176.0280  143.4680 C   0  0  1  0  0  3  0  0  0  0  0  0
  190.3410  176.2140  146.5670 C   0  0  0  0  0  2  0  0  0  0  0  0
  188.4550  176.6840  144.6590 O   0  0  0  0  0  0  0  0  0  0  0  0
  187.2650  176.9500  142.6280 C   0  0  2  0  0  0  0  0  0  0  0  0
  189.5170  175.6070  142.8600 C   0  0  1  0  0  3  0  0  0  0  0  0
  186.3390  177.8270  143.4230 C   0  0  1  0  0  0  0  0  0  0  0  0
  187.3050  176.6260  145.4350 C   0  0  2  0  0  3  0  0  0  0  0  0
  186.3530  177.7310  144.9680 C   0  0  0  0  0  2  0  0  0  0  0  0
  187.6720  176.7110  146.9210 C   0  0  0  0  0  2  0  0  0  0  0  0
  190.3000  174.9110  143.8900 N   0  0  0  0  0  2  0  0  0  0  0  0
  185.7020  179.0440  142.7770 C   0  0  0  0  0  1  0  0  0  0  0  0
  191.4490  175.7300  144.2800 C   0  0  2  0  0  3  0  0  0  0  0  0
  185.8980  176.6360  142.8100 O   0  0  0  0  0  0  0  0  0  0  0  0
  189.2810  177.5410  147.2600 S   0  0  0  0  0  0  0  0  0  0  0  0
  195.9430  172.4620  145.1770 F   0  0  0  0  0  0  0  0  0  0  0  0
  193.5850  172.7240  145.4330 C   0  0  0  0  0  2  0  0  0  0  0  0
  192.6150  174.8620  144.6540 C   0  0  0  0  0  0  0  0  0  0  0  0
  195.0440  174.5750  144.6170 C   0  0  0  0  0  3  0  0  0  0  0  0
  192.4260  173.5830  145.0090 C   0  0  0  0  0  3  0  0  0  0  0  0
  193.9970  175.4070  144.5800 C   0  0  0  0  0  0  0  0  0  0  0  0
  194.8380  173.0850  144.6340 C   0  0  1  0  0  3  0  0  0  0  0  0
  194.2420  176.8790  144.5080 C   0  0  0  0  0  2  0  0  0  0  0  0
  194.9420  177.3760  145.7640 C   0  0  0  0  0  2  0  0  0  0  0  0
  194.1540  177.1170  146.8870 O   0  0  0  0  0  1  0  0  0  0  0  0
  189.3040  172.3450  141.5270 C   0  0  0  0  0  2  0  0  0  0  0  0
  190.6460  174.0980  141.2040 C   0  0  0  0  0  2  0  0  0  0  0  0
  189.3290  174.7110  141.6300 C   0  0  1  0  0  3  0  0  0  0  0  0
  190.6490  172.7440  141.5720 O   0  0  0  0  0  0  0  0  0  0  0  0
  188.4450  173.5260  141.9100 C   0  0  0  0  0  2  0  0  0  0  0  0
  186.7340  176.7080  140.3000 O   0  0  0  0  0  1  0  0  0  0  0  0
  187.5920  177.3540  141.1920 C   0  0  0  0  0  2  0  0  0  0  0  0
  1  3  1  0  0  0  0
  2  4  1  1  0  0  0
  3 15  1  0  0  0  0
  4  8  1  0  0  0  0
  5 32  1  6  0  0  0
  5 14  1  0  0  0  0
  5  7  1  0  0  0  0
  5  2  1  0  0  0  0
  6  2  1  0  0  0  0
  6 11  1  1  0  0  0
  7 12  1  6  0  0  0
  7  9  1  0  0  0  0
  8  9  1  6  0  0  0
  8 10  1  0  0  0  0
 10 15  1  0  0  0  0
 11 13  1  0  0  0  0
 13 18  1  1  0  0  0
 13  1  1  0  0  0  0
 14  7  1  0  0  0  0
 18 20  2  0  0  0  0
 19 22  1  0  0  0  0
 20 17  1  0  0  0  0
 21 19  2  0  0  0  0
 21 18  1  0  0  0  0
 22 16  1  1  0  0  0
 22 17  1  0  0  0  0
 23 21  1  0  0  0  0
 23 24  1  0  0  0  0
 24 25  1  0  0  0  0
 26 29  1  0  0  0  0
 26 30  1  0  0  0  0
 27 29  1  0  0  0  0
 28 27  1  1  0  0  0
 28 30  1  0  0  0  0
 28  6  1  0  0  0  0
 31 32  1  0  0  0  0
M  END
>  <MODEL>
5

>  <REMARK>
 VINA RESULT:      -7.0      3.269      7.508
  Name = 
  5 active torsions:
  status: ('A' for Active; 'I' for Inactive)
    1  A    between atoms: C_3  and  C_23
    2  A    between atoms: C_6  and  C_17
    3  A    between atoms: C_10  and  C_28
    4  A    between atoms: C_16  and  C_27
    5  A    between atoms: C_22  and  C_23
                            x       y       z     vdW  Elec       q    Type
                         _______ _______ _______ _____ _____    ______ ____

>  <TORSDO>
F 5

$$$$
=
 OpenBabel11052419183D

 32 36  0  0  1  0  0  0  0  0999 V2000
  191.4000  176.7040  145.2800 C   0  0  0  0  0  2  0  0  0  0  0  0
  188.3340  176.0750  143.5330 C   0  0  1  0  0  3  0  0  0  0  0  0
  190.6650  176.1760  146.5150 C   0  0  0  0  0  2  0  0  0  0  0  0
  188.7010  176.7190  144.7070 O   0  0  0  0  0  0  0  0  0  0  0  0
  187.4190  177.0330  142.7400 C   0  0  2  0  0  0  0  0  0  0  0  0
  189.6290  175.6070  142.8560 C   0  0  1  0  0  3  0  0  0  0  0  0
  186.5690  177.9420  143.5820 C   0  0  1  0  0  0  0  0  0  0  0  0
  187.5920  176.7020  145.5420 C   0  0  2  0  0  3  0  0  0  0  0  0
  186.6590  177.8420  145.1240 C   0  0  0  0  0  2  0  0  0  0  0  0
  188.0380  176.7710  147.0060 C   0  0  0  0  0  2  0  0  0  0  0  0
  190.4370  174.8800  143.8440 N   0  0  0  0  0  2  0  0  0  0  0  0
  185.9450  179.1830  142.9690 C   0  0  0  0  0  1  0  0  0  0  0  0
  191.6350  175.6550  144.1750 C   0  0  2  0  0  3  0  0  0  0  0  0
  186.0520  176.7690  142.9930 O   0  0  0  0  0  0  0  0  0  0  0  0
  189.6920  177.5410  147.2620 S   0  0  0  0  0  0  0  0  0  0  0  0
  195.8620  172.0090  144.8920 F   0  0  0  0  0  0  0  0  0  0  0  0
  193.8220  172.8920  145.7600 C   0  0  0  0  0  2  0  0  0  0  0  0
  192.7850  174.7440  144.4880 C   0  0  0  0  0  0  0  0  0  0  0  0
  194.9750  173.9030  143.7920 C   0  0  0  0  0  3  0  0  0  0  0  0
  192.6560  173.7750  145.4060 C   0  0  0  0  0  3  0  0  0  0  0  0
  194.0630  174.8810  143.7390 C   0  0  0  0  0  0  0  0  0  0  0  0
  194.6810  172.6220  144.5240 C   0  0  1  0  0  3  0  0  0  0  0  0
  194.3690  176.1160  142.9560 C   0  0  0  0  0  2  0  0  0  0  0  0
  195.8080  176.1070  142.4650 C   0  0  0  0  0  2  0  0  0  0  0  0
  195.9100  176.8090  141.2640 O   0  0  0  0  0  1  0  0  0  0  0  0
  189.0390  172.3730  141.5680 C   0  0  0  0  0  2  0  0  0  0  0  0
  190.5820  173.9480  141.2320 C   0  0  0  0  0  2  0  0  0  0  0  0
  189.3450  174.7200  141.6380 C   0  0  1  0  0  3  0  0  0  0  0  0
  190.4210  172.6090  141.6200 O   0  0  0  0  0  0  0  0  0  0  0  0
  188.3240  173.6530  141.9260 C   0  0  0  0  0  2  0  0  0  0  0  0
  186.7800  176.7900  140.4400 O   0  0  0  0  0  1  0  0  0  0  0  0
  187.6860  177.4260  141.2890 C   0  0  0  0  0  2  0  0  0  0  0  0
  1  3  1  0  0  0  0
  2  4  1  1  0  0  0
  3 15  1  0  0  0  0
  4  8  1  0  0  0  0
  5 32  1  6  0  0  0
  5 14  1  0  0  0  0
  5  2  1  0  0  0  0
  5  7  1  0  0  0  0
  6  2  1  0  0  0  0
  6 11  1  1  0  0  0
  7 12  1  6  0  0  0
  7  9  1  0  0  0  0
  8  9  1  6  0  0  0
  8 10  1  0  0  0  0
 10 15  1  0  0  0  0
 11 13  1  0  0  0  0
 13 18  1  1  0  0  0
 13  1  1  0  0  0  0
 14  7  1  0  0  0  0
 18 20  2  0  0  0  0
 19 22  1  0  0  0  0
 20 17  1  0  0  0  0
 21 19  2  0  0  0  0
 21 18  1  0  0  0  0
 22 16  1  1  0  0  0
 22 17  1  0  0  0  0
 23 21  1  0  0  0  0
 24 23  1  0  0  0  0
 25 24  1  0  0  0  0
 26 29  1  0  0  0  0
 26 30  1  0  0  0  0
 27 29  1  0  0  0  0
 28 27  1  1  0  0  0
 28 30  1  0  0  0  0
 28  6  1  0  0  0  0
 31 32  1  0  0  0  0
M  END
>  <MODEL>
6

>  <REMARK>
 VINA RESULT:      -6.9      3.305      7.524
  Name = 
  5 active torsions:
  status: ('A' for Active; 'I' for Inactive)
    1  A    between atoms: C_3  and  C_23
    2  A    between atoms: C_6  and  C_17
    3  A    between atoms: C_10  and  C_28
    4  A    between atoms: C_16  and  C_27
    5  A    between atoms: C_22  and  C_23
                            x       y       z     vdW  Elec       q    Type
                         _______ _______ _______ _____ _____    ______ ____

>  <TORSDO>
F 5

$$$$
=
 OpenBabel11052419183D

 32 36  0  0  1  0  0  0  0  0999 V2000
  189.9160  174.3520  142.5340 C   0  0  0  0  0  2  0  0  0  0  0  0
  193.4970  174.3050  142.6970 C   0  0  1  0  0  3  0  0  0  0  0  0
  189.9990  172.8730  142.9240 C   0  0  0  0  0  2  0  0  0  0  0  0
  192.5130  173.5250  142.1040 O   0  0  0  0  0  0  0  0  0  0  0  0
  194.5530  174.6290  141.6190 C   0  0  2  0  0  0  0  0  0  0  0  0
  192.7850  175.4850  143.3720 C   0  0  1  0  0  3  0  0  0  0  0  0
  194.7430  173.5630  140.5770 C   0  0  1  0  0  0  0  0  0  0  0  0
  193.0500  172.2560  141.9360 C   0  0  2  0  0  3  0  0  0  0  0  0
  193.9100  172.2620  140.6690 C   0  0  0  0  0  2  0  0  0  0  0  0
  191.9280  171.2120  141.9190 C   0  0  0  0  0  2  0  0  0  0  0  0
  191.6930  174.9610  144.2030 N   0  0  0  0  0  2  0  0  0  0  0  0
  195.4230  173.8990  139.2620 C   0  0  0  0  0  1  0  0  0  0  0  0
  190.4020  175.3310  143.6210 C   0  0  2  0  0  3  0  0  0  0  0  0
  195.6320  173.7160  141.6620 O   0  0  0  0  0  0  0  0  0  0  0  0
  190.2840  171.8710  141.4140 S   0  0  0  0  0  0  0  0  0  0  0  0
  186.6920  176.6270  147.6510 F   0  0  0  0  0  0  0  0  0  0  0  0
  188.5660  175.2910  147.0210 C   0  0  0  0  0  2  0  0  0  0  0  0
  189.3770  175.5430  144.6970 C   0  0  0  0  0  0  0  0  0  0  0  0
  187.3440  176.7190  145.3810 C   0  0  0  0  0  3  0  0  0  0  0  0
  189.6100  175.1280  145.9510 C   0  0  0  0  0  3  0  0  0  0  0  0
  188.1150  176.2660  144.3860 C   0  0  0  0  0  0  0  0  0  0  0  0
  187.7880  176.5910  146.8120 C   0  0  1  0  0  3  0  0  0  0  0  0
  187.6670  176.4590  142.9740 C   0  0  0  0  0  2  0  0  0  0  0  0
  187.7210  177.9280  142.5820 C   0  0  0  0  0  2  0  0  0  0  0  0
  188.9520  178.2220  141.9940 O   0  0  0  0  0  1  0  0  0  0  0  0
  194.4020  175.9830  146.4710 C   0  0  0  0  0  2  0  0  0  0  0  0
  192.9930  177.1740  145.2160 C   0  0  0  0  0  2  0  0  0  0  0  0
  193.7500  176.3220  144.2200 C   0  0  1  0  0  3  0  0  0  0  0  0
  193.1480  176.6130  146.4920 O   0  0  0  0  0  0  0  0  0  0  0  0
  194.6540  175.4740  145.0720 C   0  0  0  0  0  2  0  0  0  0  0  0
  196.2530  176.3070  141.8410 O   0  0  0  0  0  1  0  0  0  0  0  0
  194.9960  176.0530  141.2920 C   0  0  0  0  0  2  0  0  0  0  0  0
  1  3  1  0  0  0  0
  1 13  1  0  0  0  0
  2  4  1  6  0  0  0
  2  6  1  0  0  0  0
  5 32  1  6  0  0  0
  5 14  1  0  0  0  0
  5  2  1  0  0  0  0
  6 11  1  1  0  0  0
  6 28  1  0  0  0  0
  7 12  1  6  0  0  0
  7  9  1  0  0  0  0
  7  5  1  0  0  0  0
  7 14  1  0  0  0  0
  8  9  1  6  0  0  0
  8  4  1  0  0  0  0
 10  8  1  0  0  0  0
 13 11  1  0  0  0  0
 13 18  1  1  0  0  0
 15 10  1  0  0  0  0
 15  3  1  0  0  0  0
 18 20  2  0  0  0  0
 19 22  1  0  0  0  0
 20 17  1  0  0  0  0
 21 18  1  0  0  0  0
 21 19  2  0  0  0  0
 22 17  1  0  0  0  0
 22 16  1  1  0  0  0
 23 21  1  0  0  0  0
 24 23  1  0  0  0  0
 25 24  1  0  0  0  0
 26 29  1  0  0  0  0
 27 29  1  0  0  0  0
 28 30  1  1  0  0  0
 28 27  1  0  0  0  0
 30 26  1  0  0  0  0
 32 31  1  0  0  0  0
M  END
>  <MODEL>
7

>  <REMARK>
 VINA RESULT:      -6.5      2.037      2.807
  Name = 
  5 active torsions:
  status: ('A' for Active; 'I' for Inactive)
    1  A    between atoms: C_3  and  C_23
    2  A    between atoms: C_6  and  C_17
    3  A    between atoms: C_10  and  C_28
    4  A    between atoms: C_16  and  C_27
    5  A    between atoms: C_22  and  C_23
                            x       y       z     vdW  Elec       q    Type
                         _______ _______ _______ _____ _____    ______ ____

>  <TORSDO>
F 5

$$$$
=
 OpenBabel11052419183D

 32 36  0  0  1  0  0  0  0  0999 V2000
  191.7430  175.5650  146.7140 C   0  0  0  0  0  2  0  0  0  0  0  0
  193.1730  173.3360  144.2990 C   0  0  1  0  0  3  0  0  0  0  0  0
  192.4550  176.6740  145.9350 C   0  0  0  0  0  2  0  0  0  0  0  0
  193.6370  174.3640  145.1090 O   0  0  0  0  0  0  0  0  0  0  0  0
  194.1160  172.1290  144.4860 C   0  0  2  0  0  0  0  0  0  0  0  0
  191.6890  173.1370  144.6370 C   0  0  1  0  0  3  0  0  0  0  0  0
  195.5480  172.4810  144.7750 C   0  0  1  0  0  0  0  0  0  0  0  0
  194.7730  174.8780  144.4970 C   0  0  2  0  0  3  0  0  0  0  0  0
  195.9570  173.9720  144.8440 C   0  0  0  0  0  2  0  0  0  0  0  0
  194.9700  176.3410  144.9060 C   0  0  0  0  0  2  0  0  0  0  0  0
  191.0180  174.4420  144.5860 N   0  0  0  0  0  2  0  0  0  0  0  0
  196.4810  171.4430  145.3730 C   0  0  0  0  0  1  0  0  0  0  0  0
  190.6210  174.8510  145.9350 C   0  0  2  0  0  3  0  0  0  0  0  0
  195.1180  172.0970  143.4880 O   0  0  0  0  0  0  0  0  0  0  0  0
  194.1920  176.7930  146.5140 S   0  0  0  0  0  0  0  0  0  0  0  0
  186.1640  178.2870  145.8410 F   0  0  0  0  0  0  0  0  0  0  0  0
  187.2170  176.4150  146.8810 C   0  0  0  0  0  2  0  0  0  0  0  0
  189.3540  175.6540  145.8940 C   0  0  0  0  0  0  0  0  0  0  0  0
  188.0980  177.4360  144.7830 C   0  0  0  0  0  3  0  0  0  0  0  0
  188.5120  175.6530  146.9380 C   0  0  0  0  0  3  0  0  0  0  0  0
  189.0520  176.5010  144.7090 C   0  0  0  0  0  0  0  0  0  0  0  0
  187.3930  177.7080  146.0830 C   0  0  1  0  0  3  0  0  0  0  0  0
  189.7690  176.2970  143.4140 C   0  0  0  0  0  2  0  0  0  0  0  0
  190.1030  177.6300  142.7610 C   0  0  0  0  0  2  0  0  0  0  0  0
  191.4650  177.9020  142.8940 O   0  0  0  0  0  1  0  0  0  0  0  0
  189.7410  172.6210  141.7380 C   0  0  0  0  0  2  0  0  0  0  0  0
  189.5180  172.1170  143.9000 C   0  0  0  0  0  2  0  0  0  0  0  0
  191.0150  172.1490  143.6770 C   0  0  1  0  0  3  0  0  0  0  0  0
  188.8950  172.7980  142.8430 O   0  0  0  0  0  0  0  0  0  0  0  0
  191.1640  172.5510  142.2350 C   0  0  0  0  0  2  0  0  0  0  0  0
  193.6430  169.8920  143.7590 O   0  0  0  0  0  1  0  0  0  0  0  0
  193.6190  170.7370  144.8690 C   0  0  0  0  0  2  0  0  0  0  0  0
  2  5  1  0  0  0  0
  2  6  1  0  0  0  0
  2  4  1  1  0  0  0
  3 15  1  0  0  0  0
  3  1  1  0  0  0  0
  5  7  1  0  0  0  0
  5 32  1  1  0  0  0
  6 11  1  6  0  0  0
  7  9  1  0  0  0  0
  7 12  1  1  0  0  0
  8  9  1  1  0  0  0
  8 10  1  0  0  0  0
  8  4  1  0  0  0  0
 10 15  1  0  0  0  0
 11 13  1  0  0  0  0
 13 18  1  6  0  0  0
 13  1  1  0  0  0  0
 14  5  1  0  0  0  0
 14  7  1  0  0  0  0
 17 20  1  0  0  0  0
 18 20  2  0  0  0  0
 19 22  1  0  0  0  0
 21 19  2  0  0  0  0
 21 18  1  0  0  0  0
 22 16  1  6  0  0  0
 22 17  1  0  0  0  0
 23 21  1  0  0  0  0
 24 25  1  0  0  0  0
 24 23  1  0  0  0  0
 26 30  1  0  0  0  0
 26 29  1  0  0  0  0
 28 30  1  6  0  0  0
 28 27  1  0  0  0  0
 28  6  1  0  0  0  0
 29 27  1  0  0  0  0
 31 32  1  0  0  0  0
M  END
>  <MODEL>
8

>  <REMARK>
 VINA RESULT:      -6.5      2.850      4.732
  Name = 
  5 active torsions:
  status: ('A' for Active; 'I' for Inactive)
    1  A    between atoms: C_3  and  C_23
    2  A    between atoms: C_6  and  C_17
    3  A    between atoms: C_10  and  C_28
    4  A    between atoms: C_16  and  C_27
    5  A    between atoms: C_22  and  C_23
                            x       y       z     vdW  Elec       q    Type
                         _______ _______ _______ _____ _____    ______ ____

>  <TORSDO>
F 5

$$$$
=
 OpenBabel11052419183D

 32 36  0  0  1  0  0  0  0  0999 V2000
  190.7360  173.1370  142.9030 C   0  0  0  0  0  2  0  0  0  0  0  0
  189.9540  176.3590  144.2670 C   0  0  1  0  0  3  0  0  0  0  0  0
  190.3420  173.7460  141.5550 C   0  0  0  0  0  2  0  0  0  0  0  0
  189.3300  175.4540  143.4180 O   0  0  0  0  0  0  0  0  0  0  0  0
  188.9340  176.7660  145.3510 C   0  0  2  0  0  0  0  0  0  0  0  0
  191.2620  175.7050  144.7320 C   0  0  1  0  0  3  0  0  0  0  0  0
  187.5010  176.7850  144.8980 C   0  0  1  0  0  0  0  0  0  0  0  0
  188.4510  176.1830  142.6280 C   0  0  2  0  0  3  0  0  0  0  0  0
  187.1700  176.4230  143.4310 C   0  0  0  0  0  2  0  0  0  0  0  0
  188.2220  175.4580  141.2970 C   0  0  0  0  0  2  0  0  0  0  0  0
  191.9880  175.2170  143.5530 N   0  0  0  0  0  2  0  0  0  0  0  0
  186.3800  176.7630  145.9220 C   0  0  0  0  0  1  0  0  0  0  0  0
  191.9960  173.7530  143.5430 C   0  0  2  0  0  3  0  0  0  0  0  0
  188.2660  177.9650  145.0070 O   0  0  0  0  0  0  0  0  0  0  0  0
  188.5220  173.6410  141.3590 S   0  0  0  0  0  0  0  0  0  0  0  0
  196.9950  172.0150  141.6250 F   0  0  0  0  0  0  0  0  0  0  0  0
  195.0200  173.2810  141.1850 C   0  0  0  0  0  2  0  0  0  0  0  0
  193.2620  173.2350  142.9240 C   0  0  0  0  0  0  0  0  0  0  0  0
  195.2360  171.8150  143.1910 C   0  0  0  0  0  3  0  0  0  0  0  0
  193.7810  173.8270  141.8390 C   0  0  0  0  0  3  0  0  0  0  0  0
  193.9750  172.0890  143.5480 C   0  0  0  0  0  0  0  0  0  0  0  0
  195.9740  172.7140  142.2380 C   0  0  1  0  0  3  0  0  0  0  0  0
  193.2930  171.2040  144.5400 C   0  0  0  0  0  2  0  0  0  0  0  0
  192.6880  169.9870  143.8580 C   0  0  0  0  0  2  0  0  0  0  0  0
  192.9150  168.8440  144.6260 O   0  0  0  0  0  1  0  0  0  0  0  0
  194.4950  176.8010  145.6340 C   0  0  0  0  0  2  0  0  0  0  0  0
  192.7330  176.0000  146.7440 C   0  0  0  0  0  2  0  0  0  0  0  0
  192.1320  176.6820  145.5330 C   0  0  1  0  0  3  0  0  0  0  0  0
  194.0950  175.7690  146.4960 O   0  0  0  0  0  0  0  0  0  0  0  0
  193.3250  177.1650  144.7530 C   0  0  0  0  0  2  0  0  0  0  0  0
  189.5530  177.9110  147.3670 O   0  0  0  0  0  1  0  0  0  0  0  0
  189.2220  176.6590  146.8460 C   0  0  0  0  0  2  0  0  0  0  0  0
  1 13  1  0  0  0  0
  2  4  1  6  0  0  0
  2  6  1  0  0  0  0
  2  5  1  0  0  0  0
  3  1  1  0  0  0  0
  5 32  1  1  0  0  0
  6 11  1  6  0  0  0
  6 28  1  0  0  0  0
  7 14  1  0  0  0  0
  7  5  1  0  0  0  0
  7 12  1  1  0  0  0
  8 10  1  6  0  0  0
  8  4  1  0  0  0  0
  8  9  1  0  0  0  0
  9  7  1  0  0  0  0
 10 15  1  0  0  0  0
 13 18  1  6  0  0  0
 13 11  1  0  0  0  0
 14  5  1  0  0  0  0
 15  3  1  0  0  0  0
 17 20  1  0  0  0  0
 17 22  1  0  0  0  0
 18 21  1  0  0  0  0
 19 21  2  0  0  0  0
 20 18  2  0  0  0  0
 21 23  1  0  0  0  0
 22 16  1  6  0  0  0
 22 19  1  0  0  0  0
 24 23  1  0  0  0  0
 24 25  1  0  0  0  0
 26 29  1  0  0  0  0
 28 30  1  6  0  0  0
 28 27  1  0  0  0  0
 29 27  1  0  0  0  0
 30 26  1  0  0  0  0
 32 31  1  0  0  0  0
M  END
>  <MODEL>
9

>  <REMARK>
 VINA RESULT:      -6.3      3.422      7.344
  Name = 
  5 active torsions:
  status: ('A' for Active; 'I' for Inactive)
    1  A    between atoms: C_3  and  C_23
    2  A    between atoms: C_6  and  C_17
    3  A    between atoms: C_10  and  C_28
    4  A    between atoms: C_16  and  C_27
    5  A    between atoms: C_22  and  C_23
                            x       y       z     vdW  Elec       q    Type
                         _______ _______ _______ _____ _____    ______ ____

>  <TORSDO>
F 5

$$$$
