=
 OpenBabel11052418123D

 28 32  0  0  1  0  0  0  0  0999 V2000
  194.2740  174.1660  145.6320 N   0  0  0  0  0  0  0  0  0  0  0  0
  192.9020  176.0780  145.5520 C   0  0  1  0  0  3  0  0  0  0  0  0
  194.1870  176.3870  146.1650 C   0  0  0  0  0  0  0  0  0  0  0  0
  194.5580  177.5140  146.5850 O   0  0  0  0  0  0  0  0  0  0  0  0
  194.9930  175.2500  146.1570 N   0  0  0  0  0  2  0  0  0  0  0  0
  193.0000  174.6500  145.2150 N   0  0  0  0  0  2  0  0  0  0  0  0
  191.7760  175.8580  147.6240 O   0  0  0  0  0  0  0  0  0  0  0  0
  191.7550  176.3190  146.4920 C   0  0  0  0  0  0  0  0  0  0  0  0
  186.8040  177.2690  147.0970 C   0  0  0  0  0  3  0  0  0  0  0  0
  187.8810  177.2280  144.7130 C   0  0  1  0  0  3  0  0  0  0  0  0
  188.5510  175.6090  146.5220 C   0  0  0  0  0  2  0  0  0  0  0  0
  185.7410  178.4190  145.2120 C   0  0  0  0  0  0  0  0  0  0  0  0
  187.9940  176.9910  146.2350 C   0  0  2  0  0  0  0  0  0  0  0  0
  190.3460  176.9640  144.5400 C   0  0  0  0  0  2  0  0  0  0  0  0
  186.7220  178.1190  144.3550 C   0  0  0  0  0  3  0  0  0  0  0  0
  189.3400  176.8390  146.9440 C   0  0  2  0  0  3  0  0  0  0  0  0
  189.1570  177.8060  144.1190 C   0  0  0  0  0  2  0  0  0  0  0  0
  184.6160  179.2770  144.7580 C   0  0  0  0  0  1  0  0  0  0  0  0
  185.7630  177.9420  146.6070 C   0  0  0  0  0  3  0  0  0  0  0  0
  190.5670  177.1130  146.0450 C   0  0  1  0  0  3  0  0  0  0  0  0
  195.0090  173.6060  144.4840 C   0  0  0  0  0  2  0  0  0  0  0  0
  195.4340  172.1320  144.6040 C   0  0  2  0  0  3  0  0  0  0  0  0
  195.7780  169.9170  146.3760 C   0  0  0  0  0  0  0  0  0  0  0  0
  194.3660  171.2830  145.0450 O   0  0  0  0  0  0  0  0  0  0  0  0
  196.7030  171.9500  145.3970 C   0  0  0  0  0  3  0  0  0  0  0  0
  196.8610  170.8960  146.1980 C   0  0  0  0  0  3  0  0  0  0  0  0
  195.9940  168.7140  147.2200 C   0  0  0  0  0  1  0  0  0  0  0  0
  194.5850  170.1400  145.8260 C   0  0  0  0  0  3  0  0  0  0  0  0
  1  5  1  0  0  0  0
  2  3  1  0  0  0  0
  2  8  1  1  0  0  0
  3  4  2  0  0  0  0
  5  3  1  0  0  0  0
  6  2  1  0  0  0  0
  6  1  1  0  0  0  0
  8  7  2  0  0  0  0
 10 17  1  1  0  0  0
 10 13  1  0  0  0  0
 12 19  1  0  0  0  0
 13 11  1  6  0  0  0
 13 16  1  0  0  0  0
 13  9  1  0  0  0  0
 14 20  1  0  0  0  0
 15 10  1  0  0  0  0
 15 12  2  0  0  0  0
 16 11  1  6  0  0  0
 17 14  1  0  0  0  0
 18 12  1  0  0  0  0
 19  9  2  0  0  0  0
 20  8  1  1  0  0  0
 20 16  1  0  0  0  0
 21  1  1  0  0  0  0
 22 21  1  1  0  0  0
 22 24  1  0  0  0  0
 22 25  1  0  0  0  0
 23 27  1  0  0  0  0
 24 28  1  0  0  0  0
 25 26  2  0  0  0  0
 26 23  1  0  0  0  0
 28 23  2  0  0  0  0
M  END
>  <MODEL>
1

>  <REMARK>
 VINA RESULT:      -8.2      0.000      0.000
  Name = 
  4 active torsions:
  status: ('A' for Active; 'I' for Inactive)
    1  A    between atoms: N_1  and  C_2
    2  A    between atoms: C_2  and  C_3
    3  A    between atoms: C_16  and  C_20
    4  A    between atoms: C_20  and  C_25
                            x       y       z     vdW  Elec       q    Type
                         _______ _______ _______ _____ _____    ______ ____

>  <TORSDO>
F 4

$$$$
=
 OpenBabel11052418123D

 28 32  0  0  1  0  0  0  0  0999 V2000
  194.2520  174.2020  145.5870 N   0  0  0  0  0  0  0  0  0  0  0  0
  192.8830  176.1180  145.5330 C   0  0  1  0  0  3  0  0  0  0  0  0
  194.1720  176.4180  146.1420 C   0  0  0  0  0  0  0  0  0  0  0  0
  194.5490  177.5400  146.5700 O   0  0  0  0  0  0  0  0  0  0  0  0
  194.9770  175.2790  146.1180 N   0  0  0  0  0  2  0  0  0  0  0  0
  192.9760  174.6930  145.1820 N   0  0  0  0  0  2  0  0  0  0  0  0
  191.7770  175.8930  147.6150 O   0  0  0  0  0  0  0  0  0  0  0  0
  191.7430  176.3520  146.4830 C   0  0  0  0  0  0  0  0  0  0  0  0
  186.7920  177.2750  147.1320 C   0  0  0  0  0  3  0  0  0  0  0  0
  187.8460  177.2310  144.7380 C   0  0  1  0  0  3  0  0  0  0  0  0
  188.5440  175.6230  146.5470 C   0  0  0  0  0  2  0  0  0  0  0  0
  185.7040  178.4110  145.2540 C   0  0  0  0  0  0  0  0  0  0  0  0
  187.9750  177.0000  146.2590 C   0  0  2  0  0  0  0  0  0  0  0  0
  190.3100  176.9810  144.5420 C   0  0  0  0  0  2  0  0  0  0  0  0
  186.6780  178.1130  144.3880 C   0  0  0  0  0  3  0  0  0  0  0  0
  189.3290  176.8590  146.9560 C   0  0  2  0  0  3  0  0  0  0  0  0
  189.1120  177.8140  144.1300 C   0  0  0  0  0  2  0  0  0  0  0  0
  184.5690  179.2600  144.8080 C   0  0  0  0  0  1  0  0  0  0  0  0
  185.7420  177.9390  146.6500 C   0  0  0  0  0  3  0  0  0  0  0  0
  190.5460  177.1380  146.0440 C   0  0  1  0  0  3  0  0  0  0  0  0
  194.9780  173.6520  144.4300 C   0  0  0  0  0  2  0  0  0  0  0  0
  195.8740  174.6380  143.6580 C   0  0  2  0  0  3  0  0  0  0  0  0
  197.0700  175.2560  141.1390 C   0  0  0  0  0  0  0  0  0  0  0  0
  195.1850  175.2820  142.5790 O   0  0  0  0  0  0  0  0  0  0  0  0
  197.1910  174.0330  143.2450 C   0  0  0  0  0  3  0  0  0  0  0  0
  197.7520  174.3530  142.0780 C   0  0  0  0  0  3  0  0  0  0  0  0
  197.7380  175.6540  139.8720 C   0  0  0  0  0  1  0  0  0  0  0  0
  195.8300  175.6690  141.3970 C   0  0  0  0  0  3  0  0  0  0  0  0
  1  5  1  0  0  0  0
  2  3  1  0  0  0  0
  2  8  1  1  0  0  0
  3  4  2  0  0  0  0
  5  3  1  0  0  0  0
  6  2  1  0  0  0  0
  6  1  1  0  0  0  0
  8  7  2  0  0  0  0
 10 17  1  1  0  0  0
 10 13  1  0  0  0  0
 12 19  1  0  0  0  0
 13 11  1  6  0  0  0
 13 16  1  0  0  0  0
 13  9  1  0  0  0  0
 14 20  1  0  0  0  0
 15 10  1  0  0  0  0
 15 12  2  0  0  0  0
 16 11  1  6  0  0  0
 17 14  1  0  0  0  0
 18 12  1  0  0  0  0
 19  9  2  0  0  0  0
 20  8  1  1  0  0  0
 20 16  1  0  0  0  0
 21  1  1  0  0  0  0
 22 21  1  6  0  0  0
 23 28  2  0  0  0  0
 23 26  1  0  0  0  0
 24 22  1  0  0  0  0
 25 22  1  0  0  0  0
 26 25  2  0  0  0  0
 27 23  1  0  0  0  0
 28 24  1  0  0  0  0
M  END
>  <MODEL>
2

>  <REMARK>
 VINA RESULT:      -7.8      2.004      3.183
  Name = 
  4 active torsions:
  status: ('A' for Active; 'I' for Inactive)
    1  A    between atoms: N_1  and  C_2
    2  A    between atoms: C_2  and  C_3
    3  A    between atoms: C_16  and  C_20
    4  A    between atoms: C_20  and  C_25
                            x       y       z     vdW  Elec       q    Type
                         _______ _______ _______ _____ _____    ______ ____

>  <TORSDO>
F 4

$$$$
=
 OpenBabel11052418123D

 28 32  0  0  1  0  0  0  0  0999 V2000
  189.6610  172.9400  141.8260 N   0  0  0  0  0  0  0  0  0  0  0  0
  190.8690  173.4090  143.7930 C   0  0  1  0  0  3  0  0  0  0  0  0
  189.7770  172.4840  144.0630 C   0  0  0  0  0  0  0  0  0  0  0  0
  189.5000  171.9660  145.1760 O   0  0  0  0  0  0  0  0  0  0  0  0
  189.1090  172.1890  142.8750 N   0  0  0  0  0  2  0  0  0  0  0  0
  190.7680  173.6700  142.3490 N   0  0  0  0  0  2  0  0  0  0  0  0
  191.7210  175.3170  144.9080 O   0  0  0  0  0  0  0  0  0  0  0  0
  190.7300  174.6890  144.5680 C   0  0  0  0  0  0  0  0  0  0  0  0
  187.0960  178.1360  143.7320 C   0  0  0  0  0  3  0  0  0  0  0  0
  187.6550  177.3370  146.1600 C   0  0  1  0  0  3  0  0  0  0  0  0
  189.4370  177.7020  144.4180 C   0  0  0  0  0  2  0  0  0  0  0  0
  185.4620  178.3660  145.5440 C   0  0  0  0  0  0  0  0  0  0  0  0
  187.9790  177.3510  144.6500 C   0  0  2  0  0  0  0  0  0  0  0  0
  189.3000  175.4960  146.4440 C   0  0  0  0  0  2  0  0  0  0  0  0
  186.2410  177.7650  146.4490 C   0  0  0  0  0  3  0  0  0  0  0  0
  188.9180  176.3340  144.0020 C   0  0  2  0  0  3  0  0  0  0  0  0
  187.9050  175.9780  146.7950 C   0  0  0  0  0  2  0  0  0  0  0  0
  184.0910  178.7870  145.9300 C   0  0  0  0  0  1  0  0  0  0  0  0
  185.9210  178.5970  144.1620 C   0  0  0  0  0  3  0  0  0  0  0  0
  189.3730  175.1970  144.9470 C   0  0  1  0  0  3  0  0  0  0  0  0
  190.1080  172.0280  140.7590 C   0  0  0  0  0  2  0  0  0  0  0  0
  189.4570  172.2270  139.3780 C   0  0  2  0  0  3  0  0  0  0  0  0
  189.1260  174.0040  137.1660 C   0  0  0  0  0  0  0  0  0  0  0  0
  190.4230  172.3940  138.3320 O   0  0  0  0  0  0  0  0  0  0  0  0
  188.3930  173.2930  139.3810 C   0  0  0  0  0  3  0  0  0  0  0  0
  188.2310  174.0970  138.3290 C   0  0  0  0  0  3  0  0  0  0  0  0
  188.8920  174.8610  135.9760 C   0  0  0  0  0  1  0  0  0  0  0  0
  190.1820  173.1920  137.2050 C   0  0  0  0  0  3  0  0  0  0  0  0
  1  6  1  0  0  0  0
  1  5  1  0  0  0  0
  2  3  1  0  0  0  0
  2  8  1  1  0  0  0
  3  4  2  0  0  0  0
  5  3  1  0  0  0  0
  6  2  1  0  0  0  0
  8  7  2  0  0  0  0
  9 19  2  0  0  0  0
 10 15  1  6  0  0  0
 10 17  1  0  0  0  0
 11 13  1  0  0  0  0
 12 18  1  0  0  0  0
 12 15  2  0  0  0  0
 13  9  1  6  0  0  0
 13 10  1  0  0  0  0
 14 17  1  0  0  0  0
 16 11  1  1  0  0  0
 16 13  1  0  0  0  0
 16 20  1  0  0  0  0
 19 12  1  0  0  0  0
 20  8  1  6  0  0  0
 20 14  1  0  0  0  0
 21  1  1  0  0  0  0
 22 25  1  0  0  0  0
 22 21  1  1  0  0  0
 23 28  2  0  0  0  0
 23 26  1  0  0  0  0
 24 22  1  0  0  0  0
 26 25  2  0  0  0  0
 27 23  1  0  0  0  0
 28 24  1  0  0  0  0
M  END
>  <MODEL>
3

>  <REMARK>
 VINA RESULT:      -7.7      4.603      6.518
  Name = 
  4 active torsions:
  status: ('A' for Active; 'I' for Inactive)
    1  A    between atoms: N_1  and  C_2
    2  A    between atoms: C_2  and  C_3
    3  A    between atoms: C_16  and  C_20
    4  A    between atoms: C_20  and  C_25
                            x       y       z     vdW  Elec       q    Type
                         _______ _______ _______ _____ _____    ______ ____

>  <TORSDO>
F 4

$$$$
=
 OpenBabel11052418123D

 28 32  0  0  1  0  0  0  0  0999 V2000
  187.8990  177.2180  147.0670 N   0  0  0  0  0  0  0  0  0  0  0  0
  189.8470  176.3100  146.1060 C   0  0  1  0  0  3  0  0  0  0  0  0
  189.0480  175.2700  146.7410 C   0  0  0  0  0  0  0  0  0  0  0  0
  189.3160  174.0410  146.7710 O   0  0  0  0  0  0  0  0  0  0  0  0
  187.8810  175.8290  147.2600 N   0  0  0  0  0  2  0  0  0  0  0  0
  189.0740  177.5410  146.3280 N   0  0  0  0  0  2  0  0  0  0  0  0
  191.3340  176.5680  147.9310 O   0  0  0  0  0  0  0  0  0  0  0  0
  191.2120  176.4280  146.7230 C   0  0  0  0  0  0  0  0  0  0  0  0
  194.0510  173.7420  143.4810 C   0  0  0  0  0  3  0  0  0  0  0  0
  195.1620  175.2850  145.2780 C   0  0  1  0  0  3  0  0  0  0  0  0
  193.1000  173.9220  145.7630 C   0  0  0  0  0  2  0  0  0  0  0  0
  196.3400  174.5660  143.1940 C   0  0  0  0  0  0  0  0  0  0  0  0
  193.9010  174.6230  144.6810 C   0  0  2  0  0  0  0  0  0  0  0  0
  193.6880  176.7170  146.6740 C   0  0  0  0  0  2  0  0  0  0  0  0
  196.3160  175.2990  144.3120 C   0  0  0  0  0  3  0  0  0  0  0  0
  192.4870  175.0970  145.0170 C   0  0  2  0  0  3  0  0  0  0  0  0
  194.8990  176.7020  145.7630 C   0  0  0  0  0  2  0  0  0  0  0  0
  197.5390  174.6150  142.3180 C   0  0  0  0  0  1  0  0  0  0  0  0
  195.1930  173.7310  142.7940 C   0  0  0  0  0  3  0  0  0  0  0  0
  192.4350  176.3920  145.8600 C   0  0  1  0  0  3  0  0  0  0  0  0
  186.6960  177.6200  146.3170 C   0  0  0  0  0  2  0  0  0  0  0  0
  186.8850  177.8610  144.8080 C   0  0  2  0  0  3  0  0  0  0  0  0
  185.5740  178.1390  142.2860 C   0  0  0  0  0  0  0  0  0  0  0  0
  186.2570  179.0690  144.3590 O   0  0  0  0  0  0  0  0  0  0  0  0
  186.5280  176.6590  143.9730 C   0  0  0  0  0  3  0  0  0  0  0  0
  185.9410  176.8050  142.7840 C   0  0  0  0  0  3  0  0  0  0  0  0
  184.9810  178.2900  140.9320 C   0  0  0  0  0  1  0  0  0  0  0  0
  185.7180  179.2050  143.0730 C   0  0  0  0  0  3  0  0  0  0  0  0
  1  5  1  0  0  0  0
  2  6  1  0  0  0  0
  2  8  1  1  0  0  0
  2  3  1  0  0  0  0
  3  4  2  0  0  0  0
  3  5  1  0  0  0  0
  6  1  1  0  0  0  0
  8  7  2  0  0  0  0
 10 15  1  6  0  0  0
 10 17  1  0  0  0  0
 12 15  2  0  0  0  0
 13  9  1  6  0  0  0
 13 16  1  0  0  0  0
 13 10  1  0  0  0  0
 13 11  1  0  0  0  0
 16 11  1  1  0  0  0
 16 20  1  0  0  0  0
 17 14  1  0  0  0  0
 18 12  1  0  0  0  0
 19 12  1  0  0  0  0
 19  9  2  0  0  0  0
 20 14  1  0  0  0  0
 20  8  1  1  0  0  0
 21  1  1  0  0  0  0
 22 21  1  1  0  0  0
 23 26  1  0  0  0  0
 23 28  2  0  0  0  0
 24 22  1  0  0  0  0
 25 22  1  0  0  0  0
 26 25  2  0  0  0  0
 27 23  1  0  0  0  0
 28 24  1  0  0  0  0
M  END
>  <MODEL>
4

>  <REMARK>
 VINA RESULT:      -7.6      3.264      8.973
  Name = 
  4 active torsions:
  status: ('A' for Active; 'I' for Inactive)
    1  A    between atoms: N_1  and  C_2
    2  A    between atoms: C_2  and  C_3
    3  A    between atoms: C_16  and  C_20
    4  A    between atoms: C_20  and  C_25
                            x       y       z     vdW  Elec       q    Type
                         _______ _______ _______ _____ _____    ______ ____

>  <TORSDO>
F 4

$$$$
=
 OpenBabel11052418123D

 28 32  0  0  1  0  0  0  0  0999 V2000
  192.7250  175.0040  145.8570 N   0  0  0  0  0  0  0  0  0  0  0  0
  190.6830  176.1430  146.1360 C   0  0  1  0  0  3  0  0  0  0  0  0
  191.5790  176.4020  147.2550 C   0  0  0  0  0  0  0  0  0  0  0  0
  191.3400  177.1460  148.2420 O   0  0  0  0  0  0  0  0  0  0  0  0
  192.7940  175.7540  147.0410 N   0  0  0  0  0  2  0  0  0  0  0  0
  191.4560  175.2520  145.2580 N   0  0  0  0  0  2  0  0  0  0  0  0
  189.4220  174.6630  147.4880 O   0  0  0  0  0  0  0  0  0  0  0  0
  189.4110  175.4750  146.5750 C   0  0  0  0  0  0  0  0  0  0  0  0
  187.1400  177.5570  142.5380 C   0  0  0  0  0  3  0  0  0  0  0  0
  186.1140  177.8060  144.9320 C   0  0  1  0  0  3  0  0  0  0  0  0
  188.5960  177.8960  144.5150 C   0  0  0  0  0  2  0  0  0  0  0  0
  184.7630  178.0640  142.8450 C   0  0  0  0  0  0  0  0  0  0  0  0
  187.2700  177.3530  144.0140 C   0  0  2  0  0  0  0  0  0  0  0  0
  187.1850  176.5740  146.8050 C   0  0  0  0  0  2  0  0  0  0  0  0
  184.8250  178.0000  144.1790 C   0  0  0  0  0  3  0  0  0  0  0  0
  188.3640  176.3930  144.4850 C   0  0  2  0  0  3  0  0  0  0  0  0
  185.8780  176.8430  146.0860 C   0  0  0  0  0  2  0  0  0  0  0  0
  183.4500  178.2960  142.1890 C   0  0  0  0  0  1  0  0  0  0  0  0
  185.9620  177.8830  142.0070 C   0  0  0  0  0  3  0  0  0  0  0  0
  188.1190  175.7870  145.8850 C   0  0  1  0  0  3  0  0  0  0  0  0
  193.8090  175.4240  144.9520 C   0  0  0  0  0  2  0  0  0  0  0  0
  194.8110  174.3310  144.5400 C   0  0  2  0  0  3  0  0  0  0  0  0
  196.2830  172.0400  145.4020 C   0  0  0  0  0  0  0  0  0  0  0  0
  194.2590  173.0120  144.6340 O   0  0  0  0  0  0  0  0  0  0  0  0
  196.1440  174.4680  145.2290 C   0  0  0  0  0  3  0  0  0  0  0  0
  196.8340  173.3890  145.6010 C   0  0  0  0  0  3  0  0  0  0  0  0
  197.0910  170.8460  145.7620 C   0  0  0  0  0  1  0  0  0  0  0  0
  195.0360  171.8900  144.9560 C   0  0  0  0  0  3  0  0  0  0  0  0
  1  5  1  0  0  0  0
  2  8  1  1  0  0  0
  2  3  1  0  0  0  0
  3  4  2  0  0  0  0
  5  3  1  0  0  0  0
  6  1  1  0  0  0  0
  6  2  1  0  0  0  0
  8  7  2  0  0  0  0
 10 15  1  6  0  0  0
 10 17  1  0  0  0  0
 12 15  2  0  0  0  0
 13  9  1  6  0  0  0
 13 16  1  0  0  0  0
 13 11  1  0  0  0  0
 13 10  1  0  0  0  0
 16 11  1  1  0  0  0
 16 20  1  0  0  0  0
 17 14  1  0  0  0  0
 18 12  1  0  0  0  0
 19  9  2  0  0  0  0
 19 12  1  0  0  0  0
 20  8  1  1  0  0  0
 20 14  1  0  0  0  0
 21  1  1  0  0  0  0
 22 24  1  0  0  0  0
 22 21  1  1  0  0  0
 22 25  1  0  0  0  0
 23 26  1  0  0  0  0
 23 27  1  0  0  0  0
 24 28  1  0  0  0  0
 25 26  2  0  0  0  0
 28 23  2  0  0  0  0
M  END
>  <MODEL>
5

>  <REMARK>
 VINA RESULT:      -7.6      1.509      2.811
  Name = 
  4 active torsions:
  status: ('A' for Active; 'I' for Inactive)
    1  A    between atoms: N_1  and  C_2
    2  A    between atoms: C_2  and  C_3
    3  A    between atoms: C_16  and  C_20
    4  A    between atoms: C_20  and  C_25
                            x       y       z     vdW  Elec       q    Type
                         _______ _______ _______ _____ _____    ______ ____

>  <TORSDO>
F 4

$$$$
=
 OpenBabel11052418123D

 28 32  0  0  1  0  0  0  0  0999 V2000
  185.0250  177.8160  142.5540 N   0  0  0  0  0  0  0  0  0  0  0  0
  187.2730  177.5360  141.9140 C   0  0  1  0  0  3  0  0  0  0  0  0
  186.4030  177.5760  140.7470 C   0  0  0  0  0  0  0  0  0  0  0  0
  186.7670  177.5000  139.5450 O   0  0  0  0  0  0  0  0  0  0  0  0
  185.0860  177.7890  141.1530 N   0  0  0  0  0  2  0  0  0  0  0  0
  186.3560  177.7030  143.0510 N   0  0  0  0  0  2  0  0  0  0  0  0
  187.4790  175.1890  141.6760 O   0  0  0  0  0  0  0  0  0  0  0  0
  188.0120  176.2330  142.0220 C   0  0  0  0  0  0  0  0  0  0  0  0
  191.0640  174.7280  145.7920 C   0  0  0  0  0  3  0  0  0  0  0  0
  191.3930  177.0570  144.6480 C   0  0  1  0  0  3  0  0  0  0  0  0
  189.1120  176.0940  145.1110 C   0  0  0  0  0  2  0  0  0  0  0  0
  193.2170  175.8920  145.8970 C   0  0  0  0  0  0  0  0  0  0  0  0
  190.5680  175.7660  144.8360 C   0  0  2  0  0  0  0  0  0  0  0  0
  189.9850  177.6100  142.6770 C   0  0  0  0  0  2  0  0  0  0  0  0
  192.8100  176.9090  145.1310 C   0  0  0  0  0  3  0  0  0  0  0  0
  189.4840  175.3330  143.8480 C   0  0  2  0  0  3  0  0  0  0  0  0
  191.4040  177.5340  143.2040 C   0  0  0  0  0  2  0  0  0  0  0  0
  194.6280  175.8480  146.3590 C   0  0  0  0  0  1  0  0  0  0  0  0
  192.3040  174.7970  146.2740 C   0  0  0  0  0  3  0  0  0  0  0  0
  189.4060  176.1990  142.5700 C   0  0  1  0  0  3  0  0  0  0  0  0
  184.4230  179.0890  142.9890 C   0  0  0  0  0  2  0  0  0  0  0  0
  184.5380  179.4170  144.4890 C   0  0  2  0  0  3  0  0  0  0  0  0
  185.6110  178.5920  147.0040 C   0  0  0  0  0  0  0  0  0  0  0  0
  185.8900  179.6540  144.9000 O   0  0  0  0  0  0  0  0  0  0  0  0
  183.8160  178.4250  145.3630 C   0  0  0  0  0  3  0  0  0  0  0  0
  184.3140  178.0700  146.5480 C   0  0  0  0  0  3  0  0  0  0  0  0
  186.1220  178.2390  148.3540 C   0  0  0  0  0  1  0  0  0  0  0  0
  186.3550  179.3330  146.1830 C   0  0  0  0  0  3  0  0  0  0  0  0
  1 21  1  0  0  0  0
  1  6  1  0  0  0  0
  2  8  1  1  0  0  0
  2  6  1  0  0  0  0
  3  5  1  0  0  0  0
  3  2  1  0  0  0  0
  4  3  2  0  0  0  0
  5  1  1  0  0  0  0
  7  8  2  0  0  0  0
  9 19  2  0  0  0  0
 10 17  1  6  0  0  0
 10 13  1  0  0  0  0
 10 15  1  0  0  0  0
 12 19  1  0  0  0  0
 12 18  1  0  0  0  0
 13 11  1  1  0  0  0
 13  9  1  0  0  0  0
 14 17  1  0  0  0  0
 15 12  2  0  0  0  0
 16 13  1  0  0  0  0
 16 11  1  1  0  0  0
 20  8  1  1  0  0  0
 20 14  1  0  0  0  0
 20 16  1  0  0  0  0
 22 21  1  6  0  0  0
 22 24  1  0  0  0  0
 22 25  1  0  0  0  0
 23 27  1  0  0  0  0
 24 28  1  0  0  0  0
 25 26  2  0  0  0  0
 26 23  1  0  0  0  0
 28 23  2  0  0  0  0
M  END
>  <MODEL>
6

>  <REMARK>
 VINA RESULT:      -7.6      4.864      9.231
  Name = 
  4 active torsions:
  status: ('A' for Active; 'I' for Inactive)
    1  A    between atoms: N_1  and  C_2
    2  A    between atoms: C_2  and  C_3
    3  A    between atoms: C_16  and  C_20
    4  A    between atoms: C_20  and  C_25
                            x       y       z     vdW  Elec       q    Type
                         _______ _______ _______ _____ _____    ______ ____

>  <TORSDO>
F 4

$$$$
=
 OpenBabel11052418123D

 28 32  0  0  1  0  0  0  0  0999 V2000
  192.6460  175.9610  145.8670 N   0  0  0  0  0  0  0  0  0  0  0  0
  190.5420  176.8160  146.4900 C   0  0  1  0  0  3  0  0  0  0  0  0
  191.4490  176.7890  147.6300 C   0  0  0  0  0  0  0  0  0  0  0  0
  191.1900  177.1830  148.7960 O   0  0  0  0  0  0  0  0  0  0  0  0
  192.6980  176.3230  147.2210 N   0  0  0  0  0  2  0  0  0  0  0  0
  191.3470  176.2880  145.3790 N   0  0  0  0  0  2  0  0  0  0  0  0
  189.4420  174.8440  147.2040 O   0  0  0  0  0  0  0  0  0  0  0  0
  189.3290  175.9580  146.7150 C   0  0  0  0  0  0  0  0  0  0  0  0
  186.1740  177.1860  142.9300 C   0  0  0  0  0  3  0  0  0  0  0  0
  186.2420  178.5970  145.1320 C   0  0  1  0  0  3  0  0  0  0  0  0
  188.3210  177.6390  144.0820 C   0  0  0  0  0  2  0  0  0  0  0  0
  184.2750  178.5870  143.5900 C   0  0  0  0  0  0  0  0  0  0  0  0
  186.8220  177.4720  144.2480 C   0  0  2  0  0  0  0  0  0  0  0  0
  187.6640  177.7920  147.0040 C   0  0  0  0  0  2  0  0  0  0  0  0
  184.8370  178.9700  144.7410 C   0  0  0  0  0  3  0  0  0  0  0  0
  187.7760  176.4090  144.7930 C   0  0  2  0  0  3  0  0  0  0  0  0
  186.2720  178.2470  146.6120 C   0  0  0  0  0  2  0  0  0  0  0  0
  182.8950  179.0340  143.2710 C   0  0  0  0  0  1  0  0  0  0  0  0
  184.9830  177.7090  142.6400 C   0  0  0  0  0  3  0  0  0  0  0  0
  187.9710  176.4560  146.3260 C   0  0  1  0  0  3  0  0  0  0  0  0
  193.6740  176.7100  145.1240 C   0  0  0  0  0  2  0  0  0  0  0  0
  194.4790  175.9090  144.0850 C   0  0  2  0  0  3  0  0  0  0  0  0
  196.0940  176.0600  141.7330 C   0  0  0  0  0  0  0  0  0  0  0  0
  195.8730  176.2450  144.0880 O   0  0  0  0  0  0  0  0  0  0  0  0
  193.8630  175.9470  142.7110 C   0  0  0  0  0  3  0  0  0  0  0  0
  194.6290  175.9880  141.6200 C   0  0  0  0  0  3  0  0  0  0  0  0
  196.9360  176.0390  140.5100 C   0  0  0  0  0  1  0  0  0  0  0  0
  196.6610  176.2030  142.9300 C   0  0  0  0  0  3  0  0  0  0  0  0
  1  5  1  0  0  0  0
  2  8  1  1  0  0  0
  2  3  1  0  0  0  0
  3  4  2  0  0  0  0
  5  3  1  0  0  0  0
  6  1  1  0  0  0  0
  6  2  1  0  0  0  0
  8  7  2  0  0  0  0
 10 15  1  6  0  0  0
 10 17  1  0  0  0  0
 11 13  1  0  0  0  0
 12 15  2  0  0  0  0
 13  9  1  6  0  0  0
 13 16  1  0  0  0  0
 13 10  1  0  0  0  0
 16 11  1  6  0  0  0
 16 20  1  0  0  0  0
 17 14  1  0  0  0  0
 18 12  1  0  0  0  0
 19  9  2  0  0  0  0
 19 12  1  0  0  0  0
 20  8  1  6  0  0  0
 20 14  1  0  0  0  0
 21  1  1  0  0  0  0
 22 24  1  0  0  0  0
 22 21  1  1  0  0  0
 23 28  2  0  0  0  0
 25 22  1  0  0  0  0
 26 23  1  0  0  0  0
 26 25  2  0  0  0  0
 27 23  1  0  0  0  0
 28 24  1  0  0  0  0
M  END
>  <MODEL>
7

>  <REMARK>
 VINA RESULT:      -7.5      3.224      4.324
  Name = 
  4 active torsions:
  status: ('A' for Active; 'I' for Inactive)
    1  A    between atoms: N_1  and  C_2
    2  A    between atoms: C_2  and  C_3
    3  A    between atoms: C_16  and  C_20
    4  A    between atoms: C_20  and  C_25
                            x       y       z     vdW  Elec       q    Type
                         _______ _______ _______ _____ _____    ______ ____

>  <TORSDO>
F 4

$$$$
=
 OpenBabel11052418123D

 28 32  0  0  1  0  0  0  0  0999 V2000
  194.0080  175.2010  144.3470 N   0  0  0  0  0  0  0  0  0  0  0  0
  191.7650  175.9120  144.4260 C   0  0  1  0  0  3  0  0  0  0  0  0
  191.9020  174.7190  143.6010 C   0  0  0  0  0  0  0  0  0  0  0  0
  190.9700  174.1090  143.0160 O   0  0  0  0  0  0  0  0  0  0  0  0
  193.2300  174.2950  143.6110 N   0  0  0  0  0  2  0  0  0  0  0  0
  193.1330  176.1840  144.8920 N   0  0  0  0  0  2  0  0  0  0  0  0
  191.9100  177.5920  142.7630 O   0  0  0  0  0  0  0  0  0  0  0  0
  191.2350  177.0800  143.6430 C   0  0  0  0  0  0  0  0  0  0  0  0
  187.2740  177.1350  146.8210 C   0  0  0  0  0  3  0  0  0  0  0  0
  186.9190  177.2390  144.2310 C   0  0  1  0  0  3  0  0  0  0  0  0
  188.6980  175.8050  145.2900 C   0  0  0  0  0  2  0  0  0  0  0  0
  185.2040  178.0350  145.8670 C   0  0  0  0  0  0  0  0  0  0  0  0
  187.8560  177.0580  145.4450 C   0  0  2  0  0  0  0  0  0  0  0  0
  188.9230  177.4200  142.7740 C   0  0  0  0  0  2  0  0  0  0  0  0
  185.6170  177.8980  144.6030 C   0  0  0  0  0  3  0  0  0  0  0  0
  189.3770  177.1660  145.3310 C   0  0  2  0  0  3  0  0  0  0  0  0
  187.5730  178.0240  143.1050 C   0  0  0  0  0  2  0  0  0  0  0  0
  183.8870  178.6660  146.1370 C   0  0  0  0  0  1  0  0  0  0  0  0
  186.0380  177.5990  147.0020 C   0  0  0  0  0  3  0  0  0  0  0  0
  189.8790  177.6380  143.9470 C   0  0  1  0  0  3  0  0  0  0  0  0
  194.7030  174.4780  145.4260 C   0  0  0  0  0  2  0  0  0  0  0  0
  195.1920  173.0580  145.0880 C   0  0  2  0  0  3  0  0  0  0  0  0
  196.2640  170.6260  146.1350 C   0  0  0  0  0  0  0  0  0  0  0  0
  194.4040  172.0390  145.7160 O   0  0  0  0  0  0  0  0  0  0  0  0
  196.6730  172.8820  145.3040 C   0  0  0  0  0  3  0  0  0  0  0  0
  197.1620  171.7310  145.7660 C   0  0  0  0  0  3  0  0  0  0  0  0
  196.8280  169.3280  146.5860 C   0  0  0  0  0  1  0  0  0  0  0  0
  194.9440  170.8100  146.1200 C   0  0  0  0  0  3  0  0  0  0  0  0
  1  6  1  0  0  0  0
  1 21  1  0  0  0  0
  2  8  1  6  0  0  0
  2  6  1  0  0  0  0
  3  5  1  0  0  0  0
  3  2  1  0  0  0  0
  4  3  2  0  0  0  0
  5  1  1  0  0  0  0
  7  8  2  0  0  0  0
  9 19  2  0  0  0  0
 10 17  1  6  0  0  0
 10 15  1  0  0  0  0
 10 13  1  0  0  0  0
 12 18  1  0  0  0  0
 12 19  1  0  0  0  0
 13 11  1  6  0  0  0
 13  9  1  0  0  0  0
 14 17  1  0  0  0  0
 14 20  1  0  0  0  0
 15 12  2  0  0  0  0
 16 11  1  6  0  0  0
 16 13  1  0  0  0  0
 20  8  1  6  0  0  0
 20 16  1  0  0  0  0
 22 25  1  0  0  0  0
 22 21  1  1  0  0  0
 22 24  1  0  0  0  0
 23 27  1  0  0  0  0
 24 28  1  0  0  0  0
 25 26  2  0  0  0  0
 26 23  1  0  0  0  0
 28 23  2  0  0  0  0
M  END
>  <MODEL>
8

>  <REMARK>
 VINA RESULT:      -7.5      1.771      2.239
  Name = 
  4 active torsions:
  status: ('A' for Active; 'I' for Inactive)
    1  A    between atoms: N_1  and  C_2
    2  A    between atoms: C_2  and  C_3
    3  A    between atoms: C_16  and  C_20
    4  A    between atoms: C_20  and  C_25
                            x       y       z     vdW  Elec       q    Type
                         _______ _______ _______ _____ _____    ______ ____

>  <TORSDO>
F 4

$$$$
=
 OpenBabel11052418123D

 28 32  0  0  1  0  0  0  0  0999 V2000
  194.2230  172.7910  144.2340 N   0  0  0  0  0  0  0  0  0  0  0  0
  192.1110  173.8240  144.3600 C   0  0  1  0  0  3  0  0  0  0  0  0
  193.0070  174.5790  143.4940 C   0  0  0  0  0  0  0  0  0  0  0  0
  192.7210  175.6300  142.8640 O   0  0  0  0  0  0  0  0  0  0  0  0
  194.2320  173.9200  143.4020 N   0  0  0  0  0  2  0  0  0  0  0  0
  192.9220  172.6820  144.8070 N   0  0  0  0  0  2  0  0  0  0  0  0
  192.4530  175.0200  146.3750 O   0  0  0  0  0  0  0  0  0  0  0  0
  191.6500  174.6340  145.5390 C   0  0  0  0  0  0  0  0  0  0  0  0
  187.8570  177.8250  144.4360 C   0  0  0  0  0  3  0  0  0  0  0  0
  188.0600  176.7530  146.8130 C   0  0  1  0  0  3  0  0  0  0  0  0
  190.0720  177.5120  145.5020 C   0  0  0  0  0  2  0  0  0  0  0  0
  185.9100  177.6570  145.9140 C   0  0  0  0  0  0  0  0  0  0  0  0
  188.6450  177.0040  145.4070 C   0  0  2  0  0  0  0  0  0  0  0  0
  189.8260  175.0450  147.1870 C   0  0  0  0  0  2  0  0  0  0  0  0
  186.5780  177.0090  146.8740 C   0  0  0  0  0  3  0  0  0  0  0  0
  189.7940  176.1730  144.8350 C   0  0  2  0  0  3  0  0  0  0  0  0
  188.3460  175.3470  147.3180 C   0  0  0  0  0  2  0  0  0  0  0  0
  184.4530  177.8970  146.0770 C   0  0  0  0  0  1  0  0  0  0  0  0
  186.5800  178.1160  144.6830 C   0  0  0  0  0  3  0  0  0  0  0  0
  190.1990  174.9630  145.7070 C   0  0  1  0  0  3  0  0  0  0  0  0
  194.5300  171.5940  143.4320 C   0  0  0  0  0  2  0  0  0  0  0  0
  195.4400  170.5450  144.0960 C   0  0  2  0  0  3  0  0  0  0  0  0
  196.2660  169.3710  146.5660 C   0  0  0  0  0  0  0  0  0  0  0  0
  194.7000  169.5330  144.7900 O   0  0  0  0  0  0  0  0  0  0  0  0
  196.5310  171.1620  144.9330 C   0  0  0  0  0  3  0  0  0  0  0  0
  196.9270  170.5880  146.0700 C   0  0  0  0  0  3  0  0  0  0  0  0
  196.7600  168.7070  147.7990 C   0  0  0  0  0  1  0  0  0  0  0  0
  195.1870  168.9000  145.9430 C   0  0  0  0  0  3  0  0  0  0  0  0
  1  6  1  0  0  0  0
  2  6  1  0  0  0  0
  2  8  1  1  0  0  0
  3  2  1  0  0  0  0
  4  3  2  0  0  0  0
  5  3  1  0  0  0  0
  5  1  1  0  0  0  0
  8  7  2  0  0  0  0
  9 19  2  0  0  0  0
 10 15  1  6  0  0  0
 10 17  1  0  0  0  0
 12 18  1  0  0  0  0
 12 15  2  0  0  0  0
 13  9  1  6  0  0  0
 13 11  1  0  0  0  0
 13 10  1  0  0  0  0
 14 17  1  0  0  0  0
 16 13  1  0  0  0  0
 16 11  1  1  0  0  0
 16 20  1  0  0  0  0
 19 12  1  0  0  0  0
 20  8  1  1  0  0  0
 20 14  1  0  0  0  0
 21  1  1  0  0  0  0
 22 21  1  1  0  0  0
 22 24  1  0  0  0  0
 22 25  1  0  0  0  0
 23 27  1  0  0  0  0
 24 28  1  0  0  0  0
 25 26  2  0  0  0  0
 26 23  1  0  0  0  0
 28 23  2  0  0  0  0
M  END
>  <MODEL>
9

>  <REMARK>
 VINA RESULT:      -7.5      1.681      2.358
  Name = 
  4 active torsions:
  status: ('A' for Active; 'I' for Inactive)
    1  A    between atoms: N_1  and  C_2
    2  A    between atoms: C_2  and  C_3
    3  A    between atoms: C_16  and  C_20
    4  A    between atoms: C_20  and  C_25
                            x       y       z     vdW  Elec       q    Type
                         _______ _______ _______ _____ _____    ______ ____

>  <TORSDO>
F 4

$$$$
