=
 OpenBabel11052417533D

 31 34  0  0  1  0  0  0  0  0999 V2000
  184.9470  178.2090  146.5110 C   0  0  0  0  0  0  0  0  0  0  0  0
  187.7580  177.2500  144.2820 C   0  0  0  0  0  0  0  0  0  0  0  0
  187.0470  177.1670  142.9520 C   0  0  1  0  0  3  0  0  0  0  0  0
  185.5890  178.5350  141.4600 C   0  0  0  0  0  3  0  0  0  0  0  0
  187.0390  177.5490  145.4470 C   0  0  0  0  0  0  0  0  0  0  0  0
  185.6940  178.7270  147.7020 C   0  0  0  0  0  2  0  0  0  0  0  0
  186.7070  178.5710  142.4590 C   0  0  0  0  0  2  0  0  0  0  0  0
  189.8080  177.2620  145.5850 C   0  0  0  0  0  0  0  0  0  0  0  0
  183.6910  178.2780  146.4770 O   0  0  0  0  0  0  0  0  0  0  0  0
  189.2830  176.4330  142.0130 C   0  0  0  0  0  3  0  0  0  0  0  0
  185.6750  177.9160  140.2740 C   0  0  0  0  0  3  0  0  0  0  0  0
  189.0780  177.5410  146.7000 N   0  0  0  0  0  0  0  0  0  0  0  0
  189.1570  177.1030  144.3510 C   0  0  0  0  0  0  0  0  0  0  0  0
  185.6490  177.7140  145.4080 O   0  0  0  0  0  0  0  0  0  0  0  0
  186.9020  177.1880  139.8060 C   0  0  0  0  0  2  0  0  0  0  0  0
  187.7290  177.6940  146.6610 C   0  0  0  0  0  0  0  0  0  0  0  0
  186.9650  177.9100  147.9340 C   0  0  0  0  0  2  0  0  0  0  0  0
  189.9150  176.7400  143.1420 C   0  0  0  0  0  3  0  0  0  0  0  0
  187.8520  176.4640  141.9410 N   0  0  0  0  0  0  0  0  0  0  0  0
  187.2170  176.0050  140.7140 C   0  0  0  0  0  2  0  0  0  0  0  0
  194.0740  177.1610  145.7760 C   0  0  0  0  0  1  0  0  0  0  0  0
  193.6170  173.5340  145.8500 O   0  0  0  0  0  0  0  0  0  0  0  0
  191.3240  174.7750  145.5640 O   0  0  0  0  0  0  0  0  0  0  0  0
  191.9520  175.8650  145.6530 C   0  0  0  0  0  0  0  0  0  0  0  0
  194.1750  174.6630  145.7860 C   0  0  0  0  0  0  0  0  0  0  0  0
  193.3900  175.8730  145.7360 N   0  0  0  0  0  0  0  0  0  0  0  0
  191.2330  177.1080  145.6660 N   0  0  0  0  0  2  0  0  0  0  0  0
  195.6690  174.7130  145.7430 C   0  0  0  0  0  2  0  0  0  0  0  0
  196.1480  174.6460  144.3340 C   0  0  0  0  0  0  0  0  0  0  0  0
  196.6250  175.6700  143.7820 O   0  0  0  0  0  1  0  0  0  0  0  0
  196.0990  173.4430  143.6400 O   0  0  0  0  0  0  0  0  0  0  0  0
  1  6  1  0  0  0  0
  2 13  2  0  0  0  0
  2  5  1  0  0  0  0
  3  7  1  6  0  0  0
  3  2  1  0  0  0  0
  4  7  1  0  0  0  0
  5 16  2  0  0  0  0
  6 17  1  0  0  0  0
  8 27  1  0  0  0  0
  8 12  2  0  0  0  0
  9  1  2  0  0  0  0
 10 18  2  0  0  0  0
 11  4  2  0  0  0  0
 13  8  1  0  0  0  0
 14  5  1  0  0  0  0
 14  1  1  0  0  0  0
 15 11  1  0  0  0  0
 15 20  1  0  0  0  0
 16 12  1  0  0  0  0
 16 17  1  0  0  0  0
 18 13  1  0  0  0  0
 19 10  1  0  0  0  0
 19  3  1  0  0  0  0
 20 19  1  0  0  0  0
 23 24  2  0  0  0  0
 24 27  1  0  0  0  0
 24 26  1  0  0  0  0
 25 22  2  0  0  0  0
 26 21  1  0  0  0  0
 26 25  1  0  0  0  0
 28 25  1  0  0  0  0
 29 28  1  0  0  0  0
 30 29  1  0  0  0  0
 31 29  2  0  0  0  0
M  END
>  <MODEL>
1

>  <REMARK>
 VINA RESULT:      -7.9      0.000      0.000
  Name = 
  3 active torsions:
  status: ('A' for Active; 'I' for Inactive)
    1  A    between atoms: C_1  and  C_24
    2  A    between atoms: C_15  and  N_23
    3  A    between atoms: C_19  and  C_24
                            x       y       z     vdW  Elec       q    Type
                         _______ _______ _______ _____ _____    ______ ____

>  <TORSDO>
F 3

$$$$
=
 OpenBabel11052417533D

 31 34  0  0  1  0  0  0  0  0999 V2000
  185.4220  178.2400  141.1930 C   0  0  0  0  0  0  0  0  0  0  0  0
  187.5250  177.2480  144.0880 C   0  0  0  0  0  0  0  0  0  0  0  0
  186.7150  177.8120  145.2310 C   0  0  1  0  0  3  0  0  0  0  0  0
  184.4040  177.7470  146.1680 C   0  0  0  0  0  3  0  0  0  0  0  0
  187.1050  177.4410  142.7650 C   0  0  0  0  0  0  0  0  0  0  0  0
  185.9510  177.3250  140.1310 C   0  0  0  0  0  2  0  0  0  0  0  0
  185.4600  176.9690  145.4390 C   0  0  0  0  0  2  0  0  0  0  0  0
  189.3600  175.8800  143.2700 C   0  0  0  0  0  0  0  0  0  0  0  0
  184.4460  178.9940  140.9450 O   0  0  0  0  0  0  0  0  0  0  0  0
  188.5820  176.9720  146.7240 C   0  0  0  0  0  3  0  0  0  0  0  0
  184.5530  178.2060  147.4190 C   0  0  0  0  0  3  0  0  0  0  0  0
  188.9310  176.0980  141.9960 N   0  0  0  0  0  0  0  0  0  0  0  0
  188.6660  176.4610  144.3440 C   0  0  0  0  0  0  0  0  0  0  0  0
  185.9680  178.2060  142.4790 O   0  0  0  0  0  0  0  0  0  0  0  0
  185.7930  177.9930  148.2380 C   0  0  0  0  0  2  0  0  0  0  0  0
  187.8310  176.8470  141.7210 C   0  0  0  0  0  0  0  0  0  0  0  0
  187.4590  177.1280  140.2950 C   0  0  0  0  0  2  0  0  0  0  0  0
  189.1430  176.2940  145.7270 C   0  0  0  0  0  3  0  0  0  0  0  0
  187.4900  177.8680  146.4800 N   0  0  0  0  0  0  0  0  0  0  0  0
  186.9980  178.6680  147.5930 C   0  0  0  0  0  2  0  0  0  0  0  0
  192.6100  173.2560  144.1580 C   0  0  0  0  0  1  0  0  0  0  0  0
  194.6900  176.0670  143.0920 O   0  0  0  0  0  0  0  0  0  0  0  0
  192.1460  176.7070  143.0740 O   0  0  0  0  0  0  0  0  0  0  0  0
  191.8890  175.5200  143.4160 C   0  0  0  0  0  0  0  0  0  0  0  0
  194.3510  174.9500  143.5680 C   0  0  0  0  0  0  0  0  0  0  0  0
  192.9580  174.5980  143.7080 N   0  0  0  0  0  0  0  0  0  0  0  0
  190.5260  175.0830  143.5220 N   0  0  0  0  0  2  0  0  0  0  0  0
  195.4290  174.0090  144.0030 C   0  0  0  0  0  2  0  0  0  0  0  0
  196.0110  174.4540  145.3000 C   0  0  0  0  0  0  0  0  0  0  0  0
  197.1970  174.1550  145.5940 O   0  0  0  0  0  0  0  0  0  0  0  0
  195.2550  175.2300  146.1710 O   0  0  0  0  0  1  0  0  0  0  0  0
  1 14  1  0  0  0  0
  2 13  2  0  0  0  0
  2  3  1  0  0  0  0
  3  7  1  1  0  0  0
  3 19  1  0  0  0  0
  4 11  2  0  0  0  0
  5  2  1  0  0  0  0
  6 17  1  0  0  0  0
  6  1  1  0  0  0  0
  7  4  1  0  0  0  0
  8 27  1  0  0  0  0
  8 13  1  0  0  0  0
  9  1  2  0  0  0  0
 11 15  1  0  0  0  0
 12  8  2  0  0  0  0
 13 18  1  0  0  0  0
 14  5  1  0  0  0  0
 16 12  1  0  0  0  0
 16  5  2  0  0  0  0
 17 16  1  0  0  0  0
 18 10  2  0  0  0  0
 19 10  1  0  0  0  0
 19 20  1  0  0  0  0
 20 15  1  0  0  0  0
 22 25  2  0  0  0  0
 23 24  2  0  0  0  0
 24 27  1  0  0  0  0
 24 26  1  0  0  0  0
 25 26  1  0  0  0  0
 25 28  1  0  0  0  0
 26 21  1  0  0  0  0
 28 29  1  0  0  0  0
 29 30  2  0  0  0  0
 29 31  1  0  0  0  0
M  END
>  <MODEL>
2

>  <REMARK>
 VINA RESULT:      -7.8      1.873      4.473
  Name = 
  3 active torsions:
  status: ('A' for Active; 'I' for Inactive)
    1  A    between atoms: C_1  and  C_24
    2  A    between atoms: C_15  and  N_23
    3  A    between atoms: C_19  and  C_24
                            x       y       z     vdW  Elec       q    Type
                         _______ _______ _______ _____ _____    ______ ____

>  <TORSDO>
F 3

$$$$
=
 OpenBabel11052417533D

 31 34  0  0  1  0  0  0  0  0999 V2000
  185.0980  177.7020  146.3680 C   0  0  0  0  0  0  0  0  0  0  0  0
  187.6240  176.2470  144.0680 C   0  0  0  0  0  0  0  0  0  0  0  0
  187.0110  176.5800  142.7290 C   0  0  1  0  0  3  0  0  0  0  0  0
  186.1410  178.5330  141.4430 C   0  0  0  0  0  3  0  0  0  0  0  0
  186.9550  176.5840  145.2520 C   0  0  0  0  0  0  0  0  0  0  0  0
  185.8860  177.7860  147.6390 C   0  0  0  0  0  2  0  0  0  0  0  0
  187.1480  178.0750  142.4560 C   0  0  0  0  0  2  0  0  0  0  0  0
  189.4910  175.4340  145.3950 C   0  0  0  0  0  0  0  0  0  0  0  0
  183.9280  178.1610  146.3220 O   0  0  0  0  0  0  0  0  0  0  0  0
  188.9750  175.3300  141.7270 C   0  0  0  0  0  3  0  0  0  0  0  0
  186.1130  178.0940  140.1770 C   0  0  0  0  0  3  0  0  0  0  0  0
  188.8070  175.7630  146.5260 N   0  0  0  0  0  0  0  0  0  0  0  0
  188.9040  175.6630  144.1390 C   0  0  0  0  0  0  0  0  0  0  0  0
  185.6870  177.1770  145.2140 O   0  0  0  0  0  0  0  0  0  0  0  0
  187.0880  177.0960  139.6230 C   0  0  0  0  0  2  0  0  0  0  0  0
  187.5750  176.3320  146.4870 C   0  0  0  0  0  0  0  0  0  0  0  0
  186.8310  176.5900  147.7640 C   0  0  0  0  0  2  0  0  0  0  0  0
  189.5940  175.2600  142.9020 C   0  0  0  0  0  3  0  0  0  0  0  0
  187.6290  175.8150  141.6350 N   0  0  0  0  0  0  0  0  0  0  0  0
  186.9670  175.7570  140.3400 C   0  0  0  0  0  2  0  0  0  0  0  0
  193.1970  173.3320  145.6820 C   0  0  0  0  0  1  0  0  0  0  0  0
  194.6740  176.6770  145.6450 O   0  0  0  0  0  0  0  0  0  0  0  0
  192.0540  176.7950  145.6450 O   0  0  0  0  0  0  0  0  0  0  0  0
  192.0400  175.5350  145.6000 C   0  0  0  0  0  0  0  0  0  0  0  0
  194.5640  175.4240  145.7430 C   0  0  0  0  0  0  0  0  0  0  0  0
  193.2700  174.7880  145.6770 N   0  0  0  0  0  0  0  0  0  0  0  0
  190.7920  174.8350  145.4770 N   0  0  0  0  0  2  0  0  0  0  0  0
  195.8070  174.6190  145.9510 C   0  0  0  0  0  2  0  0  0  0  0  0
  196.6080  174.5720  144.6950 C   0  0  0  0  0  0  0  0  0  0  0  0
  197.8590  174.4610  144.7510 O   0  0  0  0  0  1  0  0  0  0  0  0
  195.9700  174.6160  143.4620 O   0  0  0  0  0  0  0  0  0  0  0  0
  1  6  1  0  0  0  0
  2 13  2  0  0  0  0
  2  5  1  0  0  0  0
  3  7  1  6  0  0  0
  3  2  1  0  0  0  0
  4  7  1  0  0  0  0
  5 16  2  0  0  0  0
  6 17  1  0  0  0  0
  8 27  1  0  0  0  0
  8 12  2  0  0  0  0
  9  1  2  0  0  0  0
 10 18  2  0  0  0  0
 11  4  2  0  0  0  0
 13  8  1  0  0  0  0
 14  5  1  0  0  0  0
 14  1  1  0  0  0  0
 15 11  1  0  0  0  0
 15 20  1  0  0  0  0
 16 12  1  0  0  0  0
 16 17  1  0  0  0  0
 18 13  1  0  0  0  0
 19 10  1  0  0  0  0
 19  3  1  0  0  0  0
 20 19  1  0  0  0  0
 22 25  2  0  0  0  0
 24 23  2  0  0  0  0
 24 26  1  0  0  0  0
 25 28  1  0  0  0  0
 26 21  1  0  0  0  0
 26 25  1  0  0  0  0
 27 24  1  0  0  0  0
 29 30  1  0  0  0  0
 29 28  1  0  0  0  0
 31 29  2  0  0  0  0
M  END
>  <MODEL>
3

>  <REMARK>
 VINA RESULT:      -7.3      1.291      1.466
  Name = 
  3 active torsions:
  status: ('A' for Active; 'I' for Inactive)
    1  A    between atoms: C_1  and  C_24
    2  A    between atoms: C_15  and  N_23
    3  A    between atoms: C_19  and  C_24
                            x       y       z     vdW  Elec       q    Type
                         _______ _______ _______ _____ _____    ______ ____

>  <TORSDO>
F 3

$$$$
=
 OpenBabel11052417533D

 31 34  0  0  1  0  0  0  0  0999 V2000
  186.1790  177.6560  146.8270 C   0  0  0  0  0  0  0  0  0  0  0  0
  188.8090  176.2760  144.5980 C   0  0  0  0  0  0  0  0  0  0  0  0
  189.9830  176.2240  145.5460 C   0  0  1  0  0  3  0  0  0  0  0  0
  190.6110  175.3160  147.7830 C   0  0  0  0  0  3  0  0  0  0  0  0
  187.5800  176.7950  145.0270 C   0  0  0  0  0  0  0  0  0  0  0  0
  184.9420  177.2960  146.0640 C   0  0  0  0  0  2  0  0  0  0  0  0
  189.7840  175.0930  146.5510 C   0  0  0  0  0  2  0  0  0  0  0  0
  187.7900  175.7250  142.4620 C   0  0  0  0  0  0  0  0  0  0  0  0
  186.0850  178.2010  147.9570 O   0  0  0  0  0  0  0  0  0  0  0  0
  191.3140  175.3940  143.5560 C   0  0  0  0  0  3  0  0  0  0  0  0
  191.9510  175.3550  147.7790 C   0  0  0  0  0  3  0  0  0  0  0  0
  186.6140  176.2480  142.9070 N   0  0  0  0  0  0  0  0  0  0  0  0
  188.9170  175.7380  143.3000 C   0  0  0  0  0  0  0  0  0  0  0  0
  187.4370  177.3250  146.3150 O   0  0  0  0  0  0  0  0  0  0  0  0
  192.7820  175.1760  146.5410 C   0  0  0  0  0  2  0  0  0  0  0  0
  186.4800  176.7670  144.1540 C   0  0  0  0  0  0  0  0  0  0  0  0
  185.1870  177.4120  144.5590 C   0  0  0  0  0  2  0  0  0  0  0  0
  190.2160  175.2360  142.8230 C   0  0  0  0  0  3  0  0  0  0  0  0
  191.2570  176.0410  144.8340 N   0  0  0  0  0  0  0  0  0  0  0  0
  192.5090  176.2870  145.5340 C   0  0  0  0  0  2  0  0  0  0  0  0
  188.2960  173.8460  138.6600 C   0  0  0  0  0  1  0  0  0  0  0  0
  186.6180  176.8300  137.3740 O   0  0  0  0  0  0  0  0  0  0  0  0
  187.0120  177.0010  139.9620 O   0  0  0  0  0  0  0  0  0  0  0  0
  187.5000  175.8390  139.9210 C   0  0  0  0  0  0  0  0  0  0  0  0
  187.2460  175.7370  137.4050 C   0  0  0  0  0  0  0  0  0  0  0  0
  187.6720  175.1640  138.6600 N   0  0  0  0  0  0  0  0  0  0  0  0
  187.8930  175.1830  141.1370 N   0  0  0  0  0  2  0  0  0  0  0  0
  187.5580  175.0620  136.1070 C   0  0  0  0  0  2  0  0  0  0  0  0
  188.7810  175.6550  135.4970 C   0  0  0  0  0  0  0  0  0  0  0  0
  189.8650  175.0180  135.5150 O   0  0  0  0  0  1  0  0  0  0  0  0
  188.7170  176.8970  134.8790 O   0  0  0  0  0  0  0  0  0  0  0  0
  1  9  2  0  0  0  0
  2  5  1  0  0  0  0
  2  3  1  0  0  0  0
  3  7  1  1  0  0  0
  5 14  1  0  0  0  0
  6  1  1  0  0  0  0
  7  4  1  0  0  0  0
  8 12  2  0  0  0  0
  8 13  1  0  0  0  0
 10 19  1  0  0  0  0
 11  4  2  0  0  0  0
 12 16  1  0  0  0  0
 13  2  2  0  0  0  0
 14  1  1  0  0  0  0
 15 11  1  0  0  0  0
 16 17  1  0  0  0  0
 16  5  2  0  0  0  0
 17  6  1  0  0  0  0
 18 13  1  0  0  0  0
 18 10  2  0  0  0  0
 19 20  1  0  0  0  0
 19  3  1  0  0  0  0
 20 15  1  0  0  0  0
 22 25  2  0  0  0  0
 24 23  2  0  0  0  0
 24 27  1  0  0  0  0
 25 26  1  0  0  0  0
 26 21  1  0  0  0  0
 26 24  1  0  0  0  0
 27  8  1  0  0  0  0
 28 25  1  0  0  0  0
 29 30  1  0  0  0  0
 29 28  1  0  0  0  0
 31 29  2  0  0  0  0
M  END
>  <MODEL>
4

>  <REMARK>
 VINA RESULT:      -7.3      3.840      7.201
  Name = 
  3 active torsions:
  status: ('A' for Active; 'I' for Inactive)
    1  A    between atoms: C_1  and  C_24
    2  A    between atoms: C_15  and  N_23
    3  A    between atoms: C_19  and  C_24
                            x       y       z     vdW  Elec       q    Type
                         _______ _______ _______ _____ _____    ______ ____

>  <TORSDO>
F 3

$$$$
=
 OpenBabel11052417533D

 31 34  0  0  1  0  0  0  0  0999 V2000
  191.9770  171.0890  141.8850 C   0  0  0  0  0  0  0  0  0  0  0  0
  192.1330  174.4030  143.5520 C   0  0  0  0  0  0  0  0  0  0  0  0
  193.6160  174.6830  143.4840 C   0  0  1  0  0  3  0  0  0  0  0  0
  195.4780  174.8000  141.8270 C   0  0  0  0  0  3  0  0  0  0  0  0
  191.6220  173.1940  143.0620 C   0  0  0  0  0  0  0  0  0  0  0  0
  190.5210  171.0100  141.5450 C   0  0  0  0  0  2  0  0  0  0  0  0
  194.0110  175.0240  142.0490 C   0  0  0  0  0  2  0  0  0  0  0  0
  189.8630  175.1330  144.0210 C   0  0  0  0  0  0  0  0  0  0  0  0
  192.7610  170.1790  141.5100 O   0  0  0  0  0  0  0  0  0  0  0  0
  193.0850  176.8040  144.7650 C   0  0  0  0  0  3  0  0  0  0  0  0
  196.4360  175.4810  142.4720 C   0  0  0  0  0  3  0  0  0  0  0  0
  189.4010  173.9420  143.5490 N   0  0  0  0  0  0  0  0  0  0  0  0
  191.2450  175.3820  144.0390 C   0  0  0  0  0  0  0  0  0  0  0  0
  192.4780  172.2060  142.5590 O   0  0  0  0  0  0  0  0  0  0  0  0
  196.1540  176.5480  143.4890 C   0  0  0  0  0  2  0  0  0  0  0  0
  190.2340  172.9820  143.0680 C   0  0  0  0  0  0  0  0  0  0  0  0
  189.6770  171.6550  142.6450 C   0  0  0  0  0  2  0  0  0  0  0  0
  191.7760  176.6360  144.6010 C   0  0  0  0  0  3  0  0  0  0  0  0
  194.0110  175.7780  144.3830 N   0  0  0  0  0  0  0  0  0  0  0  0
  195.4190  175.9750  144.6950 C   0  0  0  0  0  2  0  0  0  0  0  0
  187.1990  177.9340  145.8360 C   0  0  0  0  0  1  0  0  0  0  0  0
  186.5410  178.9790  142.3940 O   0  0  0  0  0  0  0  0  0  0  0  0
  188.1730  176.9270  142.4690 O   0  0  0  0  0  0  0  0  0  0  0  0
  188.1310  176.9930  143.7280 C   0  0  0  0  0  0  0  0  0  0  0  0
  186.4470  178.8820  143.6480 C   0  0  0  0  0  0  0  0  0  0  0  0
  187.2570  177.9370  144.3790 N   0  0  0  0  0  0  0  0  0  0  0  0
  188.9520  176.1220  144.5210 N   0  0  0  0  0  2  0  0  0  0  0  0
  185.4590  179.7560  144.3540 C   0  0  0  0  0  2  0  0  0  0  0  0
  184.1540  179.0510  144.4930 C   0  0  0  0  0  0  0  0  0  0  0  0
  183.4870  178.7540  143.4690 O   0  0  0  0  0  0  0  0  0  0  0  0
  183.6890  178.6920  145.7520 O   0  0  0  0  0  1  0  0  0  0  0  0
  1 14  1  0  0  0  0
  2 13  2  0  0  0  0
  3  7  1  6  0  0  0
  3  2  1  0  0  0  0
  3 19  1  0  0  0  0
  4  7  1  0  0  0  0
  4 11  2  0  0  0  0
  5 16  2  0  0  0  0
  5  2  1  0  0  0  0
  6  1  1  0  0  0  0
  6 17  1  0  0  0  0
  8 13  1  0  0  0  0
  8 27  1  0  0  0  0
  9  1  2  0  0  0  0
 11 15  1  0  0  0  0
 12  8  2  0  0  0  0
 13 18  1  0  0  0  0
 14  5  1  0  0  0  0
 15 20  1  0  0  0  0
 16 12  1  0  0  0  0
 17 16  1  0  0  0  0
 18 10  2  0  0  0  0
 19 20  1  0  0  0  0
 19 10  1  0  0  0  0
 22 25  2  0  0  0  0
 23 24  2  0  0  0  0
 24 26  1  0  0  0  0
 24 27  1  0  0  0  0
 25 28  1  0  0  0  0
 25 26  1  0  0  0  0
 26 21  1  0  0  0  0
 28 29  1  0  0  0  0
 29 31  1  0  0  0  0
 30 29  2  0  0  0  0
M  END
>  <MODEL>
5

>  <REMARK>
 VINA RESULT:      -7.3      3.039      8.642
  Name = 
  3 active torsions:
  status: ('A' for Active; 'I' for Inactive)
    1  A    between atoms: C_1  and  C_24
    2  A    between atoms: C_15  and  N_23
    3  A    between atoms: C_19  and  C_24
                            x       y       z     vdW  Elec       q    Type
                         _______ _______ _______ _____ _____    ______ ____

>  <TORSDO>
F 3

$$$$
=
 OpenBabel11052417533D

 31 34  0  0  1  0  0  0  0  0999 V2000
  186.8780  177.4380  146.3760 C   0  0  0  0  0  0  0  0  0  0  0  0
  189.6420  176.3390  144.1540 C   0  0  0  0  0  0  0  0  0  0  0  0
  190.8350  176.5720  145.0510 C   0  0  1  0  0  3  0  0  0  0  0  0
  191.6760  175.9850  147.3250 C   0  0  0  0  0  3  0  0  0  0  0  0
  188.3540  176.6750  144.5930 C   0  0  0  0  0  0  0  0  0  0  0  0
  185.7010  176.8050  145.6990 C   0  0  0  0  0  2  0  0  0  0  0  0
  190.8650  175.5160  146.1520 C   0  0  0  0  0  2  0  0  0  0  0  0
  188.6750  175.4360  142.1150 C   0  0  0  0  0  0  0  0  0  0  0  0
  186.7220  178.0550  147.4610 O   0  0  0  0  0  0  0  0  0  0  0  0
  192.2330  175.8120  143.0790 C   0  0  0  0  0  3  0  0  0  0  0  0
  192.9870  176.2520  147.2590 C   0  0  0  0  0  3  0  0  0  0  0  0
  187.4390  175.7870  142.5670 N   0  0  0  0  0  0  0  0  0  0  0  0
  189.8050  175.7150  142.9010 C   0  0  0  0  0  0  0  0  0  0  0  0
  188.1590  177.2830  145.8380 O   0  0  0  0  0  0  0  0  0  0  0  0
  193.8010  176.1110  146.0050 C   0  0  0  0  0  2  0  0  0  0  0  0
  187.2520  176.3830  143.7740 C   0  0  0  0  0  0  0  0  0  0  0  0
  185.8790  176.8290  144.1800 C   0  0  0  0  0  2  0  0  0  0  0  0
  191.1580  175.4040  142.4090 C   0  0  0  0  0  3  0  0  0  0  0  0
  192.1000  176.5480  144.3010 N   0  0  0  0  0  0  0  0  0  0  0  0
  193.3100  177.0660  144.9240 C   0  0  0  0  0  2  0  0  0  0  0  0
  188.9980  173.8590  138.1600 C   0  0  0  0  0  1  0  0  0  0  0  0
  190.0550  170.8000  139.8610 O   0  0  0  0  0  0  0  0  0  0  0  0
  189.3780  172.6600  141.5820 O   0  0  0  0  0  0  0  0  0  0  0  0
  189.1800  173.4320  140.6060 C   0  0  0  0  0  0  0  0  0  0  0  0
  189.6970  171.5910  138.9470 C   0  0  0  0  0  0  0  0  0  0  0  0
  189.2950  172.9430  139.2550 N   0  0  0  0  0  0  0  0  0  0  0  0
  188.8320  174.8060  140.8360 N   0  0  0  0  0  2  0  0  0  0  0  0
  189.6810  171.0860  137.5390 C   0  0  0  0  0  2  0  0  0  0  0  0
  191.0730  170.8680  137.0540 C   0  0  0  0  0  0  0  0  0  0  0  0
  191.8900  171.8240  137.0350 O   0  0  0  0  0  1  0  0  0  0  0  0
  191.4790  169.6010  136.6550 O   0  0  0  0  0  0  0  0  0  0  0  0
  1  9  2  0  0  0  0
  2  5  1  0  0  0  0
  2  3  1  0  0  0  0
  3  7  1  1  0  0  0
  5 14  1  0  0  0  0
  6  1  1  0  0  0  0
  7  4  1  0  0  0  0
  8 12  2  0  0  0  0
  8 13  1  0  0  0  0
 10 19  1  0  0  0  0
 11  4  2  0  0  0  0
 12 16  1  0  0  0  0
 13  2  2  0  0  0  0
 14  1  1  0  0  0  0
 15 11  1  0  0  0  0
 16 17  1  0  0  0  0
 16  5  2  0  0  0  0
 17  6  1  0  0  0  0
 18 13  1  0  0  0  0
 18 10  2  0  0  0  0
 19 20  1  0  0  0  0
 19  3  1  0  0  0  0
 20 15  1  0  0  0  0
 21 26  1  0  0  0  0
 24 27  1  0  0  0  0
 24 23  2  0  0  0  0
 25 26  1  0  0  0  0
 25 22  2  0  0  0  0
 26 24  1  0  0  0  0
 27  8  1  0  0  0  0
 28 25  1  0  0  0  0
 29 28  1  0  0  0  0
 30 29  1  0  0  0  0
 31 29  2  0  0  0  0
M  END
>  <MODEL>
6

>  <REMARK>
 VINA RESULT:      -7.2      3.804      6.474
  Name = 
  3 active torsions:
  status: ('A' for Active; 'I' for Inactive)
    1  A    between atoms: C_1  and  C_24
    2  A    between atoms: C_15  and  N_23
    3  A    between atoms: C_19  and  C_24
                            x       y       z     vdW  Elec       q    Type
                         _______ _______ _______ _____ _____    ______ ____

>  <TORSDO>
F 3

$$$$
=
 OpenBabel11052417533D

 31 34  0  0  1  0  0  0  0  0999 V2000
  195.1660  174.4950  145.3250 C   0  0  0  0  0  0  0  0  0  0  0  0
  192.0620  174.1370  143.3210 C   0  0  0  0  0  0  0  0  0  0  0  0
  192.1910  172.7070  142.8540 C   0  0  1  0  0  3  0  0  0  0  0  0
  192.5390  170.4100  143.7640 C   0  0  0  0  0  3  0  0  0  0  0  0
  193.0750  174.7200  144.0940 C   0  0  0  0  0  0  0  0  0  0  0  0
  194.8390  175.7080  146.1420 C   0  0  0  0  0  2  0  0  0  0  0  0
  191.9330  171.7580  144.0220 C   0  0  0  0  0  2  0  0  0  0  0  0
  190.7580  176.1740  143.5560 C   0  0  0  0  0  0  0  0  0  0  0  0
  196.2440  173.8770  145.5220 O   0  0  0  0  0  0  0  0  0  0  0  0
  190.0390  173.1230  141.5820 C   0  0  0  0  0  3  0  0  0  0  0  0
  192.1600  169.6080  142.7590 C   0  0  0  0  0  3  0  0  0  0  0  0
  191.7670  176.7140  144.2940 N   0  0  0  0  0  0  0  0  0  0  0  0
  190.8920  174.8720  143.0460 C   0  0  0  0  0  0  0  0  0  0  0  0
  194.2440  174.0100  144.3940 O   0  0  0  0  0  0  0  0  0  0  0  0
  191.0820  169.9630  141.7760 C   0  0  0  0  0  2  0  0  0  0  0  0
  192.9030  176.0260  144.5790 C   0  0  0  0  0  0  0  0  0  0  0  0
  194.0190  176.7020  145.3190 C   0  0  0  0  0  2  0  0  0  0  0  0
  189.8440  174.2870  142.1930 C   0  0  0  0  0  3  0  0  0  0  0  0
  191.2670  172.4020  141.7510 N   0  0  0  0  0  0  0  0  0  0  0  0
  191.4660  171.1940  140.9640 C   0  0  0  0  0  2  0  0  0  0  0  0
  187.3470  178.4610  142.3850 C   0  0  0  0  0  1  0  0  0  0  0  0
  186.5300  178.3850  145.9480 O   0  0  0  0  0  0  0  0  0  0  0  0
  188.8350  177.2250  145.4760 O   0  0  0  0  0  0  0  0  0  0  0  0
  188.6430  177.4380  144.2480 C   0  0  0  0  0  0  0  0  0  0  0  0
  186.4890  178.6800  144.7230 C   0  0  0  0  0  0  0  0  0  0  0  0
  187.4950  178.1910  143.8100 N   0  0  0  0  0  0  0  0  0  0  0  0
  189.5720  176.9320  143.2770 N   0  0  0  0  0  2  0  0  0  0  0  0
  185.3820  179.5650  144.2450 C   0  0  0  0  0  2  0  0  0  0  0  0
  184.0940  178.8150  144.2220 C   0  0  0  0  0  0  0  0  0  0  0  0
  183.6900  178.2910  143.1520 O   0  0  0  0  0  0  0  0  0  0  0  0
  183.3570  178.6650  145.3890 O   0  0  0  0  0  1  0  0  0  0  0  0
  1  9  2  0  0  0  0
  1  6  1  0  0  0  0
  2  5  1  0  0  0  0
  3  2  1  0  0  0  0
  3  7  1  1  0  0  0
  4  7  1  0  0  0  0
  5 14  1  0  0  0  0
  5 16  2  0  0  0  0
  8 12  2  0  0  0  0
 10 19  1  0  0  0  0
 10 18  2  0  0  0  0
 11  4  2  0  0  0  0
 12 16  1  0  0  0  0
 13  2  2  0  0  0  0
 13  8  1  0  0  0  0
 14  1  1  0  0  0  0
 15 11  1  0  0  0  0
 16 17  1  0  0  0  0
 17  6  1  0  0  0  0
 18 13  1  0  0  0  0
 19  3  1  0  0  0  0
 20 19  1  0  0  0  0
 20 15  1  0  0  0  0
 21 26  1  0  0  0  0
 24 23  2  0  0  0  0
 25 22  2  0  0  0  0
 26 24  1  0  0  0  0
 26 25  1  0  0  0  0
 27  8  1  0  0  0  0
 27 24  1  0  0  0  0
 28 25  1  0  0  0  0
 29 28  1  0  0  0  0
 29 31  1  0  0  0  0
 30 29  2  0  0  0  0
M  END
>  <MODEL>
7

>  <REMARK>
 VINA RESULT:      -7.1      3.116      8.327
  Name = 
  3 active torsions:
  status: ('A' for Active; 'I' for Inactive)
    1  A    between atoms: C_1  and  C_24
    2  A    between atoms: C_15  and  N_23
    3  A    between atoms: C_19  and  C_24
                            x       y       z     vdW  Elec       q    Type
                         _______ _______ _______ _____ _____    ______ ____

>  <TORSDO>
F 3

$$$$
=
 OpenBabel11052417533D

 31 34  0  0  1  0  0  0  0  0999 V2000
  192.2830  171.5710  140.7640 C   0  0  0  0  0  0  0  0  0  0  0  0
  192.6380  174.4660  143.0620 C   0  0  0  0  0  0  0  0  0  0  0  0
  194.0890  174.8220  142.8450 C   0  0  1  0  0  3  0  0  0  0  0  0
  195.6820  175.3690  141.0040 C   0  0  0  0  0  3  0  0  0  0  0  0
  192.0770  173.3640  142.4020 C   0  0  0  0  0  0  0  0  0  0  0  0
  190.7930  171.5000  140.6250 C   0  0  0  0  0  2  0  0  0  0  0  0
  194.2610  175.4730  141.4750 C   0  0  0  0  0  2  0  0  0  0  0  0
  190.4520  174.9770  143.9940 C   0  0  0  0  0  0  0  0  0  0  0  0
  193.0150  170.7970  140.0940 O   0  0  0  0  0  0  0  0  0  0  0  0
  193.7240  176.6010  144.6120 C   0  0  0  0  0  3  0  0  0  0  0  0
  196.7150  175.9420  141.6370 C   0  0  0  0  0  3  0  0  0  0  0  0
  189.9420  173.8910  143.3480 N   0  0  0  0  0  0  0  0  0  0  0  0
  191.8180  175.2800  143.8680 C   0  0  0  0  0  0  0  0  0  0  0  0
  192.8620  172.5440  141.5830 O   0  0  0  0  0  0  0  0  0  0  0  0
  196.5720  176.7590  142.8880 C   0  0  0  0  0  2  0  0  0  0  0  0
  190.7080  173.0930  142.5600 C   0  0  0  0  0  0  0  0  0  0  0  0
  190.1140  171.8600  141.9460 C   0  0  0  0  0  2  0  0  0  0  0  0
  192.4080  176.4110  144.6040 C   0  0  0  0  0  3  0  0  0  0  0  0
  194.5970  175.7220  143.8920 N   0  0  0  0  0  0  0  0  0  0  0  0
  196.0330  175.9130  144.0350 C   0  0  0  0  0  2  0  0  0  0  0  0
  188.0860  177.2440  146.7320 C   0  0  0  0  0  1  0  0  0  0  0  0
  186.5390  178.5940  143.7070 O   0  0  0  0  0  0  0  0  0  0  0  0
  188.3000  176.7390  143.1270 O   0  0  0  0  0  0  0  0  0  0  0  0
  188.5560  176.6570  144.3590 C   0  0  0  0  0  0  0  0  0  0  0  0
  186.7570  178.3450  144.9240 C   0  0  0  0  0  0  0  0  0  0  0  0
  187.7920  177.4180  145.3150 N   0  0  0  0  0  0  0  0  0  0  0  0
  189.6110  175.7970  144.8180 N   0  0  0  0  0  2  0  0  0  0  0  0
  185.9010  179.0190  145.9480 C   0  0  0  0  0  2  0  0  0  0  0  0
  184.5760  178.3440  146.0390 C   0  0  0  0  0  0  0  0  0  0  0  0
  183.5460  178.9180  145.6020 O   0  0  0  0  0  0  0  0  0  0  0  0
  184.4830  177.0660  146.5760 O   0  0  0  0  0  1  0  0  0  0  0  0
  1 14  1  0  0  0  0
  2 13  2  0  0  0  0
  3  7  1  6  0  0  0
  3  2  1  0  0  0  0
  3 19  1  0  0  0  0
  4  7  1  0  0  0  0
  4 11  2  0  0  0  0
  5 16  2  0  0  0  0
  5  2  1  0  0  0  0
  6  1  1  0  0  0  0
  6 17  1  0  0  0  0
  8 27  1  0  0  0  0
  9  1  2  0  0  0  0
 11 15  1  0  0  0  0
 12  8  2  0  0  0  0
 13  8  1  0  0  0  0
 13 18  1  0  0  0  0
 14  5  1  0  0  0  0
 15 20  1  0  0  0  0
 16 12  1  0  0  0  0
 17 16  1  0  0  0  0
 18 10  2  0  0  0  0
 19 20  1  0  0  0  0
 19 10  1  0  0  0  0
 22 25  2  0  0  0  0
 23 24  2  0  0  0  0
 24 27  1  0  0  0  0
 24 26  1  0  0  0  0
 25 26  1  0  0  0  0
 25 28  1  0  0  0  0
 26 21  1  0  0  0  0
 28 29  1  0  0  0  0
 29 31  1  0  0  0  0
 30 29  2  0  0  0  0
M  END
>  <MODEL>
8

>  <REMARK>
 VINA RESULT:      -7.1      3.001      8.611
  Name = 
  3 active torsions:
  status: ('A' for Active; 'I' for Inactive)
    1  A    between atoms: C_1  and  C_24
    2  A    between atoms: C_15  and  N_23
    3  A    between atoms: C_19  and  C_24
                            x       y       z     vdW  Elec       q    Type
                         _______ _______ _______ _____ _____    ______ ____

>  <TORSDO>
F 3

$$$$
=
 OpenBabel11052417533D

 31 34  0  0  1  0  0  0  0  0999 V2000
  191.8750  171.0810  143.2300 C   0  0  0  0  0  0  0  0  0  0  0  0
  190.8530  174.4470  144.4180 C   0  0  0  0  0  0  0  0  0  0  0  0
  192.0480  174.8240  145.2600 C   0  0  1  0  0  3  0  0  0  0  0  0
  194.5310  175.0140  145.1030 C   0  0  0  0  0  3  0  0  0  0  0  0
  190.7960  173.1920  143.7970 C   0  0  0  0  0  0  0  0  0  0  0  0
  190.9460  170.8950  142.0690 C   0  0  0  0  0  2  0  0  0  0  0  0
  193.2350  175.1460  144.3570 C   0  0  0  0  0  2  0  0  0  0  0  0
  188.7580  175.0380  143.3380 C   0  0  0  0  0  0  0  0  0  0  0  0
  192.7530  170.2140  143.4780 O   0  0  0  0  0  0  0  0  0  0  0  0
  190.7670  176.9420  145.8000 C   0  0  0  0  0  3  0  0  0  0  0  0
  194.8600  175.7760  146.1550 C   0  0  0  0  0  3  0  0  0  0  0  0
  188.7280  173.8050  142.7600 N   0  0  0  0  0  0  0  0  0  0  0  0
  189.8220  175.3790  144.1880 C   0  0  0  0  0  0  0  0  0  0  0  0
  191.8120  172.2490  143.9950 O   0  0  0  0  0  0  0  0  0  0  0  0
  193.9720  176.8530  146.7090 C   0  0  0  0  0  2  0  0  0  0  0  0
  189.7110  172.8890  142.9590 C   0  0  0  0  0  0  0  0  0  0  0  0
  189.5810  171.5150  142.3700 C   0  0  0  0  0  2  0  0  0  0  0  0
  189.8470  176.6820  144.8750 C   0  0  0  0  0  3  0  0  0  0  0  0
  191.7640  175.9690  146.1380 N   0  0  0  0  0  0  0  0  0  0  0  0
  192.6680  176.2690  147.2390 C   0  0  0  0  0  2  0  0  0  0  0  0
  185.5410  177.8250  142.9930 C   0  0  0  0  0  1  0  0  0  0  0  0
  186.1450  177.5180  139.4000 O   0  0  0  0  0  0  0  0  0  0  0  0
  187.6950  175.9020  140.7670 O   0  0  0  0  0  0  0  0  0  0  0  0
  187.1980  176.3850  141.8200 C   0  0  0  0  0  0  0  0  0  0  0  0
  185.6060  177.8390  140.4940 C   0  0  0  0  0  0  0  0  0  0  0  0
  186.1220  177.3410  141.7470 N   0  0  0  0  0  0  0  0  0  0  0  0
  187.7010  175.9790  143.1030 N   0  0  0  0  0  2  0  0  0  0  0  0
  184.4060  178.7310  140.4570 C   0  0  0  0  0  2  0  0  0  0  0  0
  183.1580  177.9170  140.4510 C   0  0  0  0  0  0  0  0  0  0  0  0
  182.3570  177.9860  141.4180 O   0  0  0  0  0  1  0  0  0  0  0  0
  182.8610  177.1090  139.3610 O   0  0  0  0  0  0  0  0  0  0  0  0
  1  9  2  0  0  0  0
  1 14  1  0  0  0  0
  2  3  1  0  0  0  0
  3  7  1  6  0  0  0
  3 19  1  0  0  0  0
  4 11  2  0  0  0  0
  5 14  1  0  0  0  0
  5  2  1  0  0  0  0
  6 17  1  0  0  0  0
  6  1  1  0  0  0  0
  7  4  1  0  0  0  0
  8 13  1  0  0  0  0
 10 19  1  0  0  0  0
 11 15  1  0  0  0  0
 12 16  1  0  0  0  0
 12  8  2  0  0  0  0
 13  2  2  0  0  0  0
 13 18  1  0  0  0  0
 15 20  1  0  0  0  0
 16  5  2  0  0  0  0
 17 16  1  0  0  0  0
 18 10  2  0  0  0  0
 19 20  1  0  0  0  0
 22 25  2  0  0  0  0
 23 24  2  0  0  0  0
 24 27  1  0  0  0  0
 25 26  1  0  0  0  0
 26 24  1  0  0  0  0
 26 21  1  0  0  0  0
 27  8  1  0  0  0  0
 28 25  1  0  0  0  0
 29 28  1  0  0  0  0
 29 30  1  0  0  0  0
 31 29  2  0  0  0  0
M  END
>  <MODEL>
9

>  <REMARK>
 VINA RESULT:      -7.1      3.230      8.941
  Name = 
  3 active torsions:
  status: ('A' for Active; 'I' for Inactive)
    1  A    between atoms: C_1  and  C_24
    2  A    between atoms: C_15  and  N_23
    3  A    between atoms: C_19  and  C_24
                            x       y       z     vdW  Elec       q    Type
                         _______ _______ _______ _____ _____    ______ ____

>  <TORSDO>
F 3

$$$$
