=
 OpenBabel11052418103D

 28 30  0  0  1  0  0  0  0  0999 V2000
  190.6610  176.2750  144.1910 C   0  0  1  0  0  3  0  0  0  0  0  0
  186.2320  177.4630  141.8850 C   0  0  0  0  0  2  0  0  0  0  0  0
  186.2720  177.0700  147.9450 C   0  0  0  0  0  1  0  0  0  0  0  0
  185.3400  179.1120  143.4660 C   0  0  1  0  0  3  0  0  0  0  0  0
  187.3060  177.8640  144.1970 C   0  0  2  0  0  3  0  0  0  0  0  0
  183.8670  178.2690  141.6220 C   0  0  0  0  0  0  0  0  0  0  0  0
  186.0390  177.7530  143.3690 C   0  0  2  0  0  3  0  0  0  0  0  0
  185.6070  178.8800  145.7740 C   0  0  0  0  0  2  0  0  0  0  0  0
  183.9110  179.0110  142.9420 C   0  0  0  0  0  2  0  0  0  0  0  0
  187.9480  175.8460  146.5960 C   0  0  0  0  0  2  0  0  0  0  0  0
  188.3830  176.8330  143.8750 C   0  0  0  0  0  2  0  0  0  0  0  0
  185.4560  179.7950  144.7090 O   0  0  0  0  0  0  0  0  0  0  0  0
  190.4650  175.7630  146.7360 C   0  0  0  0  0  2  0  0  0  0  0  0
  186.7310  176.7680  146.5230 C   0  0  2  0  0  3  0  0  0  0  0  0
  189.2110  176.5810  147.0360 C   0  0  0  0  0  2  0  0  0  0  0  0
  182.6950  178.3030  140.8790 O   0  0  0  0  0  1  0  0  0  0  0  0
  184.9020  177.5360  141.1720 C   0  0  0  0  0  3  0  0  0  0  0  0
  186.9270  178.0670  145.6950 C   0  0  1  0  0  3  0  0  0  0  0  0
  190.5030  175.2220  145.3040 C   0  0  0  0  0  2  0  0  0  0  0  0
  189.6830  177.3580  144.2680 N   0  0  0  0  0  2  0  0  0  0  0  0
  192.0960  176.7890  143.9690 C   0  0  2  0  0  3  0  0  0  0  0  0
  192.1930  177.6230  142.8520 O   0  0  0  0  0  1  0  0  0  0  0  0
  193.2240  175.7500  144.0100 C   0  0  0  0  0  2  0  0  0  0  0  0
  195.5130  176.2960  143.0130 N   0  0  0  0  0  0  0  0  0  0  0  0
  194.9250  176.9150  145.1860 O   0  0  0  0  0  0  0  0  0  0  0  0
  194.5940  176.3450  144.1130 C   0  0  0  0  0  0  0  0  0  0  0  0
  194.9800  175.8640  141.3840 S   0  0  0  0  0  1  0  0  0  0  0  0
  196.8970  176.7040  143.1930 C   0  0  0  0  0  1  0  0  0  0  0  0
  1 21  1  1  0  0  0
  1 20  1  0  0  0  0
  1 19  1  0  0  0  0
  4  9  1  1  0  0  0
  4 12  1  0  0  0  0
  5 11  1  1  0  0  0
  5 18  1  0  0  0  0
  6  9  1  0  0  0  0
  7  2  1  6  0  0  0
  7  4  1  0  0  0  0
  7  5  1  0  0  0  0
 10 15  1  0  0  0  0
 11 20  1  0  0  0  0
 12  8  1  0  0  0  0
 13 15  1  0  0  0  0
 14 10  1  0  0  0  0
 14  3  1  1  0  0  0
 16  6  1  0  0  0  0
 17  6  2  0  0  0  0
 17  2  1  0  0  0  0
 18  8  1  6  0  0  0
 18 14  1  0  0  0  0
 19 13  1  0  0  0  0
 21 22  1  6  0  0  0
 21 23  1  0  0  0  0
 23 26  1  0  0  0  0
 24 28  1  0  0  0  0
 24 26  1  0  0  0  0
 26 25  2  0  0  0  0
 27 24  1  0  0  0  0
M  END
>  <MODEL>
1

>  <REMARK>
 VINA RESULT:      -7.7      0.000      0.000
  Name = 
  3 active torsions:
  status: ('A' for Active; 'I' for Inactive)
    1  A    between atoms: C_1  and  C_2
    2  A    between atoms: C_2  and  C_3
    3  A    between atoms: C_3  and  C_11
                            x       y       z     vdW  Elec       q    Type
                         _______ _______ _______ _____ _____    ______ ____

>  <TORSDO>
F 3

$$$$
=
 OpenBabel11052418103D

 28 30  0  0  1  0  0  0  0  0999 V2000
  191.1110  176.2090  144.3790 C   0  0  1  0  0  3  0  0  0  0  0  0
  186.9290  177.4570  141.6770 C   0  0  0  0  0  2  0  0  0  0  0  0
  186.3580  176.8570  147.6930 C   0  0  0  0  0  1  0  0  0  0  0  0
  185.8690  179.0470  143.2140 C   0  0  1  0  0  3  0  0  0  0  0  0
  187.7600  177.7830  144.0990 C   0  0  2  0  0  3  0  0  0  0  0  0
  184.5970  178.2610  141.2030 C   0  0  0  0  0  0  0  0  0  0  0  0
  186.5850  177.6950  143.1430 C   0  0  2  0  0  3  0  0  0  0  0  0
  185.9030  178.7380  145.5280 C   0  0  0  0  0  2  0  0  0  0  0  0
  184.5020  178.9580  142.5450 C   0  0  0  0  0  2  0  0  0  0  0  0
  188.1710  175.6870  146.4810 C   0  0  0  0  0  2  0  0  0  0  0  0
  188.8720  176.7690  143.8530 C   0  0  0  0  0  2  0  0  0  0  0  0
  185.8540  179.6870  144.4840 O   0  0  0  0  0  0  0  0  0  0  0  0
  190.6620  175.6100  146.8730 C   0  0  0  0  0  2  0  0  0  0  0  0
  186.9610  176.6060  146.3160 C   0  0  2  0  0  3  0  0  0  0  0  0
  189.3770  176.4120  147.0710 C   0  0  0  0  0  2  0  0  0  0  0  0
  183.5060  178.3150  140.3460 O   0  0  0  0  0  1  0  0  0  0  0  0
  185.6780  177.5480  140.8360 C   0  0  0  0  0  3  0  0  0  0  0  0
  187.2300  177.9330  145.5560 C   0  0  1  0  0  3  0  0  0  0  0  0
  190.8490  175.1180  145.4350 C   0  0  0  0  0  2  0  0  0  0  0  0
  190.1220  177.2850  144.3930 N   0  0  0  0  0  2  0  0  0  0  0  0
  192.5570  176.7370  144.3220 C   0  0  2  0  0  3  0  0  0  0  0  0
  193.1830  176.4330  143.1110 O   0  0  0  0  0  1  0  0  0  0  0  0
  193.4580  176.4350  145.5260 C   0  0  0  0  0  2  0  0  0  0  0  0
  195.3390  174.7340  145.2040 N   0  0  0  0  0  0  0  0  0  0  0  0
  195.6370  177.0120  144.7820 O   0  0  0  0  0  0  0  0  0  0  0  0
  194.8670  176.0880  145.1580 C   0  0  0  0  0  0  0  0  0  0  0  0
  194.2200  173.3730  145.3450 S   0  0  0  0  0  1  0  0  0  0  0  0
  196.7520  174.4420  145.0300 C   0  0  0  0  0  1  0  0  0  0  0  0
  1 21  1  1  0  0  0
  1 20  1  0  0  0  0
  1 19  1  0  0  0  0
  4  9  1  1  0  0  0
  4 12  1  0  0  0  0
  5 11  1  1  0  0  0
  5 18  1  0  0  0  0
  6  9  1  0  0  0  0
  7  2  1  6  0  0  0
  7  4  1  0  0  0  0
  7  5  1  0  0  0  0
 10 15  1  0  0  0  0
 11 20  1  0  0  0  0
 12  8  1  0  0  0  0
 13 15  1  0  0  0  0
 14 10  1  0  0  0  0
 14  3  1  1  0  0  0
 16  6  1  0  0  0  0
 17  6  2  0  0  0  0
 17  2  1  0  0  0  0
 18  8  1  6  0  0  0
 18 14  1  0  0  0  0
 19 13  1  0  0  0  0
 21 22  1  6  0  0  0
 21 23  1  0  0  0  0
 24 27  1  0  0  0  0
 25 26  2  0  0  0  0
 26 24  1  0  0  0  0
 26 23  1  0  0  0  0
 28 24  1  0  0  0  0
M  END
>  <MODEL>
2

>  <REMARK>
 VINA RESULT:      -7.7      1.361      1.362
  Name = 
  3 active torsions:
  status: ('A' for Active; 'I' for Inactive)
    1  A    between atoms: C_1  and  C_2
    2  A    between atoms: C_2  and  C_3
    3  A    between atoms: C_3  and  C_11
                            x       y       z     vdW  Elec       q    Type
                         _______ _______ _______ _____ _____    ______ ____

>  <TORSDO>
F 3

$$$$
=
 OpenBabel11052418103D

 28 30  0  0  1  0  0  0  0  0999 V2000
  192.6990  175.4010  146.3360 C   0  0  1  0  0  3  0  0  0  0  0  0
  190.2820  173.5180  142.2180 C   0  0  0  0  0  2  0  0  0  0  0  0
  187.1860  177.2430  145.8800 C   0  0  0  0  0  1  0  0  0  0  0  0
  188.9680  175.4750  141.5440 C   0  0  1  0  0  3  0  0  0  0  0  0
  190.0820  175.6130  143.7120 C   0  0  2  0  0  3  0  0  0  0  0  0
  188.5270  173.2710  140.4370 C   0  0  0  0  0  0  0  0  0  0  0  0
  189.4090  174.6470  142.7540 C   0  0  2  0  0  3  0  0  0  0  0  0
  187.9900  176.9050  143.1100 C   0  0  0  0  0  2  0  0  0  0  0  0
  188.0050  174.6730  140.6750 C   0  0  0  0  0  2  0  0  0  0  0  0
  189.1120  175.9490  146.7420 C   0  0  0  0  0  2  0  0  0  0  0  0
  191.0070  174.9680  144.7380 C   0  0  0  0  0  2  0  0  0  0  0  0
  188.5380  176.8050  141.8130 O   0  0  0  0  0  0  0  0  0  0  0  0
  191.1660  176.6640  148.0200 C   0  0  0  0  0  2  0  0  0  0  0  0
  188.2520  176.2190  145.5080 C   0  0  2  0  0  3  0  0  0  0  0  0
  190.0700  177.0970  147.0480 C   0  0  0  0  0  2  0  0  0  0  0  0
  187.9140  172.4880  139.4690 O   0  0  0  0  0  1  0  0  0  0  0  0
  189.5250  172.7400  141.1670 C   0  0  0  0  0  3  0  0  0  0  0  0
  189.0300  176.6390  144.2320 C   0  0  1  0  0  3  0  0  0  0  0  0
  191.8440  175.3520  147.6170 C   0  0  0  0  0  2  0  0  0  0  0  0
  191.9900  175.9470  145.1820 N   0  0  0  0  0  2  0  0  0  0  0  0
  194.1050  176.0040  146.5060 C   0  0  2  0  0  3  0  0  0  0  0  0
  194.1910  177.3010  145.9930 O   0  0  0  0  0  1  0  0  0  0  0  0
  195.2940  175.1370  146.0740 C   0  0  0  0  0  2  0  0  0  0  0  0
  194.7980  174.2720  143.7200 N   0  0  0  0  0  0  0  0  0  0  0  0
  194.7600  172.8750  145.5910 O   0  0  0  0  0  0  0  0  0  0  0  0
  194.9300  174.0350  145.1290 C   0  0  0  0  0  0  0  0  0  0  0  0
  195.3930  175.7620  142.9760 S   0  0  0  0  0  1  0  0  0  0  0  0
  194.2600  173.2410  142.8480 C   0  0  0  0  0  1  0  0  0  0  0  0
  1 21  1  1  0  0  0
  1 19  1  0  0  0  0
  4  9  1  1  0  0  0
  4 12  1  0  0  0  0
  4  7  1  0  0  0  0
  5 18  1  0  0  0  0
  5 11  1  1  0  0  0
  6  9  1  0  0  0  0
  6 17  2  0  0  0  0
  7  2  1  6  0  0  0
  7  5  1  0  0  0  0
 10 15  1  0  0  0  0
 11 20  1  0  0  0  0
 12  8  1  0  0  0  0
 14  3  1  1  0  0  0
 14 10  1  0  0  0  0
 15 13  1  0  0  0  0
 16  6  1  0  0  0  0
 17  2  1  0  0  0  0
 18  8  1  6  0  0  0
 18 14  1  0  0  0  0
 19 13  1  0  0  0  0
 20  1  1  0  0  0  0
 21 22  1  6  0  0  0
 23 21  1  0  0  0  0
 24 26  1  0  0  0  0
 26 25  2  0  0  0  0
 26 23  1  0  0  0  0
 27 24  1  0  0  0  0
 28 24  1  0  0  0  0
M  END
>  <MODEL>
3

>  <REMARK>
 VINA RESULT:      -7.3      2.899      4.135
  Name = 
  3 active torsions:
  status: ('A' for Active; 'I' for Inactive)
    1  A    between atoms: C_1  and  C_2
    2  A    between atoms: C_2  and  C_3
    3  A    between atoms: C_3  and  C_11
                            x       y       z     vdW  Elec       q    Type
                         _______ _______ _______ _____ _____    ______ ____

>  <TORSDO>
F 3

$$$$
=
 OpenBabel11052418103D

 28 30  0  0  1  0  0  0  0  0999 V2000
  187.2700  177.9700  141.7150 C   0  0  1  0  0  3  0  0  0  0  0  0
  191.5770  177.0780  144.3610 C   0  0  0  0  0  2  0  0  0  0  0  0
  186.3180  177.0710  147.3970 C   0  0  0  0  0  1  0  0  0  0  0  0
  190.7890  175.3580  145.9210 C   0  0  1  0  0  3  0  0  0  0  0  0
  189.0750  176.4920  144.6030 C   0  0  2  0  0  3  0  0  0  0  0  0
  193.0570  176.3670  146.2620 C   0  0  0  0  0  0  0  0  0  0  0  0
  190.4200  176.6980  145.2770 C   0  0  2  0  0  3  0  0  0  0  0  0
  188.6520  175.4290  146.8610 C   0  0  0  0  0  2  0  0  0  0  0  0
  191.9540  175.5390  146.8880 C   0  0  0  0  0  2  0  0  0  0  0  0
  186.5420  178.3260  145.2750 C   0  0  0  0  0  2  0  0  0  0  0  0
  188.7340  177.5060  143.5170 C   0  0  0  0  0  2  0  0  0  0  0  0
  189.7110  174.5920  146.4460 O   0  0  0  0  0  0  0  0  0  0  0  0
  185.1430  178.3190  143.1760 C   0  0  0  0  0  2  0  0  0  0  0  0
  187.2860  177.4510  146.2830 C   0  0  2  0  0  3  0  0  0  0  0  0
  185.5790  177.5240  144.4050 C   0  0  0  0  0  2  0  0  0  0  0  0
  194.2910  176.4200  146.8960 O   0  0  0  0  0  1  0  0  0  0  0  0
  192.8680  177.0940  145.1460 C   0  0  0  0  0  3  0  0  0  0  0  0
  187.9940  176.2030  145.6870 C   0  0  1  0  0  3  0  0  0  0  0  0
  186.3160  178.9520  142.4210 C   0  0  0  0  0  2  0  0  0  0  0  0
  187.7770  176.9160  142.5910 N   0  0  0  0  0  2  0  0  0  0  0  0
  186.7730  177.4260  140.3630 C   0  0  2  0  0  3  0  0  0  0  0  0
  185.4370  177.7530  140.1190 O   0  0  0  0  0  1  0  0  0  0  0  0
  187.0680  175.9530  140.0520 C   0  0  0  0  0  2  0  0  0  0  0  0
  188.1760  174.6010  138.1870 N   0  0  0  0  0  0  0  0  0  0  0  0
  186.7590  176.4030  137.7420 O   0  0  0  0  0  0  0  0  0  0  0  0
  187.3250  175.6780  138.6030 C   0  0  0  0  0  0  0  0  0  0  0  0
  188.6770  173.3340  139.3140 S   0  0  0  0  0  1  0  0  0  0  0  0
  188.5650  174.4680  136.7930 C   0  0  0  0  0  1  0  0  0  0  0  0
  1 21  1  6  0  0  0
  1 19  1  0  0  0  0
  1 20  1  0  0  0  0
  2 17  1  0  0  0  0
  4 12  1  0  0  0  0
  4  9  1  1  0  0  0
  5 11  1  1  0  0  0
  5  7  1  0  0  0  0
  5 18  1  0  0  0  0
  6  9  1  0  0  0  0
  6 16  1  0  0  0  0
  7  2  1  6  0  0  0
  7  4  1  0  0  0  0
 10 14  1  0  0  0  0
 12  8  1  0  0  0  0
 13 15  1  0  0  0  0
 14  3  1  1  0  0  0
 15 10  1  0  0  0  0
 17  6  2  0  0  0  0
 18 14  1  0  0  0  0
 18  8  1  1  0  0  0
 19 13  1  0  0  0  0
 20 11  1  0  0  0  0
 21 22  1  1  0  0  0
 23 21  1  0  0  0  0
 24 26  1  0  0  0  0
 24 27  1  0  0  0  0
 25 26  2  0  0  0  0
 26 23  1  0  0  0  0
 28 24  1  0  0  0  0
M  END
>  <MODEL>
4

>  <REMARK>
 VINA RESULT:      -7.3      3.055      7.051
  Name = 
  3 active torsions:
  status: ('A' for Active; 'I' for Inactive)
    1  A    between atoms: C_1  and  C_2
    2  A    between atoms: C_2  and  C_3
    3  A    between atoms: C_3  and  C_11
                            x       y       z     vdW  Elec       q    Type
                         _______ _______ _______ _____ _____    ______ ____

>  <TORSDO>
F 3

$$$$
=
 OpenBabel11052418103D

 28 30  0  0  1  0  0  0  0  0999 V2000
  189.8640  172.7190  141.7800 C   0  0  1  0  0  3  0  0  0  0  0  0
  186.3660  176.3620  142.6980 C   0  0  0  0  0  2  0  0  0  0  0  0
  190.2120  174.9150  147.1700 C   0  0  0  0  0  1  0  0  0  0  0  0
  187.6950  177.9190  144.0480 C   0  0  1  0  0  3  0  0  0  0  0  0
  188.7070  175.7450  143.5930 C   0  0  2  0  0  3  0  0  0  0  0  0
  185.2230  178.2780  143.8520 C   0  0  0  0  0  0  0  0  0  0  0  0
  187.3780  176.4360  143.8360 C   0  0  2  0  0  3  0  0  0  0  0  0
  189.2650  177.1720  145.6070 C   0  0  0  0  0  2  0  0  0  0  0  0
  186.4800  178.6440  144.6150 C   0  0  0  0  0  2  0  0  0  0  0  0
  189.6920  173.2830  145.3830 C   0  0  0  0  0  2  0  0  0  0  0  0
  188.6150  174.3910  142.8970 C   0  0  0  0  0  2  0  0  0  0  0  0
  188.9140  178.2140  144.7210 O   0  0  0  0  0  0  0  0  0  0  0  0
  191.1900  171.9240  143.8750 C   0  0  0  0  0  2  0  0  0  0  0  0
  189.3890  174.6860  145.9070 C   0  0  2  0  0  3  0  0  0  0  0  0
  191.0620  173.1910  144.7190 C   0  0  0  0  0  2  0  0  0  0  0  0
  184.0740  179.0280  144.0630 O   0  0  0  0  0  1  0  0  0  0  0  0
  185.1660  177.2200  143.0230 C   0  0  0  0  0  3  0  0  0  0  0  0
  189.5790  175.8360  144.8810 C   0  0  1  0  0  3  0  0  0  0  0  0
  190.0030  171.7060  142.9330 C   0  0  0  0  0  2  0  0  0  0  0  0
  189.8750  174.1110  142.2220 N   0  0  0  0  0  2  0  0  0  0  0  0
  190.7880  172.4740  140.5730 C   0  0  2  0  0  3  0  0  0  0  0  0
  191.6510  173.5480  140.3400 O   0  0  0  0  0  1  0  0  0  0  0  0
  190.1320  171.9740  139.2810 C   0  0  0  0  0  2  0  0  0  0  0  0
  189.0130  173.7950  137.8780 N   0  0  0  0  0  0  0  0  0  0  0  0
  187.8160  172.4830  139.3940 O   0  0  0  0  0  0  0  0  0  0  0  0
  188.9260  172.7610  138.8680 C   0  0  0  0  0  0  0  0  0  0  0  0
  190.4370  173.9630  136.8430 S   0  0  0  0  0  1  0  0  0  0  0  0
  187.8810  174.6720  137.6300 C   0  0  0  0  0  1  0  0  0  0  0  0
  1 21  1  6  0  0  0
  1 20  1  0  0  0  0
  1 19  1  0  0  0  0
  2 17  1  0  0  0  0
  4  9  1  1  0  0  0
  4 12  1  0  0  0  0
  5 11  1  1  0  0  0
  5  7  1  0  0  0  0
  5 18  1  0  0  0  0
  6 16  1  0  0  0  0
  6  9  1  0  0  0  0
  7  2  1  6  0  0  0
  7  4  1  0  0  0  0
 10 14  1  0  0  0  0
 12  8  1  0  0  0  0
 13 15  1  0  0  0  0
 14  3  1  1  0  0  0
 15 10  1  0  0  0  0
 17  6  2  0  0  0  0
 18  8  1  1  0  0  0
 18 14  1  0  0  0  0
 19 13  1  0  0  0  0
 20 11  1  0  0  0  0
 21 22  1  6  0  0  0
 23 21  1  0  0  0  0
 24 26  1  0  0  0  0
 26 23  1  0  0  0  0
 26 25  2  0  0  0  0
 27 24  1  0  0  0  0
 28 24  1  0  0  0  0
M  END
>  <MODEL>
5

>  <REMARK>
 VINA RESULT:      -7.2      3.923      5.195
  Name = 
  3 active torsions:
  status: ('A' for Active; 'I' for Inactive)
    1  A    between atoms: C_1  and  C_2
    2  A    between atoms: C_2  and  C_3
    3  A    between atoms: C_3  and  C_11
                            x       y       z     vdW  Elec       q    Type
                         _______ _______ _______ _____ _____    ______ ____

>  <TORSDO>
F 3

$$$$
=
 OpenBabel11052418103D

 28 30  0  0  1  0  0  0  0  0999 V2000
  191.9110  174.7430  142.3680 C   0  0  1  0  0  3  0  0  0  0  0  0
  187.2230  176.8230  142.1370 C   0  0  0  0  0  2  0  0  0  0  0  0
  189.1060  174.6290  147.4780 C   0  0  0  0  0  1  0  0  0  0  0  0
  187.1430  177.9700  144.3020 C   0  0  1  0  0  3  0  0  0  0  0  0
  189.0190  176.4490  143.9530 C   0  0  2  0  0  3  0  0  0  0  0  0
  185.0520  177.8060  142.9310 C   0  0  0  0  0  0  0  0  0  0  0  0
  187.5550  176.6650  143.6170 C   0  0  2  0  0  3  0  0  0  0  0  0
  188.0830  177.0430  146.2280 C   0  0  0  0  0  2  0  0  0  0  0  0
  185.6250  178.1140  144.2990 C   0  0  0  0  0  2  0  0  0  0  0  0
  190.0600  173.7710  145.3610 C   0  0  0  0  0  2  0  0  0  0  0  0
  189.7650  175.5020  143.0190 C   0  0  0  0  0  2  0  0  0  0  0  0
  187.7500  178.2410  145.5610 O   0  0  0  0  0  0  0  0  0  0  0  0
  192.4480  173.5040  144.5930 C   0  0  0  0  0  2  0  0  0  0  0  0
  189.0420  174.7410  145.9590 C   0  0  2  0  0  3  0  0  0  0  0  0
  191.4950  174.2660  145.5130 C   0  0  0  0  0  2  0  0  0  0  0  0
  183.7270  178.1290  142.6770 O   0  0  0  0  0  1  0  0  0  0  0  0
  185.7650  177.1830  141.9750 C   0  0  0  0  0  3  0  0  0  0  0  0
  189.1670  176.2150  145.4860 C   0  0  1  0  0  3  0  0  0  0  0  0
  191.9490  173.4160  143.1490 C   0  0  0  0  0  2  0  0  0  0  0  0
  191.1880  175.8070  143.0600 N   0  0  0  0  0  2  0  0  0  0  0  0
  193.2640  175.2160  141.8060 C   0  0  2  0  0  3  0  0  0  0  0  0
  194.0510  174.1530  141.3550 O   0  0  0  0  0  1  0  0  0  0  0  0
  194.0700  176.2010  142.6620 C   0  0  0  0  0  2  0  0  0  0  0  0
  196.5390  175.7300  143.1270 N   0  0  0  0  0  0  0  0  0  0  0  0
  195.8270  176.8480  141.2040 O   0  0  0  0  0  0  0  0  0  0  0  0
  195.5170  176.2890  142.2890 C   0  0  0  0  0  0  0  0  0  0  0  0
  196.1460  174.6140  144.4400 S   0  0  0  0  0  1  0  0  0  0  0  0
  197.9410  175.9900  142.8480 C   0  0  0  0  0  1  0  0  0  0  0  0
  1 21  1  1  0  0  0
  1 20  1  0  0  0  0
  1 19  1  0  0  0  0
  4  9  1  1  0  0  0
  4 12  1  0  0  0  0
  5 11  1  6  0  0  0
  5 18  1  0  0  0  0
  6  9  1  0  0  0  0
  7  2  1  6  0  0  0
  7  5  1  0  0  0  0
  7  4  1  0  0  0  0
 10 15  1  0  0  0  0
 10 14  1  0  0  0  0
 11 20  1  0  0  0  0
 12  8  1  0  0  0  0
 13 15  1  0  0  0  0
 14  3  1  1  0  0  0
 16  6  1  0  0  0  0
 17  2  1  0  0  0  0
 17  6  2  0  0  0  0
 18 14  1  0  0  0  0
 18  8  1  1  0  0  0
 19 13  1  0  0  0  0
 21 22  1  1  0  0  0
 21 23  1  0  0  0  0
 24 27  1  0  0  0  0
 25 26  2  0  0  0  0
 26 23  1  0  0  0  0
 26 24  1  0  0  0  0
 28 24  1  0  0  0  0
M  END
>  <MODEL>
6

>  <REMARK>
 VINA RESULT:      -7.1      2.080      2.741
  Name = 
  3 active torsions:
  status: ('A' for Active; 'I' for Inactive)
    1  A    between atoms: C_1  and  C_2
    2  A    between atoms: C_2  and  C_3
    3  A    between atoms: C_3  and  C_11
                            x       y       z     vdW  Elec       q    Type
                         _______ _______ _______ _____ _____    ______ ____

>  <TORSDO>
F 3

$$$$
=
 OpenBabel11052418103D

 28 30  0  0  1  0  0  0  0  0999 V2000
  188.9970  176.5590  142.6330 C   0  0  1  0  0  3  0  0  0  0  0  0
  194.1150  176.1620  142.6950 C   0  0  0  0  0  2  0  0  0  0  0  0
  191.1870  176.0780  148.0150 C   0  0  0  0  0  1  0  0  0  0  0  0
  194.4090  174.5330  144.5020 C   0  0  1  0  0  3  0  0  0  0  0  0
  192.1620  175.4430  144.2210 C   0  0  2  0  0  3  0  0  0  0  0  0
  196.4210  175.7060  143.5790 C   0  0  0  0  0  0  0  0  0  0  0  0
  193.6340  175.7880  144.0920 C   0  0  2  0  0  3  0  0  0  0  0  0
  193.0620  174.5470  146.4100 C   0  0  0  0  0  2  0  0  0  0  0  0
  195.8810  174.8660  144.7180 C   0  0  0  0  0  2  0  0  0  0  0  0
  190.1680  177.1640  146.0370 C   0  0  0  0  0  2  0  0  0  0  0  0
  191.2150  176.3400  143.4310 C   0  0  0  0  0  2  0  0  0  0  0  0
  193.8330  173.7460  145.5390 O   0  0  0  0  0  0  0  0  0  0  0  0
  187.8990  176.8950  144.9690 C   0  0  0  0  0  2  0  0  0  0  0  0
  191.4050  176.4240  146.5460 C   0  0  2  0  0  3  0  0  0  0  0  0
  188.9780  176.2330  145.8240 C   0  0  0  0  0  2  0  0  0  0  0  0
  197.7930  175.8890  143.4800 O   0  0  0  0  0  1  0  0  0  0  0  0
  195.6160  176.3250  142.6960 C   0  0  0  0  0  3  0  0  0  0  0  0
  191.8240  175.1780  145.7190 C   0  0  1  0  0  3  0  0  0  0  0  0
  188.4510  177.5340  143.6920 C   0  0  0  0  0  2  0  0  0  0  0  0
  189.9810  175.6160  143.1590 N   0  0  0  0  0  2  0  0  0  0  0  0
  187.9320  175.8740  141.7560 C   0  0  2  0  0  3  0  0  0  0  0  0
  186.7170  176.5640  141.7630 O   0  0  0  0  0  1  0  0  0  0  0  0
  187.7350  174.3650  141.9470 C   0  0  0  0  0  2  0  0  0  0  0  0
  189.3670  172.5010  141.3180 N   0  0  0  0  0  0  0  0  0  0  0  0
  188.1940  173.7220  139.7090 O   0  0  0  0  0  0  0  0  0  0  0  0
  188.4420  173.5260  140.9290 C   0  0  0  0  0  0  0  0  0  0  0  0
  189.4590  171.9280  142.9880 S   0  0  0  0  0  1  0  0  0  0  0  0
  190.1830  171.8290  140.3190 C   0  0  0  0  0  1  0  0  0  0  0  0
  1 21  1  1  0  0  0
  1 20  1  0  0  0  0
  1 19  1  0  0  0  0
  2 17  1  0  0  0  0
  4  9  1  1  0  0  0
  4 12  1  0  0  0  0
  5 11  1  1  0  0  0
  5 18  1  0  0  0  0
  6  9  1  0  0  0  0
  7  2  1  6  0  0  0
  7  5  1  0  0  0  0
  7  4  1  0  0  0  0
 10 14  1  0  0  0  0
 12  8  1  0  0  0  0
 13 15  1  0  0  0  0
 14  3  1  1  0  0  0
 15 10  1  0  0  0  0
 16  6  1  0  0  0  0
 17  6  2  0  0  0  0
 18  8  1  1  0  0  0
 18 14  1  0  0  0  0
 19 13  1  0  0  0  0
 20 11  1  0  0  0  0
 21 22  1  1  0  0  0
 21 23  1  0  0  0  0
 24 27  1  0  0  0  0
 25 26  2  0  0  0  0
 26 24  1  0  0  0  0
 26 23  1  0  0  0  0
 28 24  1  0  0  0  0
M  END
>  <MODEL>
7

>  <REMARK>
 VINA RESULT:      -7.1      3.187      7.737
  Name = 
  3 active torsions:
  status: ('A' for Active; 'I' for Inactive)
    1  A    between atoms: C_1  and  C_2
    2  A    between atoms: C_2  and  C_3
    3  A    between atoms: C_3  and  C_11
                            x       y       z     vdW  Elec       q    Type
                         _______ _______ _______ _____ _____    ______ ____

>  <TORSDO>
F 3

$$$$
=
 OpenBabel11052418103D

 28 30  0  0  1  0  0  0  0  0999 V2000
  189.0610  177.2300  142.9920 C   0  0  1  0  0  3  0  0  0  0  0  0
  194.0880  176.2350  142.7050 C   0  0  0  0  0  2  0  0  0  0  0  0
  191.2980  175.2920  148.0150 C   0  0  0  0  0  1  0  0  0  0  0  0
  194.2180  174.2160  144.0890 C   0  0  1  0  0  3  0  0  0  0  0  0
  192.0970  175.4220  144.1310 C   0  0  2  0  0  3  0  0  0  0  0  0
  196.3400  175.3240  143.3480 C   0  0  0  0  0  0  0  0  0  0  0  0
  193.5970  175.6130  144.0070 C   0  0  2  0  0  3  0  0  0  0  0  0
  192.9280  173.9550  146.0180 C   0  0  0  0  0  2  0  0  0  0  0  0
  195.7250  174.3170  144.2990 C   0  0  0  0  0  2  0  0  0  0  0  0
  190.3770  176.9080  146.3820 C   0  0  0  0  0  2  0  0  0  0  0  0
  191.2520  176.5790  143.6080 C   0  0  0  0  0  2  0  0  0  0  0  0
  193.5730  173.2880  144.9540 O   0  0  0  0  0  0  0  0  0  0  0  0
  188.0680  177.1550  145.3970 C   0  0  0  0  0  2  0  0  0  0  0  0
  191.5220  175.9330  146.6510 C   0  0  2  0  0  3  0  0  0  0  0  0
  189.0750  176.1960  146.0290 C   0  0  0  0  0  2  0  0  0  0  0  0
  197.7210  175.3630  143.2230 O   0  0  0  0  0  1  0  0  0  0  0  0
  195.5980  176.2170  142.6660 C   0  0  0  0  0  3  0  0  0  0  0  0
  191.7630  174.8670  145.5480 C   0  0  1  0  0  3  0  0  0  0  0  0
  188.6660  177.9980  144.2680 C   0  0  0  0  0  2  0  0  0  0  0  0
  189.9310  176.0840  143.2460 N   0  0  0  0  0  2  0  0  0  0  0  0
  187.8990  176.8910  142.0410 C   0  0  2  0  0  3  0  0  0  0  0  0
  188.1900  175.8010  141.2170 O   0  0  0  0  0  1  0  0  0  0  0  0
  187.2760  178.0530  141.2570 C   0  0  0  0  0  2  0  0  0  0  0  0
  184.9400  178.4360  142.2220 N   0  0  0  0  0  0  0  0  0  0  0  0
  185.2730  177.5420  140.0910 O   0  0  0  0  0  0  0  0  0  0  0  0
  185.7840  177.9860  141.1530 C   0  0  0  0  0  0  0  0  0  0  0  0
  185.5790  179.4110  143.5520 S   0  0  0  0  0  1  0  0  0  0  0  0
  183.5090  178.1880  142.1830 C   0  0  0  0  0  1  0  0  0  0  0  0
  1 21  1  1  0  0  0
  1 20  1  0  0  0  0
  1 19  1  0  0  0  0
  4  9  1  1  0  0  0
  4 12  1  0  0  0  0
  5 11  1  1  0  0  0
  5 18  1  0  0  0  0
  6  9  1  0  0  0  0
  7  2  1  6  0  0  0
  7  4  1  0  0  0  0
  7  5  1  0  0  0  0
 10 14  1  0  0  0  0
 12  8  1  0  0  0  0
 13 15  1  0  0  0  0
 14  3  1  1  0  0  0
 15 10  1  0  0  0  0
 16  6  1  0  0  0  0
 17  2  1  0  0  0  0
 17  6  2  0  0  0  0
 18  8  1  1  0  0  0
 18 14  1  0  0  0  0
 19 13  1  0  0  0  0
 20 11  1  0  0  0  0
 21 22  1  6  0  0  0
 23 21  1  0  0  0  0
 24 27  1  0  0  0  0
 25 26  2  0  0  0  0
 26 23  1  0  0  0  0
 26 24  1  0  0  0  0
 28 24  1  0  0  0  0
M  END
>  <MODEL>
8

>  <REMARK>
 VINA RESULT:      -7.0      3.069      8.388
  Name = 
  3 active torsions:
  status: ('A' for Active; 'I' for Inactive)
    1  A    between atoms: C_1  and  C_2
    2  A    between atoms: C_2  and  C_3
    3  A    between atoms: C_3  and  C_11
                            x       y       z     vdW  Elec       q    Type
                         _______ _______ _______ _____ _____    ______ ____

>  <TORSDO>
F 3

$$$$
=
 OpenBabel11052418103D

 28 30  0  0  1  0  0  0  0  0999 V2000
  188.2030  177.3530  144.4180 C   0  0  1  0  0  3  0  0  0  0  0  0
  188.9080  174.2870  140.3620 C   0  0  0  0  0  2  0  0  0  0  0  0
  192.5760  173.5660  145.1490 C   0  0  0  0  0  1  0  0  0  0  0  0
  189.4450  172.1780  141.4910 C   0  0  1  0  0  3  0  0  0  0  0  0
  189.3620  174.1700  142.9000 C   0  0  2  0  0  3  0  0  0  0  0  0
  189.7450  172.3430  139.0090 C   0  0  0  0  0  0  0  0  0  0  0  0
  189.7160  173.6850  141.5060 C   0  0  2  0  0  3  0  0  0  0  0  0
  190.7350  172.1120  143.4370 C   0  0  0  0  0  2  0  0  0  0  0  0
  190.0660  171.5410  140.2530 C   0  0  0  0  0  2  0  0  0  0  0  0
  191.4620  175.7380  144.7350 C   0  0  0  0  0  2  0  0  0  0  0  0
  189.0940  175.6660  143.0170 C   0  0  0  0  0  2  0  0  0  0  0  0
  189.7110  171.4770  142.7010 O   0  0  0  0  0  0  0  0  0  0  0  0
  190.0630  177.2090  146.2340 C   0  0  0  0  0  2  0  0  0  0  0  0
  191.6490  174.3190  144.2010 C   0  0  2  0  0  3  0  0  0  0  0  0
  190.5440  175.7860  145.9530 C   0  0  0  0  0  2  0  0  0  0  0  0
  190.0110  171.7810  137.7680 O   0  0  0  0  0  1  0  0  0  0  0  0
  189.2650  173.5990  139.0660 C   0  0  0  0  0  3  0  0  0  0  0  0
  190.3390  173.5290  143.9320 C   0  0  1  0  0  3  0  0  0  0  0  0
  189.5170  177.9160  144.9900 C   0  0  0  0  0  2  0  0  0  0  0  0
  188.2420  175.9140  144.1720 N   0  0  0  0  0  2  0  0  0  0  0  0
  186.9230  177.7920  145.1540 C   0  0  2  0  0  3  0  0  0  0  0  0
  186.0540  176.7230  145.3890 O   0  0  0  0  0  1  0  0  0  0  0  0
  186.1870  179.0190  144.6030 C   0  0  0  0  0  2  0  0  0  0  0  0
  184.6070  178.3890  142.6950 N   0  0  0  0  0  0  0  0  0  0  0  0
  183.8450  178.7460  144.8740 O   0  0  0  0  0  0  0  0  0  0  0  0
  184.8190  178.7210  144.0750 C   0  0  0  0  0  0  0  0  0  0  0  0
  185.9550  177.9650  141.6320 S   0  0  0  0  0  1  0  0  0  0  0  0
  183.2590  178.2910  142.1610 C   0  0  0  0  0  1  0  0  0  0  0  0
  1 19  1  0  0  0  0
  1 21  1  1  0  0  0
  4  9  1  6  0  0  0
  4  7  1  0  0  0  0
  4 12  1  0  0  0  0
  5 11  1  6  0  0  0
  5 18  1  0  0  0  0
  6 17  2  0  0  0  0
  6  9  1  0  0  0  0
  7  2  1  6  0  0  0
  7  5  1  0  0  0  0
 10 15  1  0  0  0  0
 11 20  1  0  0  0  0
 12  8  1  0  0  0  0
 14 10  1  0  0  0  0
 14  3  1  1  0  0  0
 15 13  1  0  0  0  0
 16  6  1  0  0  0  0
 17  2  1  0  0  0  0
 18  8  1  6  0  0  0
 18 14  1  0  0  0  0
 19 13  1  0  0  0  0
 20  1  1  0  0  0  0
 21 22  1  6  0  0  0
 23 21  1  0  0  0  0
 24 26  1  0  0  0  0
 26 23  1  0  0  0  0
 26 25  2  0  0  0  0
 27 24  1  0  0  0  0
 28 24  1  0  0  0  0
M  END
>  <MODEL>
9

>  <REMARK>
 VINA RESULT:      -7.0      4.071      7.484
  Name = 
  3 active torsions:
  status: ('A' for Active; 'I' for Inactive)
    1  A    between atoms: C_1  and  C_2
    2  A    between atoms: C_2  and  C_3
    3  A    between atoms: C_3  and  C_11
                            x       y       z     vdW  Elec       q    Type
                         _______ _______ _______ _____ _____    ______ ____

>  <TORSDO>
F 3

$$$$
