=
 OpenBabel11052419063D

 32 35  0  0  1  0  0  0  0  0999 V2000
  192.9240  173.4330  144.3880 C   0  0  1  0  0  3  0  0  0  0  0  0
  192.0840  174.6850  144.0230 C   0  0  2  0  0  3  0  0  0  0  0  0
  193.2090  172.4480  143.2410 C   0  0  2  0  0  3  0  0  0  0  0  0
  188.2990  173.8050  141.4340 C   0  0  0  0  0  2  0  0  0  0  0  0
  191.8140  174.9210  142.5320 C   0  0  0  0  0  2  0  0  0  0  0  0
  189.5350  171.7540  142.1230 C   0  0  0  0  0  2  0  0  0  0  0  0
  190.6660  172.6030  142.6980 C   0  0  1  0  0  3  0  0  0  0  0  0
  194.0880  172.9520  142.1390 C   0  0  0  0  0  3  0  0  0  0  0  0
  194.1480  173.6530  145.2740 C   0  0  2  0  0  3  0  0  0  0  0  0
  191.9600  171.7820  142.6440 C   0  0  0  0  0  2  0  0  0  0  0  0
  195.2420  174.4770  144.6730 C   0  0  0  0  0  3  0  0  0  0  0  0
  194.6580  172.4320  145.7190 O   0  0  0  0  0  1  0  0  0  0  0  0
  195.1180  173.7960  142.2270 C   0  0  0  0  0  3  0  0  0  0  0  0
  190.7480  173.9710  141.9710 C   0  0  1  0  0  3  0  0  0  0  0  0
  195.6510  174.5080  143.4030 C   0  0  0  0  0  3  0  0  0  0  0  0
  188.2080  172.4970  142.2080 C   0  0  0  0  0  2  0  0  0  0  0  0
  189.3960  174.6820  142.0240 C   0  0  0  0  0  2  0  0  0  0  0  0
  192.7620  177.0470  144.6090 C   0  0  0  0  0  1  0  0  0  0  0  0
  191.8940  175.8600  145.0200 C   0  0  1  0  0  0  0  0  0  0  0  0
  188.0610  176.0150  145.4850 C   0  0  0  0  0  3  0  0  0  0  0  0
  188.7970  178.0570  144.4360 C   0  0  0  0  0  3  0  0  0  0  0  0
  190.4350  176.3320  144.9980 C   0  0  0  0  0  0  0  0  0  0  0  0
  187.7600  177.2740  144.9500 C   0  0  0  0  0  0  0  0  0  0  0  0
  190.1110  177.5920  144.4600 C   0  0  0  0  0  3  0  0  0  0  0  0
  189.3740  175.5380  145.5130 C   0  0  0  0  0  0  0  0  0  0  0  0
  189.5960  174.1820  146.0970 C   0  0  0  0  0  1  0  0  0  0  0  0
  186.0520  178.9790  144.2430 N   0  0  0  0  0  2  0  0  0  0  0  0
  185.4290  177.1150  145.5210 N   0  0  0  0  0  1  0  0  0  0  0  0
  186.3710  177.7690  144.9260 C   0  0  0  0  0  0  0  0  0  0  0  0
  192.3200  175.4210  146.4410 C   0  0  0  0  0  2  0  0  0  0  0  0
  192.6280  176.5650  147.4050 C   0  0  0  0  0  2  0  0  0  0  0  0
  191.4470  176.8160  148.3210 C   0  0  0  0  0  1  0  0  0  0  0  0
  1  9  1  0  0  0  0
  2  1  1  0  0  0  0
  2 19  1  0  0  0  0
  3  1  1  0  0  0  0
  4 17  1  0  0  0  0
  4 16  1  0  0  0  0
  5  2  1  0  0  0  0
  6 16  1  0  0  0  0
  6  7  1  0  0  0  0
  8 13  2  0  0  0  0
  8  3  1  0  0  0  0
  9 12  1  0  0  0  0
 10  7  1  0  0  0  0
 10  3  1  0  0  0  0
 11  9  1  0  0  0  0
 13 15  1  0  0  0  0
 14 17  1  0  0  0  0
 14  5  1  0  0  0  0
 14  7  1  0  0  0  0
 15 11  2  0  0  0  0
 18 19  1  0  0  0  0
 19 30  1  0  0  0  0
 20 25  1  0  0  0  0
 21 24  2  0  0  0  0
 21 23  1  0  0  0  0
 22 19  1  0  0  0  0
 22 25  2  0  0  0  0
 23 20  2  0  0  0  0
 24 22  1  0  0  0  0
 25 26  1  0  0  0  0
 27 29  2  0  0  0  0
 29 23  1  0  0  0  0
 29 28  1  0  0  0  0
 30 31  1  0  0  0  0
 31 32  1  0  0  0  0
M  END
>  <MODEL>
1

>  <REMARK>
 VINA RESULT:      -6.9      0.000      0.000
  Name = 
  5 active torsions:
  status: ('A' for Active; 'I' for Inactive)
    1  A    between atoms: C_1  and  C_4
    2  A    between atoms: C_1  and  C_27
    3  A    between atoms: C_5  and  C_27
    4  A    between atoms: C_16  and  C_27
    5  A    between atoms: C_19  and  C_26
                            x       y       z     vdW  Elec       q    Type
                         _______ _______ _______ _____ _____    ______ ____

>  <TORSDO>
F 5

$$$$
=
 OpenBabel11052419063D

 32 35  0  0  1  0  0  0  0  0999 V2000
  194.5180  175.8290  144.2600 C   0  0  1  0  0  3  0  0  0  0  0  0
  193.2700  174.9650  143.9430 C   0  0  2  0  0  3  0  0  0  0  0  0
  195.0400  175.7630  145.7050 C   0  0  2  0  0  3  0  0  0  0  0  0
  189.8440  175.2550  147.1030 C   0  0  0  0  0  2  0  0  0  0  0  0
  192.8230  173.9780  145.0280 C   0  0  0  0  0  2  0  0  0  0  0  0
  191.7650  176.7700  147.5720 C   0  0  0  0  0  2  0  0  0  0  0  0
  192.5700  176.1360  146.4400 C   0  0  1  0  0  3  0  0  0  0  0  0
  195.6030  174.4480  146.1460 C   0  0  0  0  0  3  0  0  0  0  0  0
  195.6520  175.8120  143.2370 C   0  0  2  0  0  3  0  0  0  0  0  0
  194.0610  176.2880  146.7650 C   0  0  0  0  0  2  0  0  0  0  0  0
  196.3420  174.4970  143.0590 C   0  0  0  0  0  3  0  0  0  0  0  0
  196.5870  176.8080  143.5240 O   0  0  0  0  0  1  0  0  0  0  0  0
  196.2780  173.5550  145.4180 C   0  0  0  0  0  3  0  0  0  0  0  0
  192.1150  174.6740  146.1980 C   0  0  1  0  0  3  0  0  0  0  0  0
  196.6170  173.5750  143.9840 C   0  0  0  0  0  3  0  0  0  0  0  0
  190.2730  176.7060  147.2740 C   0  0  0  0  0  2  0  0  0  0  0  0
  190.6080  174.6210  145.9470 C   0  0  0  0  0  2  0  0  0  0  0  0
  192.8310  173.2980  142.0950 C   0  0  0  0  0  1  0  0  0  0  0  0
  192.7580  174.7720  142.4890 C   0  0  1  0  0  0  0  0  0  0  0  0
  189.5050  176.8520  142.6310 C   0  0  0  0  0  3  0  0  0  0  0  0
  188.9760  174.6430  141.8230 C   0  0  0  0  0  3  0  0  0  0  0  0
  191.2880  175.1990  142.3930 C   0  0  0  0  0  0  0  0  0  0  0  0
  188.5570  175.9310  142.1680 C   0  0  0  0  0  0  0  0  0  0  0  0
  190.3190  174.2840  141.9350 C   0  0  0  0  0  3  0  0  0  0  0  0
  190.8530  176.5040  142.7480 C   0  0  0  0  0  0  0  0  0  0  0  0
  191.7870  177.5520  143.2550 C   0  0  0  0  0  1  0  0  0  0  0  0
  186.6800  177.0290  140.9050 N   0  0  0  0  0  2  0  0  0  0  0  0
  186.2900  175.9900  142.9700 N   0  0  0  0  0  1  0  0  0  0  0  0
  187.1360  176.3080  142.0460 C   0  0  0  0  0  0  0  0  0  0  0  0
  193.6410  175.5770  141.5070 C   0  0  0  0  0  2  0  0  0  0  0  0
  193.8400  174.9310  140.1380 C   0  0  0  0  0  2  0  0  0  0  0  0
  195.2020  175.2850  139.5790 C   0  0  0  0  0  1  0  0  0  0  0  0
  1  3  1  0  0  0  0
  2  1  1  0  0  0  0
  2  5  1  0  0  0  0
  3  8  1  0  0  0  0
  3 10  1  0  0  0  0
  4 16  1  0  0  0  0
  5 14  1  0  0  0  0
  7 10  1  0  0  0  0
  7  6  1  0  0  0  0
  9 12  1  0  0  0  0
  9  1  1  0  0  0  0
 11  9  1  0  0  0  0
 11 15  2  0  0  0  0
 13  8  2  0  0  0  0
 14  7  1  0  0  0  0
 15 13  1  0  0  0  0
 16  6  1  0  0  0  0
 17 14  1  0  0  0  0
 17  4  1  0  0  0  0
 18 19  1  0  0  0  0
 19  2  1  0  0  0  0
 20 25  1  0  0  0  0
 21 24  2  0  0  0  0
 21 23  1  0  0  0  0
 22 19  1  0  0  0  0
 22 25  2  0  0  0  0
 23 20  2  0  0  0  0
 24 22  1  0  0  0  0
 25 26  1  0  0  0  0
 27 29  2  0  0  0  0
 29 23  1  0  0  0  0
 29 28  1  0  0  0  0
 30 19  1  0  0  0  0
 31 30  1  0  0  0  0
 32 31  1  0  0  0  0
M  END
>  <MODEL>
2

>  <REMARK>
 VINA RESULT:      -6.8      2.036      4.705
  Name = 
  5 active torsions:
  status: ('A' for Active; 'I' for Inactive)
    1  A    between atoms: C_1  and  C_4
    2  A    between atoms: C_1  and  C_27
    3  A    between atoms: C_5  and  C_27
    4  A    between atoms: C_16  and  C_27
    5  A    between atoms: C_19  and  C_26
                            x       y       z     vdW  Elec       q    Type
                         _______ _______ _______ _____ _____    ______ ____

>  <TORSDO>
F 5

$$$$
=
 OpenBabel11052419063D

 32 35  0  0  1  0  0  0  0  0999 V2000
  191.4060  173.5100  142.3990 C   0  0  1  0  0  3  0  0  0  0  0  0
  189.9810  173.7400  142.9660 C   0  0  2  0  0  3  0  0  0  0  0  0
  192.4090  172.8200  143.3400 C   0  0  2  0  0  3  0  0  0  0  0  0
  189.8650  175.4800  147.2980 C   0  0  0  0  0  2  0  0  0  0  0  0
  189.6580  173.0690  144.3070 C   0  0  0  0  0  2  0  0  0  0  0  0
  192.1680  175.2660  146.3700 C   0  0  0  0  0  2  0  0  0  0  0  0
  191.6300  174.5230  145.1500 C   0  0  1  0  0  3  0  0  0  0  0  0
  192.1120  171.3950  143.6920 C   0  0  0  0  0  3  0  0  0  0  0  0
  191.5070  172.9870  140.9670 C   0  0  2  0  0  3  0  0  0  0  0  0
  192.7390  173.6100  144.6140 C   0  0  0  0  0  2  0  0  0  0  0  0
  190.9620  171.6130  140.7410 C   0  0  0  0  0  3  0  0  0  0  0  0
  192.8240  173.0610  140.5090 O   0  0  0  0  0  1  0  0  0  0  0  0
  191.5450  170.4580  142.9290 C   0  0  0  0  0  3  0  0  0  0  0  0
  190.3100  173.7870  145.4950 C   0  0  1  0  0  3  0  0  0  0  0  0
  191.0060  170.5600  141.5610 C   0  0  0  0  0  3  0  0  0  0  0  0
  191.1270  176.2390  146.9090 C   0  0  0  0  0  2  0  0  0  0  0  0
  189.2920  174.7670  146.0790 C   0  0  0  0  0  2  0  0  0  0  0  0
  187.7640  173.1370  141.9160 C   0  0  0  0  0  1  0  0  0  0  0  0
  188.8150  174.2340  142.0680 C   0  0  1  0  0  0  0  0  0  0  0  0
  188.1650  177.6960  143.6570 C   0  0  0  0  0  3  0  0  0  0  0  0
  186.0840  176.4810  143.5710 C   0  0  0  0  0  3  0  0  0  0  0  0
  188.1260  175.4390  142.7230 C   0  0  0  0  0  0  0  0  0  0  0  0
  186.7880  177.6400  143.9090 C   0  0  0  0  0  0  0  0  0  0  0  0
  186.7440  175.3990  142.9890 C   0  0  0  0  0  3  0  0  0  0  0  0
  188.8360  176.6180  143.0750 C   0  0  0  0  0  0  0  0  0  0  0  0
  190.3040  176.7690  142.8510 C   0  0  0  0  0  1  0  0  0  0  0  0
  185.8710  178.8230  145.9300 N   0  0  0  0  0  1  0  0  0  0  0  0
  185.6620  179.7630  143.7920 N   0  0  0  0  0  2  0  0  0  0  0  0
  186.0870  178.7840  144.5220 C   0  0  0  0  0  0  0  0  0  0  0  0
  189.3460  174.5900  140.6600 C   0  0  0  0  0  2  0  0  0  0  0  0
  188.3290  174.4450  139.5300 C   0  0  0  0  0  2  0  0  0  0  0  0
  188.9340  173.6820  138.3690 C   0  0  0  0  0  1  0  0  0  0  0  0
  1  2  1  0  0  0  0
  1  3  1  0  0  0  0
  2  5  1  0  0  0  0
  3  8  1  0  0  0  0
  3 10  1  0  0  0  0
  5 14  1  0  0  0  0
  6 16  1  0  0  0  0
  7 14  1  0  0  0  0
  7  6  1  0  0  0  0
  9  1  1  0  0  0  0
 10  7  1  0  0  0  0
 11  9  1  0  0  0  0
 11 15  2  0  0  0  0
 12  9  1  0  0  0  0
 13  8  2  0  0  0  0
 14 17  1  0  0  0  0
 15 13  1  0  0  0  0
 16  4  1  0  0  0  0
 17  4  1  0  0  0  0
 18 19  1  0  0  0  0
 19 22  1  0  0  0  0
 19  2  1  0  0  0  0
 20 23  1  0  0  0  0
 21 23  2  0  0  0  0
 22 24  2  0  0  0  0
 22 25  1  0  0  0  0
 23 29  1  0  0  0  0
 24 21  1  0  0  0  0
 25 20  2  0  0  0  0
 26 25  1  0  0  0  0
 28 29  2  0  0  0  0
 29 27  1  0  0  0  0
 30 19  1  0  0  0  0
 31 30  1  0  0  0  0
 32 31  1  0  0  0  0
M  END
>  <MODEL>
3

>  <REMARK>
 VINA RESULT:      -6.6      1.883      4.892
  Name = 
  5 active torsions:
  status: ('A' for Active; 'I' for Inactive)
    1  A    between atoms: C_1  and  C_4
    2  A    between atoms: C_1  and  C_27
    3  A    between atoms: C_5  and  C_27
    4  A    between atoms: C_16  and  C_27
    5  A    between atoms: C_19  and  C_26
                            x       y       z     vdW  Elec       q    Type
                         _______ _______ _______ _____ _____    ______ ____

>  <TORSDO>
F 5

$$$$
=
 OpenBabel11052419063D

 32 35  0  0  1  0  0  0  0  0999 V2000
  187.0030  178.4690  145.9930 C   0  0  1  0  0  3  0  0  0  0  0  0
  187.5540  177.0870  145.5550 C   0  0  2  0  0  3  0  0  0  0  0  0
  185.6780  178.9080  145.3460 C   0  0  2  0  0  3  0  0  0  0  0  0
  187.4670  176.3240  140.9490 C   0  0  0  0  0  2  0  0  0  0  0  0
  186.6250  176.2150  144.7020 C   0  0  0  0  0  2  0  0  0  0  0  0
  186.7140  178.6100  141.5960 C   0  0  0  0  0  2  0  0  0  0  0  0
  186.7530  178.2270  143.0740 C   0  0  1  0  0  3  0  0  0  0  0  0
  184.4690  178.1000  145.7020 C   0  0  0  0  0  3  0  0  0  0  0  0
  187.0510  178.7950  147.4840 C   0  0  2  0  0  3  0  0  0  0  0  0
  185.7410  179.1020  143.8250 C   0  0  0  0  0  2  0  0  0  0  0  0
  186.1960  177.9360  148.3610 C   0  0  0  0  0  3  0  0  0  0  0  0
  186.7580  180.1420  147.7030 O   0  0  0  0  0  1  0  0  0  0  0  0
  184.1880  177.5050  146.8640 C   0  0  0  0  0  3  0  0  0  0  0  0
  186.5320  176.7030  143.2500 C   0  0  1  0  0  3  0  0  0  0  0  0
  184.9920  177.4240  148.0960 C   0  0  0  0  0  3  0  0  0  0  0  0
  187.7470  177.8140  140.8070 C   0  0  0  0  0  2  0  0  0  0  0  0
  187.5450  175.9190  142.4150 C   0  0  0  0  0  2  0  0  0  0  0  0
  188.2790  175.3680  147.2600 C   0  0  0  0  0  1  0  0  0  0  0  0
  188.7640  176.4270  146.2700 C   0  0  1  0  0  0  0  0  0  0  0  0
  191.1730  175.7400  143.3280 C   0  0  0  0  0  3  0  0  0  0  0  0
  190.6050  173.6410  144.3690 C   0  0  0  0  0  3  0  0  0  0  0  0
  189.6540  175.7170  145.2420 C   0  0  0  0  0  0  0  0  0  0  0  0
  191.3030  174.3470  143.3860 C   0  0  0  0  0  0  0  0  0  0  0  0
  189.7930  174.3160  145.2800 C   0  0  0  0  0  3  0  0  0  0  0  0
  190.3630  176.4270  144.2360 C   0  0  0  0  0  0  0  0  0  0  0  0
  190.2830  177.9110  144.0920 C   0  0  0  0  0  1  0  0  0  0  0  0
  191.5820  172.8200  141.4070 N   0  0  0  0  0  2  0  0  0  0  0  0
  193.4500  173.7290  142.4930 N   0  0  0  0  0  1  0  0  0  0  0  0
  192.1630  173.6300  142.4250 C   0  0  0  0  0  0  0  0  0  0  0  0
  189.5590  177.4940  147.0580 C   0  0  0  0  0  2  0  0  0  0  0  0
  190.8230  176.9820  147.7440 C   0  0  0  0  0  2  0  0  0  0  0  0
  191.1760  177.8610  148.9270 C   0  0  0  0  0  1  0  0  0  0  0  0
  1  9  1  0  0  0  0
  2  1  1  0  0  0  0
  2 19  1  0  0  0  0
  3  8  1  0  0  0  0
  3  1  1  0  0  0  0
  4 17  1  0  0  0  0
  5  2  1  0  0  0  0
  6  7  1  0  0  0  0
  7 14  1  0  0  0  0
  7 10  1  0  0  0  0
  8 13  2  0  0  0  0
  9 12  1  0  0  0  0
  9 11  1  0  0  0  0
 10  3  1  0  0  0  0
 13 15  1  0  0  0  0
 14  5  1  0  0  0  0
 15 11  2  0  0  0  0
 16  4  1  0  0  0  0
 16  6  1  0  0  0  0
 17 14  1  0  0  0  0
 19 30  1  0  0  0  0
 19 18  1  0  0  0  0
 20 23  2  0  0  0  0
 20 25  1  0  0  0  0
 21 24  2  0  0  0  0
 22 24  1  0  0  0  0
 22 19  1  0  0  0  0
 23 21  1  0  0  0  0
 25 22  2  0  0  0  0
 26 25  1  0  0  0  0
 27 29  2  0  0  0  0
 29 28  1  0  0  0  0
 29 23  1  0  0  0  0
 30 31  1  0  0  0  0
 31 32  1  0  0  0  0
M  END
>  <MODEL>
4

>  <REMARK>
 VINA RESULT:      -6.4      3.576      7.097
  Name = 
  5 active torsions:
  status: ('A' for Active; 'I' for Inactive)
    1  A    between atoms: C_1  and  C_4
    2  A    between atoms: C_1  and  C_27
    3  A    between atoms: C_5  and  C_27
    4  A    between atoms: C_16  and  C_27
    5  A    between atoms: C_19  and  C_26
                            x       y       z     vdW  Elec       q    Type
                         _______ _______ _______ _____ _____    ______ ____

>  <TORSDO>
F 5

$$$$
=
 OpenBabel11052419063D

 32 35  0  0  1  0  0  0  0  0999 V2000
  190.5610  175.0840  146.1150 C   0  0  1  0  0  3  0  0  0  0  0  0
  190.9410  175.4950  144.6690 C   0  0  2  0  0  3  0  0  0  0  0  0
  191.1740  175.9280  147.2450 C   0  0  2  0  0  3  0  0  0  0  0  0
  195.4870  176.3390  144.0140 C   0  0  0  0  0  2  0  0  0  0  0  0
  191.7010  176.8170  144.5070 C   0  0  0  0  0  2  0  0  0  0  0  0
  194.9410  175.5370  146.3100 C   0  0  0  0  0  2  0  0  0  0  0  0
  193.4470  175.6310  146.0100 C   0  0  1  0  0  3  0  0  0  0  0  0
  190.7190  177.3530  147.3270 C   0  0  0  0  0  3  0  0  0  0  0  0
  189.0940  174.7480  146.3780 C   0  0  2  0  0  3  0  0  0  0  0  0
  192.7050  175.8690  147.3310 C   0  0  0  0  0  2  0  0  0  0  0  0
  188.1330  175.8830  146.2190 C   0  0  0  0  0  3  0  0  0  0  0  0
  188.9420  174.1660  147.6380 O   0  0  0  0  0  1  0  0  0  0  0  0
  189.5140  177.8510  147.0410 C   0  0  0  0  0  3  0  0  0  0  0  0
  193.1730  176.7030  144.9240 C   0  0  1  0  0  3  0  0  0  0  0  0
  188.3150  177.1700  146.5220 C   0  0  0  0  0  3  0  0  0  0  0  0
  195.7270  175.2380  145.0390 C   0  0  0  0  0  2  0  0  0  0  0  0
  194.0040  176.4160  143.6730 C   0  0  0  0  0  2  0  0  0  0  0  0
  189.6880  173.4890  143.7800 C   0  0  0  0  0  1  0  0  0  0  0  0
  190.2420  174.8690  143.4320 C   0  0  1  0  0  0  0  0  0  0  0  0
  186.8510  176.0360  141.9920 C   0  0  0  0  0  3  0  0  0  0  0  0
  188.0040  177.9470  142.9030 C   0  0  0  0  0  3  0  0  0  0  0  0
  189.0550  175.7430  143.0050 C   0  0  0  0  0  0  0  0  0  0  0  0
  186.8840  177.4100  142.2650 C   0  0  0  0  0  0  0  0  0  0  0  0
  189.0720  177.1270  143.2660 C   0  0  0  0  0  3  0  0  0  0  0  0
  187.9150  175.2040  142.3500 C   0  0  0  0  0  0  0  0  0  0  0  0
  187.7920  173.7550  142.0130 C   0  0  0  0  0  1  0  0  0  0  0  0
  185.2760  178.2910  140.5430 N   0  0  0  0  0  2  0  0  0  0  0  0
  185.1870  179.0410  142.7630 N   0  0  0  0  0  1  0  0  0  0  0  0
  185.7550  178.2800  141.8850 C   0  0  0  0  0  0  0  0  0  0  0  0
  191.2590  174.7030  142.2790 C   0  0  0  0  0  2  0  0  0  0  0  0
  191.7630  173.2780  142.0620 C   0  0  0  0  0  2  0  0  0  0  0  0
  193.1640  173.1220  142.6160 C   0  0  0  0  0  1  0  0  0  0  0  0
  1  9  1  0  0  0  0
  1  3  1  0  0  0  0
  2  1  1  0  0  0  0
  3  8  1  0  0  0  0
  3 10  1  0  0  0  0
  4 16  1  0  0  0  0
  5  2  1  0  0  0  0
  5 14  1  0  0  0  0
  7  6  1  0  0  0  0
  7 10  1  0  0  0  0
  9 12  1  0  0  0  0
 11  9  1  0  0  0  0
 11 15  2  0  0  0  0
 13  8  2  0  0  0  0
 14  7  1  0  0  0  0
 15 13  1  0  0  0  0
 16  6  1  0  0  0  0
 17  4  1  0  0  0  0
 17 14  1  0  0  0  0
 19 18  1  0  0  0  0
 19  2  1  0  0  0  0
 20 23  2  0  0  0  0
 20 25  1  0  0  0  0
 21 24  2  0  0  0  0
 22 24  1  0  0  0  0
 22 19  1  0  0  0  0
 23 21  1  0  0  0  0
 25 22  2  0  0  0  0
 26 25  1  0  0  0  0
 27 29  2  0  0  0  0
 29 23  1  0  0  0  0
 29 28  1  0  0  0  0
 30 19  1  0  0  0  0
 31 30  1  0  0  0  0
 31 32  1  0  0  0  0
M  END
>  <MODEL>
5

>  <REMARK>
 VINA RESULT:      -6.4      2.036      5.386
  Name = 
  5 active torsions:
  status: ('A' for Active; 'I' for Inactive)
    1  A    between atoms: C_1  and  C_4
    2  A    between atoms: C_1  and  C_27
    3  A    between atoms: C_5  and  C_27
    4  A    between atoms: C_16  and  C_27
    5  A    between atoms: C_19  and  C_26
                            x       y       z     vdW  Elec       q    Type
                         _______ _______ _______ _____ _____    ______ ____

>  <TORSDO>
F 5

$$$$
=
 OpenBabel11052419063D

 32 35  0  0  1  0  0  0  0  0999 V2000
  193.4360  174.9350  144.2840 C   0  0  1  0  0  3  0  0  0  0  0  0
  191.9870  174.6110  143.8360 C   0  0  2  0  0  3  0  0  0  0  0  0
  193.7750  174.6380  145.7550 C   0  0  2  0  0  3  0  0  0  0  0  0
  188.6650  176.0740  146.7730 C   0  0  0  0  0  2  0  0  0  0  0  0
  191.1170  173.8330  144.8310 C   0  0  0  0  0  2  0  0  0  0  0  0
  190.9660  176.7450  147.4550 C   0  0  0  0  0  2  0  0  0  0  0  0
  191.5680  175.8890  146.3440 C   0  0  1  0  0  3  0  0  0  0  0  0
  193.7710  173.1950  146.1550 C   0  0  0  0  0  3  0  0  0  0  0  0
  194.5630  174.5240  143.3390 C   0  0  2  0  0  3  0  0  0  0  0  0
  192.9760  175.4610  146.7750 C   0  0  0  0  0  2  0  0  0  0  0  0
  194.7280  173.0520  143.1320 C   0  0  0  0  0  3  0  0  0  0  0  0
  195.7740  175.0880  143.7440 O   0  0  0  0  0  1  0  0  0  0  0  0
  194.1240  172.1360  145.4240 C   0  0  0  0  0  3  0  0  0  0  0  0
  190.6250  174.7100  145.9890 C   0  0  1  0  0  3  0  0  0  0  0  0
  194.5630  172.0680  144.0190 C   0  0  0  0  0  3  0  0  0  0  0  0
  189.5860  177.2530  147.0550 C   0  0  0  0  0  2  0  0  0  0  0  0
  189.2320  175.2330  145.6370 C   0  0  0  0  0  2  0  0  0  0  0  0
  191.2140  173.2650  141.8420 C   0  0  0  0  0  1  0  0  0  0  0  0
  191.5630  174.6660  142.3430 C   0  0  1  0  0  0  0  0  0  0  0  0
  189.1160  177.6560  142.3980 C   0  0  0  0  0  3  0  0  0  0  0  0
  187.9750  175.7390  141.4840 C   0  0  0  0  0  3  0  0  0  0  0  0
  190.3060  175.5320  142.1890 C   0  0  0  0  0  0  0  0  0  0  0  0
  187.9580  177.0850  141.8550 C   0  0  0  0  0  0  0  0  0  0  0  0
  189.1300  174.9760  141.6500 C   0  0  0  0  0  3  0  0  0  0  0  0
  190.2790  176.9010  142.5690 C   0  0  0  0  0  0  0  0  0  0  0  0
  191.4610  177.5940  143.1610 C   0  0  0  0  0  1  0  0  0  0  0  0
  185.9940  177.8110  140.4610 N   0  0  0  0  0  2  0  0  0  0  0  0
  186.3200  178.6750  142.6160 N   0  0  0  0  0  1  0  0  0  0  0  0
  186.7340  177.8910  141.6750 C   0  0  0  0  0  0  0  0  0  0  0  0
  192.7270  175.2080  141.4820 C   0  0  0  0  0  2  0  0  0  0  0  0
  192.9880  174.4390  140.1890 C   0  0  0  0  0  2  0  0  0  0  0  0
  194.3330  174.8240  139.6070 C   0  0  0  0  0  1  0  0  0  0  0  0
  1  3  1  0  0  0  0
  2  1  1  0  0  0  0
  2  5  1  0  0  0  0
  3  8  1  0  0  0  0
  3 10  1  0  0  0  0
  4 16  1  0  0  0  0
  5 14  1  0  0  0  0
  7 10  1  0  0  0  0
  7  6  1  0  0  0  0
  9 12  1  0  0  0  0
  9  1  1  0  0  0  0
 11  9  1  0  0  0  0
 11 15  2  0  0  0  0
 13  8  2  0  0  0  0
 14  7  1  0  0  0  0
 15 13  1  0  0  0  0
 16  6  1  0  0  0  0
 17 14  1  0  0  0  0
 17  4  1  0  0  0  0
 18 19  1  0  0  0  0
 19  2  1  0  0  0  0
 20 25  1  0  0  0  0
 21 24  2  0  0  0  0
 21 23  1  0  0  0  0
 22 19  1  0  0  0  0
 22 25  2  0  0  0  0
 23 20  2  0  0  0  0
 24 22  1  0  0  0  0
 25 26  1  0  0  0  0
 27 29  2  0  0  0  0
 29 23  1  0  0  0  0
 29 28  1  0  0  0  0
 30 19  1  0  0  0  0
 31 30  1  0  0  0  0
 32 31  1  0  0  0  0
M  END
>  <MODEL>
6

>  <REMARK>
 VINA RESULT:      -6.3      1.858      4.479
  Name = 
  5 active torsions:
  status: ('A' for Active; 'I' for Inactive)
    1  A    between atoms: C_1  and  C_4
    2  A    between atoms: C_1  and  C_27
    3  A    between atoms: C_5  and  C_27
    4  A    between atoms: C_16  and  C_27
    5  A    between atoms: C_19  and  C_26
                            x       y       z     vdW  Elec       q    Type
                         _______ _______ _______ _____ _____    ______ ____

>  <TORSDO>
F 5

$$$$
=
 OpenBabel11052419063D

 32 35  0  0  1  0  0  0  0  0999 V2000
  193.1880  173.0330  142.8670 C   0  0  1  0  0  3  0  0  0  0  0  0
  192.3180  173.3790  144.1020 C   0  0  2  0  0  3  0  0  0  0  0  0
  194.6990  172.8920  143.1170 C   0  0  2  0  0  3  0  0  0  0  0  0
  194.0180  176.8000  146.7880 C   0  0  0  0  0  2  0  0  0  0  0  0
  193.0130  173.3280  145.4690 C   0  0  0  0  0  2  0  0  0  0  0  0
  195.3670  176.3790  144.7360 C   0  0  0  0  0  2  0  0  0  0  0  0
  194.5280  175.1450  144.4110 C   0  0  1  0  0  3  0  0  0  0  0  0
  195.1220  171.7400  143.9750 C   0  0  0  0  0  3  0  0  0  0  0  0
  192.6580  171.9540  141.9240 C   0  0  2  0  0  3  0  0  0  0  0  0
  195.3920  174.1750  143.5970 C   0  0  0  0  0  2  0  0  0  0  0  0
  192.5570  170.5800  142.5060 C   0  0  0  0  0  3  0  0  0  0  0  0
  193.4050  171.9210  140.7450 O   0  0  0  0  0  1  0  0  0  0  0  0
  194.5710  170.5270  144.0560 C   0  0  0  0  0  3  0  0  0  0  0  0
  193.9310  174.5340  145.7050 C   0  0  1  0  0  3  0  0  0  0  0  0
  193.3770  169.9900  143.3780 C   0  0  0  0  0  3  0  0  0  0  0  0
  194.5390  177.4090  145.4930 C   0  0  0  0  0  2  0  0  0  0  0  0
  193.1430  175.5920  146.4780 C   0  0  0  0  0  2  0  0  0  0  0  0
  190.2380  172.0490  144.6420 C   0  0  0  0  0  1  0  0  0  0  0  0
  190.7660  173.3510  144.0420 C   0  0  1  0  0  0  0  0  0  0  0  0
  189.7850  176.8800  145.2710 C   0  0  0  0  0  3  0  0  0  0  0  0
  188.9380  175.2530  146.8350 C   0  0  0  0  0  3  0  0  0  0  0  0
  190.1910  174.5040  144.8750 C   0  0  0  0  0  0  0  0  0  0  0  0
  189.0810  176.5870  146.4460 C   0  0  0  0  0  0  0  0  0  0  0  0
  189.4850  174.2300  146.0620 C   0  0  0  0  0  3  0  0  0  0  0  0
  190.3380  175.8640  144.4890 C   0  0  0  0  0  0  0  0  0  0  0  0
  191.0750  176.2740  143.2570 C   0  0  0  0  0  1  0  0  0  0  0  0
  187.0950  177.9130  147.2370 N   0  0  0  0  0  2  0  0  0  0  0  0
  189.2520  178.4020  148.0160 N   0  0  0  0  0  1  0  0  0  0  0  0
  188.4990  177.6680  147.2650 C   0  0  0  0  0  0  0  0  0  0  0  0
  190.2930  173.4300  142.5720 C   0  0  0  0  0  2  0  0  0  0  0  0
  188.8470  173.0010  142.3350 C   0  0  0  0  0  2  0  0  0  0  0  0
  187.9840  174.2050  142.0140 C   0  0  0  0  0  1  0  0  0  0  0  0
  1  3  1  0  0  0  0
  1  2  1  0  0  0  0
  2  5  1  0  0  0  0
  3 10  1  0  0  0  0
  3  8  1  0  0  0  0
  5 14  1  0  0  0  0
  6 16  1  0  0  0  0
  7  6  1  0  0  0  0
  7 14  1  0  0  0  0
  8 13  2  0  0  0  0
  9 11  1  0  0  0  0
  9  1  1  0  0  0  0
 10  7  1  0  0  0  0
 11 15  2  0  0  0  0
 12  9  1  0  0  0  0
 14 17  1  0  0  0  0
 15 13  1  0  0  0  0
 16  4  1  0  0  0  0
 17  4  1  0  0  0  0
 19  2  1  0  0  0  0
 19 18  1  0  0  0  0
 19 22  1  0  0  0  0
 20 23  1  0  0  0  0
 22 24  2  0  0  0  0
 23 21  2  0  0  0  0
 23 29  1  0  0  0  0
 24 21  1  0  0  0  0
 25 22  1  0  0  0  0
 25 20  2  0  0  0  0
 26 25  1  0  0  0  0
 27 29  2  0  0  0  0
 29 28  1  0  0  0  0
 30 19  1  0  0  0  0
 31 30  1  0  0  0  0
 32 31  1  0  0  0  0
M  END
>  <MODEL>
7

>  <REMARK>
 VINA RESULT:      -6.3      1.908      4.739
  Name = 
  5 active torsions:
  status: ('A' for Active; 'I' for Inactive)
    1  A    between atoms: C_1  and  C_4
    2  A    between atoms: C_1  and  C_27
    3  A    between atoms: C_5  and  C_27
    4  A    between atoms: C_16  and  C_27
    5  A    between atoms: C_19  and  C_26
                            x       y       z     vdW  Elec       q    Type
                         _______ _______ _______ _____ _____    ______ ____

>  <TORSDO>
F 5

$$$$
=
 OpenBabel11052419063D

 32 35  0  0  1  0  0  0  0  0999 V2000
  190.4800  176.1420  143.4150 C   0  0  1  0  0  3  0  0  0  0  0  0
  191.0960  174.9360  144.1700 C   0  0  2  0  0  3  0  0  0  0  0  0
  189.0410  175.9590  142.9010 C   0  0  2  0  0  3  0  0  0  0  0  0
  190.4420  170.8000  142.1040 C   0  0  0  0  0  2  0  0  0  0  0  0
  190.1460  173.7830  144.5160 C   0  0  0  0  0  2  0  0  0  0  0  0
  189.5680  172.7250  140.7830 C   0  0  0  0  0  2  0  0  0  0  0  0
  189.8500  173.6760  141.9440 C   0  0  1  0  0  3  0  0  0  0  0  0
  187.9780  175.8270  143.9460 C   0  0  0  0  0  3  0  0  0  0  0  0
  190.7030  177.5270  144.0180 C   0  0  2  0  0  3  0  0  0  0  0  0
  188.8720  174.8540  141.8490 C   0  0  0  0  0  2  0  0  0  0  0  0
  190.0670  177.7620  145.3510 C   0  0  0  0  0  3  0  0  0  0  0  0
  190.3150  178.5230  143.1210 O   0  0  0  0  0  1  0  0  0  0  0  0
  187.9210  176.4150  145.1430 C   0  0  0  0  0  3  0  0  0  0  0  0
  189.8040  172.9180  143.2960 C   0  0  1  0  0  3  0  0  0  0  0  0
  188.8930  177.3100  145.7980 C   0  0  0  0  0  3  0  0  0  0  0  0
  190.5530  171.5620  140.7900 C   0  0  0  0  0  2  0  0  0  0  0  0
  190.7620  171.7270  143.2690 C   0  0  0  0  0  2  0  0  0  0  0  0
  192.2170  175.1600  146.4240 C   0  0  0  0  0  1  0  0  0  0  0  0
  192.4520  175.0480  144.9190 C   0  0  1  0  0  0  0  0  0  0  0  0
  194.5140  172.2560  143.2190 C   0  0  0  0  0  3  0  0  0  0  0  0
  194.3910  171.7970  145.5820 C   0  0  0  0  0  3  0  0  0  0  0  0
  193.2860  173.7820  144.6800 C   0  0  0  0  0  0  0  0  0  0  0  0
  194.8440  171.4420  144.3090 C   0  0  0  0  0  0  0  0  0  0  0  0
  193.6230  172.9480  145.7620 C   0  0  0  0  0  3  0  0  0  0  0  0
  193.7450  173.4110  143.3870 C   0  0  0  0  0  0  0  0  0  0  0  0
  193.4400  174.2120  142.1650 C   0  0  0  0  0  1  0  0  0  0  0  0
  197.0260  170.2090  144.5210 N   0  0  0  0  0  1  0  0  0  0  0  0
  195.1420  169.1640  143.5960 N   0  0  0  0  0  2  0  0  0  0  0  0
  195.6580  170.2260  144.1220 C   0  0  0  0  0  0  0  0  0  0  0  0
  193.2090  176.3140  144.4540 C   0  0  0  0  0  2  0  0  0  0  0  0
  194.5140  176.5940  145.1950 C   0  0  0  0  0  2  0  0  0  0  0  0
  195.6970  176.4290  144.2630 C   0  0  0  0  0  1  0  0  0  0  0  0
  1  9  1  0  0  0  0
  1  2  1  0  0  0  0
  2  5  1  0  0  0  0
  2 19  1  0  0  0  0
  3  1  1  0  0  0  0
  3  8  1  0  0  0  0
  4 17  1  0  0  0  0
  6 16  1  0  0  0  0
  6  7  1  0  0  0  0
  7 14  1  0  0  0  0
  8 13  2  0  0  0  0
  9 11  1  0  0  0  0
 10  7  1  0  0  0  0
 10  3  1  0  0  0  0
 11 15  2  0  0  0  0
 12  9  1  0  0  0  0
 13 15  1  0  0  0  0
 14  5  1  0  0  0  0
 16  4  1  0  0  0  0
 17 14  1  0  0  0  0
 19 18  1  0  0  0  0
 20 25  2  0  0  0  0
 20 23  1  0  0  0  0
 21 24  1  0  0  0  0
 22 19  1  0  0  0  0
 22 24  2  0  0  0  0
 23 21  2  0  0  0  0
 25 22  1  0  0  0  0
 26 25  1  0  0  0  0
 28 29  2  0  0  0  0
 29 23  1  0  0  0  0
 29 27  1  0  0  0  0
 30 19  1  0  0  0  0
 30 31  1  0  0  0  0
 32 31  1  0  0  0  0
M  END
>  <MODEL>
8

>  <REMARK>
 VINA RESULT:      -6.2      3.830      6.388
  Name = 
  5 active torsions:
  status: ('A' for Active; 'I' for Inactive)
    1  A    between atoms: C_1  and  C_4
    2  A    between atoms: C_1  and  C_27
    3  A    between atoms: C_5  and  C_27
    4  A    between atoms: C_16  and  C_27
    5  A    between atoms: C_19  and  C_26
                            x       y       z     vdW  Elec       q    Type
                         _______ _______ _______ _____ _____    ______ ____

>  <TORSDO>
F 5

$$$$
=
 OpenBabel11052419063D

 32 35  0  0  1  0  0  0  0  0999 V2000
  186.6660  176.5320  145.6310 C   0  0  1  0  0  3  0  0  0  0  0  0
  187.5270  177.1140  144.4810 C   0  0  2  0  0  3  0  0  0  0  0  0
  187.2990  176.5570  147.0340 C   0  0  2  0  0  3  0  0  0  0  0  0
  191.9770  175.6980  144.4660 C   0  0  0  0  0  2  0  0  0  0  0  0
  188.8120  177.8460  144.8860 C   0  0  0  0  0  2  0  0  0  0  0  0
  190.5930  174.6230  146.2390 C   0  0  0  0  0  2  0  0  0  0  0  0
  189.4210  175.5460  145.9130 C   0  0  1  0  0  3  0  0  0  0  0  0
  187.5250  177.9100  147.6320 C   0  0  0  0  0  3  0  0  0  0  0  0
  185.1890  176.9210  145.6600 C   0  0  2  0  0  3  0  0  0  0  0  0
  188.5700  175.7080  147.1780 C   0  0  0  0  0  2  0  0  0  0  0  0
  184.9080  178.3710  145.8950 C   0  0  0  0  0  3  0  0  0  0  0  0
  184.4930  176.1430  146.5850 O   0  0  0  0  0  1  0  0  0  0  0  0
  186.7800  179.0090  147.4920 C   0  0  0  0  0  3  0  0  0  0  0  0
  189.9270  176.8820  145.3100 C   0  0  1  0  0  3  0  0  0  0  0  0
  185.5680  179.2250  146.6820 C   0  0  0  0  0  3  0  0  0  0  0  0
  191.4430  174.3740  144.9990 C   0  0  0  0  0  2  0  0  0  0  0  0
  190.8170  176.6140  144.0960 C   0  0  0  0  0  2  0  0  0  0  0  0
  187.4170  178.6840  142.5040 C   0  0  0  0  0  1  0  0  0  0  0  0
  186.9440  177.3420  143.0590 C   0  0  1  0  0  0  0  0  0  0  0  0
  187.8160  175.3490  139.8660 C   0  0  0  0  0  3  0  0  0  0  0  0
  188.5390  174.0860  141.7880 C   0  0  0  0  0  3  0  0  0  0  0  0
  187.4480  176.2500  142.1070 C   0  0  0  0  0  0  0  0  0  0  0  0
  188.4240  174.2060  140.4010 C   0  0  0  0  0  0  0  0  0  0  0  0
  188.0570  175.0910  142.6260 C   0  0  0  0  0  3  0  0  0  0  0  0
  187.3300  176.3620  140.6950 C   0  0  0  0  0  0  0  0  0  0  0  0
  186.6930  177.5390  140.0340 C   0  0  0  0  0  1  0  0  0  0  0  0
  189.6700  172.0480  140.0610 N   0  0  0  0  0  1  0  0  0  0  0  0
  188.7270  173.1870  138.2430 N   0  0  0  0  0  2  0  0  0  0  0  0
  188.9370  173.1410  139.5170 C   0  0  0  0  0  0  0  0  0  0  0  0
  185.3990  177.3640  143.1200 C   0  0  0  0  0  2  0  0  0  0  0  0
  184.7460  178.6060  142.5170 C   0  0  0  0  0  2  0  0  0  0  0  0
  183.3410  178.2900  142.0470 C   0  0  0  0  0  1  0  0  0  0  0  0
  1  9  1  0  0  0  0
  1  3  1  0  0  0  0
  2  5  1  0  0  0  0
  2  1  1  0  0  0  0
  3 10  1  0  0  0  0
  3  8  1  0  0  0  0
  4 16  1  0  0  0  0
  5 14  1  0  0  0  0
  7  6  1  0  0  0  0
  7 10  1  0  0  0  0
  9 11  1  0  0  0  0
  9 12  1  0  0  0  0
 11 15  2  0  0  0  0
 13  8  2  0  0  0  0
 14  7  1  0  0  0  0
 15 13  1  0  0  0  0
 16  6  1  0  0  0  0
 17  4  1  0  0  0  0
 17 14  1  0  0  0  0
 18 19  1  0  0  0  0
 19 30  1  0  0  0  0
 19  2  1  0  0  0  0
 20 23  2  0  0  0  0
 20 25  1  0  0  0  0
 21 24  2  0  0  0  0
 22 24  1  0  0  0  0
 22 19  1  0  0  0  0
 23 21  1  0  0  0  0
 25 22  2  0  0  0  0
 26 25  1  0  0  0  0
 28 29  2  0  0  0  0
 29 27  1  0  0  0  0
 29 23  1  0  0  0  0
 31 30  1  0  0  0  0
 32 31  1  0  0  0  0
M  END
>  <MODEL>
9

>  <REMARK>
 VINA RESULT:      -6.1      3.658      7.440
  Name = 
  5 active torsions:
  status: ('A' for Active; 'I' for Inactive)
    1  A    between atoms: C_1  and  C_4
    2  A    between atoms: C_1  and  C_27
    3  A    between atoms: C_5  and  C_27
    4  A    between atoms: C_16  and  C_27
    5  A    between atoms: C_19  and  C_26
                            x       y       z     vdW  Elec       q    Type
                         _______ _______ _______ _____ _____    ______ ____

>  <TORSDO>
F 5

$$$$
