=
 OpenBabel11052417183D

 30 33  0  0  1  0  0  0  0  0999 V2000
  186.8700  177.4630  142.4300 C   0  0  0  0  0  2  0  0  0  0  0  0
  185.0140  177.8820  140.7680 C   0  0  0  0  0  0  0  0  0  0  0  0
  184.1710  178.4740  145.6040 C   0  0  0  0  0  3  0  0  0  0  0  0
  187.0140  176.7150  143.7600 C   0  0  2  0  0  3  0  0  0  0  0  0
  184.5670  178.3260  146.9350 C   0  0  0  0  0  3  0  0  0  0  0  0
  183.7040  178.2740  140.4750 C   0  0  0  0  0  3  0  0  0  0  0  0
  185.9370  177.5830  139.6350 C   0  0  0  0  0  1  0  0  0  0  0  0
  184.9700  177.9740  144.5620 C   0  0  0  0  0  0  0  0  0  0  0  0
  182.8140  178.5790  141.5060 C   0  0  0  0  0  3  0  0  0  0  0  0
  185.4370  177.7850  142.1070 C   0  0  0  0  0  0  0  0  0  0  0  0
  186.1890  177.3320  144.8700 C   0  0  0  0  0  0  0  0  0  0  0  0
  185.7580  177.6650  147.2390 C   0  0  0  0  0  3  0  0  0  0  0  0
  186.5580  177.1610  146.2130 C   0  0  0  0  0  3  0  0  0  0  0  0
  183.2280  178.4930  142.8350 C   0  0  0  0  0  3  0  0  0  0  0  0
  184.5380  178.0990  143.1490 C   0  0  0  0  0  0  0  0  0  0  0  0
  188.4280  176.5640  144.1180 N   0  0  0  0  0  0  0  0  0  0  0  0
  189.9900  173.1830  143.4920 C   0  0  0  0  0  3  0  0  0  0  0  0
  189.1370  174.7900  141.9320 O   0  0  0  0  0  1  0  0  0  0  0  0
  189.0460  175.2690  144.3290 C   0  0  0  0  0  0  0  0  0  0  0  0
  189.2890  174.8180  145.6380 C   0  0  0  0  0  3  0  0  0  0  0  0
  189.3950  174.4250  143.2480 C   0  0  0  0  0  0  0  0  0  0  0  0
  190.2340  172.7590  144.7980 C   0  0  0  0  0  3  0  0  0  0  0  0
  189.8800  173.5750  145.8720 C   0  0  0  0  0  3  0  0  0  0  0  0
  189.1850  177.8030  144.2590 C   0  0  0  0  0  2  0  0  0  0  0  0
  190.2160  177.9160  143.1480 C   0  0  0  0  0  2  0  0  0  0  0  0
  191.6150  177.9340  143.7330 C   0  0  0  0  0  2  0  0  0  0  0  0
  192.2760  176.6630  143.4800 N   0  0  0  0  0  2  0  0  0  0  0  0
  192.5570  176.1580  145.7430 O   0  0  0  0  0  0  0  0  0  0  0  0
  192.7240  175.8200  144.5410 C   0  0  0  0  0  0  0  0  0  0  0  0
  193.3650  174.5870  144.2390 N   0  0  0  0  0  1  0  0  0  0  0  0
  1  4  1  0  0  0  0
  2 10  1  0  0  0  0
  3  5  1  0  0  0  0
  4 16  1  1  0  0  0
  4 11  1  0  0  0  0
  5 12  2  0  0  0  0
  6  2  2  0  0  0  0
  6  9  1  0  0  0  0
  7  2  1  0  0  0  0
  8 11  1  0  0  0  0
  8  3  2  0  0  0  0
  9 14  2  0  0  0  0
 10  1  1  0  0  0  0
 10 15  2  0  0  0  0
 11 13  2  0  0  0  0
 13 12  1  0  0  0  0
 14 15  1  0  0  0  0
 15  8  1  0  0  0  0
 16 24  1  0  0  0  0
 16 19  1  0  0  0  0
 17 22  1  0  0  0  0
 18 21  1  0  0  0  0
 19 20  2  0  0  0  0
 20 23  1  0  0  0  0
 21 17  2  0  0  0  0
 21 19  1  0  0  0  0
 22 23  2  0  0  0  0
 25 26  1  0  0  0  0
 25 24  1  0  0  0  0
 27 26  1  0  0  0  0
 27 29  1  0  0  0  0
 29 28  2  0  0  0  0
 30 29  1  0  0  0  0
M  END
>  <MODEL>
1

>  <REMARK>
 VINA RESULT:      -7.8      0.000      0.000
  Name = 
  6 active torsions:
  status: ('A' for Active; 'I' for Inactive)
    1  A    between atoms: C_4  and  N_13
    2  A    between atoms: N_7  and  C_16
    3  A    between atoms: C_8  and  N_13
    4  A    between atoms: N_13  and  C_27
    5  A    between atoms: C_16  and  C_30
    6  A    between atoms: C_27  and  C_30
                            x       y       z     vdW  Elec       q    Type
                         _______ _______ _______ _____ _____    ______ ____

>  <TORSDO>
F 6

$$$$
=
 OpenBabel11052417183D

 30 33  0  0  1  0  0  0  0  0999 V2000
  187.5620  176.5870  144.8990 C   0  0  0  0  0  2  0  0  0  0  0  0
  185.9010  177.5050  146.5680 C   0  0  0  0  0  0  0  0  0  0  0  0
  185.0810  178.0480  141.7230 C   0  0  0  0  0  3  0  0  0  0  0  0
  188.2500  177.1000  143.6290 C   0  0  2  0  0  3  0  0  0  0  0  0
  185.5160  177.9630  140.3990 C   0  0  0  0  0  3  0  0  0  0  0  0
  184.6960  178.1500  146.8610 C   0  0  0  0  0  3  0  0  0  0  0  0
  186.7150  176.9700  147.6990 C   0  0  0  0  0  1  0  0  0  0  0  0
  185.9540  177.7480  142.7810 C   0  0  0  0  0  0  0  0  0  0  0  0
  183.8970  178.6510  145.8320 C   0  0  0  0  0  3  0  0  0  0  0  0
  186.3190  177.3670  145.2310 C   0  0  0  0  0  0  0  0  0  0  0  0
  187.2760  177.3430  142.4950 C   0  0  0  0  0  0  0  0  0  0  0  0
  186.8300  177.5910  140.1180 C   0  0  0  0  0  3  0  0  0  0  0  0
  187.7090  177.2940  141.1610 C   0  0  0  0  0  3  0  0  0  0  0  0
  184.3000  178.5100  144.5040 C   0  0  0  0  0  3  0  0  0  0  0  0
  185.5080  177.8680  144.1900 C   0  0  0  0  0  0  0  0  0  0  0  0
  189.3580  176.2170  143.2500 N   0  0  0  0  0  0  0  0  0  0  0  0
  189.6880  172.6750  144.5180 C   0  0  0  0  0  3  0  0  0  0  0  0
  190.4270  174.7310  145.5020 O   0  0  0  0  0  1  0  0  0  0  0  0
  189.2720  174.7720  143.3470 C   0  0  0  0  0  0  0  0  0  0  0  0
  188.6830  174.0380  142.3040 C   0  0  0  0  0  3  0  0  0  0  0  0
  189.7890  174.0690  144.4600 C   0  0  0  0  0  0  0  0  0  0  0  0
  189.0880  171.9650  143.4780 C   0  0  0  0  0  3  0  0  0  0  0  0
  188.5880  172.6460  142.3680 C   0  0  0  0  0  3  0  0  0  0  0  0
  190.5650  176.8800  142.7720 C   0  0  0  0  0  2  0  0  0  0  0  0
  191.0960  177.8300  143.8330 C   0  0  0  0  0  2  0  0  0  0  0  0
  192.3130  177.2310  144.5110 C   0  0  0  0  0  2  0  0  0  0  0  0
  192.9550  176.2730  143.6250 N   0  0  0  0  0  2  0  0  0  0  0  0
  195.0980  176.6650  144.4670 O   0  0  0  0  0  0  0  0  0  0  0  0
  194.3630  176.0400  143.6580 C   0  0  0  0  0  0  0  0  0  0  0  0
  194.9400  175.0920  142.7680 N   0  0  0  0  0  1  0  0  0  0  0  0
  1 10  1  0  0  0  0
  2  6  1  0  0  0  0
  2  7  1  0  0  0  0
  3  8  1  0  0  0  0
  4 16  1  6  0  0  0
  4  1  1  0  0  0  0
  5  3  2  0  0  0  0
  8 15  1  0  0  0  0
  9  6  2  0  0  0  0
 10  2  2  0  0  0  0
 11  8  2  0  0  0  0
 11  4  1  0  0  0  0
 12  5  1  0  0  0  0
 12 13  2  0  0  0  0
 13 11  1  0  0  0  0
 14  9  1  0  0  0  0
 15 14  2  0  0  0  0
 15 10  1  0  0  0  0
 16 19  1  0  0  0  0
 19 21  2  0  0  0  0
 20 23  2  0  0  0  0
 20 19  1  0  0  0  0
 21 17  1  0  0  0  0
 21 18  1  0  0  0  0
 22 17  2  0  0  0  0
 23 22  1  0  0  0  0
 24 16  1  0  0  0  0
 24 25  1  0  0  0  0
 25 26  1  0  0  0  0
 27 29  1  0  0  0  0
 27 26  1  0  0  0  0
 29 28  2  0  0  0  0
 30 29  1  0  0  0  0
M  END
>  <MODEL>
2

>  <REMARK>
 VINA RESULT:      -7.8      1.416      3.714
  Name = 
  6 active torsions:
  status: ('A' for Active; 'I' for Inactive)
    1  A    between atoms: C_4  and  N_13
    2  A    between atoms: N_7  and  C_16
    3  A    between atoms: C_8  and  N_13
    4  A    between atoms: N_13  and  C_27
    5  A    between atoms: C_16  and  C_30
    6  A    between atoms: C_27  and  C_30
                            x       y       z     vdW  Elec       q    Type
                         _______ _______ _______ _____ _____    ______ ____

>  <TORSDO>
F 6

$$$$
=
 OpenBabel11052417183D

 30 33  0  0  1  0  0  0  0  0999 V2000
  187.7090  176.5410  146.2170 C   0  0  0  0  0  2  0  0  0  0  0  0
  185.6890  177.9620  146.7540 C   0  0  0  0  0  0  0  0  0  0  0  0
  186.6330  176.6910  142.0700 C   0  0  0  0  0  3  0  0  0  0  0  0
  188.8400  176.5750  145.1830 C   0  0  2  0  0  3  0  0  0  0  0  0
  187.4810  176.1430  141.1050 C   0  0  0  0  0  3  0  0  0  0  0  0
  184.5330  178.6390  146.3540 C   0  0  0  0  0  3  0  0  0  0  0  0
  186.0050  177.8920  148.2100 C   0  0  0  0  0  1  0  0  0  0  0  0
  187.0560  176.8160  143.4030 C   0  0  0  0  0  0  0  0  0  0  0  0
  184.1920  178.7130  145.0030 C   0  0  0  0  0  3  0  0  0  0  0  0
  186.5200  177.3580  145.7910 C   0  0  0  0  0  0  0  0  0  0  0  0
  188.3440  176.3670  143.7670 C   0  0  0  0  0  0  0  0  0  0  0  0
  188.7650  175.7260  141.4600 C   0  0  0  0  0  3  0  0  0  0  0  0
  189.1970  175.8490  142.7820 C   0  0  0  0  0  3  0  0  0  0  0  0
  185.0060  178.1100  144.0430 C   0  0  0  0  0  3  0  0  0  0  0  0
  186.1710  177.4280  144.4240 C   0  0  0  0  0  0  0  0  0  0  0  0
  189.9080  175.6420  145.5550 N   0  0  0  0  0  0  0  0  0  0  0  0
  193.2580  176.5540  147.0440 C   0  0  0  0  0  3  0  0  0  0  0  0
  191.2300  175.8800  148.1290 O   0  0  0  0  0  1  0  0  0  0  0  0
  191.2920  176.0550  145.6900 C   0  0  0  0  0  0  0  0  0  0  0  0
  192.0340  176.3930  144.5450 C   0  0  0  0  0  3  0  0  0  0  0  0
  191.9210  176.1530  146.9540 C   0  0  0  0  0  0  0  0  0  0  0  0
  193.9800  176.8730  145.8940 C   0  0  0  0  0  3  0  0  0  0  0  0
  193.3670  176.7960  144.6440 C   0  0  0  0  0  3  0  0  0  0  0  0
  189.4990  174.2610  145.7770 C   0  0  0  0  0  2  0  0  0  0  0  0
  190.4890  173.3100  145.1230 C   0  0  0  0  0  2  0  0  0  0  0  0
  189.7530  172.1590  144.4650 C   0  0  0  0  0  2  0  0  0  0  0  0
  190.1730  172.0260  143.0800 N   0  0  0  0  0  2  0  0  0  0  0  0
  188.0450  172.4420  142.2110 O   0  0  0  0  0  0  0  0  0  0  0  0
  189.2590  172.1820  141.9950 C   0  0  0  0  0  0  0  0  0  0  0  0
  189.7220  172.0420  140.6570 N   0  0  0  0  0  1  0  0  0  0  0  0
  2  7  1  0  0  0  0
  3  8  1  0  0  0  0
  4 16  1  1  0  0  0
  4  1  1  0  0  0  0
  5 12  1  0  0  0  0
  5  3  2  0  0  0  0
  6  2  1  0  0  0  0
  8 11  2  0  0  0  0
  8 15  1  0  0  0  0
  9  6  2  0  0  0  0
 10  1  1  0  0  0  0
 10  2  2  0  0  0  0
 11  4  1  0  0  0  0
 12 13  2  0  0  0  0
 13 11  1  0  0  0  0
 14 15  2  0  0  0  0
 14  9  1  0  0  0  0
 15 10  1  0  0  0  0
 16 19  1  0  0  0  0
 16 24  1  0  0  0  0
 19 21  2  0  0  0  0
 20 23  2  0  0  0  0
 20 19  1  0  0  0  0
 21 17  1  0  0  0  0
 21 18  1  0  0  0  0
 22 17  2  0  0  0  0
 23 22  1  0  0  0  0
 25 24  1  0  0  0  0
 26 25  1  0  0  0  0
 27 26  1  0  0  0  0
 29 28  2  0  0  0  0
 29 27  1  0  0  0  0
 30 29  1  0  0  0  0
M  END
>  <MODEL>
3

>  <REMARK>
 VINA RESULT:      -7.5      2.005      5.003
  Name = 
  6 active torsions:
  status: ('A' for Active; 'I' for Inactive)
    1  A    between atoms: C_4  and  N_13
    2  A    between atoms: N_7  and  C_16
    3  A    between atoms: C_8  and  N_13
    4  A    between atoms: N_13  and  C_27
    5  A    between atoms: C_16  and  C_30
    6  A    between atoms: C_27  and  C_30
                            x       y       z     vdW  Elec       q    Type
                         _______ _______ _______ _____ _____    ______ ____

>  <TORSDO>
F 6

$$$$
=
 OpenBabel11052417183D

 30 33  0  0  1  0  0  0  0  0999 V2000
  187.5690  176.5760  144.9210 C   0  0  0  0  0  2  0  0  0  0  0  0
  185.8990  177.4740  146.5910 C   0  0  0  0  0  0  0  0  0  0  0  0
  185.0970  178.0580  141.7480 C   0  0  0  0  0  3  0  0  0  0  0  0
  188.2610  177.1020  143.6580 C   0  0  2  0  0  3  0  0  0  0  0  0
  185.5380  177.9870  140.4240 C   0  0  0  0  0  3  0  0  0  0  0  0
  184.6910  178.1120  146.8850 C   0  0  0  0  0  3  0  0  0  0  0  0
  186.7100  176.9310  147.7200 C   0  0  0  0  0  1  0  0  0  0  0  0
  185.9680  177.7510  142.8060 C   0  0  0  0  0  0  0  0  0  0  0  0
  183.8950  178.6200  145.8570 C   0  0  0  0  0  3  0  0  0  0  0  0
  186.3230  177.3490  145.2540 C   0  0  0  0  0  0  0  0  0  0  0  0
  187.2920  177.3520  142.5220 C   0  0  0  0  0  0  0  0  0  0  0  0
  186.8550  177.6210  140.1460 C   0  0  0  0  0  3  0  0  0  0  0  0
  187.7300  177.3170  141.1900 C   0  0  0  0  0  3  0  0  0  0  0  0
  184.3040  178.4930  144.5290 C   0  0  0  0  0  3  0  0  0  0  0  0
  185.5150  177.8570  144.2140 C   0  0  0  0  0  0  0  0  0  0  0  0
  189.3740  176.2260  143.2760 N   0  0  0  0  0  0  0  0  0  0  0  0
  188.9170  172.5390  142.5960 C   0  0  0  0  0  3  0  0  0  0  0  0
  188.5800  174.4180  141.1480 O   0  0  0  0  0  1  0  0  0  0  0  0
  189.3270  174.7860  143.4470 C   0  0  0  0  0  0  0  0  0  0  0  0
  189.6410  174.2230  144.6960 C   0  0  0  0  0  3  0  0  0  0  0  0
  188.9490  173.9220  142.3920 C   0  0  0  0  0  0  0  0  0  0  0  0
  189.2450  171.9990  143.8400 C   0  0  0  0  0  3  0  0  0  0  0  0
  189.6030  172.8410  144.8920 C   0  0  0  0  0  3  0  0  0  0  0  0
  190.5430  176.8900  142.7150 C   0  0  0  0  0  2  0  0  0  0  0  0
  191.8120  176.3290  143.3360 C   0  0  0  0  0  2  0  0  0  0  0  0
  192.2280  177.1700  144.5280 C   0  0  0  0  0  2  0  0  0  0  0  0
  192.2750  176.3460  145.7250 N   0  0  0  0  0  2  0  0  0  0  0  0
  190.3500  177.2840  146.6590 O   0  0  0  0  0  0  0  0  0  0  0  0
  191.2960  176.4570  146.7580 C   0  0  0  0  0  0  0  0  0  0  0  0
  191.3890  175.6280  147.9090 N   0  0  0  0  0  1  0  0  0  0  0  0
  1 10  1  0  0  0  0
  2  6  1  0  0  0  0
  2  7  1  0  0  0  0
  3  8  1  0  0  0  0
  4 16  1  6  0  0  0
  4  1  1  0  0  0  0
  5  3  2  0  0  0  0
  8 15  1  0  0  0  0
  9  6  2  0  0  0  0
 10  2  2  0  0  0  0
 11  8  2  0  0  0  0
 11  4  1  0  0  0  0
 12  5  1  0  0  0  0
 12 13  2  0  0  0  0
 13 11  1  0  0  0  0
 14  9  1  0  0  0  0
 15 14  2  0  0  0  0
 15 10  1  0  0  0  0
 16 19  1  0  0  0  0
 17 22  1  0  0  0  0
 18 21  1  0  0  0  0
 19 20  2  0  0  0  0
 20 23  1  0  0  0  0
 21 17  2  0  0  0  0
 21 19  1  0  0  0  0
 22 23  2  0  0  0  0
 24 16  1  0  0  0  0
 24 25  1  0  0  0  0
 25 26  1  0  0  0  0
 26 27  1  0  0  0  0
 27 29  1  0  0  0  0
 28 29  2  0  0  0  0
 29 30  1  0  0  0  0
M  END
>  <MODEL>
4

>  <REMARK>
 VINA RESULT:      -7.4      1.483      3.654
  Name = 
  6 active torsions:
  status: ('A' for Active; 'I' for Inactive)
    1  A    between atoms: C_4  and  N_13
    2  A    between atoms: N_7  and  C_16
    3  A    between atoms: C_8  and  N_13
    4  A    between atoms: N_13  and  C_27
    5  A    between atoms: C_16  and  C_30
    6  A    between atoms: C_27  and  C_30
                            x       y       z     vdW  Elec       q    Type
                         _______ _______ _______ _____ _____    ______ ____

>  <TORSDO>
F 6

$$$$
=
 OpenBabel11052417183D

 30 33  0  0  1  0  0  0  0  0999 V2000
  187.7950  176.8350  142.0410 C   0  0  0  0  0  2  0  0  0  0  0  0
  185.7680  177.6200  140.7500 C   0  0  0  0  0  0  0  0  0  0  0  0
  185.7030  177.6420  145.6940 C   0  0  0  0  0  3  0  0  0  0  0  0
  188.0540  175.9100  143.2350 C   0  0  2  0  0  3  0  0  0  0  0  0
  186.2710  177.2890  146.9200 C   0  0  0  0  0  3  0  0  0  0  0  0
  184.4770  178.1530  140.7150 C   0  0  0  0  0  3  0  0  0  0  0  0
  186.4820  177.3960  139.4600 C   0  0  0  0  0  1  0  0  0  0  0  0
  186.2870  177.2180  144.4890 C   0  0  0  0  0  0  0  0  0  0  0  0
  183.7810  178.3930  141.9010 C   0  0  0  0  0  3  0  0  0  0  0  0
  186.3700  177.3140  141.9860 C   0  0  0  0  0  0  0  0  0  0  0  0
  187.4660  176.4430  144.5240 C   0  0  0  0  0  0  0  0  0  0  0  0
  187.4200  176.4980  146.9550 C   0  0  0  0  0  3  0  0  0  0  0  0
  188.0070  176.0680  145.7630 C   0  0  0  0  0  3  0  0  0  0  0  0
  184.3730  178.1000  143.1290 C   0  0  0  0  0  3  0  0  0  0  0  0
  185.6680  177.5620  143.1860 C   0  0  0  0  0  0  0  0  0  0  0  0
  189.4830  175.5980  143.3460 N   0  0  0  0  0  0  0  0  0  0  0  0
  190.7290  172.2660  142.0790 C   0  0  0  0  0  3  0  0  0  0  0  0
  189.9830  174.1890  140.8580 O   0  0  0  0  0  1  0  0  0  0  0  0
  189.9900  174.2400  143.3030 C   0  0  0  0  0  0  0  0  0  0  0  0
  190.2230  173.5460  144.5030 C   0  0  0  0  0  3  0  0  0  0  0  0
  190.2390  173.5760  142.0790 C   0  0  0  0  0  0  0  0  0  0  0  0
  190.9660  171.5980  143.2800 C   0  0  0  0  0  3  0  0  0  0  0  0
  190.7090  172.2370  144.4930 C   0  0  0  0  0  3  0  0  0  0  0  0
  190.3730  176.7410  143.5120 C   0  0  0  0  0  2  0  0  0  0  0  0
  191.8030  176.3410  143.1880 C   0  0  0  0  0  2  0  0  0  0  0  0
  192.6810  176.4990  144.4150 C   0  0  0  0  0  2  0  0  0  0  0  0
  191.8570  176.7430  145.5880 N   0  0  0  0  0  2  0  0  0  0  0  0
  192.7320  174.9430  146.7940 O   0  0  0  0  0  0  0  0  0  0  0  0
  191.9360  175.9190  146.7510 C   0  0  0  0  0  0  0  0  0  0  0  0
  191.1070  176.2010  147.8710 N   0  0  0  0  0  1  0  0  0  0  0  0
  1  4  1  0  0  0  0
  2 10  1  0  0  0  0
  3  5  1  0  0  0  0
  4 16  1  1  0  0  0
  4 11  1  0  0  0  0
  5 12  2  0  0  0  0
  6  2  2  0  0  0  0
  6  9  1  0  0  0  0
  7  2  1  0  0  0  0
  8 11  1  0  0  0  0
  8  3  2  0  0  0  0
  9 14  2  0  0  0  0
 10  1  1  0  0  0  0
 10 15  2  0  0  0  0
 11 13  2  0  0  0  0
 13 12  1  0  0  0  0
 14 15  1  0  0  0  0
 15  8  1  0  0  0  0
 16 24  1  0  0  0  0
 17 22  1  0  0  0  0
 18 21  1  0  0  0  0
 19 16  1  0  0  0  0
 19 20  2  0  0  0  0
 21 17  2  0  0  0  0
 21 19  1  0  0  0  0
 22 23  2  0  0  0  0
 23 20  1  0  0  0  0
 25 24  1  0  0  0  0
 25 26  1  0  0  0  0
 26 27  1  0  0  0  0
 27 29  1  0  0  0  0
 29 28  2  0  0  0  0
 29 30  1  0  0  0  0
M  END
>  <MODEL>
5

>  <REMARK>
 VINA RESULT:      -7.2      1.520      1.842
  Name = 
  6 active torsions:
  status: ('A' for Active; 'I' for Inactive)
    1  A    between atoms: C_4  and  N_13
    2  A    between atoms: N_7  and  C_16
    3  A    between atoms: C_8  and  N_13
    4  A    between atoms: N_13  and  C_27
    5  A    between atoms: C_16  and  C_30
    6  A    between atoms: C_27  and  C_30
                            x       y       z     vdW  Elec       q    Type
                         _______ _______ _______ _____ _____    ______ ____

>  <TORSDO>
F 6

$$$$
=
 OpenBabel11052417183D

 30 33  0  0  1  0  0  0  0  0999 V2000
  187.1730  176.3790  144.8910 C   0  0  0  0  0  2  0  0  0  0  0  0
  185.5790  177.5130  146.4920 C   0  0  0  0  0  0  0  0  0  0  0  0
  185.0390  178.1410  141.6170 C   0  0  0  0  0  3  0  0  0  0  0  0
  187.9740  176.7930  143.6530 C   0  0  2  0  0  3  0  0  0  0  0  0
  185.5140  177.9960  140.3120 C   0  0  0  0  0  3  0  0  0  0  0  0
  184.4580  178.3110  146.7350 C   0  0  0  0  0  3  0  0  0  0  0  0
  186.2680  176.8800  147.6540 C   0  0  0  0  0  1  0  0  0  0  0  0
  185.8210  177.7330  142.7100 C   0  0  0  0  0  0  0  0  0  0  0  0
  183.7750  178.9090  145.6750 C   0  0  0  0  0  3  0  0  0  0  0  0
  186.0310  177.3160  145.1730 C   0  0  0  0  0  0  0  0  0  0  0  0
  187.0890  177.1570  142.4790 C   0  0  0  0  0  0  0  0  0  0  0  0
  186.7800  177.4540  140.0860 C   0  0  0  0  0  3  0  0  0  0  0  0
  187.5680  177.0480  141.1640 C   0  0  0  0  0  3  0  0  0  0  0  0
  184.2110  178.7120  144.3640 C   0  0  0  0  0  3  0  0  0  0  0  0
  185.3360  177.9160  144.0990 C   0  0  0  0  0  0  0  0  0  0  0  0
  188.9720  175.7710  143.3180 N   0  0  0  0  0  0  0  0  0  0  0  0
  192.2980  175.4290  145.0750 C   0  0  0  0  0  3  0  0  0  0  0  0
  190.1640  174.4930  145.6360 O   0  0  0  0  0  1  0  0  0  0  0  0
  190.3760  175.9120  143.6550 C   0  0  0  0  0  0  0  0  0  0  0  0
  191.2050  176.7230  142.8610 C   0  0  0  0  0  3  0  0  0  0  0  0
  190.9390  175.2700  144.7830 C   0  0  0  0  0  0  0  0  0  0  0  0
  193.1070  176.2290  144.2680 C   0  0  0  0  0  3  0  0  0  0  0  0
  192.5590  176.8790  143.1620 C   0  0  0  0  0  3  0  0  0  0  0  0
  188.4700  174.5980  142.6130 C   0  0  0  0  0  2  0  0  0  0  0  0
  189.5960  173.9290  141.8410 C   0  0  0  0  0  2  0  0  0  0  0  0
  189.2860  172.4600  141.6300 C   0  0  0  0  0  2  0  0  0  0  0  0
  189.8490  172.0080  140.3680 N   0  0  0  0  0  2  0  0  0  0  0  0
  187.9650  172.5930  139.1160 O   0  0  0  0  0  0  0  0  0  0  0  0
  189.1270  172.1060  139.1400 C   0  0  0  0  0  0  0  0  0  0  0  0
  189.7250  171.6490  137.9330 N   0  0  0  0  0  1  0  0  0  0  0  0
  1 10  1  0  0  0  0
  2  6  1  0  0  0  0
  2  7  1  0  0  0  0
  3  8  1  0  0  0  0
  4 16  1  6  0  0  0
  4  1  1  0  0  0  0
  5  3  2  0  0  0  0
  8 15  1  0  0  0  0
  9  6  2  0  0  0  0
 10  2  2  0  0  0  0
 11  8  2  0  0  0  0
 11  4  1  0  0  0  0
 12  5  1  0  0  0  0
 12 13  2  0  0  0  0
 13 11  1  0  0  0  0
 14  9  1  0  0  0  0
 15 14  2  0  0  0  0
 15 10  1  0  0  0  0
 16 19  1  0  0  0  0
 19 21  2  0  0  0  0
 20 23  2  0  0  0  0
 20 19  1  0  0  0  0
 21 17  1  0  0  0  0
 21 18  1  0  0  0  0
 22 17  2  0  0  0  0
 23 22  1  0  0  0  0
 24 16  1  0  0  0  0
 25 24  1  0  0  0  0
 26 25  1  0  0  0  0
 27 26  1  0  0  0  0
 28 29  2  0  0  0  0
 29 27  1  0  0  0  0
 30 29  1  0  0  0  0
M  END
>  <MODEL>
6

>  <REMARK>
 VINA RESULT:      -7.1      2.391      4.942
  Name = 
  6 active torsions:
  status: ('A' for Active; 'I' for Inactive)
    1  A    between atoms: C_4  and  N_13
    2  A    between atoms: N_7  and  C_16
    3  A    between atoms: C_8  and  N_13
    4  A    between atoms: N_13  and  C_27
    5  A    between atoms: C_16  and  C_30
    6  A    between atoms: C_27  and  C_30
                            x       y       z     vdW  Elec       q    Type
                         _______ _______ _______ _____ _____    ______ ____

>  <TORSDO>
F 6

$$$$
=
 OpenBabel11052417183D

 30 33  0  0  1  0  0  0  0  0999 V2000
  189.2500  175.0930  143.6610 C   0  0  0  0  0  2  0  0  0  0  0  0
  189.7560  172.8530  142.6040 C   0  0  0  0  0  0  0  0  0  0  0  0
  187.3570  176.3150  140.0140 C   0  0  0  0  0  3  0  0  0  0  0  0
  188.0310  176.0170  143.7600 C   0  0  2  0  0  3  0  0  0  0  0  0
  186.6900  177.5410  139.9470 C   0  0  0  0  0  3  0  0  0  0  0  0
  189.7250  171.9880  141.5070 C   0  0  0  0  0  3  0  0  0  0  0  0
  190.4640  172.4100  143.8400 C   0  0  0  0  0  1  0  0  0  0  0  0
  187.8170  175.8200  141.2460 C   0  0  0  0  0  0  0  0  0  0  0  0
  189.0870  172.3710  140.3260 C   0  0  0  0  0  3  0  0  0  0  0  0
  189.1350  174.1140  142.5240 C   0  0  0  0  0  0  0  0  0  0  0  0
  187.6150  176.5800  142.4180 C   0  0  0  0  0  0  0  0  0  0  0  0
  186.4660  178.2780  141.1100 C   0  0  0  0  0  3  0  0  0  0  0  0
  186.9150  177.7940  142.3400 C   0  0  0  0  0  3  0  0  0  0  0  0
  188.4760  173.6220  140.2360 C   0  0  0  0  0  3  0  0  0  0  0  0
  188.4950  174.5040  141.3270 C   0  0  0  0  0  0  0  0  0  0  0  0
  188.2520  177.0560  144.7710 N   0  0  0  0  0  0  0  0  0  0  0  0
  185.9420  177.2500  147.7530 C   0  0  0  0  0  3  0  0  0  0  0  0
  187.6680  175.6660  147.2520 O   0  0  0  0  0  1  0  0  0  0  0  0
  187.2120  177.4880  145.6860 C   0  0  0  0  0  0  0  0  0  0  0  0
  186.4190  178.6020  145.3620 C   0  0  0  0  0  3  0  0  0  0  0  0
  186.9530  176.8030  146.8960 C   0  0  0  0  0  0  0  0  0  0  0  0
  185.1740  178.3660  147.4190 C   0  0  0  0  0  3  0  0  0  0  0  0
  185.4100  179.0410  146.2220 C   0  0  0  0  0  3  0  0  0  0  0  0
  189.5870  177.6420  144.8000 C   0  0  0  0  0  2  0  0  0  0  0  0
  190.1540  177.5830  146.2090 C   0  0  0  0  0  2  0  0  0  0  0  0
  191.0390  176.3620  146.3660 C   0  0  0  0  0  2  0  0  0  0  0  0
  192.0860  176.3740  145.3570 N   0  0  0  0  0  2  0  0  0  0  0  0
  193.8010  176.7910  146.8870 O   0  0  0  0  0  0  0  0  0  0  0  0
  193.4560  176.5960  145.6910 C   0  0  0  0  0  0  0  0  0  0  0  0
  194.4400  176.5980  144.6640 N   0  0  0  0  0  1  0  0  0  0  0  0
  1  4  1  0  0  0  0
  2  7  1  0  0  0  0
  3  8  1  0  0  0  0
  4 16  1  1  0  0  0
  5  3  2  0  0  0  0
  5 12  1  0  0  0  0
  6  2  2  0  0  0  0
  8 15  1  0  0  0  0
  8 11  2  0  0  0  0
  9  6  1  0  0  0  0
 10  2  1  0  0  0  0
 10  1  1  0  0  0  0
 11  4  1  0  0  0  0
 12 13  2  0  0  0  0
 13 11  1  0  0  0  0
 14  9  2  0  0  0  0
 14 15  1  0  0  0  0
 15 10  2  0  0  0  0
 16 24  1  0  0  0  0
 16 19  1  0  0  0  0
 19 21  1  0  0  0  0
 20 19  2  0  0  0  0
 20 23  1  0  0  0  0
 21 18  1  0  0  0  0
 21 17  2  0  0  0  0
 22 17  1  0  0  0  0
 23 22  2  0  0  0  0
 24 25  1  0  0  0  0
 25 26  1  0  0  0  0
 27 29  1  0  0  0  0
 27 26  1  0  0  0  0
 29 28  2  0  0  0  0
 30 29  1  0  0  0  0
M  END
>  <MODEL>
7

>  <REMARK>
 VINA RESULT:      -6.6      2.050      5.413
  Name = 
  6 active torsions:
  status: ('A' for Active; 'I' for Inactive)
    1  A    between atoms: C_4  and  N_13
    2  A    between atoms: N_7  and  C_16
    3  A    between atoms: C_8  and  N_13
    4  A    between atoms: N_13  and  C_27
    5  A    between atoms: C_16  and  C_30
    6  A    between atoms: C_27  and  C_30
                            x       y       z     vdW  Elec       q    Type
                         _______ _______ _______ _____ _____    ______ ____

>  <TORSDO>
F 6

$$$$
=
 OpenBabel11052417183D

 30 33  0  0  1  0  0  0  0  0999 V2000
  188.3540  176.3230  143.7200 C   0  0  0  0  0  2  0  0  0  0  0  0
  186.1650  177.2840  144.5400 C   0  0  0  0  0  0  0  0  0  0  0  0
  190.0120  176.9340  147.6260 C   0  0  0  0  0  3  0  0  0  0  0  0
  189.3730  175.3010  144.2350 C   0  0  2  0  0  3  0  0  0  0  0  0
  191.2930  176.4660  147.9250 C   0  0  0  0  0  3  0  0  0  0  0  0
  185.3910  177.8690  145.5450 C   0  0  0  0  0  3  0  0  0  0  0  0
  185.5690  177.1290  143.1810 C   0  0  0  0  0  1  0  0  0  0  0  0
  189.3860  176.5800  146.4200 C   0  0  0  0  0  0  0  0  0  0  0  0
  185.9160  178.0460  146.8260 C   0  0  0  0  0  3  0  0  0  0  0  0
  187.4790  176.8610  144.8190 C   0  0  0  0  0  0  0  0  0  0  0  0
  190.0710  175.7580  145.4990 C   0  0  0  0  0  0  0  0  0  0  0  0
  191.9580  175.6310  147.0270 C   0  0  0  0  0  3  0  0  0  0  0  0
  191.3450  175.2690  145.8260 C   0  0  0  0  0  3  0  0  0  0  0  0
  187.2200  177.6370  147.1080 C   0  0  0  0  0  3  0  0  0  0  0  0
  188.0130  177.0460  146.1130 C   0  0  0  0  0  0  0  0  0  0  0  0
  190.3100  174.9250  143.1710 N   0  0  0  0  0  0  0  0  0  0  0  0
  189.9550  171.9330  140.8930 C   0  0  0  0  0  3  0  0  0  0  0  0
  189.2190  174.1930  140.5820 O   0  0  0  0  0  1  0  0  0  0  0  0
  190.3880  173.5770  142.6400 C   0  0  0  0  0  0  0  0  0  0  0  0
  190.9800  172.5600  143.4080 C   0  0  0  0  0  3  0  0  0  0  0  0
  189.8600  173.2450  141.3710 C   0  0  0  0  0  0  0  0  0  0  0  0
  190.5580  170.9400  141.6650 C   0  0  0  0  0  3  0  0  0  0  0  0
  191.0670  171.2520  142.9260 C   0  0  0  0  0  3  0  0  0  0  0  0
  191.1730  175.9910  142.6760 C   0  0  0  0  0  2  0  0  0  0  0  0
  192.5770  175.4590  142.4380 C   0  0  0  0  0  2  0  0  0  0  0  0
  193.5910  176.3030  143.1880 C   0  0  0  0  0  2  0  0  0  0  0  0
  194.5800  175.4460  143.8210 N   0  0  0  0  0  2  0  0  0  0  0  0
  196.3930  176.7810  143.1990 O   0  0  0  0  0  0  0  0  0  0  0  0
  195.9750  175.7480  143.7870 C   0  0  0  0  0  0  0  0  0  0  0  0
  196.9000  174.8750  144.4230 N   0  0  0  0  0  1  0  0  0  0  0  0
  1  4  1  0  0  0  0
  1 10  1  0  0  0  0
  2 10  2  0  0  0  0
  2  6  1  0  0  0  0
  3  5  1  0  0  0  0
  4 16  1  6  0  0  0
  4 11  1  0  0  0  0
  6  9  2  0  0  0  0
  7  2  1  0  0  0  0
  8  3  2  0  0  0  0
  9 14  1  0  0  0  0
 10 15  1  0  0  0  0
 11 13  2  0  0  0  0
 11  8  1  0  0  0  0
 12  5  2  0  0  0  0
 13 12  1  0  0  0  0
 15  8  1  0  0  0  0
 15 14  2  0  0  0  0
 17 21  2  0  0  0  0
 17 22  1  0  0  0  0
 18 21  1  0  0  0  0
 19 16  1  0  0  0  0
 19 20  2  0  0  0  0
 21 19  1  0  0  0  0
 22 23  2  0  0  0  0
 23 20  1  0  0  0  0
 24 16  1  0  0  0  0
 25 24  1  0  0  0  0
 25 26  1  0  0  0  0
 26 27  1  0  0  0  0
 28 29  2  0  0  0  0
 29 27  1  0  0  0  0
 29 30  1  0  0  0  0
M  END
>  <MODEL>
8

>  <REMARK>
 VINA RESULT:      -6.5      2.201      4.216
  Name = 
  6 active torsions:
  status: ('A' for Active; 'I' for Inactive)
    1  A    between atoms: C_4  and  N_13
    2  A    between atoms: N_7  and  C_16
    3  A    between atoms: C_8  and  N_13
    4  A    between atoms: N_13  and  C_27
    5  A    between atoms: C_16  and  C_30
    6  A    between atoms: C_27  and  C_30
                            x       y       z     vdW  Elec       q    Type
                         _______ _______ _______ _____ _____    ______ ____

>  <TORSDO>
F 6

$$$$
=
 OpenBabel11052417183D

 30 33  0  0  1  0  0  0  0  0999 V2000
  190.0020  174.5890  143.2750 C   0  0  0  0  0  2  0  0  0  0  0  0
  189.9950  172.6880  141.6090 C   0  0  0  0  0  0  0  0  0  0  0  0
  187.3630  176.7730  140.6980 C   0  0  0  0  0  3  0  0  0  0  0  0
  188.9480  175.4910  143.9260 C   0  0  2  0  0  3  0  0  0  0  0  0
  186.8270  177.9930  141.1150 C   0  0  0  0  0  3  0  0  0  0  0  0
  189.5970  172.1390  140.3870 C   0  0  0  0  0  3  0  0  0  0  0  0
  190.9510  171.9180  142.4580 C   0  0  0  0  0  1  0  0  0  0  0  0
  188.0740  175.9620  141.5970 C   0  0  0  0  0  0  0  0  0  0  0  0
  188.7170  172.8350  139.5560 C   0  0  0  0  0  3  0  0  0  0  0  0
  189.5020  173.9440  142.0110 C   0  0  0  0  0  0  0  0  0  0  0  0
  188.2570  176.3960  142.9270 C   0  0  0  0  0  0  0  0  0  0  0  0
  186.9830  178.4080  142.4380 C   0  0  0  0  0  3  0  0  0  0  0  0
  187.6850  177.6090  143.3420 C   0  0  0  0  0  3  0  0  0  0  0  0
  188.2300  174.0830  139.9440 C   0  0  0  0  0  3  0  0  0  0  0  0
  188.6170  174.6500  141.1680 C   0  0  0  0  0  0  0  0  0  0  0  0
  189.5240  176.2250  145.0580 N   0  0  0  0  0  0  0  0  0  0  0  0
  193.2220  176.9850  144.9760 C   0  0  0  0  0  3  0  0  0  0  0  0
  191.4450  177.8700  143.6340 O   0  0  0  0  0  1  0  0  0  0  0  0
  190.9430  176.2090  145.3570 C   0  0  0  0  0  0  0  0  0  0  0  0
  191.4360  175.3440  146.3480 C   0  0  0  0  0  3  0  0  0  0  0  0
  191.8610  177.0280  144.6580 C   0  0  0  0  0  0  0  0  0  0  0  0
  193.6900  176.1290  145.9720 C   0  0  0  0  0  3  0  0  0  0  0  0
  192.7970  175.3040  146.6570 C   0  0  0  0  0  3  0  0  0  0  0  0
  188.5790  176.9720  145.8780 C   0  0  0  0  0  2  0  0  0  0  0  0
  187.7930  176.0230  146.7680 C   0  0  0  0  0  2  0  0  0  0  0  0
  186.5920  176.7360  147.3610 C   0  0  0  0  0  2  0  0  0  0  0  0
  185.7130  177.1980  146.2990 N   0  0  0  0  0  2  0  0  0  0  0  0
  185.6580  179.4040  147.0660 O   0  0  0  0  0  0  0  0  0  0  0  0
  185.2830  178.5560  146.2130 C   0  0  0  0  0  0  0  0  0  0  0  0
  184.4220  178.9560  145.1540 N   0  0  0  0  0  1  0  0  0  0  0  0
  1  4  1  0  0  0  0
  2 10  1  0  0  0  0
  2  7  1  0  0  0  0
  3  5  2  0  0  0  0
  3  8  1  0  0  0  0
  4 16  1  1  0  0  0
  5 12  1  0  0  0  0
  6  2  2  0  0  0  0
  8 11  2  0  0  0  0
  9 14  2  0  0  0  0
  9  6  1  0  0  0  0
 10  1  1  0  0  0  0
 11 13  1  0  0  0  0
 11  4  1  0  0  0  0
 12 13  2  0  0  0  0
 14 15  1  0  0  0  0
 15  8  1  0  0  0  0
 15 10  2  0  0  0  0
 16 19  1  0  0  0  0
 16 24  1  0  0  0  0
 17 22  1  0  0  0  0
 18 21  1  0  0  0  0
 19 20  2  0  0  0  0
 20 23  1  0  0  0  0
 21 17  2  0  0  0  0
 21 19  1  0  0  0  0
 22 23  2  0  0  0  0
 24 25  1  0  0  0  0
 25 26  1  0  0  0  0
 27 26  1  0  0  0  0
 29 27  1  0  0  0  0
 29 28  2  0  0  0  0
 30 29  1  0  0  0  0
M  END
>  <MODEL>
9

>  <REMARK>
 VINA RESULT:      -6.5      2.616      5.765
  Name = 
  6 active torsions:
  status: ('A' for Active; 'I' for Inactive)
    1  A    between atoms: C_4  and  N_13
    2  A    between atoms: N_7  and  C_16
    3  A    between atoms: C_8  and  N_13
    4  A    between atoms: N_13  and  C_27
    5  A    between atoms: C_16  and  C_30
    6  A    between atoms: C_27  and  C_30
                            x       y       z     vdW  Elec       q    Type
                         _______ _______ _______ _____ _____    ______ ____

>  <TORSDO>
F 6

$$$$
