=
 OpenBabel11052421263D

 32 37  0  0  1  0  0  0  0  0999 V2000
  193.4110  176.3020  146.6340 C   0  0  0  0  0  2  0  0  0  0  0  0
  188.5300  175.3170  144.8160 C   0  0  2  0  0  3  0  0  0  0  0  0
  186.3250  178.8450  147.4820 C   0  0  0  0  0  3  0  0  0  0  0  0
  185.1930  178.7570  146.6730 C   0  0  0  0  0  3  0  0  0  0  0  0
  188.0200  176.2640  142.4540 C   0  0  0  0  0  0  0  0  0  0  0  0
  186.9210  176.9860  141.8760 C   0  0  0  0  0  0  0  0  0  0  0  0
  190.8060  174.6300  145.4390 N   0  0  2  0  0  0  0  0  0  0  0  0
  189.7020  176.3180  146.8160 C   0  0  0  0  0  2  0  0  0  0  0  0
  184.5060  178.1710  141.2290 C   0  0  0  0  0  0  0  0  0  0  0  0
  192.0970  175.7990  147.2150 C   0  0  0  0  0  2  0  0  0  0  0  0
  187.4510  178.0730  147.1920 C   0  0  0  0  0  3  0  0  0  0  0  0
  188.6230  176.3800  145.8250 N   0  0  0  0  0  0  0  0  0  0  0  0
  187.4660  177.2070  146.0850 C   0  0  0  0  0  0  0  0  0  0  0  0
  186.2870  176.2250  144.0430 C   0  0  2  0  0  3  0  0  0  0  0  0
  185.5740  178.2000  140.3110 C   0  0  0  0  0  3  0  0  0  0  0  0
  193.1100  175.0370  144.4800 C   0  0  0  0  0  2  0  0  0  0  0  0
  191.0080  175.9020  146.1550 C   0  0  1  0  0  3  0  0  0  0  0  0
  186.8020  177.5970  140.6290 C   0  0  0  0  0  3  0  0  0  0  0  0
  192.0330  174.0290  144.8900 C   0  0  0  0  0  2  0  0  0  0  0  0
  194.0400  175.2980  145.6660 C   0  0  1  0  0  3  0  0  0  0  0  0
  185.1930  177.9090  145.5650 C   0  0  0  0  0  3  0  0  0  0  0  0
  186.3260  177.1480  145.2420 C   0  0  0  0  0  0  0  0  0  0  0  0
  184.6570  177.5430  142.4760 C   0  0  0  0  0  3  0  0  0  0  0  0
  189.9140  174.8920  144.3150 C   0  0  0  0  0  2  0  0  0  0  0  0
  189.1490  176.1100  141.9170 O   0  0  0  0  0  0  0  0  0  0  0  0
  182.9800  178.9200  140.8120 Cl  0  0  0  0  0  0  0  0  0  0  0  0
  187.6420  175.7430  143.7340 N   0  0  0  0  0  0  0  0  0  0  0  0
  185.8900  176.9610  142.7860 C   0  0  0  0  0  0  0  0  0  0  0  0
  196.3570  174.8080  145.2800 O   0  0  0  0  0  1  0  0  0  0  0  0
  195.3920  175.8150  145.1760 C   0  0  1  0  0  3  0  0  0  0  0  0
  195.3000  176.2660  143.7250 C   0  0  0  0  0  2  0  0  0  0  0  0
  196.6760  176.6280  143.1990 C   0  0  0  0  0  1  0  0  0  0  0  0
  1 10  1  0  0  0  0
  2 24  1  6  0  0  0
  2 12  1  0  0  0  0
  4  3  2  0  0  0  0
  5 27  1  0  0  0  0
  6  5  1  0  0  0  0
  6 28  1  0  0  0  0
  7 24  1  6  0  0  0
  7 17  1  0  0  0  0
  9 23  1  0  0  0  0
 11  3  1  0  0  0  0
 12 13  1  0  0  0  0
 12  8  1  0  0  0  0
 13 11  2  0  0  0  0
 14 28  1  6  0  0  0
 14 22  1  0  0  0  0
 15 18  1  0  0  0  0
 15  9  2  0  0  0  0
 16 19  1  0  0  0  0
 16 20  1  0  0  0  0
 17  8  1  1  0  0  0
 17 10  1  0  0  0  0
 18  6  2  0  0  0  0
 19  7  1  0  0  0  0
 20 30  1  6  0  0  0
 20  1  1  0  0  0  0
 21  4  1  0  0  0  0
 22 21  2  0  0  0  0
 22 13  1  0  0  0  0
 23 28  2  0  0  0  0
 25  5  2  0  0  0  0
 26  9  1  0  0  0  0
 27 14  1  0  0  0  0
 27  2  1  0  0  0  0
 30 29  1  6  0  0  0
 31 30  1  0  0  0  0
 32 31  1  0  0  0  0
M  END
>  <MODEL>
1

>  <REMARK>
 VINA RESULT:      -9.1      0.000      0.000
  Name = 
  2 active torsions:
  status: ('A' for Active; 'I' for Inactive)
    1  A    between atoms: C_1  and  C_20
    2  A    between atoms: C_20  and  C_24
                            x       y       z     vdW  Elec       q    Type
                         _______ _______ _______ _____ _____    ______ ____

>  <TORSDO>
F 2

$$$$
=
 OpenBabel11052421263D

 32 37  0  0  1  0  0  0  0  0999 V2000
  195.5080  173.1390  143.6360 C   0  0  0  0  0  2  0  0  0  0  0  0
  191.8190  176.9440  143.5470 C   0  0  2  0  0  3  0  0  0  0  0  0
  188.6320  174.4300  140.7290 C   0  0  0  0  0  3  0  0  0  0  0  0
  187.6130  175.3110  141.0860 C   0  0  0  0  0  3  0  0  0  0  0  0
  190.3620  177.1190  145.6880 C   0  0  0  0  0  0  0  0  0  0  0  0
  188.9540  177.2590  145.9380 C   0  0  0  0  0  0  0  0  0  0  0  0
  194.1470  176.1640  143.6610 N   0  0  2  0  0  0  0  0  0  0  0  0
  192.6050  174.9570  142.2020 C   0  0  0  0  0  2  0  0  0  0  0  0
  186.2260  177.7130  145.8570 C   0  0  0  0  0  0  0  0  0  0  0  0
  194.8820  174.0460  142.5860 C   0  0  0  0  0  2  0  0  0  0  0  0
  189.9020  174.5680  141.2920 C   0  0  0  0  0  3  0  0  0  0  0  0
  191.5020  175.7420  142.7650 N   0  0  0  0  0  0  0  0  0  0  0  0
  190.1700  175.5830  142.2260 C   0  0  0  0  0  0  0  0  0  0  0  0
  189.3580  177.5710  143.6100 C   0  0  2  0  0  3  0  0  0  0  0  0
  186.8560  177.4130  147.0810 C   0  0  0  0  0  3  0  0  0  0  0  0
  195.5280  174.9410  145.3910 C   0  0  0  0  0  2  0  0  0  0  0  0
  193.7330  174.8220  143.2140 C   0  0  1  0  0  3  0  0  0  0  0  0
  188.2410  177.1860  147.1320 C   0  0  0  0  0  3  0  0  0  0  0  0
  195.3420  176.1870  144.5210 C   0  0  0  0  0  2  0  0  0  0  0  0
  196.3700  173.9140  144.6340 C   0  0  1  0  0  3  0  0  0  0  0  0
  187.8580  176.3200  142.0180 C   0  0  0  0  0  3  0  0  0  0  0  0
  189.1200  176.4550  142.6150 C   0  0  0  0  0  0  0  0  0  0  0  0
  186.9750  177.7840  144.6710 C   0  0  0  0  0  3  0  0  0  0  0  0
  193.0480  176.7300  144.4360 C   0  0  0  0  0  2  0  0  0  0  0  0
  191.2270  176.8270  146.5560 O   0  0  0  0  0  0  0  0  0  0  0  0
  184.5010  178.0020  145.8140 Cl  0  0  0  0  0  0  0  0  0  0  0  0
  190.6390  177.3640  144.3030 N   0  0  0  0  0  0  0  0  0  0  0  0
  188.3500  177.5400  144.7340 C   0  0  0  0  0  0  0  0  0  0  0  0
  197.1890  173.5600  146.8620 O   0  0  0  0  0  1  0  0  0  0  0  0
  197.0380  172.9490  145.6140 C   0  0  1  0  0  3  0  0  0  0  0  0
  196.2010  171.6880  145.7770 C   0  0  0  0  0  2  0  0  0  0  0  0
  197.0950  170.4630  145.7920 C   0  0  0  0  0  1  0  0  0  0  0  0
  1 20  1  0  0  0  0
  2 27  1  0  0  0  0
  2 24  1  1  0  0  0
  3  4  2  0  0  0  0
  3 11  1  0  0  0  0
  4 21  1  0  0  0  0
  5  6  1  0  0  0  0
  5 25  2  0  0  0  0
  6 18  1  0  0  0  0
  7 24  1  1  0  0  0
  7 19  1  0  0  0  0
  8 12  1  0  0  0  0
  9 15  1  0  0  0  0
 10 17  1  0  0  0  0
 10  1  1  0  0  0  0
 11 13  2  0  0  0  0
 12  2  1  0  0  0  0
 13 22  1  0  0  0  0
 13 12  1  0  0  0  0
 14 22  1  6  0  0  0
 14 27  1  0  0  0  0
 14 28  1  0  0  0  0
 15 18  2  0  0  0  0
 17  8  1  6  0  0  0
 17  7  1  0  0  0  0
 19 16  1  0  0  0  0
 20 16  1  0  0  0  0
 20 30  1  1  0  0  0
 21 22  2  0  0  0  0
 23 28  1  0  0  0  0
 23  9  2  0  0  0  0
 26  9  1  0  0  0  0
 27  5  1  0  0  0  0
 28  6  2  0  0  0  0
 30 31  1  0  0  0  0
 30 29  1  1  0  0  0
 31 32  1  0  0  0  0
M  END
>  <MODEL>
2

>  <REMARK>
 VINA RESULT:      -8.5      2.689      4.914
  Name = 
  2 active torsions:
  status: ('A' for Active; 'I' for Inactive)
    1  A    between atoms: C_1  and  C_20
    2  A    between atoms: C_20  and  C_24
                            x       y       z     vdW  Elec       q    Type
                         _______ _______ _______ _____ _____    ______ ____

>  <TORSDO>
F 2

$$$$
=
 OpenBabel11052421263D

 32 37  0  0  1  0  0  0  0  0999 V2000
  193.1030  171.6440  143.0620 C   0  0  0  0  0  2  0  0  0  0  0  0
  190.7720  176.2860  144.1150 C   0  0  2  0  0  3  0  0  0  0  0  0
  187.5340  176.0300  140.3910 C   0  0  0  0  0  3  0  0  0  0  0  0
  186.7720  177.0400  140.9760 C   0  0  0  0  0  3  0  0  0  0  0  0
  189.0780  176.2500  146.0810 C   0  0  0  0  0  0  0  0  0  0  0  0
  187.7530  176.7690  146.2770 C   0  0  0  0  0  0  0  0  0  0  0  0
  192.7100  174.7750  144.0860 N   0  0  2  0  0  0  0  0  0  0  0  0
  191.1620  174.6890  142.1980 C   0  0  0  0  0  2  0  0  0  0  0  0
  185.3380  178.1150  146.1950 C   0  0  0  0  0  0  0  0  0  0  0  0
  192.9670  172.9930  142.3700 C   0  0  0  0  0  2  0  0  0  0  0  0
  188.6680  175.5450  141.0430 C   0  0  0  0  0  3  0  0  0  0  0  0
  190.2580  175.5770  142.9350 N   0  0  0  0  0  0  0  0  0  0  0  0
  189.0550  176.0570  142.2940 C   0  0  0  0  0  0  0  0  0  0  0  0
  188.6330  177.6500  144.2450 C   0  0  2  0  0  3  0  0  0  0  0  0
  185.6260  177.2480  147.2670 C   0  0  0  0  0  3  0  0  0  0  0  0
  193.3440  172.6760  145.3440 C   0  0  0  0  0  2  0  0  0  0  0  0
  192.0050  173.8680  143.1630 C   0  0  1  0  0  3  0  0  0  0  0  0
  186.8520  176.5640  147.3180 C   0  0  0  0  0  3  0  0  0  0  0  0
  193.6890  174.1190  144.9690 C   0  0  0  0  0  2  0  0  0  0  0  0
  193.9660  171.7230  144.3230 C   0  0  1  0  0  3  0  0  0  0  0  0
  187.1360  177.5550  142.2210 C   0  0  0  0  0  3  0  0  0  0  0  0
  188.2560  177.0590  142.9040 C   0  0  0  0  0  0  0  0  0  0  0  0
  186.2710  178.3040  145.1620 C   0  0  0  0  0  3  0  0  0  0  0  0
  191.7080  175.4000  144.9430 C   0  0  0  0  0  2  0  0  0  0  0  0
  189.6530  175.4240  146.8380 O   0  0  0  0  0  0  0  0  0  0  0  0
  183.8090  178.9660  146.1510 Cl  0  0  0  0  0  0  0  0  0  0  0  0
  189.6530  176.8150  144.8960 N   0  0  0  0  0  0  0  0  0  0  0  0
  187.4800  177.6050  145.2180 C   0  0  0  0  0  0  0  0  0  0  0  0
  194.4920  169.4130  143.9380 O   0  0  0  0  0  1  0  0  0  0  0  0
  194.1380  170.3310  144.9310 C   0  0  1  0  0  3  0  0  0  0  0  0
  195.2200  170.3440  146.0020 C   0  0  0  0  0  2  0  0  0  0  0  0
  195.0960  169.1210  146.8900 C   0  0  0  0  0  1  0  0  0  0  0  0
  1 20  1  0  0  0  0
  2 27  1  0  0  0  0
  2 24  1  1  0  0  0
  3  4  2  0  0  0  0
  3 11  1  0  0  0  0
  4 21  1  0  0  0  0
  5  6  1  0  0  0  0
  5 25  2  0  0  0  0
  6 18  1  0  0  0  0
  7 24  1  1  0  0  0
  7 19  1  0  0  0  0
  8 12  1  0  0  0  0
  9 15  1  0  0  0  0
 10  1  1  0  0  0  0
 10 17  1  0  0  0  0
 11 13  2  0  0  0  0
 12  2  1  0  0  0  0
 13 22  1  0  0  0  0
 13 12  1  0  0  0  0
 14 22  1  6  0  0  0
 14 27  1  0  0  0  0
 14 28  1  0  0  0  0
 15 18  2  0  0  0  0
 17  8  1  6  0  0  0
 17  7  1  0  0  0  0
 19 16  1  0  0  0  0
 20 30  1  1  0  0  0
 20 16  1  0  0  0  0
 21 22  2  0  0  0  0
 23 28  1  0  0  0  0
 23  9  2  0  0  0  0
 26  9  1  0  0  0  0
 27  5  1  0  0  0  0
 28  6  2  0  0  0  0
 30 29  1  6  0  0  0
 30 31  1  0  0  0  0
 31 32  1  0  0  0  0
M  END
>  <MODEL>
3

>  <REMARK>
 VINA RESULT:      -8.0      2.817      4.889
  Name = 
  2 active torsions:
  status: ('A' for Active; 'I' for Inactive)
    1  A    between atoms: C_1  and  C_20
    2  A    between atoms: C_20  and  C_24
                            x       y       z     vdW  Elec       q    Type
                         _______ _______ _______ _____ _____    ______ ____

>  <TORSDO>
F 2

$$$$
=
 OpenBabel11052421263D

 32 37  0  0  1  0  0  0  0  0999 V2000
  184.5030  178.6600  143.8210 C   0  0  0  0  0  2  0  0  0  0  0  0
  189.3250  176.6720  142.8760 C   0  0  2  0  0  3  0  0  0  0  0  0
  190.5410  176.1330  147.6350 C   0  0  0  0  0  3  0  0  0  0  0  0
  191.5920  175.2910  147.2770 C   0  0  0  0  0  3  0  0  0  0  0  0
  189.3730  174.1680  142.1950 C   0  0  0  0  0  0  0  0  0  0  0  0
  190.1650  173.0350  142.5850 C   0  0  0  0  0  0  0  0  0  0  0  0
  187.4040  178.1000  142.3140 N   0  0  2  0  0  0  0  0  0  0  0  0
  188.0400  177.9080  144.6650 C   0  0  0  0  0  2  0  0  0  0  0  0
  192.0670  171.2640  143.5330 C   0  0  0  0  0  0  0  0  0  0  0  0
  185.9410  179.0910  144.0630 C   0  0  0  0  0  2  0  0  0  0  0  0
  189.6810  176.6310  146.6540 C   0  0  0  0  0  3  0  0  0  0  0  0
  188.9830  176.8490  144.2930 N   0  0  0  0  0  0  0  0  0  0  0  0
  189.8540  176.2880  145.3030 C   0  0  0  0  0  0  0  0  0  0  0  0
  191.1370  175.0070  143.5030 C   0  0  2  0  0  3  0  0  0  0  0  0
  190.9820  170.7920  142.7690 C   0  0  0  0  0  3  0  0  0  0  0  0
  185.0270  177.6670  141.5690 C   0  0  0  0  0  2  0  0  0  0  0  0
  186.8780  177.9530  143.6820 C   0  0  1  0  0  3  0  0  0  0  0  0
  190.0140  171.6840  142.2800 C   0  0  0  0  0  3  0  0  0  0  0  0
  186.3800  178.3200  141.2790 C   0  0  0  0  0  2  0  0  0  0  0  0
  184.1410  178.6510  142.3340 C   0  0  1  0  0  3  0  0  0  0  0  0
  191.7740  174.9330  145.9400 C   0  0  0  0  0  3  0  0  0  0  0  0
  190.9020  175.4010  144.9460 C   0  0  0  0  0  0  0  0  0  0  0  0
  192.1930  172.6330  143.8190 C   0  0  0  0  0  3  0  0  0  0  0  0
  188.1020  176.8640  141.9730 C   0  0  0  0  0  2  0  0  0  0  0  0
  188.3100  174.1130  141.5220 O   0  0  0  0  0  0  0  0  0  0  0  0
  193.2680  170.1390  144.1270 Cl  0  0  0  0  0  0  0  0  0  0  0  0
  189.9720  175.3740  142.6840 N   0  0  0  0  0  0  0  0  0  0  0  0
  191.2140  173.5080  143.3400 C   0  0  0  0  0  0  0  0  0  0  0  0
  181.8600  179.2170  142.8200 O   0  0  0  0  0  1  0  0  0  0  0  0
  182.6670  178.2910  142.1520 C   0  0  1  0  0  3  0  0  0  0  0  0
  182.2960  178.2830  140.6760 C   0  0  0  0  0  2  0  0  0  0  0  0
  180.7880  178.3080  140.5130 C   0  0  0  0  0  1  0  0  0  0  0  0
  1 10  1  0  0  0  0
  2 24  1  6  0  0  0
  2 12  1  0  0  0  0
  4  3  1  0  0  0  0
  5  6  1  0  0  0  0
  5 27  1  0  0  0  0
  6 28  1  0  0  0  0
  7 19  1  6  0  0  0
  7 17  1  0  0  0  0
  9 23  1  0  0  0  0
  9 26  1  0  0  0  0
 11  3  2  0  0  0  0
 12  8  1  0  0  0  0
 12 13  1  0  0  0  0
 13 11  1  0  0  0  0
 14 28  1  1  0  0  0
 14 22  1  0  0  0  0
 15  9  2  0  0  0  0
 16 20  1  0  0  0  0
 17 10  1  1  0  0  0
 17  8  1  0  0  0  0
 18  6  2  0  0  0  0
 18 15  1  0  0  0  0
 19 16  1  0  0  0  0
 20 30  1  1  0  0  0
 20  1  1  0  0  0  0
 21  4  2  0  0  0  0
 22 13  2  0  0  0  0
 22 21  1  0  0  0  0
 24  7  1  0  0  0  0
 25  5  2  0  0  0  0
 27  2  1  0  0  0  0
 27 14  1  0  0  0  0
 28 23  2  0  0  0  0
 30 29  1  1  0  0  0
 31 30  1  0  0  0  0
 32 31  1  0  0  0  0
M  END
>  <MODEL>
4

>  <REMARK>
 VINA RESULT:      -7.9      3.672      8.236
  Name = 
  2 active torsions:
  status: ('A' for Active; 'I' for Inactive)
    1  A    between atoms: C_1  and  C_20
    2  A    between atoms: C_20  and  C_24
                            x       y       z     vdW  Elec       q    Type
                         _______ _______ _______ _____ _____    ______ ____

>  <TORSDO>
F 2

$$$$
=
 OpenBabel11052421263D

 32 37  0  0  1  0  0  0  0  0999 V2000
  183.5730  178.4360  142.5200 C   0  0  0  0  0  2  0  0  0  0  0  0
  188.5850  176.7150  142.6370 C   0  0  2  0  0  3  0  0  0  0  0  0
  188.5320  175.4650  147.4170 C   0  0  0  0  0  3  0  0  0  0  0  0
  189.6890  174.7100  147.2390 C   0  0  0  0  0  3  0  0  0  0  0  0
  188.9630  174.3490  141.6400 C   0  0  0  0  0  0  0  0  0  0  0  0
  189.6920  173.1850  142.0610 C   0  0  0  0  0  0  0  0  0  0  0  0
  186.7980  178.1740  141.7900 N   0  0  2  0  0  0  0  0  0  0  0  0
  186.8010  177.6310  144.1710 C   0  0  0  0  0  2  0  0  0  0  0  0
  191.3800  171.3250  143.2210 C   0  0  0  0  0  0  0  0  0  0  0  0
  184.8680  178.8530  143.2030 C   0  0  0  0  0  2  0  0  0  0  0  0
  187.9330  176.0920  146.3240 C   0  0  0  0  0  3  0  0  0  0  0  0
  187.8710  176.6620  143.9190 N   0  0  0  0  0  0  0  0  0  0  0  0
  188.4770  175.9680  145.0340 C   0  0  0  0  0  0  0  0  0  0  0  0
  190.2650  175.0080  143.4830 C   0  0  2  0  0  3  0  0  0  0  0  0
  190.5660  170.9560  142.1320 C   0  0  0  0  0  3  0  0  0  0  0  0
  184.7330  177.8160  140.3750 C   0  0  0  0  0  2  0  0  0  0  0  0
  185.9390  177.8060  142.9280 C   0  0  1  0  0  3  0  0  0  0  0  0
  189.7090  171.8950  141.5340 C   0  0  0  0  0  3  0  0  0  0  0  0
  186.0730  178.5330  140.5590 C   0  0  0  0  0  2  0  0  0  0  0  0
  183.6190  178.6520  141.0060 C   0  0  1  0  0  3  0  0  0  0  0  0
  190.2400  174.5680  145.9640 C   0  0  0  0  0  3  0  0  0  0  0  0
  189.6340  175.1670  144.8500 C   0  0  0  0  0  0  0  0  0  0  0  0
  191.3420  172.6350  143.7260 C   0  0  0  0  0  3  0  0  0  0  0  0
  187.6350  177.0210  141.4750 C   0  0  0  0  0  2  0  0  0  0  0  0
  188.1210  174.3780  140.7040 O   0  0  0  0  0  0  0  0  0  0  0  0
  192.4480  170.1440  143.9480 Cl  0  0  0  0  0  0  0  0  0  0  0  0
  189.3380  175.4750  142.4420 N   0  0  0  0  0  0  0  0  0  0  0  0
  190.4730  173.5540  143.1310 C   0  0  0  0  0  0  0  0  0  0  0  0
  182.3910  177.1420  139.6020 O   0  0  0  0  0  1  0  0  0  0  0  0
  182.2700  178.2950  140.3830 C   0  0  1  0  0  3  0  0  0  0  0  0
  181.2260  178.0540  141.4650 C   0  0  0  0  0  2  0  0  0  0  0  0
  180.1230  179.0900  141.3710 C   0  0  0  0  0  1  0  0  0  0  0  0
  1 10  1  0  0  0  0
  2 24  1  6  0  0  0
  2 12  1  0  0  0  0
  4  3  1  0  0  0  0
  5  6  1  0  0  0  0
  5 27  1  0  0  0  0
  6 28  1  0  0  0  0
  7 19  1  6  0  0  0
  7 17  1  0  0  0  0
  9 23  1  0  0  0  0
  9 26  1  0  0  0  0
 11  3  2  0  0  0  0
 12  8  1  0  0  0  0
 12 13  1  0  0  0  0
 13 11  1  0  0  0  0
 14 28  1  6  0  0  0
 14 22  1  0  0  0  0
 15  9  2  0  0  0  0
 16 19  1  0  0  0  0
 16 20  1  0  0  0  0
 17 10  1  1  0  0  0
 17  8  1  0  0  0  0
 18  6  2  0  0  0  0
 18 15  1  0  0  0  0
 20 30  1  6  0  0  0
 20  1  1  0  0  0  0
 21  4  2  0  0  0  0
 22 13  2  0  0  0  0
 22 21  1  0  0  0  0
 24  7  1  0  0  0  0
 25  5  2  0  0  0  0
 27  2  1  0  0  0  0
 27 14  1  0  0  0  0
 28 23  2  0  0  0  0
 30 29  1  1  0  0  0
 30 31  1  0  0  0  0
 32 31  1  0  0  0  0
M  END
>  <MODEL>
5

>  <REMARK>
 VINA RESULT:      -7.7      3.890      8.342
  Name = 
  2 active torsions:
  status: ('A' for Active; 'I' for Inactive)
    1  A    between atoms: C_1  and  C_20
    2  A    between atoms: C_20  and  C_24
                            x       y       z     vdW  Elec       q    Type
                         _______ _______ _______ _____ _____    ______ ____

>  <TORSDO>
F 2

$$$$
=
 OpenBabel11052421263D

 32 37  0  0  1  0  0  0  0  0999 V2000
  193.4860  174.1290  139.2870 C   0  0  0  0  0  2  0  0  0  0  0  0
  190.2250  173.9100  143.4610 C   0  0  2  0  0  3  0  0  0  0  0  0
  193.2710  176.2780  146.5480 C   0  0  0  0  0  3  0  0  0  0  0  0
  192.2150  176.4960  147.4320 C   0  0  0  0  0  3  0  0  0  0  0  0
  188.2940  175.6430  143.4440 C   0  0  0  0  0  0  0  0  0  0  0  0
  187.7350  176.5360  144.4210 C   0  0  0  0  0  0  0  0  0  0  0  0
  191.1460  173.0220  141.3620 N   0  0  2  0  0  0  0  0  0  0  0  0
  192.6820  174.1190  142.9120 C   0  0  0  0  0  2  0  0  0  0  0  0
  186.9300  177.8990  146.6900 C   0  0  0  0  0  0  0  0  0  0  0  0
  193.4890  173.4660  140.6570 C   0  0  0  0  0  2  0  0  0  0  0  0
  193.0380  175.6480  145.3250 C   0  0  0  0  0  3  0  0  0  0  0  0
  191.5270  174.5420  143.7110 N   0  0  0  0  0  0  0  0  0  0  0  0
  191.7450  175.2340  144.9620 C   0  0  0  0  0  0  0  0  0  0  0  0
  189.2560  175.0590  145.5080 C   0  0  2  0  0  3  0  0  0  0  0  0
  186.3930  178.2420  145.4330 C   0  0  0  0  0  3  0  0  0  0  0  0
  191.0280  173.7190  138.9340 C   0  0  0  0  0  2  0  0  0  0  0  0
  192.2850  173.9520  141.4520 C   0  0  1  0  0  3  0  0  0  0  0  0
  186.7930  177.5520  144.2770 C   0  0  0  0  0  3  0  0  0  0  0  0
  190.7650  172.6430  139.9910 C   0  0  0  0  0  2  0  0  0  0  0  0
  192.4300  173.5300  138.3550 C   0  0  1  0  0  3  0  0  0  0  0  0
  190.9230  176.1000  147.0850 C   0  0  0  0  0  3  0  0  0  0  0  0
  190.6660  175.4920  145.8470 C   0  0  0  0  0  0  0  0  0  0  0  0
  187.8740  176.8660  146.8020 C   0  0  0  0  0  3  0  0  0  0  0  0
  189.9900  173.6770  141.9640 C   0  0  0  0  0  2  0  0  0  0  0  0
  188.0530  175.6780  142.2080 O   0  0  0  0  0  0  0  0  0  0  0  0
  186.4140  178.7630  148.1210 Cl  0  0  0  0  0  0  0  0  0  0  0  0
  189.1660  174.7030  144.0840 N   0  0  0  0  0  0  0  0  0  0  0  0
  188.2750  176.1990  145.6410 C   0  0  0  0  0  0  0  0  0  0  0  0
  191.2520  174.5410  136.5250 O   0  0  0  0  0  1  0  0  0  0  0  0
  192.5240  174.1730  136.9710 C   0  0  1  0  0  3  0  0  0  0  0  0
  193.4120  175.4090  137.0140 C   0  0  0  0  0  2  0  0  0  0  0  0
  192.9070  176.4530  136.0370 C   0  0  0  0  0  1  0  0  0  0  0  0
  1 10  1  0  0  0  0
  2 24  1  6  0  0  0
  2 12  1  0  0  0  0
  2 27  1  0  0  0  0
  3  4  1  0  0  0  0
  5 27  1  0  0  0  0
  5  6  1  0  0  0  0
  6 28  1  0  0  0  0
  7 19  1  6  0  0  0
  7 17  1  0  0  0  0
  7 24  1  0  0  0  0
  8 12  1  0  0  0  0
  9 23  1  0  0  0  0
  9 26  1  0  0  0  0
 11  3  2  0  0  0  0
 12 13  1  0  0  0  0
 13 11  1  0  0  0  0
 13 22  2  0  0  0  0
 14 28  1  6  0  0  0
 14 22  1  0  0  0  0
 15  9  2  0  0  0  0
 16 19  1  0  0  0  0
 17 10  1  6  0  0  0
 17  8  1  0  0  0  0
 18  6  2  0  0  0  0
 18 15  1  0  0  0  0
 20 30  1  6  0  0  0
 20 16  1  0  0  0  0
 20  1  1  0  0  0  0
 21  4  2  0  0  0  0
 22 21  1  0  0  0  0
 25  5  2  0  0  0  0
 27 14  1  0  0  0  0
 28 23  2  0  0  0  0
 30 29  1  1  0  0  0
 30 31  1  0  0  0  0
 32 31  1  0  0  0  0
M  END
>  <MODEL>
6

>  <REMARK>
 VINA RESULT:      -7.7      3.825      5.811
  Name = 
  2 active torsions:
  status: ('A' for Active; 'I' for Inactive)
    1  A    between atoms: C_1  and  C_20
    2  A    between atoms: C_20  and  C_24
                            x       y       z     vdW  Elec       q    Type
                         _______ _______ _______ _____ _____    ______ ____

>  <TORSDO>
F 2

$$$$
=
 OpenBabel11052421263D

 32 37  0  0  1  0  0  0  0  0999 V2000
  188.1920  175.6660  147.2560 C   0  0  0  0  0  2  0  0  0  0  0  0
  190.8280  174.9170  142.7190 C   0  0  2  0  0  3  0  0  0  0  0  0
  192.5030  170.4200  143.8970 C   0  0  0  0  0  3  0  0  0  0  0  0
  192.8230  170.1830  142.5620 C   0  0  0  0  0  3  0  0  0  0  0  0
  189.3600  174.2440  140.6870 C   0  0  0  0  0  0  0  0  0  0  0  0
  189.4650  173.2510  139.6550 C   0  0  0  0  0  0  0  0  0  0  0  0
  189.9310  176.3380  144.5130 N   0  0  2  0  0  0  0  0  0  0  0  0
  190.8280  174.1500  145.1250 C   0  0  0  0  0  2  0  0  0  0  0  0
  190.2380  171.3290  137.8220 C   0  0  0  0  0  0  0  0  0  0  0  0
  189.6460  175.5040  146.8380 C   0  0  0  0  0  2  0  0  0  0  0  0
  191.8740  171.6110  144.2630 C   0  0  0  0  0  3  0  0  0  0  0  0
  190.9390  173.8290  143.6990 N   0  0  0  0  0  0  0  0  0  0  0  0
  191.5490  172.5800  143.2990 C   0  0  0  0  0  0  0  0  0  0  0  0
  191.5200  173.3330  140.8580 C   0  0  2  0  0  3  0  0  0  0  0  0
  188.9420  171.8760  137.7650 C   0  0  0  0  0  3  0  0  0  0  0  0
  187.6110  177.0410  145.2310 C   0  0  0  0  0  2  0  0  0  0  0  0
  189.7060  175.1520  145.3580 C   0  0  1  0  0  3  0  0  0  0  0  0
  188.5420  172.8560  138.6900 C   0  0  0  0  0  3  0  0  0  0  0  0
  189.0070  177.4570  144.7600 C   0  0  0  0  0  2  0  0  0  0  0  0
  187.5870  176.9800  146.7580 C   0  0  1  0  0  3  0  0  0  0  0  0
  192.5000  171.1300  141.5880 C   0  0  0  0  0  3  0  0  0  0  0  0
  191.8420  172.3190  141.9350 C   0  0  0  0  0  0  0  0  0  0  0  0
  191.1470  171.7520  138.8060 C   0  0  0  0  0  3  0  0  0  0  0  0
  189.7530  175.9310  143.1230 C   0  0  0  0  0  2  0  0  0  0  0  0
  188.3270  174.9200  140.9410 O   0  0  0  0  0  0  0  0  0  0  0  0
  190.7220  170.1150  136.6580 Cl  0  0  0  0  0  0  0  0  0  0  0  0
  190.6060  174.3570  141.3860 N   0  0  0  0  0  0  0  0  0  0  0  0
  190.7300  172.7160  139.7290 C   0  0  0  0  0  0  0  0  0  0  0  0
  186.0310  178.3090  148.0130 O   0  0  0  0  0  1  0  0  0  0  0  0
  186.1550  177.1300  147.2730 C   0  0  1  0  0  3  0  0  0  0  0  0
  185.1700  177.1660  146.1130 C   0  0  0  0  0  2  0  0  0  0  0  0
  184.2650  178.3770  146.2300 C   0  0  0  0  0  1  0  0  0  0  0  0
  2 24  1  1  0  0  0
  2 12  1  0  0  0  0
  3 11  1  0  0  0  0
  4  3  2  0  0  0  0
  5 25  2  0  0  0  0
  5 27  1  0  0  0  0
  6 28  1  0  0  0  0
  6  5  1  0  0  0  0
  7 24  1  6  0  0  0
  7 19  1  0  0  0  0
  7 17  1  0  0  0  0
  9 23  1  0  0  0  0
 10  1  1  0  0  0  0
 12  8  1  0  0  0  0
 13 12  1  0  0  0  0
 13 11  2  0  0  0  0
 14 28  1  6  0  0  0
 14 27  1  0  0  0  0
 14 22  1  0  0  0  0
 15  9  2  0  0  0  0
 15 18  1  0  0  0  0
 16 20  1  0  0  0  0
 17  8  1  1  0  0  0
 17 10  1  0  0  0  0
 18  6  2  0  0  0  0
 19 16  1  0  0  0  0
 20  1  1  0  0  0  0
 20 30  1  6  0  0  0
 21 22  2  0  0  0  0
 21  4  1  0  0  0  0
 22 13  1  0  0  0  0
 23 28  2  0  0  0  0
 26  9  1  0  0  0  0
 27  2  1  0  0  0  0
 30 29  1  6  0  0  0
 31 32  1  0  0  0  0
 31 30  1  0  0  0  0
M  END
>  <MODEL>
7

>  <REMARK>
 VINA RESULT:      -7.7      4.200      7.526
  Name = 
  2 active torsions:
  status: ('A' for Active; 'I' for Inactive)
    1  A    between atoms: C_1  and  C_20
    2  A    between atoms: C_20  and  C_24
                            x       y       z     vdW  Elec       q    Type
                         _______ _______ _______ _____ _____    ______ ____

>  <TORSDO>
F 2

$$$$
=
 OpenBabel11052421263D

 32 37  0  0  1  0  0  0  0  0999 V2000
  186.1750  177.0830  143.2150 C   0  0  0  0  0  2  0  0  0  0  0  0
  190.7630  174.4350  143.0350 C   0  0  2  0  0  3  0  0  0  0  0  0
  190.2870  173.0090  138.3280 C   0  0  0  0  0  3  0  0  0  0  0  0
  191.6420  172.6860  138.2820 C   0  0  0  0  0  3  0  0  0  0  0  0
  192.8800  175.9110  142.7630 C   0  0  0  0  0  0  0  0  0  0  0  0
  194.0530  175.8450  141.9360 C   0  0  0  0  0  0  0  0  0  0  0  0
  188.7750  175.2780  144.2090 N   0  0  2  0  0  0  0  0  0  0  0  0
  188.5040  174.5030  141.9080 C   0  0  0  0  0  2  0  0  0  0  0  0
  196.1580  175.1510  140.2800 C   0  0  0  0  0  0  0  0  0  0  0  0
  186.6080  175.6340  143.0430 C   0  0  0  0  0  2  0  0  0  0  0  0
  189.7450  173.5800  139.4800 C   0  0  0  0  0  3  0  0  0  0  0  0
  189.9630  174.3920  141.8040 N   0  0  0  0  0  0  0  0  0  0  0  0
  190.5490  173.8430  140.6020 C   0  0  0  0  0  0  0  0  0  0  0  0
  192.8440  173.8030  141.7220 C   0  0  2  0  0  3  0  0  0  0  0  0
  196.1350  176.4160  140.8980 C   0  0  0  0  0  3  0  0  0  0  0  0
  187.9670  177.5670  144.9150 C   0  0  0  0  0  2  0  0  0  0  0  0
  188.1240  175.5740  142.9200 C   0  0  1  0  0  3  0  0  0  0  0  0
  195.0720  176.7750  141.7440 C   0  0  0  0  0  3  0  0  0  0  0  0
  188.3620  176.1460  145.3240 C   0  0  0  0  0  2  0  0  0  0  0  0
  186.4670  177.6130  144.6210 C   0  0  1  0  0  3  0  0  0  0  0  0
  192.4590  172.9480  139.3840 C   0  0  0  0  0  3  0  0  0  0  0  0
  191.9350  173.5480  140.5390 C   0  0  0  0  0  0  0  0  0  0  0  0
  195.1170  174.2330  140.4980 C   0  0  0  0  0  3  0  0  0  0  0  0
  190.2120  175.4600  144.0310 C   0  0  0  0  0  2  0  0  0  0  0  0
  192.5290  176.9100  143.4450 O   0  0  0  0  0  0  0  0  0  0  0  0
  197.4940  174.7160  139.2370 Cl  0  0  0  0  0  0  0  0  0  0  0  0
  192.1680  174.6690  142.7000 N   0  0  0  0  0  0  0  0  0  0  0  0
  194.0580  174.6100  141.3290 C   0  0  0  0  0  0  0  0  0  0  0  0
  185.8460  179.6470  143.5090 O   0  0  0  0  0  1  0  0  0  0  0  0
  185.9410  179.0410  144.7650 C   0  0  1  0  0  3  0  0  0  0  0  0
  184.5670  179.0410  145.4220 C   0  0  0  0  0  2  0  0  0  0  0  0
  184.4900  177.9580  146.4810 C   0  0  0  0  0  1  0  0  0  0  0  0
  1 20  1  0  0  0  0
  2 24  1  1  0  0  0
  3 11  1  0  0  0  0
  4  3  2  0  0  0  0
  4 21  1  0  0  0  0
  5 25  2  0  0  0  0
  6  5  1  0  0  0  0
  7 24  1  6  0  0  0
  7 19  1  0  0  0  0
  9 23  2  0  0  0  0
  9 15  1  0  0  0  0
 10  1  1  0  0  0  0
 11 13  2  0  0  0  0
 12  8  1  0  0  0  0
 12  2  1  0  0  0  0
 13 12  1  0  0  0  0
 14 22  1  6  0  0  0
 14 27  1  0  0  0  0
 15 18  2  0  0  0  0
 16 19  1  0  0  0  0
 17  8  1  6  0  0  0
 17 10  1  0  0  0  0
 17  7  1  0  0  0  0
 18  6  1  0  0  0  0
 20 30  1  6  0  0  0
 20 16  1  0  0  0  0
 21 22  2  0  0  0  0
 22 13  1  0  0  0  0
 23 28  1  0  0  0  0
 26  9  1  0  0  0  0
 27  5  1  0  0  0  0
 27  2  1  0  0  0  0
 28 14  1  0  0  0  0
 28  6  2  0  0  0  0
 30 29  1  6  0  0  0
 30 31  1  0  0  0  0
 31 32  1  0  0  0  0
M  END
>  <MODEL>
8

>  <REMARK>
 VINA RESULT:      -7.6      4.087      8.596
  Name = 
  2 active torsions:
  status: ('A' for Active; 'I' for Inactive)
    1  A    between atoms: C_1  and  C_20
    2  A    between atoms: C_20  and  C_24
                            x       y       z     vdW  Elec       q    Type
                         _______ _______ _______ _____ _____    ______ ____

>  <TORSDO>
F 2

$$$$
=
 OpenBabel11052421263D

 32 37  0  0  1  0  0  0  0  0999 V2000
  188.4030  176.9800  146.8890 C   0  0  0  0  0  2  0  0  0  0  0  0
  191.8350  176.1800  142.9290 C   0  0  2  0  0  3  0  0  0  0  0  0
  195.4950  174.5400  145.8160 C   0  0  0  0  0  3  0  0  0  0  0  0
  196.1500  174.0220  144.7010 C   0  0  0  0  0  3  0  0  0  0  0  0
  191.4490  174.0140  141.5540 C   0  0  0  0  0  0  0  0  0  0  0  0
  192.3030  172.9670  141.0650 C   0  0  0  0  0  0  0  0  0  0  0  0
  189.9550  177.3630  143.9820 N   0  0  2  0  0  0  0  0  0  0  0  0
  191.7930  176.6300  145.4140 C   0  0  0  0  0  2  0  0  0  0  0  0
  194.3770  171.3480  140.2110 C   0  0  0  0  0  0  0  0  0  0  0  0
  189.7390  177.5630  146.4520 C   0  0  0  0  0  2  0  0  0  0  0  0
  194.2430  175.1410  145.6730 C   0  0  0  0  0  3  0  0  0  0  0  0
  192.3480  175.8920  144.2750 N   0  0  0  0  0  0  0  0  0  0  0  0
  193.6240  175.2260  144.4140 C   0  0  0  0  0  0  0  0  0  0  0  0
  193.6580  174.7360  141.9070 C   0  0  2  0  0  3  0  0  0  0  0  0
  193.0420  170.9330  140.0390 C   0  0  0  0  0  3  0  0  0  0  0  0
  187.5610  176.7630  144.5280 C   0  0  0  0  0  2  0  0  0  0  0  0
  190.2820  176.7520  145.2820 C   0  0  1  0  0  3  0  0  0  0  0  0
  191.9820  171.7510  140.4660 C   0  0  0  0  0  3  0  0  0  0  0  0
  188.5320  177.6900  143.7930 C   0  0  0  0  0  2  0  0  0  0  0  0
  187.2720  177.3290  145.9190 C   0  0  1  0  0  3  0  0  0  0  0  0
  195.5470  174.0900  143.4440 C   0  0  0  0  0  3  0  0  0  0  0  0
  194.2770  174.6640  143.2870 C   0  0  0  0  0  0  0  0  0  0  0  0
  194.6660  172.5830  140.8150 C   0  0  0  0  0  3  0  0  0  0  0  0
  190.3200  176.4090  142.9400 C   0  0  0  0  0  2  0  0  0  0  0  0
  190.1900  173.9710  141.5780 O   0  0  0  0  0  0  0  0  0  0  0  0
  195.6840  170.3200  139.6650 Cl  0  0  0  0  0  0  0  0  0  0  0  0
  192.2410  175.1170  142.0100 N   0  0  0  0  0  0  0  0  0  0  0  0
  193.6020  173.3790  141.2490 C   0  0  0  0  0  0  0  0  0  0  0  0
  185.9440  176.7910  147.8440 O   0  0  0  0  0  1  0  0  0  0  0  0
  185.9420  176.7910  146.4460 C   0  0  1  0  0  3  0  0  0  0  0  0
  184.7850  177.6470  145.9510 C   0  0  0  0  0  2  0  0  0  0  0  0
  185.1740  179.1120  145.9580 C   0  0  0  0  0  1  0  0  0  0  0  0
  2 24  1  1  0  0  0
  2 12  1  0  0  0  0
  4  3  2  0  0  0  0
  5 25  2  0  0  0  0
  5 27  1  0  0  0  0
  6 28  1  0  0  0  0
  6  5  1  0  0  0  0
  7 24  1  6  0  0  0
  7 17  1  0  0  0  0
  9 23  1  0  0  0  0
 10  1  1  0  0  0  0
 11  3  1  0  0  0  0
 12 13  1  0  0  0  0
 12  8  1  0  0  0  0
 13 11  2  0  0  0  0
 14 28  1  1  0  0  0
 14 27  1  0  0  0  0
 14 22  1  0  0  0  0
 15  9  2  0  0  0  0
 15 18  1  0  0  0  0
 16 20  1  0  0  0  0
 17  8  1  1  0  0  0
 17 10  1  0  0  0  0
 18  6  2  0  0  0  0
 19  7  1  0  0  0  0
 19 16  1  0  0  0  0
 20 30  1  1  0  0  0
 20  1  1  0  0  0  0
 21  4  1  0  0  0  0
 22 21  2  0  0  0  0
 22 13  1  0  0  0  0
 23 28  2  0  0  0  0
 26  9  1  0  0  0  0
 27  2  1  0  0  0  0
 30 29  1  1  0  0  0
 31 32  1  0  0  0  0
 31 30  1  0  0  0  0
M  END
>  <MODEL>
9

>  <REMARK>
 VINA RESULT:      -7.5      4.012      8.170
  Name = 
  2 active torsions:
  status: ('A' for Active; 'I' for Inactive)
    1  A    between atoms: C_1  and  C_20
    2  A    between atoms: C_20  and  C_24
                            x       y       z     vdW  Elec       q    Type
                         _______ _______ _______ _____ _____    ______ ____

>  <TORSDO>
F 2

$$$$
