=
 OpenBabel11052417133D

 30 32  0  0  1  0  0  0  0  0999 V2000
  187.0370  176.8470  142.2670 C   0  0  1  0  0  3  0  0  0  0  0  0
  186.4900  177.7690  143.3520 C   0  0  1  0  0  3  0  0  0  0  0  0
  185.4880  178.6050  142.6270 C   0  0  0  0  0  3  0  0  0  0  0  0
  186.3960  177.2850  141.0810 O   0  0  0  0  0  0  0  0  0  0  0  0
  185.4870  178.2920  141.3440 C   0  0  0  0  0  3  0  0  0  0  0  0
  189.0300  178.1120  142.1270 O   0  0  0  0  0  0  0  0  0  0  0  0
  188.5210  177.0000  142.1520 C   0  0  0  0  0  0  0  0  0  0  0  0
  189.3720  175.7690  142.0930 C   0  0  2  0  0  3  0  0  0  0  0  0
  188.4560  174.6240  140.1940 O   0  0  0  0  0  0  0  0  0  0  0  0
  188.6390  174.6370  141.4400 C   0  0  0  0  0  0  0  0  0  0  0  0
  188.1750  173.5520  142.2330 N   0  0  0  0  0  1  0  0  0  0  0  0
  189.8900  175.3970  143.4780 C   0  0  0  0  0  2  0  0  0  0  0  0
  191.5970  173.7260  144.1780 C   0  0  0  0  0  1  0  0  0  0  0  0
  191.3680  175.0260  143.4350 C   0  0  2  0  0  3  0  0  0  0  0  0
  192.2520  176.1360  144.0010 C   0  0  0  0  0  2  0  0  0  0  0  0
  193.9910  176.7000  145.4700 C   0  0  0  0  0  2  0  0  0  0  0  0
  194.5820  176.2860  144.2050 C   0  0  0  0  0  2  0  0  0  0  0  0
  193.3950  175.5880  144.7170 N   0  0  0  0  0  0  0  0  0  0  0  0
  185.8180  176.9490  144.4400 C   0  0  0  0  0  2  0  0  0  0  0  0
  185.9390  177.6350  145.7920 C   0  0  1  0  0  3  0  0  0  0  0  0
  184.5540  177.9970  146.2830 C   0  0  0  0  0  1  0  0  0  0  0  0
  186.5640  176.7340  146.7550 N   0  0  0  0  0  2  0  0  0  0  0  0
  190.8520  175.4350  147.4010 C   0  0  0  0  0  0  0  0  0  0  0  0
  190.7970  176.8980  147.6830 C   0  0  0  0  0  2  0  0  0  0  0  0
  192.0550  174.8150  147.4190 F   0  0  0  0  0  0  0  0  0  0  0  0
  187.9640  176.4330  146.7840 C   0  0  0  0  0  0  0  0  0  0  0  0
  190.1410  177.6440  146.5710 C   0  0  0  0  0  3  0  0  0  0  0  0
  189.7510  174.6990  147.2530 C   0  0  0  0  0  3  0  0  0  0  0  0
  188.8730  177.4450  146.2110 C   0  0  0  0  0  3  0  0  0  0  0  0
  188.3690  175.2170  147.1950 C   0  0  0  0  0  3  0  0  0  0  0  0
  1  7  1  6  0  0  0
  1  2  1  0  0  0  0
  2 19  1  1  0  0  0
  3  2  1  0  0  0  0
  4  5  1  0  0  0  0
  4  1  1  0  0  0  0
  5  3  2  0  0  0  0
  6  7  2  0  0  0  0
  8  7  1  0  0  0  0
  8 12  1  1  0  0  0
  9 10  2  0  0  0  0
 10  8  1  0  0  0  0
 10 11  1  0  0  0  0
 14 12  1  0  0  0  0
 14 15  1  0  0  0  0
 14 13  1  1  0  0  0
 15 18  1  0  0  0  0
 17 18  1  0  0  0  0
 17 16  1  0  0  0  0
 18 16  1  0  0  0  0
 19 20  1  0  0  0  0
 20 21  1  1  0  0  0
 20 22  1  0  0  0  0
 22 26  1  0  0  0  0
 23 25  1  0  0  0  0
 23 24  1  0  0  0  0
 26 30  2  0  0  0  0
 27 24  1  0  0  0  0
 28 23  2  0  0  0  0
 29 27  2  0  0  0  0
 29 26  1  0  0  0  0
 30 28  1  0  0  0  0
M  END
>  <MODEL>
1

>  <REMARK>
 VINA RESULT:      -6.3      0.000      0.000
  Name = 
  11 active torsions:
  status: ('A' for Active; 'I' for Inactive)
    1  A    between atoms: N_3  and  C_11
    2  A    between atoms: N_3  and  C_19
    3  A    between atoms: C_4  and  C_13
    4  A    between atoms: C_7  and  C_30
    5  A    between atoms: C_8  and  C_12
    6  A    between atoms: C_8  and  C_13
    7  A    between atoms: C_9  and  C_12
    8  A    between atoms: C_9  and  N_21
    9  A    between atoms: C_10  and  C_25
   10  A    between atoms: C_11  and  C_25
   11  A    between atoms: C_13  and  C_30
                            x       y       z     vdW  Elec       q    Type
                         _______ _______ _______ _____ _____    ______ ____

>  <TORSDO>
F 11

$$$$
=
 OpenBabel11052417133D

 30 32  0  0  1  0  0  0  0  0999 V2000
  185.4800  177.7410  145.0100 C   0  0  1  0  0  3  0  0  0  0  0  0
  186.7090  177.8060  145.9110 C   0  0  1  0  0  3  0  0  0  0  0  0
  186.1390  178.1070  147.2580 C   0  0  0  0  0  3  0  0  0  0  0  0
  184.4030  178.0840  145.8650 O   0  0  0  0  0  0  0  0  0  0  0  0
  184.8320  178.2630  147.1660 C   0  0  0  0  0  3  0  0  0  0  0  0
  185.5640  179.9310  144.1190 O   0  0  0  0  0  0  0  0  0  0  0  0
  185.6010  178.7300  143.8930 C   0  0  0  0  0  0  0  0  0  0  0  0
  185.7900  178.2220  142.4970 C   0  0  2  0  0  3  0  0  0  0  0  0
  184.5940  178.5710  140.4470 O   0  0  0  0  0  0  0  0  0  0  0  0
  184.5370  178.3760  141.6900 C   0  0  0  0  0  0  0  0  0  0  0  0
  183.2730  178.2710  142.3320 N   0  0  0  0  0  1  0  0  0  0  0  0
  186.2950  176.7830  142.5040 C   0  0  0  0  0  2  0  0  0  0  0  0
  188.2400  177.9750  141.5060 C   0  0  0  0  0  1  0  0  0  0  0  0
  187.7940  176.7210  142.2310 C   0  0  2  0  0  3  0  0  0  0  0  0
  188.1790  175.4720  141.4400 C   0  0  0  0  0  2  0  0  0  0  0  0
  189.6700  173.6820  141.1600 C   0  0  0  0  0  2  0  0  0  0  0  0
  189.2280  173.6920  142.5480 C   0  0  0  0  0  2  0  0  0  0  0  0
  189.4790  174.9630  141.8560 N   0  0  0  0  0  0  0  0  0  0  0  0
  187.4200  176.4630  145.9170 C   0  0  0  0  0  2  0  0  0  0  0  0
  188.3980  176.3700  147.0780 C   0  0  1  0  0  3  0  0  0  0  0  0
  188.9290  174.9550  147.1580 C   0  0  0  0  0  1  0  0  0  0  0  0
  189.5140  177.2860  146.8650 N   0  0  0  0  0  2  0  0  0  0  0  0
  192.2810  176.6200  143.3450 C   0  0  0  0  0  0  0  0  0  0  0  0
  192.3240  175.3780  144.1690 C   0  0  0  0  0  2  0  0  0  0  0  0
  193.1090  176.7220  142.2800 F   0  0  0  0  0  0  0  0  0  0  0  0
  190.5460  177.0870  145.8930 C   0  0  0  0  0  0  0  0  0  0  0  0
  192.5950  175.6840  145.6030 C   0  0  0  0  0  3  0  0  0  0  0  0
  191.3730  177.5750  143.5490 C   0  0  0  0  0  3  0  0  0  0  0  0
  191.7770  176.4170  146.3570 C   0  0  0  0  0  3  0  0  0  0  0  0
  190.4110  177.6250  144.6670 C   0  0  0  0  0  3  0  0  0  0  0  0
  1  7  1  6  0  0  0
  1  4  1  0  0  0  0
  1  2  1  0  0  0  0
  2 19  1  1  0  0  0
  2  3  1  0  0  0  0
  4  5  1  0  0  0  0
  5  3  2  0  0  0  0
  7  6  2  0  0  0  0
  8 12  1  1  0  0  0
  8  7  1  0  0  0  0
  9 10  2  0  0  0  0
 10 11  1  0  0  0  0
 10  8  1  0  0  0  0
 14 13  1  6  0  0  0
 14 12  1  0  0  0  0
 15 18  1  0  0  0  0
 15 14  1  0  0  0  0
 16 18  1  0  0  0  0
 16 17  1  0  0  0  0
 18 17  1  0  0  0  0
 19 20  1  0  0  0  0
 20 21  1  6  0  0  0
 22 20  1  0  0  0  0
 23 28  2  0  0  0  0
 23 24  1  0  0  0  0
 24 27  1  0  0  0  0
 25 23  1  0  0  0  0
 26 29  1  0  0  0  0
 26 22  1  0  0  0  0
 27 29  2  0  0  0  0
 28 30  1  0  0  0  0
 30 26  2  0  0  0  0
M  END
>  <MODEL>
2

>  <REMARK>
 VINA RESULT:      -6.3      2.310      4.665
  Name = 
  11 active torsions:
  status: ('A' for Active; 'I' for Inactive)
    1  A    between atoms: N_3  and  C_11
    2  A    between atoms: N_3  and  C_19
    3  A    between atoms: C_4  and  C_13
    4  A    between atoms: C_7  and  C_30
    5  A    between atoms: C_8  and  C_12
    6  A    between atoms: C_8  and  C_13
    7  A    between atoms: C_9  and  C_12
    8  A    between atoms: C_9  and  N_21
    9  A    between atoms: C_10  and  C_25
   10  A    between atoms: C_11  and  C_25
   11  A    between atoms: C_13  and  C_30
                            x       y       z     vdW  Elec       q    Type
                         _______ _______ _______ _____ _____    ______ ____

>  <TORSDO>
F 11

$$$$
=
 OpenBabel11052417133D

 30 32  0  0  1  0  0  0  0  0999 V2000
  190.3710  175.8700  143.5610 C   0  0  1  0  0  3  0  0  0  0  0  0
  191.0020  176.9840  144.3890 C   0  0  1  0  0  3  0  0  0  0  0  0
  190.5020  178.2300  143.7360 C   0  0  0  0  0  3  0  0  0  0  0  0
  189.6880  176.5510  142.5220 O   0  0  0  0  0  0  0  0  0  0  0  0
  189.7720  177.9220  142.6810 C   0  0  0  0  0  3  0  0  0  0  0  0
  192.2700  175.4180  142.2240 O   0  0  0  0  0  0  0  0  0  0  0  0
  191.4310  174.9760  142.9970 C   0  0  0  0  0  0  0  0  0  0  0  0
  191.4600  173.5380  143.4140 C   0  0  2  0  0  3  0  0  0  0  0  0
  189.4320  172.3770  143.9550 O   0  0  0  0  0  0  0  0  0  0  0  0
  190.1800  172.8460  143.0570 C   0  0  0  0  0  0  0  0  0  0  0  0
  189.7940  172.7460  141.6920 N   0  0  0  0  0  1  0  0  0  0  0  0
  191.7910  173.4070  144.8970 C   0  0  0  0  0  2  0  0  0  0  0  0
  194.0190  172.4850  145.5160 C   0  0  0  0  0  1  0  0  0  0  0  0
  193.2510  173.7460  145.1700 C   0  0  2  0  0  3  0  0  0  0  0  0
  193.3980  174.7890  146.2770 C   0  0  0  0  0  2  0  0  0  0  0  0
  194.3730  176.9220  146.3070 C   0  0  0  0  0  2  0  0  0  0  0  0
  194.5860  176.3440  144.9870 C   0  0  0  0  0  2  0  0  0  0  0  0
  194.6710  175.4880  146.1780 N   0  0  0  0  0  0  0  0  0  0  0  0
  190.5180  176.9000  145.8270 C   0  0  0  0  0  2  0  0  0  0  0  0
  189.1090  176.3310  145.8950 C   0  0  1  0  0  3  0  0  0  0  0  0
  189.1060  175.1450  146.8340 C   0  0  0  0  0  1  0  0  0  0  0  0
  188.1860  177.3420  146.4000 N   0  0  0  0  0  2  0  0  0  0  0  0
  184.3530  178.7510  144.4490 C   0  0  0  0  0  0  0  0  0  0  0  0
  184.1100  178.7420  145.9200 C   0  0  0  0  0  2  0  0  0  0  0  0
  183.3190  179.0360  143.6220 F   0  0  0  0  0  0  0  0  0  0  0  0
  186.8930  177.6020  145.8430 C   0  0  0  0  0  0  0  0  0  0  0  0
  184.4940  177.4360  146.5280 C   0  0  0  0  0  3  0  0  0  0  0  0
  185.5720  178.6100  143.9300 C   0  0  0  0  0  3  0  0  0  0  0  0
  185.7410  176.9650  146.5110 C   0  0  0  0  0  3  0  0  0  0  0  0
  186.7980  178.2830  144.6860 C   0  0  0  0  0  3  0  0  0  0  0  0
  1  7  1  6  0  0  0
  1  2  1  0  0  0  0
  2 19  1  1  0  0  0
  3  2  1  0  0  0  0
  4  5  1  0  0  0  0
  4  1  1  0  0  0  0
  5  3  2  0  0  0  0
  6  7  2  0  0  0  0
  7  8  1  0  0  0  0
  8 12  1  1  0  0  0
 10  8  1  0  0  0  0
 10  9  2  0  0  0  0
 11 10  1  0  0  0  0
 12 14  1  0  0  0  0
 14 13  1  1  0  0  0
 14 15  1  0  0  0  0
 17 18  1  0  0  0  0
 17 16  1  0  0  0  0
 18 15  1  0  0  0  0
 18 16  1  0  0  0  0
 19 20  1  0  0  0  0
 20 22  1  0  0  0  0
 20 21  1  1  0  0  0
 23 24  1  0  0  0  0
 24 27  1  0  0  0  0
 25 23  1  0  0  0  0
 26 22  1  0  0  0  0
 26 29  1  0  0  0  0
 28 23  2  0  0  0  0
 28 30  1  0  0  0  0
 29 27  2  0  0  0  0
 30 26  2  0  0  0  0
M  END
>  <MODEL>
3

>  <REMARK>
 VINA RESULT:      -6.3      2.658      4.501
  Name = 
  11 active torsions:
  status: ('A' for Active; 'I' for Inactive)
    1  A    between atoms: N_3  and  C_11
    2  A    between atoms: N_3  and  C_19
    3  A    between atoms: C_4  and  C_13
    4  A    between atoms: C_7  and  C_30
    5  A    between atoms: C_8  and  C_12
    6  A    between atoms: C_8  and  C_13
    7  A    between atoms: C_9  and  C_12
    8  A    between atoms: C_9  and  N_21
    9  A    between atoms: C_10  and  C_25
   10  A    between atoms: C_11  and  C_25
   11  A    between atoms: C_13  and  C_30
                            x       y       z     vdW  Elec       q    Type
                         _______ _______ _______ _____ _____    ______ ____

>  <TORSDO>
F 11

$$$$
=
 OpenBabel11052417133D

 30 32  0  0  1  0  0  0  0  0999 V2000
  189.8460  175.6650  144.1010 C   0  0  1  0  0  3  0  0  0  0  0  0
  190.3150  176.8810  144.8940 C   0  0  1  0  0  3  0  0  0  0  0  0
  190.0950  178.0180  143.9510 C   0  0  0  0  0  3  0  0  0  0  0  0
  189.5120  176.1880  142.8270 O   0  0  0  0  0  0  0  0  0  0  0  0
  189.6490  177.5620  142.7960 C   0  0  0  0  0  3  0  0  0  0  0  0
  190.7150  173.5180  143.6210 O   0  0  0  0  0  0  0  0  0  0  0  0
  190.9510  174.6610  143.9860 C   0  0  0  0  0  0  0  0  0  0  0  0
  192.3500  175.0890  144.3030 C   0  0  2  0  0  3  0  0  0  0  0  0
  193.8160  174.1250  142.6660 O   0  0  0  0  0  0  0  0  0  0  0  0
  193.1930  175.1450  143.0650 C   0  0  0  0  0  0  0  0  0  0  0  0
  193.2630  176.3530  142.3180 N   0  0  0  0  0  1  0  0  0  0  0  0
  192.9640  174.1950  145.3760 C   0  0  0  0  0  2  0  0  0  0  0  0
  193.1940  176.4150  146.4800 C   0  0  0  0  0  1  0  0  0  0  0  0
  193.7600  175.0110  146.3870 C   0  0  2  0  0  3  0  0  0  0  0  0
  195.2480  175.0500  146.0450 C   0  0  0  0  0  2  0  0  0  0  0  0
  197.1190  173.6360  145.9760 C   0  0  0  0  0  2  0  0  0  0  0  0
  196.7990  174.0320  144.6110 C   0  0  0  0  0  2  0  0  0  0  0  0
  195.7130  173.7570  145.5630 N   0  0  0  0  0  0  0  0  0  0  0  0
  189.4650  177.0460  146.1420 C   0  0  0  0  0  2  0  0  0  0  0  0
  188.4690  175.9040  146.2770 C   0  0  1  0  0  3  0  0  0  0  0  0
  188.9930  174.9170  147.2970 C   0  0  0  0  0  1  0  0  0  0  0  0
  187.1800  176.4180  146.7290 N   0  0  0  0  0  2  0  0  0  0  0  0
  184.5000  178.2500  143.5750 C   0  0  0  0  0  0  0  0  0  0  0  0
  184.4550  179.1550  144.7590 C   0  0  0  0  0  2  0  0  0  0  0  0
  183.6940  178.5180  142.5210 F   0  0  0  0  0  0  0  0  0  0  0  0
  186.1720  176.9440  145.8580 C   0  0  0  0  0  0  0  0  0  0  0  0
  184.1480  178.4040  146.0090 C   0  0  0  0  0  3  0  0  0  0  0  0
  185.3900  177.2630  143.4700 C   0  0  0  0  0  3  0  0  0  0  0  0
  184.9400  177.4490  146.4960 C   0  0  0  0  0  3  0  0  0  0  0  0
  186.3270  176.8320  144.5260 C   0  0  0  0  0  3  0  0  0  0  0  0
  1  7  1  6  0  0  0
  1  2  1  0  0  0  0
  2 19  1  1  0  0  0
  3  2  1  0  0  0  0
  4  1  1  0  0  0  0
  5  4  1  0  0  0  0
  5  3  2  0  0  0  0
  6  7  2  0  0  0  0
  7  8  1  0  0  0  0
  8 12  1  1  0  0  0
  9 10  2  0  0  0  0
 10  8  1  0  0  0  0
 11 10  1  0  0  0  0
 12 14  1  0  0  0  0
 14 13  1  6  0  0  0
 15 14  1  0  0  0  0
 17 18  1  0  0  0  0
 17 16  1  0  0  0  0
 18 16  1  0  0  0  0
 18 15  1  0  0  0  0
 19 20  1  0  0  0  0
 20 22  1  0  0  0  0
 20 21  1  1  0  0  0
 23 24  1  0  0  0  0
 24 27  1  0  0  0  0
 25 23  1  0  0  0  0
 26 29  1  0  0  0  0
 26 22  1  0  0  0  0
 27 29  2  0  0  0  0
 28 23  2  0  0  0  0
 28 30  1  0  0  0  0
 30 26  2  0  0  0  0
M  END
>  <MODEL>
4

>  <REMARK>
 VINA RESULT:      -6.2      2.884      4.913
  Name = 
  11 active torsions:
  status: ('A' for Active; 'I' for Inactive)
    1  A    between atoms: N_3  and  C_11
    2  A    between atoms: N_3  and  C_19
    3  A    between atoms: C_4  and  C_13
    4  A    between atoms: C_7  and  C_30
    5  A    between atoms: C_8  and  C_12
    6  A    between atoms: C_8  and  C_13
    7  A    between atoms: C_9  and  C_12
    8  A    between atoms: C_9  and  N_21
    9  A    between atoms: C_10  and  C_25
   10  A    between atoms: C_11  and  C_25
   11  A    between atoms: C_13  and  C_30
                            x       y       z     vdW  Elec       q    Type
                         _______ _______ _______ _____ _____    ______ ____

>  <TORSDO>
F 11

$$$$
=
 OpenBabel11052417133D

 30 32  0  0  1  0  0  0  0  0999 V2000
  192.3950  176.7680  144.7200 C   0  0  1  0  0  3  0  0  0  0  0  0
  191.6180  176.1230  145.8630 C   0  0  1  0  0  3  0  0  0  0  0  0
  192.6550  175.9240  146.9190 C   0  0  0  0  0  3  0  0  0  0  0  0
  193.7370  176.7860  145.1760 O   0  0  0  0  0  0  0  0  0  0  0  0
  193.8340  176.3080  146.4690 C   0  0  0  0  0  3  0  0  0  0  0  0
  192.6930  176.3630  142.4080 O   0  0  0  0  0  0  0  0  0  0  0  0
  192.2720  175.9430  143.4770 C   0  0  0  0  0  0  0  0  0  0  0  0
  191.6430  174.5870  143.5700 C   0  0  2  0  0  3  0  0  0  0  0  0
  193.0450  172.9980  142.4460 O   0  0  0  0  0  0  0  0  0  0  0  0
  192.6810  173.5070  143.5390 C   0  0  0  0  0  0  0  0  0  0  0  0
  193.2810  173.0770  144.7540 N   0  0  0  0  0  1  0  0  0  0  0  0
  190.5860  174.4000  142.4860 C   0  0  0  0  0  2  0  0  0  0  0  0
  188.7190  172.7580  142.6100 C   0  0  0  0  0  1  0  0  0  0  0  0
  189.2190  174.1060  143.0920 C   0  0  2  0  0  3  0  0  0  0  0  0
  188.2050  175.2030  142.7740 C   0  0  0  0  0  2  0  0  0  0  0  0
  188.5020  177.3620  141.9060 C   0  0  0  0  0  2  0  0  0  0  0  0
  187.4040  176.7320  141.1870 C   0  0  0  0  0  2  0  0  0  0  0  0
  188.5760  175.9330  141.5700 N   0  0  0  0  0  0  0  0  0  0  0  0
  190.5320  177.0670  146.3500 C   0  0  0  0  0  2  0  0  0  0  0  0
  189.1500  176.4960  146.0700 C   0  0  1  0  0  3  0  0  0  0  0  0
  189.0390  175.1380  146.7280 C   0  0  0  0  0  1  0  0  0  0  0  0
  188.1250  177.3770  146.6220 N   0  0  0  0  0  2  0  0  0  0  0  0
  184.3820  178.7590  144.4850 C   0  0  0  0  0  0  0  0  0  0  0  0
  184.0650  178.7410  145.9420 C   0  0  0  0  0  2  0  0  0  0  0  0
  183.3890  179.0370  143.6080 F   0  0  0  0  0  0  0  0  0  0  0  0
  186.8590  177.6280  146.0010 C   0  0  0  0  0  0  0  0  0  0  0  0
  184.4300  177.4360  146.5630 C   0  0  0  0  0  3  0  0  0  0  0  0
  185.6270  178.6310  144.0270 C   0  0  0  0  0  3  0  0  0  0  0  0
  185.6810  176.9770  146.6070 C   0  0  0  0  0  3  0  0  0  0  0  0
  186.8160  178.3120  144.8430 C   0  0  0  0  0  3  0  0  0  0  0  0
  1  7  1  6  0  0  0
  1  4  1  0  0  0  0
  1  2  1  0  0  0  0
  2 19  1  1  0  0  0
  2  3  1  0  0  0  0
  4  5  1  0  0  0  0
  5  3  2  0  0  0  0
  6  7  2  0  0  0  0
  7  8  1  0  0  0  0
  8 12  1  6  0  0  0
  9 10  2  0  0  0  0
 10  8  1  0  0  0  0
 10 11  1  0  0  0  0
 12 14  1  0  0  0  0
 14 13  1  6  0  0  0
 15 14  1  0  0  0  0
 17 18  1  0  0  0  0
 17 16  1  0  0  0  0
 18 16  1  0  0  0  0
 18 15  1  0  0  0  0
 20 19  1  0  0  0  0
 20 22  1  0  0  0  0
 20 21  1  1  0  0  0
 23 24  1  0  0  0  0
 24 27  1  0  0  0  0
 25 23  1  0  0  0  0
 26 29  1  0  0  0  0
 26 22  1  0  0  0  0
 27 29  2  0  0  0  0
 28 23  2  0  0  0  0
 28 30  1  0  0  0  0
 30 26  2  0  0  0  0
M  END
>  <MODEL>
5

>  <REMARK>
 VINA RESULT:      -6.1      2.880      5.819
  Name = 
  11 active torsions:
  status: ('A' for Active; 'I' for Inactive)
    1  A    between atoms: N_3  and  C_11
    2  A    between atoms: N_3  and  C_19
    3  A    between atoms: C_4  and  C_13
    4  A    between atoms: C_7  and  C_30
    5  A    between atoms: C_8  and  C_12
    6  A    between atoms: C_8  and  C_13
    7  A    between atoms: C_9  and  C_12
    8  A    between atoms: C_9  and  N_21
    9  A    between atoms: C_10  and  C_25
   10  A    between atoms: C_11  and  C_25
   11  A    between atoms: C_13  and  C_30
                            x       y       z     vdW  Elec       q    Type
                         _______ _______ _______ _____ _____    ______ ____

>  <TORSDO>
F 11

$$$$
=
 OpenBabel11052417133D

 30 32  0  0  1  0  0  0  0  0999 V2000
  189.5900  175.3430  143.7270 C   0  0  1  0  0  3  0  0  0  0  0  0
  189.8580  173.8530  143.9110 C   0  0  1  0  0  3  0  0  0  0  0  0
  191.1500  173.6390  143.1930 C   0  0  0  0  0  3  0  0  0  0  0  0
  190.6460  175.7860  142.8920 O   0  0  0  0  0  0  0  0  0  0  0  0
  191.5400  174.7670  142.6280 C   0  0  0  0  0  3  0  0  0  0  0  0
  187.7590  174.6660  142.3910 O   0  0  0  0  0  0  0  0  0  0  0  0
  188.2660  175.5550  143.0610 C   0  0  0  0  0  0  0  0  0  0  0  0
  187.5660  176.8650  143.2490 C   0  0  2  0  0  3  0  0  0  0  0  0
  188.8490  178.3370  141.8550 O   0  0  0  0  0  0  0  0  0  0  0  0
  187.7510  177.7530  142.0570 C   0  0  0  0  0  0  0  0  0  0  0  0
  186.6860  177.9120  141.1280 N   0  0  0  0  0  1  0  0  0  0  0  0
  188.0080  177.5400  144.5430 C   0  0  0  0  0  2  0  0  0  0  0  0
  187.0090  177.5470  146.8230 C   0  0  0  0  0  1  0  0  0  0  0  0
  186.8100  177.9690  145.3810 C   0  0  2  0  0  3  0  0  0  0  0  0
  185.4990  177.4110  144.8300 C   0  0  0  0  0  2  0  0  0  0  0  0
  184.0470  178.6600  143.4760 C   0  0  0  0  0  2  0  0  0  0  0  0
  184.9490  179.5850  144.1490 C   0  0  0  0  0  2  0  0  0  0  0  0
  184.4410  178.4110  144.8700 N   0  0  0  0  0  0  0  0  0  0  0  0
  190.0070  173.5310  145.3890 C   0  0  0  0  0  2  0  0  0  0  0  0
  190.1170  174.8030  146.2150 C   0  0  1  0  0  3  0  0  0  0  0  0
  189.0040  174.8170  147.2410 C   0  0  0  0  0  1  0  0  0  0  0  0
  191.4020  174.8420  146.9050 N   0  0  0  0  0  2  0  0  0  0  0  0
  194.9580  176.4280  144.5970 C   0  0  0  0  0  0  0  0  0  0  0  0
  194.6870  175.0560  144.0820 C   0  0  0  0  0  2  0  0  0  0  0  0
  196.0480  177.0900  144.1410 F   0  0  0  0  0  0  0  0  0  0  0  0
  192.6400  175.2020  146.2820 C   0  0  0  0  0  0  0  0  0  0  0  0
  194.5840  174.0670  145.1920 C   0  0  0  0  0  3  0  0  0  0  0  0
  194.1020  177.0700  145.3920 C   0  0  0  0  0  3  0  0  0  0  0  0
  193.6480  174.1320  146.1390 C   0  0  0  0  0  3  0  0  0  0  0  0
  192.8800  176.4920  145.9870 C   0  0  0  0  0  3  0  0  0  0  0  0
  1  7  1  6  0  0  0
  1  2  1  0  0  0  0
  2 19  1  1  0  0  0
  3  2  1  0  0  0  0
  4  1  1  0  0  0  0
  5  4  1  0  0  0  0
  5  3  2  0  0  0  0
  6  7  2  0  0  0  0
  7  8  1  0  0  0  0
  8 12  1  1  0  0  0
  9 10  2  0  0  0  0
 10  8  1  0  0  0  0
 11 10  1  0  0  0  0
 12 14  1  0  0  0  0
 14 13  1  1  0  0  0
 15 18  1  0  0  0  0
 15 14  1  0  0  0  0
 16 17  1  0  0  0  0
 16 18  1  0  0  0  0
 17 18  1  0  0  0  0
 19 20  1  0  0  0  0
 20 22  1  0  0  0  0
 20 21  1  1  0  0  0
 23 28  2  0  0  0  0
 24 23  1  0  0  0  0
 24 27  1  0  0  0  0
 25 23  1  0  0  0  0
 26 22  1  0  0  0  0
 27 29  2  0  0  0  0
 28 30  1  0  0  0  0
 29 26  1  0  0  0  0
 30 26  2  0  0  0  0
M  END
>  <MODEL>
6

>  <REMARK>
 VINA RESULT:      -6.1      2.181      5.829
  Name = 
  11 active torsions:
  status: ('A' for Active; 'I' for Inactive)
    1  A    between atoms: N_3  and  C_11
    2  A    between atoms: N_3  and  C_19
    3  A    between atoms: C_4  and  C_13
    4  A    between atoms: C_7  and  C_30
    5  A    between atoms: C_8  and  C_12
    6  A    between atoms: C_8  and  C_13
    7  A    between atoms: C_9  and  C_12
    8  A    between atoms: C_9  and  N_21
    9  A    between atoms: C_10  and  C_25
   10  A    between atoms: C_11  and  C_25
   11  A    between atoms: C_13  and  C_30
                            x       y       z     vdW  Elec       q    Type
                         _______ _______ _______ _____ _____    ______ ____

>  <TORSDO>
F 11

$$$$
=
 OpenBabel11052417133D

 30 32  0  0  1  0  0  0  0  0999 V2000
  190.5560  175.5260  142.6770 C   0  0  1  0  0  3  0  0  0  0  0  0
  189.2300  176.2290  142.9480 C   0  0  1  0  0  3  0  0  0  0  0  0
  189.6100  177.6700  143.0370 C   0  0  0  0  0  3  0  0  0  0  0  0
  191.5180  176.5650  142.7280 O   0  0  0  0  0  0  0  0  0  0  0  0
  190.9180  177.7960  142.9150 C   0  0  0  0  0  3  0  0  0  0  0  0
  189.9090  173.8920  144.2600 O   0  0  0  0  0  0  0  0  0  0  0  0
  190.8290  174.5030  143.7350 C   0  0  0  0  0  0  0  0  0  0  0  0
  192.2490  174.2260  144.1220 C   0  0  2  0  0  3  0  0  0  0  0  0
  192.8120  172.6120  142.4400 O   0  0  0  0  0  0  0  0  0  0  0  0
  192.6790  172.8660  143.6660 C   0  0  0  0  0  0  0  0  0  0  0  0
  192.9680  171.8620  144.6310 N   0  0  0  0  0  1  0  0  0  0  0  0
  192.4540  174.4230  145.6210 C   0  0  0  0  0  2  0  0  0  0  0  0
  194.0340  176.1270  146.5140 C   0  0  0  0  0  1  0  0  0  0  0  0
  192.6390  175.8950  145.9660 C   0  0  2  0  0  3  0  0  0  0  0  0
  191.5820  176.3880  146.9530 C   0  0  0  0  0  2  0  0  0  0  0  0
  189.5590  177.5350  147.2630 C   0  0  0  0  0  2  0  0  0  0  0  0
  189.2490  176.1630  146.8830 C   0  0  0  0  0  2  0  0  0  0  0  0
  190.3880  176.8510  146.2600 N   0  0  0  0  0  0  0  0  0  0  0  0
  188.2730  175.9970  141.7910 C   0  0  0  0  0  2  0  0  0  0  0  0
  187.2400  177.1110  141.7070 C   0  0  1  0  0  3  0  0  0  0  0  0
  186.7600  177.2250  140.2760 C   0  0  0  0  0  1  0  0  0  0  0  0
  186.1030  176.8020  142.5680 N   0  0  0  0  0  2  0  0  0  0  0  0
  184.9580  178.3080  146.6800 C   0  0  0  0  0  0  0  0  0  0  0  0
  184.1020  179.0360  145.7000 C   0  0  0  0  0  2  0  0  0  0  0  0
  184.8870  178.6540  147.9870 F   0  0  0  0  0  0  0  0  0  0  0  0
  185.8330  177.4590  143.8110 C   0  0  0  0  0  0  0  0  0  0  0  0
  184.9170  179.6450  144.6100 C   0  0  0  0  0  3  0  0  0  0  0  0
  185.6940  177.2530  146.3320 C   0  0  0  0  0  3  0  0  0  0  0  0
  185.6520  178.9240  143.7630 C   0  0  0  0  0  3  0  0  0  0  0  0
  185.8910  176.7550  144.9560 C   0  0  0  0  0  3  0  0  0  0  0  0
  1  4  1  0  0  0  0
  1  2  1  0  0  0  0
  1  7  1  1  0  0  0
  2 19  1  6  0  0  0
  2  3  1  0  0  0  0
  4  5  1  0  0  0  0
  5  3  2  0  0  0  0
  7  8  1  0  0  0  0
  7  6  2  0  0  0  0
  8 12  1  1  0  0  0
  9 10  2  0  0  0  0
 10  8  1  0  0  0  0
 10 11  1  0  0  0  0
 12 14  1  0  0  0  0
 14 13  1  1  0  0  0
 14 15  1  0  0  0  0
 17 16  1  0  0  0  0
 18 17  1  0  0  0  0
 18 15  1  0  0  0  0
 18 16  1  0  0  0  0
 20 21  1  6  0  0  0
 20 19  1  0  0  0  0
 20 22  1  0  0  0  0
 22 26  1  0  0  0  0
 23 25  1  0  0  0  0
 24 23  1  0  0  0  0
 26 30  2  0  0  0  0
 27 24  1  0  0  0  0
 28 23  2  0  0  0  0
 29 26  1  0  0  0  0
 29 27  2  0  0  0  0
 30 28  1  0  0  0  0
M  END
>  <MODEL>
7

>  <REMARK>
 VINA RESULT:      -6.0      2.618      4.900
  Name = 
  11 active torsions:
  status: ('A' for Active; 'I' for Inactive)
    1  A    between atoms: N_3  and  C_11
    2  A    between atoms: N_3  and  C_19
    3  A    between atoms: C_4  and  C_13
    4  A    between atoms: C_7  and  C_30
    5  A    between atoms: C_8  and  C_12
    6  A    between atoms: C_8  and  C_13
    7  A    between atoms: C_9  and  C_12
    8  A    between atoms: C_9  and  N_21
    9  A    between atoms: C_10  and  C_25
   10  A    between atoms: C_11  and  C_25
   11  A    between atoms: C_13  and  C_30
                            x       y       z     vdW  Elec       q    Type
                         _______ _______ _______ _____ _____    ______ ____

>  <TORSDO>
F 11

$$$$
=
 OpenBabel11052417133D

 30 32  0  0  1  0  0  0  0  0999 V2000
  188.7430  174.3570  142.0160 C   0  0  1  0  0  3  0  0  0  0  0  0
  188.5810  174.9280  140.6110 C   0  0  1  0  0  3  0  0  0  0  0  0
  188.1920  173.7400  139.7940 C   0  0  0  0  0  3  0  0  0  0  0  0
  188.5330  172.9650  141.8530 O   0  0  0  0  0  0  0  0  0  0  0  0
  188.1910  172.6580  140.5500 C   0  0  0  0  0  3  0  0  0  0  0  0
  191.0870  174.5730  141.7810 O   0  0  0  0  0  0  0  0  0  0  0  0
  190.1220  174.6250  142.5320 C   0  0  0  0  0  0  0  0  0  0  0  0
  190.2970  174.9790  143.9760 C   0  0  2  0  0  3  0  0  0  0  0  0
  189.8270  173.0890  145.3770 O   0  0  0  0  0  0  0  0  0  0  0  0
  190.6960  173.7810  144.7830 C   0  0  0  0  0  0  0  0  0  0  0  0
  192.0660  173.4070  144.8510 N   0  0  0  0  0  1  0  0  0  0  0  0
  189.0450  175.6530  144.5270 C   0  0  0  0  0  2  0  0  0  0  0  0
  190.5730  177.6180  144.4860 C   0  0  0  0  0  1  0  0  0  0  0  0
  189.3760  176.9920  145.1750 C   0  0  2  0  0  3  0  0  0  0  0  0
  189.6270  176.8550  146.6760 C   0  0  0  0  0  2  0  0  0  0  0  0
  191.1610  175.6630  147.9900 C   0  0  0  0  0  2  0  0  0  0  0  0
  191.2270  177.0660  148.3760 C   0  0  0  0  0  2  0  0  0  0  0  0
  191.0470  176.7080  146.9620 N   0  0  0  0  0  0  0  0  0  0  0  0
  187.4780  175.9720  140.5990 C   0  0  0  0  0  2  0  0  0  0  0  0
  187.4930  176.7950  141.8780 C   0  0  1  0  0  3  0  0  0  0  0  0
  188.2900  178.0590  141.6370 C   0  0  0  0  0  1  0  0  0  0  0  0
  186.1310  177.1560  142.2560 N   0  0  0  0  0  2  0  0  0  0  0  0
  184.6280  178.1540  146.4080 C   0  0  0  0  0  0  0  0  0  0  0  0
  183.8940  179.0390  145.4590 C   0  0  0  0  0  2  0  0  0  0  0  0
  184.4380  178.3270  147.7370 F   0  0  0  0  0  0  0  0  0  0  0  0
  185.7580  177.6550  143.5460 C   0  0  0  0  0  0  0  0  0  0  0  0
  184.8300  179.7520  144.5430 C   0  0  0  0  0  3  0  0  0  0  0  0
  185.3650  177.1240  145.9920 C   0  0  0  0  0  3  0  0  0  0  0  0
  185.6240  179.1190  143.6790 C   0  0  0  0  0  3  0  0  0  0  0  0
  185.6820  176.8040  144.5860 C   0  0  0  0  0  3  0  0  0  0  0  0
  1  7  1  6  0  0  0
  2 19  1  1  0  0  0
  2  1  1  0  0  0  0
  3  5  2  0  0  0  0
  3  2  1  0  0  0  0
  4  1  1  0  0  0  0
  5  4  1  0  0  0  0
  6  7  2  0  0  0  0
  7  8  1  0  0  0  0
  8 12  1  1  0  0  0
  8 10  1  0  0  0  0
 10 11  1  0  0  0  0
 10  9  2  0  0  0  0
 12 14  1  0  0  0  0
 14 13  1  6  0  0  0
 14 15  1  0  0  0  0
 15 18  1  0  0  0  0
 16 17  1  0  0  0  0
 18 16  1  0  0  0  0
 18 17  1  0  0  0  0
 19 20  1  0  0  0  0
 20 21  1  6  0  0  0
 20 22  1  0  0  0  0
 22 26  1  0  0  0  0
 23 25  1  0  0  0  0
 24 23  1  0  0  0  0
 26 29  1  0  0  0  0
 26 30  2  0  0  0  0
 27 24  1  0  0  0  0
 28 23  2  0  0  0  0
 29 27  2  0  0  0  0
 30 28  1  0  0  0  0
M  END
>  <MODEL>
8

>  <REMARK>
 VINA RESULT:      -6.0      2.748      4.884
  Name = 
  11 active torsions:
  status: ('A' for Active; 'I' for Inactive)
    1  A    between atoms: N_3  and  C_11
    2  A    between atoms: N_3  and  C_19
    3  A    between atoms: C_4  and  C_13
    4  A    between atoms: C_7  and  C_30
    5  A    between atoms: C_8  and  C_12
    6  A    between atoms: C_8  and  C_13
    7  A    between atoms: C_9  and  C_12
    8  A    between atoms: C_9  and  N_21
    9  A    between atoms: C_10  and  C_25
   10  A    between atoms: C_11  and  C_25
   11  A    between atoms: C_13  and  C_30
                            x       y       z     vdW  Elec       q    Type
                         _______ _______ _______ _____ _____    ______ ____

>  <TORSDO>
F 11

$$$$
=
 OpenBabel11052417133D

 30 32  0  0  1  0  0  0  0  0999 V2000
  189.8550  177.0790  144.4720 C   0  0  1  0  0  3  0  0  0  0  0  0
  189.7700  175.5600  144.5750 C   0  0  1  0  0  3  0  0  0  0  0  0
  189.3000  175.3310  145.9740 C   0  0  0  0  0  3  0  0  0  0  0  0
  189.5340  177.5360  145.7750 O   0  0  0  0  0  0  0  0  0  0  0  0
  189.1950  176.4850  146.6060 C   0  0  0  0  0  3  0  0  0  0  0  0
  191.4630  178.6390  143.7110 O   0  0  0  0  0  0  0  0  0  0  0  0
  191.2410  177.4990  144.0940 C   0  0  0  0  0  0  0  0  0  0  0  0
  192.3540  176.5040  144.2130 C   0  0  2  0  0  3  0  0  0  0  0  0
  194.2950  177.4190  145.2860 O   0  0  0  0  0  0  0  0  0  0  0  0
  193.2100  176.7910  145.4090 C   0  0  0  0  0  0  0  0  0  0  0  0
  192.7750  176.3770  146.6980 N   0  0  0  0  0  1  0  0  0  0  0  0
  193.1680  176.4390  142.9250 C   0  0  0  0  0  2  0  0  0  0  0  0
  192.9800  174.0440  143.5780 C   0  0  0  0  0  1  0  0  0  0  0  0
  193.6880  175.0290  142.6690 C   0  0  2  0  0  3  0  0  0  0  0  0
  195.2020  174.9380  142.8480 C   0  0  0  0  0  2  0  0  0  0  0  0
  197.2800  175.6520  142.0250 C   0  0  0  0  0  2  0  0  0  0  0  0
  196.9160  176.5100  143.1440 C   0  0  0  0  0  2  0  0  0  0  0  0
  195.8780  176.0570  142.2080 N   0  0  0  0  0  0  0  0  0  0  0  0
  188.7570  175.0280  143.5760 C   0  0  0  0  0  2  0  0  0  0  0  0
  188.1260  176.1630  142.7830 C   0  0  1  0  0  3  0  0  0  0  0  0
  188.2380  175.8500  141.3070 C   0  0  0  0  0  1  0  0  0  0  0  0
  186.7160  176.2940  143.1360 N   0  0  0  0  0  2  0  0  0  0  0  0
  184.7530  178.2260  146.7280 C   0  0  0  0  0  0  0  0  0  0  0  0
  184.3580  179.0300  145.5360 C   0  0  0  0  0  2  0  0  0  0  0  0
  184.3810  178.6590  147.9560 F   0  0  0  0  0  0  0  0  0  0  0  0
  186.2310  177.0640  144.2420 C   0  0  0  0  0  0  0  0  0  0  0  0
  185.5440  179.4190  144.7230 C   0  0  0  0  0  3  0  0  0  0  0  0
  185.3520  177.0400  146.6180 C   0  0  0  0  0  3  0  0  0  0  0  0
  186.3430  178.5320  144.1300 C   0  0  0  0  0  3  0  0  0  0  0  0
  185.8340  176.4320  145.3620 C   0  0  0  0  0  3  0  0  0  0  0  0
  1  7  1  1  0  0  0
  1  2  1  0  0  0  0
  1  4  1  0  0  0  0
  2 19  1  6  0  0  0
  2  3  1  0  0  0  0
  3  5  2  0  0  0  0
  4  5  1  0  0  0  0
  6  7  2  0  0  0  0
  7  8  1  0  0  0  0
  8 12  1  6  0  0  0
  8 10  1  0  0  0  0
  9 10  2  0  0  0  0
 10 11  1  0  0  0  0
 14 15  1  0  0  0  0
 14 12  1  0  0  0  0
 14 13  1  1  0  0  0
 16 18  1  0  0  0  0
 16 17  1  0  0  0  0
 18 15  1  0  0  0  0
 18 17  1  0  0  0  0
 20 21  1  6  0  0  0
 20 22  1  0  0  0  0
 20 19  1  0  0  0  0
 22 26  1  0  0  0  0
 23 25  1  0  0  0  0
 24 23  1  0  0  0  0
 26 30  2  0  0  0  0
 27 24  1  0  0  0  0
 28 23  2  0  0  0  0
 29 26  1  0  0  0  0
 29 27  2  0  0  0  0
 30 28  1  0  0  0  0
M  END
>  <MODEL>
9

>  <REMARK>
 VINA RESULT:      -6.0      2.779      5.006
  Name = 
  11 active torsions:
  status: ('A' for Active; 'I' for Inactive)
    1  A    between atoms: N_3  and  C_11
    2  A    between atoms: N_3  and  C_19
    3  A    between atoms: C_4  and  C_13
    4  A    between atoms: C_7  and  C_30
    5  A    between atoms: C_8  and  C_12
    6  A    between atoms: C_8  and  C_13
    7  A    between atoms: C_9  and  C_12
    8  A    between atoms: C_9  and  N_21
    9  A    between atoms: C_10  and  C_25
   10  A    between atoms: C_11  and  C_25
   11  A    between atoms: C_13  and  C_30
                            x       y       z     vdW  Elec       q    Type
                         _______ _______ _______ _____ _____    ______ ____

>  <TORSDO>
F 11

$$$$
