=
 OpenBabel11052419593D

 37 43  0  0  1  0  0  0  0  0999 V2000
  194.1480  176.7280  144.6760 C   0  0  2  0  0  3  0  0  0  0  0  0
  190.6170  171.3530  142.6090 C   0  0  0  0  0  2  0  0  0  0  0  0
  190.0900  175.5290  142.8010 C   0  0  0  0  0  0  0  0  0  0  0  0
  195.3620  176.2440  143.9010 C   0  0  1  0  0  3  0  0  0  0  0  0
  192.4920  175.8410  146.3200 C   0  0  0  0  0  2  0  0  0  0  0  0
  190.1820  173.5200  141.3270 C   0  0  2  0  0  3  0  0  0  0  0  0
  190.9400  176.3250  143.7410 C   0  0  1  0  0  3  0  0  0  0  0  0
  190.7210  174.4320  142.4030 C   0  0  0  0  0  0  0  0  0  0  0  0
  190.3360  176.4210  145.1320 C   0  0  0  0  0  0  0  0  0  0  0  0
  189.1610  174.2370  140.4300 C   0  0  0  0  0  2  0  0  0  0  0  0
  192.0320  174.3620  143.0540 C   0  0  2  0  0  3  0  0  0  0  0  0
  192.9170  172.1490  142.1480 C   0  0  0  0  0  3  0  0  0  0  0  0
  188.2940  177.0550  142.4820 O   0  0  0  0  0  0  0  0  0  0  0  0
  188.1230  175.0160  141.2470 C   0  0  0  0  0  2  0  0  0  0  0  0
  192.8620  173.1240  143.2890 C   0  0  0  0  0  2  0  0  0  0  0  0
  190.9660  175.6690  146.2900 C   0  0  0  0  0  2  0  0  0  0  0  0
  188.8130  175.9450  142.1970 C   0  0  0  0  0  0  0  0  0  0  0  0
  192.1760  175.4700  143.7870 C   0  0  2  0  0  3  0  0  0  0  0  0
  189.5900  172.2260  141.8880 C   0  0  0  0  0  2  0  0  0  0  0  0
  191.9150  171.3090  141.8570 C   0  0  0  0  0  3  0  0  0  0  0  0
  194.5970  175.2610  144.7620 C   0  0  2  0  0  0  0  0  0  0  0  0
  193.1270  175.6340  144.9380 C   0  0  1  0  0  0  0  0  0  0  0  0
  189.2360  177.1640  145.3160 C   0  0  0  0  0  3  0  0  0  0  0  0
  195.7730  174.8720  141.8760 C   0  0  0  0  0  1  0  0  0  0  0  0
  195.0090  176.0540  142.4360 C   0  0  0  0  0  2  0  0  0  0  0  0
  195.3510  174.9170  146.0680 C   0  0  0  0  0  2  0  0  0  0  0  0
  196.3460  173.7460  146.0420 C   0  0  0  0  0  2  0  0  0  0  0  0
  197.7870  173.0560  144.5060 C   0  0  0  0  0  1  0  0  0  0  0  0
  197.5300  174.1070  145.3880 O   0  0  0  0  0  0  0  0  0  0  0  0
  188.5850  177.3390  146.6510 C   0  0  0  0  0  2  0  0  0  0  0  0
  186.4190  178.1160  147.6000 C   0  0  0  0  0  3  0  0  0  0  0  0
  187.1470  177.6870  146.4860 C   0  0  0  0  0  0  0  0  0  0  0  0
  186.5080  177.5520  145.2460 C   0  0  0  0  0  3  0  0  0  0  0  0
  184.5270  177.7190  143.9320 F   0  0  0  0  0  0  0  0  0  0  0  0
  184.4220  178.2750  146.2440 C   0  0  0  0  0  3  0  0  0  0  0  0
  185.1460  177.8440  145.1290 C   0  0  0  0  0  0  0  0  0  0  0  0
  185.0590  178.4130  147.4800 C   0  0  0  0  0  3  0  0  0  0  0  0
  1 21  1  0  0  0  0
  1 22  1  0  0  0  0
  3  7  1  0  0  0  0
  4  1  1  0  0  0  0
  4 21  1  0  0  0  0
  6 19  1  0  0  0  0
  6  8  1  0  0  0  0
  7 18  1  0  0  0  0
  7  9  1  0  0  0  0
  8  3  2  0  0  0  0
  8 11  1  0  0  0  0
  9 23  2  0  0  0  0
  9 16  1  0  0  0  0
 10 14  1  0  0  0  0
 10  6  1  0  0  0  0
 11 15  1  0  0  0  0
 11 18  1  0  0  0  0
 12 15  1  0  0  0  0
 14 17  1  0  0  0  0
 16  5  1  0  0  0  0
 17 13  2  0  0  0  0
 17  3  1  0  0  0  0
 18 22  1  0  0  0  0
 19  2  1  0  0  0  0
 20 12  2  0  0  0  0
 20  2  1  0  0  0  0
 21 22  1  0  0  0  0
 21 26  1  0  0  0  0
 22  5  1  0  0  0  0
 23 30  1  0  0  0  0
 24 25  1  0  0  0  0
 25  4  1  0  0  0  0
 27 26  1  0  0  0  0
 28 29  1  0  0  0  0
 29 27  1  0  0  0  0
 32 30  1  0  0  0  0
 32 31  2  0  0  0  0
 33 32  1  0  0  0  0
 34 36  1  0  0  0  0
 35 37  2  0  0  0  0
 36 33  2  0  0  0  0
 36 35  1  0  0  0  0
 37 31  1  0  0  0  0
M  END
>  <MODEL>
1

>  <REMARK>
 VINA RESULT:      -8.4      0.000      0.000
  Name = 
  6 active torsions:
  status: ('A' for Active; 'I' for Inactive)
    1  A    between atoms: C_5  and  C_23
    2  A    between atoms: C_6  and  C_31
    3  A    between atoms: C_17  and  C_26
    4  A    between atoms: C_17  and  C_33
    5  A    between atoms: C_26  and  O_34
    6  A    between atoms: C_31  and  C_37
                            x       y       z     vdW  Elec       q    Type
                         _______ _______ _______ _____ _____    ______ ____

>  <TORSDO>
F 6

$$$$
=
 OpenBabel11052419593D

 37 43  0  0  1  0  0  0  0  0999 V2000
  189.6060  172.3710  142.7140 C   0  0  2  0  0  3  0  0  0  0  0  0
  195.3510  175.9030  142.3360 C   0  0  0  0  0  2  0  0  0  0  0  0
  192.1660  175.4350  145.0540 C   0  0  0  0  0  0  0  0  0  0  0  0
  190.3470  171.1020  142.3310 C   0  0  1  0  0  3  0  0  0  0  0  0
  189.3640  174.7220  141.9100 C   0  0  0  0  0  2  0  0  0  0  0  0
  194.6240  175.2260  144.6900 C   0  0  2  0  0  3  0  0  0  0  0  0
  190.8640  174.8900  144.5590 C   0  0  1  0  0  3  0  0  0  0  0  0
  193.1790  174.9820  144.3270 C   0  0  0  0  0  0  0  0  0  0  0  0
  189.9420  175.9760  144.0290 C   0  0  0  0  0  0  0  0  0  0  0  0
  194.7880  175.5740  146.1780 C   0  0  0  0  0  2  0  0  0  0  0  0
  192.6630  174.1210  143.2590 C   0  0  2  0  0  3  0  0  0  0  0  0
  194.8150  173.5030  142.0390 C   0  0  0  0  0  3  0  0  0  0  0  0
  191.4290  176.5070  147.0460 O   0  0  0  0  0  0  0  0  0  0  0  0
  193.7800  176.6360  146.6360 C   0  0  0  0  0  2  0  0  0  0  0  0
  193.3430  173.7910  141.9530 C   0  0  0  0  0  2  0  0  0  0  0  0
  189.6740  176.0880  142.5390 C   0  0  0  0  0  2  0  0  0  0  0  0
  192.3890  176.2020  146.2910 C   0  0  0  0  0  0  0  0  0  0  0  0
  191.3390  174.0330  143.4190 C   0  0  2  0  0  3  0  0  0  0  0  0
  195.2840  176.2920  143.8130 C   0  0  0  0  0  2  0  0  0  0  0  0
  195.7400  174.4630  142.1710 C   0  0  0  0  0  3  0  0  0  0  0  0
  190.5960  172.3680  141.5400 C   0  0  2  0  0  0  0  0  0  0  0  0
  190.3590  173.6390  142.3510 C   0  0  1  0  0  0  0  0  0  0  0  0
  189.3840  176.8360  144.8910 C   0  0  0  0  0  3  0  0  0  0  0  0
  192.6510  170.2130  142.5610 C   0  0  0  0  0  1  0  0  0  0  0  0
  191.4890  170.8460  143.2980 C   0  0  0  0  0  2  0  0  0  0  0  0
  189.9130  172.3340  140.1520 C   0  0  0  0  0  2  0  0  0  0  0  0
  190.7130  172.8370  138.9400 C   0  0  0  0  0  2  0  0  0  0  0  0
  188.6200  173.3920  138.4710 C   0  0  0  0  0  1  0  0  0  0  0  0
  189.9440  173.7010  138.1520 O   0  0  0  0  0  0  0  0  0  0  0  0
  188.4460  177.9220  144.4670 C   0  0  0  0  0  2  0  0  0  0  0  0
  187.0670  176.9450  146.2940 C   0  0  0  0  0  3  0  0  0  0  0  0
  187.1520  177.8030  145.1930 C   0  0  0  0  0  0  0  0  0  0  0  0
  186.0160  178.5040  144.7670 C   0  0  0  0  0  3  0  0  0  0  0  0
  183.7050  179.0190  145.0350 F   0  0  0  0  0  0  0  0  0  0  0  0
  184.7220  177.4840  146.5440 C   0  0  0  0  0  3  0  0  0  0  0  0
  184.8020  178.3400  145.4420 C   0  0  0  0  0  0  0  0  0  0  0  0
  185.8550  176.7880  146.9720 C   0  0  0  0  0  3  0  0  0  0  0  0
  2 19  1  0  0  0  0
  3 17  1  0  0  0  0
  4  1  1  0  0  0  0
  4 25  1  0  0  0  0
  5 22  1  0  0  0  0
  5 16  1  0  0  0  0
  6 10  1  0  0  0  0
  7  3  1  0  0  0  0
  8  6  1  0  0  0  0
  8  3  2  0  0  0  0
  9  7  1  0  0  0  0
  9 23  2  0  0  0  0
 10 14  1  0  0  0  0
 11 18  1  0  0  0  0
 11  8  1  0  0  0  0
 12 20  2  0  0  0  0
 15 12  1  0  0  0  0
 15 11  1  0  0  0  0
 16  9  1  0  0  0  0
 17 14  1  0  0  0  0
 17 13  2  0  0  0  0
 18  7  1  0  0  0  0
 19  6  1  0  0  0  0
 20  2  1  0  0  0  0
 21  4  1  0  0  0  0
 21 22  1  0  0  0  0
 21  1  1  0  0  0  0
 22  1  1  0  0  0  0
 22 18  1  0  0  0  0
 24 25  1  0  0  0  0
 26 21  1  0  0  0  0
 27 26  1  0  0  0  0
 29 28  1  0  0  0  0
 29 27  1  0  0  0  0
 30 23  1  0  0  0  0
 30 32  1  0  0  0  0
 31 37  1  0  0  0  0
 32 31  2  0  0  0  0
 33 32  1  0  0  0  0
 33 36  2  0  0  0  0
 34 36  1  0  0  0  0
 35 37  2  0  0  0  0
 36 35  1  0  0  0  0
M  END
>  <MODEL>
2

>  <REMARK>
 VINA RESULT:      -8.3      1.897      5.339
  Name = 
  6 active torsions:
  status: ('A' for Active; 'I' for Inactive)
    1  A    between atoms: C_5  and  C_23
    2  A    between atoms: C_6  and  C_31
    3  A    between atoms: C_17  and  C_26
    4  A    between atoms: C_17  and  C_33
    5  A    between atoms: C_26  and  O_34
    6  A    between atoms: C_31  and  C_37
                            x       y       z     vdW  Elec       q    Type
                         _______ _______ _______ _____ _____    ______ ____

>  <TORSDO>
F 6

$$$$
=
 OpenBabel11052419593D

 37 43  0  0  1  0  0  0  0  0999 V2000
  193.7670  176.5590  144.7680 C   0  0  2  0  0  3  0  0  0  0  0  0
  191.3690  170.6240  142.6100 C   0  0  0  0  0  2  0  0  0  0  0  0
  190.0160  174.6040  142.8880 C   0  0  0  0  0  0  0  0  0  0  0  0
  195.0460  176.3420  143.9770 C   0  0  1  0  0  3  0  0  0  0  0  0
  192.3360  175.3260  146.4010 C   0  0  0  0  0  2  0  0  0  0  0  0
  190.4970  172.6830  141.3740 C   0  0  2  0  0  3  0  0  0  0  0  0
  190.6970  175.5380  143.8390 C   0  0  1  0  0  3  0  0  0  0  0  0
  190.8510  173.6640  142.4650 C   0  0  0  0  0  0  0  0  0  0  0  0
  190.0970  175.4840  145.2350 C   0  0  0  0  0  0  0  0  0  0  0  0
  189.3440  173.1960  140.4960 C   0  0  0  0  0  2  0  0  0  0  0  0
  192.1550  173.8460  143.1090 C   0  0  2  0  0  3  0  0  0  0  0  0
  193.4580  171.8730  142.1550 C   0  0  0  0  0  3  0  0  0  0  0  0
  187.9470  175.7450  142.6080 O   0  0  0  0  0  0  0  0  0  0  0  0
  188.1790  173.7360  141.3340 C   0  0  0  0  0  2  0  0  0  0  0  0
  193.2180  172.7970  143.3150 C   0  0  0  0  0  2  0  0  0  0  0  0
  190.8760  174.8530  146.3750 C   0  0  0  0  0  2  0  0  0  0  0  0
  188.6770  174.7670  142.2990 C   0  0  0  0  0  0  0  0  0  0  0  0
  192.0790  174.9470  143.8630 C   0  0  2  0  0  3  0  0  0  0  0  0
  190.1810  171.2860  141.9110 C   0  0  0  0  0  2  0  0  0  0  0  0
  192.6430  170.8550  141.8520 C   0  0  0  0  0  3  0  0  0  0  0  0
  194.5010  175.2100  144.8220 C   0  0  2  0  0  0  0  0  0  0  0  0
  192.9880  175.2780  145.0130 C   0  0  1  0  0  0  0  0  0  0  0  0
  188.8730  175.9880  145.4390 C   0  0  0  0  0  3  0  0  0  0  0  0
  195.7200  175.1360  141.9180 C   0  0  0  0  0  1  0  0  0  0  0  0
  194.7260  176.1130  142.5110 C   0  0  0  0  0  2  0  0  0  0  0  0
  195.3210  175.0010  146.1180 C   0  0  0  0  0  2  0  0  0  0  0  0
  196.4360  173.9430  146.1050 C   0  0  0  0  0  2  0  0  0  0  0  0
  197.0940  172.6400  144.4380 C   0  0  0  0  0  1  0  0  0  0  0  0
  196.0580  172.8230  145.3560 O   0  0  0  0  0  0  0  0  0  0  0  0
  188.2110  176.0030  146.7810 C   0  0  0  0  0  2  0  0  0  0  0  0
  185.9320  176.6490  146.0160 C   0  0  0  0  0  3  0  0  0  0  0  0
  187.0630  176.9500  146.7820 C   0  0  0  0  0  0  0  0  0  0  0  0
  187.1160  178.1500  147.5050 C   0  0  0  0  0  3  0  0  0  0  0  0
  186.0870  180.1990  148.1530 F   0  0  0  0  0  0  0  0  0  0  0  0
  184.9100  178.7360  146.6890 C   0  0  0  0  0  3  0  0  0  0  0  0
  186.0400  179.0420  147.4540 C   0  0  0  0  0  0  0  0  0  0  0  0
  184.8550  177.5390  145.9710 C   0  0  0  0  0  3  0  0  0  0  0  0
  1 21  1  0  0  0  0
  1 22  1  0  0  0  0
  3  7  1  0  0  0  0
  4  1  1  0  0  0  0
  4 21  1  0  0  0  0
  6 19  1  0  0  0  0
  6  8  1  0  0  0  0
  7 18  1  0  0  0  0
  7  9  1  0  0  0  0
  8  3  2  0  0  0  0
  8 11  1  0  0  0  0
  9 23  2  0  0  0  0
  9 16  1  0  0  0  0
 10 14  1  0  0  0  0
 10  6  1  0  0  0  0
 11 15  1  0  0  0  0
 11 18  1  0  0  0  0
 12 15  1  0  0  0  0
 14 17  1  0  0  0  0
 16  5  1  0  0  0  0
 17 13  2  0  0  0  0
 17  3  1  0  0  0  0
 18 22  1  0  0  0  0
 19  2  1  0  0  0  0
 20 12  2  0  0  0  0
 20  2  1  0  0  0  0
 21 22  1  0  0  0  0
 21 26  1  0  0  0  0
 22  5  1  0  0  0  0
 23 30  1  0  0  0  0
 24 25  1  0  0  0  0
 25  4  1  0  0  0  0
 27 26  1  0  0  0  0
 28 29  1  0  0  0  0
 29 27  1  0  0  0  0
 30 32  1  0  0  0  0
 31 32  1  0  0  0  0
 32 33  2  0  0  0  0
 35 36  2  0  0  0  0
 36 33  1  0  0  0  0
 36 34  1  0  0  0  0
 37 31  2  0  0  0  0
 37 35  1  0  0  0  0
M  END
>  <MODEL>
3

>  <REMARK>
 VINA RESULT:      -8.3      1.218      1.404
  Name = 
  6 active torsions:
  status: ('A' for Active; 'I' for Inactive)
    1  A    between atoms: C_5  and  C_23
    2  A    between atoms: C_6  and  C_31
    3  A    between atoms: C_17  and  C_26
    4  A    between atoms: C_17  and  C_33
    5  A    between atoms: C_26  and  O_34
    6  A    between atoms: C_31  and  C_37
                            x       y       z     vdW  Elec       q    Type
                         _______ _______ _______ _____ _____    ______ ____

>  <TORSDO>
F 6

$$$$
=
 OpenBabel11052419593D

 37 43  0  0  1  0  0  0  0  0999 V2000
  189.4140  172.1410  141.6360 C   0  0  2  0  0  3  0  0  0  0  0  0
  194.4150  176.2610  143.5460 C   0  0  0  0  0  2  0  0  0  0  0  0
  190.7250  174.9340  145.0860 C   0  0  0  0  0  0  0  0  0  0  0  0
  190.4220  171.0580  141.2920 C   0  0  1  0  0  3  0  0  0  0  0  0
  189.0340  174.5670  141.1810 C   0  0  0  0  0  2  0  0  0  0  0  0
  193.1900  175.0590  145.4390 C   0  0  2  0  0  3  0  0  0  0  0  0
  189.7090  174.3630  144.1470 C   0  0  1  0  0  3  0  0  0  0  0  0
  191.9560  174.7420  144.6300 C   0  0  0  0  0  0  0  0  0  0  0  0
  188.8080  175.4300  143.5480 C   0  0  0  0  0  0  0  0  0  0  0  0
  192.8860  175.1220  146.9440 C   0  0  0  0  0  2  0  0  0  0  0  0
  191.8930  174.0600  143.3340 C   0  0  2  0  0  3  0  0  0  0  0  0
  194.3650  173.9250  142.7240 C   0  0  0  0  0  3  0  0  0  0  0  0
  189.3150  175.5070  146.9140 O   0  0  0  0  0  0  0  0  0  0  0  0
  191.6380  175.9600  147.2450 C   0  0  0  0  0  2  0  0  0  0  0  0
  192.9460  174.0680  142.2540 C   0  0  0  0  0  2  0  0  0  0  0  0
  188.9420  175.8060  142.0830 C   0  0  0  0  0  2  0  0  0  0  0  0
  190.4790  175.4600  146.4400 C   0  0  0  0  0  0  0  0  0  0  0  0
  190.6060  173.8030  143.0780 C   0  0  2  0  0  3  0  0  0  0  0  0
  193.8880  176.3410  144.9780 C   0  0  0  0  0  2  0  0  0  0  0  0
  195.0550  174.9310  143.2760 C   0  0  0  0  0  3  0  0  0  0  0  0
  190.6740  172.4750  140.8230 C   0  0  2  0  0  0  0  0  0  0  0  0
  190.0280  173.5280  141.7190 C   0  0  1  0  0  0  0  0  0  0  0  0
  187.9090  176.0400  144.3310 C   0  0  0  0  0  3  0  0  0  0  0  0
  192.6890  170.3980  142.0520 C   0  0  0  0  0  1  0  0  0  0  0  0
  191.2830  170.7370  142.5010 C   0  0  0  0  0  2  0  0  0  0  0  0
  190.4090  172.6450  139.3080 C   0  0  0  0  0  2  0  0  0  0  0  0
  191.5460  173.1970  138.4330 C   0  0  0  0  0  2  0  0  0  0  0  0
  190.3400  173.4160  136.5870 C   0  0  0  0  0  1  0  0  0  0  0  0
  191.0650  174.1500  137.5270 O   0  0  0  0  0  0  0  0  0  0  0  0
  186.9620  177.0830  143.8260 C   0  0  0  0  0  2  0  0  0  0  0  0
  184.9180  178.2720  144.6020 C   0  0  0  0  0  3  0  0  0  0  0  0
  186.0730  177.5530  144.9240 C   0  0  0  0  0  0  0  0  0  0  0  0
  186.3970  177.3190  146.2670 C   0  0  0  0  0  3  0  0  0  0  0  0
  185.8750  177.5820  148.5770 F   0  0  0  0  0  0  0  0  0  0  0  0
  184.4110  178.5260  146.9540 C   0  0  0  0  0  3  0  0  0  0  0  0
  185.5660  177.8090  147.2790 C   0  0  0  0  0  0  0  0  0  0  0  0
  184.0860  178.7560  145.6150 C   0  0  0  0  0  3  0  0  0  0  0  0
  1 22  1  0  0  0  0
  2 19  1  0  0  0  0
  3 17  1  0  0  0  0
  4  1  1  0  0  0  0
  4 25  1  0  0  0  0
  5 22  1  0  0  0  0
  5 16  1  0  0  0  0
  6 10  1  0  0  0  0
  7  3  1  0  0  0  0
  8  3  2  0  0  0  0
  8  6  1  0  0  0  0
  9  7  1  0  0  0  0
  9 23  2  0  0  0  0
 10 14  1  0  0  0  0
 11  8  1  0  0  0  0
 12 20  2  0  0  0  0
 15 12  1  0  0  0  0
 15 11  1  0  0  0  0
 16  9  1  0  0  0  0
 17 13  2  0  0  0  0
 17 14  1  0  0  0  0
 18 11  1  0  0  0  0
 18  7  1  0  0  0  0
 19  6  1  0  0  0  0
 20  2  1  0  0  0  0
 21  4  1  0  0  0  0
 21  1  1  0  0  0  0
 21 22  1  0  0  0  0
 22 18  1  0  0  0  0
 24 25  1  0  0  0  0
 26 21  1  0  0  0  0
 27 26  1  0  0  0  0
 28 29  1  0  0  0  0
 29 27  1  0  0  0  0
 30 23  1  0  0  0  0
 30 32  1  0  0  0  0
 31 32  2  0  0  0  0
 31 37  1  0  0  0  0
 32 33  1  0  0  0  0
 33 36  2  0  0  0  0
 35 36  1  0  0  0  0
 36 34  1  0  0  0  0
 37 35  2  0  0  0  0
M  END
>  <MODEL>
4

>  <REMARK>
 VINA RESULT:      -7.8      2.252      5.391
  Name = 
  6 active torsions:
  status: ('A' for Active; 'I' for Inactive)
    1  A    between atoms: C_5  and  C_23
    2  A    between atoms: C_6  and  C_31
    3  A    between atoms: C_17  and  C_26
    4  A    between atoms: C_17  and  C_33
    5  A    between atoms: C_26  and  O_34
    6  A    between atoms: C_31  and  C_37
                            x       y       z     vdW  Elec       q    Type
                         _______ _______ _______ _____ _____    ______ ____

>  <TORSDO>
F 6

$$$$
=
 OpenBabel11052419593D

 37 43  0  0  1  0  0  0  0  0999 V2000
  190.4480  171.6650  142.3200 C   0  0  2  0  0  3  0  0  0  0  0  0
  194.4070  176.2340  145.3320 C   0  0  0  0  0  2  0  0  0  0  0  0
  190.4270  174.8890  145.6400 C   0  0  0  0  0  0  0  0  0  0  0  0
  191.5240  170.6060  142.4840 C   0  0  1  0  0  3  0  0  0  0  0  0
  190.2240  174.0010  141.4670 C   0  0  0  0  0  2  0  0  0  0  0  0
  192.6080  175.1860  146.8110 C   0  0  2  0  0  3  0  0  0  0  0  0
  189.8130  174.1640  144.4830 C   0  0  1  0  0  3  0  0  0  0  0  0
  191.7420  174.7140  145.6680 C   0  0  0  0  0  0  0  0  0  0  0  0
  189.1690  175.1080  143.4810 C   0  0  0  0  0  0  0  0  0  0  0  0
  191.7920  175.3980  148.0960 C   0  0  0  0  0  2  0  0  0  0  0  0
  192.1470  173.8910  144.5250 C   0  0  2  0  0  3  0  0  0  0  0  0
  194.6760  173.8220  144.8370 C   0  0  0  0  0  3  0  0  0  0  0  0
  188.4560  175.5850  146.7760 O   0  0  0  0  0  0  0  0  0  0  0  0
  190.5080  176.1960  147.8380 C   0  0  0  0  0  2  0  0  0  0  0  0
  193.5130  173.8350  143.8880 C   0  0  0  0  0  2  0  0  0  0  0  0
  189.8060  175.3260  142.1210 C   0  0  0  0  0  2  0  0  0  0  0  0
  189.7130  175.5480  146.7470 C   0  0  0  0  0  0  0  0  0  0  0  0
  191.0360  173.5380  143.8710 C   0  0  2  0  0  3  0  0  0  0  0  0
  193.4080  176.4440  146.4690 C   0  0  0  0  0  2  0  0  0  0  0  0
  195.1160  174.9190  145.4670 C   0  0  0  0  0  3  0  0  0  0  0  0
  191.9090  171.9740  141.9620 C   0  0  2  0  0  0  0  0  0  0  0  0
  190.9770  173.0840  142.4400 C   0  0  1  0  0  0  0  0  0  0  0  0
  188.0440  175.7510  143.8210 C   0  0  0  0  0  3  0  0  0  0  0  0
  193.3810  170.1410  144.0600 C   0  0  0  0  0  1  0  0  0  0  0  0
  191.9070  170.4680  143.9470 C   0  0  0  0  0  2  0  0  0  0  0  0
  192.1930  171.9600  140.4410 C   0  0  0  0  0  2  0  0  0  0  0  0
  193.1410  173.0290  139.8730 C   0  0  0  0  0  2  0  0  0  0  0  0
  191.6300  172.6620  138.2940 C   0  0  0  0  0  1  0  0  0  0  0  0
  192.6640  173.5270  138.6550 O   0  0  0  0  0  0  0  0  0  0  0  0
  187.3250  176.6800  142.8940 C   0  0  0  0  0  2  0  0  0  0  0  0
  186.6670  177.9000  144.9610 C   0  0  0  0  0  3  0  0  0  0  0  0
  186.3590  177.5230  143.6500 C   0  0  0  0  0  0  0  0  0  0  0  0
  185.1370  177.9080  143.0830 C   0  0  0  0  0  3  0  0  0  0  0  0
  183.0490  179.0400  143.2860 F   0  0  0  0  0  0  0  0  0  0  0  0
  184.5410  179.0410  145.1420 C   0  0  0  0  0  3  0  0  0  0  0  0
  184.2290  178.6640  143.8320 C   0  0  0  0  0  0  0  0  0  0  0  0
  185.7620  178.6610  145.7060 C   0  0  0  0  0  3  0  0  0  0  0  0
  1 22  1  0  0  0  0
  1  4  1  0  0  0  0
  2 20  1  0  0  0  0
  2 19  1  0  0  0  0
  3  8  2  0  0  0  0
  3 17  1  0  0  0  0
  4 25  1  0  0  0  0
  5 16  1  0  0  0  0
  5 22  1  0  0  0  0
  6 10  1  0  0  0  0
  7  3  1  0  0  0  0
  8  6  1  0  0  0  0
  9 23  2  0  0  0  0
  9  7  1  0  0  0  0
 11  8  1  0  0  0  0
 12 20  2  0  0  0  0
 14 10  1  0  0  0  0
 15 11  1  0  0  0  0
 15 12  1  0  0  0  0
 16  9  1  0  0  0  0
 17 13  2  0  0  0  0
 17 14  1  0  0  0  0
 18  7  1  0  0  0  0
 18 11  1  0  0  0  0
 19  6  1  0  0  0  0
 21  1  1  0  0  0  0
 21 22  1  0  0  0  0
 21  4  1  0  0  0  0
 22 18  1  0  0  0  0
 25 24  1  0  0  0  0
 26 21  1  0  0  0  0
 27 26  1  0  0  0  0
 28 29  1  0  0  0  0
 29 27  1  0  0  0  0
 30 32  1  0  0  0  0
 30 23  1  0  0  0  0
 31 37  1  0  0  0  0
 32 31  2  0  0  0  0
 33 32  1  0  0  0  0
 33 36  2  0  0  0  0
 34 36  1  0  0  0  0
 35 37  2  0  0  0  0
 36 35  1  0  0  0  0
M  END
>  <MODEL>
5

>  <REMARK>
 VINA RESULT:      -7.4      2.242      5.079
  Name = 
  6 active torsions:
  status: ('A' for Active; 'I' for Inactive)
    1  A    between atoms: C_5  and  C_23
    2  A    between atoms: C_6  and  C_31
    3  A    between atoms: C_17  and  C_26
    4  A    between atoms: C_17  and  C_33
    5  A    between atoms: C_26  and  O_34
    6  A    between atoms: C_31  and  C_37
                            x       y       z     vdW  Elec       q    Type
                         _______ _______ _______ _____ _____    ______ ____

>  <TORSDO>
F 6

$$$$
=
 OpenBabel11052419593D

 37 43  0  0  1  0  0  0  0  0999 V2000
  190.8890  178.0300  144.7960 C   0  0  2  0  0  3  0  0  0  0  0  0
  188.3930  172.1670  142.5550 C   0  0  0  0  0  2  0  0  0  0  0  0
  188.2140  176.2350  141.4730 C   0  0  0  0  0  0  0  0  0  0  0  0
  192.2790  177.4220  144.8750 C   0  0  1  0  0  3  0  0  0  0  0  0
  188.5630  177.5060  145.5360 C   0  0  0  0  0  2  0  0  0  0  0  0
  188.8490  173.9300  140.7630 C   0  0  2  0  0  3  0  0  0  0  0  0
  188.5510  177.2740  142.4960 C   0  0  1  0  0  3  0  0  0  0  0  0
  188.8590  175.1010  141.7160 C   0  0  0  0  0  0  0  0  0  0  0  0
  187.3450  177.6840  143.3260 C   0  0  0  0  0  0  0  0  0  0  0  0
  188.4770  174.3600  139.3350 C   0  0  0  0  0  2  0  0  0  0  0  0
  189.6600  175.2490  142.9340 C   0  0  2  0  0  3  0  0  0  0  0  0
  190.6780  172.9210  143.1440 C   0  0  0  0  0  3  0  0  0  0  0  0
  186.9590  177.5580  139.9460 O   0  0  0  0  0  0  0  0  0  0  0  0
  187.2440  175.2710  139.3100 C   0  0  0  0  0  2  0  0  0  0  0  0
  190.1500  174.1440  143.8370 C   0  0  0  0  0  2  0  0  0  0  0  0
  187.2470  177.2680  144.7830 C   0  0  0  0  0  2  0  0  0  0  0  0
  187.4500  176.4350  140.2300 C   0  0  0  0  0  0  0  0  0  0  0  0
  189.5180  176.5100  143.3570 C   0  0  2  0  0  3  0  0  0  0  0  0
  187.9440  172.7910  141.2340 C   0  0  0  0  0  2  0  0  0  0  0  0
  189.8840  171.9940  142.5940 C   0  0  0  0  0  3  0  0  0  0  0  0
  191.1030  176.6500  145.4360 C   0  0  2  0  0  0  0  0  0  0  0  0
  189.7810  176.9920  144.7550 C   0  0  1  0  0  0  0  0  0  0  0  0
  186.3720  178.4020  142.7520 C   0  0  0  0  0  3  0  0  0  0  0  0
  193.6170  175.6830  143.7200 C   0  0  0  0  0  1  0  0  0  0  0  0
  192.6870  176.8620  143.5240 C   0  0  0  0  0  2  0  0  0  0  0  0
  191.0740  176.6710  146.9830 C   0  0  0  0  0  2  0  0  0  0  0  0
  191.0350  175.3250  147.7240 C   0  0  0  0  0  2  0  0  0  0  0  0
  188.9460  174.5890  147.6560 C   0  0  0  0  0  1  0  0  0  0  0  0
  190.1990  174.4140  147.0670 O   0  0  0  0  0  0  0  0  0  0  0  0
  185.1600  178.8720  143.4930 C   0  0  0  0  0  2  0  0  0  0  0  0
  182.6950  179.0410  143.1960 C   0  0  0  0  0  3  0  0  0  0  0  0
  183.9390  178.6890  142.6630 C   0  0  0  0  0  0  0  0  0  0  0  0
  184.0150  178.1350  141.3780 C   0  0  0  0  0  3  0  0  0  0  0  0
  182.9170  177.4020  139.3930 F   0  0  0  0  0  0  0  0  0  0  0  0
  181.6050  178.2880  141.1710 C   0  0  0  0  0  3  0  0  0  0  0  0
  182.8460  177.9330  140.6360 C   0  0  0  0  0  0  0  0  0  0  0  0
  181.5290  178.8450  142.4510 C   0  0  0  0  0  3  0  0  0  0  0  0
  1  4  1  0  0  0  0
  1 21  1  0  0  0  0
  2 20  1  0  0  0  0
  3  8  2  0  0  0  0
  3  7  1  0  0  0  0
  4 21  1  0  0  0  0
  6 19  1  0  0  0  0
  6  8  1  0  0  0  0
  7  9  1  0  0  0  0
  7 18  1  0  0  0  0
  8 11  1  0  0  0  0
  9 16  1  0  0  0  0
 10  6  1  0  0  0  0
 11 18  1  0  0  0  0
 11 15  1  0  0  0  0
 12 15  1  0  0  0  0
 13 17  2  0  0  0  0
 14 10  1  0  0  0  0
 14 17  1  0  0  0  0
 16  5  1  0  0  0  0
 17  3  1  0  0  0  0
 18 22  1  0  0  0  0
 19  2  1  0  0  0  0
 20 12  2  0  0  0  0
 21 26  1  0  0  0  0
 22  1  1  0  0  0  0
 22 21  1  0  0  0  0
 22  5  1  0  0  0  0
 23  9  2  0  0  0  0
 23 30  1  0  0  0  0
 25 24  1  0  0  0  0
 25  4  1  0  0  0  0
 26 27  1  0  0  0  0
 29 28  1  0  0  0  0
 29 27  1  0  0  0  0
 32 31  1  0  0  0  0
 32 30  1  0  0  0  0
 33 32  2  0  0  0  0
 34 36  1  0  0  0  0
 35 37  1  0  0  0  0
 36 35  2  0  0  0  0
 36 33  1  0  0  0  0
 37 31  2  0  0  0  0
M  END
>  <MODEL>
6

>  <REMARK>
 VINA RESULT:      -7.1      2.547      4.191
  Name = 
  6 active torsions:
  status: ('A' for Active; 'I' for Inactive)
    1  A    between atoms: C_5  and  C_23
    2  A    between atoms: C_6  and  C_31
    3  A    between atoms: C_17  and  C_26
    4  A    between atoms: C_17  and  C_33
    5  A    between atoms: C_26  and  O_34
    6  A    between atoms: C_31  and  C_37
                            x       y       z     vdW  Elec       q    Type
                         _______ _______ _______ _____ _____    ______ ____

>  <TORSDO>
F 6

$$$$
=
 OpenBabel11052419593D

 37 43  0  0  1  0  0  0  0  0999 V2000
  191.7980  171.7000  143.8840 C   0  0  2  0  0  3  0  0  0  0  0  0
  195.8460  174.8110  139.4620 C   0  0  0  0  0  2  0  0  0  0  0  0
  194.6790  175.2990  143.4800 C   0  0  0  0  0  0  0  0  0  0  0  0
  192.4180  170.3600  143.5270 C   0  0  1  0  0  3  0  0  0  0  0  0
  190.8010  173.6760  142.7290 C   0  0  0  0  0  2  0  0  0  0  0  0
  196.5790  174.9350  141.9060 C   0  0  2  0  0  3  0  0  0  0  0  0
  193.4170  174.6500  143.9540 C   0  0  1  0  0  3  0  0  0  0  0  0
  195.2180  174.6170  142.4770 C   0  0  0  0  0  0  0  0  0  0  0  0
  192.1950  175.5280  143.7380 C   0  0  0  0  0  0  0  0  0  0  0  0
  197.4400  175.7370  142.8950 C   0  0  0  0  0  2  0  0  0  0  0  0
  194.3630  173.4710  142.1550 C   0  0  2  0  0  3  0  0  0  0  0  0
  195.6230  172.4530  140.1850 C   0  0  0  0  0  3  0  0  0  0  0  0
  194.9360  176.9650  145.1590 O   0  0  0  0  0  0  0  0  0  0  0  0
  196.6680  176.9090  143.5130 C   0  0  0  0  0  2  0  0  0  0  0  0
  194.3010  172.7280  140.8440 C   0  0  0  0  0  2  0  0  0  0  0  0
  191.1730  175.1640  142.6770 C   0  0  0  0  0  2  0  0  0  0  0  0
  195.3920  176.4160  144.1230 C   0  0  0  0  0  0  0  0  0  0  0  0
  193.3530  173.4650  143.0310 C   0  0  2  0  0  3  0  0  0  0  0  0
  196.5020  175.6520  140.5570 C   0  0  0  0  0  2  0  0  0  0  0  0
  196.3130  173.3860  139.5180 C   0  0  0  0  0  3  0  0  0  0  0  0
  192.0110  171.3030  142.4150 C   0  0  2  0  0  0  0  0  0  0  0  0
  192.0360  172.7700  142.8330 C   0  0  1  0  0  0  0  0  0  0  0  0
  192.0440  176.6300  144.4850 C   0  0  0  0  0  3  0  0  0  0  0  0
  194.2250  170.6760  145.1960 C   0  0  0  0  0  1  0  0  0  0  0  0
  193.9210  170.4030  143.7380 C   0  0  0  0  0  2  0  0  0  0  0  0
  190.7180  170.8410  141.7020 C   0  0  0  0  0  2  0  0  0  0  0  0
  190.7560  170.6690  140.1750 C   0  0  0  0  0  2  0  0  0  0  0  0
  190.7360  172.6150  139.1160 C   0  0  0  0  0  1  0  0  0  0  0  0
  189.9020  171.5810  139.5450 O   0  0  0  0  0  0  0  0  0  0  0  0
  190.8640  177.5410  144.3630 C   0  0  0  0  0  2  0  0  0  0  0  0
  188.4830  177.6600  145.0800 C   0  0  0  0  0  3  0  0  0  0  0  0
  189.7310  177.0390  145.1880 C   0  0  0  0  0  0  0  0  0  0  0  0
  189.9090  175.9840  146.0940 C   0  0  0  0  0  3  0  0  0  0  0  0
  189.0060  174.5410  147.7610 F   0  0  0  0  0  0  0  0  0  0  0  0
  187.5920  176.1830  146.7750 C   0  0  0  0  0  3  0  0  0  0  0  0
  188.8380  175.5610  146.8880 C   0  0  0  0  0  0  0  0  0  0  0  0
  187.4130  177.2320  145.8690 C   0  0  0  0  0  3  0  0  0  0  0  0
  2 20  1  0  0  0  0
  2 19  1  0  0  0  0
  3  7  1  0  0  0  0
  3 17  1  0  0  0  0
  4 25  1  0  0  0  0
  4  1  1  0  0  0  0
  5 22  1  0  0  0  0
  6  8  1  0  0  0  0
  6 10  1  0  0  0  0
  8  3  2  0  0  0  0
  9  7  1  0  0  0  0
  9 23  2  0  0  0  0
 10 14  1  0  0  0  0
 11  8  1  0  0  0  0
 11 18  1  0  0  0  0
 12 15  1  0  0  0  0
 14 17  1  0  0  0  0
 15 11  1  0  0  0  0
 16  5  1  0  0  0  0
 16  9  1  0  0  0  0
 17 13  2  0  0  0  0
 18  7  1  0  0  0  0
 19  6  1  0  0  0  0
 20 12  2  0  0  0  0
 21 22  1  0  0  0  0
 21  4  1  0  0  0  0
 21  1  1  0  0  0  0
 22 18  1  0  0  0  0
 22  1  1  0  0  0  0
 25 24  1  0  0  0  0
 26 21  1  0  0  0  0
 27 26  1  0  0  0  0
 28 29  1  0  0  0  0
 29 27  1  0  0  0  0
 30 23  1  0  0  0  0
 30 32  1  0  0  0  0
 31 32  2  0  0  0  0
 31 37  1  0  0  0  0
 32 33  1  0  0  0  0
 33 36  2  0  0  0  0
 35 36  1  0  0  0  0
 36 34  1  0  0  0  0
 37 35  2  0  0  0  0
M  END
>  <MODEL>
7

>  <REMARK>
 VINA RESULT:      -7.0      2.419      5.696
  Name = 
  6 active torsions:
  status: ('A' for Active; 'I' for Inactive)
    1  A    between atoms: C_5  and  C_23
    2  A    between atoms: C_6  and  C_31
    3  A    between atoms: C_17  and  C_26
    4  A    between atoms: C_17  and  C_33
    5  A    between atoms: C_26  and  O_34
    6  A    between atoms: C_31  and  C_37
                            x       y       z     vdW  Elec       q    Type
                         _______ _______ _______ _____ _____    ______ ____

>  <TORSDO>
F 6

$$$$
=
 OpenBabel11052419593D

 37 43  0  0  1  0  0  0  0  0999 V2000
  190.5270  176.9940  145.3610 C   0  0  2  0  0  3  0  0  0  0  0  0
  191.0560  171.3020  141.7630 C   0  0  0  0  0  2  0  0  0  0  0  0
  193.2590  173.3100  144.7400 C   0  0  0  0  0  0  0  0  0  0  0  0
  189.0890  176.6530  145.7120 C   0  0  1  0  0  3  0  0  0  0  0  0
  191.9850  177.1390  143.3400 C   0  0  0  0  0  2  0  0  0  0  0  0
  192.0530  171.2190  144.1130 C   0  0  2  0  0  3  0  0  0  0  0  0
  193.0230  174.7710  144.9560 C   0  0  1  0  0  3  0  0  0  0  0  0
  192.1690  172.7160  144.2700 C   0  0  0  0  0  0  0  0  0  0  0  0
  193.8910  175.6400  144.0600 C   0  0  0  0  0  0  0  0  0  0  0  0
  193.0660  170.4720  144.9960 C   0  0  0  0  0  2  0  0  0  0  0  0
  191.1110  173.7140  144.0930 C   0  0  2  0  0  3  0  0  0  0  0  0
  189.2350  172.2800  143.1290 C   0  0  0  0  0  3  0  0  0  0  0  0
  195.4100  173.0920  145.7330 O   0  0  0  0  0  0  0  0  0  0  0  0
  194.4760  171.0630  144.8820 C   0  0  0  0  0  2  0  0  0  0  0  0
  189.9190  173.6170  143.1730 C   0  0  0  0  0  2  0  0  0  0  0  0
  193.2670  176.4100  142.9100 C   0  0  0  0  0  2  0  0  0  0  0  0
  194.4380  172.5340  145.1610 C   0  0  0  0  0  0  0  0  0  0  0  0
  191.5860  174.8850  144.5280 C   0  0  2  0  0  3  0  0  0  0  0  0
  192.1730  170.7650  142.6570 C   0  0  0  0  0  2  0  0  0  0  0  0
  189.7260  171.2320  142.4540 C   0  0  0  0  0  3  0  0  0  0  0  0
  189.5520  176.5130  144.2770 C   0  0  2  0  0  0  0  0  0  0  0  0
  191.0470  176.2360  144.1520 C   0  0  1  0  0  0  0  0  0  0  0  0
  195.2090  175.7020  144.2900 C   0  0  0  0  0  3  0  0  0  0  0  0
  189.9370  175.2700  147.5880 C   0  0  0  0  0  1  0  0  0  0  0  0
  189.0190  175.2920  146.3830 C   0  0  0  0  0  2  0  0  0  0  0  0
  189.0140  177.6510  143.3760 C   0  0  0  0  0  2  0  0  0  0  0  0
  188.2910  177.2630  142.0760 C   0  0  0  0  0  2  0  0  0  0  0  0
  186.5890  178.6440  142.4040 C   0  0  0  0  0  1  0  0  0  0  0  0
  186.9020  177.2930  142.2460 O   0  0  0  0  0  0  0  0  0  0  0  0
  196.1390  176.5480  143.4790 C   0  0  0  0  0  2  0  0  0  0  0  0
  197.1010  174.4200  142.6170 C   0  0  0  0  0  3  0  0  0  0  0  0
  196.7360  175.7480  142.3740 C   0  0  0  0  0  0  0  0  0  0  0  0
  196.9740  176.3170  141.1160 C   0  0  0  0  0  3  0  0  0  0  0  0
  197.8040  176.1020  138.8920 F   0  0  0  0  0  0  0  0  0  0  0  0
  197.9370  174.2280  140.3550 C   0  0  0  0  0  3  0  0  0  0  0  0
  197.5770  175.5560  140.1090 C   0  0  0  0  0  0  0  0  0  0  0  0
  197.6970  173.6590  141.6080 C   0  0  0  0  0  3  0  0  0  0  0  0
  1  4  1  0  0  0  0
  2 20  1  0  0  0  0
  2 19  1  0  0  0  0
  3  7  1  0  0  0  0
  3 17  1  0  0  0  0
  4 25  1  0  0  0  0
  5 22  1  0  0  0  0
  6  8  1  0  0  0  0
  6 10  1  0  0  0  0
  8  3  2  0  0  0  0
  9 23  2  0  0  0  0
  9  7  1  0  0  0  0
 11  8  1  0  0  0  0
 11 18  1  0  0  0  0
 12 15  1  0  0  0  0
 14 10  1  0  0  0  0
 14 17  1  0  0  0  0
 15 11  1  0  0  0  0
 16  5  1  0  0  0  0
 16  9  1  0  0  0  0
 17 13  2  0  0  0  0
 18  7  1  0  0  0  0
 19  6  1  0  0  0  0
 20 12  2  0  0  0  0
 21  1  1  0  0  0  0
 21  4  1  0  0  0  0
 22 21  1  0  0  0  0
 22 18  1  0  0  0  0
 22  1  1  0  0  0  0
 25 24  1  0  0  0  0
 26 21  1  0  0  0  0
 27 29  1  0  0  0  0
 27 26  1  0  0  0  0
 29 28  1  0  0  0  0
 30 23  1  0  0  0  0
 32 31  1  0  0  0  0
 32 30  1  0  0  0  0
 33 32  2  0  0  0  0
 34 36  1  0  0  0  0
 35 37  1  0  0  0  0
 36 35  2  0  0  0  0
 36 33  1  0  0  0  0
 37 31  2  0  0  0  0
M  END
>  <MODEL>
8

>  <REMARK>
 VINA RESULT:      -7.0      3.112      8.012
  Name = 
  6 active torsions:
  status: ('A' for Active; 'I' for Inactive)
    1  A    between atoms: C_5  and  C_23
    2  A    between atoms: C_6  and  C_31
    3  A    between atoms: C_17  and  C_26
    4  A    between atoms: C_17  and  C_33
    5  A    between atoms: C_26  and  O_34
    6  A    between atoms: C_31  and  C_37
                            x       y       z     vdW  Elec       q    Type
                         _______ _______ _______ _____ _____    ______ ____

>  <TORSDO>
F 6

$$$$
=
 OpenBabel11052419593D

 37 43  0  0  1  0  0  0  0  0999 V2000
  191.9880  176.7830  145.9940 C   0  0  2  0  0  3  0  0  0  0  0  0
  191.1160  171.3340  142.0990 C   0  0  0  0  0  2  0  0  0  0  0  0
  194.0640  172.8560  144.6960 C   0  0  0  0  0  0  0  0  0  0  0  0
  190.6060  176.5900  146.5950 C   0  0  1  0  0  3  0  0  0  0  0  0
  193.0600  176.8960  143.7420 C   0  0  0  0  0  2  0  0  0  0  0  0
  192.5060  170.9700  144.2120 C   0  0  2  0  0  3  0  0  0  0  0  0
  194.0610  174.3160  145.0210 C   0  0  1  0  0  3  0  0  0  0  0  0
  192.8400  172.4290  144.4140 C   0  0  0  0  0  0  0  0  0  0  0  0
  194.8560  175.1370  144.0180 C   0  0  0  0  0  0  0  0  0  0  0  0
  193.5570  170.0490  144.8510 C   0  0  0  0  0  2  0  0  0  0  0  0
  191.9040  173.5540  144.4870 C   0  0  2  0  0  3  0  0  0  0  0  0
  189.7160  172.4220  143.8290 C   0  0  0  0  0  3  0  0  0  0  0  0
  196.3130  172.3180  145.2520 O   0  0  0  0  0  0  0  0  0  0  0  0
  194.9870  170.4770  144.5000 C   0  0  0  0  0  2  0  0  0  0  0  0
  190.5620  173.6620  143.8060 C   0  0  0  0  0  2  0  0  0  0  0  0
  194.1370  176.0540  143.0450 C   0  0  0  0  0  2  0  0  0  0  0  0
  195.1900  171.9190  144.8500 C   0  0  0  0  0  0  0  0  0  0  0  0
  192.5970  174.6280  144.8780 C   0  0  2  0  0  3  0  0  0  0  0  0
  192.2990  170.6080  142.7400 C   0  0  0  0  0  2  0  0  0  0  0  0
  189.9360  171.3730  143.0260 C   0  0  0  0  0  3  0  0  0  0  0  0
  190.7780  176.4980  145.0930 C   0  0  2  0  0  0  0  0  0  0  0  0
  192.1770  176.0560  144.6750 C   0  0  1  0  0  0  0  0  0  0  0  0
  196.1900  175.0280  143.9980 C   0  0  0  0  0  3  0  0  0  0  0  0
  189.0270  174.7990  147.2630 C   0  0  0  0  0  1  0  0  0  0  0  0
  190.4850  175.2040  147.2030 C   0  0  0  0  0  2  0  0  0  0  0  0
  190.2360  177.7510  144.3650 C   0  0  0  0  0  2  0  0  0  0  0  0
  188.9940  177.5890  143.4730 C   0  0  0  0  0  2  0  0  0  0  0  0
  187.1590  177.3270  144.6870 C   0  0  0  0  0  1  0  0  0  0  0  0
  188.1320  176.6130  143.9860 O   0  0  0  0  0  0  0  0  0  0  0  0
  197.0580  175.8120  143.0650 C   0  0  0  0  0  2  0  0  0  0  0  0
  197.5290  175.6440  140.6270 C   0  0  0  0  0  3  0  0  0  0  0  0
  197.3920  175.0020  141.8620 C   0  0  0  0  0  0  0  0  0  0  0  0
  197.5320  173.6100  141.9430 C   0  0  0  0  0  3  0  0  0  0  0  0
  197.9410  171.5250  140.8650 F   0  0  0  0  0  0  0  0  0  0  0  0
  197.9410  173.5140  139.5560 C   0  0  0  0  0  3  0  0  0  0  0  0
  197.8030  172.8690  140.7890 C   0  0  0  0  0  0  0  0  0  0  0  0
  197.8070  174.9020  139.4750 C   0  0  0  0  0  3  0  0  0  0  0  0
  1  4  1  0  0  0  0
  2 19  1  0  0  0  0
  2 20  1  0  0  0  0
  3 17  1  0  0  0  0
  3  7  1  0  0  0  0
  4 25  1  0  0  0  0
  5 22  1  0  0  0  0
  6  8  1  0  0  0  0
  6 10  1  0  0  0  0
  8 11  1  0  0  0  0
  8  3  2  0  0  0  0
  9  7  1  0  0  0  0
 11 18  1  0  0  0  0
 14 17  1  0  0  0  0
 14 10  1  0  0  0  0
 15 12  1  0  0  0  0
 15 11  1  0  0  0  0
 16  5  1  0  0  0  0
 16  9  1  0  0  0  0
 17 13  2  0  0  0  0
 18  7  1  0  0  0  0
 19  6  1  0  0  0  0
 20 12  2  0  0  0  0
 21  1  1  0  0  0  0
 21  4  1  0  0  0  0
 22 18  1  0  0  0  0
 22 21  1  0  0  0  0
 22  1  1  0  0  0  0
 23  9  2  0  0  0  0
 25 24  1  0  0  0  0
 26 21  1  0  0  0  0
 27 29  1  0  0  0  0
 27 26  1  0  0  0  0
 29 28  1  0  0  0  0
 30 23  1  0  0  0  0
 31 32  1  0  0  0  0
 32 33  2  0  0  0  0
 32 30  1  0  0  0  0
 35 36  2  0  0  0  0
 36 34  1  0  0  0  0
 36 33  1  0  0  0  0
 37 35  1  0  0  0  0
 37 31  2  0  0  0  0
M  END
>  <MODEL>
9

>  <REMARK>
 VINA RESULT:      -6.9      3.160      8.211
  Name = 
  6 active torsions:
  status: ('A' for Active; 'I' for Inactive)
    1  A    between atoms: C_5  and  C_23
    2  A    between atoms: C_6  and  C_31
    3  A    between atoms: C_17  and  C_26
    4  A    between atoms: C_17  and  C_33
    5  A    between atoms: C_26  and  O_34
    6  A    between atoms: C_31  and  C_37
                            x       y       z     vdW  Elec       q    Type
                         _______ _______ _______ _____ _____    ______ ____

>  <TORSDO>
F 6

$$$$
