=
 OpenBabel11052420203D

 34 38  0  0  1  0  0  0  0  0999 V2000
  190.0360  176.7250  144.0870 C   0  0  1  0  0  0  0  0  0  0  0  0
  187.0070  176.4980  146.5750 C   0  0  0  0  0  2  0  0  0  0  0  0
  189.3600  176.9030  146.9240 O   0  0  0  0  0  0  0  0  0  0  0  0
  190.3480  177.5360  142.9910 O   0  0  0  0  0  1  0  0  0  0  0  0
  192.4730  176.4670  144.8060 C   0  0  0  0  0  2  0  0  0  0  0  0
  193.0470  176.4850  147.2410 C   0  0  0  0  0  3  0  0  0  0  0  0
  193.4350  176.3980  145.9620 C   0  0  0  0  0  3  0  0  0  0  0  0
  190.6210  176.3900  146.5540 C   0  0  1  0  0  3  0  0  0  0  0  0
  191.0790  176.9840  145.1990 C   0  0  2  0  0  3  0  0  0  0  0  0
  191.6250  176.7690  147.6390 C   0  0  0  0  0  2  0  0  0  0  0  0
  186.2320  177.7600  146.2120 C   0  0  0  0  0  2  0  0  0  0  0  0
  185.6690  177.6220  144.7990 C   0  0  2  0  0  3  0  0  0  0  0  0
  186.6090  178.0450  143.8480 O   0  0  0  0  0  0  0  0  0  0  0  0
  188.4260  176.4230  145.9930 C   0  0  2  0  0  3  0  0  0  0  0  0
  187.4970  176.9780  143.6610 C   0  0  0  0  0  2  0  0  0  0  0  0
  188.6580  177.1260  144.6420 C   0  0  2  0  0  3  0  0  0  0  0  0
  184.4280  178.4380  144.6700 C   0  0  0  0  0  0  0  0  0  0  0  0
  183.8140  178.9660  145.7990 O   0  0  0  0  0  1  0  0  0  0  0  0
  183.9270  178.6380  143.5340 O   0  0  0  0  0  0  0  0  0  0  0  0
  190.0670  175.2390  143.6720 C   0  0  0  0  0  2  0  0  0  0  0  0
  190.3830  175.0270  142.1960 C   0  0  0  0  0  2  0  0  0  0  0  0
  194.0620  174.1850  141.5750 C   0  0  0  0  0  2  0  0  0  0  0  0
  191.9210  173.4280  143.3170 C   0  0  0  0  0  3  0  0  0  0  0  0
  195.8810  172.6960  144.5840 C   0  0  1  0  0  3  0  0  0  0  0  0
  195.6280  173.7030  143.4610 C   0  0  0  0  0  2  0  0  0  0  0  0
  194.2920  173.5690  142.8810 N   0  0  0  0  0  0  0  0  0  0  0  0
  193.3890  172.3170  144.9160 C   0  0  0  0  0  2  0  0  0  0  0  0
  193.1720  173.1380  143.6850 C   0  0  0  0  0  0  0  0  0  0  0  0
  194.7180  172.6560  145.5850 C   0  0  0  0  0  2  0  0  0  0  0  0
  191.6260  174.1710  142.0400 C   0  0  2  0  0  3  0  0  0  0  0  0
  192.8050  175.0460  141.6230 C   0  0  0  0  0  2  0  0  0  0  0  0
  196.3750  171.3320  144.0790 C   0  0  0  0  0  3  0  0  0  0  0  0
  197.2680  171.4920  142.8620 C   0  0  0  0  0  1  0  0  0  0  0  0
  197.0800  170.5010  145.1380 C   0  0  0  0  0  1  0  0  0  0  0  0
  1  4  1  6  0  0  0
  1 16  1  0  0  0  0
  1  9  1  0  0  0  0
  5  7  1  0  0  0  0
  6 10  1  0  0  0  0
  7  6  2  0  0  0  0
  8  3  1  0  0  0  0
  8 10  1  1  0  0  0
  9  5  1  6  0  0  0
  9  8  1  0  0  0  0
 11  2  1  0  0  0  0
 12 17  1  1  0  0  0
 12 11  1  0  0  0  0
 13 12  1  0  0  0  0
 14  2  1  1  0  0  0
 14  3  1  0  0  0  0
 15 13  1  0  0  0  0
 16 15  1  6  0  0  0
 16 14  1  0  0  0  0
 17 18  1  0  0  0  0
 19 17  2  0  0  0  0
 20  1  1  0  0  0  0
 21 20  1  0  0  0  0
 22 31  1  0  0  0  0
 22 26  1  0  0  0  0
 23 28  2  0  0  0  0
 24 32  1  6  0  0  0
 24 29  1  0  0  0  0
 25 24  1  0  0  0  0
 26 25  1  0  0  0  0
 26 28  1  0  0  0  0
 27 29  1  0  0  0  0
 28 27  1  0  0  0  0
 30 21  1  1  0  0  0
 30 23  1  0  0  0  0
 31 30  1  0  0  0  0
 32 34  1  0  0  0  0
 33 32  1  0  0  0  0
M  END
>  <MODEL>
1

>  <REMARK>
 VINA RESULT:      -7.5      0.000      0.000
  Name = 
  5 active torsions:
  status: ('A' for Active; 'I' for Inactive)
    1  A    between atoms: C_1  and  C_8
    2  A    between atoms: C_3  and  C_25
    3  A    between atoms: C_7  and  C_11
    4  A    between atoms: C_8  and  C_18
    5  A    between atoms: C_18  and  C_30
                            x       y       z     vdW  Elec       q    Type
                         _______ _______ _______ _____ _____    ______ ____

>  <TORSDO>
F 5

$$$$
=
 OpenBabel11052420203D

 34 38  0  0  1  0  0  0  0  0999 V2000
  193.0350  174.7590  142.8040 C   0  0  1  0  0  0  0  0  0  0  0  0
  196.0490  176.7800  141.3020 C   0  0  0  0  0  2  0  0  0  0  0  0
  195.4530  176.2090  143.5710 O   0  0  0  0  0  0  0  0  0  0  0  0
  192.5530  173.4560  142.6490 O   0  0  0  0  0  1  0  0  0  0  0  0
  192.3080  174.9210  145.2470 C   0  0  0  0  0  2  0  0  0  0  0  0
  193.7910  176.0740  146.8990 C   0  0  0  0  0  3  0  0  0  0  0  0
  192.6590  175.4110  146.6270 C   0  0  0  0  0  3  0  0  0  0  0  0
  194.3450  176.2230  144.4430 C   0  0  1  0  0  3  0  0  0  0  0  0
  193.4950  174.9400  144.2700 C   0  0  2  0  0  3  0  0  0  0  0  0
  194.8690  176.2950  145.8740 C   0  0  0  0  0  2  0  0  0  0  0  0
  196.8210  175.6740  140.5930 C   0  0  0  0  0  2  0  0  0  0  0  0
  195.9950  175.1510  139.4180 C   0  0  2  0  0  3  0  0  0  0  0  0
  195.1230  174.1360  139.8380 O   0  0  0  0  0  0  0  0  0  0  0  0
  194.9540  176.2890  142.2610 C   0  0  2  0  0  3  0  0  0  0  0  0
  194.0140  174.7740  140.4090 C   0  0  0  0  0  2  0  0  0  0  0  0
  194.2690  174.9570  141.9050 C   0  0  2  0  0  3  0  0  0  0  0  0
  196.9040  174.6210  138.3610 C   0  0  0  0  0  0  0  0  0  0  0  0
  197.8210  175.4590  137.7380 O   0  0  0  0  0  0  0  0  0  0  0  0
  196.8300  173.4120  138.0230 O   0  0  0  0  0  1  0  0  0  0  0  0
  191.9250  175.7790  142.4720 C   0  0  0  0  0  2  0  0  0  0  0  0
  190.5680  175.1350  142.2150 C   0  0  0  0  0  2  0  0  0  0  0  0
  186.9960  176.4590  142.5700 C   0  0  0  0  0  2  0  0  0  0  0  0
  189.4610  176.4320  144.0240 C   0  0  0  0  0  3  0  0  0  0  0  0
  185.8830  177.0820  146.1680 C   0  0  1  0  0  3  0  0  0  0  0  0
  185.8170  176.4620  144.7710 C   0  0  0  0  0  2  0  0  0  0  0  0
  187.0560  176.6500  144.0180 N   0  0  0  0  0  0  0  0  0  0  0  0
  188.4240  177.1110  146.1250 C   0  0  0  0  0  2  0  0  0  0  0  0
  188.3340  176.7030  144.6890 C   0  0  0  0  0  0  0  0  0  0  0  0
  187.1770  176.7000  146.9000 C   0  0  0  0  0  2  0  0  0  0  0  0
  189.4510  176.1050  142.5530 C   0  0  2  0  0  3  0  0  0  0  0  0
  188.1090  175.5170  142.1260 C   0  0  0  0  0  2  0  0  0  0  0  0
  185.5200  178.5740  146.1880 C   0  0  0  0  0  3  0  0  0  0  0  0
  184.0770  178.7900  145.7700 C   0  0  0  0  0  1  0  0  0  0  0  0
  185.7830  179.2550  147.5220 C   0  0  0  0  0  1  0  0  0  0  0  0
  1  4  1  6  0  0  0
  1  9  1  0  0  0  0
  3  8  1  0  0  0  0
  5  7  1  0  0  0  0
  7  6  2  0  0  0  0
  8 10  1  1  0  0  0
  9  8  1  0  0  0  0
  9  5  1  1  0  0  0
 10  6  1  0  0  0  0
 11  2  1  0  0  0  0
 12 17  1  6  0  0  0
 12 13  1  0  0  0  0
 12 11  1  0  0  0  0
 13 15  1  0  0  0  0
 14  2  1  6  0  0  0
 14  3  1  0  0  0  0
 16 15  1  6  0  0  0
 16 14  1  0  0  0  0
 16  1  1  0  0  0  0
 18 17  2  0  0  0  0
 19 17  1  0  0  0  0
 20  1  1  0  0  0  0
 21 20  1  0  0  0  0
 22 26  1  0  0  0  0
 23 28  2  0  0  0  0
 24 32  1  6  0  0  0
 24 29  1  0  0  0  0
 25 24  1  0  0  0  0
 26 28  1  0  0  0  0
 26 25  1  0  0  0  0
 27 29  1  0  0  0  0
 28 27  1  0  0  0  0
 30 21  1  1  0  0  0
 30 23  1  0  0  0  0
 31 30  1  0  0  0  0
 31 22  1  0  0  0  0
 32 34  1  0  0  0  0
 33 32  1  0  0  0  0
M  END
>  <MODEL>
2

>  <REMARK>
 VINA RESULT:      -7.4      4.015      8.883
  Name = 
  5 active torsions:
  status: ('A' for Active; 'I' for Inactive)
    1  A    between atoms: C_1  and  C_8
    2  A    between atoms: C_3  and  C_25
    3  A    between atoms: C_7  and  C_11
    4  A    between atoms: C_8  and  C_18
    5  A    between atoms: C_18  and  C_30
                            x       y       z     vdW  Elec       q    Type
                         _______ _______ _______ _____ _____    ______ ____

>  <TORSDO>
F 5

$$$$
=
 OpenBabel11052420203D

 34 38  0  0  1  0  0  0  0  0999 V2000
  189.6430  175.5530  145.0360 C   0  0  1  0  0  0  0  0  0  0  0  0
  186.9600  177.9070  143.3990 C   0  0  0  0  0  2  0  0  0  0  0  0
  187.9790  175.8500  142.6530 O   0  0  0  0  0  0  0  0  0  0  0  0
  189.7150  174.8250  146.2280 O   0  0  0  0  0  1  0  0  0  0  0  0
  191.0200  173.8530  143.7160 C   0  0  0  0  0  2  0  0  0  0  0  0
  190.3860  173.3240  141.3540 C   0  0  0  0  0  3  0  0  0  0  0  0
  191.1930  173.1300  142.4060 C   0  0  0  0  0  3  0  0  0  0  0  0
  189.2460  175.2440  142.5280 C   0  0  1  0  0  3  0  0  0  0  0  0
  189.6590  174.5560  143.8520 C   0  0  2  0  0  3  0  0  0  0  0  0
  189.1660  174.2000  141.4170 C   0  0  0  0  0  2  0  0  0  0  0  0
  185.7680  177.6810  144.3220 C   0  0  0  0  0  2  0  0  0  0  0  0
  186.0830  178.2450  145.7070 C   0  0  2  0  0  3  0  0  0  0  0  0
  186.7450  177.2910  146.4920 O   0  0  0  0  0  0  0  0  0  0  0  0
  188.1090  176.9020  143.5720 C   0  0  2  0  0  3  0  0  0  0  0  0
  188.0920  177.3230  146.1080 C   0  0  0  0  0  2  0  0  0  0  0  0
  188.3070  176.3140  144.9820 C   0  0  2  0  0  3  0  0  0  0  0  0
  184.8180  178.6550  146.3820 C   0  0  0  0  0  0  0  0  0  0  0  0
  183.7140  179.0400  145.6310 O   0  0  0  0  0  0  0  0  0  0  0  0
  184.7560  178.6650  147.6370 O   0  0  0  0  0  1  0  0  0  0  0  0
  190.8460  176.5150  144.9290 C   0  0  0  0  0  2  0  0  0  0  0  0
  191.7940  176.4350  146.1190 C   0  0  0  0  0  2  0  0  0  0  0  0
  195.2560  174.8990  145.5800 C   0  0  0  0  0  2  0  0  0  0  0  0
  193.2980  176.4090  144.1400 C   0  0  0  0  0  3  0  0  0  0  0  0
  196.1280  174.1870  141.9310 C   0  0  1  0  0  3  0  0  0  0  0  0
  195.8960  173.8490  143.4050 C   0  0  0  0  0  2  0  0  0  0  0  0
  195.1970  174.9170  144.1190 N   0  0  0  0  0  0  0  0  0  0  0  0
  194.3020  175.9550  141.9630 C   0  0  0  0  0  2  0  0  0  0  0  0
  194.2350  175.7580  143.4450 C   0  0  0  0  0  0  0  0  0  0  0  0
  194.8530  174.7180  141.2610 C   0  0  0  0  0  2  0  0  0  0  0  0
  193.2310  176.3290  145.6430 C   0  0  2  0  0  3  0  0  0  0  0  0
  193.8520  175.0330  146.1570 C   0  0  0  0  0  2  0  0  0  0  0  0
  197.4020  175.0090  141.6890 C   0  0  0  0  0  3  0  0  0  0  0  0
  197.3760  175.6660  140.3220 C   0  0  0  0  0  1  0  0  0  0  0  0
  197.6770  176.0500  142.7630 C   0  0  0  0  0  1  0  0  0  0  0  0
  1  4  1  1  0  0  0
  2 11  1  0  0  0  0
  3 14  1  0  0  0  0
  6 10  1  0  0  0  0
  6  7  2  0  0  0  0
  7  5  1  0  0  0  0
  8 10  1  6  0  0  0
  8  3  1  0  0  0  0
  8  9  1  0  0  0  0
  9  5  1  6  0  0  0
  9  1  1  0  0  0  0
 11 12  1  0  0  0  0
 12 17  1  1  0  0  0
 12 13  1  0  0  0  0
 14  2  1  1  0  0  0
 14 16  1  0  0  0  0
 15 13  1  0  0  0  0
 16  1  1  0  0  0  0
 16 15  1  1  0  0  0
 17 19  1  0  0  0  0
 18 17  2  0  0  0  0
 20  1  1  0  0  0  0
 20 21  1  0  0  0  0
 22 31  1  0  0  0  0
 23 30  1  0  0  0  0
 24 32  1  1  0  0  0
 24 25  1  0  0  0  0
 25 26  1  0  0  0  0
 26 22  1  0  0  0  0
 27 28  1  0  0  0  0
 28 26  1  0  0  0  0
 28 23  2  0  0  0  0
 29 24  1  0  0  0  0
 29 27  1  0  0  0  0
 30 21  1  6  0  0  0
 30 31  1  0  0  0  0
 32 34  1  0  0  0  0
 33 32  1  0  0  0  0
M  END
>  <MODEL>
3

>  <REMARK>
 VINA RESULT:      -7.2      1.788      3.890
  Name = 
  5 active torsions:
  status: ('A' for Active; 'I' for Inactive)
    1  A    between atoms: C_1  and  C_8
    2  A    between atoms: C_3  and  C_25
    3  A    between atoms: C_7  and  C_11
    4  A    between atoms: C_8  and  C_18
    5  A    between atoms: C_18  and  C_30
                            x       y       z     vdW  Elec       q    Type
                         _______ _______ _______ _____ _____    ______ ____

>  <TORSDO>
F 5

$$$$
=
 OpenBabel11052420203D

 34 38  0  0  1  0  0  0  0  0999 V2000
  193.4350  173.9790  144.4790 C   0  0  1  0  0  0  0  0  0  0  0  0
  193.0100  174.4840  140.6080 C   0  0  0  0  0  2  0  0  0  0  0  0
  194.9300  173.9470  141.9690 O   0  0  0  0  0  0  0  0  0  0  0  0
  192.8780  173.1110  145.4230 O   0  0  0  0  0  1  0  0  0  0  0  0
  195.6860  174.1130  145.6800 C   0  0  0  0  0  2  0  0  0  0  0  0
  197.7960  174.1490  144.3370 C   0  0  0  0  0  3  0  0  0  0  0  0
  197.1830  174.1640  145.5280 C   0  0  0  0  0  3  0  0  0  0  0  0
  195.5830  174.3680  143.1470 C   0  0  1  0  0  3  0  0  0  0  0  0
  194.9540  173.6970  144.3920 C   0  0  2  0  0  3  0  0  0  0  0  0
  197.0520  173.9680  143.0430 C   0  0  0  0  0  2  0  0  0  0  0  0
  192.1800  173.2600  140.2410 C   0  0  0  0  0  2  0  0  0  0  0  0
  190.7920  173.3800  140.8690 C   0  0  2  0  0  3  0  0  0  0  0  0
  190.7920  172.8650  142.1730 O   0  0  0  0  0  0  0  0  0  0  0  0
  193.6210  174.4500  142.0170 C   0  0  2  0  0  3  0  0  0  0  0  0
  191.3160  173.8680  142.9980 C   0  0  0  0  0  2  0  0  0  0  0  0
  192.8300  173.6840  143.0950 C   0  0  2  0  0  3  0  0  0  0  0  0
  189.7990  172.6380  140.0400 C   0  0  0  0  0  0  0  0  0  0  0  0
  188.4450  172.6970  140.3460 O   0  0  0  0  0  1  0  0  0  0  0  0
  190.1920  171.9440  139.0680 O   0  0  0  0  0  0  0  0  0  0  0  0
  193.1950  175.4450  144.9000 C   0  0  0  0  0  2  0  0  0  0  0  0
  192.2980  175.5850  146.1240 C   0  0  0  0  0  2  0  0  0  0  0  0
  190.1040  178.0990  144.2530 C   0  0  0  0  0  2  0  0  0  0  0  0
  189.9690  176.3580  146.5200 C   0  0  0  0  0  3  0  0  0  0  0  0
  186.3490  177.6010  144.7370 C   0  0  1  0  0  3  0  0  0  0  0  0
  187.6540  177.7220  143.9470 C   0  0  0  0  0  2  0  0  0  0  0  0
  188.8350  177.6220  144.8020 N   0  0  0  0  0  0  0  0  0  0  0  0
  187.5390  176.4900  146.6900 C   0  0  0  0  0  2  0  0  0  0  0  0
  188.8250  176.8060  145.9940 C   0  0  0  0  0  0  0  0  0  0  0  0
  186.3780  176.4090  145.7040 C   0  0  0  0  0  2  0  0  0  0  0  0
  191.3050  176.7160  145.9240 C   0  0  2  0  0  3  0  0  0  0  0  0
  191.1810  177.0370  144.4370 C   0  0  0  0  0  2  0  0  0  0  0  0
  185.8740  178.9340  145.3340 C   0  0  0  0  0  3  0  0  0  0  0  0
  185.5580  179.9380  144.2410 C   0  0  0  0  0  1  0  0  0  0  0  0
  184.6900  178.8000  146.2770 C   0  0  0  0  0  1  0  0  0  0  0  0
  1 20  1  0  0  0  0
  1  4  1  1  0  0  0
  3 14  1  0  0  0  0
  3  8  1  0  0  0  0
  6  7  2  0  0  0  0
  7  5  1  0  0  0  0
  8 10  1  6  0  0  0
  8  9  1  0  0  0  0
  9  1  1  0  0  0  0
  9  5  1  1  0  0  0
 10  6  1  0  0  0  0
 11  2  1  0  0  0  0
 11 12  1  0  0  0  0
 12 17  1  6  0  0  0
 12 13  1  0  0  0  0
 13 15  1  0  0  0  0
 14  2  1  6  0  0  0
 14 16  1  0  0  0  0
 16 15  1  1  0  0  0
 16  1  1  0  0  0  0
 17 18  1  0  0  0  0
 19 17  2  0  0  0  0
 20 21  1  0  0  0  0
 22 31  1  0  0  0  0
 22 26  1  0  0  0  0
 24 32  1  1  0  0  0
 24 29  1  0  0  0  0
 25 24  1  0  0  0  0
 25 26  1  0  0  0  0
 26 28  1  0  0  0  0
 28 23  2  0  0  0  0
 28 27  1  0  0  0  0
 29 27  1  0  0  0  0
 30 21  1  6  0  0  0
 30 23  1  0  0  0  0
 31 30  1  0  0  0  0
 32 34  1  0  0  0  0
 33 32  1  0  0  0  0
M  END
>  <MODEL>
4

>  <REMARK>
 VINA RESULT:      -7.2      3.293      7.897
  Name = 
  5 active torsions:
  status: ('A' for Active; 'I' for Inactive)
    1  A    between atoms: C_1  and  C_8
    2  A    between atoms: C_3  and  C_25
    3  A    between atoms: C_7  and  C_11
    4  A    between atoms: C_8  and  C_18
    5  A    between atoms: C_18  and  C_30
                            x       y       z     vdW  Elec       q    Type
                         _______ _______ _______ _____ _____    ______ ____

>  <TORSDO>
F 5

$$$$
=
 OpenBabel11052420203D

 34 38  0  0  1  0  0  0  0  0999 V2000
  191.8970  174.8610  143.0310 C   0  0  1  0  0  0  0  0  0  0  0  0
  193.4700  172.0920  145.3280 C   0  0  0  0  0  2  0  0  0  0  0  0
  191.5530  172.0810  143.8620 O   0  0  0  0  0  0  0  0  0  0  0  0
  192.3610  175.6240  141.9550 O   0  0  0  0  0  1  0  0  0  0  0  0
  189.4990  174.7700  142.1540 C   0  0  0  0  0  2  0  0  0  0  0  0
  188.1830  172.6560  142.3860 C   0  0  0  0  0  3  0  0  0  0  0  0
  188.2650  173.9270  141.9740 C   0  0  0  0  0  3  0  0  0  0  0  0
  190.4090  172.8480  143.5570 C   0  0  1  0  0  3  0  0  0  0  0  0
  190.7480  173.9540  142.5280 C   0  0  2  0  0  3  0  0  0  0  0  0
  189.3540  171.9150  142.9700 C   0  0  0  0  0  2  0  0  0  0  0  0
  194.7790  171.8130  144.5990 C   0  0  0  0  0  2  0  0  0  0  0  0
  195.6820  173.0430  144.6880 C   0  0  2  0  0  3  0  0  0  0  0  0
  195.4060  173.9360  143.6430 O   0  0  0  0  0  0  0  0  0  0  0  0
  192.4530  172.9230  144.5320 C   0  0  2  0  0  3  0  0  0  0  0  0
  194.2750  174.6670  144.0310 C   0  0  0  0  0  2  0  0  0  0  0  0
  193.0270  173.9420  143.5300 C   0  0  2  0  0  3  0  0  0  0  0  0
  197.1110  172.6230  144.6200 C   0  0  0  0  0  0  0  0  0  0  0  0
  197.5690  171.5630  145.3930 O   0  0  0  0  0  1  0  0  0  0  0  0
  197.9080  173.2410  143.8700 O   0  0  0  0  0  0  0  0  0  0  0  0
  191.3830  175.7860  144.1550 C   0  0  0  0  0  2  0  0  0  0  0  0
  191.6280  177.2650  143.8820 C   0  0  0  0  0  2  0  0  0  0  0  0
  188.3170  178.4140  142.3490 C   0  0  0  0  0  2  0  0  0  0  0  0
  189.3760  177.6000  144.8790 C   0  0  0  0  0  3  0  0  0  0  0  0
  185.2090  177.3110  144.2710 C   0  0  1  0  0  3  0  0  0  0  0  0
  186.1360  177.4270  143.0600 C   0  0  0  0  0  2  0  0  0  0  0  0
  187.4720  177.8960  143.4230 N   0  0  0  0  0  0  0  0  0  0  0  0
  187.1780  177.2490  145.8770 C   0  0  0  0  0  2  0  0  0  0  0  0
  188.0520  177.5720  144.7070 C   0  0  0  0  0  0  0  0  0  0  0  0
  185.8830  176.5740  145.4360 C   0  0  0  0  0  2  0  0  0  0  0  0
  190.3090  178.0070  143.7690 C   0  0  2  0  0  3  0  0  0  0  0  0
  189.6870  177.7470  142.3990 C   0  0  0  0  0  2  0  0  0  0  0  0
  184.5100  178.6310  144.6300 C   0  0  0  0  0  3  0  0  0  0  0  0
  184.1340  178.6660  146.1000 C   0  0  0  0  0  1  0  0  0  0  0  0
  185.3090  179.8710  144.2660 C   0  0  0  0  0  1  0  0  0  0  0  0
  1  4  1  6  0  0  0
  1 16  1  0  0  0  0
  1 20  1  0  0  0  0
  3 14  1  0  0  0  0
  6 10  1  0  0  0  0
  7  5  1  0  0  0  0
  7  6  2  0  0  0  0
  8 10  1  6  0  0  0
  8  3  1  0  0  0  0
  9  5  1  1  0  0  0
  9  1  1  0  0  0  0
  9  8  1  0  0  0  0
 11 12  1  0  0  0  0
 11  2  1  0  0  0  0
 12 17  1  6  0  0  0
 13 15  1  0  0  0  0
 13 12  1  0  0  0  0
 14  2  1  6  0  0  0
 16 15  1  1  0  0  0
 16 14  1  0  0  0  0
 17 18  1  0  0  0  0
 19 17  2  0  0  0  0
 21 20  1  0  0  0  0
 22 31  1  0  0  0  0
 22 26  1  0  0  0  0
 24 32  1  1  0  0  0
 24 29  1  0  0  0  0
 25 26  1  0  0  0  0
 25 24  1  0  0  0  0
 26 28  1  0  0  0  0
 28 23  2  0  0  0  0
 28 27  1  0  0  0  0
 29 27  1  0  0  0  0
 30 21  1  6  0  0  0
 30 23  1  0  0  0  0
 31 30  1  0  0  0  0
 32 33  1  0  0  0  0
 34 32  1  0  0  0  0
M  END
>  <MODEL>
5

>  <REMARK>
 VINA RESULT:      -7.1      3.500      8.959
  Name = 
  5 active torsions:
  status: ('A' for Active; 'I' for Inactive)
    1  A    between atoms: C_1  and  C_8
    2  A    between atoms: C_3  and  C_25
    3  A    between atoms: C_7  and  C_11
    4  A    between atoms: C_8  and  C_18
    5  A    between atoms: C_18  and  C_30
                            x       y       z     vdW  Elec       q    Type
                         _______ _______ _______ _____ _____    ______ ____

>  <TORSDO>
F 5

$$$$
=
 OpenBabel11052420203D

 34 38  0  0  1  0  0  0  0  0999 V2000
  190.5610  177.1940  143.9290 C   0  0  1  0  0  0  0  0  0  0  0  0
  187.0040  175.5810  143.5270 C   0  0  0  0  0  2  0  0  0  0  0  0
  188.4950  175.7600  145.4160 O   0  0  0  0  0  0  0  0  0  0  0  0
  191.0810  178.4810  143.7570 O   0  0  0  0  0  1  0  0  0  0  0  0
  192.1640  176.6160  145.8320 C   0  0  0  0  0  2  0  0  0  0  0  0
  191.3310  175.2910  147.7830 C   0  0  0  0  0  3  0  0  0  0  0  0
  192.3290  175.9330  147.1640 C   0  0  0  0  0  3  0  0  0  0  0  0
  189.8480  175.5560  145.7600 C   0  0  1  0  0  3  0  0  0  0  0  0
  190.6940  176.8080  145.4210 C   0  0  2  0  0  3  0  0  0  0  0  0
  189.9210  175.2850  147.2600 C   0  0  0  0  0  2  0  0  0  0  0  0
  186.1380  176.8210  143.3320 C   0  0  0  0  0  2  0  0  0  0  0  0
  186.4900  177.4810  141.9990 C   0  0  2  0  0  3  0  0  0  0  0  0
  187.5600  178.3740  142.1560 O   0  0  0  0  0  0  0  0  0  0  0  0
  188.4310  175.8620  144.0180 C   0  0  2  0  0  3  0  0  0  0  0  0
  188.7290  177.6020  142.1490 C   0  0  0  0  0  2  0  0  0  0  0  0
  189.0610  177.1990  143.5850 C   0  0  2  0  0  3  0  0  0  0  0  0
  185.3030  178.2130  141.4720 C   0  0  0  0  0  0  0  0  0  0  0  0
  185.1610  178.4310  140.1070 O   0  0  0  0  0  0  0  0  0  0  0  0
  184.4330  178.6480  142.2690 O   0  0  0  0  0  1  0  0  0  0  0  0
  191.3380  176.1870  143.0540 C   0  0  0  0  0  2  0  0  0  0  0  0
  192.6000  176.7710  142.4320 C   0  0  0  0  0  2  0  0  0  0  0  0
  195.9730  175.3730  143.5710 C   0  0  0  0  0  2  0  0  0  0  0  0
  193.2810  174.4950  143.1600 C   0  0  0  0  0  3  0  0  0  0  0  0
  195.7420  172.2460  145.7500 C   0  0  1  0  0  3  0  0  0  0  0  0
  196.1350  173.6830  145.4040 C   0  0  0  0  0  2  0  0  0  0  0  0
  195.4240  174.1890  144.2300 N   0  0  0  0  0  0  0  0  0  0  0  0
  193.5830  172.4290  144.4210 C   0  0  0  0  0  2  0  0  0  0  0  0
  194.0820  173.7490  143.9270 C   0  0  0  0  0  0  0  0  0  0  0  0
  194.2190  172.0580  145.7570 C   0  0  0  0  0  2  0  0  0  0  0  0
  193.7510  175.7900  142.5520 C   0  0  2  0  0  3  0  0  0  0  0  0
  194.8760  176.4120  143.3750 C   0  0  0  0  0  2  0  0  0  0  0  0
  196.5420  171.1920  144.9680 C   0  0  0  0  0  3  0  0  0  0  0  0
  197.6610  171.8370  144.1730 C   0  0  0  0  0  1  0  0  0  0  0  0
  197.0960  170.0720  145.8340 C   0  0  0  0  0  1  0  0  0  0  0  0
  1  4  1  6  0  0  0
  1  9  1  0  0  0  0
  3  8  1  0  0  0  0
  5  7  1  0  0  0  0
  7  6  2  0  0  0  0
  8 10  1  1  0  0  0
  9  8  1  0  0  0  0
  9  5  1  6  0  0  0
 10  6  1  0  0  0  0
 11  2  1  0  0  0  0
 12 17  1  1  0  0  0
 12 13  1  0  0  0  0
 12 11  1  0  0  0  0
 14  2  1  1  0  0  0
 14  3  1  0  0  0  0
 15 13  1  0  0  0  0
 16 15  1  6  0  0  0
 16  1  1  0  0  0  0
 16 14  1  0  0  0  0
 17 19  1  0  0  0  0
 18 17  2  0  0  0  0
 20  1  1  0  0  0  0
 21 20  1  0  0  0  0
 22 26  1  0  0  0  0
 23 28  2  0  0  0  0
 24 32  1  6  0  0  0
 24 29  1  0  0  0  0
 25 24  1  0  0  0  0
 26 25  1  0  0  0  0
 27 29  1  0  0  0  0
 28 26  1  0  0  0  0
 28 27  1  0  0  0  0
 30 21  1  1  0  0  0
 30 23  1  0  0  0  0
 30 31  1  0  0  0  0
 31 22  1  0  0  0  0
 32 34  1  0  0  0  0
 33 32  1  0  0  0  0
M  END
>  <MODEL>
6

>  <REMARK>
 VINA RESULT:      -7.1      1.705      2.211
  Name = 
  5 active torsions:
  status: ('A' for Active; 'I' for Inactive)
    1  A    between atoms: C_1  and  C_8
    2  A    between atoms: C_3  and  C_25
    3  A    between atoms: C_7  and  C_11
    4  A    between atoms: C_8  and  C_18
    5  A    between atoms: C_18  and  C_30
                            x       y       z     vdW  Elec       q    Type
                         _______ _______ _______ _____ _____    ______ ____

>  <TORSDO>
F 5

$$$$
=
 OpenBabel11052420203D

 34 38  0  0  1  0  0  0  0  0999 V2000
  189.9420  176.9580  143.8890 C   0  0  1  0  0  0  0  0  0  0  0  0
  187.6170  176.2730  146.9790 C   0  0  0  0  0  2  0  0  0  0  0  0
  189.9950  176.6420  146.7930 O   0  0  0  0  0  0  0  0  0  0  0  0
  189.9980  177.9470  142.9030 O   0  0  0  0  0  1  0  0  0  0  0  0
  192.4730  176.6100  143.9250 C   0  0  0  0  0  2  0  0  0  0  0  0
  193.6310  176.2200  146.1080 C   0  0  0  0  0  3  0  0  0  0  0  0
  193.6880  176.3570  144.7770 C   0  0  0  0  0  3  0  0  0  0  0  0
  191.1090  176.2140  146.0410 C   0  0  1  0  0  3  0  0  0  0  0  0
  191.2360  177.0360  144.7340 C   0  0  2  0  0  3  0  0  0  0  0  0
  192.3610  176.4150  146.8900 C   0  0  0  0  0  2  0  0  0  0  0  0
  186.8160  177.5690  147.0380 C   0  0  0  0  0  2  0  0  0  0  0  0
  185.9170  177.6670  145.8060 C   0  0  2  0  0  3  0  0  0  0  0  0
  186.6050  178.2570  144.7360 O   0  0  0  0  0  0  0  0  0  0  0  0
  188.8450  176.3160  146.0580 C   0  0  2  0  0  3  0  0  0  0  0  0
  187.3860  177.2480  144.1580 C   0  0  0  0  0  2  0  0  0  0  0  0
  188.7580  177.2420  144.8300 C   0  0  2  0  0  3  0  0  0  0  0  0
  184.7090  178.4780  146.1300 C   0  0  0  0  0  0  0  0  0  0  0  0
  183.9400  179.0300  145.1120 O   0  0  0  0  0  0  0  0  0  0  0  0
  184.3920  178.6750  147.3300 O   0  0  0  0  0  1  0  0  0  0  0  0
  189.8230  175.5640  143.2360 C   0  0  0  0  0  2  0  0  0  0  0  0
  188.9710  175.5570  141.9730 C   0  0  0  0  0  2  0  0  0  0  0  0
  188.5430  172.7730  139.3840 C   0  0  0  0  0  2  0  0  0  0  0  0
  190.1020  173.3590  141.7110 C   0  0  0  0  0  3  0  0  0  0  0  0
  191.5800  170.4940  138.9850 C   0  0  1  0  0  3  0  0  0  0  0  0
  190.4970  171.4730  138.5280 C   0  0  0  0  0  2  0  0  0  0  0  0
  189.8270  172.1280  139.6520 N   0  0  0  0  0  0  0  0  0  0  0  0
  191.7320  171.5980  141.2690 C   0  0  0  0  0  2  0  0  0  0  0  0
  190.5340  172.4060  140.8800 C   0  0  0  0  0  0  0  0  0  0  0  0
  192.5010  171.1160  140.0430 C   0  0  0  0  0  2  0  0  0  0  0  0
  188.8500  174.1460  141.4260 C   0  0  2  0  0  3  0  0  0  0  0  0
  188.5550  174.1960  139.9300 C   0  0  0  0  0  2  0  0  0  0  0  0
  191.0360  169.0950  139.3120 C   0  0  0  0  0  3  0  0  0  0  0  0
  190.4650  168.4290  138.0730 C   0  0  0  0  0  1  0  0  0  0  0  0
  192.0520  168.1780  139.9740 C   0  0  0  0  0  1  0  0  0  0  0  0
  1  4  1  6  0  0  0
  1  9  1  0  0  0  0
  1 16  1  0  0  0  0
  2 11  1  0  0  0  0
  5  7  1  0  0  0  0
  6 10  1  0  0  0  0
  7  6  2  0  0  0  0
  8  3  1  0  0  0  0
  8 10  1  1  0  0  0
  9  5  1  6  0  0  0
  9  8  1  0  0  0  0
 12 17  1  1  0  0  0
 12 11  1  0  0  0  0
 13 12  1  0  0  0  0
 14  3  1  0  0  0  0
 14  2  1  1  0  0  0
 15 13  1  0  0  0  0
 16 15  1  6  0  0  0
 16 14  1  0  0  0  0
 17 19  1  0  0  0  0
 18 17  2  0  0  0  0
 20  1  1  0  0  0  0
 21 20  1  0  0  0  0
 22 26  1  0  0  0  0
 22 31  1  0  0  0  0
 24 32  1  1  0  0  0
 24 29  1  0  0  0  0
 25 24  1  0  0  0  0
 25 26  1  0  0  0  0
 26 28  1  0  0  0  0
 28 27  1  0  0  0  0
 28 23  2  0  0  0  0
 29 27  1  0  0  0  0
 30 23  1  0  0  0  0
 30 21  1  6  0  0  0
 31 30  1  0  0  0  0
 32 34  1  0  0  0  0
 33 32  1  0  0  0  0
M  END
>  <MODEL>
7

>  <REMARK>
 VINA RESULT:      -6.9      2.839      3.868
  Name = 
  5 active torsions:
  status: ('A' for Active; 'I' for Inactive)
    1  A    between atoms: C_1  and  C_8
    2  A    between atoms: C_3  and  C_25
    3  A    between atoms: C_7  and  C_11
    4  A    between atoms: C_8  and  C_18
    5  A    between atoms: C_18  and  C_30
                            x       y       z     vdW  Elec       q    Type
                         _______ _______ _______ _____ _____    ______ ____

>  <TORSDO>
F 5

$$$$
=
 OpenBabel11052420203D

 34 38  0  0  1  0  0  0  0  0999 V2000
  189.8810  176.2890  143.7900 C   0  0  1  0  0  0  0  0  0  0  0  0
  187.2250  176.5540  146.6710 C   0  0  0  0  0  2  0  0  0  0  0  0
  189.6380  176.5860  146.6870 O   0  0  0  0  0  0  0  0  0  0  0  0
  190.1610  177.0350  142.6410 O   0  0  0  0  0  1  0  0  0  0  0  0
  192.3250  175.6550  144.1800 C   0  0  0  0  0  2  0  0  0  0  0  0
  193.2240  175.5970  146.5140 C   0  0  0  0  0  3  0  0  0  0  0  0
  193.4150  175.4430  145.1970 C   0  0  0  0  0  3  0  0  0  0  0  0
  190.7420  175.8800  146.1640 C   0  0  1  0  0  3  0  0  0  0  0  0
  191.0950  176.3870  144.7450 C   0  0  2  0  0  3  0  0  0  0  0  0
  191.9310  176.1020  147.0930 C   0  0  0  0  0  2  0  0  0  0  0  0
  186.6130  177.9200  146.3820 C   0  0  0  0  0  2  0  0  0  0  0  0
  185.8460  177.8640  145.0620 C   0  0  2  0  0  3  0  0  0  0  0  0
  186.7000  178.1290  143.9820 O   0  0  0  0  0  0  0  0  0  0  0  0
  188.5220  176.2540  145.9050 C   0  0  2  0  0  3  0  0  0  0  0  0
  187.3770  176.9350  143.7050 C   0  0  0  0  0  2  0  0  0  0  0  0
  188.6710  176.9050  144.5160 C   0  0  2  0  0  3  0  0  0  0  0  0
  184.7400  178.8640  145.0800 C   0  0  0  0  0  0  0  0  0  0  0  0
  184.8180  180.0120  144.3010 O   0  0  0  0  0  0  0  0  0  0  0  0
  183.7390  178.6740  145.8160 O   0  0  0  0  0  1  0  0  0  0  0  0
  189.6240  174.8140  143.4150 C   0  0  0  0  0  2  0  0  0  0  0  0
  189.4340  174.5930  141.9200 C   0  0  0  0  0  2  0  0  0  0  0  0
  191.4430  171.3400  141.7810 C   0  0  0  0  0  2  0  0  0  0  0  0
  190.0620  173.1210  140.0180 C   0  0  0  0  0  3  0  0  0  0  0  0
  190.7130  169.1500  138.7400 C   0  0  1  0  0  3  0  0  0  0  0  0
  190.8210  169.4850  140.2290 C   0  0  0  0  0  2  0  0  0  0  0  0
  190.9510  170.9210  140.4700 N   0  0  0  0  0  0  0  0  0  0  0  0
  190.0160  171.5280  138.1710 C   0  0  0  0  0  2  0  0  0  0  0  0
  190.3280  171.8830  139.5900 C   0  0  0  0  0  0  0  0  0  0  0  0
  189.6900  170.0440  138.0280 C   0  0  0  0  0  2  0  0  0  0  0  0
  190.4340  173.5740  141.4050 C   0  0  2  0  0  3  0  0  0  0  0  0
  190.5140  172.3950  142.3710 C   0  0  0  0  0  2  0  0  0  0  0  0
  192.0780  169.0140  138.0480 C   0  0  0  0  0  3  0  0  0  0  0  0
  193.0820  168.3230  138.9530 C   0  0  0  0  0  1  0  0  0  0  0  0
  192.0190  168.3110  136.7020 C   0  0  0  0  0  1  0  0  0  0  0  0
  1  4  1  6  0  0  0
  1 16  1  0  0  0  0
  1  9  1  0  0  0  0
  5  7  1  0  0  0  0
  6 10  1  0  0  0  0
  7  6  2  0  0  0  0
  8  3  1  0  0  0  0
  8 10  1  1  0  0  0
  9  5  1  6  0  0  0
  9  8  1  0  0  0  0
 11  2  1  0  0  0  0
 12 17  1  1  0  0  0
 12 11  1  0  0  0  0
 13 12  1  0  0  0  0
 14  2  1  1  0  0  0
 14  3  1  0  0  0  0
 15 13  1  0  0  0  0
 16 15  1  6  0  0  0
 16 14  1  0  0  0  0
 17 19  1  0  0  0  0
 18 17  2  0  0  0  0
 20  1  1  0  0  0  0
 21 20  1  0  0  0  0
 22 31  1  0  0  0  0
 23 30  1  0  0  0  0
 24 32  1  6  0  0  0
 24 25  1  0  0  0  0
 25 26  1  0  0  0  0
 26 22  1  0  0  0  0
 27 28  1  0  0  0  0
 28 23  2  0  0  0  0
 28 26  1  0  0  0  0
 29 27  1  0  0  0  0
 29 24  1  0  0  0  0
 30 21  1  1  0  0  0
 30 31  1  0  0  0  0
 32 33  1  0  0  0  0
 34 32  1  0  0  0  0
M  END
>  <MODEL>
8

>  <REMARK>
 VINA RESULT:      -6.8      3.169      4.165
  Name = 
  5 active torsions:
  status: ('A' for Active; 'I' for Inactive)
    1  A    between atoms: C_1  and  C_8
    2  A    between atoms: C_3  and  C_25
    3  A    between atoms: C_7  and  C_11
    4  A    between atoms: C_8  and  C_18
    5  A    between atoms: C_18  and  C_30
                            x       y       z     vdW  Elec       q    Type
                         _______ _______ _______ _____ _____    ______ ____

>  <TORSDO>
F 5

$$$$
=
 OpenBabel11052420203D

 34 38  0  0  1  0  0  0  0  0999 V2000
  193.3500  171.7540  143.6400 C   0  0  1  0  0  0  0  0  0  0  0  0
  195.7350  174.2620  145.4950 C   0  0  0  0  0  2  0  0  0  0  0  0
  195.5740  171.8540  145.5320 O   0  0  0  0  0  0  0  0  0  0  0  0
  193.0770  171.4680  142.2980 O   0  0  0  0  0  1  0  0  0  0  0  0
  192.9610  169.3490  144.4080 C   0  0  0  0  0  2  0  0  0  0  0  0
  194.4480  168.3600  146.1600 C   0  0  0  0  0  3  0  0  0  0  0  0
  193.4180  168.2360  145.3140 C   0  0  0  0  0  3  0  0  0  0  0  0
  194.6140  170.8270  145.6610 C   0  0  1  0  0  3  0  0  0  0  0  0
  193.9770  170.4970  144.2900 C   0  0  2  0  0  3  0  0  0  0  0  0
  195.3170  169.5870  146.2060 C   0  0  0  0  0  2  0  0  0  0  0  0
  196.5740  174.7840  144.3340 C   0  0  0  0  0  2  0  0  0  0  0  0
  195.6890  175.6070  143.3980 C   0  0  2  0  0  3  0  0  0  0  0  0
  195.0690  174.7820  142.4490 O   0  0  0  0  0  0  0  0  0  0  0  0
  194.8870  173.0230  145.1710 C   0  0  2  0  0  3  0  0  0  0  0  0
  193.9610  174.2050  143.0840 C   0  0  0  0  0  2  0  0  0  0  0  0
  194.3920  172.8840  143.7190 C   0  0  2  0  0  3  0  0  0  0  0  0
  196.5140  176.6350  142.7020 C   0  0  0  0  0  0  0  0  0  0  0  0
  197.4690  177.3620  143.4020 O   0  0  0  0  0  1  0  0  0  0  0  0
  196.3330  176.8550  141.4770 O   0  0  0  0  0  0  0  0  0  0  0  0
  192.0480  172.1330  144.3770 C   0  0  0  0  0  2  0  0  0  0  0  0
  190.8710  172.3810  143.4410 C   0  0  0  0  0  2  0  0  0  0  0  0
  189.3430  174.8550  145.9270 C   0  0  0  0  0  2  0  0  0  0  0  0
  189.1070  174.1120  143.1740 C   0  0  0  0  0  3  0  0  0  0  0  0
  187.7710  177.9460  144.3290 C   0  0  1  0  0  3  0  0  0  0  0  0
  188.7250  177.1780  145.2460 C   0  0  0  0  0  2  0  0  0  0  0  0
  188.7910  175.7550  144.9150 N   0  0  0  0  0  0  0  0  0  0  0  0
  187.8680  176.1220  142.5620 C   0  0  0  0  0  2  0  0  0  0  0  0
  188.6250  175.2980  143.5550 C   0  0  0  0  0  0  0  0  0  0  0  0
  188.0110  177.6130  142.8510 C   0  0  0  0  0  2  0  0  0  0  0  0
  189.7980  173.1910  144.1460 C   0  0  2  0  0  3  0  0  0  0  0  0
  190.4160  173.9700  145.3030 C   0  0  0  0  0  2  0  0  0  0  0  0
  186.3090  177.8990  144.7960 C   0  0  0  0  0  3  0  0  0  0  0  0
  186.1570  177.0220  146.0250 C   0  0  0  0  0  1  0  0  0  0  0  0
  185.7000  179.2680  145.0550 C   0  0  0  0  0  1  0  0  0  0  0  0
  1  4  1  6  0  0  0
  1 16  1  0  0  0  0
  1  9  1  0  0  0  0
  1 20  1  0  0  0  0
  3  8  1  0  0  0  0
  5  7  1  0  0  0  0
  6 10  1  0  0  0  0
  7  6  2  0  0  0  0
  8 10  1  6  0  0  0
  9  5  1  1  0  0  0
  9  8  1  0  0  0  0
 11  2  1  0  0  0  0
 12 17  1  6  0  0  0
 12 11  1  0  0  0  0
 13 15  1  0  0  0  0
 13 12  1  0  0  0  0
 14  2  1  6  0  0  0
 14  3  1  0  0  0  0
 16 15  1  1  0  0  0
 16 14  1  0  0  0  0
 17 18  1  0  0  0  0
 19 17  2  0  0  0  0
 21 20  1  0  0  0  0
 23 28  2  0  0  0  0
 23 30  1  0  0  0  0
 24 32  1  1  0  0  0
 24 25  1  0  0  0  0
 26 25  1  0  0  0  0
 26 22  1  0  0  0  0
 27 29  1  0  0  0  0
 27 28  1  0  0  0  0
 28 26  1  0  0  0  0
 29 24  1  0  0  0  0
 30 21  1  6  0  0  0
 30 31  1  0  0  0  0
 31 22  1  0  0  0  0
 32 34  1  0  0  0  0
 32 33  1  0  0  0  0
M  END
>  <MODEL>
9

>  <REMARK>
 VINA RESULT:      -6.8      4.268      8.614
  Name = 
  5 active torsions:
  status: ('A' for Active; 'I' for Inactive)
    1  A    between atoms: C_1  and  C_8
    2  A    between atoms: C_3  and  C_25
    3  A    between atoms: C_7  and  C_11
    4  A    between atoms: C_8  and  C_18
    5  A    between atoms: C_18  and  C_30
                            x       y       z     vdW  Elec       q    Type
                         _______ _______ _______ _____ _____    ______ ____

>  <TORSDO>
F 5

$$$$
