=
 OpenBabel11052420293D

 34 38  0  0  0  0  0  0  0  0999 V2000
  192.2620  175.0310  145.2700 C   0  0  0  0  0  0  0  0  0  0  0  0
  191.7100  174.3720  141.5060 C   0  0  0  0  0  3  0  0  0  0  0  0
  193.5920  175.1250  142.7840 C   0  0  0  0  0  3  0  0  0  0  0  0
  194.5490  175.8710  146.2210 C   0  0  0  0  0  2  0  0  0  0  0  0
  195.7100  176.1540  145.4430 O   0  0  0  0  0  0  0  0  0  0  0  0
  194.2370  175.4740  143.9580 C   0  0  0  0  0  0  0  0  0  0  0  0
  193.6020  175.4210  145.1650 C   0  0  0  0  0  0  0  0  0  0  0  0
  195.4750  175.9040  144.0930 C   0  0  0  0  0  3  0  0  0  0  0  0
  190.5190  173.9100  141.1490 C   0  0  0  0  0  3  0  0  0  0  0  0
  189.3640  173.5560  141.9810 C   0  0  0  0  0  0  0  0  0  0  0  0
  189.3180  173.6740  143.3050 C   0  0  0  0  0  3  0  0  0  0  0  0
  192.2590  174.6850  142.8310 C   0  0  0  0  0  0  0  0  0  0  0  0
  190.3260  174.1640  144.2510 C   0  0  0  0  0  3  0  0  0  0  0  0
  191.5790  174.6090  144.0880 C   0  0  0  0  0  0  0  0  0  0  0  0
  188.1670  173.0330  141.2900 C   0  0  0  0  0  0  0  0  0  0  0  0
  187.1280  172.7520  141.9440 O   0  0  0  0  0  0  0  0  0  0  0  0
  188.1690  172.8370  139.8770 N   0  0  0  0  0  1  0  0  0  0  0  0
  191.5720  175.0910  146.6130 C   0  0  0  0  0  2  0  0  0  0  0  0
  191.6490  176.4870  147.2360 C   0  0  0  0  0  2  0  0  0  0  0  0
  190.3210  177.2490  147.2120 C   0  0  0  0  0  2  0  0  0  0  0  0
  189.8900  177.9910  143.5350 C   0  0  0  0  0  3  0  0  0  0  0  0
  188.3740  176.8330  145.6050 C   0  0  0  0  0  0  0  0  0  0  0  0
  186.6970  177.4150  141.7660 C   0  0  0  0  0  0  0  0  0  0  0  0
  188.0190  177.7950  142.0270 C   0  0  0  0  0  3  0  0  0  0  0  0
  188.5750  177.5990  143.2930 C   0  0  0  0  0  0  0  0  0  0  0  0
  187.5860  176.1690  146.6950 C   0  0  0  0  0  1  0  0  0  0  0  0
  186.4840  176.6280  144.0550 C   0  0  0  0  0  3  0  0  0  0  0  0
  187.8060  177.0110  144.3260 C   0  0  0  0  0  0  0  0  0  0  0  0
  185.9350  176.8290  142.7860 C   0  0  0  0  0  3  0  0  0  0  0  0
  189.6870  177.2950  145.8520 C   0  0  0  0  0  0  0  0  0  0  0  0
  190.4400  177.8400  144.8080 C   0  0  0  0  0  3  0  0  0  0  0  0
  186.1180  177.6310  140.4300 C   0  0  0  0  0  0  0  0  0  0  0  0
  184.9640  178.3920  140.2830 O   0  0  0  0  0  1  0  0  0  0  0  0
  186.6600  177.1270  139.4110 O   0  0  0  0  0  0  0  0  0  0  0  0
  1 18  1  0  0  0  0
  2 12  1  0  0  0  0
  3 12  2  0  0  0  0
  3  6  1  0  0  0  0
  5  4  1  0  0  0  0
  6  8  2  0  0  0  0
  6  7  1  0  0  0  0
  7  1  2  0  0  0  0
  7  4  1  0  0  0  0
  8  5  1  0  0  0  0
  9  2  2  0  0  0  0
  9 10  1  0  0  0  0
 10 11  2  0  0  0  0
 11 13  1  0  0  0  0
 12 14  1  0  0  0  0
 14 13  2  0  0  0  0
 14  1  1  0  0  0  0
 15 16  2  0  0  0  0
 15 10  1  0  0  0  0
 17 15  1  0  0  0  0
 18 19  1  0  0  0  0
 20 19  1  0  0  0  0
 21 31  1  0  0  0  0
 22 30  1  0  0  0  0
 22 26  1  0  0  0  0
 23 24  2  0  0  0  0
 23 29  1  0  0  0  0
 24 25  1  0  0  0  0
 25 21  2  0  0  0  0
 25 28  1  0  0  0  0
 27 28  1  0  0  0  0
 28 22  2  0  0  0  0
 29 27  2  0  0  0  0
 30 20  1  0  0  0  0
 31 30  2  0  0  0  0
 32 23  1  0  0  0  0
 33 32  1  0  0  0  0
 34 32  2  0  0  0  0
M  END
>  <MODEL>
1

>  <REMARK>
 VINA RESULT:      -8.2      0.000      0.000
  Name = 
  6 active torsions:
  status: ('A' for Active; 'I' for Inactive)
    1  A    between atoms: C_1  and  C_9
    2  A    between atoms: C_3  and  C_25
    3  A    between atoms: C_7  and  C_11
    4  A    between atoms: C_8  and  C_9
    5  A    between atoms: C_8  and  C_18
    6  A    between atoms: C_18  and  C_30
                            x       y       z     vdW  Elec       q    Type
                         _______ _______ _______ _____ _____    ______ ____

>  <TORSDO>
F 6

$$$$
=
 OpenBabel11052420293D

 34 38  0  0  0  0  0  0  0  0999 V2000
  192.0190  175.0640  145.5070 C   0  0  0  0  0  0  0  0  0  0  0  0
  191.4790  174.7120  141.7000 C   0  0  0  0  0  3  0  0  0  0  0  0
  193.2650  175.5950  143.0320 C   0  0  0  0  0  3  0  0  0  0  0  0
  194.1860  176.1220  146.5190 C   0  0  0  0  0  2  0  0  0  0  0  0
  195.2780  176.6440  145.7650 O   0  0  0  0  0  0  0  0  0  0  0  0
  193.8810  175.9130  144.2300 C   0  0  0  0  0  0  0  0  0  0  0  0
  193.2880  175.6490  145.4310 C   0  0  0  0  0  0  0  0  0  0  0  0
  195.0490  176.4990  144.3980 C   0  0  0  0  0  3  0  0  0  0  0  0
  190.3570  174.1240  141.3080 C   0  0  0  0  0  3  0  0  0  0  0  0
  189.2830  173.5270  142.1090 C   0  0  0  0  0  0  0  0  0  0  0  0
  189.2510  173.5050  143.4390 C   0  0  0  0  0  3  0  0  0  0  0  0
  192.0090  174.9670  143.0460 C   0  0  0  0  0  0  0  0  0  0  0  0
  190.2010  174.0360  144.4210 C   0  0  0  0  0  3  0  0  0  0  0  0
  191.3750  174.6690  144.2940 C   0  0  0  0  0  0  0  0  0  0  0  0
  188.1560  172.9110  141.3790 C   0  0  0  0  0  0  0  0  0  0  0  0
  187.1330  172.5200  142.0010 O   0  0  0  0  0  0  0  0  0  0  0  0
  188.2080  172.7470  139.9630 N   0  0  0  0  0  1  0  0  0  0  0  0
  191.3590  174.8900  146.8550 C   0  0  0  0  0  2  0  0  0  0  0  0
  190.3040  175.9670  147.1200 C   0  0  0  0  0  2  0  0  0  0  0  0
  190.3880  177.1640  146.1680 C   0  0  0  0  0  2  0  0  0  0  0  0
  186.6860  177.4300  145.4800 C   0  0  0  0  0  3  0  0  0  0  0  0
  189.0860  177.7550  144.0470 C   0  0  0  0  0  0  0  0  0  0  0  0
  185.3480  178.0560  142.0930 C   0  0  0  0  0  0  0  0  0  0  0  0
  185.4100  177.7940  143.4670 C   0  0  0  0  0  3  0  0  0  0  0  0
  186.6440  177.6990  144.1130 C   0  0  0  0  0  0  0  0  0  0  0  0
  190.3660  177.9800  143.2970 C   0  0  0  0  0  1  0  0  0  0  0  0
  187.7740  178.1370  142.0100 C   0  0  0  0  0  3  0  0  0  0  0  0
  187.8460  177.8690  143.3850 C   0  0  0  0  0  0  0  0  0  0  0  0
  186.5350  178.2290  141.3700 C   0  0  0  0  0  3  0  0  0  0  0  0
  189.1120  177.4180  145.4190 C   0  0  0  0  0  0  0  0  0  0  0  0
  187.9140  177.2890  146.1260 C   0  0  0  0  0  3  0  0  0  0  0  0
  184.0420  178.1490  141.4190 C   0  0  0  0  0  0  0  0  0  0  0  0
  182.8720  178.2030  142.1660 O   0  0  0  0  0  1  0  0  0  0  0  0
  183.9740  178.1780  140.1610 O   0  0  0  0  0  0  0  0  0  0  0  0
  1 18  1  0  0  0  0
  2 12  1  0  0  0  0
  3 12  2  0  0  0  0
  3  6  1  0  0  0  0
  5  4  1  0  0  0  0
  6  8  2  0  0  0  0
  6  7  1  0  0  0  0
  7  1  2  0  0  0  0
  7  4  1  0  0  0  0
  8  5  1  0  0  0  0
  9  2  2  0  0  0  0
  9 10  1  0  0  0  0
 10 11  2  0  0  0  0
 11 13  1  0  0  0  0
 12 14  1  0  0  0  0
 14 13  2  0  0  0  0
 14  1  1  0  0  0  0
 15 16  2  0  0  0  0
 15 10  1  0  0  0  0
 17 15  1  0  0  0  0
 18 19  1  0  0  0  0
 20 19  1  0  0  0  0
 21 31  1  0  0  0  0
 22 30  1  0  0  0  0
 23 24  2  0  0  0  0
 24 25  1  0  0  0  0
 25 21  2  0  0  0  0
 26 22  1  0  0  0  0
 27 28  1  0  0  0  0
 28 22  2  0  0  0  0
 28 25  1  0  0  0  0
 29 27  2  0  0  0  0
 29 23  1  0  0  0  0
 30 31  2  0  0  0  0
 30 20  1  0  0  0  0
 32 23  1  0  0  0  0
 32 33  1  0  0  0  0
 34 32  2  0  0  0  0
M  END
>  <MODEL>
2

>  <REMARK>
 VINA RESULT:      -7.9      0.974      1.786
  Name = 
  6 active torsions:
  status: ('A' for Active; 'I' for Inactive)
    1  A    between atoms: C_1  and  C_9
    2  A    between atoms: C_3  and  C_25
    3  A    between atoms: C_7  and  C_11
    4  A    between atoms: C_8  and  C_9
    5  A    between atoms: C_8  and  C_18
    6  A    between atoms: C_18  and  C_30
                            x       y       z     vdW  Elec       q    Type
                         _______ _______ _______ _____ _____    ______ ____

>  <TORSDO>
F 6

$$$$
=
 OpenBabel11052420293D

 34 38  0  0  0  0  0  0  0  0999 V2000
  187.2180  176.4160  143.8060 C   0  0  0  0  0  0  0  0  0  0  0  0
  189.1230  174.5590  141.0080 C   0  0  0  0  0  3  0  0  0  0  0  0
  187.4410  176.2660  140.9980 C   0  0  0  0  0  3  0  0  0  0  0  0
  185.4240  178.2480  143.2960 C   0  0  0  0  0  2  0  0  0  0  0  0
  185.0190  178.6660  141.9940 O   0  0  0  0  0  0  0  0  0  0  0  0
  186.5620  177.1470  141.6030 C   0  0  0  0  0  0  0  0  0  0  0  0
  186.4570  177.2320  142.9610 C   0  0  0  0  0  0  0  0  0  0  0  0
  185.7270  177.9760  141.0110 C   0  0  0  0  0  3  0  0  0  0  0  0
  190.0380  173.6780  141.3910 C   0  0  0  0  0  3  0  0  0  0  0  0
  190.4870  173.3210  142.7410 C   0  0  0  0  0  0  0  0  0  0  0  0
  189.9980  173.8400  143.8650 C   0  0  0  0  0  3  0  0  0  0  0  0
  188.2620  175.4510  141.7940 C   0  0  0  0  0  0  0  0  0  0  0  0
  188.9410  174.8350  144.0710 C   0  0  0  0  0  3  0  0  0  0  0  0
  188.1770  175.5340  143.2210 C   0  0  0  0  0  0  0  0  0  0  0  0
  191.5590  172.3110  142.8530 C   0  0  0  0  0  0  0  0  0  0  0  0
  192.2510  172.0050  141.8460 O   0  0  0  0  0  0  0  0  0  0  0  0
  191.8260  171.6670  144.0970 N   0  0  0  0  0  1  0  0  0  0  0  0
  186.9890  176.4700  145.2990 C   0  0  0  0  0  2  0  0  0  0  0  0
  187.5870  177.7320  145.9250 C   0  0  0  0  0  2  0  0  0  0  0  0
  188.7700  177.4600  146.8580 C   0  0  0  0  0  2  0  0  0  0  0  0
  191.4180  177.6670  144.1760 C   0  0  0  0  0  3  0  0  0  0  0  0
  191.0040  176.2460  146.5700 C   0  0  0  0  0  0  0  0  0  0  0  0
  194.3620  175.4320  144.1300 C   0  0  0  0  0  0  0  0  0  0  0  0
  193.4370  176.4160  143.7590 C   0  0  0  0  0  3  0  0  0  0  0  0
  192.3310  176.6890  144.5660 C   0  0  0  0  0  0  0  0  0  0  0  0
  190.8080  175.5280  147.8720 C   0  0  0  0  0  1  0  0  0  0  0  0
  193.0680  174.9930  146.1390 C   0  0  0  0  0  3  0  0  0  0  0  0
  192.1340  175.9730  145.7710 C   0  0  0  0  0  0  0  0  0  0  0  0
  194.1710  174.7240  145.3250 C   0  0  0  0  0  3  0  0  0  0  0  0
  190.0550  177.1950  146.1270 C   0  0  0  0  0  0  0  0  0  0  0  0
  190.2870  177.9160  144.9520 C   0  0  0  0  0  3  0  0  0  0  0  0
  195.5220  175.1480  143.2700 C   0  0  0  0  0  0  0  0  0  0  0  0
  196.5740  176.0520  143.1940 O   0  0  0  0  0  1  0  0  0  0  0  0
  195.5700  174.0860  142.5940 O   0  0  0  0  0  0  0  0  0  0  0  0
  1 18  1  0  0  0  0
  2  9  2  0  0  0  0
  2 12  1  0  0  0  0
  3  6  1  0  0  0  0
  3 12  2  0  0  0  0
  5  4  1  0  0  0  0
  6  7  1  0  0  0  0
  7  4  1  0  0  0  0
  7  1  2  0  0  0  0
  8  6  2  0  0  0  0
  8  5  1  0  0  0  0
  9 10  1  0  0  0  0
 10 15  1  0  0  0  0
 10 11  2  0  0  0  0
 11 13  1  0  0  0  0
 12 14  1  0  0  0  0
 14  1  1  0  0  0  0
 14 13  2  0  0  0  0
 15 17  1  0  0  0  0
 16 15  2  0  0  0  0
 18 19  1  0  0  0  0
 19 20  1  0  0  0  0
 21 25  2  0  0  0  0
 21 31  1  0  0  0  0
 22 26  1  0  0  0  0
 23 29  1  0  0  0  0
 24 23  2  0  0  0  0
 24 25  1  0  0  0  0
 25 28  1  0  0  0  0
 28 27  1  0  0  0  0
 28 22  2  0  0  0  0
 29 27  2  0  0  0  0
 30 22  1  0  0  0  0
 30 20  1  0  0  0  0
 31 30  2  0  0  0  0
 32 23  1  0  0  0  0
 33 32  1  0  0  0  0
 34 32  2  0  0  0  0
M  END
>  <MODEL>
3

>  <REMARK>
 VINA RESULT:      -7.7      1.939      6.289
  Name = 
  6 active torsions:
  status: ('A' for Active; 'I' for Inactive)
    1  A    between atoms: C_1  and  C_9
    2  A    between atoms: C_3  and  C_25
    3  A    between atoms: C_7  and  C_11
    4  A    between atoms: C_8  and  C_9
    5  A    between atoms: C_8  and  C_18
    6  A    between atoms: C_18  and  C_30
                            x       y       z     vdW  Elec       q    Type
                         _______ _______ _______ _____ _____    ______ ____

>  <TORSDO>
F 6

$$$$
=
 OpenBabel11052420293D

 34 38  0  0  0  0  0  0  0  0999 V2000
  187.6410  176.5150  144.4810 C   0  0  0  0  0  0  0  0  0  0  0  0
  188.5180  175.0010  141.0390 C   0  0  0  0  0  3  0  0  0  0  0  0
  187.2170  176.8960  141.7180 C   0  0  0  0  0  3  0  0  0  0  0  0
  186.1470  178.6460  144.7300 C   0  0  0  0  0  2  0  0  0  0  0  0
  185.5530  179.3670  143.6520 O   0  0  0  0  0  0  0  0  0  0  0  0
  186.6680  177.7540  142.6540 C   0  0  0  0  0  0  0  0  0  0  0  0
  186.8780  177.5810  143.9920 C   0  0  0  0  0  0  0  0  0  0  0  0
  185.8920  178.7940  142.4280 C   0  0  0  0  0  3  0  0  0  0  0  0
  189.3160  173.9420  141.0380 C   0  0  0  0  0  3  0  0  0  0  0  0
  189.9740  173.2640  142.1600 C   0  0  0  0  0  0  0  0  0  0  0  0
  189.8450  173.6120  143.4380 C   0  0  0  0  0  3  0  0  0  0  0  0
  188.0270  175.8320  142.1460 C   0  0  0  0  0  0  0  0  0  0  0  0
  189.0590  174.6850  144.0550 C   0  0  0  0  0  3  0  0  0  0  0  0
  188.2710  175.6400  143.5430 C   0  0  0  0  0  0  0  0  0  0  0  0
  190.8400  172.1110  141.8410 C   0  0  0  0  0  0  0  0  0  0  0  0
  191.5130  171.5520  142.7470 O   0  0  0  0  0  0  0  0  0  0  0  0
  190.9300  171.6140  140.5060 N   0  0  0  0  0  1  0  0  0  0  0  0
  187.7550  176.3030  145.9730 C   0  0  0  0  0  2  0  0  0  0  0  0
  188.7630  177.2620  146.6120 C   0  0  0  0  0  2  0  0  0  0  0  0
  189.8220  177.7860  145.6390 C   0  0  0  0  0  2  0  0  0  0  0  0
  192.6520  175.6800  146.9830 C   0  0  0  0  0  3  0  0  0  0  0  0
  191.9390  176.8680  144.5330 C   0  0  0  0  0  0  0  0  0  0  0  0
  195.6430  174.8750  144.9670 C   0  0  0  0  0  0  0  0  0  0  0  0
  194.7500  174.9530  146.0420 C   0  0  0  0  0  3  0  0  0  0  0  0
  193.5250  175.6060  145.8980 C   0  0  0  0  0  0  0  0  0  0  0  0
  191.5330  177.4570  143.2150 C   0  0  0  0  0  1  0  0  0  0  0  0
  194.0710  176.1090  143.5870 C   0  0  0  0  0  3  0  0  0  0  0  0
  193.1730  176.1970  144.6610 C   0  0  0  0  0  0  0  0  0  0  0  0
  195.2960  175.4540  143.7390 C   0  0  0  0  0  3  0  0  0  0  0  0
  191.0950  176.9900  145.6600 C   0  0  0  0  0  0  0  0  0  0  0  0
  191.4460  176.3690  146.8620 C   0  0  0  0  0  3  0  0  0  0  0  0
  196.9350  174.1880  145.1300 C   0  0  0  0  0  0  0  0  0  0  0  0
  197.2320  173.5280  146.3160 O   0  0  0  0  0  1  0  0  0  0  0  0
  197.7830  174.1940  144.1980 O   0  0  0  0  0  0  0  0  0  0  0  0
  1 18  1  0  0  0  0
  2 12  1  0  0  0  0
  3 12  2  0  0  0  0
  3  6  1  0  0  0  0
  5  4  1  0  0  0  0
  6  7  1  0  0  0  0
  7  1  2  0  0  0  0
  7  4  1  0  0  0  0
  8  6  2  0  0  0  0
  8  5  1  0  0  0  0
  9  2  2  0  0  0  0
  9 10  1  0  0  0  0
 10 11  2  0  0  0  0
 11 13  1  0  0  0  0
 12 14  1  0  0  0  0
 14 13  2  0  0  0  0
 14  1  1  0  0  0  0
 15 10  1  0  0  0  0
 15 16  2  0  0  0  0
 17 15  1  0  0  0  0
 18 19  1  0  0  0  0
 20 30  1  0  0  0  0
 20 19  1  0  0  0  0
 22 28  2  0  0  0  0
 22 30  1  0  0  0  0
 23 32  1  0  0  0  0
 23 24  2  0  0  0  0
 25 24  1  0  0  0  0
 25 21  2  0  0  0  0
 26 22  1  0  0  0  0
 27 29  2  0  0  0  0
 27 28  1  0  0  0  0
 28 25  1  0  0  0  0
 29 23  1  0  0  0  0
 30 31  2  0  0  0  0
 31 21  1  0  0  0  0
 32 33  1  0  0  0  0
 34 32  2  0  0  0  0
M  END
>  <MODEL>
4

>  <REMARK>
 VINA RESULT:      -7.6      1.926      6.803
  Name = 
  6 active torsions:
  status: ('A' for Active; 'I' for Inactive)
    1  A    between atoms: C_1  and  C_9
    2  A    between atoms: C_3  and  C_25
    3  A    between atoms: C_7  and  C_11
    4  A    between atoms: C_8  and  C_9
    5  A    between atoms: C_8  and  C_18
    6  A    between atoms: C_18  and  C_30
                            x       y       z     vdW  Elec       q    Type
                         _______ _______ _______ _____ _____    ______ ____

>  <TORSDO>
F 6

$$$$
=
 OpenBabel11052420293D

 34 38  0  0  0  0  0  0  0  0999 V2000
  192.3800  173.7980  144.4410 C   0  0  0  0  0  0  0  0  0  0  0  0
  189.4090  174.8840  146.6550 C   0  0  0  0  0  3  0  0  0  0  0  0
  189.7260  173.0950  145.0920 C   0  0  0  0  0  3  0  0  0  0  0  0
  192.2530  171.7250  142.8520 C   0  0  0  0  0  2  0  0  0  0  0  0
  191.1130  170.8870  142.6800 O   0  0  0  0  0  0  0  0  0  0  0  0
  190.4610  172.3600  144.1790 C   0  0  0  0  0  0  0  0  0  0  0  0
  191.7490  172.6880  143.8680 C   0  0  0  0  0  0  0  0  0  0  0  0
  190.0630  171.3080  143.4940 C   0  0  0  0  0  3  0  0  0  0  0  0
  189.6060  175.9280  147.4480 C   0  0  0  0  0  3  0  0  0  0  0  0
  190.8170  176.7280  147.6600 C   0  0  0  0  0  0  0  0  0  0  0  0
  191.9730  176.5350  147.0310 C   0  0  0  0  0  3  0  0  0  0  0  0
  190.3200  174.1960  145.7310 C   0  0  0  0  0  0  0  0  0  0  0  0
  192.3470  175.5510  146.0120 C   0  0  0  0  0  3  0  0  0  0  0  0
  191.6740  174.5490  145.4290 C   0  0  0  0  0  0  0  0  0  0  0  0
  190.7390  177.8280  148.6440 C   0  0  0  0  0  0  0  0  0  0  0  0
  189.8520  178.7160  148.5350 O   0  0  0  0  0  0  0  0  0  0  0  0
  191.6630  177.9020  149.7290 N   0  0  0  0  0  1  0  0  0  0  0  0
  193.7680  174.1840  143.9850 C   0  0  0  0  0  2  0  0  0  0  0  0
  193.7690  175.5000  143.2020 C   0  0  0  0  0  2  0  0  0  0  0  0
  192.6870  175.5780  142.1220 C   0  0  0  0  0  2  0  0  0  0  0  0
  190.3480  177.9080  143.9540 C   0  0  0  0  0  3  0  0  0  0  0  0
  190.1370  175.6240  142.3220 C   0  0  0  0  0  0  0  0  0  0  0  0
  186.7050  177.3140  144.1250 C   0  0  0  0  0  0  0  0  0  0  0  0
  187.9670  177.8850  144.3300 C   0  0  0  0  0  3  0  0  0  0  0  0
  189.1000  177.3300  143.7310 C   0  0  0  0  0  0  0  0  0  0  0  0
  190.0210  174.4390  141.4100 C   0  0  0  0  0  1  0  0  0  0  0  0
  187.7140  175.6220  142.7040 C   0  0  0  0  0  3  0  0  0  0  0  0
  188.9830  176.1840  142.9090 C   0  0  0  0  0  0  0  0  0  0  0  0
  186.5850  176.1820  143.3080 C   0  0  0  0  0  3  0  0  0  0  0  0
  191.4020  176.1830  142.6100 C   0  0  0  0  0  0  0  0  0  0  0  0
  191.4910  177.3350  143.3960 C   0  0  0  0  0  3  0  0  0  0  0  0
  185.5170  177.9030  144.7650 C   0  0  0  0  0  0  0  0  0  0  0  0
  184.9360  177.2830  145.8660 O   0  0  0  0  0  1  0  0  0  0  0  0
  185.0150  178.9690  144.3210 O   0  0  0  0  0  0  0  0  0  0  0  0
  1 14  1  0  0  0  0
  2  9  2  0  0  0  0
  3 12  2  0  0  0  0
  4  7  1  0  0  0  0
  5  4  1  0  0  0  0
  5  8  1  0  0  0  0
  6  3  1  0  0  0  0
  7  6  1  0  0  0  0
  7  1  2  0  0  0  0
  8  6  2  0  0  0  0
  9 10  1  0  0  0  0
 10 15  1  0  0  0  0
 11 10  2  0  0  0  0
 12  2  1  0  0  0  0
 13 11  1  0  0  0  0
 14 12  1  0  0  0  0
 14 13  2  0  0  0  0
 15 17  1  0  0  0  0
 16 15  2  0  0  0  0
 18  1  1  0  0  0  0
 19 18  1  0  0  0  0
 20 30  1  0  0  0  0
 20 19  1  0  0  0  0
 22 30  2  0  0  0  0
 22 28  1  0  0  0  0
 23 24  1  0  0  0  0
 23 32  1  0  0  0  0
 25 21  1  0  0  0  0
 25 24  2  0  0  0  0
 26 22  1  0  0  0  0
 27 28  2  0  0  0  0
 27 29  1  0  0  0  0
 28 25  1  0  0  0  0
 29 23  2  0  0  0  0
 30 31  1  0  0  0  0
 31 21  2  0  0  0  0
 32 33  1  0  0  0  0
 34 32  2  0  0  0  0
M  END
>  <MODEL>
5

>  <REMARK>
 VINA RESULT:      -7.6      3.075      5.216
  Name = 
  6 active torsions:
  status: ('A' for Active; 'I' for Inactive)
    1  A    between atoms: C_1  and  C_9
    2  A    between atoms: C_3  and  C_25
    3  A    between atoms: C_7  and  C_11
    4  A    between atoms: C_8  and  C_9
    5  A    between atoms: C_8  and  C_18
    6  A    between atoms: C_18  and  C_30
                            x       y       z     vdW  Elec       q    Type
                         _______ _______ _______ _____ _____    ______ ____

>  <TORSDO>
F 6

$$$$
=
 OpenBabel11052420293D

 34 38  0  0  0  0  0  0  0  0999 V2000
  192.8540  174.3630  145.0770 C   0  0  0  0  0  0  0  0  0  0  0  0
  191.9460  174.1440  141.3310 C   0  0  0  0  0  3  0  0  0  0  0  0
  193.9750  174.6430  142.5030 C   0  0  0  0  0  3  0  0  0  0  0  0
  195.2650  174.9580  145.8980 C   0  0  0  0  0  2  0  0  0  0  0  0
  196.3740  175.2530  145.0520 O   0  0  0  0  0  0  0  0  0  0  0  0
  194.7380  174.8260  143.6440 C   0  0  0  0  0  0  0  0  0  0  0  0
  194.2040  174.6810  144.8910 C   0  0  0  0  0  0  0  0  0  0  0  0
  196.0100  175.1640  143.7090 C   0  0  0  0  0  3  0  0  0  0  0  0
  190.7000  173.7950  141.0380 C   0  0  0  0  0  3  0  0  0  0  0  0
  189.5970  173.4240  141.9300 C   0  0  0  0  0  0  0  0  0  0  0  0
  189.6700  173.4030  143.2580 C   0  0  0  0  0  3  0  0  0  0  0  0
  192.6240  174.2810  142.6260 C   0  0  0  0  0  0  0  0  0  0  0  0
  190.7840  173.7280  144.1540 C   0  0  0  0  0  3  0  0  0  0  0  0
  192.0480  174.1120  143.9250 C   0  0  0  0  0  0  0  0  0  0  0  0
  188.3140  173.0500  141.3010 C   0  0  0  0  0  0  0  0  0  0  0  0
  187.3070  172.7950  142.0140 O   0  0  0  0  0  0  0  0  0  0  0  0
  188.1930  172.9720  139.8810 N   0  0  0  0  0  1  0  0  0  0  0  0
  192.2840  174.3200  146.4760 C   0  0  0  0  0  2  0  0  0  0  0  0
  191.9520  175.7180  147.0030 C   0  0  0  0  0  2  0  0  0  0  0  0
  191.8860  176.7920  145.9130 C   0  0  0  0  0  2  0  0  0  0  0  0
  188.1670  177.3720  146.2010 C   0  0  0  0  0  3  0  0  0  0  0  0
  190.1270  177.4660  144.1820 C   0  0  0  0  0  0  0  0  0  0  0  0
  186.0440  178.0670  143.2570 C   0  0  0  0  0  0  0  0  0  0  0  0
  186.4430  177.8190  144.5760 C   0  0  0  0  0  3  0  0  0  0  0  0
  187.7910  177.6250  144.8830 C   0  0  0  0  0  0  0  0  0  0  0  0
  191.1790  177.5670  143.1180 C   0  0  0  0  0  1  0  0  0  0  0  0
  188.3620  177.9330  142.5440 C   0  0  0  0  0  3  0  0  0  0  0  0
  188.7690  177.6790  143.8620 C   0  0  0  0  0  0  0  0  0  0  0  0
  187.0110  178.1250  142.2440 C   0  0  0  0  0  3  0  0  0  0  0  0
  190.4830  177.1470  145.5120 C   0  0  0  0  0  0  0  0  0  0  0  0
  189.5060  177.1340  146.5110 C   0  0  0  0  0  3  0  0  0  0  0  0
  184.6190  178.2640  142.9420 C   0  0  0  0  0  0  0  0  0  0  0  0
  183.7330  178.6650  143.9340 O   0  0  0  0  0  1  0  0  0  0  0  0
  184.1910  178.0700  141.7730 O   0  0  0  0  0  0  0  0  0  0  0  0
  1 18  1  0  0  0  0
  2 12  1  0  0  0  0
  3 12  2  0  0  0  0
  3  6  1  0  0  0  0
  5  4  1  0  0  0  0
  6  8  2  0  0  0  0
  6  7  1  0  0  0  0
  7  1  2  0  0  0  0
  7  4  1  0  0  0  0
  8  5  1  0  0  0  0
  9  2  2  0  0  0  0
  9 10  1  0  0  0  0
 10 11  2  0  0  0  0
 11 13  1  0  0  0  0
 12 14  1  0  0  0  0
 14 13  2  0  0  0  0
 14  1  1  0  0  0  0
 15 10  1  0  0  0  0
 15 16  2  0  0  0  0
 17 15  1  0  0  0  0
 18 19  1  0  0  0  0
 20 19  1  0  0  0  0
 21 31  1  0  0  0  0
 22 30  1  0  0  0  0
 23 24  2  0  0  0  0
 24 25  1  0  0  0  0
 25 21  2  0  0  0  0
 26 22  1  0  0  0  0
 27 28  1  0  0  0  0
 28 22  2  0  0  0  0
 28 25  1  0  0  0  0
 29 27  2  0  0  0  0
 29 23  1  0  0  0  0
 30 20  1  0  0  0  0
 30 31  2  0  0  0  0
 32 23  1  0  0  0  0
 32 33  1  0  0  0  0
 34 32  2  0  0  0  0
M  END
>  <MODEL>
6

>  <REMARK>
 VINA RESULT:      -7.6      1.143      1.936
  Name = 
  6 active torsions:
  status: ('A' for Active; 'I' for Inactive)
    1  A    between atoms: C_1  and  C_9
    2  A    between atoms: C_3  and  C_25
    3  A    between atoms: C_7  and  C_11
    4  A    between atoms: C_8  and  C_9
    5  A    between atoms: C_8  and  C_18
    6  A    between atoms: C_18  and  C_30
                            x       y       z     vdW  Elec       q    Type
                         _______ _______ _______ _____ _____    ______ ____

>  <TORSDO>
F 6

$$$$
=
 OpenBabel11052420293D

 34 38  0  0  0  0  0  0  0  0999 V2000
  186.5560  176.7900  145.0860 C   0  0  0  0  0  0  0  0  0  0  0  0
  187.0540  176.4540  141.2720 C   0  0  0  0  0  3  0  0  0  0  0  0
  185.5640  177.7530  142.6270 C   0  0  0  0  0  3  0  0  0  0  0  0
  184.7550  178.3750  146.1250 C   0  0  0  0  0  2  0  0  0  0  0  0
  183.8460  179.1870  145.3850 O   0  0  0  0  0  0  0  0  0  0  0  0
  185.0440  178.1900  143.8320 C   0  0  0  0  0  0  0  0  0  0  0  0
  185.5270  177.7360  145.0260 C   0  0  0  0  0  0  0  0  0  0  0  0
  184.0550  179.0410  144.0150 C   0  0  0  0  0  3  0  0  0  0  0  0
  188.0260  175.6480  140.8650 C   0  0  0  0  0  3  0  0  0  0  0  0
  188.9970  174.8800  141.6520 C   0  0  0  0  0  0  0  0  0  0  0  0
  189.0420  174.8500  142.9810 C   0  0  0  0  0  3  0  0  0  0  0  0
  186.6270  176.8350  142.6240 C   0  0  0  0  0  0  0  0  0  0  0  0
  188.1940  175.5150  143.9760 C   0  0  0  0  0  3  0  0  0  0  0  0
  187.1570  176.3560  143.8640 C   0  0  0  0  0  0  0  0  0  0  0  0
  189.9930  174.0830  140.9070 C   0  0  0  0  0  0  0  0  0  0  0  0
  191.1480  173.9090  141.3780 O   0  0  0  0  0  0  0  0  0  0  0  0
  189.6660  173.5020  139.6460 N   0  0  0  0  0  1  0  0  0  0  0  0
  186.9830  176.2370  146.4260 C   0  0  0  0  0  2  0  0  0  0  0  0
  187.7700  177.2630  147.2450 C   0  0  0  0  0  2  0  0  0  0  0  0
  188.8630  177.9820  146.4490 C   0  0  0  0  0  2  0  0  0  0  0  0
  191.6560  175.5910  147.3070 C   0  0  0  0  0  3  0  0  0  0  0  0
  190.9460  177.2570  145.1530 C   0  0  0  0  0  0  0  0  0  0  0  0
  194.6070  175.1390  145.1290 C   0  0  0  0  0  0  0  0  0  0  0  0
  193.7260  175.0200  146.2110 C   0  0  0  0  0  3  0  0  0  0  0  0
  192.5160  175.7160  146.2170 C   0  0  0  0  0  0  0  0  0  0  0  0
  190.5410  178.1040  143.9830 C   0  0  0  0  0  1  0  0  0  0  0  0
  193.0500  176.6560  144.0440 C   0  0  0  0  0  3  0  0  0  0  0  0
  192.1650  176.5470  145.1270 C   0  0  0  0  0  0  0  0  0  0  0  0
  194.2610  175.9580  144.0460 C   0  0  0  0  0  3  0  0  0  0  0  0
  190.1170  177.1700  146.2940 C   0  0  0  0  0  0  0  0  0  0  0  0
  190.4650  176.3160  147.3430 C   0  0  0  0  0  3  0  0  0  0  0  0
  195.8840  174.4060  145.1330 C   0  0  0  0  0  0  0  0  0  0  0  0
  196.9890  174.9230  144.4690 O   0  0  0  0  0  0  0  0  0  0  0  0
  195.9850  173.3050  145.7370 O   0  0  0  0  0  1  0  0  0  0  0  0
  1 18  1  0  0  0  0
  2 12  1  0  0  0  0
  3  6  1  0  0  0  0
  5  4  1  0  0  0  0
  6  8  2  0  0  0  0
  6  7  1  0  0  0  0
  7  1  2  0  0  0  0
  7  4  1  0  0  0  0
  8  5  1  0  0  0  0
  9  2  2  0  0  0  0
  9 10  1  0  0  0  0
 10 11  2  0  0  0  0
 11 13  1  0  0  0  0
 12  3  2  0  0  0  0
 12 14  1  0  0  0  0
 14 13  2  0  0  0  0
 14  1  1  0  0  0  0
 15 16  2  0  0  0  0
 15 10  1  0  0  0  0
 17 15  1  0  0  0  0
 18 19  1  0  0  0  0
 20 19  1  0  0  0  0
 21 31  1  0  0  0  0
 22 30  1  0  0  0  0
 23 32  1  0  0  0  0
 23 24  2  0  0  0  0
 24 25  1  0  0  0  0
 25 21  2  0  0  0  0
 26 22  1  0  0  0  0
 27 29  2  0  0  0  0
 27 28  1  0  0  0  0
 28 22  2  0  0  0  0
 28 25  1  0  0  0  0
 29 23  1  0  0  0  0
 30 20  1  0  0  0  0
 30 31  2  0  0  0  0
 32 34  1  0  0  0  0
 33 32  2  0  0  0  0
M  END
>  <MODEL>
7

>  <REMARK>
 VINA RESULT:      -7.6      2.042      6.934
  Name = 
  6 active torsions:
  status: ('A' for Active; 'I' for Inactive)
    1  A    between atoms: C_1  and  C_9
    2  A    between atoms: C_3  and  C_25
    3  A    between atoms: C_7  and  C_11
    4  A    between atoms: C_8  and  C_9
    5  A    between atoms: C_8  and  C_18
    6  A    between atoms: C_18  and  C_30
                            x       y       z     vdW  Elec       q    Type
                         _______ _______ _______ _____ _____    ______ ____

>  <TORSDO>
F 6

$$$$
=
 OpenBabel11052420293D

 34 38  0  0  0  0  0  0  0  0999 V2000
  193.4000  174.8900  145.9890 C   0  0  0  0  0  0  0  0  0  0  0  0
  189.6570  174.0960  145.4730 C   0  0  0  0  0  3  0  0  0  0  0  0
  191.6710  172.8710  145.0450 C   0  0  0  0  0  3  0  0  0  0  0  0
  195.2880  173.1970  145.3520 C   0  0  0  0  0  2  0  0  0  0  0  0
  195.0800  171.9110  144.7710 O   0  0  0  0  0  0  0  0  0  0  0  0
  193.0450  172.7010  145.0410 C   0  0  0  0  0  0  0  0  0  0  0  0
  193.8860  173.6700  145.5060 C   0  0  0  0  0  0  0  0  0  0  0  0
  193.7200  171.6590  144.6010 C   0  0  0  0  0  3  0  0  0  0  0  0
  188.7910  175.0180  145.8710 C   0  0  0  0  0  3  0  0  0  0  0  0
  189.0300  176.3040  146.5350 C   0  0  0  0  0  0  0  0  0  0  0  0
  190.2310  176.7890  146.8390 C   0  0  0  0  0  3  0  0  0  0  0  0
  191.1220  174.0580  145.5560 C   0  0  0  0  0  0  0  0  0  0  0  0
  191.5670  176.2300  146.6090 C   0  0  0  0  0  3  0  0  0  0  0  0
  191.9860  175.0810  146.0610 C   0  0  0  0  0  0  0  0  0  0  0  0
  187.8460  177.1150  146.8880 C   0  0  0  0  0  0  0  0  0  0  0  0
  187.9650  178.1200  147.6380 O   0  0  0  0  0  0  0  0  0  0  0  0
  186.5540  176.7740  146.3880 N   0  0  0  0  0  1  0  0  0  0  0  0
  194.3740  175.9730  146.3920 C   0  0  0  0  0  2  0  0  0  0  0  0
  194.5660  177.0130  145.2860 C   0  0  0  0  0  2  0  0  0  0  0  0
  194.2030  176.5050  143.8880 C   0  0  0  0  0  2  0  0  0  0  0  0
  190.8830  178.2910  143.6920 C   0  0  0  0  0  3  0  0  0  0  0  0
  191.9970  175.8840  142.7500 C   0  0  0  0  0  0  0  0  0  0  0  0
  187.9080  176.7610  142.1200 C   0  0  0  0  0  0  0  0  0  0  0  0
  188.7310  177.6670  142.8010 C   0  0  0  0  0  3  0  0  0  0  0  0
  190.0820  177.3800  143.0050 C   0  0  0  0  0  0  0  0  0  0  0  0
  192.6070  174.6270  142.2040 C   0  0  0  0  0  1  0  0  0  0  0  0
  189.8050  175.2700  141.8370 C   0  0  0  0  0  3  0  0  0  0  0  0
  190.6350  176.1690  142.5230 C   0  0  0  0  0  0  0  0  0  0  0  0
  188.4540  175.5630  141.6380 C   0  0  0  0  0  3  0  0  0  0  0  0
  192.7790  176.7880  143.5040 C   0  0  0  0  0  0  0  0  0  0  0  0
  192.2220  177.9940  143.9390 C   0  0  0  0  0  3  0  0  0  0  0  0
  186.4840  177.0690  141.9140 C   0  0  0  0  0  0  0  0  0  0  0  0
  185.5650  176.8420  142.9320 O   0  0  0  0  0  1  0  0  0  0  0  0
  186.0840  177.5390  140.8160 O   0  0  0  0  0  0  0  0  0  0  0  0
  1 14  1  0  0  0  0
  1 18  1  0  0  0  0
  2 12  1  0  0  0  0
  2  9  2  0  0  0  0
  3 12  2  0  0  0  0
  4  7  1  0  0  0  0
  5  4  1  0  0  0  0
  6  3  1  0  0  0  0
  6  7  1  0  0  0  0
  7  1  2  0  0  0  0
  8  5  1  0  0  0  0
  8  6  2  0  0  0  0
  9 10  1  0  0  0  0
 10 11  2  0  0  0  0
 10 15  1  0  0  0  0
 12 14  1  0  0  0  0
 13 11  1  0  0  0  0
 14 13  2  0  0  0  0
 15 16  2  0  0  0  0
 17 15  1  0  0  0  0
 19 18  1  0  0  0  0
 20 19  1  0  0  0  0
 21 31  1  0  0  0  0
 22 30  1  0  0  0  0
 23 24  2  0  0  0  0
 24 25  1  0  0  0  0
 25 21  2  0  0  0  0
 26 22  1  0  0  0  0
 27 28  1  0  0  0  0
 28 22  2  0  0  0  0
 28 25  1  0  0  0  0
 29 27  2  0  0  0  0
 29 23  1  0  0  0  0
 30 20  1  0  0  0  0
 30 31  2  0  0  0  0
 32 23  1  0  0  0  0
 32 33  1  0  0  0  0
 34 32  2  0  0  0  0
M  END
>  <MODEL>
8

>  <REMARK>
 VINA RESULT:      -7.5      2.600      4.091
  Name = 
  6 active torsions:
  status: ('A' for Active; 'I' for Inactive)
    1  A    between atoms: C_1  and  C_9
    2  A    between atoms: C_3  and  C_25
    3  A    between atoms: C_7  and  C_11
    4  A    between atoms: C_8  and  C_9
    5  A    between atoms: C_8  and  C_18
    6  A    between atoms: C_18  and  C_30
                            x       y       z     vdW  Elec       q    Type
                         _______ _______ _______ _____ _____    ______ ____

>  <TORSDO>
F 6

$$$$
=
 OpenBabel11052420293D

 34 38  0  0  0  0  0  0  0  0999 V2000
  191.9220  174.1480  145.3520 C   0  0  0  0  0  0  0  0  0  0  0  0
  190.4490  177.1680  147.2540 C   0  0  0  0  0  3  0  0  0  0  0  0
  192.6880  176.4360  146.8130 C   0  0  0  0  0  3  0  0  0  0  0  0
  194.4990  173.7560  145.1340 C   0  0  0  0  0  2  0  0  0  0  0  0
  195.5090  174.5890  145.6970 O   0  0  0  0  0  0  0  0  0  0  0  0
  193.6310  175.5790  146.2740 C   0  0  0  0  0  0  0  0  0  0  0  0
  193.2670  174.4760  145.5580 C   0  0  0  0  0  0  0  0  0  0  0  0
  194.9420  175.6670  146.3730 C   0  0  0  0  0  3  0  0  0  0  0  0
  189.1280  177.2810  147.2620 C   0  0  0  0  0  3  0  0  0  0  0  0
  188.1120  176.4480  146.6100 C   0  0  0  0  0  0  0  0  0  0  0  0
  188.3720  175.3650  145.8820 C   0  0  0  0  0  3  0  0  0  0  0  0
  191.3230  176.1830  146.6050 C   0  0  0  0  0  0  0  0  0  0  0  0
  189.6500  174.7280  145.5500 C   0  0  0  0  0  3  0  0  0  0  0  0
  190.9200  175.0390  145.8440 C   0  0  0  0  0  0  0  0  0  0  0  0
  186.6990  176.8460  146.7800 C   0  0  0  0  0  0  0  0  0  0  0  0
  186.2510  177.1240  147.9240 O   0  0  0  0  0  0  0  0  0  0  0  0
  185.8220  176.9190  145.6570 N   0  0  0  0  0  1  0  0  0  0  0  0
  191.5690  172.8600  144.6450 C   0  0  0  0  0  2  0  0  0  0  0  0
  191.7380  172.9740  143.1280 C   0  0  0  0  0  2  0  0  0  0  0  0
  191.7130  174.4140  142.6080 C   0  0  0  0  0  2  0  0  0  0  0  0
  187.9880  174.5830  142.0150 C   0  0  0  0  0  3  0  0  0  0  0  0
  190.0560  176.3600  142.7150 C   0  0  0  0  0  0  0  0  0  0  0  0
  186.1300  177.7780  142.0350 C   0  0  0  0  0  0  0  0  0  0  0  0
  186.4210  176.4130  141.9160 C   0  0  0  0  0  3  0  0  0  0  0  0
  187.7160  175.9440  142.1460 C   0  0  0  0  0  0  0  0  0  0  0  0
  191.1480  177.2970  143.1400 C   0  0  0  0  0  1  0  0  0  0  0  0
  188.4460  178.2090  142.6240 C   0  0  0  0  0  3  0  0  0  0  0  0
  188.7480  176.8450  142.5020 C   0  0  0  0  0  0  0  0  0  0  0  0
  187.1480  178.6710  142.3920 C   0  0  0  0  0  3  0  0  0  0  0  0
  190.3290  174.9880  142.5160 C   0  0  0  0  0  0  0  0  0  0  0  0
  189.2880  174.1110  142.1980 C   0  0  0  0  0  3  0  0  0  0  0  0
  184.7630  178.2640  141.7860 C   0  0  0  0  0  0  0  0  0  0  0  0
  183.8280  178.2810  142.8150 O   0  0  0  0  0  1  0  0  0  0  0  0
  184.4270  178.6660  140.6400 O   0  0  0  0  0  0  0  0  0  0  0  0
  1  7  2  0  0  0  0
  1 14  1  0  0  0  0
  2  9  2  0  0  0  0
  4  7  1  0  0  0  0
  4  5  1  0  0  0  0
  5  8  1  0  0  0  0
  6  8  2  0  0  0  0
  6  3  1  0  0  0  0
  7  6  1  0  0  0  0
 10 15  1  0  0  0  0
 10  9  1  0  0  0  0
 11 10  2  0  0  0  0
 12  3  2  0  0  0  0
 12  2  1  0  0  0  0
 13 14  2  0  0  0  0
 13 11  1  0  0  0  0
 14 12  1  0  0  0  0
 15 16  2  0  0  0  0
 17 15  1  0  0  0  0
 18  1  1  0  0  0  0
 19 18  1  0  0  0  0
 20 19  1  0  0  0  0
 21 25  2  0  0  0  0
 21 31  1  0  0  0  0
 22 26  1  0  0  0  0
 23 29  1  0  0  0  0
 24 23  2  0  0  0  0
 24 25  1  0  0  0  0
 25 28  1  0  0  0  0
 28 27  1  0  0  0  0
 28 22  2  0  0  0  0
 29 27  2  0  0  0  0
 30 20  1  0  0  0  0
 30 22  1  0  0  0  0
 31 30  2  0  0  0  0
 32 23  1  0  0  0  0
 32 33  1  0  0  0  0
 34 32  2  0  0  0  0
M  END
>  <MODEL>
9

>  <REMARK>
 VINA RESULT:      -7.5      2.241      4.089
  Name = 
  6 active torsions:
  status: ('A' for Active; 'I' for Inactive)
    1  A    between atoms: C_1  and  C_9
    2  A    between atoms: C_3  and  C_25
    3  A    between atoms: C_7  and  C_11
    4  A    between atoms: C_8  and  C_9
    5  A    between atoms: C_8  and  C_18
    6  A    between atoms: C_18  and  C_30
                            x       y       z     vdW  Elec       q    Type
                         _______ _______ _______ _____ _____    ______ ____

>  <TORSDO>
F 6

$$$$
