=
 OpenBabel11052418233D

 27 31  0  0  0  0  0  0  0  0999 V2000
  188.5930  176.0700  146.0130 C   0  0  0  0  0  3  0  0  0  0  0  0
  188.0780  176.0390  143.5390 C   0  0  0  0  0  0  0  0  0  0  0  0
  190.4220  175.2610  143.7350 C   0  0  0  0  0  3  0  0  0  0  0  0
  188.4390  174.3780  139.5720 C   0  0  0  0  0  2  0  0  0  0  0  0
  190.5800  173.4160  138.6620 N   0  0  0  0  0  1  0  0  0  0  0  0
  187.0260  176.2210  142.5980 C   0  0  0  0  0  3  0  0  0  0  0  0
  190.2440  174.0700  141.0370 C   0  0  0  0  0  0  0  0  0  0  0  0
  192.8780  176.4160  146.3640 C   0  0  0  0  0  3  0  0  0  0  0  0
  191.3900  173.7480  141.4480 O   0  0  0  0  0  0  0  0  0  0  0  0
  192.5700  176.1930  147.6380 C   0  0  0  0  0  3  0  0  0  0  0  0
  189.2360  174.8040  141.7850 C   0  0  0  0  0  0  0  0  0  0  0  0
  187.8560  176.4970  144.8070 C   0  0  0  0  0  0  0  0  0  0  0  0
  189.7580  173.7760  139.7360 N   0  0  0  0  0  0  0  0  0  0  0  0
  188.1790  174.9830  140.9200 C   0  0  0  0  0  0  0  0  0  0  0  0
  189.8670  175.7430  146.1740 C   0  0  0  0  0  0  0  0  0  0  0  0
  189.2520  175.3410  143.0890 C   0  0  0  0  0  0  0  0  0  0  0  0
  192.1140  176.0230  145.1720 C   0  0  0  0  0  3  0  0  0  0  0  0
  187.0660  175.7100  141.2990 C   0  0  0  0  0  3  0  0  0  0  0  0
  191.3800  175.5160  148.1620 C   0  0  0  0  0  3  0  0  0  0  0  0
  190.2210  175.3300  147.5370 C   0  0  0  0  0  3  0  0  0  0  0  0
  190.8180  175.7300  145.0570 C   0  0  0  0  0  0  0  0  0  0  0  0
  184.4810  178.9160  145.7640 N   0  0  0  0  0  0  0  0  0  0  0  0
  186.6660  177.3340  145.1250 C   0  0  0  0  0  0  0  0  0  0  0  0
  186.5570  178.6370  144.6180 C   0  0  0  0  0  3  0  0  0  0  0  0
  185.4460  179.4160  144.9480 C   0  0  0  0  0  3  0  0  0  0  0  0
  184.5640  177.6610  146.2800 C   0  0  0  0  0  3  0  0  0  0  0  0
  185.6590  176.8490  145.9730 C   0  0  0  0  0  3  0  0  0  0  0  0
  1 15  1  0  0  0  0
  2 12  1  0  0  0  0
  3 21  2  0  0  0  0
  4 13  1  0  0  0  0
  4 14  1  0  0  0  0
  5 13  1  0  0  0  0
  6  2  2  0  0  0  0
  7  9  2  0  0  0  0
  7 11  1  0  0  0  0
  8 10  1  0  0  0  0
 10 19  2  0  0  0  0
 11 16  2  0  0  0  0
 12 23  1  0  0  0  0
 12  1  2  0  0  0  0
 13  7  1  0  0  0  0
 14 18  2  0  0  0  0
 14 11  1  0  0  0  0
 15 20  2  0  0  0  0
 16  2  1  0  0  0  0
 16  3  1  0  0  0  0
 17  8  2  0  0  0  0
 18  6  1  0  0  0  0
 20 19  1  0  0  0  0
 21 17  1  0  0  0  0
 21 15  1  0  0  0  0
 22 26  1  0  0  0  0
 23 27  1  0  0  0  0
 24 25  1  0  0  0  0
 24 23  2  0  0  0  0
 25 22  2  0  0  0  0
 27 26  2  0  0  0  0
M  END
>  <MODEL>
1

>  <REMARK>
 VINA RESULT:      -8.3      0.000      0.000
  Name = 
  1 active torsions:
  status: ('A' for Active; 'I' for Inactive)
    1  A    between atoms: C_9  and  C_15
                            x       y       z     vdW  Elec       q    Type
                         _______ _______ _______ _____ _____    ______ ____

>  <TORSDO>
F 1

$$$$
=
 OpenBabel11052418233D

 27 31  0  0  0  0  0  0  0  0999 V2000
  190.7070  174.2860  143.6390 C   0  0  0  0  0  3  0  0  0  0  0  0
  189.8520  176.1260  145.1450 C   0  0  0  0  0  0  0  0  0  0  0  0
  188.0180  175.6810  143.5410 C   0  0  0  0  0  3  0  0  0  0  0  0
  186.7210  178.1570  147.3130 C   0  0  0  0  0  2  0  0  0  0  0  0
  184.3780  178.4290  146.4330 N   0  0  0  0  0  1  0  0  0  0  0  0
  190.1710  176.8760  146.3120 C   0  0  0  0  0  3  0  0  0  0  0  0
  186.1060  176.9880  145.3760 C   0  0  0  0  0  0  0  0  0  0  0  0
  188.4910  174.5970  139.9520 C   0  0  0  0  0  3  0  0  0  0  0  0
  185.3930  176.5650  144.4270 O   0  0  0  0  0  0  0  0  0  0  0  0
  189.1250  173.4500  139.7310 C   0  0  0  0  0  3  0  0  0  0  0  0
  187.5390  176.7920  145.5290 C   0  0  0  0  0  0  0  0  0  0  0  0
  190.8710  175.4210  144.5680 C   0  0  0  0  0  0  0  0  0  0  0  0
  185.6090  177.7610  146.4570 N   0  0  0  0  0  0  0  0  0  0  0  0
  187.8950  177.4810  146.6680 C   0  0  0  0  0  0  0  0  0  0  0  0
  189.7980  174.0630  142.7020 C   0  0  0  0  0  0  0  0  0  0  0  0
  188.4800  176.1300  144.7140 C   0  0  0  0  0  0  0  0  0  0  0  0
  188.1490  175.2020  141.2470 C   0  0  0  0  0  3  0  0  0  0  0  0
  189.2150  177.5550  147.0690 C   0  0  0  0  0  3  0  0  0  0  0  0
  189.6540  172.5180  140.7310 C   0  0  0  0  0  3  0  0  0  0  0  0
  189.9490  172.7820  142.0000 C   0  0  0  0  0  3  0  0  0  0  0  0
  188.6940  174.9940  142.4460 C   0  0  0  0  0  0  0  0  0  0  0  0
  194.9250  175.9220  145.7830 N   0  0  0  0  0  0  0  0  0  0  0  0
  192.2810  175.6060  145.0100 C   0  0  0  0  0  0  0  0  0  0  0  0
  193.0150  176.7260  144.5960 C   0  0  0  0  0  3  0  0  0  0  0  0
  194.3440  176.8690  145.0000 C   0  0  0  0  0  3  0  0  0  0  0  0
  194.2420  174.8190  146.1910 C   0  0  0  0  0  3  0  0  0  0  0  0
  192.9100  174.6400  145.8090 C   0  0  0  0  0  3  0  0  0  0  0  0
  1 12  1  0  0  0  0
  2  6  1  0  0  0  0
  3 16  2  0  0  0  0
  5 13  1  0  0  0  0
  6 18  2  0  0  0  0
  7 11  1  0  0  0  0
  7 13  1  0  0  0  0
  8 17  1  0  0  0  0
  9  7  2  0  0  0  0
 10  8  2  0  0  0  0
 10 19  1  0  0  0  0
 11 14  2  0  0  0  0
 12 23  1  0  0  0  0
 12  2  2  0  0  0  0
 13  4  1  0  0  0  0
 14 18  1  0  0  0  0
 14  4  1  0  0  0  0
 15  1  2  0  0  0  0
 16  2  1  0  0  0  0
 16 11  1  0  0  0  0
 17 21  2  0  0  0  0
 19 20  2  0  0  0  0
 20 15  1  0  0  0  0
 21 15  1  0  0  0  0
 21  3  1  0  0  0  0
 22 26  1  0  0  0  0
 23 27  1  0  0  0  0
 24 25  1  0  0  0  0
 24 23  2  0  0  0  0
 25 22  2  0  0  0  0
 27 26  2  0  0  0  0
M  END
>  <MODEL>
2

>  <REMARK>
 VINA RESULT:      -7.9      3.010      6.920
  Name = 
  1 active torsions:
  status: ('A' for Active; 'I' for Inactive)
    1  A    between atoms: C_9  and  C_15
                            x       y       z     vdW  Elec       q    Type
                         _______ _______ _______ _____ _____    ______ ____

>  <TORSDO>
F 1

$$$$
=
 OpenBabel11052418233D

 27 31  0  0  0  0  0  0  0  0999 V2000
  190.8690  175.7010  143.0490 C   0  0  0  0  0  3  0  0  0  0  0  0
  188.3870  175.8180  143.5130 C   0  0  0  0  0  0  0  0  0  0  0  0
  189.4830  176.6260  145.5820 C   0  0  0  0  0  3  0  0  0  0  0  0
  184.9070  177.6350  145.3060 C   0  0  0  0  0  2  0  0  0  0  0  0
  184.9090  178.6660  147.6020 N   0  0  0  0  0  1  0  0  0  0  0  0
  187.1120  175.6560  142.9040 C   0  0  0  0  0  3  0  0  0  0  0  0
  186.9570  177.9160  146.4080 C   0  0  0  0  0  0  0  0  0  0  0  0
  192.8150  175.4110  146.8880 C   0  0  0  0  0  3  0  0  0  0  0  0
  187.7830  178.2400  147.3030 O   0  0  0  0  0  0  0  0  0  0  0  0
  193.8810  175.5800  146.1120 C   0  0  0  0  0  3  0  0  0  0  0  0
  187.2430  177.1380  145.2130 C   0  0  0  0  0  0  0  0  0  0  0  0
  189.4610  175.3090  142.8390 C   0  0  0  0  0  0  0  0  0  0  0  0
  185.5790  178.2510  146.4440 N   0  0  0  0  0  0  0  0  0  0  0  0
  186.0360  176.9750  144.5700 C   0  0  0  0  0  0  0  0  0  0  0  0
  191.5120  176.0420  144.1560 C   0  0  0  0  0  0  0  0  0  0  0  0
  188.4390  176.5520  144.7490 C   0  0  0  0  0  0  0  0  0  0  0  0
  191.4340  175.8370  146.6240 C   0  0  0  0  0  3  0  0  0  0  0  0
  185.9410  176.2160  143.4190 C   0  0  0  0  0  3  0  0  0  0  0  0
  193.9320  176.2180  144.7940 C   0  0  0  0  0  3  0  0  0  0  0  0
  192.9190  176.4080  143.9540 C   0  0  0  0  0  3  0  0  0  0  0  0
  190.8430  176.1130  145.4600 C   0  0  0  0  0  0  0  0  0  0  0  0
  188.9880  172.8450  139.3940 N   0  0  0  0  0  0  0  0  0  0  0  0
  189.2780  174.4410  141.6430 C   0  0  0  0  0  0  0  0  0  0  0  0
  189.8200  173.1490  141.6110 C   0  0  0  0  0  3  0  0  0  0  0  0
  189.6600  172.3590  140.4710 C   0  0  0  0  0  3  0  0  0  0  0  0
  188.4590  174.0980  139.3910 C   0  0  0  0  0  3  0  0  0  0  0  0
  188.5980  174.9190  140.5130 C   0  0  0  0  0  3  0  0  0  0  0  0
  1 15  1  0  0  0  0
  2 16  1  0  0  0  0
  4 13  1  0  0  0  0
  6 18  1  0  0  0  0
  6  2  2  0  0  0  0
  7 13  1  0  0  0  0
  7  9  2  0  0  0  0
 10  8  1  0  0  0  0
 11  7  1  0  0  0  0
 12  1  2  0  0  0  0
 12  2  1  0  0  0  0
 13  5  1  0  0  0  0
 14 11  1  0  0  0  0
 14  4  1  0  0  0  0
 15 21  1  0  0  0  0
 16 11  2  0  0  0  0
 16  3  1  0  0  0  0
 17  8  2  0  0  0  0
 18 14  2  0  0  0  0
 19 10  2  0  0  0  0
 20 15  2  0  0  0  0
 20 19  1  0  0  0  0
 21  3  2  0  0  0  0
 21 17  1  0  0  0  0
 22 25  1  0  0  0  0
 23 12  1  0  0  0  0
 24 23  1  0  0  0  0
 25 24  2  0  0  0  0
 26 22  2  0  0  0  0
 26 27  1  0  0  0  0
 27 23  2  0  0  0  0
M  END
>  <MODEL>
3

>  <REMARK>
 VINA RESULT:      -7.8      1.950      5.830
  Name = 
  1 active torsions:
  status: ('A' for Active; 'I' for Inactive)
    1  A    between atoms: C_9  and  C_15
                            x       y       z     vdW  Elec       q    Type
                         _______ _______ _______ _____ _____    ______ ____

>  <TORSDO>
F 1

$$$$
=
 OpenBabel11052418233D

 27 31  0  0  0  0  0  0  0  0999 V2000
  189.9530  176.1820  145.8200 C   0  0  0  0  0  3  0  0  0  0  0  0
  188.8920  175.7850  143.5610 C   0  0  0  0  0  0  0  0  0  0  0  0
  191.3050  175.3190  143.2480 C   0  0  0  0  0  3  0  0  0  0  0  0
  188.5660  173.6990  139.7960 C   0  0  0  0  0  2  0  0  0  0  0  0
  190.5560  172.8920  138.4830 N   0  0  0  0  0  1  0  0  0  0  0  0
  187.6370  175.7220  142.8930 C   0  0  0  0  0  3  0  0  0  0  0  0
  190.6850  173.7910  140.7970 C   0  0  0  0  0  0  0  0  0  0  0  0
  194.1070  177.0730  145.0780 C   0  0  0  0  0  3  0  0  0  0  0  0
  191.9290  173.6600  140.9420 O   0  0  0  0  0  0  0  0  0  0  0  0
  194.1360  176.9760  146.4040 C   0  0  0  0  0  3  0  0  0  0  0  0
  189.7810  174.4880  141.6980 C   0  0  0  0  0  0  0  0  0  0  0  0
  188.9040  176.3670  144.7970 C   0  0  0  0  0  0  0  0  0  0  0  0
  189.9600  173.2830  139.6880 N   0  0  0  0  0  0  0  0  0  0  0  0
  188.5390  174.4320  141.1050 C   0  0  0  0  0  0  0  0  0  0  0  0
  191.2630  176.0310  145.6940 C   0  0  0  0  0  0  0  0  0  0  0  0
  190.0200  175.1800  142.9040 C   0  0  0  0  0  0  0  0  0  0  0  0
  193.1550  176.4490  144.1510 C   0  0  0  0  0  3  0  0  0  0  0  0
  187.4510  175.0630  141.6770 C   0  0  0  0  0  3  0  0  0  0  0  0
  193.2100  176.2320  147.2630 C   0  0  0  0  0  3  0  0  0  0  0  0
  191.9780  175.8350  146.9610 C   0  0  0  0  0  3  0  0  0  0  0  0
  191.9230  175.9930  144.3840 C   0  0  0  0  0  0  0  0  0  0  0  0
  185.4560  178.4000  146.2580 N   0  0  0  0  0  0  0  0  0  0  0  0
  187.7110  177.0900  145.3190 C   0  0  0  0  0  0  0  0  0  0  0  0
  187.0680  176.6540  146.4850 C   0  0  0  0  0  3  0  0  0  0  0  0
  185.9360  177.3290  146.9440 C   0  0  0  0  0  3  0  0  0  0  0  0
  186.0520  178.8410  145.1180 C   0  0  0  0  0  3  0  0  0  0  0  0
  187.1870  178.1920  144.6260 C   0  0  0  0  0  3  0  0  0  0  0  0
  2 12  1  0  0  0  0
  3 21  2  0  0  0  0
  4 14  1  0  0  0  0
  5 13  1  0  0  0  0
  6  2  2  0  0  0  0
  7  9  2  0  0  0  0
  7 11  1  0  0  0  0
  8 10  1  0  0  0  0
 10 19  2  0  0  0  0
 11 16  2  0  0  0  0
 12 23  1  0  0  0  0
 12  1  2  0  0  0  0
 13  4  1  0  0  0  0
 13  7  1  0  0  0  0
 14 18  2  0  0  0  0
 14 11  1  0  0  0  0
 15  1  1  0  0  0  0
 15 20  2  0  0  0  0
 16  3  1  0  0  0  0
 16  2  1  0  0  0  0
 17 21  1  0  0  0  0
 17  8  2  0  0  0  0
 18  6  1  0  0  0  0
 20 19  1  0  0  0  0
 21 15  1  0  0  0  0
 22 25  1  0  0  0  0
 23 24  1  0  0  0  0
 24 25  2  0  0  0  0
 26 22  2  0  0  0  0
 27 26  1  0  0  0  0
 27 23  2  0  0  0  0
M  END
>  <MODEL>
4

>  <REMARK>
 VINA RESULT:      -7.8      0.969      1.520
  Name = 
  1 active torsions:
  status: ('A' for Active; 'I' for Inactive)
    1  A    between atoms: C_9  and  C_15
                            x       y       z     vdW  Elec       q    Type
                         _______ _______ _______ _____ _____    ______ ____

>  <TORSDO>
F 1

$$$$
=
 OpenBabel11052418233D

 27 31  0  0  0  0  0  0  0  0999 V2000
  187.7390  176.5700  142.8850 C   0  0  0  0  0  3  0  0  0  0  0  0
  189.0920  176.6330  145.0190 C   0  0  0  0  0  0  0  0  0  0  0  0
  190.3640  175.1710  143.4760 C   0  0  0  0  0  3  0  0  0  0  0  0
  192.8220  176.6530  147.1910 C   0  0  0  0  0  2  0  0  0  0  0  0
  194.8270  175.2910  146.5130 N   0  0  0  0  0  1  0  0  0  0  0  0
  189.1620  177.2530  146.2980 C   0  0  0  0  0  3  0  0  0  0  0  0
  192.7900  175.5650  145.1130 C   0  0  0  0  0  0  0  0  0  0  0  0
  188.8250  172.9190  140.8610 C   0  0  0  0  0  3  0  0  0  0  0  0
  193.1780  174.8650  144.1410 O   0  0  0  0  0  0  0  0  0  0  0  0
  188.0900  173.4870  139.9100 C   0  0  0  0  0  3  0  0  0  0  0  0
  191.4520  176.1000  145.3110 C   0  0  0  0  0  0  0  0  0  0  0  0
  187.9130  176.7550  144.3390 C   0  0  0  0  0  0  0  0  0  0  0  0
  193.6190  175.9290  146.2070 N   0  0  0  0  0  0  0  0  0  0  0  0
  191.4760  176.7370  146.5320 C   0  0  0  0  0  0  0  0  0  0  0  0
  188.3300  175.7300  142.0470 C   0  0  0  0  0  0  0  0  0  0  0  0
  190.2820  175.9880  144.5320 C   0  0  0  0  0  0  0  0  0  0  0  0
  189.5560  173.5800  141.9490 C   0  0  0  0  0  3  0  0  0  0  0  0
  190.3320  177.3050  147.0590 C   0  0  0  0  0  3  0  0  0  0  0  0
  187.8170  174.9160  139.7300 C   0  0  0  0  0  3  0  0  0  0  0  0
  187.9120  175.8740  140.6470 C   0  0  0  0  0  3  0  0  0  0  0  0
  189.3660  174.7880  142.4840 C   0  0  0  0  0  0  0  0  0  0  0  0
  184.4090  178.3370  146.1790 N   0  0  0  0  0  0  0  0  0  0  0  0
  186.7000  177.3160  144.9970 C   0  0  0  0  0  0  0  0  0  0  0  0
  185.9780  176.5550  145.9250 C   0  0  0  0  0  3  0  0  0  0  0  0
  184.8290  177.0880  146.5130 C   0  0  0  0  0  3  0  0  0  0  0  0
  185.0830  179.0960  145.2730 C   0  0  0  0  0  3  0  0  0  0  0  0
  186.2370  178.5980  144.6640 C   0  0  0  0  0  3  0  0  0  0  0  0
  1 12  1  0  0  0  0
  2  6  1  0  0  0  0
  3 16  2  0  0  0  0
  6 18  2  0  0  0  0
  7 11  1  0  0  0  0
  7 13  1  0  0  0  0
  8 17  1  0  0  0  0
  9  7  2  0  0  0  0
 10  8  2  0  0  0  0
 11 14  2  0  0  0  0
 12 23  1  0  0  0  0
 12  2  2  0  0  0  0
 13  5  1  0  0  0  0
 13  4  1  0  0  0  0
 14 18  1  0  0  0  0
 14  4  1  0  0  0  0
 15 21  1  0  0  0  0
 15  1  2  0  0  0  0
 16  2  1  0  0  0  0
 16 11  1  0  0  0  0
 17 21  2  0  0  0  0
 19 10  1  0  0  0  0
 19 20  2  0  0  0  0
 20 15  1  0  0  0  0
 21  3  1  0  0  0  0
 22 25  1  0  0  0  0
 23 24  1  0  0  0  0
 24 25  2  0  0  0  0
 26 22  2  0  0  0  0
 27 23  2  0  0  0  0
 27 26  1  0  0  0  0
M  END
>  <MODEL>
5

>  <REMARK>
 VINA RESULT:      -7.7      2.514      5.345
  Name = 
  1 active torsions:
  status: ('A' for Active; 'I' for Inactive)
    1  A    between atoms: C_9  and  C_15
                            x       y       z     vdW  Elec       q    Type
                         _______ _______ _______ _____ _____    ______ ____

>  <TORSDO>
F 1

$$$$
=
 OpenBabel11052418233D

 27 31  0  0  0  0  0  0  0  0999 V2000
  186.6560  176.6190  144.1230 C   0  0  0  0  0  3  0  0  0  0  0  0
  189.1280  176.6570  143.5970 C   0  0  0  0  0  0  0  0  0  0  0  0
  188.9610  177.1630  146.0160 C   0  0  0  0  0  3  0  0  0  0  0  0
  193.2670  175.9510  144.5940 C   0  0  0  0  0  2  0  0  0  0  0  0
  194.2270  176.3440  146.8880 N   0  0  0  0  0  1  0  0  0  0  0  0
  190.0700  176.4000  142.5630 C   0  0  0  0  0  3  0  0  0  0  0  0
  191.7980  176.4160  146.3610 C   0  0  0  0  0  0  0  0  0  0  0  0
  186.1210  179.0500  147.6460 C   0  0  0  0  0  3  0  0  0  0  0  0
  191.3960  176.6720  147.5270 O   0  0  0  0  0  0  0  0  0  0  0  0
  184.8990  178.5360  147.5450 C   0  0  0  0  0  3  0  0  0  0  0  0
  190.9920  176.4280  145.1500 C   0  0  0  0  0  0  0  0  0  0  0  0
  187.8180  176.7660  143.2240 C   0  0  0  0  0  0  0  0  0  0  0  0
  193.1410  176.0900  146.0400 N   0  0  0  0  0  0  0  0  0  0  0  0
  191.8600  176.1560  144.1160 C   0  0  0  0  0  0  0  0  0  0  0  0
  186.4980  176.9690  145.3910 C   0  0  0  0  0  0  0  0  0  0  0  0
  189.6280  176.7210  144.9440 C   0  0  0  0  0  0  0  0  0  0  0  0
  187.3790  178.4850  147.1410 C   0  0  0  0  0  3  0  0  0  0  0  0
  191.4240  176.1570  142.8050 C   0  0  0  0  0  3  0  0  0  0  0  0
  184.5100  177.2850  146.8880 C   0  0  0  0  0  3  0  0  0  0  0  0
  185.1910  176.6190  145.9610 C   0  0  0  0  0  3  0  0  0  0  0  0
  187.5750  177.5900  146.1710 C   0  0  0  0  0  0  0  0  0  0  0  0
  186.6570  176.9200  139.1260 N   0  0  0  0  0  0  0  0  0  0  0  0
  187.4300  176.8300  141.7870 C   0  0  0  0  0  0  0  0  0  0  0  0
  186.6340  177.8810  141.3120 C   0  0  0  0  0  3  0  0  0  0  0  0
  186.2600  177.9110  139.9670 C   0  0  0  0  0  3  0  0  0  0  0  0
  187.4200  175.8810  139.5610 C   0  0  0  0  0  3  0  0  0  0  0  0
  187.8160  175.8160  140.8990 C   0  0  0  0  0  3  0  0  0  0  0  0
  1 15  1  0  0  0  0
  2 16  1  0  0  0  0
  3 21  2  0  0  0  0
  4 13  1  0  0  0  0
  6 18  1  0  0  0  0
  6  2  2  0  0  0  0
  7  9  2  0  0  0  0
 10  8  1  0  0  0  0
 11  7  1  0  0  0  0
 12  2  1  0  0  0  0
 12  1  2  0  0  0  0
 13  7  1  0  0  0  0
 13  5  1  0  0  0  0
 14  4  1  0  0  0  0
 14 11  1  0  0  0  0
 15 20  2  0  0  0  0
 15 21  1  0  0  0  0
 16 11  2  0  0  0  0
 16  3  1  0  0  0  0
 17  8  2  0  0  0  0
 18 14  2  0  0  0  0
 19 10  2  0  0  0  0
 20 19  1  0  0  0  0
 21 17  1  0  0  0  0
 22 26  2  0  0  0  0
 22 25  1  0  0  0  0
 23 12  1  0  0  0  0
 24 23  1  0  0  0  0
 25 24  2  0  0  0  0
 26 27  1  0  0  0  0
 27 23  2  0  0  0  0
M  END
>  <MODEL>
6

>  <REMARK>
 VINA RESULT:      -7.7      3.048      5.554
  Name = 
  1 active torsions:
  status: ('A' for Active; 'I' for Inactive)
    1  A    between atoms: C_9  and  C_15
                            x       y       z     vdW  Elec       q    Type
                         _______ _______ _______ _____ _____    ______ ____

>  <TORSDO>
F 1

$$$$
=
 OpenBabel11052418233D

 27 31  0  0  0  0  0  0  0  0999 V2000
  188.7500  175.3510  144.7270 C   0  0  0  0  0  3  0  0  0  0  0  0
  188.9570  174.5150  142.3510 C   0  0  0  0  0  0  0  0  0  0  0  0
  190.8780  173.5300  143.5670 C   0  0  0  0  0  3  0  0  0  0  0  0
  189.9830  171.5150  139.4220 C   0  0  0  0  0  2  0  0  0  0  0  0
  191.9780  169.9960  139.6350 N   0  0  0  0  0  1  0  0  0  0  0  0
  188.2920  174.4980  141.0940 C   0  0  0  0  0  3  0  0  0  0  0  0
  191.1680  171.4950  141.4460 C   0  0  0  0  0  0  0  0  0  0  0  0
  192.7090  175.1810  146.4310 C   0  0  0  0  0  3  0  0  0  0  0  0
  192.0340  171.1790  142.3040 O   0  0  0  0  0  0  0  0  0  0  0  0
  192.0120  175.4740  147.5240 C   0  0  0  0  0  3  0  0  0  0  0  0
  190.2090  172.5840  141.5490 C   0  0  0  0  0  0  0  0  0  0  0  0
  188.5120  175.4220  143.2720 C   0  0  0  0  0  0  0  0  0  0  0  0
  191.0070  170.8300  140.2030 N   0  0  0  0  0  0  0  0  0  0  0  0
  189.5170  172.5920  140.3580 C   0  0  0  0  0  0  0  0  0  0  0  0
  189.8030  174.9240  145.4090 C   0  0  0  0  0  0  0  0  0  0  0  0
  189.9950  173.5420  142.5620 C   0  0  0  0  0  0  0  0  0  0  0  0
  192.2360  174.5040  145.2160 C   0  0  0  0  0  3  0  0  0  0  0  0
  188.5640  173.5580  140.0980 C   0  0  0  0  0  3  0  0  0  0  0  0
  190.5920  175.2060  147.7740 C   0  0  0  0  0  3  0  0  0  0  0  0
  189.6460  174.9780  146.8680 C   0  0  0  0  0  3  0  0  0  0  0  0
  190.9930  174.3780  144.7480 C   0  0  0  0  0  0  0  0  0  0  0  0
  185.7150  178.4720  142.2570 N   0  0  0  0  0  0  0  0  0  0  0  0
  187.5320  176.4790  142.8990 C   0  0  0  0  0  0  0  0  0  0  0  0
  187.9650  177.6730  142.3060 C   0  0  0  0  0  3  0  0  0  0  0  0
  187.0340  178.6630  141.9870 C   0  0  0  0  0  3  0  0  0  0  0  0
  185.2660  177.3290  142.8410 C   0  0  0  0  0  3  0  0  0  0  0  0
  186.1670  176.3140  143.1760 C   0  0  0  0  0  3  0  0  0  0  0  0
  1 15  1  0  0  0  0
  2 16  1  0  0  0  0
  2 12  1  0  0  0  0
  3 21  2  0  0  0  0
  4 13  1  0  0  0  0
  4 14  1  0  0  0  0
  5 13  1  0  0  0  0
  6  2  2  0  0  0  0
  7 11  1  0  0  0  0
  7  9  2  0  0  0  0
  8 10  1  0  0  0  0
 10 19  2  0  0  0  0
 11 16  2  0  0  0  0
 12  1  2  0  0  0  0
 13  7  1  0  0  0  0
 14 11  1  0  0  0  0
 15 20  2  0  0  0  0
 16  3  1  0  0  0  0
 17  8  2  0  0  0  0
 18 14  2  0  0  0  0
 18  6  1  0  0  0  0
 20 19  1  0  0  0  0
 21 17  1  0  0  0  0
 21 15  1  0  0  0  0
 22 26  1  0  0  0  0
 23 27  1  0  0  0  0
 23 12  1  0  0  0  0
 24 23  2  0  0  0  0
 25 22  2  0  0  0  0
 25 24  1  0  0  0  0
 26 27  2  0  0  0  0
M  END
>  <MODEL>
7

>  <REMARK>
 VINA RESULT:      -7.5      1.988      2.502
  Name = 
  1 active torsions:
  status: ('A' for Active; 'I' for Inactive)
    1  A    between atoms: C_9  and  C_15
                            x       y       z     vdW  Elec       q    Type
                         _______ _______ _______ _____ _____    ______ ____

>  <TORSDO>
F 1

$$$$
=
 OpenBabel11052418233D

 27 31  0  0  0  0  0  0  0  0999 V2000
  191.0250  173.7190  143.0500 C   0  0  0  0  0  3  0  0  0  0  0  0
  190.1330  175.7170  144.3150 C   0  0  0  0  0  0  0  0  0  0  0  0
  188.3820  175.1510  142.6560 C   0  0  0  0  0  3  0  0  0  0  0  0
  186.9370  178.0160  146.0840 C   0  0  0  0  0  2  0  0  0  0  0  0
  184.6560  178.2450  145.0450 N   0  0  0  0  0  1  0  0  0  0  0  0
  190.4050  176.5720  145.4180 C   0  0  0  0  0  3  0  0  0  0  0  0
  186.4030  176.6720  144.2380 C   0  0  0  0  0  0  0  0  0  0  0  0
  189.0300  173.7060  139.2250 C   0  0  0  0  0  3  0  0  0  0  0  0
  185.7340  176.1710  143.2950 O   0  0  0  0  0  0  0  0  0  0  0  0
  189.6460  172.5300  139.1560 C   0  0  0  0  0  3  0  0  0  0  0  0
  187.8200  176.4630  144.4940 C   0  0  0  0  0  0  0  0  0  0  0  0
  191.1640  174.9380  143.8700 C   0  0  0  0  0  0  0  0  0  0  0  0
  185.8650  177.5580  145.2060 N   0  0  0  0  0  0  0  0  0  0  0  0
  188.1280  177.2550  145.5780 C   0  0  0  0  0  0  0  0  0  0  0  0
  190.1640  173.4220  142.0870 C   0  0  0  0  0  0  0  0  0  0  0  0
  188.7880  175.7050  143.8050 C   0  0  0  0  0  0  0  0  0  0  0  0
  188.6300  174.4430  140.4320 C   0  0  0  0  0  3  0  0  0  0  0  0
  189.4250  177.3430  146.0470 C   0  0  0  0  0  3  0  0  0  0  0  0
  190.0930  171.6910  140.2720 C   0  0  0  0  0  3  0  0  0  0  0  0
  190.3220  172.0750  141.5240 C   0  0  0  0  0  3  0  0  0  0  0  0
  189.1010  174.3450  141.6760 C   0  0  0  0  0  0  0  0  0  0  0  0
  195.1140  175.5530  145.3470 N   0  0  0  0  0  0  0  0  0  0  0  0
  192.5520  175.1370  144.3740 C   0  0  0  0  0  0  0  0  0  0  0  0
  192.9850  174.4900  145.5390 C   0  0  0  0  0  3  0  0  0  0  0  0
  194.2800  174.7090  146.0110 C   0  0  0  0  0  3  0  0  0  0  0  0
  194.7190  176.2040  144.2200 C   0  0  0  0  0  3  0  0  0  0  0  0
  193.4300  176.0110  143.7160 C   0  0  0  0  0  3  0  0  0  0  0  0
  1 12  1  0  0  0  0
  2  6  1  0  0  0  0
  3 16  2  0  0  0  0
  5 13  1  0  0  0  0
  6 18  2  0  0  0  0
  7 11  1  0  0  0  0
  7 13  1  0  0  0  0
  8 17  1  0  0  0  0
  9  7  2  0  0  0  0
 10  8  2  0  0  0  0
 10 19  1  0  0  0  0
 11 14  2  0  0  0  0
 12  2  2  0  0  0  0
 12 23  1  0  0  0  0
 13  4  1  0  0  0  0
 14 18  1  0  0  0  0
 14  4  1  0  0  0  0
 15  1  2  0  0  0  0
 16  2  1  0  0  0  0
 16 11  1  0  0  0  0
 17 21  2  0  0  0  0
 19 20  2  0  0  0  0
 20 15  1  0  0  0  0
 21 15  1  0  0  0  0
 21  3  1  0  0  0  0
 22 25  1  0  0  0  0
 23 24  1  0  0  0  0
 24 25  2  0  0  0  0
 26 22  2  0  0  0  0
 27 26  1  0  0  0  0
 27 23  2  0  0  0  0
M  END
>  <MODEL>
8

>  <REMARK>
 VINA RESULT:      -7.3      2.954      6.921
  Name = 
  1 active torsions:
  status: ('A' for Active; 'I' for Inactive)
    1  A    between atoms: C_9  and  C_15
                            x       y       z     vdW  Elec       q    Type
                         _______ _______ _______ _____ _____    ______ ____

>  <TORSDO>
F 1

$$$$
=
 OpenBabel11052418233D

 27 31  0  0  0  0  0  0  0  0999 V2000
  188.1580  177.5530  144.3210 C   0  0  0  0  0  3  0  0  0  0  0  0
  189.0620  175.4960  143.1630 C   0  0  0  0  0  0  0  0  0  0  0  0
  187.1990  176.2910  141.7370 C   0  0  0  0  0  3  0  0  0  0  0  0
  190.0520  173.2070  139.6400 C   0  0  0  0  0  2  0  0  0  0  0  0
  188.6340  173.1810  137.5610 N   0  0  0  0  0  1  0  0  0  0  0  0
  190.1080  174.5340  143.2160 C   0  0  0  0  0  3  0  0  0  0  0  0
  188.2800  174.7340  139.4710 C   0  0  0  0  0  0  0  0  0  0  0  0
  184.0750  178.0010  143.0010 C   0  0  0  0  0  3  0  0  0  0  0  0
  187.2920  175.3480  138.9870 O   0  0  0  0  0  0  0  0  0  0  0  0
  184.2210  179.1470  143.6590 C   0  0  0  0  0  3  0  0  0  0  0  0
  188.7850  174.8500  140.8290 C   0  0  0  0  0  0  0  0  0  0  0  0
  188.8700  176.2610  144.2800 C   0  0  0  0  0  0  0  0  0  0  0  0
  189.0570  173.7920  138.7480 N   0  0  0  0  0  0  0  0  0  0  0  0
  189.8250  173.9510  140.9240 C   0  0  0  0  0  0  0  0  0  0  0  0
  187.0990  177.9750  143.6450 C   0  0  0  0  0  0  0  0  0  0  0  0
  188.3410  175.6190  141.9250 C   0  0  0  0  0  0  0  0  0  0  0  0
  185.1240  177.1800  142.3800 C   0  0  0  0  0  3  0  0  0  0  0  0
  190.4910  173.7590  142.1190 C   0  0  0  0  0  3  0  0  0  0  0  0
  185.4700  179.8610  143.9380 C   0  0  0  0  0  3  0  0  0  0  0  0
  186.7010  179.3570  143.9400 C   0  0  0  0  0  3  0  0  0  0  0  0
  186.4320  177.1440  142.6370 C   0  0  0  0  0  0  0  0  0  0  0  0
  190.8540  175.4140  147.9550 N   0  0  0  0  0  0  0  0  0  0  0  0
  189.5750  175.9500  145.5550 C   0  0  0  0  0  0  0  0  0  0  0  0
  189.0410  175.0160  146.4530 C   0  0  0  0  0  3  0  0  0  0  0  0
  189.7030  174.7560  147.6540 C   0  0  0  0  0  3  0  0  0  0  0  0
  191.3900  176.3340  147.1090 C   0  0  0  0  0  3  0  0  0  0  0  0
  190.7580  176.6210  145.8960 C   0  0  0  0  0  3  0  0  0  0  0  0
  2  6  1  0  0  0  0
  2 12  2  0  0  0  0
  3 16  2  0  0  0  0
  3 21  1  0  0  0  0
  4 14  1  0  0  0  0
  5 13  1  0  0  0  0
  7 11  1  0  0  0  0
  8 10  2  0  0  0  0
  9  7  2  0  0  0  0
 10 19  1  0  0  0  0
 11 14  2  0  0  0  0
 11 16  1  0  0  0  0
 12  1  1  0  0  0  0
 12 23  1  0  0  0  0
 13  7  1  0  0  0  0
 13  4  1  0  0  0  0
 14 18  1  0  0  0  0
 15 20  1  0  0  0  0
 15  1  2  0  0  0  0
 16  2  1  0  0  0  0
 17 21  2  0  0  0  0
 17  8  1  0  0  0  0
 18  6  2  0  0  0  0
 19 20  2  0  0  0  0
 21 15  1  0  0  0  0
 23 27  2  0  0  0  0
 23 24  1  0  0  0  0
 24 25  2  0  0  0  0
 25 22  1  0  0  0  0
 26 22  2  0  0  0  0
 27 26  1  0  0  0  0
M  END
>  <MODEL>
9

>  <REMARK>
 VINA RESULT:      -7.3      2.190      5.158
  Name = 
  1 active torsions:
  status: ('A' for Active; 'I' for Inactive)
    1  A    between atoms: C_9  and  C_15
                            x       y       z     vdW  Elec       q    Type
                         _______ _______ _______ _____ _____    ______ ____

>  <TORSDO>
F 1

$$$$
