=
 OpenBabel11052420503D

 43 47  0  0  1  0  0  0  0  0999 V2000
  184.8950  178.2280  145.9570 C   0  0  0  0  0  0  0  0  0  0  0  0
  189.2410  176.4080  144.1210 C   0  0  0  0  0  0  0  0  0  0  0  0
  190.5650  174.8470  146.0600 C   0  0  1  0  0  3  0  0  0  0  0  0
  186.8160  177.7520  144.5610 C   0  0  0  0  0  0  0  0  0  0  0  0
  185.4030  177.3870  146.9500 C   0  0  0  0  0  3  0  0  0  0  0  0
  183.6870  178.8830  146.1550 O   0  0  0  0  0  1  0  0  0  0  0  0
  187.3420  176.9040  145.5640 C   0  0  0  0  0  0  0  0  0  0  0  0
  185.5990  178.4100  144.7660 C   0  0  0  0  0  3  0  0  0  0  0  0
  186.6190  176.7280  146.7560 C   0  0  0  0  0  3  0  0  0  0  0  0
  189.1850  175.3980  146.4340 C   0  0  0  0  0  2  0  0  0  0  0  0
  188.5780  176.2550  145.3540 C   0  0  0  0  0  0  0  0  0  0  0  0
  188.7170  177.2730  143.1490 C   0  0  0  0  0  3  0  0  0  0  0  0
  190.5770  175.7280  143.9140 C   0  0  1  0  0  3  0  0  0  0  0  0
  190.7000  174.5480  144.6820 O   0  0  0  0  0  0  0  0  0  0  0  0
  187.5090  177.9370  143.3660 C   0  0  0  0  0  3  0  0  0  0  0  0
  191.7590  175.5780  146.6950 C   0  0  1  0  0  3  0  0  0  0  0  0
  191.4070  175.9630  148.1250 C   0  0  0  0  0  1  0  0  0  0  0  0
  192.9770  174.7710  146.6580 N   0  0  0  0  0  2  0  0  0  0  0  0
  193.8770  175.3240  145.6510 C   0  0  1  0  0  3  0  0  0  0  0  0
  193.9880  176.8260  145.8470 C   0  0  0  0  0  1  0  0  0  0  0  0
  195.2740  174.7200  145.7910 C   0  0  0  0  0  2  0  0  0  0  0  0
  195.5800  173.6300  144.7610 C   0  0  1  0  0  3  0  0  0  0  0  0
  194.5570  171.3500  143.5180 C   0  0  0  0  0  2  0  0  0  0  0  0
  195.3460  172.2540  145.4010 C   0  0  0  0  0  2  0  0  0  0  0  0
  194.7860  173.8070  143.5170 N   0  0  0  0  0  0  0  0  0  0  0  0
  194.8090  172.5970  142.6820 C   0  0  0  0  0  2  0  0  0  0  0  0
  195.5780  171.2330  144.4700 O   0  0  0  0  0  0  0  0  0  0  0  0
  195.3110  174.8810  142.6580 C   0  0  0  0  0  3  0  0  0  0  0  0
  194.4700  175.2080  141.4140 C   0  0  0  0  0  2  0  0  0  0  0  0
  194.6320  175.3910  139.0420 O   0  0  0  0  0  1  0  0  0  0  0  0
  195.3640  175.5100  140.2230 C   0  0  0  0  0  2  0  0  0  0  0  0
  196.8230  174.7830  142.4290 C   0  0  0  0  0  2  0  0  0  0  0  0
  196.7100  176.9480  143.4190 O   0  0  0  0  0  1  0  0  0  0  0  0
  197.5960  175.9340  143.0550 C   0  0  0  0  0  2  0  0  0  0  0  0
  190.8830  175.4260  142.4420 C   0  0  0  0  0  2  0  0  0  0  0  0
  191.4680  173.3490  139.8430 C   0  0  0  0  0  2  0  0  0  0  0  0
  189.8420  172.8980  139.1740 P   0  0  1  0  0  0  0  0  0  0  0  0
  189.4980  173.8270  137.8040 O   0  0  0  0  0  0  0  0  0  0  0  0
  189.1160  174.3620  141.0380 C   0  0  0  0  0  2  0  0  0  0  0  0
  191.3920  173.2090  141.3590 C   0  0  0  0  0  2  0  0  0  0  0  0
  190.2960  174.0950  141.9860 C   0  0  1  0  0  3  0  0  0  0  0  0
  189.8340  171.4290  138.8120 O   0  0  0  0  0  1  0  0  0  0  0  0
  188.6910  173.1920  140.3900 O   0  0  0  0  0  0  0  0  0  0  0  0
  1  6  1  0  0  0  0
  1  5  1  0  0  0  0
  2 11  1  0  0  0  0
  3 10  1  0  0  0  0
  3 16  1  6  0  0  0
  4  8  1  0  0  0  0
  4  7  1  0  0  0  0
  7  9  1  0  0  0  0
  8  1  2  0  0  0  0
  9  5  2  0  0  0  0
 11  7  2  0  0  0  0
 11 10  1  0  0  0  0
 12 15  1  0  0  0  0
 12  2  2  0  0  0  0
 13 35  1  6  0  0  0
 13  2  1  0  0  0  0
 13 14  1  0  0  0  0
 14  3  1  0  0  0  0
 15  4  2  0  0  0  0
 16 17  1  1  0  0  0
 18 16  1  0  0  0  0
 19 21  1  0  0  0  0
 19 20  1  1  0  0  0
 19 18  1  0  0  0  0
 22 24  1  0  0  0  0
 22 21  1  1  0  0  0
 23 27  1  0  0  0  0
 25 22  1  0  0  0  0
 26 25  1  0  0  0  0
 26 23  1  0  0  0  0
 27 24  1  0  0  0  0
 28 25  1  0  0  0  0
 29 28  1  0  0  0  0
 30 31  1  0  0  0  0
 31 29  1  0  0  0  0
 32 28  1  0  0  0  0
 32 34  1  0  0  0  0
 34 33  1  0  0  0  0
 36 40  1  0  0  0  0
 37 38  2  6  0  0  0
 37 36  1  0  0  0  0
 37 43  1  0  0  0  0
 39 41  1  0  0  0  0
 40 41  1  0  0  0  0
 41 35  1  6  0  0  0
 42 37  1  0  0  0  0
 43 39  1  0  0  0  0
M  END
>  <MODEL>
1

>  <REMARK>
 VINA RESULT:      -7.4      0.000      0.000
  Name = 
  12 active torsions:
  status: ('A' for Active; 'I' for Inactive)
    1  A    between atoms: C_1  and  C_34
    2  A    between atoms: C_1  and  C_35
    3  A    between atoms: C_2  and  N_6
    4  A    between atoms: C_2  and  C_13
    5  A    between atoms: C_3  and  C_4
    6  A    between atoms: C_3  and  C_12
    7  A    between atoms: N_6  and  C_12
    8  A    between atoms: C_11  and  C_14
    9  A    between atoms: C_11  and  C_36
   10  A    between atoms: C_14  and  N_22
   11  A    between atoms: C_14  and  C_40
   12  A    between atoms: C_31  and  C_40
                            x       y       z     vdW  Elec       q    Type
                         _______ _______ _______ _____ _____    ______ ____

>  <TORSDO>
F 12

$$$$
=
 OpenBabel11052420503D

 43 47  0  0  1  0  0  0  0  0999 V2000
  184.7860  178.2470  145.6500 C   0  0  0  0  0  0  0  0  0  0  0  0
  189.1960  176.4160  143.9840 C   0  0  0  0  0  0  0  0  0  0  0  0
  190.3830  174.7560  145.9300 C   0  0  1  0  0  3  0  0  0  0  0  0
  186.7740  177.7890  144.3440 C   0  0  0  0  0  0  0  0  0  0  0  0
  185.2240  177.3590  146.6350 C   0  0  0  0  0  3  0  0  0  0  0  0
  183.5810  178.9180  145.8070 O   0  0  0  0  0  1  0  0  0  0  0  0
  187.2290  176.8920  145.3400 C   0  0  0  0  0  0  0  0  0  0  0  0
  185.5590  178.4620  144.5070 C   0  0  0  0  0  3  0  0  0  0  0  0
  186.4380  176.6840  146.4820 C   0  0  0  0  0  3  0  0  0  0  0  0
  188.9940  175.3190  146.2490 C   0  0  0  0  0  2  0  0  0  0  0  0
  188.4630  176.2290  145.1730 C   0  0  0  0  0  0  0  0  0  0  0  0
  188.7420  177.3290  143.0210 C   0  0  0  0  0  3  0  0  0  0  0  0
  190.5300  175.7190  143.8240 C   0  0  1  0  0  3  0  0  0  0  0  0
  190.5900  174.5080  144.5510 O   0  0  0  0  0  0  0  0  0  0  0  0
  187.5360  178.0070  143.1970 C   0  0  0  0  0  3  0  0  0  0  0  0
  191.5520  175.4380  146.6580 C   0  0  1  0  0  3  0  0  0  0  0  0
  191.2490  175.4930  148.1490 C   0  0  0  0  0  1  0  0  0  0  0  0
  192.8220  174.7590  146.4100 N   0  0  0  0  0  2  0  0  0  0  0  0
  193.6910  175.6500  145.6470 C   0  0  1  0  0  3  0  0  0  0  0  0
  194.3330  176.6540  146.5880 C   0  0  0  0  0  1  0  0  0  0  0  0
  194.8030  174.8580  144.9620 C   0  0  0  0  0  2  0  0  0  0  0  0
  194.5380  174.5780  143.4810 C   0  0  1  0  0  3  0  0  0  0  0  0
  195.5290  174.9580  140.9000 C   0  0  0  0  0  2  0  0  0  0  0  0
  194.6030  175.8990  142.7010 C   0  0  0  0  0  2  0  0  0  0  0  0
  195.4730  173.5620  142.9340 N   0  0  0  0  0  0  0  0  0  0  0  0
  195.4580  173.5450  141.4640 C   0  0  0  0  0  2  0  0  0  0  0  0
  194.4050  175.6730  141.3320 O   0  0  0  0  0  0  0  0  0  0  0  0
  195.1220  172.1910  143.3400 C   0  0  0  0  0  3  0  0  0  0  0  0
  193.7700  172.0360  144.0550 C   0  0  0  0  0  2  0  0  0  0  0  0
  193.1440  169.7690  144.4510 O   0  0  0  0  0  1  0  0  0  0  0  0
  193.8010  170.8610  145.0170 C   0  0  0  0  0  2  0  0  0  0  0  0
  196.2940  171.4300  143.9670 C   0  0  0  0  0  2  0  0  0  0  0  0
  197.0890  172.3900  145.9970 O   0  0  0  0  0  1  0  0  0  0  0  0
  197.3180  172.3440  144.6210 C   0  0  0  0  0  2  0  0  0  0  0  0
  190.9130  175.4690  142.3610 C   0  0  0  0  0  2  0  0  0  0  0  0
  191.7620  173.5480  139.7150 C   0  0  0  0  0  2  0  0  0  0  0  0
  190.2110  172.8660  139.0620 P   0  0  1  0  0  0  0  0  0  0  0  0
  189.7060  173.7530  137.7150 O   0  0  0  0  0  0  0  0  0  0  0  0
  189.3040  174.1710  140.9630 C   0  0  0  0  0  2  0  0  0  0  0  0
  191.7340  173.3740  141.2290 C   0  0  0  0  0  2  0  0  0  0  0  0
  190.5280  174.0720  141.8890 C   0  0  1  0  0  3  0  0  0  0  0  0
  190.4210  171.4180  138.6730 O   0  0  0  0  0  1  0  0  0  0  0  0
  189.0510  172.9600  140.3010 O   0  0  0  0  0  0  0  0  0  0  0  0
  1  6  1  0  0  0  0
  1  5  1  0  0  0  0
  2 11  1  0  0  0  0
  3 10  1  0  0  0  0
  3 16  1  6  0  0  0
  4  8  1  0  0  0  0
  4  7  1  0  0  0  0
  7  9  1  0  0  0  0
  8  1  2  0  0  0  0
  9  5  2  0  0  0  0
 11  7  2  0  0  0  0
 11 10  1  0  0  0  0
 12 15  1  0  0  0  0
 12  2  2  0  0  0  0
 13 35  1  6  0  0  0
 13  2  1  0  0  0  0
 13 14  1  0  0  0  0
 14  3  1  0  0  0  0
 15  4  2  0  0  0  0
 16 17  1  1  0  0  0
 18 16  1  0  0  0  0
 19 18  1  0  0  0  0
 19 20  1  1  0  0  0
 21 19  1  0  0  0  0
 22 21  1  1  0  0  0
 23 27  1  0  0  0  0
 23 26  1  0  0  0  0
 24 22  1  0  0  0  0
 25 28  1  0  0  0  0
 25 22  1  0  0  0  0
 26 25  1  0  0  0  0
 27 24  1  0  0  0  0
 28 32  1  0  0  0  0
 28 29  1  0  0  0  0
 29 31  1  0  0  0  0
 30 31  1  0  0  0  0
 32 34  1  0  0  0  0
 34 33  1  0  0  0  0
 36 40  1  0  0  0  0
 37 38  2  6  0  0  0
 37 36  1  0  0  0  0
 37 43  1  0  0  0  0
 39 41  1  0  0  0  0
 40 41  1  0  0  0  0
 41 35  1  6  0  0  0
 42 37  1  0  0  0  0
 43 39  1  0  0  0  0
M  END
>  <MODEL>
2

>  <REMARK>
 VINA RESULT:      -7.2      1.101      2.537
  Name = 
  12 active torsions:
  status: ('A' for Active; 'I' for Inactive)
    1  A    between atoms: C_1  and  C_34
    2  A    between atoms: C_1  and  C_35
    3  A    between atoms: C_2  and  N_6
    4  A    between atoms: C_2  and  C_13
    5  A    between atoms: C_3  and  C_4
    6  A    between atoms: C_3  and  C_12
    7  A    between atoms: N_6  and  C_12
    8  A    between atoms: C_11  and  C_14
    9  A    between atoms: C_11  and  C_36
   10  A    between atoms: C_14  and  N_22
   11  A    between atoms: C_14  and  C_40
   12  A    between atoms: C_31  and  C_40
                            x       y       z     vdW  Elec       q    Type
                         _______ _______ _______ _____ _____    ______ ____

>  <TORSDO>
F 12

$$$$
=
 OpenBabel11052420503D

 43 47  0  0  1  0  0  0  0  0999 V2000
  184.6760  178.3360  145.7680 C   0  0  0  0  0  0  0  0  0  0  0  0
  189.0430  176.4450  144.0570 C   0  0  0  0  0  0  0  0  0  0  0  0
  190.3220  174.9240  146.0570 C   0  0  1  0  0  3  0  0  0  0  0  0
  186.6190  177.8150  144.4200 C   0  0  0  0  0  0  0  0  0  0  0  0
  185.1610  177.5160  146.7910 C   0  0  0  0  0  3  0  0  0  0  0  0
  183.4690  179.0030  145.9280 O   0  0  0  0  0  1  0  0  0  0  0  0
  187.1220  176.9880  145.4530 C   0  0  0  0  0  0  0  0  0  0  0  0
  185.4040  178.4850  144.5860 C   0  0  0  0  0  3  0  0  0  0  0  0
  186.3760  176.8450  146.6350 C   0  0  0  0  0  3  0  0  0  0  0  0
  188.9390  175.4930  146.3930 C   0  0  0  0  0  2  0  0  0  0  0  0
  188.3570  176.3270  145.2810 C   0  0  0  0  0  0  0  0  0  0  0  0
  188.5430  177.2900  143.0550 C   0  0  0  0  0  3  0  0  0  0  0  0
  190.3790  175.7520  143.8910 C   0  0  1  0  0  3  0  0  0  0  0  0
  190.4800  174.5910  144.6900 O   0  0  0  0  0  0  0  0  0  0  0  0
  187.3360  177.9660  143.2340 C   0  0  0  0  0  3  0  0  0  0  0  0
  191.5080  175.6630  146.6970 C   0  0  1  0  0  3  0  0  0  0  0  0
  191.2040  175.9240  148.1650 C   0  0  0  0  0  1  0  0  0  0  0  0
  192.7590  174.9200  146.5490 N   0  0  0  0  0  2  0  0  0  0  0  0
  193.6520  175.6730  145.6740 C   0  0  1  0  0  3  0  0  0  0  0  0
  194.3130  176.7860  146.4680 C   0  0  0  0  0  1  0  0  0  0  0  0
  194.7490  174.7670  145.1190 C   0  0  0  0  0  2  0  0  0  0  0  0
  194.5600  174.4030  143.6440 C   0  0  1  0  0  3  0  0  0  0  0  0
  195.4930  174.9000  141.0610 C   0  0  0  0  0  2  0  0  0  0  0  0
  194.3830  175.6930  142.8280 C   0  0  0  0  0  2  0  0  0  0  0  0
  195.6800  173.5720  143.1320 N   0  0  0  0  0  0  0  0  0  0  0  0
  195.6860  173.5150  141.6630 C   0  0  0  0  0  2  0  0  0  0  0  0
  194.2480  175.3970  141.4650 O   0  0  0  0  0  0  0  0  0  0  0  0
  195.5910  172.1690  143.5730 C   0  0  0  0  0  3  0  0  0  0  0  0
  196.9340  171.4570  143.7980 C   0  0  0  0  0  2  0  0  0  0  0  0
  196.2660  171.6520  146.0790 O   0  0  0  0  0  1  0  0  0  0  0  0
  197.0010  170.8630  145.1950 C   0  0  0  0  0  2  0  0  0  0  0  0
  194.5340  171.3650  142.8100 C   0  0  0  0  0  2  0  0  0  0  0  0
  193.6560  170.0780  144.6140 O   0  0  0  0  0  1  0  0  0  0  0  0
  193.3130  171.0320  143.6550 C   0  0  0  0  0  2  0  0  0  0  0  0
  190.7100  175.4130  142.4330 C   0  0  0  0  0  2  0  0  0  0  0  0
  191.1000  173.4850  139.6870 C   0  0  0  0  0  2  0  0  0  0  0  0
  189.4800  172.7370  139.3540 P   0  0  1  0  0  0  0  0  0  0  0  0
  188.6880  173.5850  138.1250 O   0  0  0  0  0  0  0  0  0  0  0  0
  188.9110  174.0370  141.3870 C   0  0  0  0  0  2  0  0  0  0  0  0
  191.3750  173.3330  141.1790 C   0  0  0  0  0  2  0  0  0  0  0  0
  190.2940  173.9960  142.0560 C   0  0  1  0  0  3  0  0  0  0  0  0
  189.6650  171.2930  138.9430 O   0  0  0  0  0  1  0  0  0  0  0  0
  188.5800  172.8080  140.7950 O   0  0  0  0  0  0  0  0  0  0  0  0
  1  6  1  0  0  0  0
  1  5  1  0  0  0  0
  2 11  1  0  0  0  0
  3 10  1  0  0  0  0
  3 16  1  6  0  0  0
  4  8  1  0  0  0  0
  4  7  1  0  0  0  0
  7  9  1  0  0  0  0
  8  1  2  0  0  0  0
  9  5  2  0  0  0  0
 11  7  2  0  0  0  0
 11 10  1  0  0  0  0
 12 15  1  0  0  0  0
 12  2  2  0  0  0  0
 13 35  1  6  0  0  0
 13  2  1  0  0  0  0
 13 14  1  0  0  0  0
 14  3  1  0  0  0  0
 15  4  2  0  0  0  0
 16 17  1  1  0  0  0
 18 16  1  0  0  0  0
 19 20  1  1  0  0  0
 19 18  1  0  0  0  0
 21 19  1  0  0  0  0
 22 21  1  1  0  0  0
 23 27  1  0  0  0  0
 23 26  1  0  0  0  0
 24 22  1  0  0  0  0
 25 28  1  0  0  0  0
 25 22  1  0  0  0  0
 26 25  1  0  0  0  0
 27 24  1  0  0  0  0
 28 29  1  0  0  0  0
 29 31  1  0  0  0  0
 31 30  1  0  0  0  0
 32 28  1  0  0  0  0
 32 34  1  0  0  0  0
 34 33  1  0  0  0  0
 36 40  1  0  0  0  0
 37 38  2  6  0  0  0
 37 36  1  0  0  0  0
 37 43  1  0  0  0  0
 39 41  1  0  0  0  0
 40 41  1  0  0  0  0
 41 35  1  6  0  0  0
 42 37  1  0  0  0  0
 43 39  1  0  0  0  0
M  END
>  <MODEL>
3

>  <REMARK>
 VINA RESULT:      -7.1      1.095      2.833
  Name = 
  12 active torsions:
  status: ('A' for Active; 'I' for Inactive)
    1  A    between atoms: C_1  and  C_34
    2  A    between atoms: C_1  and  C_35
    3  A    between atoms: C_2  and  N_6
    4  A    between atoms: C_2  and  C_13
    5  A    between atoms: C_3  and  C_4
    6  A    between atoms: C_3  and  C_12
    7  A    between atoms: N_6  and  C_12
    8  A    between atoms: C_11  and  C_14
    9  A    between atoms: C_11  and  C_36
   10  A    between atoms: C_14  and  N_22
   11  A    between atoms: C_14  and  C_40
   12  A    between atoms: C_31  and  C_40
                            x       y       z     vdW  Elec       q    Type
                         _______ _______ _______ _____ _____    ______ ____

>  <TORSDO>
F 12

$$$$
=
 OpenBabel11052420503D

 43 47  0  0  1  0  0  0  0  0999 V2000
  184.4580  178.3220  145.8420 C   0  0  0  0  0  0  0  0  0  0  0  0
  188.4320  175.5180  144.4560 C   0  0  0  0  0  0  0  0  0  0  0  0
  190.0890  174.9770  146.6720 C   0  0  1  0  0  3  0  0  0  0  0  0
  186.1090  177.0910  144.5680 C   0  0  0  0  0  0  0  0  0  0  0  0
  185.1400  178.0210  147.0230 C   0  0  0  0  0  3  0  0  0  0  0  0
  183.2970  179.0830  145.8850 O   0  0  0  0  0  1  0  0  0  0  0  0
  186.8100  176.7880  145.7580 C   0  0  0  0  0  0  0  0  0  0  0  0
  184.9410  177.8580  144.6170 C   0  0  0  0  0  3  0  0  0  0  0  0
  186.3090  177.2580  146.9830 C   0  0  0  0  0  3  0  0  0  0  0  0
  188.7910  175.7440  146.9450 C   0  0  0  0  0  2  0  0  0  0  0  0
  187.9960  176.0250  145.6960 C   0  0  0  0  0  0  0  0  0  0  0  0
  187.7380  175.8520  143.2840 C   0  0  0  0  0  3  0  0  0  0  0  0
  189.7170  174.7210  144.3970 C   0  0  1  0  0  3  0  0  0  0  0  0
  189.9840  174.0470  145.6090 O   0  0  0  0  0  0  0  0  0  0  0  0
  186.5810  176.6290  143.3400 C   0  0  0  0  0  3  0  0  0  0  0  0
  191.3690  175.8280  146.6780 C   0  0  1  0  0  3  0  0  0  0  0  0
  191.3800  176.7070  147.9200 C   0  0  0  0  0  1  0  0  0  0  0  0
  192.5740  175.0040  146.6120 N   0  0  0  0  0  2  0  0  0  0  0  0
  193.4960  175.5940  145.6470 C   0  0  1  0  0  3  0  0  0  0  0  0
  194.9120  175.5120  146.1880 C   0  0  0  0  0  1  0  0  0  0  0  0
  193.4460  174.8330  144.3230 C   0  0  0  0  0  2  0  0  0  0  0  0
  194.1350  173.4680  144.3710 C   0  0  1  0  0  3  0  0  0  0  0  0
  194.0950  170.8820  143.3220 C   0  0  0  0  0  2  0  0  0  0  0  0
  193.0800  172.3820  144.6280 C   0  0  0  0  0  2  0  0  0  0  0  0
  194.9190  173.2000  143.1370 N   0  0  0  0  0  0  0  0  0  0  0  0
  195.2870  171.7810  143.0240 C   0  0  0  0  0  2  0  0  0  0  0  0
  193.6740  171.1120  144.6380 O   0  0  0  0  0  0  0  0  0  0  0  0
  196.1950  173.9340  143.1060 C   0  0  0  0  0  3  0  0  0  0  0  0
  196.5010  174.6820  141.7980 C   0  0  0  0  0  2  0  0  0  0  0  0
  194.7120  176.1860  141.3270 O   0  0  0  0  0  1  0  0  0  0  0  0
  195.2270  174.9300  141.0090 C   0  0  0  0  0  2  0  0  0  0  0  0
  197.3610  173.1400  143.7040 C   0  0  0  0  0  2  0  0  0  0  0  0
  197.1810  172.8530  146.0630 O   0  0  0  0  0  1  0  0  0  0  0  0
  197.7800  173.6390  145.0780 C   0  0  0  0  0  2  0  0  0  0  0  0
  189.7640  173.7310  143.2270 C   0  0  0  0  0  2  0  0  0  0  0  0
  189.3030  173.2200  139.9200 C   0  0  0  0  0  2  0  0  0  0  0  0
  190.9590  173.1600  139.1780 P   0  0  1  0  0  0  0  0  0  0  0  0
  191.4280  171.5550  138.9280 O   0  0  0  0  0  1  0  0  0  0  0  0
  191.5940  173.5660  141.5390 C   0  0  0  0  0  2  0  0  0  0  0  0
  189.2670  174.4220  140.8570 C   0  0  0  0  0  2  0  0  0  0  0  0
  190.3410  174.3520  141.9610 C   0  0  1  0  0  3  0  0  0  0  0  0
  190.9490  173.9020  137.8590 O   0  0  0  0  0  0  0  0  0  0  0  0
  192.0290  173.9270  140.2540 O   0  0  0  0  0  0  0  0  0  0  0  0
  1  6  1  0  0  0  0
  1  5  1  0  0  0  0
  2 11  1  0  0  0  0
  3 16  1  6  0  0  0
  3 10  1  0  0  0  0
  4  8  1  0  0  0  0
  4  7  1  0  0  0  0
  7  9  1  0  0  0  0
  8  1  2  0  0  0  0
  9  5  2  0  0  0  0
 11  7  2  0  0  0  0
 11 10  1  0  0  0  0
 12 15  1  0  0  0  0
 12  2  2  0  0  0  0
 13 35  1  6  0  0  0
 13  2  1  0  0  0  0
 13 14  1  0  0  0  0
 14  3  1  0  0  0  0
 15  4  2  0  0  0  0
 16 17  1  1  0  0  0
 18 16  1  0  0  0  0
 19 20  1  1  0  0  0
 19 18  1  0  0  0  0
 21 19  1  0  0  0  0
 22 21  1  6  0  0  0
 22 24  1  0  0  0  0
 23 27  1  0  0  0  0
 24 27  1  0  0  0  0
 25 22  1  0  0  0  0
 26 25  1  0  0  0  0
 26 23  1  0  0  0  0
 28 25  1  0  0  0  0
 28 32  1  0  0  0  0
 29 28  1  0  0  0  0
 31 30  1  0  0  0  0
 31 29  1  0  0  0  0
 32 34  1  0  0  0  0
 34 33  1  0  0  0  0
 36 40  1  0  0  0  0
 37 42  2  6  0  0  0
 37 36  1  0  0  0  0
 37 43  1  0  0  0  0
 38 37  1  0  0  0  0
 39 41  1  0  0  0  0
 40 41  1  0  0  0  0
 41 35  1  1  0  0  0
 43 39  1  0  0  0  0
M  END
>  <MODEL>
4

>  <REMARK>
 VINA RESULT:      -6.8      1.360      1.833
  Name = 
  12 active torsions:
  status: ('A' for Active; 'I' for Inactive)
    1  A    between atoms: C_1  and  C_34
    2  A    between atoms: C_1  and  C_35
    3  A    between atoms: C_2  and  N_6
    4  A    between atoms: C_2  and  C_13
    5  A    between atoms: C_3  and  C_4
    6  A    between atoms: C_3  and  C_12
    7  A    between atoms: N_6  and  C_12
    8  A    between atoms: C_11  and  C_14
    9  A    between atoms: C_11  and  C_36
   10  A    between atoms: C_14  and  N_22
   11  A    between atoms: C_14  and  C_40
   12  A    between atoms: C_31  and  C_40
                            x       y       z     vdW  Elec       q    Type
                         _______ _______ _______ _____ _____    ______ ____

>  <TORSDO>
F 12

$$$$
=
 OpenBabel11052420503D

 43 47  0  0  1  0  0  0  0  0999 V2000
  184.9730  178.3100  145.6190 C   0  0  0  0  0  0  0  0  0  0  0  0
  189.8180  176.9180  145.2130 C   0  0  0  0  0  0  0  0  0  0  0  0
  190.4940  176.4420  142.5170 C   0  0  1  0  0  3  0  0  0  0  0  0
  187.2540  177.6460  146.0940 C   0  0  0  0  0  0  0  0  0  0  0  0
  185.2260  178.2130  144.2490 C   0  0  0  0  0  3  0  0  0  0  0  0
  183.7150  178.6870  146.0670 O   0  0  0  0  0  1  0  0  0  0  0  0
  187.5170  177.5390  144.7070 C   0  0  0  0  0  0  0  0  0  0  0  0
  185.9840  178.0270  146.5400 C   0  0  0  0  0  3  0  0  0  0  0  0
  186.4900  177.8300  143.7940 C   0  0  0  0  0  3  0  0  0  0  0  0
  189.0800  176.9600  142.7990 C   0  0  0  0  0  2  0  0  0  0  0  0
  188.7970  177.1400  144.2680 C   0  0  0  0  0  0  0  0  0  0  0  0
  189.5310  177.0040  146.5830 C   0  0  0  0  0  3  0  0  0  0  0  0
  191.1810  176.4680  144.7330 C   0  0  1  0  0  3  0  0  0  0  0  0
  191.4660  176.9260  143.4270 O   0  0  0  0  0  0  0  0  0  0  0  0
  188.2580  177.3710  147.0200 C   0  0  0  0  0  3  0  0  0  0  0  0
  190.5920  174.9440  142.1860 C   0  0  1  0  0  3  0  0  0  0  0  0
  192.0350  174.4890  142.3450 C   0  0  0  0  0  1  0  0  0  0  0  0
  189.6980  174.1400  143.0170 N   0  0  0  0  0  2  0  0  0  0  0  0
  190.2620  172.8020  143.1560 C   0  0  1  0  0  3  0  0  0  0  0  0
  189.9680  172.2750  144.5500 C   0  0  0  0  0  1  0  0  0  0  0  0
  189.6340  171.8460  142.1430 C   0  0  0  0  0  2  0  0  0  0  0  0
  190.6550  171.1330  141.2530 C   0  0  1  0  0  3  0  0  0  0  0  0
  191.0280  168.9620  139.5400 C   0  0  0  0  0  2  0  0  0  0  0  0
  190.7070  169.6470  141.6400 C   0  0  0  0  0  2  0  0  0  0  0  0
  190.3590  171.3220  139.8100 N   0  0  0  0  0  0  0  0  0  0  0  0
  191.1080  170.3730  138.9730 C   0  0  0  0  0  2  0  0  0  0  0  0
  191.6040  168.9560  140.8160 O   0  0  0  0  0  0  0  0  0  0  0  0
  190.7450  172.6570  139.3220 C   0  0  0  0  0  3  0  0  0  0  0  0
  189.8070  173.2790  138.2760 C   0  0  0  0  0  2  0  0  0  0  0  0
  188.2260  174.2690  139.7620 O   0  0  0  0  0  1  0  0  0  0  0  0
  188.3730  173.2920  138.7770 C   0  0  0  0  0  2  0  0  0  0  0  0
  192.2430  172.7790  139.0260 C   0  0  0  0  0  2  0  0  0  0  0  0
  193.7040  174.6520  138.8360 O   0  0  0  0  0  1  0  0  0  0  0  0
  192.5960  174.0380  138.2490 C   0  0  0  0  0  2  0  0  0  0  0  0
  192.3190  176.8590  145.6830 C   0  0  0  0  0  2  0  0  0  0  0  0
  195.3140  175.3550  145.2610 C   0  0  0  0  0  2  0  0  0  0  0  0
  194.9790  173.5740  145.1460 P   0  0  1  0  0  0  0  0  0  0  0  0
  194.9830  173.0830  143.5280 O   0  0  0  0  0  0  0  0  0  0  0  0
  192.6640  174.3960  145.4750 C   0  0  0  0  0  2  0  0  0  0  0  0
  194.5170  175.8930  146.4430 C   0  0  0  0  0  2  0  0  0  0  0  0
  193.0010  175.6460  146.3040 C   0  0  1  0  0  3  0  0  0  0  0  0
  196.0350  172.8100  145.9150 O   0  0  0  0  0  1  0  0  0  0  0  0
  193.4530  173.2960  145.8440 O   0  0  0  0  0  0  0  0  0  0  0  0
  1  6  1  0  0  0  0
  1  8  1  0  0  0  0
  2 12  1  0  0  0  0
  3 16  1  1  0  0  0
  3 10  1  0  0  0  0
  3 14  1  0  0  0  0
  4  8  2  0  0  0  0
  4 15  1  0  0  0  0
  5  1  2  0  0  0  0
  7  4  1  0  0  0  0
  9  5  1  0  0  0  0
  9  7  2  0  0  0  0
 10 11  1  0  0  0  0
 11  7  1  0  0  0  0
 11  2  2  0  0  0  0
 12 15  2  0  0  0  0
 13  2  1  0  0  0  0
 13 35  1  1  0  0  0
 14 13  1  0  0  0  0
 16 17  1  1  0  0  0
 16 18  1  0  0  0  0
 18 19  1  0  0  0  0
 19 20  1  1  0  0  0
 21 19  1  0  0  0  0
 22 24  1  0  0  0  0
 22 21  1  1  0  0  0
 23 27  1  0  0  0  0
 25 22  1  0  0  0  0
 26 23  1  0  0  0  0
 26 25  1  0  0  0  0
 27 24  1  0  0  0  0
 28 25  1  0  0  0  0
 29 31  1  0  0  0  0
 29 28  1  0  0  0  0
 31 30  1  0  0  0  0
 32 28  1  0  0  0  0
 34 33  1  0  0  0  0
 34 32  1  0  0  0  0
 36 40  1  0  0  0  0
 37 38  2  6  0  0  0
 37 36  1  0  0  0  0
 37 43  1  0  0  0  0
 37 42  1  0  0  0  0
 39 43  1  0  0  0  0
 39 41  1  0  0  0  0
 41 35  1  6  0  0  0
 41 40  1  0  0  0  0
M  END
>  <MODEL>
5

>  <REMARK>
 VINA RESULT:      -6.7      2.609      5.395
  Name = 
  12 active torsions:
  status: ('A' for Active; 'I' for Inactive)
    1  A    between atoms: C_1  and  C_34
    2  A    between atoms: C_1  and  C_35
    3  A    between atoms: C_2  and  N_6
    4  A    between atoms: C_2  and  C_13
    5  A    between atoms: C_3  and  C_4
    6  A    between atoms: C_3  and  C_12
    7  A    between atoms: N_6  and  C_12
    8  A    between atoms: C_11  and  C_14
    9  A    between atoms: C_11  and  C_36
   10  A    between atoms: C_14  and  N_22
   11  A    between atoms: C_14  and  C_40
   12  A    between atoms: C_31  and  C_40
                            x       y       z     vdW  Elec       q    Type
                         _______ _______ _______ _____ _____    ______ ____

>  <TORSDO>
F 12

$$$$
=
 OpenBabel11052420503D

 43 47  0  0  1  0  0  0  0  0999 V2000
  185.1460  178.2070  145.7970 C   0  0  0  0  0  0  0  0  0  0  0  0
  188.6280  175.1290  143.8040 C   0  0  0  0  0  0  0  0  0  0  0  0
  190.6100  174.5020  145.7090 C   0  0  1  0  0  3  0  0  0  0  0  0
  186.4660  176.8550  144.2830 C   0  0  0  0  0  0  0  0  0  0  0  0
  186.0040  177.8740  146.8490 C   0  0  0  0  0  3  0  0  0  0  0  0
  184.0620  179.0440  146.0250 O   0  0  0  0  0  1  0  0  0  0  0  0
  187.3450  176.5180  145.3400 C   0  0  0  0  0  0  0  0  0  0  0  0
  185.3760  177.6980  144.5180 C   0  0  0  0  0  3  0  0  0  0  0  0
  187.0970  177.0350  146.6220 C   0  0  0  0  0  3  0  0  0  0  0  0
  189.4320  175.3570  146.1870 C   0  0  0  0  0  2  0  0  0  0  0  0
  188.4500  175.6770  145.0900 C   0  0  0  0  0  0  0  0  0  0  0  0
  187.7620  175.4950  142.7640 C   0  0  0  0  0  3  0  0  0  0  0  0
  189.8300  174.2470  143.5400 C   0  0  1  0  0  3  0  0  0  0  0  0
  190.2620  173.5700  144.7020 O   0  0  0  0  0  0  0  0  0  0  0  0
  186.6850  176.3480  143.0030 C   0  0  0  0  0  3  0  0  0  0  0  0
  191.9230  175.2660  145.4730 C   0  0  1  0  0  3  0  0  0  0  0  0
  191.7270  176.7280  145.8480 C   0  0  0  0  0  1  0  0  0  0  0  0
  193.0370  174.6830  146.2170 N   0  0  0  0  0  2  0  0  0  0  0  0
  194.0320  174.1930  145.2680 C   0  0  1  0  0  3  0  0  0  0  0  0
  194.0870  172.6770  145.3340 C   0  0  0  0  0  1  0  0  0  0  0  0
  193.6570  174.5950  143.8420 C   0  0  0  0  0  2  0  0  0  0  0  0
  194.7300  175.4250  143.1340 C   0  0  1  0  0  3  0  0  0  0  0  0
  197.4430  176.0800  143.1360 C   0  0  0  0  0  2  0  0  0  0  0  0
  195.4750  176.2750  144.1740 C   0  0  0  0  0  2  0  0  0  0  0  0
  195.6570  174.5730  142.3440 N   0  0  0  0  0  0  0  0  0  0  0  0
  196.8710  175.3060  141.9570 C   0  0  0  0  0  2  0  0  0  0  0  0
  196.4940  177.0180  143.5620 O   0  0  0  0  0  0  0  0  0  0  0  0
  195.0620  174.1110  141.0790 C   0  0  0  0  0  3  0  0  0  0  0  0
  195.6220  172.7920  140.5240 C   0  0  0  0  0  2  0  0  0  0  0  0
  194.5110  171.3770  142.0890 O   0  0  0  0  0  1  0  0  0  0  0  0
  195.7710  171.7620  141.6310 C   0  0  0  0  0  2  0  0  0  0  0  0
  194.8780  175.2360  140.0550 C   0  0  0  0  0  2  0  0  0  0  0  0
  193.9360  175.4510  137.8770 O   0  0  0  0  0  1  0  0  0  0  0  0
  194.8810  174.7400  138.6170 C   0  0  0  0  0  2  0  0  0  0  0  0
  189.6080  173.2430  142.4030 C   0  0  0  0  0  2  0  0  0  0  0  0
  191.0440  173.4560  139.3530 C   0  0  0  0  0  2  0  0  0  0  0  0
  191.6460  171.7900  138.9550 P   0  0  1  0  0  0  0  0  0  0  0  0
  190.5610  171.0100  137.9200 O   0  0  0  0  0  0  0  0  0  0  0  0
  190.6950  171.3460  141.2000 C   0  0  0  0  0  2  0  0  0  0  0  0
  191.4660  173.7640  140.7850 C   0  0  0  0  0  2  0  0  0  0  0  0
  190.9160  172.7440  141.8020 C   0  0  1  0  0  3  0  0  0  0  0  0
  193.0040  171.8880  138.2940 O   0  0  0  0  0  1  0  0  0  0  0  0
  191.7860  170.9360  140.4180 O   0  0  0  0  0  0  0  0  0  0  0  0
  1  6  1  0  0  0  0
  1  5  1  0  0  0  0
  2 11  1  0  0  0  0
  3 16  1  6  0  0  0
  3 10  1  0  0  0  0
  4  8  1  0  0  0  0
  4  7  1  0  0  0  0
  7  9  1  0  0  0  0
  8  1  2  0  0  0  0
  9  5  2  0  0  0  0
 11  7  2  0  0  0  0
 11 10  1  0  0  0  0
 12 15  1  0  0  0  0
 12  2  2  0  0  0  0
 13 35  1  6  0  0  0
 13  2  1  0  0  0  0
 13 14  1  0  0  0  0
 14  3  1  0  0  0  0
 15  4  2  0  0  0  0
 16 17  1  1  0  0  0
 16 18  1  0  0  0  0
 19 20  1  6  0  0  0
 19 18  1  0  0  0  0
 21 19  1  0  0  0  0
 22 21  1  1  0  0  0
 22 24  1  0  0  0  0
 23 27  1  0  0  0  0
 25 22  1  0  0  0  0
 26 25  1  0  0  0  0
 26 23  1  0  0  0  0
 27 24  1  0  0  0  0
 28 25  1  0  0  0  0
 29 28  1  0  0  0  0
 29 31  1  0  0  0  0
 31 30  1  0  0  0  0
 32 28  1  0  0  0  0
 33 34  1  0  0  0  0
 34 32  1  0  0  0  0
 36 40  1  0  0  0  0
 37 38  2  6  0  0  0
 37 36  1  0  0  0  0
 37 43  1  0  0  0  0
 39 41  1  0  0  0  0
 40 41  1  0  0  0  0
 41 35  1  6  0  0  0
 42 37  1  0  0  0  0
 43 39  1  0  0  0  0
M  END
>  <MODEL>
6

>  <REMARK>
 VINA RESULT:      -6.7      1.526      2.842
  Name = 
  12 active torsions:
  status: ('A' for Active; 'I' for Inactive)
    1  A    between atoms: C_1  and  C_34
    2  A    between atoms: C_1  and  C_35
    3  A    between atoms: C_2  and  N_6
    4  A    between atoms: C_2  and  C_13
    5  A    between atoms: C_3  and  C_4
    6  A    between atoms: C_3  and  C_12
    7  A    between atoms: N_6  and  C_12
    8  A    between atoms: C_11  and  C_14
    9  A    between atoms: C_11  and  C_36
   10  A    between atoms: C_14  and  N_22
   11  A    between atoms: C_14  and  C_40
   12  A    between atoms: C_31  and  C_40
                            x       y       z     vdW  Elec       q    Type
                         _______ _______ _______ _____ _____    ______ ____

>  <TORSDO>
F 12

$$$$
=
 OpenBabel11052420503D

 43 47  0  0  1  0  0  0  0  0999 V2000
  196.0250  173.7800  145.9400 C   0  0  0  0  0  0  0  0  0  0  0  0
  191.4130  175.4930  144.7710 C   0  0  0  0  0  0  0  0  0  0  0  0
  189.8020  173.4100  143.7650 C   0  0  1  0  0  3  0  0  0  0  0  0
  194.1000  175.1890  145.5260 C   0  0  0  0  0  0  0  0  0  0  0  0
  195.2860  172.6540  145.5650 C   0  0  0  0  0  3  0  0  0  0  0  0
  197.3490  173.6400  146.3340 O   0  0  0  0  0  1  0  0  0  0  0  0
  193.3460  174.0570  145.1370 C   0  0  0  0  0  0  0  0  0  0  0  0
  195.4330  175.0440  145.9210 C   0  0  0  0  0  3  0  0  0  0  0  0
  193.9550  172.7910  145.1660 C   0  0  0  0  0  3  0  0  0  0  0  0
  191.2050  173.0310  144.2500 C   0  0  0  0  0  2  0  0  0  0  0  0
  192.0050  174.2160  144.7260 C   0  0  0  0  0  0  0  0  0  0  0  0
  192.1830  176.6080  145.1340 C   0  0  0  0  0  3  0  0  0  0  0  0
  189.9820  175.6580  144.3060 C   0  0  1  0  0  3  0  0  0  0  0  0
  189.2220  174.4800  144.4880 O   0  0  0  0  0  0  0  0  0  0  0  0
  193.5170  176.4560  145.5140 C   0  0  0  0  0  3  0  0  0  0  0  0
  189.6300  173.4770  142.2390 C   0  0  1  0  0  3  0  0  0  0  0  0
  188.2460  174.0210  141.9140 C   0  0  0  0  0  1  0  0  0  0  0  0
  190.6690  174.2870  141.6060 N   0  0  0  0  0  2  0  0  0  0  0  0
  191.4850  173.4250  140.7560 C   0  0  1  0  0  3  0  0  0  0  0  0
  190.9100  173.4150  139.3510 C   0  0  0  0  0  1  0  0  0  0  0  0
  192.9190  173.9480  140.6810 C   0  0  0  0  0  2  0  0  0  0  0  0
  193.9370  173.0600  141.4000 C   0  0  1  0  0  3  0  0  0  0  0  0
  195.2870  170.6210  141.2770 C   0  0  0  0  0  2  0  0  0  0  0  0
  193.3360  171.6590  141.5900 C   0  0  0  0  0  2  0  0  0  0  0  0
  195.2360  173.0140  140.6810 N   0  0  0  0  0  0  0  0  0  0  0  0
  196.0840  171.9130  141.1600 C   0  0  0  0  0  2  0  0  0  0  0  0
  194.2590  170.8070  142.2100 O   0  0  0  0  0  0  0  0  0  0  0  0
  196.0370  174.2340  140.8810 C   0  0  0  0  0  3  0  0  0  0  0  0
  197.4500  174.2080  140.2760 C   0  0  0  0  0  2  0  0  0  0  0  0
  196.5680  175.3570  138.3830 O   0  0  0  0  0  1  0  0  0  0  0  0
  197.6320  175.3430  139.2840 C   0  0  0  0  0  2  0  0  0  0  0  0
  195.9350  174.7940  142.3030 C   0  0  0  0  0  2  0  0  0  0  0  0
  195.0470  176.7540  141.2790 O   0  0  0  0  0  1  0  0  0  0  0  0
  195.8370  176.3120  142.3410 C   0  0  0  0  0  2  0  0  0  0  0  0
  189.2650  176.8460  144.9570 C   0  0  0  0  0  2  0  0  0  0  0  0
  186.3230  178.5060  144.9910 C   0  0  0  0  0  2  0  0  0  0  0  0
  185.5950  178.2210  146.6300 P   0  0  1  0  0  0  0  0  0  0  0  0
  185.8720  179.5550  147.6310 O   0  0  0  0  0  1  0  0  0  0  0  0
  187.6740  176.8930  146.8790 C   0  0  0  0  0  2  0  0  0  0  0  0
  186.8130  177.1600  144.4700 C   0  0  0  0  0  2  0  0  0  0  0  0
  187.8490  176.5000  145.4030 C   0  0  1  0  0  3  0  0  0  0  0  0
  184.1070  177.9880  146.4890 O   0  0  0  0  0  0  0  0  0  0  0  0
  186.3300  176.8320  147.2800 O   0  0  0  0  0  0  0  0  0  0  0  0
  1  6  1  0  0  0  0
  2 12  1  0  0  0  0
  3 16  1  6  0  0  0
  3 10  1  0  0  0  0
  3 14  1  0  0  0  0
  4  8  2  0  0  0  0
  5  1  2  0  0  0  0
  7  9  2  0  0  0  0
  7  4  1  0  0  0  0
  8  1  1  0  0  0  0
  9  5  1  0  0  0  0
 10 11  1  0  0  0  0
 11  2  2  0  0  0  0
 11  7  1  0  0  0  0
 12 15  2  0  0  0  0
 13 14  1  0  0  0  0
 13  2  1  0  0  0  0
 13 35  1  1  0  0  0
 15  4  1  0  0  0  0
 16 17  1  1  0  0  0
 18 16  1  0  0  0  0
 19 20  1  6  0  0  0
 19 18  1  0  0  0  0
 21 19  1  0  0  0  0
 22 21  1  6  0  0  0
 22 24  1  0  0  0  0
 23 27  1  0  0  0  0
 24 27  1  0  0  0  0
 25 28  1  0  0  0  0
 25 26  1  0  0  0  0
 25 22  1  0  0  0  0
 26 23  1  0  0  0  0
 28 32  1  0  0  0  0
 29 28  1  0  0  0  0
 30 31  1  0  0  0  0
 31 29  1  0  0  0  0
 32 34  1  0  0  0  0
 33 34  1  0  0  0  0
 36 37  1  0  0  0  0
 37 42  2  6  0  0  0
 37 43  1  0  0  0  0
 37 38  1  0  0  0  0
 39 43  1  0  0  0  0
 40 36  1  0  0  0  0
 40 41  1  0  0  0  0
 41 35  1  6  0  0  0
 41 39  1  0  0  0  0
M  END
>  <MODEL>
7

>  <REMARK>
 VINA RESULT:      -6.7      2.760      6.575
  Name = 
  12 active torsions:
  status: ('A' for Active; 'I' for Inactive)
    1  A    between atoms: C_1  and  C_34
    2  A    between atoms: C_1  and  C_35
    3  A    between atoms: C_2  and  N_6
    4  A    between atoms: C_2  and  C_13
    5  A    between atoms: C_3  and  C_4
    6  A    between atoms: C_3  and  C_12
    7  A    between atoms: N_6  and  C_12
    8  A    between atoms: C_11  and  C_14
    9  A    between atoms: C_11  and  C_36
   10  A    between atoms: C_14  and  N_22
   11  A    between atoms: C_14  and  C_40
   12  A    between atoms: C_31  and  C_40
                            x       y       z     vdW  Elec       q    Type
                         _______ _______ _______ _____ _____    ______ ____

>  <TORSDO>
F 12

$$$$
=
 OpenBabel11052420503D

 43 47  0  0  1  0  0  0  0  0999 V2000
  184.9960  178.1820  145.6540 C   0  0  0  0  0  0  0  0  0  0  0  0
  189.7940  176.7140  145.0200 C   0  0  0  0  0  0  0  0  0  0  0  0
  190.1950  175.7210  142.4120 C   0  0  1  0  0  3  0  0  0  0  0  0
  187.3230  177.6120  146.0060 C   0  0  0  0  0  0  0  0  0  0  0  0
  185.1070  177.8200  144.3090 C   0  0  0  0  0  3  0  0  0  0  0  0
  183.7850  178.6450  146.1490 O   0  0  0  0  0  1  0  0  0  0  0  0
  187.4440  177.2370  144.6470 C   0  0  0  0  0  0  0  0  0  0  0  0
  186.1010  178.0780  146.5000 C   0  0  0  0  0  3  0  0  0  0  0  0
  186.3230  177.3500  143.8070 C   0  0  0  0  0  3  0  0  0  0  0  0
  188.8090  176.2900  142.7340 C   0  0  0  0  0  2  0  0  0  0  0  0
  188.6780  176.7540  144.1620 C   0  0  0  0  0  0  0  0  0  0  0  0
  189.6480  177.0650  146.3700 C   0  0  0  0  0  3  0  0  0  0  0  0
  191.1070  176.1720  144.4970 C   0  0  1  0  0  3  0  0  0  0  0  0
  191.2480  176.3680  143.1050 O   0  0  0  0  0  0  0  0  0  0  0  0
  188.4220  177.5170  146.8590 C   0  0  0  0  0  3  0  0  0  0  0  0
  190.2810  174.1870  142.3680 C   0  0  1  0  0  3  0  0  0  0  0  0
  188.9050  173.6000  142.6460 C   0  0  0  0  0  1  0  0  0  0  0  0
  190.8050  173.7050  141.0920 N   0  0  0  0  0  2  0  0  0  0  0  0
  192.2110  173.3530  141.2630 C   0  0  1  0  0  3  0  0  0  0  0  0
  192.3280  172.2290  142.2780 C   0  0  0  0  0  1  0  0  0  0  0  0
  192.8080  172.8690  139.9430 C   0  0  0  0  0  2  0  0  0  0  0  0
  192.3150  173.6480  138.7210 C   0  0  1  0  0  3  0  0  0  0  0  0
  192.9200  174.3250  136.0820 C   0  0  0  0  0  2  0  0  0  0  0  0
  193.4320  174.5860  138.2400 C   0  0  0  0  0  2  0  0  0  0  0  0
  191.8450  172.7430  137.6410 N   0  0  0  0  0  0  0  0  0  0  0  0
  191.7040  173.4520  136.3610 C   0  0  0  0  0  2  0  0  0  0  0  0
  193.0270  175.2860  137.0950 O   0  0  0  0  0  0  0  0  0  0  0  0
  190.5150  172.1750  137.9170 C   0  0  0  0  0  3  0  0  0  0  0  0
  190.3570  170.6750  137.6200 C   0  0  0  0  0  2  0  0  0  0  0  0
  190.3560  170.4710  139.9950 O   0  0  0  0  0  1  0  0  0  0  0  0
  190.7680  169.8410  138.8210 C   0  0  0  0  0  2  0  0  0  0  0  0
  189.3670  173.0690  137.4390 C   0  0  0  0  0  2  0  0  0  0  0  0
  187.9250  172.6430  139.2880 O   0  0  0  0  0  1  0  0  0  0  0  0
  188.5600  173.6660  138.5810 C   0  0  0  0  0  2  0  0  0  0  0  0
  192.3300  176.7350  145.2290 C   0  0  0  0  0  2  0  0  0  0  0  0
  195.4880  175.5430  145.0960 C   0  0  0  0  0  2  0  0  0  0  0  0
  195.3520  173.7330  145.1210 P   0  0  1  0  0  0  0  0  0  0  0  0
  195.5060  173.1150  143.5550 O   0  0  0  0  0  0  0  0  0  0  0  0
  192.9470  174.3170  145.2570 C   0  0  0  0  0  2  0  0  0  0  0  0
  194.5690  176.0850  146.1840 C   0  0  0  0  0  2  0  0  0  0  0  0
  193.0990  175.6610  145.9900 C   0  0  1  0  0  3  0  0  0  0  0  0
  196.4350  173.1570  146.0080 O   0  0  0  0  0  1  0  0  0  0  0  0
  193.8250  173.3450  145.7620 O   0  0  0  0  0  0  0  0  0  0  0  0
  1  6  1  0  0  0  0
  1  8  1  0  0  0  0
  2 12  1  0  0  0  0
  3 16  1  1  0  0  0
  3 10  1  0  0  0  0
  3 14  1  0  0  0  0
  4  8  2  0  0  0  0
  4 15  1  0  0  0  0
  5  1  2  0  0  0  0
  7  4  1  0  0  0  0
  9  5  1  0  0  0  0
  9  7  2  0  0  0  0
 10 11  1  0  0  0  0
 11  7  1  0  0  0  0
 11  2  2  0  0  0  0
 12 15  2  0  0  0  0
 13  2  1  0  0  0  0
 13 35  1  1  0  0  0
 14 13  1  0  0  0  0
 16 17  1  6  0  0  0
 18 19  1  0  0  0  0
 18 16  1  0  0  0  0
 19 20  1  1  0  0  0
 21 19  1  0  0  0  0
 22 21  1  1  0  0  0
 23 26  1  0  0  0  0
 23 27  1  0  0  0  0
 24 22  1  0  0  0  0
 25 28  1  0  0  0  0
 25 22  1  0  0  0  0
 26 25  1  0  0  0  0
 27 24  1  0  0  0  0
 29 28  1  0  0  0  0
 29 31  1  0  0  0  0
 31 30  1  0  0  0  0
 32 28  1  0  0  0  0
 32 34  1  0  0  0  0
 34 33  1  0  0  0  0
 36 37  1  0  0  0  0
 36 40  1  0  0  0  0
 37 38  2  6  0  0  0
 37 43  1  0  0  0  0
 37 42  1  0  0  0  0
 39 43  1  0  0  0  0
 39 41  1  0  0  0  0
 41 35  1  6  0  0  0
 41 40  1  0  0  0  0
M  END
>  <MODEL>
8

>  <REMARK>
 VINA RESULT:      -6.6      2.601      6.094
  Name = 
  12 active torsions:
  status: ('A' for Active; 'I' for Inactive)
    1  A    between atoms: C_1  and  C_34
    2  A    between atoms: C_1  and  C_35
    3  A    between atoms: C_2  and  N_6
    4  A    between atoms: C_2  and  C_13
    5  A    between atoms: C_3  and  C_4
    6  A    between atoms: C_3  and  C_12
    7  A    between atoms: N_6  and  C_12
    8  A    between atoms: C_11  and  C_14
    9  A    between atoms: C_11  and  C_36
   10  A    between atoms: C_14  and  N_22
   11  A    between atoms: C_14  and  C_40
   12  A    between atoms: C_31  and  C_40
                            x       y       z     vdW  Elec       q    Type
                         _______ _______ _______ _____ _____    ______ ____

>  <TORSDO>
F 12

$$$$
=
 OpenBabel11052420503D

 43 47  0  0  1  0  0  0  0  0999 V2000
  185.2470  178.2900  145.4830 C   0  0  0  0  0  0  0  0  0  0  0  0
  188.5310  175.1640  143.2420 C   0  0  0  0  0  0  0  0  0  0  0  0
  190.9010  174.9580  144.7550 C   0  0  1  0  0  3  0  0  0  0  0  0
  186.3580  176.8060  143.9240 C   0  0  0  0  0  0  0  0  0  0  0  0
  186.3240  178.1750  146.3660 C   0  0  0  0  0  3  0  0  0  0  0  0
  184.1590  179.0840  145.8170 O   0  0  0  0  0  1  0  0  0  0  0  0
  187.4570  176.6890  144.8090 C   0  0  0  0  0  0  0  0  0  0  0  0
  185.2640  177.6070  144.2650 C   0  0  0  0  0  3  0  0  0  0  0  0
  187.4230  177.3800  146.0320 C   0  0  0  0  0  3  0  0  0  0  0  0
  189.7680  175.8020  145.3480 C   0  0  0  0  0  2  0  0  0  0  0  0
  188.5630  175.8900  144.4490 C   0  0  0  0  0  0  0  0  0  0  0  0
  187.4450  175.3130  142.3660 C   0  0  0  0  0  3  0  0  0  0  0  0
  189.7310  174.3280  142.8540 C   0  0  1  0  0  3  0  0  0  0  0  0
  190.4460  173.8630  143.9810 O   0  0  0  0  0  0  0  0  0  0  0  0
  186.3640  176.1250  142.7080 C   0  0  0  0  0  3  0  0  0  0  0  0
  192.0650  175.7560  144.1460 C   0  0  1  0  0  3  0  0  0  0  0  0
  191.9510  177.2130  144.5720 C   0  0  0  0  0  1  0  0  0  0  0  0
  193.3640  175.2030  144.5230 N   0  0  0  0  0  2  0  0  0  0  0  0
  194.2390  176.2960  144.9330 C   0  0  1  0  0  3  0  0  0  0  0  0
  194.4890  176.2070  146.4280 C   0  0  0  0  0  1  0  0  0  0  0  0
  195.5860  176.2020  144.2180 C   0  0  0  0  0  2  0  0  0  0  0  0
  195.5160  175.4930  142.8630 C   0  0  1  0  0  3  0  0  0  0  0  0
  196.8220  175.1640  140.4190 C   0  0  0  0  0  2  0  0  0  0  0  0
  195.6590  176.5340  141.7430 C   0  0  0  0  0  2  0  0  0  0  0  0
  196.5310  174.4140  142.7510 N   0  0  0  0  0  0  0  0  0  0  0  0
  196.7030  173.9720  141.3590 C   0  0  0  0  0  2  0  0  0  0  0  0
  195.6400  175.9120  140.4880 O   0  0  0  0  0  0  0  0  0  0  0  0
  196.1530  173.2020  143.4970 C   0  0  0  0  0  3  0  0  0  0  0  0
  197.2740  172.5540  144.3250 C   0  0  0  0  0  2  0  0  0  0  0  0
  197.0110  173.6590  146.4210 O   0  0  0  0  0  1  0  0  0  0  0  0
  196.8650  172.4280  145.7820 C   0  0  0  0  0  2  0  0  0  0  0  0
  195.2900  172.2360  142.6790 C   0  0  0  0  0  2  0  0  0  0  0  0
  193.4860  170.6920  142.8820 O   0  0  0  0  0  1  0  0  0  0  0  0
  193.9540  171.9250  143.3370 C   0  0  0  0  0  2  0  0  0  0  0  0
  189.3800  173.1510  141.9370 C   0  0  0  0  0  2  0  0  0  0  0  0
  190.0130  172.7110  138.6480 C   0  0  0  0  0  2  0  0  0  0  0  0
  190.7840  171.0750  138.4910 P   0  0  1  0  0  0  0  0  0  0  0  0
  189.6400  169.9370  137.9870 O   0  0  0  0  0  1  0  0  0  0  0  0
  190.4690  171.1350  140.9480 C   0  0  0  0  0  2  0  0  0  0  0  0
  190.6960  173.4280  139.8070 C   0  0  0  0  0  2  0  0  0  0  0  0
  190.5800  172.6570  141.1370 C   0  0  1  0  0  3  0  0  0  0  0  0
  191.9140  171.1430  137.4870 O   0  0  0  0  0  0  0  0  0  0  0  0
  191.4030  170.6540  140.0180 O   0  0  0  0  0  0  0  0  0  0  0  0
  1  6  1  0  0  0  0
  1  5  1  0  0  0  0
  2 11  1  0  0  0  0
  3 16  1  6  0  0  0
  3 10  1  0  0  0  0
  4  8  1  0  0  0  0
  4  7  1  0  0  0  0
  7  9  1  0  0  0  0
  8  1  2  0  0  0  0
  9  5  2  0  0  0  0
 11  7  2  0  0  0  0
 11 10  1  0  0  0  0
 12 15  1  0  0  0  0
 12  2  2  0  0  0  0
 13 35  1  1  0  0  0
 13  2  1  0  0  0  0
 13 14  1  0  0  0  0
 14  3  1  0  0  0  0
 15  4  2  0  0  0  0
 16 18  1  0  0  0  0
 16 17  1  1  0  0  0
 18 19  1  0  0  0  0
 19 20  1  1  0  0  0
 21 19  1  0  0  0  0
 22 21  1  1  0  0  0
 23 27  1  0  0  0  0
 23 26  1  0  0  0  0
 24 22  1  0  0  0  0
 25 22  1  0  0  0  0
 25 28  1  0  0  0  0
 26 25  1  0  0  0  0
 27 24  1  0  0  0  0
 28 29  1  0  0  0  0
 29 31  1  0  0  0  0
 31 30  1  0  0  0  0
 32 34  1  0  0  0  0
 32 28  1  0  0  0  0
 33 34  1  0  0  0  0
 36 40  1  0  0  0  0
 37 42  2  6  0  0  0
 37 36  1  0  0  0  0
 37 43  1  0  0  0  0
 38 37  1  0  0  0  0
 39 41  1  0  0  0  0
 40 41  1  0  0  0  0
 41 35  1  6  0  0  0
 43 39  1  0  0  0  0
M  END
>  <MODEL>
9

>  <REMARK>
 VINA RESULT:      -6.6      1.758      3.314
  Name = 
  12 active torsions:
  status: ('A' for Active; 'I' for Inactive)
    1  A    between atoms: C_1  and  C_34
    2  A    between atoms: C_1  and  C_35
    3  A    between atoms: C_2  and  N_6
    4  A    between atoms: C_2  and  C_13
    5  A    between atoms: C_3  and  C_4
    6  A    between atoms: C_3  and  C_12
    7  A    between atoms: N_6  and  C_12
    8  A    between atoms: C_11  and  C_14
    9  A    between atoms: C_11  and  C_36
   10  A    between atoms: C_14  and  N_22
   11  A    between atoms: C_14  and  C_40
   12  A    between atoms: C_31  and  C_40
                            x       y       z     vdW  Elec       q    Type
                         _______ _______ _______ _____ _____    ______ ____

>  <TORSDO>
F 12

$$$$
