=
 OpenBabel11052420303D

 34 39  0  0  1  0  0  0  0  0999 V2000
  186.5060  177.9650  143.8110 C   0  0  0  0  0  0  0  0  0  0  0  0
  183.1160  178.4620  142.5880 C   0  0  0  0  0  3  0  0  0  0  0  0
  183.9430  178.5020  144.8060 O   0  0  0  0  0  0  0  0  0  0  0  0
  188.6230  177.4920  145.6420 N   0  0  0  0  0  0  0  0  0  0  0  0
  187.8380  177.6550  143.3990 N   0  0  0  0  0  2  0  0  0  0  0  0
  187.4080  178.0850  146.2140 C   0  0  2  0  0  3  0  0  0  0  0  0
  185.5750  177.4560  147.9340 C   0  0  0  0  0  2  0  0  0  0  0  0
  187.0720  177.4470  147.5730 C   0  0  0  0  0  2  0  0  0  0  0  0
  188.8570  177.3550  144.3650 C   0  0  0  0  0  0  0  0  0  0  0  0
  185.0100  178.3670  145.7050 C   0  0  0  0  0  0  0  0  0  0  0  0
  186.2460  178.1050  145.2540 C   0  0  0  0  0  0  0  0  0  0  0  0
  184.7830  178.5270  147.1780 C   0  0  0  0  0  2  0  0  0  0  0  0
  183.2900  178.2910  141.1340 C   0  0  0  0  0  0  0  0  0  0  0  0
  184.4990  178.0330  140.6150 C   0  0  0  0  0  3  0  0  0  0  0  0
  184.1440  178.3590  143.4280 C   0  0  0  0  0  0  0  0  0  0  0  0
  185.7540  177.9230  141.4420 C   0  0  0  0  0  2  0  0  0  0  0  0
  185.5080  178.0810  142.9210 C   0  0  0  0  0  0  0  0  0  0  0  0
  191.4740  175.6030  142.2750 C   0  0  0  0  0  3  0  0  0  0  0  0
  191.3290  177.0870  144.6470 C   0  0  0  0  0  3  0  0  0  0  0  0
  195.0320  175.6270  143.3050 C   0  0  0  0  0  0  0  0  0  0  0  0
  193.8650  175.3590  142.5730 C   0  0  0  0  0  3  0  0  0  0  0  0
  192.6330  175.8500  143.0130 C   0  0  0  0  0  0  0  0  0  0  0  0
  193.7230  176.8530  144.9410 C   0  0  0  0  0  3  0  0  0  0  0  0
  192.5620  176.6010  144.2060 C   0  0  0  0  0  0  0  0  0  0  0  0
  194.9540  176.3650  144.4920 C   0  0  0  0  0  3  0  0  0  0  0  0
  190.1600  176.8370  143.9090 C   0  0  0  0  0  0  0  0  0  0  0  0
  190.2440  176.0940  142.7230 C   0  0  0  0  0  3  0  0  0  0  0  0
  196.3510  175.0720  142.8750 C   0  0  0  0  0  3  0  0  0  0  0  0
  196.9290  175.9140  141.9200 O   0  0  0  0  0  1  0  0  0  0  0  0
  197.2130  174.9420  143.9690 O   0  0  0  0  0  1  0  0  0  0  0  0
  182.1330  178.3880  140.2940 N   0  0  0  0  0  2  0  0  0  0  0  0
  180.7770  178.6070  140.7830 C   0  0  0  0  0  3  0  0  0  0  0  0
  180.4280  180.0750  140.6500 C   0  0  0  0  0  1  0  0  0  0  0  0
  179.7860  177.7890  139.9730 C   0  0  0  0  0  1  0  0  0  0  0  0
  1 11  1  0  0  0  0
  2 15  2  0  0  0  0
  3 10  1  0  0  0  0
  4  6  1  0  0  0  0
  5  1  1  0  0  0  0
  5  9  1  0  0  0  0
  6  8  1  1  0  0  0
  8  7  1  0  0  0  0
  9  4  2  0  0  0  0
 10 12  1  0  0  0  0
 11 10  2  0  0  0  0
 11  6  1  0  0  0  0
 12  7  1  0  0  0  0
 13  2  1  0  0  0  0
 14 13  2  0  0  0  0
 14 16  1  0  0  0  0
 15  3  1  0  0  0  0
 16 17  1  0  0  0  0
 17 15  1  0  0  0  0
 17  1  2  0  0  0  0
 18 27  2  0  0  0  0
 18 22  1  0  0  0  0
 20 25  1  0  0  0  0
 21 22  1  0  0  0  0
 21 20  2  0  0  0  0
 22 24  2  0  0  0  0
 24 19  1  0  0  0  0
 24 23  1  0  0  0  0
 25 23  2  0  0  0  0
 26  9  1  0  0  0  0
 26 19  2  0  0  0  0
 27 26  1  0  0  0  0
 28 20  1  0  0  0  0
 28 30  1  0  0  0  0
 29 28  1  0  0  0  0
 31 32  1  0  0  0  0
 31 13  1  0  0  0  0
 33 32  1  0  0  0  0
 34 32  1  0  0  0  0
M  END
>  <MODEL>
1

>  <REMARK>
 VINA RESULT:      -8.5      0.000      0.000
  Name = 
  4 active torsions:
  status: ('A' for Active; 'I' for Inactive)
    1  A    between atoms: C_3  and  N_25
    2  A    between atoms: C_7  and  C_11
    3  A    between atoms: C_18  and  C_30
    4  A    between atoms: C_23  and  N_25
                            x       y       z     vdW  Elec       q    Type
                         _______ _______ _______ _____ _____    ______ ____

>  <TORSDO>
F 4

$$$$
=
 OpenBabel11052420303D

 34 39  0  0  1  0  0  0  0  0999 V2000
  186.4570  177.8150  143.4360 C   0  0  0  0  0  0  0  0  0  0  0  0
  182.9950  178.5730  142.6110 C   0  0  0  0  0  3  0  0  0  0  0  0
  184.0670  178.5130  144.7220 O   0  0  0  0  0  0  0  0  0  0  0  0
  188.7260  177.1590  145.0100 N   0  0  0  0  0  0  0  0  0  0  0  0
  187.7080  177.4180  142.8720 N   0  0  0  0  0  2  0  0  0  0  0  0
  187.6300  177.8270  145.7220 C   0  0  2  0  0  3  0  0  0  0  0  0
  185.9610  177.2970  147.6330 C   0  0  0  0  0  2  0  0  0  0  0  0
  187.4040  177.1880  147.1040 C   0  0  0  0  0  2  0  0  0  0  0  0
  188.8050  177.0300  143.7130 C   0  0  0  0  0  0  0  0  0  0  0  0
  185.2170  178.2860  145.4920 C   0  0  0  0  0  0  0  0  0  0  0  0
  186.3720  177.9460  144.9010 C   0  0  0  0  0  0  0  0  0  0  0  0
  185.1690  178.4350  146.9830 C   0  0  0  0  0  2  0  0  0  0  0  0
  182.9910  178.4160  141.1450 C   0  0  0  0  0  0  0  0  0  0  0  0
  184.1120  178.0830  140.4890 C   0  0  0  0  0  3  0  0  0  0  0  0
  184.1010  178.3820  143.3280 C   0  0  0  0  0  0  0  0  0  0  0  0
  185.4420  177.8690  141.1670 C   0  0  0  0  0  2  0  0  0  0  0  0
  185.3750  178.0170  142.6670 C   0  0  0  0  0  0  0  0  0  0  0  0
  192.4090  176.4720  142.7190 C   0  0  0  0  0  3  0  0  0  0  0  0
  189.9160  175.2450  142.3570 C   0  0  0  0  0  3  0  0  0  0  0  0
  193.3640  173.5380  140.6700 C   0  0  0  0  0  0  0  0  0  0  0  0
  193.4590  174.7310  141.4030 C   0  0  0  0  0  3  0  0  0  0  0  0
  192.3150  175.2970  141.9710 C   0  0  0  0  0  0  0  0  0  0  0  0
  190.9670  173.4960  141.0490 C   0  0  0  0  0  3  0  0  0  0  0  0
  191.0600  174.6750  141.7920 C   0  0  0  0  0  0  0  0  0  0  0  0
  192.1170  172.9310  140.4880 C   0  0  0  0  0  3  0  0  0  0  0  0
  190.0070  176.4290  143.1070 C   0  0  0  0  0  0  0  0  0  0  0  0
  191.2600  177.0350  143.2830 C   0  0  0  0  0  3  0  0  0  0  0  0
  194.5690  172.9430  140.0160 C   0  0  0  0  0  3  0  0  0  0  0  0
  194.1750  171.9470  139.1170 O   0  0  0  0  0  1  0  0  0  0  0  0
  195.2990  173.9250  139.3380 O   0  0  0  0  0  1  0  0  0  0  0  0
  181.7580  178.6110  140.4430 N   0  0  0  0  0  2  0  0  0  0  0  0
  180.5240  179.0830  141.0610 C   0  0  0  0  0  3  0  0  0  0  0  0
  180.0850  180.3650  140.3850 C   0  0  0  0  0  1  0  0  0  0  0  0
  179.4270  178.0440  140.9100 C   0  0  0  0  0  1  0  0  0  0  0  0
  1 11  1  0  0  0  0
  2 15  2  0  0  0  0
  3 10  1  0  0  0  0
  4  6  1  0  0  0  0
  5  1  1  0  0  0  0
  5  9  1  0  0  0  0
  6  8  1  1  0  0  0
  8  7  1  0  0  0  0
  9  4  2  0  0  0  0
 10 12  1  0  0  0  0
 11 10  2  0  0  0  0
 11  6  1  0  0  0  0
 12  7  1  0  0  0  0
 13  2  1  0  0  0  0
 14 13  2  0  0  0  0
 14 16  1  0  0  0  0
 15  3  1  0  0  0  0
 16 17  1  0  0  0  0
 17 15  1  0  0  0  0
 17  1  2  0  0  0  0
 18 27  1  0  0  0  0
 19 26  1  0  0  0  0
 20 21  2  0  0  0  0
 21 22  1  0  0  0  0
 22 18  2  0  0  0  0
 23 24  1  0  0  0  0
 24 22  1  0  0  0  0
 24 19  2  0  0  0  0
 25 20  1  0  0  0  0
 25 23  2  0  0  0  0
 26 27  2  0  0  0  0
 26  9  1  0  0  0  0
 28 20  1  0  0  0  0
 29 28  1  0  0  0  0
 30 28  1  0  0  0  0
 31 32  1  0  0  0  0
 31 13  1  0  0  0  0
 33 32  1  0  0  0  0
 34 32  1  0  0  0  0
M  END
>  <MODEL>
2

>  <REMARK>
 VINA RESULT:      -8.0      1.668      2.386
  Name = 
  4 active torsions:
  status: ('A' for Active; 'I' for Inactive)
    1  A    between atoms: C_3  and  N_25
    2  A    between atoms: C_7  and  C_11
    3  A    between atoms: C_18  and  C_30
    4  A    between atoms: C_23  and  N_25
                            x       y       z     vdW  Elec       q    Type
                         _______ _______ _______ _____ _____    ______ ____

>  <TORSDO>
F 4

$$$$
=
 OpenBabel11052420303D

 34 39  0  0  1  0  0  0  0  0999 V2000
  190.9160  177.1350  144.0400 C   0  0  0  0  0  0  0  0  0  0  0  0
  187.3850  177.9430  144.3850 C   0  0  0  0  0  3  0  0  0  0  0  0
  188.9290  177.1920  146.0150 O   0  0  0  0  0  0  0  0  0  0  0  0
  193.4730  176.0870  144.6890 N   0  0  0  0  0  0  0  0  0  0  0  0
  191.9810  177.0370  143.0930 N   0  0  0  0  0  2  0  0  0  0  0  0
  192.6020  176.3930  145.8300 C   0  0  2  0  0  3  0  0  0  0  0  0
  191.4240  175.1220  147.7570 C   0  0  0  0  0  2  0  0  0  0  0  0
  192.6930  175.2910  146.9000 C   0  0  0  0  0  2  0  0  0  0  0  0
  193.2340  176.4350  143.4530 C   0  0  0  0  0  0  0  0  0  0  0  0
  190.2220  176.7680  146.3580 C   0  0  0  0  0  0  0  0  0  0  0  0
  191.1890  176.7280  145.4290 C   0  0  0  0  0  0  0  0  0  0  0  0
  190.5380  176.3710  147.7670 C   0  0  0  0  0  2  0  0  0  0  0  0
  187.0240  178.3220  143.0060 C   0  0  0  0  0  0  0  0  0  0  0  0
  187.9440  178.3090  142.0300 C   0  0  0  0  0  3  0  0  0  0  0  0
  188.6240  177.5700  144.7020 C   0  0  0  0  0  0  0  0  0  0  0  0
  189.3890  177.9410  142.2510 C   0  0  0  0  0  2  0  0  0  0  0  0
  189.6890  177.5390  143.6740 C   0  0  0  0  0  0  0  0  0  0  0  0
  196.5580  176.0840  141.6900 C   0  0  0  0  0  3  0  0  0  0  0  0
  193.8380  175.6980  141.1400 C   0  0  0  0  0  3  0  0  0  0  0  0
  196.7140  174.8900  138.1870 C   0  0  0  0  0  0  0  0  0  0  0  0
  197.1150  175.3670  139.4440 C   0  0  0  0  0  3  0  0  0  0  0  0
  196.1610  175.6300  140.4310 C   0  0  0  0  0  0  0  0  0  0  0  0
  194.3940  174.9700  138.8960 C   0  0  0  0  0  3  0  0  0  0  0  0
  194.7910  175.4300  140.1540 C   0  0  0  0  0  0  0  0  0  0  0  0
  195.3540  174.7030  137.9150 C   0  0  0  0  0  3  0  0  0  0  0  0
  194.2340  176.1600  142.4060 C   0  0  0  0  0  0  0  0  0  0  0  0
  195.5990  176.3480  142.6710 C   0  0  0  0  0  3  0  0  0  0  0  0
  197.7160  174.6470  137.1050 C   0  0  0  0  0  3  0  0  0  0  0  0
  197.4600  173.4160  136.4920 O   0  0  0  0  0  1  0  0  0  0  0  0
  197.6670  175.6660  136.1480 O   0  0  0  0  0  1  0  0  0  0  0  0
  185.6660  178.6860  142.7330 N   0  0  0  0  0  2  0  0  0  0  0  0
  184.7710  177.9320  141.8620 C   0  0  0  0  0  3  0  0  0  0  0  0
  183.3360  178.2840  142.1930 C   0  0  0  0  0  1  0  0  0  0  0  0
  185.0410  178.2730  140.4080 C   0  0  0  0  0  1  0  0  0  0  0  0
  1 11  1  0  0  0  0
  2 15  2  0  0  0  0
  3 10  1  0  0  0  0
  4  6  1  0  0  0  0
  5  9  1  0  0  0  0
  5  1  1  0  0  0  0
  6  8  1  1  0  0  0
  7 12  1  0  0  0  0
  8  7  1  0  0  0  0
  9  4  2  0  0  0  0
 10 12  1  0  0  0  0
 11  6  1  0  0  0  0
 11 10  2  0  0  0  0
 13  2  1  0  0  0  0
 14 16  1  0  0  0  0
 14 13  2  0  0  0  0
 15  3  1  0  0  0  0
 16 17  1  0  0  0  0
 17  1  2  0  0  0  0
 17 15  1  0  0  0  0
 18 27  1  0  0  0  0
 19 26  1  0  0  0  0
 20 21  2  0  0  0  0
 21 22  1  0  0  0  0
 22 18  2  0  0  0  0
 23 24  1  0  0  0  0
 24 22  1  0  0  0  0
 24 19  2  0  0  0  0
 25 20  1  0  0  0  0
 25 23  2  0  0  0  0
 26 27  2  0  0  0  0
 26  9  1  0  0  0  0
 28 20  1  0  0  0  0
 29 28  1  0  0  0  0
 30 28  1  0  0  0  0
 31 13  1  0  0  0  0
 32 33  1  0  0  0  0
 32 31  1  0  0  0  0
 34 32  1  0  0  0  0
M  END
>  <MODEL>
3

>  <REMARK>
 VINA RESULT:      -7.9      3.121      5.164
  Name = 
  4 active torsions:
  status: ('A' for Active; 'I' for Inactive)
    1  A    between atoms: C_3  and  N_25
    2  A    between atoms: C_7  and  C_11
    3  A    between atoms: C_18  and  C_30
    4  A    between atoms: C_23  and  N_25
                            x       y       z     vdW  Elec       q    Type
                         _______ _______ _______ _____ _____    ______ ____

>  <TORSDO>
F 4

$$$$
=
 OpenBabel11052420303D

 34 39  0  0  1  0  0  0  0  0999 V2000
  194.5490  173.8830  144.0460 C   0  0  0  0  0  0  0  0  0  0  0  0
  196.3960  170.7640  144.3570 C   0  0  0  0  0  3  0  0  0  0  0  0
  196.9350  172.7240  143.1420 O   0  0  0  0  0  0  0  0  0  0  0  0
  193.7840  176.4240  143.0380 N   0  0  0  0  0  0  0  0  0  0  0  0
  193.3370  174.5380  144.4250 N   0  0  0  0  0  2  0  0  0  0  0  0
  195.1760  176.0330  142.7870 C   0  0  2  0  0  3  0  0  0  0  0  0
  196.7040  175.5170  140.7570 C   0  0  0  0  0  2  0  0  0  0  0  0
  195.6050  176.4140  141.3590 C   0  0  0  0  0  2  0  0  0  0  0  0
  192.9630  175.7920  143.8320 C   0  0  0  0  0  0  0  0  0  0  0  0
  196.6030  174.0200  142.7240 C   0  0  0  0  0  0  0  0  0  0  0  0
  195.4640  174.5960  143.1390 C   0  0  0  0  0  0  0  0  0  0  0  0
  197.5250  174.7820  141.8200 C   0  0  0  0  0  2  0  0  0  0  0  0
  195.5090  169.9710  145.2270 C   0  0  0  0  0  0  0  0  0  0  0  0
  194.3580  170.4860  145.6830 C   0  0  0  0  0  3  0  0  0  0  0  0
  196.0830  172.0050  143.9900 C   0  0  1  0  0  3  0  0  0  0  0  0
  193.8930  171.8870  145.3760 C   0  0  0  0  0  3  0  0  0  0  0  0
  194.8290  172.6370  144.4620 C   0  0  0  0  0  0  0  0  0  0  0  0
  189.7670  177.7620  143.3960 C   0  0  0  0  0  3  0  0  0  0  0  0
  190.8920  175.9620  145.2260 C   0  0  0  0  0  3  0  0  0  0  0  0
  187.0460  177.5140  145.8980 C   0  0  0  0  0  0  0  0  0  0  0  0
  187.7730  177.9080  144.7640 C   0  0  0  0  0  3  0  0  0  0  0  0
  189.0500  177.3880  144.5340 C   0  0  0  0  0  0  0  0  0  0  0  0
  188.8930  176.0990  146.5900 C   0  0  0  0  0  3  0  0  0  0  0  0
  189.6130  176.4770  145.4540 C   0  0  0  0  0  0  0  0  0  0  0  0
  187.6130  176.6180  146.8110 C   0  0  0  0  0  3  0  0  0  0  0  0
  191.6170  176.3400  144.0840 C   0  0  0  0  0  0  0  0  0  0  0  0
  191.0440  177.2410  143.1740 C   0  0  0  0  0  3  0  0  0  0  0  0
  185.6990  178.0940  146.1840 C   0  0  0  0  0  3  0  0  0  0  0  0
  184.7400  177.0770  146.1980 O   0  0  0  0  0  1  0  0  0  0  0  0
  185.6980  178.7560  147.4150 O   0  0  0  0  0  1  0  0  0  0  0  0
  195.8980  168.6320  145.5580 N   0  0  0  0  0  2  0  0  0  0  0  0
  196.1710  168.1660  146.9130 C   0  0  0  0  0  3  0  0  0  0  0  0
  197.1830  169.0860  147.5640 C   0  0  0  0  0  1  0  0  0  0  0  0
  194.8970  168.1700  147.7390 C   0  0  0  0  0  1  0  0  0  0  0  0
  1  5  1  0  0  0  0
  1 17  2  0  0  0  0
  2 13  2  0  0  0  0
  3 15  1  0  0  0  0
  4  9  2  0  0  0  0
  6  8  1  6  0  0  0
  6  4  1  0  0  0  0
  6 11  1  0  0  0  0
  7  8  1  0  0  0  0
  7 12  1  0  0  0  0
  9 26  1  0  0  0  0
  9  5  1  0  0  0  0
 10 11  2  0  0  0  0
 10  3  1  0  0  0  0
 11  1  1  0  0  0  0
 12 10  1  0  0  0  0
 13 31  1  0  0  0  0
 13 14  1  0  0  0  0
 15  2  1  6  0  0  0
 15 17  1  0  0  0  0
 16 14  2  0  0  0  0
 17 16  1  0  0  0  0
 18 22  1  0  0  0  0
 19 24  1  0  0  0  0
 20 28  1  0  0  0  0
 20 25  1  0  0  0  0
 21 20  2  0  0  0  0
 22 21  1  0  0  0  0
 22 24  2  0  0  0  0
 23 25  2  0  0  0  0
 24 23  1  0  0  0  0
 26 19  2  0  0  0  0
 27 18  2  0  0  0  0
 27 26  1  0  0  0  0
 28 29  1  0  0  0  0
 28 30  1  0  0  0  0
 31 32  1  0  0  0  0
 32 33  1  0  0  0  0
 32 34  1  0  0  0  0
M  END
>  <MODEL>
4

>  <REMARK>
 VINA RESULT:      -7.7      4.126     11.544
  Name = 
  4 active torsions:
  status: ('A' for Active; 'I' for Inactive)
    1  A    between atoms: C_3  and  N_25
    2  A    between atoms: C_7  and  C_11
    3  A    between atoms: C_18  and  C_30
    4  A    between atoms: C_23  and  N_25
                            x       y       z     vdW  Elec       q    Type
                         _______ _______ _______ _____ _____    ______ ____

>  <TORSDO>
F 4

$$$$
=
 OpenBabel11052420303D

 34 39  0  0  1  0  0  0  0  0999 V2000
  192.1780  172.6790  144.3610 C   0  0  0  0  0  0  0  0  0  0  0  0
  193.6080  170.0490  142.2940 C   0  0  0  0  0  3  0  0  0  0  0  0
  194.6720  171.5280  143.8060 O   0  0  0  0  0  0  0  0  0  0  0  0
  192.0590  174.9680  146.0360 N   0  0  0  0  0  0  0  0  0  0  0  0
  190.9570  173.3510  144.6760 N   0  0  0  0  0  2  0  0  0  0  0  0
  193.3280  174.2290  146.0570 C   0  0  2  0  0  3  0  0  0  0  0  0
  195.8090  174.6320  145.4240 C   0  0  0  0  0  2  0  0  0  0  0  0
  194.5250  175.1960  146.0630 C   0  0  0  0  0  2  0  0  0  0  0  0
  190.9600  174.5470  145.4720 C   0  0  0  0  0  0  0  0  0  0  0  0
  194.5980  172.5960  144.7120 C   0  0  0  0  0  0  0  0  0  0  0  0
  193.4160  173.1680  144.9910 C   0  0  0  0  0  0  0  0  0  0  0  0
  195.8370  173.1010  145.3880 C   0  0  0  0  0  2  0  0  0  0  0  0
  192.4190  169.5350  141.5900 C   0  0  0  0  0  0  0  0  0  0  0  0
  191.2060  170.0570  141.8250 C   0  0  0  0  0  3  0  0  0  0  0  0
  193.5200  171.0460  143.1730 C   0  0  0  0  0  0  0  0  0  0  0  0
  190.9540  171.1640  142.8160 C   0  0  0  0  0  2  0  0  0  0  0  0
  192.2100  171.6630  143.4830 C   0  0  0  0  0  0  0  0  0  0  0  0
  187.8170  176.0410  146.9460 C   0  0  0  0  0  3  0  0  0  0  0  0
  189.2570  176.1290  144.5450 C   0  0  0  0  0  3  0  0  0  0  0  0
  185.7370  178.3820  144.9680 C   0  0  0  0  0  0  0  0  0  0  0  0
  186.1840  177.5730  146.0240 C   0  0  0  0  0  3  0  0  0  0  0  0
  187.3580  176.8290  145.8890 C   0  0  0  0  0  0  0  0  0  0  0  0
  187.6300  177.6710  143.6250 C   0  0  0  0  0  3  0  0  0  0  0  0
  188.0860  176.8780  144.6810 C   0  0  0  0  0  0  0  0  0  0  0  0
  186.4570  178.4190  143.7680 C   0  0  0  0  0  3  0  0  0  0  0  0
  189.7190  175.3320  145.6060 C   0  0  0  0  0  0  0  0  0  0  0  0
  188.9900  175.2960  146.8040 C   0  0  0  0  0  3  0  0  0  0  0  0
  184.4590  179.1490  145.0770 C   0  0  0  0  0  3  0  0  0  0  0  0
  183.7390  179.0400  143.8830 O   0  0  0  0  0  1  0  0  0  0  0  0
  183.6840  178.6700  146.1370 O   0  0  0  0  0  1  0  0  0  0  0  0
  192.5950  168.4800  140.6370 N   0  0  0  0  0  2  0  0  0  0  0  0
  192.5300  168.6580  139.1900 C   0  0  0  0  0  3  0  0  0  0  0  0
  191.1230  168.3620  138.7130 C   0  0  0  0  0  1  0  0  0  0  0  0
  192.8870  170.0860  138.8190 C   0  0  0  0  0  1  0  0  0  0  0  0
  1  5  1  0  0  0  0
  1 11  1  0  0  0  0
  2 15  2  0  0  0  0
  3 10  1  0  0  0  0
  4  6  1  0  0  0  0
  5  9  1  0  0  0  0
  6  8  1  6  0  0  0
  7  8  1  0  0  0  0
  9 26  1  0  0  0  0
  9  4  2  0  0  0  0
 10 11  2  0  0  0  0
 10 12  1  0  0  0  0
 11  6  1  0  0  0  0
 12  7  1  0  0  0  0
 13 14  2  0  0  0  0
 13  2  1  0  0  0  0
 14 16  1  0  0  0  0
 15 17  1  0  0  0  0
 15  3  1  0  0  0  0
 16 17  1  0  0  0  0
 17  1  2  0  0  0  0
 19 24  2  0  0  0  0
 19 26  1  0  0  0  0
 20 28  1  0  0  0  0
 20 21  2  0  0  0  0
 22 21  1  0  0  0  0
 22 18  2  0  0  0  0
 23 25  2  0  0  0  0
 23 24  1  0  0  0  0
 24 22  1  0  0  0  0
 25 20  1  0  0  0  0
 26 27  2  0  0  0  0
 27 18  1  0  0  0  0
 28 30  1  0  0  0  0
 29 28  1  0  0  0  0
 31 13  1  0  0  0  0
 32 31  1  0  0  0  0
 33 32  1  0  0  0  0
 34 32  1  0  0  0  0
M  END
>  <MODEL>
5

>  <REMARK>
 VINA RESULT:      -7.7      4.170     10.186
  Name = 
  4 active torsions:
  status: ('A' for Active; 'I' for Inactive)
    1  A    between atoms: C_3  and  N_25
    2  A    between atoms: C_7  and  C_11
    3  A    between atoms: C_18  and  C_30
    4  A    between atoms: C_23  and  N_25
                            x       y       z     vdW  Elec       q    Type
                         _______ _______ _______ _____ _____    ______ ____

>  <TORSDO>
F 4

$$$$
=
 OpenBabel11052420303D

 34 39  0  0  1  0  0  0  0  0999 V2000
  191.9490  172.5320  142.7870 C   0  0  0  0  0  0  0  0  0  0  0  0
  194.6860  170.4120  143.9060 C   0  0  0  0  0  3  0  0  0  0  0  0
  193.5240  170.4150  141.8430 O   0  0  0  0  0  0  0  0  0  0  0  0
  189.7770  173.4440  141.2050 N   0  0  0  0  0  0  0  0  0  0  0  0
  191.0740  173.5830  143.1980 N   0  0  0  0  0  2  0  0  0  0  0  0
  190.7450  172.5800  140.5190 C   0  0  2  0  0  3  0  0  0  0  0  0
  190.7900  170.2490  139.3850 C   0  0  0  0  0  2  0  0  0  0  0  0
  190.0270  171.5690  139.6060 C   0  0  0  0  0  2  0  0  0  0  0  0
  189.9470  173.9610  142.3910 C   0  0  0  0  0  0  0  0  0  0  0  0
  192.5130  170.9350  141.0210 C   0  0  0  0  0  0  0  0  0  0  0  0
  191.7430  171.9450  141.4520 C   0  0  0  0  0  0  0  0  0  0  0  0
  192.2930  170.3760  139.6490 C   0  0  0  0  0  2  0  0  0  0  0  0
  194.9220  170.9160  145.2710 C   0  0  0  0  0  0  0  0  0  0  0  0
  194.1920  171.9280  145.7630 C   0  0  0  0  0  3  0  0  0  0  0  0
  193.7410  170.9330  143.1250 C   0  0  1  0  0  3  0  0  0  0  0  0
  193.1140  172.6340  144.9810 C   0  0  0  0  0  3  0  0  0  0  0  0
  192.9020  172.0560  143.6050 C   0  0  0  0  0  0  0  0  0  0  0  0
  186.9120  176.1990  142.6440 C   0  0  0  0  0  3  0  0  0  0  0  0
  189.0550  175.3770  144.2510 C   0  0  0  0  0  3  0  0  0  0  0  0
  186.1720  178.0220  145.7830 C   0  0  0  0  0  0  0  0  0  0  0  0
  186.0700  177.5610  144.4610 C   0  0  0  0  0  3  0  0  0  0  0  0
  187.0230  176.6760  143.9510 C   0  0  0  0  0  0  0  0  0  0  0  0
  188.2080  176.7310  146.0740 C   0  0  0  0  0  3  0  0  0  0  0  0
  188.1000  176.2580  144.7630 C   0  0  0  0  0  0  0  0  0  0  0  0
  187.2470  177.6120  146.5800 C   0  0  0  0  0  3  0  0  0  0  0  0
  188.9480  174.8990  142.9350 C   0  0  0  0  0  0  0  0  0  0  0  0
  187.8700  175.3160  142.1390 C   0  0  0  0  0  3  0  0  0  0  0  0
  185.1890  179.0040  146.3300 C   0  0  0  0  0  3  0  0  0  0  0  0
  184.0500  179.0340  145.5200 O   0  0  0  0  0  1  0  0  0  0  0  0
  184.8270  178.6640  147.6370 O   0  0  0  0  0  1  0  0  0  0  0  0
  195.9380  170.2880  146.0630 N   0  0  0  0  0  2  0  0  0  0  0  0
  195.8980  168.8960  146.5000 C   0  0  0  0  0  3  0  0  0  0  0  0
  197.1900  168.5590  147.2140 C   0  0  0  0  0  1  0  0  0  0  0  0
  194.7350  168.6760  147.4520 C   0  0  0  0  0  1  0  0  0  0  0  0
  1  5  1  0  0  0  0
  1 17  2  0  0  0  0
  2 13  2  0  0  0  0
  3 15  1  0  0  0  0
  4  9  2  0  0  0  0
  6  8  1  1  0  0  0
  6  4  1  0  0  0  0
  6 11  1  0  0  0  0
  7  8  1  0  0  0  0
  7 12  1  0  0  0  0
  9 26  1  0  0  0  0
  9  5  1  0  0  0  0
 10 11  2  0  0  0  0
 10  3  1  0  0  0  0
 11  1  1  0  0  0  0
 12 10  1  0  0  0  0
 13 14  1  0  0  0  0
 13 31  1  0  0  0  0
 15 17  1  0  0  0  0
 15  2  1  1  0  0  0
 16 14  2  0  0  0  0
 17 16  1  0  0  0  0
 18 22  1  0  0  0  0
 19 24  1  0  0  0  0
 20 28  1  0  0  0  0
 20 25  1  0  0  0  0
 21 20  2  0  0  0  0
 22 21  1  0  0  0  0
 22 24  2  0  0  0  0
 23 25  2  0  0  0  0
 24 23  1  0  0  0  0
 26 19  2  0  0  0  0
 27 18  2  0  0  0  0
 27 26  1  0  0  0  0
 28 30  1  0  0  0  0
 29 28  1  0  0  0  0
 31 32  1  0  0  0  0
 32 33  1  0  0  0  0
 32 34  1  0  0  0  0
M  END
>  <MODEL>
6

>  <REMARK>
 VINA RESULT:      -7.7      4.513     11.209
  Name = 
  4 active torsions:
  status: ('A' for Active; 'I' for Inactive)
    1  A    between atoms: C_3  and  N_25
    2  A    between atoms: C_7  and  C_11
    3  A    between atoms: C_18  and  C_30
    4  A    between atoms: C_23  and  N_25
                            x       y       z     vdW  Elec       q    Type
                         _______ _______ _______ _____ _____    ______ ____

>  <TORSDO>
F 4

$$$$
=
 OpenBabel11052420303D

 34 39  0  0  1  0  0  0  0  0999 V2000
  194.6190  174.6670  142.4130 C   0  0  0  0  0  0  0  0  0  0  0  0
  197.1310  174.3040  139.8060 C   0  0  0  0  0  3  0  0  0  0  0  0
  197.2500  173.7530  142.1060 O   0  0  0  0  0  0  0  0  0  0  0  0
  193.4970  174.7840  145.0170 N   0  0  0  0  0  0  0  0  0  0  0  0
  193.2990  175.1470  142.6710 N   0  0  0  0  0  2  0  0  0  0  0  0
  194.7300  173.9970  144.8900 C   0  0  2  0  0  3  0  0  0  0  0  0
  197.1670  174.0690  145.7710 C   0  0  0  0  0  2  0  0  0  0  0  0
  195.6690  174.2530  146.0830 C   0  0  0  0  0  2  0  0  0  0  0  0
  192.8030  175.2510  144.0150 C   0  0  0  0  0  0  0  0  0  0  0  0
  196.6580  173.7180  143.3760 C   0  0  0  0  0  0  0  0  0  0  0  0
  195.4010  174.1540  143.5500 C   0  0  0  0  0  0  0  0  0  0  0  0
  197.4190  173.1800  144.5500 C   0  0  0  0  0  2  0  0  0  0  0  0
  196.4280  174.8450  138.6290 C   0  0  0  0  0  0  0  0  0  0  0  0
  195.1680  175.2930  138.7300 C   0  0  0  0  0  3  0  0  0  0  0  0
  196.5470  174.2500  141.0020 C   0  0  0  0  0  0  0  0  0  0  0  0
  194.3740  175.2630  140.0110 C   0  0  0  0  0  2  0  0  0  0  0  0
  195.1550  174.7230  141.1830 C   0  0  0  0  0  0  0  0  0  0  0  0
  189.9200  177.6710  143.6740 C   0  0  0  0  0  3  0  0  0  0  0  0
  190.6790  175.5260  145.3090 C   0  0  0  0  0  3  0  0  0  0  0  0
  187.0240  177.4870  145.9770 C   0  0  0  0  0  0  0  0  0  0  0  0
  187.8720  177.9160  144.9430 C   0  0  0  0  0  3  0  0  0  0  0  0
  189.0850  177.2610  144.7150 C   0  0  0  0  0  0  0  0  0  0  0  0
  188.6250  175.7620  146.5740 C   0  0  0  0  0  3  0  0  0  0  0  0
  189.4640  176.1770  145.5360 C   0  0  0  0  0  0  0  0  0  0  0  0
  187.4100  176.4180  146.7940 C   0  0  0  0  0  3  0  0  0  0  0  0
  191.5240  175.9400  144.2650 C   0  0  0  0  0  0  0  0  0  0  0  0
  191.1340  177.0140  143.4520 C   0  0  0  0  0  3  0  0  0  0  0  0
  185.7460  178.2040  146.2660 C   0  0  0  0  0  3  0  0  0  0  0  0
  184.7290  177.2760  146.5100 O   0  0  0  0  0  1  0  0  0  0  0  0
  185.8900  179.0440  147.3740 O   0  0  0  0  0  1  0  0  0  0  0  0
  197.1290  174.8970  137.3800 N   0  0  0  0  0  2  0  0  0  0  0  0
  196.4910  175.1110  136.0860 C   0  0  0  0  0  3  0  0  0  0  0  0
  196.8180  176.5040  135.5920 C   0  0  0  0  0  1  0  0  0  0  0  0
  196.9960  174.0970  135.0760 C   0  0  0  0  0  1  0  0  0  0  0  0
  1  5  1  0  0  0  0
  1 11  1  0  0  0  0
  2 15  2  0  0  0  0
  3 10  1  0  0  0  0
  5  9  1  0  0  0  0
  6  4  1  0  0  0  0
  6  8  1  1  0  0  0
  7  8  1  0  0  0  0
  9 26  1  0  0  0  0
  9  4  2  0  0  0  0
 10 11  2  0  0  0  0
 10 12  1  0  0  0  0
 11  6  1  0  0  0  0
 12  7  1  0  0  0  0
 13 14  2  0  0  0  0
 13  2  1  0  0  0  0
 14 16  1  0  0  0  0
 15 17  1  0  0  0  0
 15  3  1  0  0  0  0
 16 17  1  0  0  0  0
 17  1  2  0  0  0  0
 18 22  1  0  0  0  0
 19 24  1  0  0  0  0
 20 28  1  0  0  0  0
 20 25  1  0  0  0  0
 21 20  2  0  0  0  0
 22 21  1  0  0  0  0
 22 24  2  0  0  0  0
 23 25  2  0  0  0  0
 24 23  1  0  0  0  0
 26 19  2  0  0  0  0
 27 18  2  0  0  0  0
 27 26  1  0  0  0  0
 28 29  1  0  0  0  0
 28 30  1  0  0  0  0
 31 13  1  0  0  0  0
 32 31  1  0  0  0  0
 33 32  1  0  0  0  0
 34 32  1  0  0  0  0
M  END
>  <MODEL>
7

>  <REMARK>
 VINA RESULT:      -7.5      4.118     10.762
  Name = 
  4 active torsions:
  status: ('A' for Active; 'I' for Inactive)
    1  A    between atoms: C_3  and  N_25
    2  A    between atoms: C_7  and  C_11
    3  A    between atoms: C_18  and  C_30
    4  A    between atoms: C_23  and  N_25
                            x       y       z     vdW  Elec       q    Type
                         _______ _______ _______ _____ _____    ______ ____

>  <TORSDO>
F 4

$$$$
=
 OpenBabel11052420303D

 34 39  0  0  1  0  0  0  0  0999 V2000
  192.0270  172.6980  142.7200 C   0  0  0  0  0  0  0  0  0  0  0  0
  193.1650  171.2170  139.5970 C   0  0  0  0  0  3  0  0  0  0  0  0
  194.3150  171.4830  141.6500 O   0  0  0  0  0  0  0  0  0  0  0  0
  192.1520  173.8120  145.3270 N   0  0  0  0  0  0  0  0  0  0  0  0
  190.9240  173.3630  143.3360 N   0  0  0  0  0  2  0  0  0  0  0  0
  193.2550  172.9140  144.9660 C   0  0  2  0  0  3  0  0  0  0  0  0
  195.8210  173.0460  144.6210 C   0  0  0  0  0  2  0  0  0  0  0  0
  194.6010  173.4710  145.4620 C   0  0  0  0  0  2  0  0  0  0  0  0
  191.0590  173.9700  144.6300 C   0  0  0  0  0  0  0  0  0  0  0  0
  194.3420  171.9450  142.9740 C   0  0  0  0  0  0  0  0  0  0  0  0
  193.2610  172.5340  143.5080 C   0  0  0  0  0  0  0  0  0  0  0  0
  195.5730  171.7720  143.8100 C   0  0  0  0  0  2  0  0  0  0  0  0
  191.9830  171.3860  138.7320 C   0  0  0  0  0  0  0  0  0  0  0  0
  190.8680  171.9630  139.2030 C   0  0  0  0  0  3  0  0  0  0  0  0
  193.1680  171.6350  140.8620 C   0  0  0  0  0  0  0  0  0  0  0  0
  190.7170  172.4520  140.6210 C   0  0  0  0  0  2  0  0  0  0  0  0
  191.9670  172.2750  141.4470 C   0  0  0  0  0  0  0  0  0  0  0  0
  188.5500  175.5210  146.9930 C   0  0  0  0  0  3  0  0  0  0  0  0
  189.3420  175.7630  144.3160 C   0  0  0  0  0  3  0  0  0  0  0  0
  186.2780  178.2060  145.8300 C   0  0  0  0  0  0  0  0  0  0  0  0
  186.8950  177.2590  146.6610 C   0  0  0  0  0  3  0  0  0  0  0  0
  187.9200  176.4500  146.1620 C   0  0  0  0  0  0  0  0  0  0  0  0
  187.6950  177.5090  143.9850 C   0  0  0  0  0  3  0  0  0  0  0  0
  188.3210  176.5750  144.8150 C   0  0  0  0  0  0  0  0  0  0  0  0
  186.6740  178.3200  144.4920 C   0  0  0  0  0  3  0  0  0  0  0  0
  189.9750  174.8240  145.1480 C   0  0  0  0  0  0  0  0  0  0  0  0
  189.5710  174.7120  146.4870 C   0  0  0  0  0  3  0  0  0  0  0  0
  185.1510  179.0480  146.3320 C   0  0  0  0  0  3  0  0  0  0  0  0
  184.0800  178.9880  145.4350 O   0  0  0  0  0  1  0  0  0  0  0  0
  184.7320  178.6110  147.5930 O   0  0  0  0  0  1  0  0  0  0  0  0
  192.0630  170.9370  137.3740 N   0  0  0  0  0  2  0  0  0  0  0  0
  191.0290  170.1570  136.7030 C   0  0  0  0  0  3  0  0  0  0  0  0
  190.8290  170.6930  135.3010 C   0  0  0  0  0  1  0  0  0  0  0  0
  191.4410  168.6980  136.6200 C   0  0  0  0  0  1  0  0  0  0  0  0
  1  5  1  0  0  0  0
  1 11  1  0  0  0  0
  2 15  2  0  0  0  0
  3 10  1  0  0  0  0
  5  9  1  0  0  0  0
  6  4  1  0  0  0  0
  6  8  1  6  0  0  0
  7  8  1  0  0  0  0
  9 26  1  0  0  0  0
  9  4  2  0  0  0  0
 10 11  2  0  0  0  0
 10 12  1  0  0  0  0
 11  6  1  0  0  0  0
 12  7  1  0  0  0  0
 13 14  2  0  0  0  0
 13  2  1  0  0  0  0
 14 16  1  0  0  0  0
 15 17  1  0  0  0  0
 15  3  1  0  0  0  0
 16 17  1  0  0  0  0
 17  1  2  0  0  0  0
 19 24  2  0  0  0  0
 19 26  1  0  0  0  0
 20 28  1  0  0  0  0
 20 21  2  0  0  0  0
 22 21  1  0  0  0  0
 22 18  2  0  0  0  0
 23 25  2  0  0  0  0
 23 24  1  0  0  0  0
 24 22  1  0  0  0  0
 25 20  1  0  0  0  0
 26 27  2  0  0  0  0
 27 18  1  0  0  0  0
 28 30  1  0  0  0  0
 29 28  1  0  0  0  0
 31 13  1  0  0  0  0
 32 31  1  0  0  0  0
 33 32  1  0  0  0  0
 34 32  1  0  0  0  0
M  END
>  <MODEL>
8

>  <REMARK>
 VINA RESULT:      -7.5      4.331      9.870
  Name = 
  4 active torsions:
  status: ('A' for Active; 'I' for Inactive)
    1  A    between atoms: C_3  and  N_25
    2  A    between atoms: C_7  and  C_11
    3  A    between atoms: C_18  and  C_30
    4  A    between atoms: C_23  and  N_25
                            x       y       z     vdW  Elec       q    Type
                         _______ _______ _______ _____ _____    ______ ____

>  <TORSDO>
F 4

$$$$
=
 OpenBabel11052420303D

 34 39  0  0  1  0  0  0  0  0999 V2000
  192.7550  174.3800  142.2060 C   0  0  0  0  0  0  0  0  0  0  0  0
  194.0900  173.1750  139.0430 C   0  0  0  0  0  3  0  0  0  0  0  0
  195.2220  174.0980  140.9070 O   0  0  0  0  0  0  0  0  0  0  0  0
  192.6630  175.7120  144.7110 N   0  0  0  0  0  0  0  0  0  0  0  0
  191.5420  174.5980  142.9280 N   0  0  0  0  0  2  0  0  0  0  0  0
  193.9980  175.3100  144.2530 C   0  0  2  0  0  3  0  0  0  0  0  0
  196.2260  176.4390  143.5620 C   0  0  0  0  0  2  0  0  0  0  0  0
  195.0310  176.4160  144.5340 C   0  0  0  0  0  2  0  0  0  0  0  0
  191.5400  175.3390  144.1580 C   0  0  0  0  0  0  0  0  0  0  0  0
  195.1850  174.6660  142.1880 C   0  0  0  0  0  0  0  0  0  0  0  0
  194.0160  174.8160  142.8300 C   0  0  0  0  0  0  0  0  0  0  0  0
  196.4530  175.0980  142.8600 C   0  0  0  0  0  2  0  0  0  0  0  0
  192.8650  172.7580  138.3360 C   0  0  0  0  0  0  0  0  0  0  0  0
  191.6640  172.8750  138.9200 C   0  0  0  0  0  3  0  0  0  0  0  0
  194.0440  173.6870  140.2720 C   0  0  1  0  0  3  0  0  0  0  0  0
  191.4660  173.4050  140.3180 C   0  0  0  0  0  3  0  0  0  0  0  0
  192.7500  173.8390  140.9770 C   0  0  0  0  0  0  0  0  0  0  0  0
  188.6660  175.5510  146.6040 C   0  0  0  0  0  3  0  0  0  0  0  0
  189.4040  176.6410  144.1300 C   0  0  0  0  0  3  0  0  0  0  0  0
  185.7670  177.7510  145.9150 C   0  0  0  0  0  0  0  0  0  0  0  0
  186.6060  176.8230  146.5510 C   0  0  0  0  0  3  0  0  0  0  0  0
  187.8200  176.4570  145.9630 C   0  0  0  0  0  0  0  0  0  0  0  0
  187.3480  177.9230  144.0810 C   0  0  0  0  0  3  0  0  0  0  0  0
  188.1930  177.0110  144.7190 C   0  0  0  0  0  0  0  0  0  0  0  0
  186.1370  178.2890  144.6780 C   0  0  0  0  0  3  0  0  0  0  0  0
  190.2560  175.7260  144.7710 C   0  0  0  0  0  0  0  0  0  0  0  0
  189.8780  175.1870  146.0090 C   0  0  0  0  0  3  0  0  0  0  0  0
  184.4440  178.1190  146.5060 C   0  0  0  0  0  3  0  0  0  0  0  0
  184.6310  178.6670  147.7780 O   0  0  0  0  0  1  0  0  0  0  0  0
  183.7790  179.0400  145.6910 O   0  0  0  0  0  1  0  0  0  0  0  0
  192.9890  172.2420  137.0050 N   0  0  0  0  0  2  0  0  0  0  0  0
  191.8960  172.1790  136.0420 C   0  0  0  0  0  3  0  0  0  0  0  0
  192.3740  172.7110  134.7070 C   0  0  0  0  0  1  0  0  0  0  0  0
  191.4320  170.7440  135.8640 C   0  0  0  0  0  1  0  0  0  0  0  0
  1 11  1  0  0  0  0
  1  5  1  0  0  0  0
  3 10  1  0  0  0  0
  5  9  1  0  0  0  0
  6  8  1  6  0  0  0
  6  4  1  0  0  0  0
  7  8  1  0  0  0  0
  9  4  2  0  0  0  0
  9 26  1  0  0  0  0
 10 11  2  0  0  0  0
 10 12  1  0  0  0  0
 11  6  1  0  0  0  0
 12  7  1  0  0  0  0
 13 14  1  0  0  0  0
 13  2  2  0  0  0  0
 14 16  2  0  0  0  0
 15  2  1  6  0  0  0
 15  3  1  0  0  0  0
 15 17  1  0  0  0  0
 16 17  1  0  0  0  0
 17  1  2  0  0  0  0
 19 24  2  0  0  0  0
 19 26  1  0  0  0  0
 20 28  1  0  0  0  0
 20 21  2  0  0  0  0
 22 21  1  0  0  0  0
 22 18  2  0  0  0  0
 23 25  2  0  0  0  0
 23 24  1  0  0  0  0
 24 22  1  0  0  0  0
 25 20  1  0  0  0  0
 26 27  2  0  0  0  0
 27 18  1  0  0  0  0
 28 29  1  0  0  0  0
 30 28  1  0  0  0  0
 31 13  1  0  0  0  0
 32 31  1  0  0  0  0
 33 32  1  0  0  0  0
 34 32  1  0  0  0  0
M  END
>  <MODEL>
9

>  <REMARK>
 VINA RESULT:      -7.4      3.682      9.808
  Name = 
  4 active torsions:
  status: ('A' for Active; 'I' for Inactive)
    1  A    between atoms: C_3  and  N_25
    2  A    between atoms: C_7  and  C_11
    3  A    between atoms: C_18  and  C_30
    4  A    between atoms: C_23  and  N_25
                            x       y       z     vdW  Elec       q    Type
                         _______ _______ _______ _____ _____    ______ ____

>  <TORSDO>
F 4

$$$$
