=
 OpenBabel11052418013D

 28 31  0  0  1  0  0  0  0  0999 V2000
  192.4720  176.2440  144.9480 C   0  0  1  0  0  3  0  0  0  0  0  0
  188.3510  176.9310  142.2380 C   0  0  0  0  0  3  0  0  0  0  0  0
  189.2780  174.5350  146.7710 O   0  0  0  0  0  0  0  0  0  0  0  0
  186.6880  177.7990  143.7830 C   0  0  0  0  0  0  0  0  0  0  0  0
  188.8060  176.9370  144.6400 C   0  0  0  0  0  0  0  0  0  0  0  0
  186.2510  177.8030  141.4010 C   0  0  0  0  0  0  0  0  0  0  0  0
  187.9540  177.2090  143.5540 C   0  0  0  0  0  0  0  0  0  0  0  0
  187.1080  177.7950  146.1650 C   0  0  0  0  0  3  0  0  0  0  0  0
  185.8460  178.0910  142.7070 C   0  0  0  0  0  3  0  0  0  0  0  0
  189.7930  175.5750  147.2600 C   0  0  0  0  0  0  0  0  0  0  0  0
  190.1200  176.4100  144.4040 N   0  0  0  0  0  0  0  0  0  0  0  0
  186.2810  178.1000  145.0830 C   0  0  0  0  0  3  0  0  0  0  0  0
  192.1860  174.8860  147.0770 C   0  0  0  0  0  2  0  0  0  0  0  0
  189.1390  176.8420  147.1120 N   0  0  0  0  0  2  0  0  0  0  0  0
  191.1050  175.4940  147.9730 C   0  0  0  0  0  2  0  0  0  0  0  0
  185.3520  178.1140  140.2590 C   0  0  0  0  0  1  0  0  0  0  0  0
  187.5020  177.2240  141.1670 C   0  0  0  0  0  3  0  0  0  0  0  0
  188.3510  177.1900  145.9630 C   0  0  0  0  0  0  0  0  0  0  0  0
  193.0050  175.9530  146.3510 C   0  0  0  0  0  2  0  0  0  0  0  0
  191.1470  176.9080  145.0130 C   0  0  0  0  0  3  0  0  0  0  0  0
  193.4780  176.9910  144.0560 C   0  0  0  0  0  2  0  0  0  0  0  0
  194.5730  176.2000  143.3060 C   0  0  2  0  0  3  0  0  0  0  0  0
  196.0620  174.9160  144.1530 C   0  0  1  0  0  3  0  0  0  0  0  0
  194.6390  174.7240  143.6520 C   0  0  2  0  0  3  0  0  0  0  0  0
  196.8400  176.7100  142.7930 O   0  0  0  0  0  1  0  0  0  0  0  0
  195.9780  176.4020  143.8460 C   0  0  1  0  0  3  0  0  0  0  0  0
  196.1040  174.7210  145.5340 O   0  0  0  0  0  1  0  0  0  0  0  0
  194.6580  173.9720  142.4760 O   0  0  0  0  0  1  0  0  0  0  0  0
  1 21  1  1  0  0  0
  1 20  1  0  0  0  0
  1 19  1  0  0  0  0
  2  7  1  0  0  0  0
  3 10  2  0  0  0  0
  4 12  1  0  0  0  0
  5 18  2  0  0  0  0
  6  9  2  0  0  0  0
  7  4  2  0  0  0  0
  7  5  1  0  0  0  0
  9  4  1  0  0  0  0
 10 15  1  0  0  0  0
 11  5  1  0  0  0  0
 11 20  2  0  0  0  0
 12  8  2  0  0  0  0
 13 15  1  0  0  0  0
 14 10  1  0  0  0  0
 16  6  1  0  0  0  0
 17  6  1  0  0  0  0
 17  2  2  0  0  0  0
 18  8  1  0  0  0  0
 18 14  1  0  0  0  0
 19 13  1  0  0  0  0
 22 24  1  0  0  0  0
 22 26  1  0  0  0  0
 22 21  1  1  0  0  0
 23 27  1  1  0  0  0
 24 28  1  6  0  0  0
 24 23  1  0  0  0  0
 26 25  1  6  0  0  0
 26 23  1  0  0  0  0
M  END
>  <MODEL>
1

>  <REMARK>
 VINA RESULT:      -8.2      0.000      0.000
  Name = 
  2 active torsions:
  status: ('A' for Active; 'I' for Inactive)
    1  A    between atoms: C_1  and  C_2
    2  A    between atoms: C_2  and  C_3
                            x       y       z     vdW  Elec       q    Type
                         _______ _______ _______ _____ _____    ______ ____

>  <TORSDO>
F 2

$$$$
=
 OpenBabel11052418013D

 28 31  0  0  1  0  0  0  0  0999 V2000
  187.8620  176.7600  142.1790 C   0  0  1  0  0  3  0  0  0  0  0  0
  189.7190  177.3000  146.7680 C   0  0  0  0  0  3  0  0  0  0  0  0
  189.3850  173.2460  143.5130 O   0  0  0  0  0  0  0  0  0  0  0  0
  191.9530  176.3460  146.6860 C   0  0  0  0  0  0  0  0  0  0  0  0
  190.4320  176.0330  144.8020 C   0  0  0  0  0  0  0  0  0  0  0  0
  191.2440  177.6150  148.6240 C   0  0  0  0  0  0  0  0  0  0  0  0
  190.6890  176.5530  146.0840 C   0  0  0  0  0  0  0  0  0  0  0  0
  192.6720  175.0720  144.7610 C   0  0  0  0  0  3  0  0  0  0  0  0
  192.2220  176.8780  147.9510 C   0  0  0  0  0  3  0  0  0  0  0  0
  189.9810  173.8790  142.6000 C   0  0  0  0  0  0  0  0  0  0  0  0
  189.1790  176.3070  144.1580 N   0  0  0  0  0  0  0  0  0  0  0  0
  192.9380  175.6220  146.0160 C   0  0  0  0  0  3  0  0  0  0  0  0
  187.9840  174.4170  141.2010 C   0  0  0  0  0  2  0  0  0  0  0  0
  191.1790  174.6090  142.8940 N   0  0  0  0  0  2  0  0  0  0  0  0
  189.4220  173.8940  141.2140 C   0  0  0  0  0  2  0  0  0  0  0  0
  191.5330  178.1770  149.9690 C   0  0  0  0  0  1  0  0  0  0  0  0
  189.9950  177.8260  148.0330 C   0  0  0  0  0  3  0  0  0  0  0  0
  191.4240  175.2430  144.1590 C   0  0  0  0  0  0  0  0  0  0  0  0
  187.9160  175.9160  140.9060 C   0  0  0  0  0  2  0  0  0  0  0  0
  189.1450  176.6820  142.9200 C   0  0  0  0  0  3  0  0  0  0  0  0
  187.3940  178.2040  141.9340 C   0  0  0  0  0  2  0  0  0  0  0  0
  186.0390  178.6800  142.5060 C   0  0  2  0  0  3  0  0  0  0  0  0
  185.0090  177.9140  144.2190 C   0  0  1  0  0  3  0  0  0  0  0  0
  186.0520  178.9950  143.9900 C   0  0  2  0  0  3  0  0  0  0  0  0
  183.8090  177.9250  142.1610 O   0  0  0  0  0  1  0  0  0  0  0  0
  185.0290  177.5710  142.7380 C   0  0  1  0  0  3  0  0  0  0  0  0
  185.5690  176.8670  144.9530 O   0  0  0  0  0  1  0  0  0  0  0  0
  185.4780  180.2490  144.2040 O   0  0  0  0  0  1  0  0  0  0  0  0
  1 21  1  6  0  0  0
  1 20  1  0  0  0  0
  2 17  1  0  0  0  0
  4  9  2  0  0  0  0
  5  7  1  0  0  0  0
  6 16  1  0  0  0  0
  7  4  1  0  0  0  0
  7  2  2  0  0  0  0
  8 12  2  0  0  0  0
  9  6  1  0  0  0  0
 10 14  1  0  0  0  0
 10  3  2  0  0  0  0
 11  5  1  0  0  0  0
 12  4  1  0  0  0  0
 13 15  1  0  0  0  0
 14 18  1  0  0  0  0
 15 10  1  0  0  0  0
 17  6  2  0  0  0  0
 18  8  1  0  0  0  0
 18  5  2  0  0  0  0
 19 13  1  0  0  0  0
 19  1  1  0  0  0  0
 20 11  2  0  0  0  0
 22 21  1  1  0  0  0
 22 26  1  0  0  0  0
 22 24  1  0  0  0  0
 23 27  1  1  0  0  0
 24 28  1  6  0  0  0
 24 23  1  0  0  0  0
 26 25  1  6  0  0  0
 26 23  1  0  0  0  0
M  END
>  <MODEL>
2

>  <REMARK>
 VINA RESULT:      -8.2      3.010      7.708
  Name = 
  2 active torsions:
  status: ('A' for Active; 'I' for Inactive)
    1  A    between atoms: C_1  and  C_2
    2  A    between atoms: C_2  and  C_3
                            x       y       z     vdW  Elec       q    Type
                         _______ _______ _______ _____ _____    ______ ____

>  <TORSDO>
F 2

$$$$
=
 OpenBabel11052418013D

 28 31  0  0  1  0  0  0  0  0999 V2000
  187.4390  177.0070  145.4720 C   0  0  1  0  0  3  0  0  0  0  0  0
  188.5400  174.8600  141.1150 C   0  0  0  0  0  3  0  0  0  0  0  0
  191.4470  176.5020  145.1150 O   0  0  0  0  0  0  0  0  0  0  0  0
  190.0110  173.0030  141.6540 C   0  0  0  0  0  0  0  0  0  0  0  0
  189.4400  174.6360  143.3780 C   0  0  0  0  0  0  0  0  0  0  0  0
  189.1040  173.2240  139.4200 C   0  0  0  0  0  0  0  0  0  0  0  0
  189.3330  174.1800  142.0510 C   0  0  0  0  0  0  0  0  0  0  0  0
  190.9300  172.7720  143.8790 C   0  0  0  0  0  3  0  0  0  0  0  0
  189.8920  172.5330  140.3430 C   0  0  0  0  0  3  0  0  0  0  0  0
  190.7980  175.7920  145.9290 C   0  0  0  0  0  0  0  0  0  0  0  0
  188.6930  175.7850  143.8010 N   0  0  0  0  0  0  0  0  0  0  0  0
  190.7920  172.3010  142.5730 C   0  0  0  0  0  3  0  0  0  0  0  0
  189.4220  177.6110  146.9430 C   0  0  0  0  0  2  0  0  0  0  0  0
  190.5110  174.4210  145.6210 N   0  0  0  0  0  2  0  0  0  0  0  0
  190.3010  176.3870  147.2070 C   0  0  0  0  0  2  0  0  0  0  0  0
  188.9810  172.7230  138.0260 C   0  0  0  0  0  1  0  0  0  0  0  0
  188.4280  174.3860  139.8060 C   0  0  0  0  0  3  0  0  0  0  0  0
  190.2900  173.9450  144.2850 C   0  0  0  0  0  0  0  0  0  0  0  0
  187.9350  177.2580  146.8960 C   0  0  0  0  0  2  0  0  0  0  0  0
  188.0360  175.7680  144.9150 C   0  0  0  0  0  3  0  0  0  0  0  0
  185.9080  177.0490  145.3430 C   0  0  0  0  0  2  0  0  0  0  0  0
  185.2460  178.0650  144.3840 C   0  0  2  0  0  3  0  0  0  0  0  0
  186.0270  178.8090  142.5350 C   0  0  1  0  0  3  0  0  0  0  0  0
  185.1730  177.6170  142.9360 C   0  0  2  0  0  3  0  0  0  0  0  0
  185.4410  180.4280  144.1820 O   0  0  0  0  0  1  0  0  0  0  0  0
  186.1340  179.2320  143.9920 C   0  0  1  0  0  3  0  0  0  0  0  0
  187.2700  178.3670  142.0810 O   0  0  0  0  0  1  0  0  0  0  0  0
  183.8740  177.7940  142.4590 O   0  0  0  0  0  1  0  0  0  0  0  0
  1 21  1  1  0  0  0
  1 19  1  0  0  0  0
  2  7  1  0  0  0  0
  3 10  2  0  0  0  0
  4  7  2  0  0  0  0
  4 12  1  0  0  0  0
  5 11  1  0  0  0  0
  5 18  2  0  0  0  0
  6 17  1  0  0  0  0
  6  9  2  0  0  0  0
  7  5  1  0  0  0  0
  8 18  1  0  0  0  0
  9  4  1  0  0  0  0
 10 15  1  0  0  0  0
 11 20  2  0  0  0  0
 12  8  2  0  0  0  0
 13 15  1  0  0  0  0
 14 10  1  0  0  0  0
 16  6  1  0  0  0  0
 17  2  2  0  0  0  0
 18 14  1  0  0  0  0
 19 13  1  0  0  0  0
 20  1  1  0  0  0  0
 22 21  1  1  0  0  0
 23 27  1  1  0  0  0
 23 24  1  0  0  0  0
 23 26  1  0  0  0  0
 24 28  1  6  0  0  0
 24 22  1  0  0  0  0
 26 25  1  6  0  0  0
 26 22  1  0  0  0  0
M  END
>  <MODEL>
3

>  <REMARK>
 VINA RESULT:      -8.1      3.628      6.794
  Name = 
  2 active torsions:
  status: ('A' for Active; 'I' for Inactive)
    1  A    between atoms: C_1  and  C_2
    2  A    between atoms: C_2  and  C_3
                            x       y       z     vdW  Elec       q    Type
                         _______ _______ _______ _____ _____    ______ ____

>  <TORSDO>
F 2

$$$$
=
 OpenBabel11052418013D

 28 31  0  0  1  0  0  0  0  0999 V2000
  194.3100  172.9300  145.4670 C   0  0  1  0  0  3  0  0  0  0  0  0
  190.0400  175.1200  146.7950 C   0  0  0  0  0  3  0  0  0  0  0  0
  194.8430  176.9270  145.8960 O   0  0  0  0  0  0  0  0  0  0  0  0
  189.7560  176.9840  145.2620 C   0  0  0  0  0  0  0  0  0  0  0  0
  191.8710  175.7650  145.3080 C   0  0  0  0  0  0  0  0  0  0  0  0
  187.9420  176.3300  146.7270 C   0  0  0  0  0  0  0  0  0  0  0  0
  190.5660  175.9550  145.7980 C   0  0  0  0  0  0  0  0  0  0  0  0
  191.5610  177.6530  143.7980 C   0  0  0  0  0  3  0  0  0  0  0  0
  188.4500  177.1650  145.7300 C   0  0  0  0  0  3  0  0  0  0  0  0
  194.8630  176.4140  144.7450 C   0  0  0  0  0  0  0  0  0  0  0  0
  192.6650  174.6740  145.7960 N   0  0  0  0  0  0  0  0  0  0  0  0
  190.2530  177.8150  144.2580 C   0  0  0  0  0  3  0  0  0  0  0  0
  196.3280  174.4630  145.2700 C   0  0  0  0  0  2  0  0  0  0  0  0
  193.7410  176.5710  143.8670 N   0  0  0  0  0  2  0  0  0  0  0  0
  196.0470  175.6160  144.3050 C   0  0  0  0  0  2  0  0  0  0  0  0
  186.5550  176.5260  147.2230 C   0  0  0  0  0  1  0  0  0  0  0  0
  188.7350  175.3080  147.2590 C   0  0  0  0  0  3  0  0  0  0  0  0
  192.3850  176.6600  144.3310 C   0  0  0  0  0  0  0  0  0  0  0  0
  195.6760  173.1560  144.8170 C   0  0  0  0  0  2  0  0  0  0  0  0
  193.3200  173.9190  144.9750 C   0  0  0  0  0  3  0  0  0  0  0  0
  193.8160  171.4780  145.3590 C   0  0  0  0  0  2  0  0  0  0  0  0
  194.8400  170.3260  145.2440 C   0  0  2  0  0  3  0  0  0  0  0  0
  195.0490  168.6360  146.5420 C   0  0  1  0  0  3  0  0  0  0  0  0
  194.2370  168.9340  145.2920 C   0  0  2  0  0  3  0  0  0  0  0  0
  196.9820  169.9900  146.2220 O   0  0  0  0  0  1  0  0  0  0  0  0
  195.6200  170.0450  146.5150 C   0  0  1  0  0  3  0  0  0  0  0  0
  194.1950  168.4930  147.6360 O   0  0  0  0  0  1  0  0  0  0  0  0
  194.7270  168.1770  144.2270 O   0  0  0  0  0  1  0  0  0  0  0  0
  1 21  1  6  0  0  0
  2 17  1  0  0  0  0
  4  9  2  0  0  0  0
  4  7  1  0  0  0  0
  5 11  1  0  0  0  0
  5  7  1  0  0  0  0
  6 16  1  0  0  0  0
  6 17  2  0  0  0  0
  7  2  2  0  0  0  0
  8 12  2  0  0  0  0
  8 18  1  0  0  0  0
  9  6  1  0  0  0  0
 10  3  2  0  0  0  0
 12  4  1  0  0  0  0
 14 18  1  0  0  0  0
 14 10  1  0  0  0  0
 15 10  1  0  0  0  0
 15 13  1  0  0  0  0
 18  5  2  0  0  0  0
 19 13  1  0  0  0  0
 19  1  1  0  0  0  0
 20  1  1  0  0  0  0
 20 11  2  0  0  0  0
 22 24  1  0  0  0  0
 22 21  1  1  0  0  0
 22 26  1  0  0  0  0
 23 27  1  1  0  0  0
 24 28  1  6  0  0  0
 24 23  1  0  0  0  0
 26 25  1  6  0  0  0
 26 23  1  0  0  0  0
M  END
>  <MODEL>
4

>  <REMARK>
 VINA RESULT:      -7.9      3.379      5.440
  Name = 
  2 active torsions:
  status: ('A' for Active; 'I' for Inactive)
    1  A    between atoms: C_1  and  C_2
    2  A    between atoms: C_2  and  C_3
                            x       y       z     vdW  Elec       q    Type
                         _______ _______ _______ _____ _____    ______ ____

>  <TORSDO>
F 2

$$$$
=
 OpenBabel11052418013D

 28 31  0  0  1  0  0  0  0  0999 V2000
  185.5840  178.2030  143.9300 C   0  0  1  0  0  3  0  0  0  0  0  0
  190.4140  177.0200  144.2080 C   0  0  0  0  0  3  0  0  0  0  0  0
  186.9510  178.7110  147.7140 O   0  0  0  0  0  0  0  0  0  0  0  0
  190.6080  175.5030  146.0970 C   0  0  0  0  0  0  0  0  0  0  0  0
  188.5110  176.6930  145.7090 C   0  0  0  0  0  0  0  0  0  0  0  0
  192.4830  175.8210  144.5970 C   0  0  0  0  0  0  0  0  0  0  0  0
  189.8410  176.4190  145.3380 C   0  0  0  0  0  0  0  0  0  0  0  0
  188.7470  175.1800  147.6070 C   0  0  0  0  0  3  0  0  0  0  0  0
  191.9230  175.2100  145.7220 C   0  0  0  0  0  3  0  0  0  0  0  0
  186.1660  177.7590  147.4560 C   0  0  0  0  0  0  0  0  0  0  0  0
  187.7080  177.5620  144.8970 N   0  0  0  0  0  0  0  0  0  0  0  0
  190.0520  174.8810  147.2140 C   0  0  0  0  0  3  0  0  0  0  0  0
  184.5220  179.0410  146.0820 C   0  0  0  0  0  2  0  0  0  0  0  0
  186.6640  176.4190  147.3640 N   0  0  0  0  0  2  0  0  0  0  0  0
  184.7160  178.0330  147.2160 C   0  0  0  0  0  2  0  0  0  0  0  0
  193.8810  175.5090  144.2020 C   0  0  0  0  0  1  0  0  0  0  0  0
  191.7290  176.7240  143.8410 C   0  0  0  0  0  3  0  0  0  0  0  0
  187.9800  176.1000  146.8870 C   0  0  0  0  0  0  0  0  0  0  0  0
  184.2930  178.3580  144.7330 C   0  0  0  0  0  2  0  0  0  0  0  0
  186.4980  177.2320  144.5800 C   0  0  0  0  0  3  0  0  0  0  0  0
  185.3450  177.9020  142.4410 C   0  0  0  0  0  2  0  0  0  0  0  0
  186.5040  178.0560  141.4310 C   0  0  2  0  0  3  0  0  0  0  0  0
  187.9610  176.5840  140.8890 C   0  0  1  0  0  3  0  0  0  0  0  0
  186.5800  176.9630  140.3800 C   0  0  2  0  0  3  0  0  0  0  0  0
  188.7880  178.6640  141.7040 O   0  0  0  0  0  1  0  0  0  0  0  0
  187.8660  177.6510  141.9670 C   0  0  1  0  0  3  0  0  0  0  0  0
  187.9170  175.3170  141.4730 O   0  0  0  0  0  1  0  0  0  0  0  0
  186.6920  177.5410  139.1150 O   0  0  0  0  0  1  0  0  0  0  0  0
  1 21  1  6  0  0  0
  1 20  1  0  0  0  0
  1 19  1  0  0  0  0
  2  7  1  0  0  0  0
  4 12  1  0  0  0  0
  5 18  2  0  0  0  0
  6  9  2  0  0  0  0
  7  5  1  0  0  0  0
  7  4  2  0  0  0  0
  9  4  1  0  0  0  0
 10  3  2  0  0  0  0
 11  5  1  0  0  0  0
 12  8  2  0  0  0  0
 13 15  1  0  0  0  0
 14 10  1  0  0  0  0
 15 10  1  0  0  0  0
 16  6  1  0  0  0  0
 17  2  2  0  0  0  0
 17  6  1  0  0  0  0
 18 14  1  0  0  0  0
 18  8  1  0  0  0  0
 19 13  1  0  0  0  0
 20 11  2  0  0  0  0
 22 26  1  0  0  0  0
 22 21  1  1  0  0  0
 23 27  1  1  0  0  0
 23 26  1  0  0  0  0
 24 28  1  6  0  0  0
 24 23  1  0  0  0  0
 24 22  1  0  0  0  0
 26 25  1  6  0  0  0
M  END
>  <MODEL>
5

>  <REMARK>
 VINA RESULT:      -7.8      3.147      6.723
  Name = 
  2 active torsions:
  status: ('A' for Active; 'I' for Inactive)
    1  A    between atoms: C_1  and  C_2
    2  A    between atoms: C_2  and  C_3
                            x       y       z     vdW  Elec       q    Type
                         _______ _______ _______ _____ _____    ______ ____

>  <TORSDO>
F 2

$$$$
=
 OpenBabel11052418013D

 28 31  0  0  1  0  0  0  0  0999 V2000
  186.9280  177.4660  146.0260 C   0  0  1  0  0  3  0  0  0  0  0  0
  187.8050  174.2980  142.2860 C   0  0  0  0  0  3  0  0  0  0  0  0
  184.0680  177.8180  143.1730 O   0  0  0  0  0  0  0  0  0  0  0  0
  187.6700  175.6280  140.2560 C   0  0  0  0  0  0  0  0  0  0  0  0
  186.9680  176.5930  142.3870 C   0  0  0  0  0  0  0  0  0  0  0  0
  188.5130  173.3590  140.1670 C   0  0  0  0  0  0  0  0  0  0  0  0
  187.4700  175.5040  141.6520 C   0  0  0  0  0  0  0  0  0  0  0  0
  186.8260  177.8940  140.3290 C   0  0  0  0  0  3  0  0  0  0  0  0
  188.1900  174.5570  139.5240 C   0  0  0  0  0  3  0  0  0  0  0  0
  184.9150  178.7380  143.3250 C   0  0  0  0  0  0  0  0  0  0  0  0
  186.8370  176.4940  143.8120 N   0  0  0  0  0  0  0  0  0  0  0  0
  187.3610  176.8240  139.6090 C   0  0  0  0  0  3  0  0  0  0  0  0
  184.8230  178.8760  145.8160 C   0  0  0  0  0  2  0  0  0  0  0  0
  185.9900  178.8890  142.3880 N   0  0  0  0  0  2  0  0  0  0  0  0
  184.8180  179.6560  144.5000 C   0  0  0  0  0  2  0  0  0  0  0  0
  189.0630  172.2220  139.3850 C   0  0  0  0  0  1  0  0  0  0  0  0
  188.3210  173.2300  141.5460 C   0  0  0  0  0  3  0  0  0  0  0  0
  186.5970  177.7830  141.7020 C   0  0  0  0  0  0  0  0  0  0  0  0
  186.2240  178.7660  146.4180 C   0  0  0  0  0  2  0  0  0  0  0  0
  187.2470  177.4530  144.5780 C   0  0  0  0  0  3  0  0  0  0  0  0
  188.1390  177.1370  146.9140 C   0  0  0  0  0  2  0  0  0  0  0  0
  189.2570  176.2150  146.3760 C   0  0  2  0  0  3  0  0  0  0  0  0
  190.9870  175.5180  147.4270 C   0  0  1  0  0  3  0  0  0  0  0  0
  189.5640  175.0130  147.2510 C   0  0  2  0  0  3  0  0  0  0  0  0
  191.3680  176.6790  145.3820 O   0  0  0  0  0  1  0  0  0  0  0  0
  190.6650  176.7420  146.5850 C   0  0  1  0  0  3  0  0  0  0  0  0
  191.1910  175.8980  148.7540 O   0  0  0  0  0  1  0  0  0  0  0  0
  189.5740  173.8580  146.4680 O   0  0  0  0  0  1  0  0  0  0  0  0
  1 19  1  0  0  0  0
  1 21  1  1  0  0  0
  3 10  2  0  0  0  0
  4  7  1  0  0  0  0
  5 11  1  0  0  0  0
  6 17  1  0  0  0  0
  7  2  1  0  0  0  0
  7  5  2  0  0  0  0
  8 18  2  0  0  0  0
  9  6  2  0  0  0  0
  9  4  1  0  0  0  0
 10 15  1  0  0  0  0
 11 20  2  0  0  0  0
 12  4  2  0  0  0  0
 12  8  1  0  0  0  0
 13 19  1  0  0  0  0
 14 10  1  0  0  0  0
 15 13  1  0  0  0  0
 16  6  1  0  0  0  0
 17  2  2  0  0  0  0
 18  5  1  0  0  0  0
 18 14  1  0  0  0  0
 20  1  1  0  0  0  0
 22 26  1  0  0  0  0
 22 21  1  1  0  0  0
 22 24  1  0  0  0  0
 23 27  1  1  0  0  0
 24 28  1  6  0  0  0
 24 23  1  0  0  0  0
 26 25  1  6  0  0  0
 26 23  1  0  0  0  0
M  END
>  <MODEL>
6

>  <REMARK>
 VINA RESULT:      -7.8      3.228      5.798
  Name = 
  2 active torsions:
  status: ('A' for Active; 'I' for Inactive)
    1  A    between atoms: C_1  and  C_2
    2  A    between atoms: C_2  and  C_3
                            x       y       z     vdW  Elec       q    Type
                         _______ _______ _______ _____ _____    ______ ____

>  <TORSDO>
F 2

$$$$
=
 OpenBabel11052418013D

 28 31  0  0  1  0  0  0  0  0999 V2000
  187.6880  176.2040  142.5740 C   0  0  1  0  0  3  0  0  0  0  0  0
  192.4030  176.1730  144.1770 C   0  0  0  0  0  3  0  0  0  0  0  0
  188.0050  178.2170  146.0800 O   0  0  0  0  0  0  0  0  0  0  0  0
  192.3010  175.4520  146.4960 C   0  0  0  0  0  0  0  0  0  0  0  0
  190.2400  175.9970  145.3050 C   0  0  0  0  0  0  0  0  0  0  0  0
  194.4380  175.6140  145.3670 C   0  0  0  0  0  0  0  0  0  0  0  0
  191.6430  175.8860  145.3200 C   0  0  0  0  0  0  0  0  0  0  0  0
  190.1750  175.2910  147.6370 C   0  0  0  0  0  3  0  0  0  0  0  0
  193.6930  175.3190  146.5110 C   0  0  0  0  0  3  0  0  0  0  0  0
  187.4260  177.0980  146.0520 C   0  0  0  0  0  0  0  0  0  0  0  0
  189.5660  176.3630  144.0920 N   0  0  0  0  0  0  0  0  0  0  0  0
  191.5630  175.1440  147.6380 C   0  0  0  0  0  3  0  0  0  0  0  0
  186.0340  177.4870  144.0160 C   0  0  0  0  0  2  0  0  0  0  0  0
  188.0860  175.9330  146.5630 N   0  0  0  0  0  2  0  0  0  0  0  0
  186.0590  176.9790  145.4600 C   0  0  0  0  0  2  0  0  0  0  0  0
  195.9170  175.4740  145.3880 C   0  0  0  0  0  1  0  0  0  0  0  0
  193.7940  176.0400  144.2010 C   0  0  0  0  0  3  0  0  0  0  0  0
  189.5080  175.7420  146.4960 C   0  0  0  0  0  0  0  0  0  0  0  0
  186.2290  176.3590  143.0030 C   0  0  0  0  0  2  0  0  0  0  0  0
  188.5200  175.7110  143.6990 C   0  0  0  0  0  3  0  0  0  0  0  0
  187.8620  175.3780  141.2890 C   0  0  0  0  0  2  0  0  0  0  0  0
  188.8620  174.2000  141.2630 C   0  0  2  0  0  3  0  0  0  0  0  0
  188.8280  172.4920  139.9720 C   0  0  1  0  0  3  0  0  0  0  0  0
  189.4350  173.8840  139.8930 C   0  0  2  0  0  3  0  0  0  0  0  0
  188.8420  172.0660  142.3150 O   0  0  0  0  0  1  0  0  0  0  0  0
  188.2190  172.8260  141.3250 C   0  0  1  0  0  3  0  0  0  0  0  0
  187.8160  172.3650  139.0190 O   0  0  0  0  0  1  0  0  0  0  0  0
  190.8240  173.7910  139.9810 O   0  0  0  0  0  1  0  0  0  0  0  0
  1 21  1  6  0  0  0
  1 19  1  0  0  0  0
  1 20  1  0  0  0  0
  2 17  2  0  0  0  0
  2  7  1  0  0  0  0
  4  9  1  0  0  0  0
  4 12  1  0  0  0  0
  5  7  1  0  0  0  0
  5 18  2  0  0  0  0
  6 16  1  0  0  0  0
  6  9  2  0  0  0  0
  7  4  2  0  0  0  0
  8 12  2  0  0  0  0
 10  3  2  0  0  0  0
 10 14  1  0  0  0  0
 11  5  1  0  0  0  0
 13 15  1  0  0  0  0
 15 10  1  0  0  0  0
 17  6  1  0  0  0  0
 18 14  1  0  0  0  0
 18  8  1  0  0  0  0
 19 13  1  0  0  0  0
 20 11  2  0  0  0  0
 22 21  1  6  0  0  0
 22 26  1  0  0  0  0
 23 27  1  6  0  0  0
 23 26  1  0  0  0  0
 24 23  1  0  0  0  0
 24 28  1  1  0  0  0
 24 22  1  0  0  0  0
 26 25  1  1  0  0  0
M  END
>  <MODEL>
7

>  <REMARK>
 VINA RESULT:      -7.6      2.798      6.635
  Name = 
  2 active torsions:
  status: ('A' for Active; 'I' for Inactive)
    1  A    between atoms: C_1  and  C_2
    2  A    between atoms: C_2  and  C_3
                            x       y       z     vdW  Elec       q    Type
                         _______ _______ _______ _____ _____    ______ ____

>  <TORSDO>
F 2

$$$$
=
 OpenBabel11052418013D

 28 31  0  0  1  0  0  0  0  0999 V2000
  189.7100  175.7790  146.4330 C   0  0  1  0  0  3  0  0  0  0  0  0
  188.9830  174.9530  141.5760 C   0  0  0  0  0  3  0  0  0  0  0  0
  193.2310  175.9390  144.4270 O   0  0  0  0  0  0  0  0  0  0  0  0
  190.5940  173.2430  140.9550 C   0  0  0  0  0  0  0  0  0  0  0  0
  190.7370  174.3020  143.1500 C   0  0  0  0  0  0  0  0  0  0  0  0
  188.8450  173.8830  139.4070 C   0  0  0  0  0  0  0  0  0  0  0  0
  190.1080  174.1800  141.8980 C   0  0  0  0  0  0  0  0  0  0  0  0
  192.3500  172.5980  142.4880 C   0  0  0  0  0  3  0  0  0  0  0  0
  189.9600  173.1010  139.7170 C   0  0  0  0  0  3  0  0  0  0  0  0
  192.9920  174.9670  145.1920 C   0  0  0  0  0  0  0  0  0  0  0  0
  190.1990  175.1960  144.1360 N   0  0  0  0  0  0  0  0  0  0  0  0
  191.7000  172.4510  141.2610 C   0  0  0  0  0  3  0  0  0  0  0  0
  192.1050  176.2690  147.1290 C   0  0  0  0  0  2  0  0  0  0  0  0
  192.6390  173.6890  144.6450 N   0  0  0  0  0  2  0  0  0  0  0  0
  193.0460  175.1520  146.6740 C   0  0  0  0  0  2  0  0  0  0  0  0
  188.1740  173.7310  138.0900 C   0  0  0  0  0  1  0  0  0  0  0  0
  188.3560  174.8080  140.3360 C   0  0  0  0  0  3  0  0  0  0  0  0
  191.9020  173.5340  143.4230 C   0  0  0  0  0  0  0  0  0  0  0  0
  190.7400  175.7360  147.5630 C   0  0  0  0  0  2  0  0  0  0  0  0
  190.0580  174.8120  145.3630 C   0  0  0  0  0  3  0  0  0  0  0  0
  188.2600  175.6390  146.9240 C   0  0  0  0  0  2  0  0  0  0  0  0
  187.1410  176.4720  146.2580 C   0  0  2  0  0  3  0  0  0  0  0  0
  186.3230  178.3310  146.9360 C   0  0  1  0  0  3  0  0  0  0  0  0
  187.4830  177.9330  146.0370 C   0  0  2  0  0  3  0  0  0  0  0  0
  184.7870  176.5410  146.5990 O   0  0  0  0  0  1  0  0  0  0  0  0
  186.0080  176.8650  147.1900 C   0  0  1  0  0  3  0  0  0  0  0  0
  186.8120  178.9180  148.1040 O   0  0  0  0  0  1  0  0  0  0  0  0
  187.1910  178.2850  144.7180 O   0  0  0  0  0  1  0  0  0  0  0  0
  1 21  1  1  0  0  0
  1 19  1  0  0  0  0
  2  7  1  0  0  0  0
  3 10  2  0  0  0  0
  4 12  2  0  0  0  0
  4  7  1  0  0  0  0
  5 18  1  0  0  0  0
  5 11  1  0  0  0  0
  6  9  2  0  0  0  0
  6 17  1  0  0  0  0
  7  5  2  0  0  0  0
  8 18  2  0  0  0  0
  9  4  1  0  0  0  0
 10 15  1  0  0  0  0
 11 20  2  0  0  0  0
 12  8  1  0  0  0  0
 13 19  1  0  0  0  0
 14 10  1  0  0  0  0
 15 13  1  0  0  0  0
 16  6  1  0  0  0  0
 17  2  2  0  0  0  0
 18 14  1  0  0  0  0
 20  1  1  0  0  0  0
 22 21  1  1  0  0  0
 22 26  1  0  0  0  0
 23 26  1  0  0  0  0
 23 27  1  1  0  0  0
 24 28  1  6  0  0  0
 24 22  1  0  0  0  0
 24 23  1  0  0  0  0
 26 25  1  6  0  0  0
M  END
>  <MODEL>
8

>  <REMARK>
 VINA RESULT:      -7.5      3.117      6.578
  Name = 
  2 active torsions:
  status: ('A' for Active; 'I' for Inactive)
    1  A    between atoms: C_1  and  C_2
    2  A    between atoms: C_2  and  C_3
                            x       y       z     vdW  Elec       q    Type
                         _______ _______ _______ _____ _____    ______ ____

>  <TORSDO>
F 2

$$$$
=
 OpenBabel11052418013D

 28 31  0  0  1  0  0  0  0  0999 V2000
  188.7440  177.2630  146.6630 C   0  0  1  0  0  3  0  0  0  0  0  0
  188.4340  174.9730  142.2520 C   0  0  0  0  0  3  0  0  0  0  0  0
  184.9160  177.2790  145.3250 O   0  0  0  0  0  0  0  0  0  0  0  0
  187.2100  176.4970  140.8080 C   0  0  0  0  0  0  0  0  0  0  0  0
  187.3490  176.9460  143.2040 C   0  0  0  0  0  0  0  0  0  0  0  0
  188.3010  174.5480  139.8710 C   0  0  0  0  0  0  0  0  0  0  0  0
  187.6590  176.1320  142.1000 C   0  0  0  0  0  0  0  0  0  0  0  0
  186.1110  178.4430  141.7310 C   0  0  0  0  0  3  0  0  0  0  0  0
  187.5330  175.7030  139.7030 C   0  0  0  0  0  3  0  0  0  0  0  0
  185.5760  178.3530  145.3420 C   0  0  0  0  0  0  0  0  0  0  0  0
  187.8680  176.6190  144.5010 N   0  0  0  0  0  0  0  0  0  0  0  0
  186.4530  177.6550  140.6310 C   0  0  0  0  0  3  0  0  0  0  0  0
  186.5510  178.1140  147.6280 C   0  0  0  0  0  2  0  0  0  0  0  0
  186.0950  178.8990  144.1230 N   0  0  0  0  0  2  0  0  0  0  0  0
  185.8440  179.0440  146.6400 C   0  0  0  0  0  2  0  0  0  0  0  0
  188.6410  173.7060  138.6950 C   0  0  0  0  0  1  0  0  0  0  0  0
  188.7510  174.1830  141.1430 C   0  0  0  0  0  3  0  0  0  0  0  0
  186.5230  178.0880  143.0170 C   0  0  0  0  0  0  0  0  0  0  0  0
  188.0710  178.2770  147.5890 C   0  0  0  0  0  2  0  0  0  0  0  0
  188.4000  177.5330  145.2450 C   0  0  0  0  0  3  0  0  0  0  0  0
  190.2570  177.1290  146.9020 C   0  0  0  0  0  2  0  0  0  0  0  0
  191.0880  176.1610  146.0310 C   0  0  2  0  0  3  0  0  0  0  0  0
  193.1470  176.3510  145.4760 C   0  0  1  0  0  3  0  0  0  0  0  0
  192.4060  175.7250  146.6460 C   0  0  2  0  0  3  0  0  0  0  0  0
  191.5730  176.1270  143.7020 O   0  0  0  0  0  1  0  0  0  0  0  0
  191.8290  176.8230  144.8830 C   0  0  1  0  0  3  0  0  0  0  0  0
  193.8850  177.4500  145.9190 O   0  0  0  0  0  1  0  0  0  0  0  0
  192.5150  174.3360  146.5770 O   0  0  0  0  0  1  0  0  0  0  0  0
  1 21  1  6  0  0  0
  1 19  1  0  0  0  0
  3 10  2  0  0  0  0
  4  7  1  0  0  0  0
  5 11  1  0  0  0  0
  6 17  1  0  0  0  0
  7  2  1  0  0  0  0
  7  5  2  0  0  0  0
  8 18  2  0  0  0  0
  9  6  2  0  0  0  0
  9  4  1  0  0  0  0
 10 15  1  0  0  0  0
 11 20  2  0  0  0  0
 12  4  2  0  0  0  0
 12  8  1  0  0  0  0
 14 10  1  0  0  0  0
 15 13  1  0  0  0  0
 16  6  1  0  0  0  0
 17  2  2  0  0  0  0
 18  5  1  0  0  0  0
 18 14  1  0  0  0  0
 19 13  1  0  0  0  0
 20  1  1  0  0  0  0
 22 24  1  0  0  0  0
 22 21  1  1  0  0  0
 23 27  1  1  0  0  0
 23 24  1  0  0  0  0
 24 28  1  6  0  0  0
 26 25  1  6  0  0  0
 26 23  1  0  0  0  0
 26 22  1  0  0  0  0
M  END
>  <MODEL>
9

>  <REMARK>
 VINA RESULT:      -7.5      2.411      4.343
  Name = 
  2 active torsions:
  status: ('A' for Active; 'I' for Inactive)
    1  A    between atoms: C_1  and  C_2
    2  A    between atoms: C_2  and  C_3
                            x       y       z     vdW  Elec       q    Type
                         _______ _______ _______ _____ _____    ______ ____

>  <TORSDO>
F 2

$$$$
