=
 OpenBabel11052417083D

 30 32  0  0  1  0  0  0  0  0999 V2000
  188.4410  176.6230  143.4650 N   0  0  1  0  0  0  0  0  0  0  0  0
  189.6280  176.0850  142.7600 C   0  0  1  0  0  3  0  0  0  0  0  0
  189.8000  176.9440  143.9580 C   0  0  2  0  0  3  0  0  0  0  0  0
  186.6620  178.2500  143.4870 C   0  0  0  0  0  0  0  0  0  0  0  0
  185.3630  178.0730  142.8100 C   0  0  0  0  0  3  0  0  0  0  0  0
  186.6980  178.7050  144.6640 O   0  0  0  0  0  0  0  0  0  0  0  0
  187.7480  177.6330  141.3140 C   0  0  0  0  0  3  0  0  0  0  0  0
  186.4640  177.3560  139.2540 C   0  0  0  0  0  1  0  0  0  0  0  0
  187.9450  177.8330  142.8100 C   0  0  2  0  0  3  0  0  0  0  0  0
  185.3170  177.7460  141.5120 C   0  0  0  0  0  3  0  0  0  0  0  0
  186.5490  177.5650  140.7300 C   0  0  0  0  0  0  0  0  0  0  0  0
  191.5700  175.5830  147.0550 C   0  0  0  0  0  3  0  0  0  0  0  0
  191.3690  176.1970  145.8080 C   0  0  0  0  0  0  0  0  0  0  0  0
  188.9900  175.7260  146.0110 C   0  0  0  0  0  3  0  0  0  0  0  0
  190.0690  176.2410  145.2670 C   0  0  0  0  0  0  0  0  0  0  0  0
  190.4920  175.0520  147.7740 C   0  0  0  0  0  3  0  0  0  0  0  0
  189.1990  175.1300  147.2560 C   0  0  0  0  0  3  0  0  0  0  0  0
  192.4320  176.7910  145.1010 O   0  0  0  0  0  0  0  0  0  0  0  0
  193.9440  175.0500  145.8610 C   0  0  0  0  0  1  0  0  0  0  0  0
  194.3330  176.2430  143.7470 C   0  0  0  0  0  1  0  0  0  0  0  0
  194.6460  177.4430  145.8650 C   0  0  0  0  0  1  0  0  0  0  0  0
  193.8060  176.3890  145.1590 C   0  0  0  0  0  0  0  0  0  0  0  0
  189.7000  174.5670  142.9850 C   0  0  2  0  0  3  0  0  0  0  0  0
  191.5230  172.9070  144.6060 O   0  0  0  0  0  0  0  0  0  0  0  0
  191.8670  173.2400  143.4390 C   0  0  0  0  0  0  0  0  0  0  0  0
  193.1860  172.8020  142.9200 C   0  0  0  0  0  1  0  0  0  0  0  0
  191.0050  174.0220  142.5980 N   0  0  0  0  0  2  0  0  0  0  0  0
  188.4060  174.1280  140.9770 O   0  0  0  0  0  1  0  0  0  0  0  0
  188.7040  172.3120  142.5050 C   0  0  0  0  0  1  0  0  0  0  0  0
  188.5290  173.8130  142.3350 C   0  0  1  0  0  3  0  0  0  0  0  0
  1  9  1  6  0  0  0
  1  3  1  0  0  0  0
  2 23  1  1  0  0  0
  2  1  1  0  0  0  0
  2  3  1  0  0  0  0
  3 15  1  1  0  0  0
  4  6  2  0  0  0  0
  5  4  1  0  0  0  0
  8 11  1  0  0  0  0
  9  7  1  6  0  0  0
  9  4  1  0  0  0  0
 10  5  2  0  0  0  0
 11  7  2  0  0  0  0
 11 10  1  0  0  0  0
 12 16  1  0  0  0  0
 13 12  2  0  0  0  0
 14 17  1  0  0  0  0
 15 13  1  0  0  0  0
 15 14  2  0  0  0  0
 17 16  2  0  0  0  0
 18 22  1  0  0  0  0
 18 13  1  0  0  0  0
 20 22  1  0  0  0  0
 22 19  1  0  0  0  0
 22 21  1  0  0  0  0
 23 27  1  6  0  0  0
 25 24  2  0  0  0  0
 26 25  1  0  0  0  0
 27 25  1  0  0  0  0
 28 30  1  0  0  0  0
 30 29  1  6  0  0  0
 30 23  1  0  0  0  0
M  END
>  <MODEL>
1

>  <REMARK>
 VINA RESULT:      -6.7      0.000      0.000
  Name = 
  7 active torsions:
  status: ('A' for Active; 'I' for Inactive)
    1  A    between atoms: N_1  and  C_22
    2  A    between atoms: C_4  and  C_23
    3  A    between atoms: C_5  and  C_12
    4  A    between atoms: C_8  and  O_13
    5  A    between atoms: O_13  and  C_30
    6  A    between atoms: C_23  and  N_25
    7  A    between atoms: C_23  and  C_26
                            x       y       z     vdW  Elec       q    Type
                         _______ _______ _______ _____ _____    ______ ____

>  <TORSDO>
F 7

$$$$
=
 OpenBabel11052417083D

 30 32  0  0  1  0  0  0  0  0999 V2000
  193.0940  174.2230  144.6130 N   0  0  1  0  0  0  0  0  0  0  0  0
  191.8990  173.3740  144.3980 C   0  0  1  0  0  3  0  0  0  0  0  0
  191.7760  174.6620  145.1250 C   0  0  2  0  0  3  0  0  0  0  0  0
  195.0220  174.7090  145.9750 C   0  0  0  0  0  0  0  0  0  0  0  0
  196.3980  174.2790  145.6570 C   0  0  0  0  0  3  0  0  0  0  0  0
  194.8110  175.8890  146.3690 O   0  0  0  0  0  0  0  0  0  0  0  0
  194.3210  172.3280  145.6280 C   0  0  0  0  0  3  0  0  0  0  0  0
  195.9440  170.5340  145.2830 C   0  0  0  0  0  1  0  0  0  0  0  0
  193.8570  173.7700  145.7750 C   0  0  2  0  0  3  0  0  0  0  0  0
  196.6590  172.9930  145.3940 C   0  0  0  0  0  3  0  0  0  0  0  0
  195.5950  171.9800  145.4250 C   0  0  0  0  0  0  0  0  0  0  0  0
  189.5080  177.4090  143.7520 C   0  0  0  0  0  3  0  0  0  0  0  0
  189.9300  176.2710  144.4600 C   0  0  0  0  0  0  0  0  0  0  0  0
  192.1680  176.5990  143.5610 C   0  0  0  0  0  3  0  0  0  0  0  0
  191.2670  175.8440  144.3370 C   0  0  0  0  0  0  0  0  0  0  0  0
  190.4080  178.1360  142.9630 C   0  0  0  0  0  3  0  0  0  0  0  0
  191.7410  177.7370  142.8730 C   0  0  0  0  0  3  0  0  0  0  0  0
  189.0540  175.5640  145.3060 O   0  0  0  0  0  0  0  0  0  0  0  0
  187.3130  176.3510  146.8050 C   0  0  0  0  0  1  0  0  0  0  0  0
  188.9460  174.6600  147.5230 C   0  0  0  0  0  1  0  0  0  0  0  0
  189.6990  176.9710  147.1810 C   0  0  0  0  0  1  0  0  0  0  0  0
  188.7550  175.8940  146.6670 C   0  0  0  0  0  0  0  0  0  0  0  0
  191.5340  173.3900  142.9050 C   0  0  2  0  0  3  0  0  0  0  0  0
  189.3200  174.6510  141.4180 O   0  0  0  0  0  0  0  0  0  0  0  0
  189.1360  173.5270  141.9600 C   0  0  0  0  0  0  0  0  0  0  0  0
  187.8070  172.8780  141.8480 C   0  0  0  0  0  1  0  0  0  0  0  0
  190.1890  172.8560  142.6710 N   0  0  0  0  0  2  0  0  0  0  0  0
  192.1150  171.5370  141.4460 O   0  0  0  0  0  1  0  0  0  0  0  0
  193.0760  173.6690  140.9420 C   0  0  0  0  0  1  0  0  0  0  0  0
  192.5990  172.7150  142.0260 C   0  0  1  0  0  3  0  0  0  0  0  0
  1  3  1  0  0  0  0
  1  9  1  1  0  0  0
  2 23  1  6  0  0  0
  2  1  1  0  0  0  0
  2  3  1  0  0  0  0
  3 15  1  6  0  0  0
  4  6  2  0  0  0  0
  5  4  1  0  0  0  0
  8 11  1  0  0  0  0
  9  7  1  6  0  0  0
  9  4  1  0  0  0  0
 10 11  1  0  0  0  0
 10  5  2  0  0  0  0
 11  7  2  0  0  0  0
 12 13  1  0  0  0  0
 13 18  1  0  0  0  0
 14 15  1  0  0  0  0
 15 13  2  0  0  0  0
 16 12  2  0  0  0  0
 17 16  1  0  0  0  0
 17 14  2  0  0  0  0
 18 22  1  0  0  0  0
 22 19  1  0  0  0  0
 22 21  1  0  0  0  0
 22 20  1  0  0  0  0
 23 27  1  1  0  0  0
 24 25  2  0  0  0  0
 25 27  1  0  0  0  0
 26 25  1  0  0  0  0
 28 30  1  0  0  0  0
 30 29  1  6  0  0  0
 30 23  1  0  0  0  0
M  END
>  <MODEL>
2

>  <REMARK>
 VINA RESULT:      -6.5      2.618      6.786
  Name = 
  7 active torsions:
  status: ('A' for Active; 'I' for Inactive)
    1  A    between atoms: N_1  and  C_22
    2  A    between atoms: C_4  and  C_23
    3  A    between atoms: C_5  and  C_12
    4  A    between atoms: C_8  and  O_13
    5  A    between atoms: O_13  and  C_30
    6  A    between atoms: C_23  and  N_25
    7  A    between atoms: C_23  and  C_26
                            x       y       z     vdW  Elec       q    Type
                         _______ _______ _______ _____ _____    ______ ____

>  <TORSDO>
F 7

$$$$
=
 OpenBabel11052417083D

 30 32  0  0  1  0  0  0  0  0999 V2000
  191.4650  176.6660  143.6970 N   0  0  1  0  0  0  0  0  0  0  0  0
  190.8820  175.3070  143.7880 C   0  0  1  0  0  3  0  0  0  0  0  0
  190.1200  176.4780  144.2870 C   0  0  2  0  0  3  0  0  0  0  0  0
  193.6220  176.0990  144.6140 C   0  0  0  0  0  0  0  0  0  0  0  0
  193.8860  174.9150  145.4540 C   0  0  0  0  0  3  0  0  0  0  0  0
  194.4210  176.3970  143.6830 O   0  0  0  0  0  0  0  0  0  0  0  0
  191.7210  176.6300  146.1590 C   0  0  0  0  0  3  0  0  0  0  0  0
  191.3440  175.3860  148.2280 C   0  0  0  0  0  1  0  0  0  0  0  0
  192.3730  176.9230  144.8150 C   0  0  2  0  0  3  0  0  0  0  0  0
  193.1400  174.6790  146.5410 C   0  0  0  0  0  3  0  0  0  0  0  0
  192.0530  175.5900  146.9290 C   0  0  0  0  0  0  0  0  0  0  0  0
  186.7320  177.4700  142.8320 C   0  0  0  0  0  3  0  0  0  0  0  0
  187.6910  176.8860  143.6780 C   0  0  0  0  0  0  0  0  0  0  0  0
  189.4390  177.8260  142.2690 C   0  0  0  0  0  3  0  0  0  0  0  0
  189.0580  177.0400  143.3740 C   0  0  0  0  0  0  0  0  0  0  0  0
  187.1240  178.2290  141.7220 C   0  0  0  0  0  3  0  0  0  0  0  0
  188.4780  178.4140  141.4440 C   0  0  0  0  0  3  0  0  0  0  0  0
  187.3160  176.1730  144.8330 O   0  0  0  0  0  0  0  0  0  0  0  0
  185.4260  176.6100  146.2940 C   0  0  0  0  0  1  0  0  0  0  0  0
  187.6310  176.0140  147.2040 C   0  0  0  0  0  1  0  0  0  0  0  0
  187.3320  178.2130  146.1540 C   0  0  0  0  0  1  0  0  0  0  0  0
  186.9240  176.7490  146.0840 C   0  0  0  0  0  0  0  0  0  0  0  0
  190.5380  174.8130  142.3740 C   0  0  2  0  0  3  0  0  0  0  0  0
  187.9730  174.7150  140.9170 O   0  0  0  0  0  0  0  0  0  0  0  0
  188.2790  173.7670  141.6910 C   0  0  0  0  0  0  0  0  0  0  0  0
  187.3330  172.6360  141.8600 C   0  0  0  0  0  1  0  0  0  0  0  0
  189.5270  173.7520  142.4010 N   0  0  0  0  0  2  0  0  0  0  0  0
  192.6810  173.6730  142.3250 O   0  0  0  0  0  1  0  0  0  0  0  0
  191.3800  173.6440  140.3170 C   0  0  0  0  0  1  0  0  0  0  0  0
  191.7820  174.4240  141.5600 C   0  0  1  0  0  3  0  0  0  0  0  0
  1  2  1  0  0  0  0
  1  3  1  0  0  0  0
  1  9  1  1  0  0  0
  2 23  1  6  0  0  0
  2  3  1  0  0  0  0
  3 15  1  6  0  0  0
  4  9  1  0  0  0  0
  4  5  1  0  0  0  0
  5 10  2  0  0  0  0
  6  4  2  0  0  0  0
  7 11  2  0  0  0  0
  9  7  1  1  0  0  0
 10 11  1  0  0  0  0
 11  8  1  0  0  0  0
 12 13  1  0  0  0  0
 13 18  1  0  0  0  0
 14 15  1  0  0  0  0
 15 13  2  0  0  0  0
 16 12  2  0  0  0  0
 17 16  1  0  0  0  0
 17 14  2  0  0  0  0
 18 22  1  0  0  0  0
 22 21  1  0  0  0  0
 22 19  1  0  0  0  0
 22 20  1  0  0  0  0
 23 27  1  1  0  0  0
 24 25  2  0  0  0  0
 25 26  1  0  0  0  0
 25 27  1  0  0  0  0
 30 29  1  6  0  0  0
 30 28  1  0  0  0  0
 30 23  1  0  0  0  0
M  END
>  <MODEL>
3

>  <REMARK>
 VINA RESULT:      -6.4      1.788      6.180
  Name = 
  7 active torsions:
  status: ('A' for Active; 'I' for Inactive)
    1  A    between atoms: N_1  and  C_22
    2  A    between atoms: C_4  and  C_23
    3  A    between atoms: C_5  and  C_12
    4  A    between atoms: C_8  and  O_13
    5  A    between atoms: O_13  and  C_30
    6  A    between atoms: C_23  and  N_25
    7  A    between atoms: C_23  and  C_26
                            x       y       z     vdW  Elec       q    Type
                         _______ _______ _______ _____ _____    ______ ____

>  <TORSDO>
F 7

$$$$
=
 OpenBabel11052417083D

 30 32  0  0  1  0  0  0  0  0999 V2000
  191.6430  175.2120  144.1250 N   0  0  1  0  0  0  0  0  0  0  0  0
  190.7380  176.3850  144.0970 C   0  0  1  0  0  3  0  0  0  0  0  0
  190.8250  175.4840  142.9210 C   0  0  2  0  0  3  0  0  0  0  0  0
  193.8890  174.3730  143.8800 C   0  0  0  0  0  0  0  0  0  0  0  0
  194.8460  174.2150  144.9920 C   0  0  0  0  0  3  0  0  0  0  0  0
  193.7650  173.4530  143.0250 O   0  0  0  0  0  0  0  0  0  0  0  0
  193.5260  176.7210  144.6800 C   0  0  0  0  0  3  0  0  0  0  0  0
  194.8850  177.7150  146.4500 C   0  0  0  0  0  1  0  0  0  0  0  0
  193.0130  175.5990  143.7880 C   0  0  2  0  0  3  0  0  0  0  0  0
  195.1060  175.2420  145.8110 C   0  0  0  0  0  3  0  0  0  0  0  0
  194.4580  176.5480  145.6200 C   0  0  0  0  0  0  0  0  0  0  0  0
  187.6810  173.6570  141.7590 C   0  0  0  0  0  3  0  0  0  0  0  0
  188.6450  174.6690  141.9120 C   0  0  0  0  0  0  0  0  0  0  0  0
  189.8770  173.2010  143.4130 C   0  0  0  0  0  3  0  0  0  0  0  0
  189.7380  174.4480  142.7730 C   0  0  0  0  0  0  0  0  0  0  0  0
  187.8180  172.4310  142.4200 C   0  0  0  0  0  3  0  0  0  0  0  0
  188.9210  172.1980  143.2420 C   0  0  0  0  0  3  0  0  0  0  0  0
  188.5540  175.8840  141.2060 O   0  0  0  0  0  0  0  0  0  0  0  0
  186.5150  176.4300  142.4040 C   0  0  0  0  0  1  0  0  0  0  0  0
  188.1740  178.1590  141.8560 C   0  0  0  0  0  1  0  0  0  0  0  0
  186.8470  177.1670  140.0450 C   0  0  0  0  0  1  0  0  0  0  0  0
  187.5340  176.8750  141.3710 C   0  0  0  0  0  0  0  0  0  0  0  0
  189.5700  176.1400  145.0650 C   0  0  2  0  0  3  0  0  0  0  0  0
  186.7410  176.2170  145.9000 O   0  0  0  0  0  0  0  0  0  0  0  0
  187.3080  177.2870  145.5480 C   0  0  0  0  0  0  0  0  0  0  0  0
  186.5320  178.5520  145.5480 C   0  0  0  0  0  1  0  0  0  0  0  0
  188.6910  177.3100  145.1610 N   0  0  0  0  0  2  0  0  0  0  0  0
  189.9380  176.6370  147.4140 O   0  0  0  0  0  1  0  0  0  0  0  0
  189.2200  174.4230  146.8640 C   0  0  0  0  0  1  0  0  0  0  0  0
  190.0330  175.6370  146.4410 C   0  0  1  0  0  3  0  0  0  0  0  0
  1  9  1  6  0  0  0
  2  1  1  0  0  0  0
  2 23  1  1  0  0  0
  3 15  1  1  0  0  0
  3  2  1  0  0  0  0
  3  1  1  0  0  0  0
  4  5  1  0  0  0  0
  5 10  2  0  0  0  0
  6  4  2  0  0  0  0
  7 11  2  0  0  0  0
  9  4  1  0  0  0  0
  9  7  1  1  0  0  0
 11 10  1  0  0  0  0
 11  8  1  0  0  0  0
 12 13  2  0  0  0  0
 12 16  1  0  0  0  0
 13 15  1  0  0  0  0
 15 14  2  0  0  0  0
 16 17  2  0  0  0  0
 17 14  1  0  0  0  0
 18 22  1  0  0  0  0
 18 13  1  0  0  0  0
 21 22  1  0  0  0  0
 22 20  1  0  0  0  0
 22 19  1  0  0  0  0
 23 27  1  1  0  0  0
 23 30  1  0  0  0  0
 25 26  1  0  0  0  0
 25 24  2  0  0  0  0
 27 25  1  0  0  0  0
 30 29  1  1  0  0  0
 30 28  1  0  0  0  0
M  END
>  <MODEL>
4

>  <REMARK>
 VINA RESULT:      -6.4      1.632      6.902
  Name = 
  7 active torsions:
  status: ('A' for Active; 'I' for Inactive)
    1  A    between atoms: N_1  and  C_22
    2  A    between atoms: C_4  and  C_23
    3  A    between atoms: C_5  and  C_12
    4  A    between atoms: C_8  and  O_13
    5  A    between atoms: O_13  and  C_30
    6  A    between atoms: C_23  and  N_25
    7  A    between atoms: C_23  and  C_26
                            x       y       z     vdW  Elec       q    Type
                         _______ _______ _______ _____ _____    ______ ____

>  <TORSDO>
F 7

$$$$
=
 OpenBabel11052417083D

 30 32  0  0  1  0  0  0  0  0999 V2000
  188.7050  175.7940  144.6960 N   0  0  1  0  0  0  0  0  0  0  0  0
  189.4110  176.2890  143.4920 C   0  0  1  0  0  3  0  0  0  0  0  0
  190.1820  175.7290  144.6290 C   0  0  2  0  0  3  0  0  0  0  0  0
  187.5670  176.3430  146.7500 C   0  0  0  0  0  0  0  0  0  0  0  0
  186.1240  176.6310  146.8520 C   0  0  0  0  0  3  0  0  0  0  0  0
  188.1160  175.5860  147.5980 O   0  0  0  0  0  0  0  0  0  0  0  0
  187.6550  178.0270  144.8960 C   0  0  0  0  0  3  0  0  0  0  0  0
  185.7400  179.4360  144.3300 C   0  0  0  0  0  1  0  0  0  0  0  0
  188.3830  176.8940  145.6050 C   0  0  2  0  0  3  0  0  0  0  0  0
  185.5620  177.5540  146.0620 C   0  0  0  0  0  3  0  0  0  0  0  0
  186.3620  178.3060  145.0850 C   0  0  0  0  0  0  0  0  0  0  0  0
  192.4070  172.6460  144.2680 C   0  0  0  0  0  3  0  0  0  0  0  0
  192.0090  173.9930  144.3300 C   0  0  0  0  0  0  0  0  0  0  0  0
  189.7150  173.2520  144.6660 C   0  0  0  0  0  3  0  0  0  0  0  0
  190.6440  174.2970  144.4990 C   0  0  0  0  0  0  0  0  0  0  0  0
  191.4690  171.6160  144.4110 C   0  0  0  0  0  3  0  0  0  0  0  0
  190.1240  171.9170  144.6180 C   0  0  0  0  0  3  0  0  0  0  0  0
  192.9460  175.0410  144.2510 O   0  0  0  0  0  0  0  0  0  0  0  0
  193.9180  177.0260  145.2560 C   0  0  0  0  0  1  0  0  0  0  0  0
  193.0980  175.1670  146.6400 C   0  0  0  0  0  1  0  0  0  0  0  0
  195.1300  174.8460  145.3010 C   0  0  0  0  0  1  0  0  0  0  0  0
  193.7640  175.5170  145.3260 C   0  0  0  0  0  0  0  0  0  0  0  0
  189.1270  175.3400  142.3180 C   0  0  2  0  0  3  0  0  0  0  0  0
  190.1780  172.8350  141.1650 O   0  0  0  0  0  0  0  0  0  0  0  0
  190.7900  173.9170  140.9500 C   0  0  0  0  0  0  0  0  0  0  0  0
  192.0310  173.8970  140.1360 C   0  0  0  0  0  1  0  0  0  0  0  0
  190.3060  175.1670  141.4630 N   0  0  0  0  0  2  0  0  0  0  0  0
  186.7020  175.3660  142.1910 O   0  0  0  0  0  1  0  0  0  0  0  0
  187.8670  177.2340  141.2530 C   0  0  0  0  0  1  0  0  0  0  0  0
  187.8740  175.7360  141.5220 C   0  0  1  0  0  3  0  0  0  0  0  0
  1  9  1  1  0  0  0
  2 23  1  6  0  0  0
  2  3  1  0  0  0  0
  2  1  1  0  0  0  0
  3 15  1  6  0  0  0
  3  1  1  0  0  0  0
  4  5  1  0  0  0  0
  4  6  2  0  0  0  0
  7 11  2  0  0  0  0
  8 11  1  0  0  0  0
  9  7  1  6  0  0  0
  9  4  1  0  0  0  0
 10  5  2  0  0  0  0
 11 10  1  0  0  0  0
 12 13  2  0  0  0  0
 12 16  1  0  0  0  0
 13 15  1  0  0  0  0
 15 14  2  0  0  0  0
 16 17  2  0  0  0  0
 17 14  1  0  0  0  0
 18 13  1  0  0  0  0
 18 22  1  0  0  0  0
 19 22  1  0  0  0  0
 21 22  1  0  0  0  0
 22 20  1  0  0  0  0
 23 27  1  6  0  0  0
 25 24  2  0  0  0  0
 25 27  1  0  0  0  0
 26 25  1  0  0  0  0
 30 29  1  1  0  0  0
 30 28  1  0  0  0  0
 30 23  1  0  0  0  0
M  END
>  <MODEL>
5

>  <REMARK>
 VINA RESULT:      -6.3      1.989      3.332
  Name = 
  7 active torsions:
  status: ('A' for Active; 'I' for Inactive)
    1  A    between atoms: N_1  and  C_22
    2  A    between atoms: C_4  and  C_23
    3  A    between atoms: C_5  and  C_12
    4  A    between atoms: C_8  and  O_13
    5  A    between atoms: O_13  and  C_30
    6  A    between atoms: C_23  and  N_25
    7  A    between atoms: C_23  and  C_26
                            x       y       z     vdW  Elec       q    Type
                         _______ _______ _______ _____ _____    ______ ____

>  <TORSDO>
F 7

$$$$
=
 OpenBabel11052417083D

 30 32  0  0  1  0  0  0  0  0999 V2000
  189.8080  173.3670  142.9230 N   0  0  1  0  0  0  0  0  0  0  0  0
  190.1310  174.6690  142.2940 C   0  0  1  0  0  3  0  0  0  0  0  0
  188.9280  174.5350  143.1530 C   0  0  2  0  0  3  0  0  0  0  0  0
  190.0700  171.4620  141.4710 C   0  0  0  0  0  0  0  0  0  0  0  0
  190.5750  171.5320  140.0860 C   0  0  0  0  0  3  0  0  0  0  0  0
  190.4930  170.5600  142.2460 O   0  0  0  0  0  0  0  0  0  0  0  0
  188.4560  173.2760  140.8510 C   0  0  0  0  0  3  0  0  0  0  0  0
  188.2000  174.0570  138.5510 C   0  0  0  0  0  1  0  0  0  0  0  0
  189.0990  172.4950  141.9880 C   0  0  2  0  0  3  0  0  0  0  0  0
  190.0210  172.3770  139.2070 C   0  0  0  0  0  3  0  0  0  0  0  0
  188.8970  173.2430  139.5910 C   0  0  0  0  0  0  0  0  0  0  0  0
  188.6240  176.6700  146.3040 C   0  0  0  0  0  3  0  0  0  0  0  0
  188.5410  176.2780  144.9570 C   0  0  0  0  0  0  0  0  0  0  0  0
  189.5710  174.1560  145.5600 C   0  0  0  0  0  3  0  0  0  0  0  0
  189.0490  175.0200  144.5770 C   0  0  0  0  0  0  0  0  0  0  0  0
  189.1680  175.8120  147.2670 C   0  0  0  0  0  3  0  0  0  0  0  0
  189.6350  174.5510  146.8980 C   0  0  0  0  0  3  0  0  0  0  0  0
  187.9410  177.1020  143.9860 O   0  0  0  0  0  0  0  0  0  0  0  0
  186.3230  178.9070  143.8440 C   0  0  0  0  0  1  0  0  0  0  0  0
  185.9990  176.8040  142.6130 C   0  0  0  0  0  1  0  0  0  0  0  0
  185.7800  176.7970  145.0580 C   0  0  0  0  0  1  0  0  0  0  0  0
  186.5440  177.4050  143.8910 C   0  0  0  0  0  0  0  0  0  0  0  0
  191.3890  175.2490  142.9590 C   0  0  2  0  0  3  0  0  0  0  0  0
  191.9600  177.1010  145.1840 O   0  0  0  0  0  0  0  0  0  0  0  0
  191.6480  177.5710  144.0570 C   0  0  0  0  0  0  0  0  0  0  0  0
  191.5620  179.0420  143.8850 C   0  0  0  0  0  1  0  0  0  0  0  0
  191.3890  176.7150  142.9330 N   0  0  0  0  0  2  0  0  0  0  0  0
  192.9890  173.4230  143.0010 O   0  0  0  0  0  1  0  0  0  0  0  0
  192.5840  174.4740  140.8910 C   0  0  0  0  0  1  0  0  0  0  0  0
  192.6880  174.6490  142.3980 C   0  0  1  0  0  3  0  0  0  0  0  0
  1  9  1  6  0  0  0
  1  3  1  0  0  0  0
  2  1  1  0  0  0  0
  2 23  1  1  0  0  0
  2  3  1  0  0  0  0
  3 15  1  1  0  0  0
  4  9  1  0  0  0  0
  4  6  2  0  0  0  0
  5  4  1  0  0  0  0
  8 11  1  0  0  0  0
  9  7  1  6  0  0  0
 10 11  1  0  0  0  0
 10  5  2  0  0  0  0
 11  7  2  0  0  0  0
 12 16  1  0  0  0  0
 13 12  2  0  0  0  0
 14 17  1  0  0  0  0
 15 13  1  0  0  0  0
 15 14  2  0  0  0  0
 17 16  2  0  0  0  0
 18 13  1  0  0  0  0
 19 22  1  0  0  0  0
 20 22  1  0  0  0  0
 22 18  1  0  0  0  0
 22 21  1  0  0  0  0
 23 27  1  6  0  0  0
 25 24  2  0  0  0  0
 26 25  1  0  0  0  0
 27 25  1  0  0  0  0
 30 29  1  6  0  0  0
 30 23  1  0  0  0  0
 30 28  1  0  0  0  0
M  END
>  <MODEL>
6

>  <REMARK>
 VINA RESULT:      -6.2      2.166      5.429
  Name = 
  7 active torsions:
  status: ('A' for Active; 'I' for Inactive)
    1  A    between atoms: N_1  and  C_22
    2  A    between atoms: C_4  and  C_23
    3  A    between atoms: C_5  and  C_12
    4  A    between atoms: C_8  and  O_13
    5  A    between atoms: O_13  and  C_30
    6  A    between atoms: C_23  and  N_25
    7  A    between atoms: C_23  and  C_26
                            x       y       z     vdW  Elec       q    Type
                         _______ _______ _______ _____ _____    ______ ____

>  <TORSDO>
F 7

$$$$
=
 OpenBabel11052417083D

 30 32  0  0  1  0  0  0  0  0999 V2000
  191.1600  175.4960  144.5300 N   0  0  1  0  0  0  0  0  0  0  0  0
  191.3230  175.4050  143.0610 C   0  0  1  0  0  3  0  0  0  0  0  0
  192.5090  175.6060  143.9290 C   0  0  2  0  0  3  0  0  0  0  0  0
  190.4760  176.8390  146.4110 C   0  0  0  0  0  0  0  0  0  0  0  0
  189.0860  176.9480  146.8950 C   0  0  0  0  0  3  0  0  0  0  0  0
  191.4160  176.6830  147.2380 O   0  0  0  0  0  0  0  0  0  0  0  0
  189.5990  177.3740  144.1250 C   0  0  0  0  0  3  0  0  0  0  0  0
  187.2820  178.0510  143.7480 C   0  0  0  0  0  1  0  0  0  0  0  0
  190.7780  176.8490  144.9320 C   0  0  2  0  0  3  0  0  0  0  0  0
  188.1000  177.2740  146.0500 C   0  0  0  0  0  3  0  0  0  0  0  0
  188.3740  177.5380  144.6300 C   0  0  0  0  0  0  0  0  0  0  0  0
  195.2430  172.9410  143.8450 C   0  0  0  0  0  3  0  0  0  0  0  0
  194.4680  174.0560  143.4810 C   0  0  0  0  0  0  0  0  0  0  0  0
  193.0340  173.6280  145.4010 C   0  0  0  0  0  3  0  0  0  0  0  0
  193.3340  174.3830  144.2500 C   0  0  0  0  0  0  0  0  0  0  0  0
  194.9190  172.1840  144.9780 C   0  0  0  0  0  3  0  0  0  0  0  0
  193.8190  172.5310  145.7610 C   0  0  0  0  0  3  0  0  0  0  0  0
  194.8150  174.8660  142.3830 O   0  0  0  0  0  0  0  0  0  0  0  0
  197.1900  174.9400  141.8820 C   0  0  0  0  0  1  0  0  0  0  0  0
  195.6960  176.7910  141.2590 C   0  0  0  0  0  1  0  0  0  0  0  0
  196.2060  176.4200  143.6320 C   0  0  0  0  0  1  0  0  0  0  0  0
  195.9590  175.7240  142.3010 C   0  0  0  0  0  0  0  0  0  0  0  0
  191.0350  173.9640  142.6120 C   0  0  2  0  0  3  0  0  0  0  0  0
  192.7170  171.9810  141.2160 O   0  0  0  0  0  0  0  0  0  0  0  0
  192.0750  172.8300  140.5390 C   0  0  0  0  0  0  0  0  0  0  0  0
  192.1960  172.8180  139.0600 C   0  0  0  0  0  1  0  0  0  0  0  0
  191.2200  173.7980  141.1670 N   0  0  0  0  0  2  0  0  0  0  0  0
  188.8170  173.1690  142.0220 O   0  0  0  0  0  1  0  0  0  0  0  0
  189.8410  172.2150  143.9620 C   0  0  0  0  0  1  0  0  0  0  0  0
  189.6690  173.4530  143.0950 C   0  0  1  0  0  3  0  0  0  0  0  0
  1  9  1  6  0  0  0
  2 23  1  1  0  0  0
  2  3  1  0  0  0  0
  2  1  1  0  0  0  0
  3 15  1  1  0  0  0
  3  1  1  0  0  0  0
  4  5  1  0  0  0  0
  4  6  2  0  0  0  0
  7 11  2  0  0  0  0
  8 11  1  0  0  0  0
  9  7  1  6  0  0  0
  9  4  1  0  0  0  0
 10  5  2  0  0  0  0
 11 10  1  0  0  0  0
 12 16  1  0  0  0  0
 13 12  2  0  0  0  0
 13 15  1  0  0  0  0
 14 17  1  0  0  0  0
 15 14  2  0  0  0  0
 16 17  2  0  0  0  0
 18 13  1  0  0  0  0
 19 22  1  0  0  0  0
 20 22  1  0  0  0  0
 22 18  1  0  0  0  0
 22 21  1  0  0  0  0
 23 27  1  6  0  0  0
 23 30  1  0  0  0  0
 25 27  1  0  0  0  0
 25 24  2  0  0  0  0
 26 25  1  0  0  0  0
 28 30  1  0  0  0  0
 30 29  1  6  0  0  0
M  END
>  <MODEL>
7

>  <REMARK>
 VINA RESULT:      -6.1      2.379      4.007
  Name = 
  7 active torsions:
  status: ('A' for Active; 'I' for Inactive)
    1  A    between atoms: N_1  and  C_22
    2  A    between atoms: C_4  and  C_23
    3  A    between atoms: C_5  and  C_12
    4  A    between atoms: C_8  and  O_13
    5  A    between atoms: O_13  and  C_30
    6  A    between atoms: C_23  and  N_25
    7  A    between atoms: C_23  and  C_26
                            x       y       z     vdW  Elec       q    Type
                         _______ _______ _______ _____ _____    ______ ____

>  <TORSDO>
F 7

$$$$
=
 OpenBabel11052417083D

 30 32  0  0  1  0  0  0  0  0999 V2000
  192.0300  174.8080  145.7620 N   0  0  1  0  0  0  0  0  0  0  0  0
  191.6580  175.9620  144.9120 C   0  0  1  0  0  3  0  0  0  0  0  0
  192.1280  174.7010  144.2880 C   0  0  2  0  0  3  0  0  0  0  0  0
  193.6750  176.4030  146.5070 C   0  0  0  0  0  0  0  0  0  0  0  0
  194.5660  177.1640  145.6100 C   0  0  0  0  0  3  0  0  0  0  0  0
  193.0990  176.9920  147.4630 O   0  0  0  0  0  0  0  0  0  0  0  0
  194.4150  174.3360  145.2990 C   0  0  0  0  0  3  0  0  0  0  0  0
  196.2150  174.3710  143.6470 C   0  0  0  0  0  1  0  0  0  0  0  0
  193.3990  174.9400  146.2570 C   0  0  2  0  0  3  0  0  0  0  0  0
  195.3070  176.5270  144.6950 C   0  0  0  0  0  3  0  0  0  0  0  0
  195.2630  175.0630  144.5670 C   0  0  0  0  0  0  0  0  0  0  0  0
  189.8790  172.7430  141.9030 C   0  0  0  0  0  3  0  0  0  0  0  0
  190.8360  173.6620  142.3670 C   0  0  0  0  0  0  0  0  0  0  0  0
  190.3860  172.9130  144.6380 C   0  0  0  0  0  3  0  0  0  0  0  0
  191.0680  173.7690  143.7520 C   0  0  0  0  0  0  0  0  0  0  0  0
  189.1900  171.9150  142.7960 C   0  0  0  0  0  3  0  0  0  0  0  0
  189.4480  171.9930  144.1640 C   0  0  0  0  0  3  0  0  0  0  0  0
  191.5830  174.4590  141.4770 O   0  0  0  0  0  0  0  0  0  0  0  0
  193.3500  172.7950  141.4200 C   0  0  0  0  0  1  0  0  0  0  0  0
  192.4700  173.7910  139.3520 C   0  0  0  0  0  1  0  0  0  0  0  0
  193.8210  175.1790  140.8600 C   0  0  0  0  0  1  0  0  0  0  0  0
  192.7860  174.0650  140.8080 C   0  0  0  0  0  0  0  0  0  0  0  0
  190.1370  176.1700  144.9830 C   0  0  2  0  0  3  0  0  0  0  0  0
  188.1940  175.8220  142.7900 O   0  0  0  0  0  0  0  0  0  0  0  0
  188.7490  176.9430  142.9480 C   0  0  0  0  0  0  0  0  0  0  0  0
  188.4230  178.0510  142.0180 C   0  0  0  0  0  1  0  0  0  0  0  0
  189.6800  177.1740  144.0170 N   0  0  0  0  0  2  0  0  0  0  0  0
  188.9690  177.6790  146.4860 O   0  0  0  0  0  1  0  0  0  0  0  0
  188.7340  175.3330  146.8910 C   0  0  0  0  0  1  0  0  0  0  0  0
  189.6420  176.4540  146.4100 C   0  0  1  0  0  3  0  0  0  0  0  0
  1  9  1  1  0  0  0
  2 23  1  6  0  0  0
  2  1  1  0  0  0  0
  3 15  1  6  0  0  0
  3  2  1  0  0  0  0
  3  1  1  0  0  0  0
  4  6  2  0  0  0  0
  5  4  1  0  0  0  0
  8 11  1  0  0  0  0
  9  7  1  6  0  0  0
  9  4  1  0  0  0  0
 10  5  2  0  0  0  0
 11 10  1  0  0  0  0
 11  7  2  0  0  0  0
 12 13  2  0  0  0  0
 12 16  1  0  0  0  0
 13 15  1  0  0  0  0
 15 14  2  0  0  0  0
 16 17  2  0  0  0  0
 17 14  1  0  0  0  0
 18 13  1  0  0  0  0
 20 22  1  0  0  0  0
 22 21  1  0  0  0  0
 22 19  1  0  0  0  0
 22 18  1  0  0  0  0
 23 27  1  6  0  0  0
 23 30  1  0  0  0  0
 24 25  2  0  0  0  0
 25 27  1  0  0  0  0
 26 25  1  0  0  0  0
 30 28  1  0  0  0  0
 30 29  1  6  0  0  0
M  END
>  <MODEL>
8

>  <REMARK>
 VINA RESULT:      -6.0      1.999      6.264
  Name = 
  7 active torsions:
  status: ('A' for Active; 'I' for Inactive)
    1  A    between atoms: N_1  and  C_22
    2  A    between atoms: C_4  and  C_23
    3  A    between atoms: C_5  and  C_12
    4  A    between atoms: C_8  and  O_13
    5  A    between atoms: O_13  and  C_30
    6  A    between atoms: C_23  and  N_25
    7  A    between atoms: C_23  and  C_26
                            x       y       z     vdW  Elec       q    Type
                         _______ _______ _______ _____ _____    ______ ____

>  <TORSDO>
F 7

$$$$
=
 OpenBabel11052417083D

 30 32  0  0  1  0  0  0  0  0999 V2000
  189.9040  176.4110  144.0090 N   0  0  1  0  0  0  0  0  0  0  0  0
  190.3950  175.7550  142.7750 C   0  0  1  0  0  3  0  0  0  0  0  0
  191.2110  176.8040  143.4350 C   0  0  2  0  0  3  0  0  0  0  0  0
  187.7750  177.3730  144.6030 C   0  0  0  0  0  0  0  0  0  0  0  0
  186.4750  176.9110  144.0780 C   0  0  0  0  0  3  0  0  0  0  0  0
  187.9000  177.6210  145.8340 O   0  0  0  0  0  0  0  0  0  0  0  0
  188.5640  177.4870  142.2270 C   0  0  0  0  0  3  0  0  0  0  0  0
  187.0490  177.1580  140.3390 C   0  0  0  0  0  1  0  0  0  0  0  0
  188.9730  177.4940  143.6930 C   0  0  2  0  0  3  0  0  0  0  0  0
  186.2810  176.8000  142.7580 C   0  0  0  0  0  3  0  0  0  0  0  0
  187.3450  177.1420  141.8030 C   0  0  0  0  0  0  0  0  0  0  0  0
  194.6710  175.7470  144.6560 C   0  0  0  0  0  3  0  0  0  0  0  0
  193.6310  176.1320  143.7910 C   0  0  0  0  0  0  0  0  0  0  0  0
  192.1300  176.2070  145.7050 C   0  0  0  0  0  3  0  0  0  0  0  0
  192.3410  176.3330  144.3180 C   0  0  0  0  0  0  0  0  0  0  0  0
  194.4420  175.6000  146.0300 C   0  0  0  0  0  3  0  0  0  0  0  0
  193.1730  175.8380  146.5570 C   0  0  0  0  0  3  0  0  0  0  0  0
  193.8580  176.3440  142.4180 O   0  0  0  0  0  0  0  0  0  0  0  0
  195.4550  174.5180  142.3040 C   0  0  0  0  0  1  0  0  0  0  0  0
  194.4010  175.4200  140.2740 C   0  0  0  0  0  1  0  0  0  0  0  0
  196.0510  176.7910  141.4680 C   0  0  0  0  0  1  0  0  0  0  0  0
  194.9270  175.7810  141.6480 C   0  0  0  0  0  0  0  0  0  0  0  0
  190.7600  174.2970  143.0930 C   0  0  2  0  0  3  0  0  0  0  0  0
  192.8990  172.2650  143.0210 O   0  0  0  0  0  0  0  0  0  0  0  0
  192.3710  172.6420  141.9400 C   0  0  0  0  0  0  0  0  0  0  0  0
  192.8520  172.0660  140.6600 C   0  0  0  0  0  1  0  0  0  0  0  0
  191.3070  173.6070  141.9210 N   0  0  0  0  0  2  0  0  0  0  0  0
  189.0670  172.5690  142.8780 O   0  0  0  0  0  1  0  0  0  0  0  0
  190.0750  172.8510  145.0290 C   0  0  0  0  0  1  0  0  0  0  0  0
  189.6050  173.5230  143.7480 C   0  0  1  0  0  3  0  0  0  0  0  0
  1  9  1  6  0  0  0
  2 23  1  1  0  0  0
  2  3  1  0  0  0  0
  2  1  1  0  0  0  0
  3  1  1  0  0  0  0
  3 15  1  1  0  0  0
  4  6  2  0  0  0  0
  5  4  1  0  0  0  0
  8 11  1  0  0  0  0
  9  7  1  6  0  0  0
  9  4  1  0  0  0  0
 10  5  2  0  0  0  0
 11  7  2  0  0  0  0
 11 10  1  0  0  0  0
 12 16  1  0  0  0  0
 13 15  1  0  0  0  0
 13 12  2  0  0  0  0
 14 17  1  0  0  0  0
 15 14  2  0  0  0  0
 16 17  2  0  0  0  0
 18 13  1  0  0  0  0
 20 22  1  0  0  0  0
 21 22  1  0  0  0  0
 22 19  1  0  0  0  0
 22 18  1  0  0  0  0
 23 27  1  6  0  0  0
 23 30  1  0  0  0  0
 25 24  2  0  0  0  0
 26 25  1  0  0  0  0
 27 25  1  0  0  0  0
 28 30  1  0  0  0  0
 30 29  1  1  0  0  0
M  END
>  <MODEL>
9

>  <REMARK>
 VINA RESULT:      -6.0      1.807      2.649
  Name = 
  7 active torsions:
  status: ('A' for Active; 'I' for Inactive)
    1  A    between atoms: N_1  and  C_22
    2  A    between atoms: C_4  and  C_23
    3  A    between atoms: C_5  and  C_12
    4  A    between atoms: C_8  and  O_13
    5  A    between atoms: O_13  and  C_30
    6  A    between atoms: C_23  and  N_25
    7  A    between atoms: C_23  and  C_26
                            x       y       z     vdW  Elec       q    Type
                         _______ _______ _______ _____ _____    ______ ____

>  <TORSDO>
F 7

$$$$
