=
 OpenBabel11052421293D

 32 36  0  0  1  0  0  0  0  0999 V2000
  193.9660  173.9320  144.3840 C   0  0  1  0  0  3  0  0  0  0  0  0
  191.0350  176.7820  146.3200 C   0  0  0  0  0  2  0  0  0  0  0  0
  189.0030  174.0470  141.6660 C   0  0  0  0  0  2  0  0  0  0  0  0
  187.9650  175.1650  141.8410 C   0  0  0  0  0  2  0  0  0  0  0  0
  193.1900  175.8960  145.6350 N   0  0  2  0  0  0  0  0  0  0  0  0
  191.7480  173.9280  145.3820 O   0  0  0  0  0  0  0  0  0  0  0  0
  193.8470  172.5470  144.2490 O   0  0  0  0  0  1  0  0  0  0  0  0
  190.2240  174.2400  142.5620 C   0  0  0  0  0  2  0  0  0  0  0  0
  190.8870  174.9130  144.8670 C   0  0  1  0  0  3  0  0  0  0  0  0
  189.7970  174.2890  144.0320 C   0  0  1  0  0  3  0  0  0  0  0  0
  188.9520  176.0530  145.4630 C   0  0  2  0  0  3  0  0  0  0  0  0
  195.4670  175.6640  144.7450 C   0  0  1  0  0  3  0  0  0  0  0  0
  193.0750  174.4260  145.5280 C   0  0  1  0  0  3  0  0  0  0  0  0
  194.5910  176.2330  145.8690 C   0  0  0  0  0  2  0  0  0  0  0  0
  195.3180  174.2590  144.6300 O   0  0  0  0  0  0  0  0  0  0  0  0
  188.1910  176.0270  143.0870 C   0  0  0  0  0  2  0  0  0  0  0  0
  188.5680  175.1630  144.2900 C   0  0  1  0  0  3  0  0  0  0  0  0
  192.4320  176.3760  146.7840 C   0  0  0  0  0  2  0  0  0  0  0  0
  190.2410  175.6040  145.9780 N   0  0  2  0  0  0  0  0  0  0  0  0
  195.2430  176.3930  143.4200 C   0  0  0  0  0  2  0  0  0  0  0  0
  196.5140  176.4810  142.6490 C   0  0  0  0  0  0  0  0  0  0  0  0
  196.4870  176.8210  141.3030 O   0  0  0  0  0  0  0  0  0  0  0  0
  197.6140  176.2750  143.2230 O   0  0  0  0  0  1  0  0  0  0  0  0
  187.8810  176.0350  146.5590 C   0  0  0  0  0  2  0  0  0  0  0  0
  186.8410  177.8870  145.2210 C   0  0  0  0  0  3  0  0  0  0  0  0
  185.8590  178.8650  145.0410 C   0  0  0  0  0  0  0  0  0  0  0  0
  184.8090  178.1920  147.1190 C   0  0  0  0  0  3  0  0  0  0  0  0
  184.8390  179.0130  145.9880 C   0  0  0  0  0  3  0  0  0  0  0  0
  185.7960  177.2190  147.3020 C   0  0  0  0  0  3  0  0  0  0  0  0
  186.8120  177.0620  146.3520 C   0  0  0  0  0  0  0  0  0  0  0  0
  185.8800  179.7290  143.8280 C   0  0  0  0  0  2  0  0  0  0  0  0
  186.1590  178.9200  142.6550 N   0  0  0  0  0  1  0  0  0  0  0  0
  1  7  1  1  0  0  0
  1 15  1  0  0  0  0
  1 13  1  0  0  0  0
  2 18  1  0  0  0  0
  3  4  1  0  0  0  0
  3  8  1  0  0  0  0
  4 16  1  0  0  0  0
  5 14  1  1  0  0  0
  5 18  1  0  0  0  0
  9  6  1  1  0  0  0
  9 19  1  0  0  0  0
 10  8  1  6  0  0  0
 10 17  1  0  0  0  0
 10  9  1  0  0  0  0
 11 19  1  0  0  0  0
 11 24  1  1  0  0  0
 12 20  1  6  0  0  0
 12 14  1  0  0  0  0
 13  6  1  6  0  0  0
 13  5  1  0  0  0  0
 15 12  1  0  0  0  0
 17 16  1  6  0  0  0
 17 11  1  0  0  0  0
 19  2  1  6  0  0  0
 21 23  1  0  0  0  0
 21 20  1  0  0  0  0
 22 21  2  0  0  0  0
 25 30  1  0  0  0  0
 26 25  2  0  0  0  0
 26 28  1  0  0  0  0
 27 29  1  0  0  0  0
 28 27  2  0  0  0  0
 30 24  1  0  0  0  0
 30 29  2  0  0  0  0
 31 26  1  0  0  0  0
 32 31  1  0  0  0  0
M  END
>  <MODEL>
1

>  <REMARK>
 VINA RESULT:      -8.2      0.000      0.000
  Name = 
  5 active torsions:
  status: ('A' for Active; 'I' for Inactive)
    1  A    between atoms: C_1  and  C_17
    2  A    between atoms: C_7  and  C_22
    3  A    between atoms: C_16  and  C_27
    4  A    between atoms: C_17  and  C_19
    5  A    between atoms: C_27  and  C_32
                            x       y       z     vdW  Elec       q    Type
                         _______ _______ _______ _____ _____    ______ ____

>  <TORSDO>
F 5

$$$$
=
 OpenBabel11052421293D

 32 36  0  0  1  0  0  0  0  0999 V2000
  192.1160  172.9780  141.5190 C   0  0  1  0  0  3  0  0  0  0  0  0
  188.3730  175.0960  142.9210 C   0  0  0  0  0  2  0  0  0  0  0  0
  192.6520  174.9750  146.7870 C   0  0  0  0  0  2  0  0  0  0  0  0
  191.4600  175.3910  147.6630 C   0  0  0  0  0  2  0  0  0  0  0  0
  189.7220  173.4890  141.6970 N   0  0  2  0  0  0  0  0  0  0  0  0
  191.4040  175.1540  142.3410 O   0  0  0  0  0  0  0  0  0  0  0  0
  193.3870  173.5260  141.3330 O   0  0  0  0  0  1  0  0  0  0  0  0
  192.2210  174.5270  145.3920 C   0  0  0  0  0  2  0  0  0  0  0  0
  190.6640  175.1000  143.5340 C   0  0  1  0  0  3  0  0  0  0  0  0
  191.4630  175.6550  144.6870 C   0  0  1  0  0  3  0  0  0  0  0  0
  189.1560  176.3980  144.7370 C   0  0  2  0  0  3  0  0  0  0  0  0
  190.6000  171.4250  140.6980 C   0  0  1  0  0  3  0  0  0  0  0  0
  191.0560  174.0840  141.4670 C   0  0  1  0  0  3  0  0  0  0  0  0
  189.4850  172.4790  140.6710 C   0  0  0  0  0  2  0  0  0  0  0  0
  191.8770  172.0130  140.5150 O   0  0  0  0  0  0  0  0  0  0  0  0
  190.1620  175.6030  146.8770 C   0  0  0  0  0  2  0  0  0  0  0  0
  190.4280  176.3520  145.5720 C   0  0  1  0  0  3  0  0  0  0  0  0
  188.6890  174.5070  141.5470 C   0  0  0  0  0  2  0  0  0  0  0  0
  189.4740  175.9330  143.3910 N   0  0  2  0  0  0  0  0  0  0  0  0
  190.5270  170.5480  141.9490 C   0  0  0  0  0  2  0  0  0  0  0  0
  191.0360  169.1790  141.6590 C   0  0  0  0  0  0  0  0  0  0  0  0
  191.9110  168.5610  142.5420 O   0  0  0  0  0  1  0  0  0  0  0  0
  190.6490  168.5690  140.6280 O   0  0  0  0  0  0  0  0  0  0  0  0
  188.5500  177.8040  144.7090 C   0  0  0  0  0  2  0  0  0  0  0  0
  186.1260  178.3660  144.3770 C   0  0  0  0  0  3  0  0  0  0  0  0
  184.8090  178.4280  144.8400 C   0  0  0  0  0  0  0  0  0  0  0  0
  185.5020  177.4340  146.9380 C   0  0  0  0  0  3  0  0  0  0  0  0
  184.4960  177.9560  146.1200 C   0  0  0  0  0  3  0  0  0  0  0  0
  186.8210  177.3800  146.4770 C   0  0  0  0  0  3  0  0  0  0  0  0
  187.1350  177.8430  145.1940 C   0  0  0  0  0  0  0  0  0  0  0  0
  183.7340  178.9670  143.9620 C   0  0  0  0  0  2  0  0  0  0  0  0
  183.7380  178.2620  142.6920 N   0  0  0  0  0  1  0  0  0  0  0  0
  1  7  1  6  0  0  0
  3  4  1  0  0  0  0
  5 14  1  6  0  0  0
  8  3  1  0  0  0  0
  9  6  1  6  0  0  0
  9 10  1  0  0  0  0
 10  8  1  1  0  0  0
 10 17  1  0  0  0  0
 11 24  1  6  0  0  0
 11 17  1  0  0  0  0
 12 20  1  1  0  0  0
 13  1  1  0  0  0  0
 13  5  1  0  0  0  0
 13  6  1  1  0  0  0
 14 12  1  0  0  0  0
 15 12  1  0  0  0  0
 15  1  1  0  0  0  0
 16  4  1  0  0  0  0
 17 16  1  1  0  0  0
 18  5  1  0  0  0  0
 18  2  1  0  0  0  0
 19  2  1  1  0  0  0
 19  9  1  0  0  0  0
 19 11  1  0  0  0  0
 21 20  1  0  0  0  0
 21 22  1  0  0  0  0
 23 21  2  0  0  0  0
 24 30  1  0  0  0  0
 25 26  2  0  0  0  0
 25 30  1  0  0  0  0
 26 28  1  0  0  0  0
 28 27  2  0  0  0  0
 29 27  1  0  0  0  0
 30 29  2  0  0  0  0
 31 26  1  0  0  0  0
 32 31  1  0  0  0  0
M  END
>  <MODEL>
2

>  <REMARK>
 VINA RESULT:      -8.1      2.659      5.083
  Name = 
  5 active torsions:
  status: ('A' for Active; 'I' for Inactive)
    1  A    between atoms: C_1  and  C_17
    2  A    between atoms: C_7  and  C_22
    3  A    between atoms: C_16  and  C_27
    4  A    between atoms: C_17  and  C_19
    5  A    between atoms: C_27  and  C_32
                            x       y       z     vdW  Elec       q    Type
                         _______ _______ _______ _____ _____    ______ ____

>  <TORSDO>
F 5

$$$$
=
 OpenBabel11052421293D

 32 36  0  0  1  0  0  0  0  0999 V2000
  194.7880  173.5390  144.8900 C   0  0  1  0  0  3  0  0  0  0  0  0
  191.8570  176.9670  144.5480 C   0  0  0  0  0  2  0  0  0  0  0  0
  189.7260  171.8270  143.0280 C   0  0  0  0  0  2  0  0  0  0  0  0
  188.6650  172.7790  142.4550 C   0  0  0  0  0  2  0  0  0  0  0  0
  194.0080  175.8390  144.5350 N   0  0  2  0  0  0  0  0  0  0  0  0
  192.6100  174.2180  145.7330 O   0  0  0  0  0  0  0  0  0  0  0  0
  194.7020  172.4230  145.7240 O   0  0  0  0  0  1  0  0  0  0  0  0
  190.9740  172.5650  143.5060 C   0  0  0  0  0  2  0  0  0  0  0  0
  191.7050  174.6070  144.7320 C   0  0  1  0  0  3  0  0  0  0  0  0
  190.6010  173.5900  144.5810 C   0  0  1  0  0  3  0  0  0  0  0  0
  189.7630  175.8630  144.4970 C   0  0  2  0  0  3  0  0  0  0  0  0
  196.2550  175.0580  143.9280 C   0  0  1  0  0  3  0  0  0  0  0  0
  193.9280  174.6780  145.4480 C   0  0  1  0  0  3  0  0  0  0  0  0
  195.4070  176.2380  144.4190 C   0  0  0  0  0  2  0  0  0  0  0  0
  196.1400  173.9390  144.7920 O   0  0  0  0  0  0  0  0  0  0  0  0
  188.9150  174.2530  142.7900 C   0  0  0  0  0  2  0  0  0  0  0  0
  189.3600  174.4170  144.2430 C   0  0  1  0  0  3  0  0  0  0  0  0
  193.2810  176.9700  145.1000 C   0  0  0  0  0  2  0  0  0  0  0  0
  191.0830  175.8680  145.1210 N   0  0  2  0  0  0  0  0  0  0  0  0
  195.9620  174.7110  142.4680 C   0  0  0  0  0  2  0  0  0  0  0  0
  196.6960  175.6290  141.5540 C   0  0  0  0  0  0  0  0  0  0  0  0
  196.1000  176.8070  141.1270 O   0  0  0  0  0  0  0  0  0  0  0  0
  197.8690  175.3520  141.1920 O   0  0  0  0  0  1  0  0  0  0  0  0
  188.7350  176.5900  145.3700 C   0  0  0  0  0  2  0  0  0  0  0  0
  186.5910  177.8790  145.1640 C   0  0  0  0  0  3  0  0  0  0  0  0
  185.6830  178.6340  144.4160 C   0  0  0  0  0  0  0  0  0  0  0  0
  187.1490  178.4900  142.4920 C   0  0  0  0  0  3  0  0  0  0  0  0
  185.9660  178.9450  143.0810 C   0  0  0  0  0  3  0  0  0  0  0  0
  188.0540  177.7280  143.2390 C   0  0  0  0  0  3  0  0  0  0  0  0
  187.7770  177.4230  144.5770 C   0  0  0  0  0  0  0  0  0  0  0  0
  184.4310  179.1340  145.0470 C   0  0  0  0  0  2  0  0  0  0  0  0
  184.1850  178.4160  146.2860 N   0  0  0  0  0  1  0  0  0  0  0  0
  1 13  1  0  0  0  0
  1  7  1  1  0  0  0
  2 18  1  0  0  0  0
  3  8  1  0  0  0  0
  4 16  1  0  0  0  0
  4  3  1  0  0  0  0
  5 14  1  1  0  0  0
  5 18  1  0  0  0  0
  5 13  1  0  0  0  0
  9 19  1  0  0  0  0
  9  6  1  1  0  0  0
 10  8  1  6  0  0  0
 10  9  1  0  0  0  0
 11 19  1  0  0  0  0
 11 24  1  1  0  0  0
 12 20  1  6  0  0  0
 12 14  1  0  0  0  0
 12 15  1  0  0  0  0
 13  6  1  6  0  0  0
 15  1  1  0  0  0  0
 17 16  1  6  0  0  0
 17 11  1  0  0  0  0
 17 10  1  0  0  0  0
 19  2  1  6  0  0  0
 21 20  1  0  0  0  0
 22 21  2  0  0  0  0
 23 21  1  0  0  0  0
 26 31  1  0  0  0  0
 26 25  2  0  0  0  0
 27 28  2  0  0  0  0
 27 29  1  0  0  0  0
 28 26  1  0  0  0  0
 29 30  2  0  0  0  0
 30 25  1  0  0  0  0
 30 24  1  0  0  0  0
 31 32  1  0  0  0  0
M  END
>  <MODEL>
3

>  <REMARK>
 VINA RESULT:      -8.1      1.547      2.147
  Name = 
  5 active torsions:
  status: ('A' for Active; 'I' for Inactive)
    1  A    between atoms: C_1  and  C_17
    2  A    between atoms: C_7  and  C_22
    3  A    between atoms: C_16  and  C_27
    4  A    between atoms: C_17  and  C_19
    5  A    between atoms: C_27  and  C_32
                            x       y       z     vdW  Elec       q    Type
                         _______ _______ _______ _____ _____    ______ ____

>  <TORSDO>
F 5

$$$$
=
 OpenBabel11052421293D

 32 36  0  0  1  0  0  0  0  0999 V2000
  187.7180  178.1800  142.4030 C   0  0  1  0  0  3  0  0  0  0  0  0
  188.2340  176.3720  146.5180 C   0  0  0  0  0  2  0  0  0  0  0  0
  189.9090  172.9670  142.1740 C   0  0  0  0  0  2  0  0  0  0  0  0
  189.8470  171.9680  143.3390 C   0  0  0  0  0  2  0  0  0  0  0  0
  187.2530  177.7510  144.7750 N   0  0  2  0  0  0  0  0  0  0  0  0
  189.4620  177.2590  143.8280 O   0  0  0  0  0  0  0  0  0  0  0  0
  188.7160  178.4870  141.4760 O   0  0  0  0  0  1  0  0  0  0  0  0
  189.2890  174.3170  142.5300 C   0  0  0  0  0  2  0  0  0  0  0  0
  189.1540  175.9970  144.3650 C   0  0  1  0  0  3  0  0  0  0  0  0
  190.0100  174.9240  143.7370 C   0  0  1  0  0  3  0  0  0  0  0  0
  189.7880  174.6280  146.1330 C   0  0  2  0  0  3  0  0  0  0  0  0
  185.6730  178.8630  143.2600 C   0  0  1  0  0  3  0  0  0  0  0  0
  188.3170  178.1080  143.8120 C   0  0  1  0  0  3  0  0  0  0  0  0
  186.2030  178.7610  144.6960 C   0  0  0  0  0  2  0  0  0  0  0  0
  186.7100  179.1680  142.3430 O   0  0  0  0  0  0  0  0  0  0  0  0
  189.5110  172.6130  144.6880 C   0  0  0  0  0  2  0  0  0  0  0  0
  190.2680  173.9290  144.8690 C   0  0  1  0  0  3  0  0  0  0  0  0
  187.7790  177.7790  146.1350 C   0  0  0  0  0  2  0  0  0  0  0  0
  189.4490  176.0060  145.7940 N   0  0  2  0  0  0  0  0  0  0  0  0
  184.8720  177.6240  142.8580 C   0  0  0  0  0  2  0  0  0  0  0  0
  183.9240  177.9480  141.7560 C   0  0  0  0  0  0  0  0  0  0  0  0
  184.3540  177.9110  140.4360 O   0  0  0  0  0  0  0  0  0  0  0  0
  182.7260  178.2270  142.0180 O   0  0  0  0  0  1  0  0  0  0  0  0
  190.8430  174.5740  147.2430 C   0  0  0  0  0  2  0  0  0  0  0  0
  193.0830  174.2020  146.1730 C   0  0  0  0  0  3  0  0  0  0  0  0
  194.3460  174.6580  145.7850 C   0  0  0  0  0  0  0  0  0  0  0  0
  193.8140  176.8590  146.6490 C   0  0  0  0  0  3  0  0  0  0  0  0
  194.7090  175.9900  146.0180 C   0  0  0  0  0  3  0  0  0  0  0  0
  192.5530  176.4000  147.0430 C   0  0  0  0  0  3  0  0  0  0  0  0
  192.1840  175.0710  146.8030 C   0  0  0  0  0  0  0  0  0  0  0  0
  195.2930  173.7380  145.0990 C   0  0  0  0  0  2  0  0  0  0  0  0
  196.5640  173.7270  145.8010 N   0  0  0  0  0  1  0  0  0  0  0  0
  1  7  1  6  0  0  0
  1 13  1  0  0  0  0
  3  8  1  0  0  0  0
  3  4  1  0  0  0  0
  4 16  1  0  0  0  0
  5 14  1  1  0  0  0
  5 18  1  0  0  0  0
  9  6  1  6  0  0  0
  9 19  1  0  0  0  0
 10  8  1  6  0  0  0
 10  9  1  0  0  0  0
 10 17  1  0  0  0  0
 11 24  1  1  0  0  0
 12 20  1  6  0  0  0
 12 14  1  0  0  0  0
 13  6  1  6  0  0  0
 13  5  1  0  0  0  0
 15  1  1  0  0  0  0
 15 12  1  0  0  0  0
 17 16  1  6  0  0  0
 17 11  1  0  0  0  0
 18  2  1  0  0  0  0
 19 11  1  0  0  0  0
 19  2  1  1  0  0  0
 21 23  1  0  0  0  0
 21 20  1  0  0  0  0
 22 21  2  0  0  0  0
 25 30  1  0  0  0  0
 26 28  1  0  0  0  0
 26 25  2  0  0  0  0
 27 29  1  0  0  0  0
 28 27  2  0  0  0  0
 30 29  2  0  0  0  0
 30 24  1  0  0  0  0
 31 26  1  0  0  0  0
 31 32  1  0  0  0  0
M  END
>  <MODEL>
4

>  <REMARK>
 VINA RESULT:      -8.0      3.613      7.788
  Name = 
  5 active torsions:
  status: ('A' for Active; 'I' for Inactive)
    1  A    between atoms: C_1  and  C_17
    2  A    between atoms: C_7  and  C_22
    3  A    between atoms: C_16  and  C_27
    4  A    between atoms: C_17  and  C_19
    5  A    between atoms: C_27  and  C_32
                            x       y       z     vdW  Elec       q    Type
                         _______ _______ _______ _____ _____    ______ ____

>  <TORSDO>
F 5

$$$$
=
 OpenBabel11052421293D

 32 36  0  0  1  0  0  0  0  0999 V2000
  192.6470  173.7960  144.7360 C   0  0  1  0  0  3  0  0  0  0  0  0
  189.2510  176.7580  144.3380 C   0  0  0  0  0  2  0  0  0  0  0  0
  189.5770  172.8930  140.0690 C   0  0  0  0  0  2  0  0  0  0  0  0
  188.6200  173.9340  139.4660 C   0  0  0  0  0  2  0  0  0  0  0  0
  191.4410  175.9210  144.9740 N   0  0  2  0  0  0  0  0  0  0  0  0
  190.2230  173.8350  144.5460 O   0  0  0  0  0  0  0  0  0  0  0  0
  192.5570  172.4120  144.8920 O   0  0  0  0  0  1  0  0  0  0  0  0
  190.2320  173.3820  141.3580 C   0  0  0  0  0  2  0  0  0  0  0  0
  189.7450  174.6060  143.4730 C   0  0  1  0  0  3  0  0  0  0  0  0
  189.1610  173.7240  142.3970 C   0  0  1  0  0  3  0  0  0  0  0  0
  187.8000  175.6880  142.8030 C   0  0  2  0  0  3  0  0  0  0  0  0
  193.8570  175.6820  145.3390 C   0  0  1  0  0  3  0  0  0  0  0  0
  191.3380  174.4600  145.1760 C   0  0  1  0  0  3  0  0  0  0  0  0
  192.5730  176.4150  145.7510 C   0  0  0  0  0  2  0  0  0  0  0  0
  193.7310  174.2800  145.5030 O   0  0  0  0  0  0  0  0  0  0  0  0
  188.2580  175.0680  140.4300 C   0  0  0  0  0  2  0  0  0  0  0  0
  187.9880  174.5290  141.8350 C   0  0  1  0  0  3  0  0  0  0  0  0
  190.2450  176.5820  145.4840 C   0  0  0  0  0  2  0  0  0  0  0  0
  188.6740  175.4720  143.9520 N   0  0  2  0  0  0  0  0  0  0  0  0
  194.3140  176.0760  143.9340 C   0  0  0  0  0  2  0  0  0  0  0  0
  195.8010  176.0550  143.8420 C   0  0  0  0  0  0  0  0  0  0  0  0
  196.4540  176.9020  142.9570 O   0  0  0  0  0  0  0  0  0  0  0  0
  196.4670  175.2920  144.5880 O   0  0  0  0  0  1  0  0  0  0  0  0
  186.3370  175.8280  143.2380 C   0  0  0  0  0  2  0  0  0  0  0  0
  185.6680  177.2570  145.1900 C   0  0  0  0  0  3  0  0  0  0  0  0
  185.3540  178.5000  145.7470 C   0  0  0  0  0  0  0  0  0  0  0  0
  185.7720  179.5620  143.6090 C   0  0  0  0  0  3  0  0  0  0  0  0
  185.4130  179.6540  144.9570 C   0  0  0  0  0  3  0  0  0  0  0  0
  186.0790  178.3170  143.0510 C   0  0  0  0  0  3  0  0  0  0  0  0
  186.0300  177.1630  143.8410 C   0  0  0  0  0  0  0  0  0  0  0  0
  184.9880  178.6010  147.1860 C   0  0  0  0  0  2  0  0  0  0  0  0
  186.0540  178.0510  148.0040 N   0  0  0  0  0  1  0  0  0  0  0  0
  1  7  1  1  0  0  0
  1 13  1  0  0  0  0
  1 15  1  0  0  0  0
  2 18  1  0  0  0  0
  3  8  1  0  0  0  0
  4  3  1  0  0  0  0
  4 16  1  0  0  0  0
  5 13  1  0  0  0  0
  5 18  1  1  0  0  0
  5 14  1  0  0  0  0
  9 19  1  0  0  0  0
  9  6  1  1  0  0  0
 10  8  1  6  0  0  0
 10  9  1  0  0  0  0
 11 24  1  1  0  0  0
 11 19  1  0  0  0  0
 12 20  1  6  0  0  0
 12 15  1  0  0  0  0
 12 14  1  0  0  0  0
 13  6  1  6  0  0  0
 17 16  1  6  0  0  0
 17 10  1  0  0  0  0
 17 11  1  0  0  0  0
 19  2  1  6  0  0  0
 21 20  1  0  0  0  0
 21 23  1  0  0  0  0
 22 21  2  0  0  0  0
 24 30  1  0  0  0  0
 25 26  1  0  0  0  0
 26 31  1  0  0  0  0
 27 28  1  0  0  0  0
 28 26  2  0  0  0  0
 29 27  2  0  0  0  0
 29 30  1  0  0  0  0
 30 25  2  0  0  0  0
 31 32  1  0  0  0  0
M  END
>  <MODEL>
5

>  <REMARK>
 VINA RESULT:      -7.9      1.641      2.503
  Name = 
  5 active torsions:
  status: ('A' for Active; 'I' for Inactive)
    1  A    between atoms: C_1  and  C_17
    2  A    between atoms: C_7  and  C_22
    3  A    between atoms: C_16  and  C_27
    4  A    between atoms: C_17  and  C_19
    5  A    between atoms: C_27  and  C_32
                            x       y       z     vdW  Elec       q    Type
                         _______ _______ _______ _____ _____    ______ ____

>  <TORSDO>
F 5

$$$$
=
 OpenBabel11052421293D

 32 36  0  0  1  0  0  0  0  0999 V2000
  187.7360  178.1790  142.3200 C   0  0  1  0  0  3  0  0  0  0  0  0
  188.8980  175.6450  145.8830 C   0  0  0  0  0  2  0  0  0  0  0  0
  189.6930  173.1000  140.7690 C   0  0  0  0  0  2  0  0  0  0  0  0
  189.8030  171.9030  141.7260 C   0  0  0  0  0  2  0  0  0  0  0  0
  187.6740  177.3200  144.6190 N   0  0  2  0  0  0  0  0  0  0  0  0
  189.6700  177.0140  143.2260 O   0  0  0  0  0  0  0  0  0  0  0  0
  188.5680  178.6530  141.3040 O   0  0  0  0  0  1  0  0  0  0  0  0
  189.1860  174.3600  141.4670 C   0  0  0  0  0  2  0  0  0  0  0  0
  189.4210  175.6740  143.5700 C   0  0  1  0  0  3  0  0  0  0  0  0
  190.1220  174.7370  142.6190 C   0  0  1  0  0  3  0  0  0  0  0  0
  190.3080  174.0050  144.9220 C   0  0  2  0  0  3  0  0  0  0  0  0
  185.8910  178.6890  143.6320 C   0  0  1  0  0  3  0  0  0  0  0  0
  188.5670  177.8490  143.5650 C   0  0  1  0  0  3  0  0  0  0  0  0
  186.6580  178.3260  144.9100 C   0  0  0  0  0  2  0  0  0  0  0  0
  186.7630  179.1590  142.6180 O   0  0  0  0  0  0  0  0  0  0  0  0
  189.7240  172.2900  143.2070 C   0  0  0  0  0  2  0  0  0  0  0  0
  190.5420  173.5500  143.4880 C   0  0  1  0  0  3  0  0  0  0  0  0
  188.4280  177.0980  145.8480 C   0  0  0  0  0  2  0  0  0  0  0  0
  189.9580  175.4210  144.9030 N   0  0  2  0  0  0  0  0  0  0  0  0
  184.9950  177.5440  143.1580 C   0  0  0  0  0  2  0  0  0  0  0  0
  184.0770  178.0090  142.0810 C   0  0  0  0  0  0  0  0  0  0  0  0
  182.8350  178.5360  142.4070 O   0  0  0  0  0  1  0  0  0  0  0  0
  184.4390  177.9520  140.8770 O   0  0  0  0  0  0  0  0  0  0  0  0
  191.5370  173.7490  145.8020 C   0  0  0  0  0  2  0  0  0  0  0  0
  193.3650  174.9100  144.5330 C   0  0  0  0  0  3  0  0  0  0  0  0
  194.3540  175.8930  144.4340 C   0  0  0  0  0  0  0  0  0  0  0  0
  193.7590  176.7090  146.6370 C   0  0  0  0  0  3  0  0  0  0  0  0
  194.5460  176.7970  145.4850 C   0  0  0  0  0  3  0  0  0  0  0  0
  192.7760  175.7200  146.7390 C   0  0  0  0  0  3  0  0  0  0  0  0
  192.5750  174.8200  145.6850 C   0  0  0  0  0  0  0  0  0  0  0  0
  195.1800  175.9980  143.2010 C   0  0  0  0  0  2  0  0  0  0  0  0
  196.4180  176.6980  143.4970 N   0  0  0  0  0  1  0  0  0  0  0  0
  1  7  1  6  0  0  0
  1 15  1  0  0  0  0
  1 13  1  0  0  0  0
  3  8  1  0  0  0  0
  3  4  1  0  0  0  0
  4 16  1  0  0  0  0
  5 14  1  1  0  0  0
  5 18  1  0  0  0  0
  9  6  1  6  0  0  0
  9 19  1  0  0  0  0
 10  8  1  6  0  0  0
 10 17  1  0  0  0  0
 10  9  1  0  0  0  0
 11 24  1  1  0  0  0
 12 20  1  6  0  0  0
 12 14  1  0  0  0  0
 13  6  1  6  0  0  0
 13  5  1  0  0  0  0
 15 12  1  0  0  0  0
 17 16  1  6  0  0  0
 17 11  1  0  0  0  0
 18  2  1  0  0  0  0
 19 11  1  0  0  0  0
 19  2  1  1  0  0  0
 21 22  1  0  0  0  0
 21 20  1  0  0  0  0
 23 21  2  0  0  0  0
 25 30  1  0  0  0  0
 26 25  2  0  0  0  0
 26 28  1  0  0  0  0
 27 29  1  0  0  0  0
 28 27  2  0  0  0  0
 30 24  1  0  0  0  0
 30 29  2  0  0  0  0
 31 32  1  0  0  0  0
 31 26  1  0  0  0  0
M  END
>  <MODEL>
6

>  <REMARK>
 VINA RESULT:      -7.6      3.557      7.596
  Name = 
  5 active torsions:
  status: ('A' for Active; 'I' for Inactive)
    1  A    between atoms: C_1  and  C_17
    2  A    between atoms: C_7  and  C_22
    3  A    between atoms: C_16  and  C_27
    4  A    between atoms: C_17  and  C_19
    5  A    between atoms: C_27  and  C_32
                            x       y       z     vdW  Elec       q    Type
                         _______ _______ _______ _____ _____    ______ ____

>  <TORSDO>
F 5

$$$$
=
 OpenBabel11052421293D

 32 36  0  0  1  0  0  0  0  0999 V2000
  195.3150  174.3790  144.5110 C   0  0  1  0  0  3  0  0  0  0  0  0
  191.5970  175.3520  142.1230 C   0  0  0  0  0  2  0  0  0  0  0  0
  190.8210  175.2530  147.8380 C   0  0  0  0  0  2  0  0  0  0  0  0
  189.3700  175.2230  147.3320 C   0  0  0  0  0  2  0  0  0  0  0  0
  193.7550  174.3510  142.6150 N   0  0  2  0  0  0  0  0  0  0  0  0
  193.6490  176.1380  144.2920 O   0  0  0  0  0  0  0  0  0  0  0  0
  195.9760  175.1960  145.4290 O   0  0  0  0  0  1  0  0  0  0  0  0
  191.8340  175.0410  146.7150 C   0  0  0  0  0  2  0  0  0  0  0  0
  192.3220  175.6810  144.3580 C   0  0  1  0  0  3  0  0  0  0  0  0
  191.6650  176.1210  145.6430 C   0  0  1  0  0  3  0  0  0  0  0  0
  190.1870  176.3590  143.7360 C   0  0  2  0  0  3  0  0  0  0  0  0
  195.6170  172.7700  142.8670 C   0  0  1  0  0  3  0  0  0  0  0  0
  194.4720  175.2350  143.5590 C   0  0  1  0  0  3  0  0  0  0  0  0
  194.7410  173.5600  141.8860 C   0  0  0  0  0  2  0  0  0  0  0  0
  196.2680  173.6260  143.7890 O   0  0  0  0  0  0  0  0  0  0  0  0
  189.2470  175.3370  145.8090 C   0  0  0  0  0  2  0  0  0  0  0  0
  190.2100  176.3890  145.2580 C   0  0  1  0  0  3  0  0  0  0  0  0
  193.0300  175.1500  141.6340 C   0  0  0  0  0  2  0  0  0  0  0  0
  191.5640  176.2700  143.2590 N   0  0  2  0  0  0  0  0  0  0  0  0
  194.8370  171.6460  143.5510 C   0  0  0  0  0  2  0  0  0  0  0  0
  195.7370  170.8390  144.4210 C   0  0  0  0  0  0  0  0  0  0  0  0
  195.5030  170.7680  145.7880 O   0  0  0  0  0  1  0  0  0  0  0  0
  196.6930  170.1960  143.9140 O   0  0  0  0  0  0  0  0  0  0  0  0
  189.4790  177.5890  143.1580 C   0  0  0  0  0  2  0  0  0  0  0  0
  187.4460  178.3070  144.4440 C   0  0  0  0  0  3  0  0  0  0  0  0
  186.0680  178.2740  144.6750 C   0  0  0  0  0  0  0  0  0  0  0  0
  185.7900  176.7820  142.7860 C   0  0  0  0  0  3  0  0  0  0  0  0
  185.2390  177.5150  143.8410 C   0  0  0  0  0  3  0  0  0  0  0  0
  187.1690  176.8100  142.5600 C   0  0  0  0  0  3  0  0  0  0  0  0
  188.0000  177.5750  143.3870 C   0  0  0  0  0  0  0  0  0  0  0  0
  185.4790  179.0680  145.7870 C   0  0  0  0  0  2  0  0  0  0  0  0
  184.1160  178.6310  146.0350 N   0  0  0  0  0  1  0  0  0  0  0  0
  1  7  1  1  0  0  0
  4  3  1  0  0  0  0
  5 18  1  6  0  0  0
  5 13  1  0  0  0  0
  8  3  1  0  0  0  0
  9  6  1  1  0  0  0
  9 10  1  0  0  0  0
 10  8  1  1  0  0  0
 11 24  1  6  0  0  0
 11 17  1  0  0  0  0
 12 20  1  1  0  0  0
 12 15  1  0  0  0  0
 13  6  1  1  0  0  0
 13  1  1  0  0  0  0
 14  5  1  0  0  0  0
 14 12  1  0  0  0  0
 15  1  1  0  0  0  0
 16  4  1  0  0  0  0
 17 10  1  0  0  0  0
 17 16  1  1  0  0  0
 18  2  1  0  0  0  0
 19  2  1  6  0  0  0
 19 11  1  0  0  0  0
 19  9  1  0  0  0  0
 20 21  1  0  0  0  0
 21 22  1  0  0  0  0
 23 21  2  0  0  0  0
 24 30  1  0  0  0  0
 25 26  1  0  0  0  0
 26 31  1  0  0  0  0
 27 28  1  0  0  0  0
 28 26  2  0  0  0  0
 29 27  2  0  0  0  0
 29 30  1  0  0  0  0
 30 25  2  0  0  0  0
 31 32  1  0  0  0  0
M  END
>  <MODEL>
7

>  <REMARK>
 VINA RESULT:      -7.5      2.231      4.034
  Name = 
  5 active torsions:
  status: ('A' for Active; 'I' for Inactive)
    1  A    between atoms: C_1  and  C_17
    2  A    between atoms: C_7  and  C_22
    3  A    between atoms: C_16  and  C_27
    4  A    between atoms: C_17  and  C_19
    5  A    between atoms: C_27  and  C_32
                            x       y       z     vdW  Elec       q    Type
                         _______ _______ _______ _____ _____    ______ ____

>  <TORSDO>
F 5

$$$$
=
 OpenBabel11052421293D

 32 36  0  0  1  0  0  0  0  0999 V2000
  195.0500  172.7680  144.2130 C   0  0  1  0  0  3  0  0  0  0  0  0
  193.0190  176.7730  144.7630 C   0  0  0  0  0  2  0  0  0  0  0  0
  189.5080  172.5120  143.0940 C   0  0  0  0  0  2  0  0  0  0  0  0
  188.6380  173.7480  142.8230 C   0  0  0  0  0  2  0  0  0  0  0  0
  194.8070  175.2110  144.2510 N   0  0  2  0  0  0  0  0  0  0  0  0
  193.2480  173.7820  145.4930 O   0  0  0  0  0  0  0  0  0  0  0  0
  194.8180  171.5900  144.9240 O   0  0  0  0  0  1  0  0  0  0  0  0
  190.9540  172.8770  143.4220 C   0  0  0  0  0  2  0  0  0  0  0  0
  192.3280  174.5050  144.7140 C   0  0  1  0  0  3  0  0  0  0  0  0
  191.0010  173.7900  144.6510 C   0  0  1  0  0  3  0  0  0  0  0  0
  190.7360  176.1790  144.9610 C   0  0  2  0  0  3  0  0  0  0  0  0
  196.6860  174.0490  143.1780 C   0  0  1  0  0  3  0  0  0  0  0  0
  194.5820  173.9760  145.0320 C   0  0  1  0  0  3  0  0  0  0  0  0
  196.2290  175.3030  143.9340 C   0  0  0  0  0  2  0  0  0  0  0  0
  196.4290  172.8700  143.9220 O   0  0  0  0  0  0  0  0  0  0  0  0
  189.2840  175.0650  143.2660 C   0  0  0  0  0  2  0  0  0  0  0  0
  189.9620  174.9120  144.6270 C   0  0  1  0  0  3  0  0  0  0  0  0
  194.4660  176.3800  145.0530 C   0  0  0  0  0  2  0  0  0  0  0  0
  192.0930  175.8010  145.3400 N   0  0  2  0  0  0  0  0  0  0  0  0
  196.1080  173.9930  141.7630 C   0  0  0  0  0  2  0  0  0  0  0  0
  196.4790  175.2140  140.9970 C   0  0  0  0  0  0  0  0  0  0  0  0
  195.5430  176.2200  140.7960 O   0  0  0  0  0  1  0  0  0  0  0  0
  197.6500  175.3500  140.5570 O   0  0  0  0  0  0  0  0  0  0  0  0
  190.0530  176.9810  146.0740 C   0  0  0  0  0  2  0  0  0  0  0  0
  188.1390  177.9070  144.7400 C   0  0  0  0  0  3  0  0  0  0  0  0
  186.7710  178.1090  144.5390 C   0  0  0  0  0  0  0  0  0  0  0  0
  186.2900  176.8340  146.5430 C   0  0  0  0  0  3  0  0  0  0  0  0
  185.8450  177.5670  145.4380 C   0  0  0  0  0  3  0  0  0  0  0  0
  187.6590  176.6390  146.7470 C   0  0  0  0  0  3  0  0  0  0  0  0
  188.5860  177.1720  145.8440 C   0  0  0  0  0  0  0  0  0  0  0  0
  186.2960  178.8750  143.3540 C   0  0  0  0  0  2  0  0  0  0  0  0
  186.7150  178.2030  142.1360 N   0  0  0  0  0  1  0  0  0  0  0  0
  1  7  1  1  0  0  0
  1 13  1  0  0  0  0
  2 18  1  0  0  0  0
  3  8  1  0  0  0  0
  4  3  1  0  0  0  0
  4 16  1  0  0  0  0
  5 14  1  1  0  0  0
  5 13  1  0  0  0  0
  5 18  1  0  0  0  0
  9 19  1  0  0  0  0
  9  6  1  1  0  0  0
 10  8  1  6  0  0  0
 10  9  1  0  0  0  0
 11 19  1  0  0  0  0
 11 24  1  1  0  0  0
 12 20  1  6  0  0  0
 12 15  1  0  0  0  0
 12 14  1  0  0  0  0
 13  6  1  6  0  0  0
 15  1  1  0  0  0  0
 17 16  1  6  0  0  0
 17 10  1  0  0  0  0
 17 11  1  0  0  0  0
 19  2  1  6  0  0  0
 21 20  1  0  0  0  0
 22 21  1  0  0  0  0
 23 21  2  0  0  0  0
 25 30  1  0  0  0  0
 26 25  2  0  0  0  0
 26 28  1  0  0  0  0
 27 29  1  0  0  0  0
 28 27  2  0  0  0  0
 30 24  1  0  0  0  0
 30 29  2  0  0  0  0
 31 26  1  0  0  0  0
 32 31  1  0  0  0  0
M  END
>  <MODEL>
8

>  <REMARK>
 VINA RESULT:      -7.3      1.493      1.961
  Name = 
  5 active torsions:
  status: ('A' for Active; 'I' for Inactive)
    1  A    between atoms: C_1  and  C_17
    2  A    between atoms: C_7  and  C_22
    3  A    between atoms: C_16  and  C_27
    4  A    between atoms: C_17  and  C_19
    5  A    between atoms: C_27  and  C_32
                            x       y       z     vdW  Elec       q    Type
                         _______ _______ _______ _____ _____    ______ ____

>  <TORSDO>
F 5

$$$$
=
 OpenBabel11052421293D

 32 36  0  0  1  0  0  0  0  0999 V2000
  193.9610  173.1320  143.3690 C   0  0  1  0  0  3  0  0  0  0  0  0
  189.8950  174.8020  142.2970 C   0  0  0  0  0  2  0  0  0  0  0  0
  191.9620  176.5960  147.3730 C   0  0  0  0  0  2  0  0  0  0  0  0
  190.4860  177.0060  147.4830 C   0  0  0  0  0  2  0  0  0  0  0  0
  191.7240  173.2050  142.3590 N   0  0  2  0  0  0  0  0  0  0  0  0
  192.8550  175.2730  143.0370 O   0  0  0  0  0  0  0  0  0  0  0  0
  195.1510  173.8380  143.5510 O   0  0  0  0  0  1  0  0  0  0  0  0
  192.2310  175.6990  146.1670 C   0  0  0  0  0  2  0  0  0  0  0  0
  191.6580  175.4170  143.7590 C   0  0  1  0  0  3  0  0  0  0  0  0
  191.8230  176.4170  144.8770 C   0  0  1  0  0  3  0  0  0  0  0  0
  189.7120  176.6870  143.7170 C   0  0  2  0  0  3  0  0  0  0  0  0
  193.0530  171.1510  142.5730 C   0  0  1  0  0  3  0  0  0  0  0  0
  192.9900  173.9540  142.5140 C   0  0  1  0  0  3  0  0  0  0  0  0
  192.0240  171.9200  141.7340 C   0  0  0  0  0  2  0  0  0  0  0  0
  194.2460  171.8960  142.7460 O   0  0  0  0  0  0  0  0  0  0  0  0
  189.6760  176.7350  146.2110 C   0  0  0  0  0  2  0  0  0  0  0  0
  190.4690  177.1230  144.9630 C   0  0  1  0  0  3  0  0  0  0  0  0
  190.8250  173.9220  141.4630 C   0  0  0  0  0  2  0  0  0  0  0  0
  190.6260  175.9320  142.8650 N   0  0  2  0  0  0  0  0  0  0  0  0
  192.4620  170.6640  143.8970 C   0  0  0  0  0  2  0  0  0  0  0  0
  193.1120  169.3950  144.3260 C   0  0  0  0  0  0  0  0  0  0  0  0
  192.6730  168.1820  143.8110 O   0  0  0  0  0  0  0  0  0  0  0  0
  194.0780  169.4230  145.1310 O   0  0  0  0  0  1  0  0  0  0  0  0
  189.1200  177.8860  142.9680 C   0  0  0  0  0  2  0  0  0  0  0  0
  186.9680  177.8110  144.2570 C   0  0  0  0  0  3  0  0  0  0  0  0
  185.5710  177.8300  144.3100 C   0  0  0  0  0  0  0  0  0  0  0  0
  185.4840  178.1080  141.9050 C   0  0  0  0  0  3  0  0  0  0  0  0
  184.8290  177.9850  143.1340 C   0  0  0  0  0  3  0  0  0  0  0  0
  186.8810  178.0810  141.8510 C   0  0  0  0  0  3  0  0  0  0  0  0
  187.6260  177.9360  143.0270 C   0  0  0  0  0  0  0  0  0  0  0  0
  184.8740  177.7160  145.6200 C   0  0  0  0  0  2  0  0  0  0  0  0
  183.9390  178.8170  145.7770 N   0  0  0  0  0  1  0  0  0  0  0  0
  1  7  1  6  0  0  0
  3  4  1  0  0  0  0
  5 18  1  6  0  0  0
  5 13  1  0  0  0  0
  8  3  1  0  0  0  0
  9  6  1  6  0  0  0
  9 10  1  0  0  0  0
 10 17  1  0  0  0  0
 10  8  1  1  0  0  0
 11 24  1  6  0  0  0
 11 17  1  0  0  0  0
 12 15  1  0  0  0  0
 12 20  1  1  0  0  0
 13  6  1  1  0  0  0
 13  1  1  0  0  0  0
 14  5  1  0  0  0  0
 14 12  1  0  0  0  0
 15  1  1  0  0  0  0
 16  4  1  0  0  0  0
 17 16  1  1  0  0  0
 18  2  1  0  0  0  0
 19  2  1  1  0  0  0
 19 11  1  0  0  0  0
 19  9  1  0  0  0  0
 20 21  1  0  0  0  0
 21 23  1  0  0  0  0
 22 21  2  0  0  0  0
 24 30  1  0  0  0  0
 25 26  1  0  0  0  0
 26 31  1  0  0  0  0
 27 28  1  0  0  0  0
 28 26  2  0  0  0  0
 29 27  2  0  0  0  0
 29 30  1  0  0  0  0
 30 25  2  0  0  0  0
 31 32  1  0  0  0  0
M  END
>  <MODEL>
9

>  <REMARK>
 VINA RESULT:      -7.2      2.494      4.770
  Name = 
  5 active torsions:
  status: ('A' for Active; 'I' for Inactive)
    1  A    between atoms: C_1  and  C_17
    2  A    between atoms: C_7  and  C_22
    3  A    between atoms: C_16  and  C_27
    4  A    between atoms: C_17  and  C_19
    5  A    between atoms: C_27  and  C_32
                            x       y       z     vdW  Elec       q    Type
                         _______ _______ _______ _____ _____    ______ ____

>  <TORSDO>
F 5

$$$$
