=
 OpenBabel11052418323D

 27 30  0  0  1  0  0  0  0  0999 V2000
  189.1560  176.1960  145.6990 C   0  0  2  0  0  3  0  0  0  0  0  0
  188.6600  175.8380  144.3070 C   0  0  1  0  0  3  0  0  0  0  0  0
  191.0340  175.1340  144.5080 C   0  0  2  0  0  0  0  0  0  0  0  0
  188.1480  177.0590  143.5750 C   0  0  0  0  0  2  0  0  0  0  0  0
  192.6580  176.4900  146.5180 C   0  0  0  0  0  0  0  0  0  0  0  0
  191.4710  173.8090  144.4520 O   0  0  0  0  0  1  0  0  0  0  0  0
  193.4670  177.1580  147.4280 O   0  0  0  0  0  1  0  0  0  0  0  0
  189.9140  175.1770  142.2770 C   0  0  0  0  0  3  0  0  0  0  0  0
  188.7460  175.4560  141.3600 C   0  0  2  0  0  3  0  0  0  0  0  0
  190.4710  175.4390  145.9080 C   0  0  1  0  0  3  0  0  0  0  0  0
  189.8630  175.3290  143.6060 C   0  0  0  0  0  0  0  0  0  0  0  0
  193.2400  176.1030  145.1940 C   0  0  0  0  0  2  0  0  0  0  0  0
  187.3820  176.5230  142.0090 S   0  0  0  0  0  0  0  0  0  0  0  0
  190.9310  176.4990  148.1220 O   0  0  0  0  0  1  0  0  0  0  0  0
  191.4010  176.1670  146.8550 C   0  0  0  0  0  0  0  0  0  0  0  0
  192.1670  176.0860  144.1160 C   0  0  0  0  0  2  0  0  0  0  0  0
  188.2160  174.2180  140.7970 N   0  0  0  0  0  2  0  0  0  0  0  0
  188.1210  172.3040  139.1600 C   0  0  0  0  0  1  0  0  0  0  0  0
  189.7430  174.0330  139.0300 O   0  0  0  0  0  0  0  0  0  0  0  0
  188.7490  173.5610  139.6430 C   0  0  0  0  0  0  0  0  0  0  0  0
  188.1160  175.8790  146.7800 C   0  0  0  0  0  2  0  0  0  0  0  0
  184.9440  178.7650  147.0470 C   0  0  0  0  0  3  0  0  0  0  0  0
  187.0150  176.8920  146.8620 C   0  0  0  0  0  0  0  0  0  0  0  0
  185.7660  176.6160  146.2940 C   0  0  0  0  0  3  0  0  0  0  0  0
  184.7320  177.5520  146.3850 C   0  0  0  0  0  3  0  0  0  0  0  0
  186.1910  179.0430  147.6160 C   0  0  0  0  0  3  0  0  0  0  0  0
  187.2260  178.1070  147.5240 C   0  0  0  0  0  3  0  0  0  0  0  0
  1 10  1  0  0  0  0
  1 21  1  1  0  0  0
  2  4  1  6  0  0  0
  2  1  1  0  0  0  0
  3  6  1  6  0  0  0
  3 10  1  0  0  0  0
  5 15  2  0  0  0  0
  5  7  1  0  0  0  0
  8 11  2  0  0  0  0
  9 17  1  1  0  0  0
  9 13  1  0  0  0  0
  9  8  1  0  0  0  0
 10 15  1  1  0  0  0
 11  2  1  0  0  0  0
 11  3  1  0  0  0  0
 12  5  1  0  0  0  0
 13  4  1  0  0  0  0
 15 14  1  0  0  0  0
 16  3  1  0  0  0  0
 16 12  1  0  0  0  0
 18 20  1  0  0  0  0
 19 20  2  0  0  0  0
 20 17  1  0  0  0  0
 21 23  1  0  0  0  0
 22 26  1  0  0  0  0
 23 27  1  0  0  0  0
 24 25  1  0  0  0  0
 24 23  2  0  0  0  0
 25 22  2  0  0  0  0
 27 26  2  0  0  0  0
M  END
>  <MODEL>
1

>  <REMARK>
 VINA RESULT:      -7.5      0.000      0.000
  Name = 
  3 active torsions:
  status: ('A' for Active; 'I' for Inactive)
    1  A    between atoms: C_1  and  C_15
    2  A    between atoms: N_4  and  C_17
    3  A    between atoms: C_9  and  C_15
                            x       y       z     vdW  Elec       q    Type
                         _______ _______ _______ _____ _____    ______ ____

>  <TORSDO>
F 3

$$$$
=
 OpenBabel11052418323D

 27 30  0  0  1  0  0  0  0  0999 V2000
  189.5970  176.1310  143.9730 C   0  0  2  0  0  3  0  0  0  0  0  0
  191.0560  176.2920  144.3690 C   0  0  1  0  0  3  0  0  0  0  0  0
  190.9100  174.6110  142.5450 C   0  0  2  0  0  0  0  0  0  0  0  0
  191.2620  176.0010  145.8400 C   0  0  0  0  0  2  0  0  0  0  0  0
  188.3540  173.2490  142.1930 C   0  0  0  0  0  0  0  0  0  0  0  0
  191.4670  174.7760  141.2750 O   0  0  0  0  0  1  0  0  0  0  0  0
  187.1660  172.5460  142.0400 O   0  0  0  0  0  1  0  0  0  0  0  0
  193.0270  174.8900  143.8410 C   0  0  0  0  0  3  0  0  0  0  0  0
  193.8650  175.5010  144.9390 C   0  0  2  0  0  3  0  0  0  0  0  0
  189.5820  175.3830  142.6360 C   0  0  1  0  0  3  0  0  0  0  0  0
  191.7700  175.2650  143.5730 C   0  0  0  0  0  0  0  0  0  0  0  0
  189.6470  172.5180  142.0020 C   0  0  0  0  0  2  0  0  0  0  0  0
  192.9820  176.4160  146.2830 S   0  0  0  0  0  0  0  0  0  0  0  0
  187.0920  175.2030  142.5670 O   0  0  0  0  0  1  0  0  0  0  0  0
  188.3220  174.5630  142.4600 C   0  0  0  0  0  0  0  0  0  0  0  0
  190.7430  173.1240  142.8650 C   0  0  0  0  0  2  0  0  0  0  0  0
  194.9480  176.3070  144.3850 N   0  0  0  0  0  2  0  0  0  0  0  0
  197.1520  176.6930  143.2260 C   0  0  0  0  0  1  0  0  0  0  0  0
  196.2720  174.5270  143.6340 O   0  0  0  0  0  0  0  0  0  0  0  0
  196.1140  175.7700  143.7520 C   0  0  0  0  0  0  0  0  0  0  0  0
  188.8680  177.4780  143.9030 C   0  0  0  0  0  2  0  0  0  0  0  0
  185.4670  177.7020  146.5200 C   0  0  0  0  0  3  0  0  0  0  0  0
  187.6890  177.5650  144.8230 C   0  0  0  0  0  0  0  0  0  0  0  0
  186.6240  178.4200  144.5180 C   0  0  0  0  0  3  0  0  0  0  0  0
  185.5140  178.4890  145.3650 C   0  0  0  0  0  3  0  0  0  0  0  0
  186.5300  176.8480  146.8270 C   0  0  0  0  0  3  0  0  0  0  0  0
  187.6400  176.7790  145.9800 C   0  0  0  0  0  3  0  0  0  0  0  0
  1 21  1  6  0  0  0
  1  2  1  0  0  0  0
  2  4  1  1  0  0  0
  3  6  1  6  0  0  0
  3 10  1  0  0  0  0
  3 16  1  0  0  0  0
  3 11  1  0  0  0  0
  4 13  1  0  0  0  0
  5 15  2  0  0  0  0
  7  5  1  0  0  0  0
  8  9  1  0  0  0  0
  9 17  1  6  0  0  0
  9 13  1  0  0  0  0
 10 15  1  1  0  0  0
 10  1  1  0  0  0  0
 11  8  2  0  0  0  0
 11  2  1  0  0  0  0
 12  5  1  0  0  0  0
 12 16  1  0  0  0  0
 15 14  1  0  0  0  0
 18 20  1  0  0  0  0
 19 20  2  0  0  0  0
 20 17  1  0  0  0  0
 21 23  1  0  0  0  0
 22 26  1  0  0  0  0
 23 27  1  0  0  0  0
 24 23  2  0  0  0  0
 24 25  1  0  0  0  0
 25 22  2  0  0  0  0
 27 26  2  0  0  0  0
M  END
>  <MODEL>
2

>  <REMARK>
 VINA RESULT:      -7.4      3.077      5.370
  Name = 
  3 active torsions:
  status: ('A' for Active; 'I' for Inactive)
    1  A    between atoms: C_1  and  C_15
    2  A    between atoms: N_4  and  C_17
    3  A    between atoms: C_9  and  C_15
                            x       y       z     vdW  Elec       q    Type
                         _______ _______ _______ _____ _____    ______ ____

>  <TORSDO>
F 3

$$$$
=
 OpenBabel11052418323D

 27 30  0  0  1  0  0  0  0  0999 V2000
  187.7010  176.8520  144.2540 C   0  0  2  0  0  3  0  0  0  0  0  0
  189.1990  176.6230  144.1330 C   0  0  1  0  0  3  0  0  0  0  0  0
  188.6030  176.7070  146.5430 C   0  0  2  0  0  0  0  0  0  0  0  0
  189.8620  177.7250  143.3360 C   0  0  0  0  0  2  0  0  0  0  0  0
  186.1460  178.1110  147.2570 C   0  0  0  0  0  0  0  0  0  0  0  0
  188.7340  175.6330  147.4250 O   0  0  0  0  0  1  0  0  0  0  0  0
  185.0120  178.8220  147.6290 O   0  0  0  0  0  1  0  0  0  0  0  0
  190.9940  176.8040  145.8290 C   0  0  0  0  0  3  0  0  0  0  0  0
  192.0890  176.8560  144.7910 C   0  0  2  0  0  3  0  0  0  0  0  0
  187.3230  176.5400  145.7050 C   0  0  1  0  0  3  0  0  0  0  0  0
  189.6950  176.6760  145.5290 C   0  0  0  0  0  0  0  0  0  0  0  0
  187.3600  178.1930  148.1300 C   0  0  0  0  0  2  0  0  0  0  0  0
  191.6080  177.2760  143.0550 S   0  0  0  0  0  0  0  0  0  0  0  0
  184.9450  177.2520  145.4200 O   0  0  0  0  0  1  0  0  0  0  0  0
  186.1200  177.3380  146.1610 C   0  0  0  0  0  0  0  0  0  0  0  0
  188.6290  178.0320  147.3080 C   0  0  0  0  0  2  0  0  0  0  0  0
  192.9020  175.6440  144.8260 N   0  0  0  0  0  2  0  0  0  0  0  0
  194.8340  174.2030  145.5640 C   0  0  0  0  0  1  0  0  0  0  0  0
  194.5080  176.4220  146.3420 O   0  0  0  0  0  0  0  0  0  0  0  0
  194.0880  175.4870  145.6120 C   0  0  0  0  0  0  0  0  0  0  0  0
  186.9070  176.0140  143.2440 C   0  0  0  0  0  2  0  0  0  0  0  0
  185.1680  178.3120  140.0580 C   0  0  0  0  0  3  0  0  0  0  0  0
  186.3070  176.8270  142.1380 C   0  0  0  0  0  0  0  0  0  0  0  0
  186.9360  176.8820  140.8890 C   0  0  0  0  0  3  0  0  0  0  0  0
  186.3670  177.6250  139.8500 C   0  0  0  0  0  3  0  0  0  0  0  0
  184.5380  178.2590  141.3050 C   0  0  0  0  0  3  0  0  0  0  0  0
  185.1070  177.5160  142.3440 C   0  0  0  0  0  3  0  0  0  0  0  0
  1 21  1  6  0  0  0
  1 10  1  0  0  0  0
  2  4  1  6  0  0  0
  2  1  1  0  0  0  0
  2 11  1  0  0  0  0
  3 16  1  0  0  0  0
  3  6  1  1  0  0  0
  5  7  1  0  0  0  0
  5 12  1  0  0  0  0
  9 17  1  6  0  0  0
  9  8  1  0  0  0  0
 10 15  1  1  0  0  0
 10  3  1  0  0  0  0
 11  8  2  0  0  0  0
 11  3  1  0  0  0  0
 13  4  1  0  0  0  0
 13  9  1  0  0  0  0
 14 15  1  0  0  0  0
 15  5  2  0  0  0  0
 16 12  1  0  0  0  0
 17 20  1  0  0  0  0
 18 20  1  0  0  0  0
 20 19  2  0  0  0  0
 22 26  1  0  0  0  0
 23 27  1  0  0  0  0
 23 21  1  0  0  0  0
 24 23  2  0  0  0  0
 25 22  2  0  0  0  0
 25 24  1  0  0  0  0
 26 27  2  0  0  0  0
M  END
>  <MODEL>
3

>  <REMARK>
 VINA RESULT:      -7.3      3.074      5.782
  Name = 
  3 active torsions:
  status: ('A' for Active; 'I' for Inactive)
    1  A    between atoms: C_1  and  C_15
    2  A    between atoms: N_4  and  C_17
    3  A    between atoms: C_9  and  C_15
                            x       y       z     vdW  Elec       q    Type
                         _______ _______ _______ _____ _____    ______ ____

>  <TORSDO>
F 3

$$$$
=
 OpenBabel11052418323D

 27 30  0  0  1  0  0  0  0  0999 V2000
  189.3230  176.5350  145.1100 C   0  0  2  0  0  3  0  0  0  0  0  0
  189.2830  175.7950  143.7820 C   0  0  1  0  0  3  0  0  0  0  0  0
  187.1000  176.9310  144.1240 C   0  0  2  0  0  0  0  0  0  0  0  0
  189.5620  174.3200  143.9660 C   0  0  0  0  0  2  0  0  0  0  0  0
  186.3480  177.5700  146.8700 C   0  0  0  0  0  0  0  0  0  0  0  0
  186.6100  177.9580  143.3140 O   0  0  0  0  0  1  0  0  0  0  0  0
  185.9410  177.8340  148.1720 O   0  0  0  0  0  1  0  0  0  0  0  0
  187.3680  175.2250  142.3190 C   0  0  0  0  0  3  0  0  0  0  0  0
  188.1520  174.1880  141.5520 C   0  0  2  0  0  3  0  0  0  0  0  0
  188.1310  177.4970  145.1170 C   0  0  1  0  0  3  0  0  0  0  0  0
  187.8880  175.9640  143.3090 C   0  0  0  0  0  0  0  0  0  0  0  0
  185.3220  177.1170  145.8780 C   0  0  0  0  0  2  0  0  0  0  0  0
  189.7050  173.5420  142.3220 S   0  0  0  0  0  0  0  0  0  0  0  0
  188.5260  178.2450  147.4670 O   0  0  0  0  0  1  0  0  0  0  0  0
  187.6270  177.7660  146.5190 C   0  0  0  0  0  0  0  0  0  0  0  0
  185.9470  176.2110  144.8290 C   0  0  0  0  0  2  0  0  0  0  0  0
  188.3940  174.6230  140.1800 N   0  0  0  0  0  2  0  0  0  0  0  0
  188.5700  174.3290  137.6830 C   0  0  0  0  0  1  0  0  0  0  0  0
  187.9890  172.5570  139.1510 O   0  0  0  0  0  0  0  0  0  0  0  0
  188.2990  173.7720  139.0330 C   0  0  0  0  0  0  0  0  0  0  0  0
  190.6610  177.2530  145.3290 C   0  0  0  0  0  2  0  0  0  0  0  0
  194.0090  174.5620  145.4170 C   0  0  0  0  0  3  0  0  0  0  0  0
  191.8360  176.3240  145.3650 C   0  0  0  0  0  0  0  0  0  0  0  0
  191.9730  175.4100  146.4160 C   0  0  0  0  0  3  0  0  0  0  0  0
  193.0590  174.5300  146.4420 C   0  0  0  0  0  3  0  0  0  0  0  0
  193.8740  175.4750  144.3670 C   0  0  0  0  0  3  0  0  0  0  0  0
  192.7880  176.3550  144.3410 C   0  0  0  0  0  3  0  0  0  0  0  0
  1 10  1  0  0  0  0
  1 21  1  6  0  0  0
  2  4  1  1  0  0  0
  2  1  1  0  0  0  0
  3  6  1  6  0  0  0
  3 16  1  0  0  0  0
  3 10  1  0  0  0  0
  5  7  1  0  0  0  0
  8 11  2  0  0  0  0
  9 17  1  6  0  0  0
  9  8  1  0  0  0  0
  9 13  1  0  0  0  0
 10 15  1  1  0  0  0
 11  2  1  0  0  0  0
 11  3  1  0  0  0  0
 12  5  1  0  0  0  0
 13  4  1  0  0  0  0
 15  5  2  0  0  0  0
 15 14  1  0  0  0  0
 16 12  1  0  0  0  0
 18 20  1  0  0  0  0
 20 19  2  0  0  0  0
 20 17  1  0  0  0  0
 21 23  1  0  0  0  0
 22 25  1  0  0  0  0
 23 24  1  0  0  0  0
 24 25  2  0  0  0  0
 26 22  2  0  0  0  0
 27 26  1  0  0  0  0
 27 23  2  0  0  0  0
M  END
>  <MODEL>
4

>  <REMARK>
 VINA RESULT:      -7.1      2.247      5.215
  Name = 
  3 active torsions:
  status: ('A' for Active; 'I' for Inactive)
    1  A    between atoms: C_1  and  C_15
    2  A    between atoms: N_4  and  C_17
    3  A    between atoms: C_9  and  C_15
                            x       y       z     vdW  Elec       q    Type
                         _______ _______ _______ _____ _____    ______ ____

>  <TORSDO>
F 3

$$$$
=
 OpenBabel11052418323D

 27 30  0  0  1  0  0  0  0  0999 V2000
  190.4030  173.9260  145.3900 C   0  0  2  0  0  3  0  0  0  0  0  0
  189.3260  174.9980  145.3940 C   0  0  1  0  0  3  0  0  0  0  0  0
  191.4070  175.9690  144.4470 C   0  0  2  0  0  0  0  0  0  0  0  0
  188.7840  175.2290  146.7880 C   0  0  0  0  0  2  0  0  0  0  0  0
  193.9240  174.6840  145.1720 C   0  0  0  0  0  0  0  0  0  0  0  0
  191.5390  176.4210  143.1320 O   0  0  0  0  0  1  0  0  0  0  0  0
  195.1400  174.1260  145.5470 O   0  0  0  0  0  1  0  0  0  0  0  0
  189.4980  177.4490  145.0830 C   0  0  0  0  0  3  0  0  0  0  0  0
  188.1270  177.7060  145.6630 C   0  0  2  0  0  3  0  0  0  0  0  0
  191.5310  174.4360  144.4870 C   0  0  1  0  0  3  0  0  0  0  0  0
  190.0250  176.2250  144.9420 C   0  0  0  0  0  0  0  0  0  0  0  0
  193.8330  176.1730  145.0340 C   0  0  0  0  0  2  0  0  0  0  0  0
  187.3620  176.3660  146.6830 S   0  0  0  0  0  0  0  0  0  0  0  0
  193.0380  172.5080  144.9880 O   0  0  0  0  0  1  0  0  0  0  0  0
  192.8800  173.8880  144.9010 C   0  0  0  0  0  0  0  0  0  0  0  0
  192.4290  176.6600  145.3530 C   0  0  0  0  0  2  0  0  0  0  0  0
  187.2010  178.1690  144.6330 N   0  0  0  0  0  2  0  0  0  0  0  0
  185.1810  179.3930  143.7550 C   0  0  0  0  0  1  0  0  0  0  0  0
  185.7700  179.3600  146.0540 O   0  0  0  0  0  0  0  0  0  0  0  0
  186.0530  178.9850  144.8870 C   0  0  0  0  0  0  0  0  0  0  0  0
  189.8590  172.5640  144.9410 C   0  0  0  0  0  2  0  0  0  0  0  0
  189.6430  172.0970  140.6750 C   0  0  0  0  0  3  0  0  0  0  0  0
  189.7930  172.4120  143.4520 C   0  0  0  0  0  0  0  0  0  0  0  0
  190.5830  171.4510  142.8100 C   0  0  0  0  0  3  0  0  0  0  0  0
  190.5080  171.2940  141.4230 C   0  0  0  0  0  3  0  0  0  0  0  0
  188.8530  173.0580  141.3140 C   0  0  0  0  0  3  0  0  0  0  0  0
  188.9280  173.2150  142.7010 C   0  0  0  0  0  3  0  0  0  0  0  0
  1 21  1  6  0  0  0
  1  2  1  0  0  0  0
  2  4  1  1  0  0  0
  3  6  1  6  0  0  0
  3 10  1  0  0  0  0
  3 11  1  0  0  0  0
  3 16  1  0  0  0  0
  5  7  1  0  0  0  0
  8  9  1  0  0  0  0
  9 17  1  6  0  0  0
  9 13  1  0  0  0  0
 10 15  1  1  0  0  0
 10  1  1  0  0  0  0
 11  8  2  0  0  0  0
 11  2  1  0  0  0  0
 12  5  1  0  0  0  0
 12 16  1  0  0  0  0
 13  4  1  0  0  0  0
 15 14  1  0  0  0  0
 15  5  2  0  0  0  0
 17 20  1  0  0  0  0
 18 20  1  0  0  0  0
 20 19  2  0  0  0  0
 22 26  2  0  0  0  0
 22 25  1  0  0  0  0
 23 21  1  0  0  0  0
 24 23  1  0  0  0  0
 25 24  2  0  0  0  0
 26 27  1  0  0  0  0
 27 23  2  0  0  0  0
M  END
>  <MODEL>
5

>  <REMARK>
 VINA RESULT:      -7.1      2.812      5.739
  Name = 
  3 active torsions:
  status: ('A' for Active; 'I' for Inactive)
    1  A    between atoms: C_1  and  C_15
    2  A    between atoms: N_4  and  C_17
    3  A    between atoms: C_9  and  C_15
                            x       y       z     vdW  Elec       q    Type
                         _______ _______ _______ _____ _____    ______ ____

>  <TORSDO>
F 3

$$$$
=
 OpenBabel11052418323D

 27 30  0  0  1  0  0  0  0  0999 V2000
  187.5700  177.1350  143.7000 C   0  0  2  0  0  3  0  0  0  0  0  0
  189.0520  176.8100  143.7960 C   0  0  1  0  0  3  0  0  0  0  0  0
  188.0810  176.7600  146.0820 C   0  0  2  0  0  0  0  0  0  0  0  0
  189.8970  177.9180  143.2060 C   0  0  0  0  0  2  0  0  0  0  0  0
  185.6280  178.2790  146.5180 C   0  0  0  0  0  0  0  0  0  0  0  0
  188.0060  175.6180  146.8820 O   0  0  0  0  0  1  0  0  0  0  0  0
  184.4920  179.0390  146.7660 O   0  0  0  0  0  1  0  0  0  0  0  0
  190.5580  176.7400  145.7600 C   0  0  0  0  0  3  0  0  0  0  0  0
  191.8070  176.7890  144.9130 C   0  0  2  0  0  3  0  0  0  0  0  0
  186.9450  176.7460  145.0430 C   0  0  1  0  0  3  0  0  0  0  0  0
  189.3190  176.7260  145.2520 C   0  0  0  0  0  0  0  0  0  0  0  0
  186.6880  178.2110  147.5740 C   0  0  0  0  0  2  0  0  0  0  0  0
  191.6360  177.3680  143.1640 S   0  0  0  0  0  0  0  0  0  0  0  0
  184.6900  177.6440  144.4510 O   0  0  0  0  0  1  0  0  0  0  0  0
  185.7330  177.5920  145.3710 C   0  0  0  0  0  0  0  0  0  0  0  0
  188.0620  178.0210  146.9490 C   0  0  0  0  0  2  0  0  0  0  0  0
  192.5310  175.5230  144.9730 N   0  0  0  0  0  2  0  0  0  0  0  0
  194.3430  173.9570  145.7580 C   0  0  0  0  0  1  0  0  0  0  0  0
  194.1630  176.2010  146.5110 O   0  0  0  0  0  0  0  0  0  0  0  0
  193.6890  175.2910  145.7810 C   0  0  0  0  0  0  0  0  0  0  0  0
  186.9010  176.4310  142.5130 C   0  0  0  0  0  2  0  0  0  0  0  0
  189.0960  173.0450  141.0390 C   0  0  0  0  0  3  0  0  0  0  0  0
  187.6780  175.2570  142.0030 C   0  0  0  0  0  0  0  0  0  0  0  0
  187.8670  174.1340  142.8170 C   0  0  0  0  0  3  0  0  0  0  0  0
  188.5750  173.0300  142.3360 C   0  0  0  0  0  3  0  0  0  0  0  0
  188.9090  174.1660  140.2230 C   0  0  0  0  0  3  0  0  0  0  0  0
  188.2010  175.2700  140.7050 C   0  0  0  0  0  3  0  0  0  0  0  0
  1 21  1  6  0  0  0
  1  2  1  0  0  0  0
  1 10  1  0  0  0  0
  2  4  1  1  0  0  0
  2 11  1  0  0  0  0
  3  6  1  1  0  0  0
  3 16  1  0  0  0  0
  5  7  1  0  0  0  0
  5 12  1  0  0  0  0
  9 17  1  6  0  0  0
  9  8  1  0  0  0  0
 10 15  1  1  0  0  0
 10  3  1  0  0  0  0
 11  8  2  0  0  0  0
 11  3  1  0  0  0  0
 13  4  1  0  0  0  0
 13  9  1  0  0  0  0
 14 15  1  0  0  0  0
 15  5  2  0  0  0  0
 16 12  1  0  0  0  0
 17 20  1  0  0  0  0
 18 20  1  0  0  0  0
 20 19  2  0  0  0  0
 22 25  1  0  0  0  0
 23 21  1  0  0  0  0
 23 24  1  0  0  0  0
 25 24  2  0  0  0  0
 26 27  1  0  0  0  0
 26 22  2  0  0  0  0
 27 23  2  0  0  0  0
M  END
>  <MODEL>
6

>  <REMARK>
 VINA RESULT:      -7.0      2.845      6.241
  Name = 
  3 active torsions:
  status: ('A' for Active; 'I' for Inactive)
    1  A    between atoms: C_1  and  C_15
    2  A    between atoms: N_4  and  C_17
    3  A    between atoms: C_9  and  C_15
                            x       y       z     vdW  Elec       q    Type
                         _______ _______ _______ _____ _____    ______ ____

>  <TORSDO>
F 3

$$$$
=
 OpenBabel11052418323D

 27 30  0  0  1  0  0  0  0  0999 V2000
  190.4490  176.8360  142.7620 C   0  0  2  0  0  3  0  0  0  0  0  0
  188.9900  177.1580  143.0460 C   0  0  1  0  0  3  0  0  0  0  0  0
  189.2020  174.7140  142.6560 C   0  0  2  0  0  0  0  0  0  0  0  0
  188.4510  178.1770  142.0670 C   0  0  0  0  0  2  0  0  0  0  0  0
  191.5040  173.8080  141.1080 C   0  0  0  0  0  0  0  0  0  0  0  0
  188.9440  173.7360  143.6190 O   0  0  0  0  0  1  0  0  0  0  0  0
  192.5600  173.3560  140.3260 O   0  0  0  0  0  1  0  0  0  0  0  0
  186.9510  175.7940  142.7120 C   0  0  0  0  0  3  0  0  0  0  0  0
  186.0310  176.9870  142.8170 C   0  0  2  0  0  3  0  0  0  0  0  0
  190.5990  175.3170  142.8860 C   0  0  1  0  0  3  0  0  0  0  0  0
  188.2820  175.8720  142.8390 C   0  0  0  0  0  0  0  0  0  0  0  0
  190.1680  173.1490  140.9550 C   0  0  0  0  0  2  0  0  0  0  0  0
  186.7750  178.6660  142.5950 S   0  0  0  0  0  0  0  0  0  0  0  0
  192.9850  175.3180  142.1470 O   0  0  0  0  0  1  0  0  0  0  0  0
  191.7080  174.7830  142.0060 C   0  0  0  0  0  0  0  0  0  0  0  0
  189.0440  174.1310  141.2490 C   0  0  0  0  0  2  0  0  0  0  0  0
  185.2340  176.9290  144.0390 N   0  0  0  0  0  2  0  0  0  0  0  0
  184.8170  177.1650  146.5130 C   0  0  0  0  0  1  0  0  0  0  0  0
  186.9120  177.6460  145.5070 O   0  0  0  0  0  0  0  0  0  0  0  0
  185.7240  177.2660  145.3410 C   0  0  0  0  0  0  0  0  0  0  0  0
  191.3990  177.6000  143.6930 C   0  0  0  0  0  2  0  0  0  0  0  0
  191.5760  175.9230  147.6440 C   0  0  0  0  0  3  0  0  0  0  0  0
  191.4670  177.0270  145.0750 C   0  0  0  0  0  0  0  0  0  0  0  0
  190.3820  177.1690  145.9470 C   0  0  0  0  0  3  0  0  0  0  0  0
  190.4360  176.6180  147.2300 C   0  0  0  0  0  3  0  0  0  0  0  0
  192.6620  175.7800  146.7750 C   0  0  0  0  0  3  0  0  0  0  0  0
  192.6080  176.3310  145.4920 C   0  0  0  0  0  3  0  0  0  0  0  0
  1 10  1  0  0  0  0
  1  2  1  0  0  0  0
  1 21  1  1  0  0  0
  2  4  1  6  0  0  0
  3 11  1  0  0  0  0
  3 10  1  0  0  0  0
  3  6  1  1  0  0  0
  4 13  1  0  0  0  0
  5 15  2  0  0  0  0
  7  5  1  0  0  0  0
  8  9  1  0  0  0  0
  8 11  2  0  0  0  0
  9 17  1  1  0  0  0
 10 15  1  6  0  0  0
 11  2  1  0  0  0  0
 12  5  1  0  0  0  0
 12 16  1  0  0  0  0
 13  9  1  0  0  0  0
 15 14  1  0  0  0  0
 16  3  1  0  0  0  0
 17 20  1  0  0  0  0
 20 19  2  0  0  0  0
 20 18  1  0  0  0  0
 21 23  1  0  0  0  0
 23 27  2  0  0  0  0
 23 24  1  0  0  0  0
 24 25  2  0  0  0  0
 25 22  1  0  0  0  0
 26 22  2  0  0  0  0
 27 26  1  0  0  0  0
M  END
>  <MODEL>
7

>  <REMARK>
 VINA RESULT:      -7.0      2.468      5.364
  Name = 
  3 active torsions:
  status: ('A' for Active; 'I' for Inactive)
    1  A    between atoms: C_1  and  C_15
    2  A    between atoms: N_4  and  C_17
    3  A    between atoms: C_9  and  C_15
                            x       y       z     vdW  Elec       q    Type
                         _______ _______ _______ _____ _____    ______ ____

>  <TORSDO>
F 3

$$$$
=
 OpenBabel11052418323D

 27 30  0  0  1  0  0  0  0  0999 V2000
  190.2870  174.0780  143.6900 C   0  0  2  0  0  3  0  0  0  0  0  0
  189.3710  175.2490  143.3730 C   0  0  1  0  0  3  0  0  0  0  0  0
  188.7230  173.3250  141.9410 C   0  0  2  0  0  0  0  0  0  0  0  0
  190.1600  176.4640  142.9370 C   0  0  0  0  0  2  0  0  0  0  0  0
  190.7560  171.2920  141.4450 C   0  0  0  0  0  0  0  0  0  0  0  0
  187.4930  172.6690  142.0120 O   0  0  0  0  0  1  0  0  0  0  0  0
  191.7220  170.3390  141.1480 O   0  0  0  0  0  1  0  0  0  0  0  0
  187.8190  175.6070  141.4770 C   0  0  0  0  0  3  0  0  0  0  0  0
  187.7140  177.0920  141.7310 C   0  0  2  0  0  3  0  0  0  0  0  0
  189.6430  172.8330  143.0720 C   0  0  1  0  0  3  0  0  0  0  0  0
  188.5490  174.7770  142.2330 C   0  0  0  0  0  0  0  0  0  0  0  0
  189.7940  171.6950  140.3700 C   0  0  0  0  0  2  0  0  0  0  0  0
  189.0190  177.8780  142.7800 S   0  0  0  0  0  0  0  0  0  0  0  0
  191.5560  171.3390  143.6610 O   0  0  0  0  0  1  0  0  0  0  0  0
  190.6750  171.7940  142.6860 C   0  0  0  0  0  0  0  0  0  0  0  0
  189.3490  173.1370  140.5570 C   0  0  0  0  0  2  0  0  0  0  0  0
  186.3800  177.4490  142.2050 N   0  0  0  0  0  2  0  0  0  0  0  0
  184.0160  178.2900  141.9700 C   0  0  0  0  0  1  0  0  0  0  0  0
  185.5170  178.1340  140.1380 O   0  0  0  0  0  0  0  0  0  0  0  0
  185.3350  177.9600  141.3720 C   0  0  0  0  0  0  0  0  0  0  0  0
  190.5320  173.9290  145.1960 C   0  0  0  0  0  2  0  0  0  0  0  0
  194.1120  175.9060  146.5130 C   0  0  0  0  0  3  0  0  0  0  0  0
  191.7800  174.6110  145.6670 C   0  0  0  0  0  0  0  0  0  0  0  0
  193.0340  174.1040  145.3080 C   0  0  0  0  0  3  0  0  0  0  0  0
  194.1990  174.7500  145.7310 C   0  0  0  0  0  3  0  0  0  0  0  0
  192.8610  176.4140  146.8730 C   0  0  0  0  0  3  0  0  0  0  0  0
  191.6950  175.7680  146.4500 C   0  0  0  0  0  3  0  0  0  0  0  0
  1 21  1  1  0  0  0
  2  4  1  6  0  0  0
  2  1  1  0  0  0  0
  3  6  1  1  0  0  0
  3 11  1  0  0  0  0
  3 10  1  0  0  0  0
  5 15  2  0  0  0  0
  7  5  1  0  0  0  0
  8  9  1  0  0  0  0
  8 11  2  0  0  0  0
  9 17  1  1  0  0  0
  9 13  1  0  0  0  0
 10 15  1  6  0  0  0
 10  1  1  0  0  0  0
 11  2  1  0  0  0  0
 12 16  1  0  0  0  0
 12  5  1  0  0  0  0
 13  4  1  0  0  0  0
 15 14  1  0  0  0  0
 16  3  1  0  0  0  0
 19 20  2  0  0  0  0
 20 18  1  0  0  0  0
 20 17  1  0  0  0  0
 21 23  1  0  0  0  0
 22 26  1  0  0  0  0
 23 27  1  0  0  0  0
 24 23  2  0  0  0  0
 24 25  1  0  0  0  0
 25 22  2  0  0  0  0
 27 26  2  0  0  0  0
M  END
>  <MODEL>
8

>  <REMARK>
 VINA RESULT:      -7.0      3.554      5.832
  Name = 
  3 active torsions:
  status: ('A' for Active; 'I' for Inactive)
    1  A    between atoms: C_1  and  C_15
    2  A    between atoms: N_4  and  C_17
    3  A    between atoms: C_9  and  C_15
                            x       y       z     vdW  Elec       q    Type
                         _______ _______ _______ _____ _____    ______ ____

>  <TORSDO>
F 3

$$$$
=
 OpenBabel11052418323D

 27 30  0  0  1  0  0  0  0  0999 V2000
  190.8710  174.8400  145.4000 C   0  0  2  0  0  3  0  0  0  0  0  0
  190.6940  173.7280  144.3780 C   0  0  1  0  0  3  0  0  0  0  0  0
  193.0770  173.7880  145.0780 C   0  0  2  0  0  0  0  0  0  0  0  0
  190.1290  174.2600  143.0800 C   0  0  0  0  0  2  0  0  0  0  0  0
  194.0790  176.3010  146.1710 C   0  0  0  0  0  0  0  0  0  0  0  0
  193.7240  172.7560  145.7600 O   0  0  0  0  0  1  0  0  0  0  0  0
  194.5960  177.5020  146.6420 O   0  0  0  0  0  1  0  0  0  0  0  0
  192.3760  172.4450  143.0920 C   0  0  0  0  0  3  0  0  0  0  0  0
  191.3600  171.9490  142.0920 C   0  0  2  0  0  3  0  0  0  0  0  0
  192.2330  174.6160  146.0640 C   0  0  1  0  0  3  0  0  0  0  0  0
  192.0680  173.2280  144.1340 C   0  0  0  0  0  0  0  0  0  0  0  0
  194.9410  175.4470  145.2930 C   0  0  0  0  0  2  0  0  0  0  0  0
  189.7480  172.8510  141.9860 S   0  0  0  0  0  0  0  0  0  0  0  0
  192.1170  176.7180  147.4090 O   0  0  0  0  0  1  0  0  0  0  0  0
  192.8510  175.9130  146.5430 C   0  0  0  0  0  0  0  0  0  0  0  0
  194.0920  174.6450  144.3180 C   0  0  0  0  0  2  0  0  0  0  0  0
  191.1440  170.5130  142.2330 N   0  0  0  0  0  2  0  0  0  0  0  0
  190.7370  168.1660  141.4070 C   0  0  0  0  0  1  0  0  0  0  0  0
  190.9570  170.0260  139.9490 O   0  0  0  0  0  0  0  0  0  0  0  0
  190.9500  169.6120  141.1380 C   0  0  0  0  0  0  0  0  0  0  0  0
  189.7210  174.8790  146.4140 C   0  0  0  0  0  2  0  0  0  0  0  0
  186.8680  177.9990  145.6460 C   0  0  0  0  0  3  0  0  0  0  0  0
  188.7200  175.9590  146.1370 C   0  0  0  0  0  0  0  0  0  0  0  0
  187.5740  176.0730  146.9320 C   0  0  0  0  0  3  0  0  0  0  0  0
  186.6490  177.0910  146.6860 C   0  0  0  0  0  3  0  0  0  0  0  0
  188.0120  177.8870  144.8500 C   0  0  0  0  0  3  0  0  0  0  0  0
  188.9370  176.8680  145.0950 C   0  0  0  0  0  3  0  0  0  0  0  0
  1 10  1  0  0  0  0
  1 21  1  1  0  0  0
  2  4  1  6  0  0  0
  2  1  1  0  0  0  0
  3  6  1  1  0  0  0
  3 10  1  0  0  0  0
  5 15  2  0  0  0  0
  5  7  1  0  0  0  0
  8 11  2  0  0  0  0
  9 17  1  1  0  0  0
  9  8  1  0  0  0  0
 10 15  1  6  0  0  0
 11  2  1  0  0  0  0
 11  3  1  0  0  0  0
 12  5  1  0  0  0  0
 13  9  1  0  0  0  0
 13  4  1  0  0  0  0
 15 14  1  0  0  0  0
 16  3  1  0  0  0  0
 16 12  1  0  0  0  0
 19 20  2  0  0  0  0
 20 18  1  0  0  0  0
 20 17  1  0  0  0  0
 22 25  1  0  0  0  0
 23 21  1  0  0  0  0
 23 24  1  0  0  0  0
 25 24  2  0  0  0  0
 26 27  1  0  0  0  0
 26 22  2  0  0  0  0
 27 23  2  0  0  0  0
M  END
>  <MODEL>
9

>  <REMARK>
 VINA RESULT:      -6.9      2.588      3.120
  Name = 
  3 active torsions:
  status: ('A' for Active; 'I' for Inactive)
    1  A    between atoms: C_1  and  C_15
    2  A    between atoms: N_4  and  C_17
    3  A    between atoms: C_9  and  C_15
                            x       y       z     vdW  Elec       q    Type
                         _______ _______ _______ _____ _____    ______ ____

>  <TORSDO>
F 3

$$$$
