=
 OpenBabel11052421253D

 32 36  0  0  0  0  0  0  0  0999 V2000
  193.0460  176.5100  145.4970 C   0  0  0  0  0  3  0  0  0  0  0  0
  188.1070  177.3730  143.8030 N   0  0  0  0  0  0  0  0  0  0  0  0
  185.8470  178.1840  148.1510 C   0  0  0  0  0  3  0  0  0  0  0  0
  184.6370  178.3750  147.4850 C   0  0  0  0  0  3  0  0  0  0  0  0
  186.7150  177.4840  141.7020 C   0  0  0  0  0  0  0  0  0  0  0  0
  185.4760  177.6840  141.0760 C   0  0  0  0  0  0  0  0  0  0  0  0
  190.4930  176.8780  143.6630 C   0  0  0  0  0  0  0  0  0  0  0  0
  189.3440  177.2910  145.8750 C   0  0  0  0  0  3  0  0  0  0  0  0
  191.6650  176.8200  145.8790 C   0  0  0  0  0  3  0  0  0  0  0  0
  187.0020  177.8910  147.4240 C   0  0  0  0  0  3  0  0  0  0  0  0
  188.1770  177.4760  145.2450 C   0  0  0  0  0  0  0  0  0  0  0  0
  186.9600  177.7860  146.0230 C   0  0  0  0  0  0  0  0  0  0  0  0
  185.6790  177.8700  143.8730 C   0  0  0  0  0  0  0  0  0  0  0  0
  192.8820  176.3420  143.0210 C   0  0  0  0  0  3  0  0  0  0  0  0
  190.5740  176.9810  145.1360 C   0  0  0  0  0  0  0  0  0  0  0  0
  185.4010  177.5860  139.6900 O   0  0  0  0  0  1  0  0  0  0  0  0
  191.6030  176.5790  142.7550 C   0  0  0  0  0  3  0  0  0  0  0  0
  193.5990  176.3010  144.3000 C   0  0  0  0  0  0  0  0  0  0  0  0
  184.5850  178.2730  146.0930 C   0  0  0  0  0  3  0  0  0  0  0  0
  185.7420  177.9780  145.3490 C   0  0  0  0  0  0  0  0  0  0  0  0
  184.4540  178.0660  143.2240 C   0  0  0  0  0  3  0  0  0  0  0  0
  189.3120  177.0690  143.0720 C   0  0  0  0  0  3  0  0  0  0  0  0
  187.8090  177.1960  140.8920 O   0  0  0  0  0  1  0  0  0  0  0  0
  186.8390  177.5740  143.1170 C   0  0  0  0  0  0  0  0  0  0  0  0
  184.3320  177.9770  141.8370 C   0  0  0  0  0  0  0  0  0  0  0  0
  195.6630  174.7700  144.5030 C   0  0  0  0  0  0  0  0  0  0  0  0
  195.0020  176.0090  144.2080 N   0  0  0  0  0  2  0  0  0  0  0  0
  197.0730  174.6800  144.3490 N   0  0  0  0  0  1  0  0  0  0  0  0
  195.0190  173.7620  144.8950 O   0  0  0  0  0  0  0  0  0  0  0  0
  183.0020  178.1960  141.2250 C   0  0  0  0  0  0  0  0  0  0  0  0
  181.9840  178.8310  141.9250 O   0  0  0  0  0  1  0  0  0  0  0  0
  182.7750  177.8040  140.0490 O   0  0  0  0  0  0  0  0  0  0  0  0
  1  9  1  0  0  0  0
  2 11  1  0  0  0  0
  4  3  1  0  0  0  0
  5 24  1  0  0  0  0
  6  5  2  0  0  0  0
  6 25  1  0  0  0  0
  7 15  1  0  0  0  0
 10  3  2  0  0  0  0
 11  8  2  0  0  0  0
 11 12  1  0  0  0  0
 12 10  1  0  0  0  0
 13 20  1  0  0  0  0
 14 18  1  0  0  0  0
 15  8  1  0  0  0  0
 15  9  2  0  0  0  0
 16  6  1  0  0  0  0
 17 14  2  0  0  0  0
 17  7  1  0  0  0  0
 18  1  2  0  0  0  0
 19  4  2  0  0  0  0
 20 12  2  0  0  0  0
 20 19  1  0  0  0  0
 21 13  1  0  0  0  0
 22  7  2  0  0  0  0
 22  2  1  0  0  0  0
 23  5  1  0  0  0  0
 24  2  1  0  0  0  0
 24 13  2  0  0  0  0
 25 21  2  0  0  0  0
 26 29  2  0  0  0  0
 27 18  1  0  0  0  0
 27 26  1  0  0  0  0
 28 26  1  0  0  0  0
 30 25  1  0  0  0  0
 30 31  1  0  0  0  0
 32 30  2  0  0  0  0
M  END
>  <MODEL>
1

>  <REMARK>
 VINA RESULT:      -9.9      0.000      0.000
  Name = 
  2 active torsions:
  status: ('A' for Active; 'I' for Inactive)
    1  A    between atoms: N_10  and  C_24
    2  A    between atoms: C_11  and  C_32
                            x       y       z     vdW  Elec       q    Type
                         _______ _______ _______ _____ _____    ______ ____

>  <TORSDO>
F 2

$$$$
=
 OpenBabel11052421253D

 32 36  0  0  0  0  0  0  0  0999 V2000
  190.9690  172.9720  139.3730 C   0  0  0  0  0  3  0  0  0  0  0  0
  188.6250  175.6180  143.3120 N   0  0  0  0  0  0  0  0  0  0  0  0
  192.0910  175.1400  146.8370 C   0  0  0  0  0  3  0  0  0  0  0  0
  191.2940  175.8710  147.7180 C   0  0  0  0  0  3  0  0  0  0  0  0
  186.5260  176.8990  143.8750 C   0  0  0  0  0  0  0  0  0  0  0  0
  185.7600  177.6290  144.7960 C   0  0  0  0  0  0  0  0  0  0  0  0
  188.9080  174.6550  141.0860 C   0  0  0  0  0  0  0  0  0  0  0  0
  190.6720  174.4130  142.8800 C   0  0  0  0  0  3  0  0  0  0  0  0
  191.0710  173.4290  140.7620 C   0  0  0  0  0  3  0  0  0  0  0  0
  191.6440  174.8910  145.5380 C   0  0  0  0  0  3  0  0  0  0  0  0
  189.9140  175.1130  143.7330 C   0  0  0  0  0  0  0  0  0  0  0  0
  190.3960  175.3710  145.1050 C   0  0  0  0  0  0  0  0  0  0  0  0
  188.2720  176.6210  145.5510 C   0  0  0  0  0  0  0  0  0  0  0  0
  188.7470  173.8570  138.6900 C   0  0  0  0  0  3  0  0  0  0  0  0
  190.2270  174.1360  141.5080 C   0  0  0  0  0  0  0  0  0  0  0  0
  184.5190  178.1180  144.3980 O   0  0  0  0  0  1  0  0  0  0  0  0
  188.2930  174.4850  139.7680 C   0  0  0  0  0  3  0  0  0  0  0  0
  190.0030  173.1330  138.4660 C   0  0  0  0  0  0  0  0  0  0  0  0
  190.0520  176.3520  147.2970 C   0  0  0  0  0  3  0  0  0  0  0  0
  189.5910  176.1080  145.9910 C   0  0  0  0  0  0  0  0  0  0  0  0
  187.4890  177.3530  146.4510 C   0  0  0  0  0  3  0  0  0  0  0  0
  188.1830  175.3500  141.9660 C   0  0  0  0  0  3  0  0  0  0  0  0
  185.9950  176.7040  142.6040 O   0  0  0  0  0  1  0  0  0  0  0  0
  187.8010  176.3800  144.2380 C   0  0  0  0  0  0  0  0  0  0  0  0
  186.2390  177.8610  146.0960 C   0  0  0  0  0  0  0  0  0  0  0  0
  189.9760  171.2030  136.7560 C   0  0  0  0  0  0  0  0  0  0  0  0
  190.1610  172.5700  137.1550 N   0  0  0  0  0  2  0  0  0  0  0  0
  190.1840  170.8400  135.3980 N   0  0  0  0  0  1  0  0  0  0  0  0
  189.6350  170.3210  137.5860 O   0  0  0  0  0  0  0  0  0  0  0  0
  185.4690  178.6250  147.1040 C   0  0  0  0  0  0  0  0  0  0  0  0
  186.0160  179.7350  147.7370 O   0  0  0  0  0  1  0  0  0  0  0  0
  184.2970  178.2740  147.4040 O   0  0  0  0  0  0  0  0  0  0  0  0
  1  9  1  0  0  0  0
  2 11  1  0  0  0  0
  2 24  1  0  0  0  0
  3  4  1  0  0  0  0
  5 24  2  0  0  0  0
  5  6  1  0  0  0  0
  6 25  2  0  0  0  0
  7 15  1  0  0  0  0
  7 22  2  0  0  0  0
  8 11  2  0  0  0  0
  9 15  2  0  0  0  0
 10  3  2  0  0  0  0
 11 12  1  0  0  0  0
 12 10  1  0  0  0  0
 12 20  2  0  0  0  0
 13 20  1  0  0  0  0
 13 21  2  0  0  0  0
 14 17  2  0  0  0  0
 15  8  1  0  0  0  0
 16  6  1  0  0  0  0
 17  7  1  0  0  0  0
 18 14  1  0  0  0  0
 18  1  2  0  0  0  0
 19  4  2  0  0  0  0
 20 19  1  0  0  0  0
 22  2  1  0  0  0  0
 23  5  1  0  0  0  0
 24 13  1  0  0  0  0
 25 21  1  0  0  0  0
 25 30  1  0  0  0  0
 26 27  1  0  0  0  0
 26 29  2  0  0  0  0
 27 18  1  0  0  0  0
 28 26  1  0  0  0  0
 30 32  2  0  0  0  0
 30 31  1  0  0  0  0
M  END
>  <MODEL>
2

>  <REMARK>
 VINA RESULT:      -9.1      4.336      6.066
  Name = 
  2 active torsions:
  status: ('A' for Active; 'I' for Inactive)
    1  A    between atoms: N_10  and  C_24
    2  A    between atoms: C_11  and  C_32
                            x       y       z     vdW  Elec       q    Type
                         _______ _______ _______ _____ _____    ______ ____

>  <TORSDO>
F 2

$$$$
=
 OpenBabel11052421253D

 32 36  0  0  0  0  0  0  0  0999 V2000
  191.1400  171.6990  139.5090 C   0  0  0  0  0  3  0  0  0  0  0  0
  188.3110  175.2740  142.1960 N   0  0  0  0  0  0  0  0  0  0  0  0
  190.1450  174.5570  146.7550 C   0  0  0  0  0  3  0  0  0  0  0  0
  189.2990  175.5490  147.2510 C   0  0  0  0  0  3  0  0  0  0  0  0
  186.5210  177.0280  141.8980 C   0  0  0  0  0  0  0  0  0  0  0  0
  185.6890  178.0170  142.4410 C   0  0  0  0  0  0  0  0  0  0  0  0
  189.0920  173.9870  140.2740 C   0  0  0  0  0  0  0  0  0  0  0  0
  190.0260  173.6230  142.5940 C   0  0  0  0  0  3  0  0  0  0  0  0
  190.8710  172.3060  140.8160 C   0  0  0  0  0  3  0  0  0  0  0  0
  190.1210  174.2370  145.3970 C   0  0  0  0  0  3  0  0  0  0  0  0
  189.2160  174.5720  143.0790 C   0  0  0  0  0  0  0  0  0  0  0  0
  189.2500  174.9050  144.5180 C   0  0  0  0  0  0  0  0  0  0  0  0
  187.4710  176.6170  144.1030 C   0  0  0  0  0  0  0  0  0  0  0  0
  189.5680  172.9290  138.0250 C   0  0  0  0  0  3  0  0  0  0  0  0
  190.0210  173.2650  141.1700 C   0  0  0  0  0  0  0  0  0  0  0  0
  184.8150  178.6960  141.5980 O   0  0  0  0  0  1  0  0  0  0  0  0
  188.9400  173.7760  138.8330 C   0  0  0  0  0  3  0  0  0  0  0  0
  190.6100  171.9360  138.3070 C   0  0  0  0  0  0  0  0  0  0  0  0
  188.4300  176.2170  146.3860 C   0  0  0  0  0  3  0  0  0  0  0  0
  188.3950  175.9040  145.0150 C   0  0  0  0  0  0  0  0  0  0  0  0
  186.6300  177.6090  144.6210 C   0  0  0  0  0  3  0  0  0  0  0  0
  188.3020  174.9280  140.7960 C   0  0  0  0  0  3  0  0  0  0  0  0
  186.4240  176.7800  140.5320 O   0  0  0  0  0  1  0  0  0  0  0  0
  187.4310  176.3080  142.7220 C   0  0  0  0  0  0  0  0  0  0  0  0
  185.7380  178.3150  143.8140 C   0  0  0  0  0  0  0  0  0  0  0  0
  190.7860  169.8110  136.8590 C   0  0  0  0  0  0  0  0  0  0  0  0
  191.0630  171.1840  137.1710 N   0  0  0  0  0  2  0  0  0  0  0  0
  191.3330  169.2420  135.6770 N   0  0  0  0  0  1  0  0  0  0  0  0
  190.0700  169.1010  137.6120 O   0  0  0  0  0  0  0  0  0  0  0  0
  184.8800  179.3490  144.4350 C   0  0  0  0  0  0  0  0  0  0  0  0
  183.7730  179.0010  145.2000 O   0  0  0  0  0  1  0  0  0  0  0  0
  185.1450  180.5710  144.2760 O   0  0  0  0  0  0  0  0  0  0  0  0
  1  9  1  0  0  0  0
  2 24  1  0  0  0  0
  2 11  1  0  0  0  0
  3  4  1  0  0  0  0
  5  6  2  0  0  0  0
  5 24  1  0  0  0  0
  6 25  1  0  0  0  0
  7 22  2  0  0  0  0
  7 15  1  0  0  0  0
  8 11  2  0  0  0  0
  9 15  2  0  0  0  0
 10  3  2  0  0  0  0
 11 12  1  0  0  0  0
 12 20  2  0  0  0  0
 12 10  1  0  0  0  0
 13 21  1  0  0  0  0
 13 20  1  0  0  0  0
 14 18  1  0  0  0  0
 14 17  2  0  0  0  0
 15  8  1  0  0  0  0
 16  6  1  0  0  0  0
 17  7  1  0  0  0  0
 18  1  2  0  0  0  0
 19  4  2  0  0  0  0
 20 19  1  0  0  0  0
 22  2  1  0  0  0  0
 23  5  1  0  0  0  0
 24 13  2  0  0  0  0
 25 30  1  0  0  0  0
 25 21  2  0  0  0  0
 26 27  1  0  0  0  0
 26 29  2  0  0  0  0
 27 18  1  0  0  0  0
 28 26  1  0  0  0  0
 30 31  1  0  0  0  0
 32 30  2  0  0  0  0
M  END
>  <MODEL>
3

>  <REMARK>
 VINA RESULT:      -8.5      4.678      5.641
  Name = 
  2 active torsions:
  status: ('A' for Active; 'I' for Inactive)
    1  A    between atoms: N_10  and  C_24
    2  A    between atoms: C_11  and  C_32
                            x       y       z     vdW  Elec       q    Type
                         _______ _______ _______ _____ _____    ______ ____

>  <TORSDO>
F 2

$$$$
=
 OpenBabel11052421253D

 32 36  0  0  0  0  0  0  0  0999 V2000
  181.0730  179.4160  142.3010 C   0  0  0  0  0  3  0  0  0  0  0  0
  185.9100  177.6620  143.5400 N   0  0  0  0  0  0  0  0  0  0  0  0
  186.1590  179.1280  148.2790 C   0  0  0  0  0  3  0  0  0  0  0  0
  187.4400  178.5860  148.3780 C   0  0  0  0  0  3  0  0  0  0  0  0
  187.8960  176.4480  142.5660 C   0  0  0  0  0  0  0  0  0  0  0  0
  189.1870  175.9190  142.7130 C   0  0  0  0  0  0  0  0  0  0  0  0
  183.9410  178.0850  142.1600 C   0  0  0  0  0  0  0  0  0  0  0  0
  184.0670  178.8300  144.5720 C   0  0  0  0  0  3  0  0  0  0  0  0
  182.0980  179.3040  143.3440 C   0  0  0  0  0  3  0  0  0  0  0  0
  185.4580  179.0410  147.0740 C   0  0  0  0  0  3  0  0  0  0  0  0
  185.2980  178.3140  144.6760 C   0  0  0  0  0  0  0  0  0  0  0  0
  186.0310  178.4110  145.9560 C   0  0  0  0  0  0  0  0  0  0  0  0
  187.9420  177.1990  144.8830 C   0  0  0  0  0  0  0  0  0  0  0  0
  182.1620  178.2860  140.3710 C   0  0  0  0  0  3  0  0  0  0  0  0
  183.3080  178.7530  143.3180 C   0  0  0  0  0  0  0  0  0  0  0  0
  189.7820  175.2900  141.6240 O   0  0  0  0  0  1  0  0  0  0  0  0
  183.3490  177.9080  140.8330 C   0  0  0  0  0  3  0  0  0  0  0  0
  181.0640  178.9980  141.0340 C   0  0  0  0  0  0  0  0  0  0  0  0
  188.0180  177.9590  147.2720 C   0  0  0  0  0  3  0  0  0  0  0  0
  187.3230  177.8660  146.0530 C   0  0  0  0  0  0  0  0  0  0  0  0
  189.2290  176.6620  145.0050 C   0  0  0  0  0  3  0  0  0  0  0  0
  185.1690  177.5820  142.3050 C   0  0  0  0  0  3  0  0  0  0  0  0
  187.2790  176.3120  141.3260 O   0  0  0  0  0  1  0  0  0  0  0  0
  187.2480  177.1000  143.6530 C   0  0  0  0  0  0  0  0  0  0  0  0
  189.8650  176.0240  143.9390 C   0  0  0  0  0  0  0  0  0  0  0  0
  178.7350  178.4300  140.0860 C   0  0  0  0  0  0  0  0  0  0  0  0
  179.9100  179.2430  140.2150 N   0  0  0  0  0  2  0  0  0  0  0  0
  177.6910  178.8470  139.2150 N   0  0  0  0  0  1  0  0  0  0  0  0
  178.6100  177.3540  140.7280 O   0  0  0  0  0  0  0  0  0  0  0  0
  191.2270  175.4820  144.1450 C   0  0  0  0  0  0  0  0  0  0  0  0
  191.4360  174.1270  144.3700 O   0  0  0  0  0  1  0  0  0  0  0  0
  192.2240  176.2520  144.1210 O   0  0  0  0  0  0  0  0  0  0  0  0
  1  9  1  0  0  0  0
  2 24  1  0  0  0  0
  2 11  1  0  0  0  0
  3  4  1  0  0  0  0
  5  6  2  0  0  0  0
  5 24  1  0  0  0  0
  6 25  1  0  0  0  0
  7 22  2  0  0  0  0
  7 15  1  0  0  0  0
  8 11  2  0  0  0  0
 10  3  2  0  0  0  0
 11 12  1  0  0  0  0
 12 20  2  0  0  0  0
 12 10  1  0  0  0  0
 13 21  1  0  0  0  0
 13 20  1  0  0  0  0
 14 17  2  0  0  0  0
 14 18  1  0  0  0  0
 15  9  2  0  0  0  0
 15  8  1  0  0  0  0
 16  6  1  0  0  0  0
 17  7  1  0  0  0  0
 18  1  2  0  0  0  0
 19  4  2  0  0  0  0
 20 19  1  0  0  0  0
 22  2  1  0  0  0  0
 23  5  1  0  0  0  0
 24 13  2  0  0  0  0
 25 30  1  0  0  0  0
 25 21  2  0  0  0  0
 26 27  1  0  0  0  0
 26 29  2  0  0  0  0
 27 18  1  0  0  0  0
 28 26  1  0  0  0  0
 30 31  1  0  0  0  0
 32 30  2  0  0  0  0
M  END
>  <MODEL>
4

>  <REMARK>
 VINA RESULT:      -8.3      3.291      8.961
  Name = 
  2 active torsions:
  status: ('A' for Active; 'I' for Inactive)
    1  A    between atoms: N_10  and  C_24
    2  A    between atoms: C_11  and  C_32
                            x       y       z     vdW  Elec       q    Type
                         _______ _______ _______ _____ _____    ______ ____

>  <TORSDO>
F 2

$$$$
=
 OpenBabel11052421253D

 32 36  0  0  0  0  0  0  0  0999 V2000
  191.8930  172.1220  139.3040 C   0  0  0  0  0  3  0  0  0  0  0  0
  189.3300  175.0490  142.8910 N   0  0  0  0  0  0  0  0  0  0  0  0
  192.6410  174.9510  146.5920 C   0  0  0  0  0  3  0  0  0  0  0  0
  191.7930  175.7390  147.3690 C   0  0  0  0  0  3  0  0  0  0  0  0
  187.1850  176.3290  143.2500 C   0  0  0  0  0  0  0  0  0  0  0  0
  186.3660  177.1200  144.0690 C   0  0  0  0  0  0  0  0  0  0  0  0
  189.7290  173.9040  140.7730 C   0  0  0  0  0  0  0  0  0  0  0  0
  191.4140  173.8550  142.6550 C   0  0  0  0  0  3  0  0  0  0  0  0
  191.9250  172.7010  140.6510 C   0  0  0  0  0  3  0  0  0  0  0  0
  192.2570  174.5820  145.3010 C   0  0  0  0  0  3  0  0  0  0  0  0
  190.6060  174.6100  143.4100 C   0  0  0  0  0  0  0  0  0  0  0  0
  191.0220  174.9960  144.7740 C   0  0  0  0  0  0  0  0  0  0  0  0
  188.8590  176.2340  145.0170 C   0  0  0  0  0  0  0  0  0  0  0  0
  189.6900  172.8980  138.4500 C   0  0  0  0  0  3  0  0  0  0  0  0
  191.0360  173.4510  141.2950 C   0  0  0  0  0  0  0  0  0  0  0  0
  185.1360  177.5460  143.5760 O   0  0  0  0  0  1  0  0  0  0  0  0
  189.1760  173.6070  139.4490 C   0  0  0  0  0  3  0  0  0  0  0  0
  190.9670  172.1840  138.3450 C   0  0  0  0  0  0  0  0  0  0  0  0
  190.5630  176.1550  146.8550 C   0  0  0  0  0  3  0  0  0  0  0  0
  190.1650  175.7890  145.5570 C   0  0  0  0  0  0  0  0  0  0  0  0
  188.0230  177.0250  145.8150 C   0  0  0  0  0  3  0  0  0  0  0  0
  188.9530  174.6560  141.5560 C   0  0  0  0  0  3  0  0  0  0  0  0
  186.7150  176.0130  141.9780 O   0  0  0  0  0  1  0  0  0  0  0  0
  188.4510  175.8710  143.7110 C   0  0  0  0  0  0  0  0  0  0  0  0
  186.7820  177.4740  145.3630 C   0  0  0  0  0  0  0  0  0  0  0  0
  190.8370  170.1680  136.7440 C   0  0  0  0  0  0  0  0  0  0  0  0
  191.1930  171.5130  137.0960 N   0  0  0  0  0  2  0  0  0  0  0  0
  191.1510  169.6830  135.4450 N   0  0  0  0  0  1  0  0  0  0  0  0
  190.2540  169.4100  137.5610 O   0  0  0  0  0  0  0  0  0  0  0  0
  185.9540  178.3060  146.2660 C   0  0  0  0  0  0  0  0  0  0  0  0
  185.2670  177.7420  147.3350 O   0  0  0  0  0  1  0  0  0  0  0  0
  185.8600  179.5470  146.0740 O   0  0  0  0  0  0  0  0  0  0  0  0
  1  9  1  0  0  0  0
  2 11  1  0  0  0  0
  2 24  1  0  0  0  0
  3  4  1  0  0  0  0
  5 24  2  0  0  0  0
  5  6  1  0  0  0  0
  6 25  2  0  0  0  0
  7 15  1  0  0  0  0
  7 22  2  0  0  0  0
  8 11  2  0  0  0  0
  9 15  2  0  0  0  0
 10  3  2  0  0  0  0
 11 12  1  0  0  0  0
 12 10  1  0  0  0  0
 12 20  2  0  0  0  0
 13 20  1  0  0  0  0
 13 21  2  0  0  0  0
 14 17  2  0  0  0  0
 15  8  1  0  0  0  0
 16  6  1  0  0  0  0
 17  7  1  0  0  0  0
 18 14  1  0  0  0  0
 18  1  2  0  0  0  0
 19  4  2  0  0  0  0
 20 19  1  0  0  0  0
 22  2  1  0  0  0  0
 23  5  1  0  0  0  0
 24 13  1  0  0  0  0
 25 21  1  0  0  0  0
 25 30  1  0  0  0  0
 26 27  1  0  0  0  0
 26 29  2  0  0  0  0
 27 18  1  0  0  0  0
 28 26  1  0  0  0  0
 30 31  1  0  0  0  0
 32 30  2  0  0  0  0
M  END
>  <MODEL>
5

>  <REMARK>
 VINA RESULT:      -8.1      4.681      6.197
  Name = 
  2 active torsions:
  status: ('A' for Active; 'I' for Inactive)
    1  A    between atoms: N_10  and  C_24
    2  A    between atoms: C_11  and  C_32
                            x       y       z     vdW  Elec       q    Type
                         _______ _______ _______ _____ _____    ______ ____

>  <TORSDO>
F 2

$$$$
=
 OpenBabel11052421253D

 32 36  0  0  0  0  0  0  0  0999 V2000
  184.7290  178.7320  144.1700 C   0  0  0  0  0  3  0  0  0  0  0  0
  189.3080  176.1970  144.9550 N   0  0  0  0  0  0  0  0  0  0  0  0
  190.7430  178.3280  149.2050 C   0  0  0  0  0  3  0  0  0  0  0  0
  191.8970  177.5460  149.2060 C   0  0  0  0  0  3  0  0  0  0  0  0
  190.8080  174.4390  143.9420 C   0  0  0  0  0  0  0  0  0  0  0  0
  191.9820  173.6740  143.9860 C   0  0  0  0  0  0  0  0  0  0  0  0
  187.2190  176.8060  143.8470 C   0  0  0  0  0  0  0  0  0  0  0  0
  187.9490  177.8900  146.0100 C   0  0  0  0  0  3  0  0  0  0  0  0
  185.8990  178.5730  145.0390 C   0  0  0  0  0  3  0  0  0  0  0  0
  189.8160  178.2000  148.1680 C   0  0  0  0  0  3  0  0  0  0  0  0
  189.0600  177.1440  146.0200 C   0  0  0  0  0  0  0  0  0  0  0  0
  190.0340  177.2870  147.1220 C   0  0  0  0  0  0  0  0  0  0  0  0
  191.4420  175.5300  146.0250 C   0  0  0  0  0  0  0  0  0  0  0  0
  185.1930  177.0930  142.3580 C   0  0  0  0  0  3  0  0  0  0  0  0
  186.9580  177.7760  144.9330 C   0  0  0  0  0  0  0  0  0  0  0  0
  192.2270  172.7610  142.9640 O   0  0  0  0  0  1  0  0  0  0  0  0
  186.3570  176.5480  142.6920 C   0  0  0  0  0  3  0  0  0  0  0  0
  184.3950  178.1250  143.0300 C   0  0  0  0  0  0  0  0  0  0  0  0
  192.1220  176.6360  148.1710 C   0  0  0  0  0  3  0  0  0  0  0  0
  191.1970  176.4970  147.1210 C   0  0  0  0  0  0  0  0  0  0  0  0
  192.6070  174.7550  146.0460 C   0  0  0  0  0  3  0  0  0  0  0  0
  188.3380  176.0800  143.8940 C   0  0  0  0  0  3  0  0  0  0  0  0
  189.9460  174.2390  142.8670 O   0  0  0  0  0  1  0  0  0  0  0  0
  190.5160  175.3840  144.9650 C   0  0  0  0  0  0  0  0  0  0  0  0
  192.8940  173.8280  145.0440 C   0  0  0  0  0  0  0  0  0  0  0  0
  182.8580  178.3680  140.9750 C   0  0  0  0  0  0  0  0  0  0  0  0
  183.1690  178.4770  142.3710 N   0  0  0  0  0  2  0  0  0  0  0  0
  181.5760  178.7740  140.5140 N   0  0  0  0  0  1  0  0  0  0  0  0
  183.6970  177.9210  140.1510 O   0  0  0  0  0  0  0  0  0  0  0  0
  194.1470  173.0450  145.1360 C   0  0  0  0  0  0  0  0  0  0  0  0
  194.1740  171.8010  145.7550 O   0  0  0  0  0  1  0  0  0  0  0  0
  195.2160  173.5020  144.6490 O   0  0  0  0  0  0  0  0  0  0  0  0
  1  9  1  0  0  0  0
  2 24  1  0  0  0  0
  2 11  1  0  0  0  0
  3  4  1  0  0  0  0
  5  6  2  0  0  0  0
  5 24  1  0  0  0  0
  6 25  1  0  0  0  0
  7 22  2  0  0  0  0
  7 15  1  0  0  0  0
  8 11  2  0  0  0  0
 10  3  2  0  0  0  0
 11 12  1  0  0  0  0
 12 10  1  0  0  0  0
 13 21  1  0  0  0  0
 13 20  1  0  0  0  0
 14 17  2  0  0  0  0
 14 18  1  0  0  0  0
 15  9  2  0  0  0  0
 15  8  1  0  0  0  0
 16  6  1  0  0  0  0
 17  7  1  0  0  0  0
 18  1  2  0  0  0  0
 19  4  2  0  0  0  0
 20 12  2  0  0  0  0
 20 19  1  0  0  0  0
 22  2  1  0  0  0  0
 23  5  1  0  0  0  0
 24 13  2  0  0  0  0
 25 30  1  0  0  0  0
 25 21  2  0  0  0  0
 26 27  1  0  0  0  0
 27 18  1  0  0  0  0
 28 26  1  0  0  0  0
 29 26  2  0  0  0  0
 30 31  1  0  0  0  0
 32 30  2  0  0  0  0
M  END
>  <MODEL>
6

>  <REMARK>
 VINA RESULT:      -8.1      2.573      8.521
  Name = 
  2 active torsions:
  status: ('A' for Active; 'I' for Inactive)
    1  A    between atoms: N_10  and  C_24
    2  A    between atoms: C_11  and  C_32
                            x       y       z     vdW  Elec       q    Type
                         _______ _______ _______ _____ _____    ______ ____

>  <TORSDO>
F 2

$$$$
=
 OpenBabel11052421253D

 32 36  0  0  0  0  0  0  0  0999 V2000
  184.1640  178.9690  144.4680 C   0  0  0  0  0  3  0  0  0  0  0  0
  188.8120  176.4940  143.9480 N   0  0  0  0  0  0  0  0  0  0  0  0
  190.8140  177.5040  148.3790 C   0  0  0  0  0  3  0  0  0  0  0  0
  191.9590  176.7920  148.0230 C   0  0  0  0  0  3  0  0  0  0  0  0
  190.1620  175.1170  142.3210 C   0  0  0  0  0  0  0  0  0  0  0  0
  191.3330  174.4120  142.0070 C   0  0  0  0  0  0  0  0  0  0  0  0
  186.5900  177.2890  143.3250 C   0  0  0  0  0  0  0  0  0  0  0  0
  187.6080  177.8020  145.5800 C   0  0  0  0  0  3  0  0  0  0  0  0
  185.4430  178.6350  145.1020 C   0  0  0  0  0  3  0  0  0  0  0  0
  189.7550  177.6130  147.4770 C   0  0  0  0  0  3  0  0  0  0  0  0
  188.7120  177.1220  145.2470 C   0  0  0  0  0  0  0  0  0  0  0  0
  189.8280  177.0110  146.2090 C   0  0  0  0  0  0  0  0  0  0  0  0
  191.0760  175.6540  144.5140 C   0  0  0  0  0  0  0  0  0  0  0  0
  184.3770  177.8750  142.2450 C   0  0  0  0  0  3  0  0  0  0  0  0
  186.4790  177.9340  144.6520 C   0  0  0  0  0  0  0  0  0  0  0  0
  191.4370  173.8050  140.7590 O   0  0  0  0  0  1  0  0  0  0  0  0
  185.5770  177.3060  142.2670 C   0  0  0  0  0  3  0  0  0  0  0  0
  183.6780  178.6660  143.2630 C   0  0  0  0  0  0  0  0  0  0  0  0
  192.0420  176.1910  146.7650 C   0  0  0  0  0  3  0  0  0  0  0  0
  190.9810  176.2940  145.8470 C   0  0  0  0  0  0  0  0  0  0  0  0
  192.2340  174.9450  144.1770 C   0  0  0  0  0  3  0  0  0  0  0  0
  187.7060  176.6190  143.0310 C   0  0  0  0  0  3  0  0  0  0  0  0
  189.1610  175.1690  141.3550 O   0  0  0  0  0  1  0  0  0  0  0  0
  190.0120  175.7530  143.5850 C   0  0  0  0  0  0  0  0  0  0  0  0
  192.3820  174.3210  142.9380 C   0  0  0  0  0  0  0  0  0  0  0  0
  181.5990  178.7500  141.7400 C   0  0  0  0  0  0  0  0  0  0  0  0
  182.3710  179.1300  142.8880 N   0  0  0  0  0  2  0  0  0  0  0  0
  180.3150  179.3280  141.5420 N   0  0  0  0  0  1  0  0  0  0  0  0
  182.0370  177.9160  140.9050 O   0  0  0  0  0  0  0  0  0  0  0  0
  193.6380  173.5890  142.6550 C   0  0  0  0  0  0  0  0  0  0  0  0
  194.6630  174.1770  141.9240 O   0  0  0  0  0  0  0  0  0  0  0  0
  193.7930  172.4120  143.0760 O   0  0  0  0  0  1  0  0  0  0  0  0
  1  9  1  0  0  0  0
  2 11  1  0  0  0  0
  4  3  1  0  0  0  0
  5 24  1  0  0  0  0
  6  5  2  0  0  0  0
  6 25  1  0  0  0  0
  7 15  1  0  0  0  0
 10  3  2  0  0  0  0
 11  8  2  0  0  0  0
 11 12  1  0  0  0  0
 12 10  1  0  0  0  0
 13 20  1  0  0  0  0
 14 17  2  0  0  0  0
 14 18  1  0  0  0  0
 15  9  2  0  0  0  0
 15  8  1  0  0  0  0
 16  6  1  0  0  0  0
 17  7  1  0  0  0  0
 18  1  2  0  0  0  0
 19  4  2  0  0  0  0
 20 12  2  0  0  0  0
 20 19  1  0  0  0  0
 21 13  1  0  0  0  0
 22  7  2  0  0  0  0
 22  2  1  0  0  0  0
 23  5  1  0  0  0  0
 24  2  1  0  0  0  0
 24 13  2  0  0  0  0
 25 21  2  0  0  0  0
 26 27  1  0  0  0  0
 27 18  1  0  0  0  0
 28 26  1  0  0  0  0
 29 26  2  0  0  0  0
 30 25  1  0  0  0  0
 30 32  1  0  0  0  0
 31 30  2  0  0  0  0
M  END
>  <MODEL>
7

>  <REMARK>
 VINA RESULT:      -8.0      2.593      8.440
  Name = 
  2 active torsions:
  status: ('A' for Active; 'I' for Inactive)
    1  A    between atoms: N_10  and  C_24
    2  A    between atoms: C_11  and  C_32
                            x       y       z     vdW  Elec       q    Type
                         _______ _______ _______ _____ _____    ______ ____

>  <TORSDO>
F 2

$$$$
=
 OpenBabel11052421253D

 32 36  0  0  0  0  0  0  0  0999 V2000
  189.0040  173.1440  138.4690 C   0  0  0  0  0  3  0  0  0  0  0  0
  189.4780  175.5020  143.1830 N   0  0  0  0  0  0  0  0  0  0  0  0
  185.0050  177.6340  143.5210 C   0  0  0  0  0  3  0  0  0  0  0  0
  185.3510  178.1600  144.7650 C   0  0  0  0  0  3  0  0  0  0  0  0
  191.0980  175.8320  145.0890 C   0  0  0  0  0  0  0  0  0  0  0  0
  191.4010  176.3830  146.3420 C   0  0  0  0  0  0  0  0  0  0  0  0
  190.1270  174.1660  141.2460 C   0  0  0  0  0  0  0  0  0  0  0  0
  187.8510  175.2500  141.4180 C   0  0  0  0  0  3  0  0  0  0  0  0
  188.3540  173.9790  139.4830 C   0  0  0  0  0  3  0  0  0  0  0  0
  185.9220  176.8520  142.8170 C   0  0  0  0  0  3  0  0  0  0  0  0
  188.1740  175.7600  142.6130 C   0  0  0  0  0  0  0  0  0  0  0  0
  187.1950  176.5860  143.3500 C   0  0  0  0  0  0  0  0  0  0  0  0
  188.8850  176.8460  145.1800 C   0  0  0  0  0  0  0  0  0  0  0  0
  191.2350  172.7250  139.4850 C   0  0  0  0  0  3  0  0  0  0  0  0
  188.7960  174.4240  140.6560 C   0  0  0  0  0  0  0  0  0  0  0  0
  192.6540  176.1390  146.8970 O   0  0  0  0  0  1  0  0  0  0  0  0
  191.2000  173.3710  140.6450 C   0  0  0  0  0  3  0  0  0  0  0  0
  190.2200  172.5950  138.4340 C   0  0  0  0  0  0  0  0  0  0  0  0
  186.6140  177.9020  145.3030 C   0  0  0  0  0  3  0  0  0  0  0  0
  187.5470  177.1160  144.6040 C   0  0  0  0  0  0  0  0  0  0  0  0
  189.2120  177.3840  146.4300 C   0  0  0  0  0  3  0  0  0  0  0  0
  190.4100  174.6910  142.4400 C   0  0  0  0  0  3  0  0  0  0  0  0
  192.0790  175.0670  144.4650 O   0  0  0  0  0  1  0  0  0  0  0  0
  189.8300  176.0550  144.4830 C   0  0  0  0  0  0  0  0  0  0  0  0
  190.4550  177.1660  147.0250 C   0  0  0  0  0  0  0  0  0  0  0  0
  190.3410  170.4200  137.0560 C   0  0  0  0  0  0  0  0  0  0  0  0
  190.6100  171.8080  137.2980 N   0  0  0  0  0  2  0  0  0  0  0  0
  190.8180  169.8160  135.8610 N   0  0  0  0  0  1  0  0  0  0  0  0
  189.6920  169.7260  137.8820 O   0  0  0  0  0  0  0  0  0  0  0  0
  190.7260  177.7690  148.3500 C   0  0  0  0  0  0  0  0  0  0  0  0
  190.0690  178.9220  148.7630 O   0  0  0  0  0  0  0  0  0  0  0  0
  191.5660  177.2400  149.1250 O   0  0  0  0  0  1  0  0  0  0  0  0
  1  9  1  0  0  0  0
  2 24  1  0  0  0  0
  3  4  1  0  0  0  0
  4 19  2  0  0  0  0
  5  6  1  0  0  0  0
  6 16  1  0  0  0  0
  6 25  2  0  0  0  0
  7 22  2  0  0  0  0
  8 11  2  0  0  0  0
  9 15  2  0  0  0  0
 10 12  1  0  0  0  0
 10  3  2  0  0  0  0
 11  2  1  0  0  0  0
 11 12  1  0  0  0  0
 12 20  2  0  0  0  0
 13 21  2  0  0  0  0
 14 17  2  0  0  0  0
 15  7  1  0  0  0  0
 15  8  1  0  0  0  0
 17  7  1  0  0  0  0
 18  1  2  0  0  0  0
 18 14  1  0  0  0  0
 20 13  1  0  0  0  0
 20 19  1  0  0  0  0
 21 25  1  0  0  0  0
 22  2  1  0  0  0  0
 23  5  1  0  0  0  0
 24  5  2  0  0  0  0
 24 13  1  0  0  0  0
 25 30  1  0  0  0  0
 26 27  1  0  0  0  0
 26 29  2  0  0  0  0
 27 18  1  0  0  0  0
 28 26  1  0  0  0  0
 30 31  2  0  0  0  0
 30 32  1  0  0  0  0
M  END
>  <MODEL>
8

>  <REMARK>
 VINA RESULT:      -7.8      4.594      6.999
  Name = 
  2 active torsions:
  status: ('A' for Active; 'I' for Inactive)
    1  A    between atoms: N_10  and  C_24
    2  A    between atoms: C_11  and  C_32
                            x       y       z     vdW  Elec       q    Type
                         _______ _______ _______ _____ _____    ______ ____

>  <TORSDO>
F 2

$$$$
=
 OpenBabel11052421253D

 32 36  0  0  0  0  0  0  0  0999 V2000
  193.4590  171.7630  141.8390 C   0  0  0  0  0  3  0  0  0  0  0  0
  189.7880  175.2820  143.3010 N   0  0  0  0  0  0  0  0  0  0  0  0
  191.5170  176.4980  147.7960 C   0  0  0  0  0  3  0  0  0  0  0  0
  190.4500  177.3800  147.9660 C   0  0  0  0  0  3  0  0  0  0  0  0
  187.6720  176.4000  142.5000 C   0  0  0  0  0  0  0  0  0  0  0  0
  186.6170  177.2980  142.7170 C   0  0  0  0  0  0  0  0  0  0  0  0
  190.9230  173.6560  141.8790 C   0  0  0  0  0  0  0  0  0  0  0  0
  191.8040  174.2750  144.1660 C   0  0  0  0  0  3  0  0  0  0  0  0
  193.0010  172.6810  142.8870 C   0  0  0  0  0  3  0  0  0  0  0  0
  191.6280  175.7610  146.6150 C   0  0  0  0  0  3  0  0  0  0  0  0
  190.7830  175.1230  144.3390 C   0  0  0  0  0  0  0  0  0  0  0  0
  190.6740  175.8990  145.5920 C   0  0  0  0  0  0  0  0  0  0  0  0
  188.5830  176.9430  144.6940 C   0  0  0  0  0  0  0  0  0  0  0  0
  191.7270  172.0660  140.0810 C   0  0  0  0  0  3  0  0  0  0  0  0
  191.9450  173.4870  142.9350 C   0  0  0  0  0  0  0  0  0  0  0  0
  185.6560  177.4560  141.7230 O   0  0  0  0  0  1  0  0  0  0  0  0
  190.8900  172.9640  140.5880 C   0  0  0  0  0  3  0  0  0  0  0  0
  192.9470  171.4760  140.6400 C   0  0  0  0  0  0  0  0  0  0  0  0
  189.4970  177.5230  146.9560 C   0  0  0  0  0  3  0  0  0  0  0  0
  189.5980  176.7860  145.7620 C   0  0  0  0  0  0  0  0  0  0  0  0
  187.5200  177.8340  144.8860 C   0  0  0  0  0  3  0  0  0  0  0  0
  189.9210  174.5120  142.0900 C   0  0  0  0  0  3  0  0  0  0  0  0
  187.6960  175.7110  141.2910 O   0  0  0  0  0  1  0  0  0  0  0  0
  188.6770  176.2050  143.4890 C   0  0  0  0  0  0  0  0  0  0  0  0
  186.5340  178.0240  143.9170 C   0  0  0  0  0  0  0  0  0  0  0  0
  194.7000  170.7500  138.8950 C   0  0  0  0  0  0  0  0  0  0  0  0
  193.6090  170.5200  139.7970 N   0  0  0  0  0  2  0  0  0  0  0  0
  195.2200  169.6640  138.1400 N   0  0  0  0  0  1  0  0  0  0  0  0
  195.2050  171.8950  138.7580 O   0  0  0  0  0  0  0  0  0  0  0  0
  185.4410  178.9840  144.1940 C   0  0  0  0  0  0  0  0  0  0  0  0
  184.1840  178.5460  144.5950 O   0  0  0  0  0  1  0  0  0  0  0  0
  185.6380  180.2210  144.0670 O   0  0  0  0  0  0  0  0  0  0  0  0
  1  9  1  0  0  0  0
  2 24  1  0  0  0  0
  2 11  1  0  0  0  0
  3  4  1  0  0  0  0
  5  6  2  0  0  0  0
  5 24  1  0  0  0  0
  6 25  1  0  0  0  0
  7 22  2  0  0  0  0
  7 15  1  0  0  0  0
  8 11  2  0  0  0  0
  9 15  2  0  0  0  0
 10  3  2  0  0  0  0
 11 12  1  0  0  0  0
 12 20  2  0  0  0  0
 12 10  1  0  0  0  0
 13 21  1  0  0  0  0
 13 20  1  0  0  0  0
 14 17  2  0  0  0  0
 14 18  1  0  0  0  0
 15  8  1  0  0  0  0
 16  6  1  0  0  0  0
 17  7  1  0  0  0  0
 18  1  2  0  0  0  0
 19  4  2  0  0  0  0
 20 19  1  0  0  0  0
 22  2  1  0  0  0  0
 23  5  1  0  0  0  0
 24 13  2  0  0  0  0
 25 30  1  0  0  0  0
 25 21  2  0  0  0  0
 26 27  1  0  0  0  0
 27 18  1  0  0  0  0
 28 26  1  0  0  0  0
 29 26  2  0  0  0  0
 30 31  1  0  0  0  0
 32 30  2  0  0  0  0
M  END
>  <MODEL>
9

>  <REMARK>
 VINA RESULT:      -7.7      3.626      4.674
  Name = 
  2 active torsions:
  status: ('A' for Active; 'I' for Inactive)
    1  A    between atoms: N_10  and  C_24
    2  A    between atoms: C_11  and  C_32
                            x       y       z     vdW  Elec       q    Type
                         _______ _______ _______ _____ _____    ______ ____

>  <TORSDO>
F 2

$$$$
