=
 OpenBabel11052418193D

 27 31  0  0  1  0  0  0  0  0999 V2000
  188.9830  177.4810  145.4720 C   0  0  0  0  0  2  0  0  0  0  0  0
  187.9150  176.2070  143.6580 C   0  0  0  0  0  0  0  0  0  0  0  0
  190.1530  175.1710  144.0600 N   0  0  0  0  0  0  0  0  0  0  0  0
  188.0460  174.7300  139.7640 N   0  0  0  0  0  0  0  0  0  0  0  0
  188.8830  172.4970  139.2420 C   0  0  0  0  0  1  0  0  0  0  0  0
  186.7560  176.3600  142.7230 C   0  0  0  0  0  3  0  0  0  0  0  0
  189.4320  173.9040  141.3730 C   0  0  2  0  0  3  0  0  0  0  0  0
  192.2260  174.7310  146.9720 C   0  0  0  0  0  3  0  0  0  0  0  0
  190.1190  172.8350  142.1550 C   0  0  0  0  0  1  0  0  0  0  0  0
  191.4530  175.2660  148.1390 C   0  0  0  0  0  2  0  0  0  0  0  0
  189.0280  175.0800  141.8320 C   0  0  1  0  0  3  0  0  0  0  0  0
  187.7690  176.6780  145.0790 C   0  0  2  0  0  3  0  0  0  0  0  0
  188.7960  173.7250  140.0790 C   0  0  0  0  0  0  0  0  0  0  0  0
  188.1740  175.7440  140.8040 C   0  0  2  0  0  3  0  0  0  0  0  0
  189.9470  176.5470  146.1520 C   0  0  2  0  0  3  0  0  0  0  0  0
  189.0240  175.5400  143.2360 C   0  0  0  0  0  0  0  0  0  0  0  0
  191.8110  174.8160  145.7030 C   0  0  0  0  0  3  0  0  0  0  0  0
  186.8500  176.1040  141.4090 C   0  0  0  0  0  3  0  0  0  0  0  0
  191.3040  176.7930  148.1200 C   0  0  0  0  0  2  0  0  0  0  0  0
  190.9920  177.3390  146.7950 N   0  0  0  0  0  2  0  0  0  0  0  0
  190.5860  175.5110  145.2440 C   0  0  0  0  0  0  0  0  0  0  0  0
  184.1280  178.8240  145.9060 C   0  0  0  0  0  3  0  0  0  0  0  0
  186.5090  177.4480  145.3650 C   0  0  0  0  0  0  0  0  0  0  0  0
  186.2790  178.7140  144.8010 C   0  0  0  0  0  3  0  0  0  0  0  0
  185.0920  179.3990  145.0730 C   0  0  0  0  0  3  0  0  0  0  0  0
  184.3510  177.5630  146.4660 C   0  0  0  0  0  3  0  0  0  0  0  0
  185.5370  176.8760  146.1940 C   0  0  0  0  0  3  0  0  0  0  0  0
  2 12  1  0  0  0  0
  3 21  2  0  0  0  0
  4 13  2  0  0  0  0
  4 14  1  0  0  0  0
  5 13  1  0  0  0  0
  6  2  1  0  0  0  0
  7 11  1  0  0  0  0
  7  9  1  1  0  0  0
  8 10  1  0  0  0  0
 11 16  1  1  0  0  0
 12 23  1  6  0  0  0
 12  1  1  0  0  0  0
 13  7  1  0  0  0  0
 14 18  1  1  0  0  0
 14 11  1  0  0  0  0
 15  1  1  6  0  0  0
 15 20  1  0  0  0  0
 16  2  2  0  0  0  0
 16  3  1  0  0  0  0
 17  8  2  0  0  0  0
 18  6  2  0  0  0  0
 19 10  1  0  0  0  0
 20 19  1  0  0  0  0
 21 17  1  0  0  0  0
 21 15  1  0  0  0  0
 22 26  1  0  0  0  0
 23 27  1  0  0  0  0
 24 25  1  0  0  0  0
 24 23  2  0  0  0  0
 25 22  2  0  0  0  0
 27 26  2  0  0  0  0
M  END
>  <MODEL>
1

>  <REMARK>
 VINA RESULT:      -8.5      0.000      0.000
  Name = 
  1 active torsions:
  status: ('A' for Active; 'I' for Inactive)
    1  A    between atoms: C_9  and  C_15
                            x       y       z     vdW  Elec       q    Type
                         _______ _______ _______ _____ _____    ______ ____

>  <TORSDO>
F 1

$$$$
=
 OpenBabel11052418193D

 27 31  0  0  1  0  0  0  0  0999 V2000
  187.8980  174.8770  142.4380 C   0  0  0  0  0  2  0  0  0  0  0  0
  189.3090  176.2580  143.9070 C   0  0  0  0  0  0  0  0  0  0  0  0
  190.8270  174.6700  142.7170 N   0  0  0  0  0  0  0  0  0  0  0  0
  192.1290  176.5020  146.9640 N   0  0  0  0  0  0  0  0  0  0  0  0
  194.5270  176.6240  146.5210 C   0  0  0  0  0  1  0  0  0  0  0  0
  189.1310  177.1920  145.0630 C   0  0  0  0  0  3  0  0  0  0  0  0
  192.6950  175.6790  144.9160 C   0  0  2  0  0  3  0  0  0  0  0  0
  190.8020  173.1440  139.4550 C   0  0  0  0  0  3  0  0  0  0  0  0
  193.5430  175.5400  143.6950 C   0  0  0  0  0  1  0  0  0  0  0  0
  189.6170  173.7010  138.7260 C   0  0  0  0  0  2  0  0  0  0  0  0
  191.3740  175.5940  144.9730 C   0  0  1  0  0  3  0  0  0  0  0  0
  188.3020  176.2850  142.7890 C   0  0  2  0  0  3  0  0  0  0  0  0
  193.1270  176.2510  146.1810 C   0  0  0  0  0  0  0  0  0  0  0  0
  190.9070  176.0350  146.3190 C   0  0  2  0  0  3  0  0  0  0  0  0
  188.7690  174.4230  141.2970 C   0  0  2  0  0  3  0  0  0  0  0  0
  190.4340  175.4960  143.8360 C   0  0  0  0  0  0  0  0  0  0  0  0
  191.0780  173.4080  140.7370 C   0  0  0  0  0  3  0  0  0  0  0  0
  189.8950  177.1300  146.1640 C   0  0  0  0  0  3  0  0  0  0  0  0
  188.2750  173.2100  139.2840 C   0  0  0  0  0  2  0  0  0  0  0  0
  188.2170  173.1880  140.7490 N   0  0  0  0  0  2  0  0  0  0  0  0
  190.2310  174.2100  141.6500 C   0  0  0  0  0  0  0  0  0  0  0  0
  184.8650  178.7730  143.5300 C   0  0  0  0  0  3  0  0  0  0  0  0
  187.0880  177.1350  143.0510 C   0  0  0  0  0  0  0  0  0  0  0  0
  186.0460  176.6890  143.8810 C   0  0  0  0  0  3  0  0  0  0  0  0
  184.9380  177.5070  144.1180 C   0  0  0  0  0  3  0  0  0  0  0  0
  185.9020  179.2220  142.7060 C   0  0  0  0  0  3  0  0  0  0  0  0
  187.0110  178.4060  142.4690 C   0  0  0  0  0  3  0  0  0  0  0  0
  1 12  1  0  0  0  0
  2  6  1  0  0  0  0
  3 16  1  0  0  0  0
  6 18  2  0  0  0  0
  7  9  1  6  0  0  0
  7 11  1  0  0  0  0
  7 13  1  0  0  0  0
  8 17  2  0  0  0  0
 10 19  1  0  0  0  0
 10  8  1  0  0  0  0
 11 16  1  6  0  0  0
 11 14  1  0  0  0  0
 12 23  1  1  0  0  0
 12  2  1  0  0  0  0
 13  5  1  0  0  0  0
 13  4  2  0  0  0  0
 14 18  1  6  0  0  0
 14  4  1  0  0  0  0
 15 21  1  0  0  0  0
 15  1  1  1  0  0  0
 16  2  2  0  0  0  0
 17 21  1  0  0  0  0
 19 20  1  0  0  0  0
 20 15  1  0  0  0  0
 21  3  2  0  0  0  0
 22 25  1  0  0  0  0
 23 24  1  0  0  0  0
 24 25  2  0  0  0  0
 26 22  2  0  0  0  0
 27 26  1  0  0  0  0
 27 23  2  0  0  0  0
M  END
>  <MODEL>
2

>  <REMARK>
 VINA RESULT:      -8.0      1.600      5.641
  Name = 
  1 active torsions:
  status: ('A' for Active; 'I' for Inactive)
    1  A    between atoms: C_9  and  C_15
                            x       y       z     vdW  Elec       q    Type
                         _______ _______ _______ _____ _____    ______ ____

>  <TORSDO>
F 1

$$$$
=
 OpenBabel11052418193D

 27 31  0  0  1  0  0  0  0  0999 V2000
  187.8000  176.0750  145.2710 C   0  0  0  0  0  2  0  0  0  0  0  0
  189.2180  174.9120  143.6300 C   0  0  0  0  0  0  0  0  0  0  0  0
  187.2030  175.7320  142.4030 N   0  0  0  0  0  0  0  0  0  0  0  0
  189.6460  171.9460  140.7350 N   0  0  0  0  0  0  0  0  0  0  0  0
  189.2980  172.3820  138.3580 C   0  0  0  0  0  1  0  0  0  0  0  0
  190.3870  173.9760  143.6340 C   0  0  0  0  0  3  0  0  0  0  0  0
  188.3400  173.7730  140.3510 C   0  0  2  0  0  3  0  0  0  0  0  0
  185.0580  178.6070  142.7390 C   0  0  0  0  0  3  0  0  0  0  0  0
  187.8210  174.9310  139.5640 C   0  0  0  0  0  1  0  0  0  0  0  0
  185.6310  179.4470  143.8410 C   0  0  0  0  0  2  0  0  0  0  0  0
  188.4740  173.7120  141.6680 C   0  0  1  0  0  3  0  0  0  0  0  0
  189.1710  176.0200  144.6460 C   0  0  2  0  0  3  0  0  0  0  0  0
  189.0860  172.6510  139.8070 C   0  0  0  0  0  0  0  0  0  0  0  0
  189.2510  172.4910  142.0290 C   0  0  2  0  0  3  0  0  0  0  0  0
  186.9910  177.0890  144.5070 C   0  0  2  0  0  3  0  0  0  0  0  0
  188.2920  174.8120  142.6380 C   0  0  0  0  0  0  0  0  0  0  0  0
  185.5360  177.4050  142.3960 C   0  0  0  0  0  3  0  0  0  0  0  0
  190.4350  172.8790  142.8640 C   0  0  0  0  0  3  0  0  0  0  0  0
  185.4810  178.8110  145.2300 C   0  0  0  0  0  2  0  0  0  0  0  0
  185.7710  177.3740  145.2550 N   0  0  0  0  0  2  0  0  0  0  0  0
  186.6310  176.6860  143.0870 C   0  0  0  0  0  0  0  0  0  0  0  0
  192.2630  175.8230  147.6370 C   0  0  0  0  0  3  0  0  0  0  0  0
  190.2350  175.9520  145.7080 C   0  0  0  0  0  0  0  0  0  0  0  0
  189.9890  175.3530  146.9550 C   0  0  0  0  0  3  0  0  0  0  0  0
  191.0010  175.2910  147.9160 C   0  0  0  0  0  3  0  0  0  0  0  0
  192.5130  176.4160  146.3960 C   0  0  0  0  0  3  0  0  0  0  0  0
  191.5020  176.4780  145.4340 C   0  0  0  0  0  3  0  0  0  0  0  0
  2  6  1  0  0  0  0
  2 12  1  0  0  0  0
  3 16  1  0  0  0  0
  3 21  2  0  0  0  0
  4 14  1  0  0  0  0
  5 13  1  0  0  0  0
  7  9  1  6  0  0  0
  7 11  1  0  0  0  0
  8 10  1  0  0  0  0
 10 19  1  0  0  0  0
 11 14  1  0  0  0  0
 11 16  1  6  0  0  0
 12  1  1  0  0  0  0
 12 23  1  1  0  0  0
 13  7  1  0  0  0  0
 13  4  2  0  0  0  0
 14 18  1  1  0  0  0
 15 20  1  0  0  0  0
 15  1  1  1  0  0  0
 16  2  2  0  0  0  0
 17  8  2  0  0  0  0
 17 21  1  0  0  0  0
 18  6  2  0  0  0  0
 19 20  1  0  0  0  0
 21 15  1  0  0  0  0
 22 25  1  0  0  0  0
 23 24  1  0  0  0  0
 24 25  2  0  0  0  0
 26 22  2  0  0  0  0
 27 23  2  0  0  0  0
 27 26  1  0  0  0  0
M  END
>  <MODEL>
3

>  <REMARK>
 VINA RESULT:      -7.8      1.798      5.179
  Name = 
  1 active torsions:
  status: ('A' for Active; 'I' for Inactive)
    1  A    between atoms: C_9  and  C_15
                            x       y       z     vdW  Elec       q    Type
                         _______ _______ _______ _____ _____    ______ ____

>  <TORSDO>
F 1

$$$$
=
 OpenBabel11052418193D

 27 31  0  0  1  0  0  0  0  0999 V2000
  187.0870  178.2000  143.3990 C   0  0  0  0  0  2  0  0  0  0  0  0
  189.1870  176.9210  143.4680 C   0  0  0  0  0  0  0  0  0  0  0  0
  188.6320  177.5400  145.8230 N   0  0  0  0  0  0  0  0  0  0  0  0
  193.1930  176.6750  144.5860 N   0  0  0  0  0  0  0  0  0  0  0  0
  193.9000  175.6810  146.7010 C   0  0  0  0  0  1  0  0  0  0  0  0
  190.2410  176.4590  142.5090 C   0  0  0  0  0  3  0  0  0  0  0  0
  191.5410  176.6600  146.1540 C   0  0  2  0  0  3  0  0  0  0  0  0
  185.5550  178.0030  147.6360 C   0  0  0  0  0  3  0  0  0  0  0  0
  190.8270  176.1710  147.3710 C   0  0  0  0  0  1  0  0  0  0  0  0
  184.4410  177.6670  146.6910 C   0  0  0  0  0  2  0  0  0  0  0  0
  190.9840  177.1710  145.0660 C   0  0  1  0  0  3  0  0  0  0  0  0
  187.7480  176.8970  143.0310 C   0  0  2  0  0  3  0  0  0  0  0  0
  192.9220  176.3640  145.8110 C   0  0  0  0  0  0  0  0  0  0  0  0
  192.0160  177.3010  143.9970 C   0  0  2  0  0  3  0  0  0  0  0  0
  186.4180  178.0110  144.7340 C   0  0  2  0  0  3  0  0  0  0  0  0
  189.5430  177.2340  144.7430 C   0  0  0  0  0  0  0  0  0  0  0  0
  186.8440  178.0410  147.2820 C   0  0  0  0  0  3  0  0  0  0  0  0
  191.5520  176.5860  142.7630 C   0  0  0  0  0  3  0  0  0  0  0  0
  184.2690  178.6940  145.5640 C   0  0  0  0  0  2  0  0  0  0  0  0
  185.5360  179.1480  144.9810 N   0  0  0  0  0  2  0  0  0  0  0  0
  187.3650  177.8420  145.9100 C   0  0  0  0  0  0  0  0  0  0  0  0
  187.0740  176.0430  138.8640 C   0  0  0  0  0  3  0  0  0  0  0  0
  187.5320  176.5850  141.5750 C   0  0  0  0  0  0  0  0  0  0  0  0
  187.9790  175.3800  141.0090 C   0  0  0  0  0  3  0  0  0  0  0  0
  187.7520  175.1120  139.6570 C   0  0  0  0  0  3  0  0  0  0  0  0
  186.6250  177.2420  139.4240 C   0  0  0  0  0  3  0  0  0  0  0  0
  186.8510  177.5110  140.7770 C   0  0  0  0  0  3  0  0  0  0  0  0
  2 16  2  0  0  0  0
  3 21  2  0  0  0  0
  4 13  2  0  0  0  0
  6 18  2  0  0  0  0
  6  2  1  0  0  0  0
  7  9  1  6  0  0  0
 10  8  1  0  0  0  0
 11 16  1  6  0  0  0
 11  7  1  0  0  0  0
 12 23  1  6  0  0  0
 12  1  1  0  0  0  0
 12  2  1  0  0  0  0
 13  7  1  0  0  0  0
 13  5  1  0  0  0  0
 14 18  1  6  0  0  0
 14  4  1  0  0  0  0
 14 11  1  0  0  0  0
 15  1  1  6  0  0  0
 15 20  1  0  0  0  0
 15 21  1  0  0  0  0
 16  3  1  0  0  0  0
 17  8  2  0  0  0  0
 19 10  1  0  0  0  0
 20 19  1  0  0  0  0
 21 17  1  0  0  0  0
 22 26  2  0  0  0  0
 22 25  1  0  0  0  0
 24 23  1  0  0  0  0
 25 24  2  0  0  0  0
 26 27  1  0  0  0  0
 27 23  2  0  0  0  0
M  END
>  <MODEL>
4

>  <REMARK>
 VINA RESULT:      -7.8      2.123      5.836
  Name = 
  1 active torsions:
  status: ('A' for Active; 'I' for Inactive)
    1  A    between atoms: C_9  and  C_15
                            x       y       z     vdW  Elec       q    Type
                         _______ _______ _______ _____ _____    ______ ____

>  <TORSDO>
F 1

$$$$
=
 OpenBabel11052418193D

 27 31  0  0  1  0  0  0  0  0999 V2000
  188.2750  176.1220  145.4840 C   0  0  0  0  0  2  0  0  0  0  0  0
  189.3640  175.5410  143.3550 C   0  0  0  0  0  0  0  0  0  0  0  0
  187.0590  176.3320  142.8050 N   0  0  0  0  0  0  0  0  0  0  0  0
  189.3500  173.3570  139.8070 N   0  0  0  0  0  0  0  0  0  0  0  0
  188.4270  174.2470  137.7300 C   0  0  0  0  0  1  0  0  0  0  0  0
  190.5740  174.7900  142.8930 C   0  0  0  0  0  3  0  0  0  0  0  0
  187.8460  175.0340  140.1520 C   0  0  2  0  0  3  0  0  0  0  0  0
  184.8250  178.7550  144.2580 C   0  0  0  0  0  3  0  0  0  0  0  0
  187.0670  176.2550  139.7910 C   0  0  0  0  0  1  0  0  0  0  0  0
  185.5670  179.4050  145.3880 C   0  0  0  0  0  2  0  0  0  0  0  0
  188.2860  174.7070  141.3580 C   0  0  1  0  0  3  0  0  0  0  0  0
  189.4630  176.3860  144.5960 C   0  0  2  0  0  3  0  0  0  0  0  0
  188.5350  174.1650  139.2120 C   0  0  0  0  0  0  0  0  0  0  0  0
  189.2220  173.5510  141.2470 C   0  0  2  0  0  3  0  0  0  0  0  0
  187.2310  177.1610  145.1700 C   0  0  2  0  0  3  0  0  0  0  0  0
  188.2450  175.5370  142.5810 C   0  0  0  0  0  0  0  0  0  0  0  0
  185.3060  177.7300  143.5450 C   0  0  0  0  0  3  0  0  0  0  0  0
  190.5310  173.9030  141.8880 C   0  0  0  0  0  3  0  0  0  0  0  0
  185.7940  178.4690  146.5820 C   0  0  0  0  0  2  0  0  0  0  0  0
  186.1990  177.1120  146.2010 N   0  0  0  0  0  2  0  0  0  0  0  0
  186.5860  177.0300  143.8020 C   0  0  0  0  0  0  0  0  0  0  0  0
  193.0990  175.9340  146.8590 C   0  0  0  0  0  3  0  0  0  0  0  0
  190.7460  176.2310  145.3670 C   0  0  0  0  0  0  0  0  0  0  0  0
  191.9260  176.8800  144.9650 C   0  0  0  0  0  3  0  0  0  0  0  0
  193.0980  176.7300  145.7100 C   0  0  0  0  0  3  0  0  0  0  0  0
  191.9270  175.2890  147.2640 C   0  0  0  0  0  3  0  0  0  0  0  0
  190.7530  175.4400  146.5210 C   0  0  0  0  0  3  0  0  0  0  0  0
  2 12  1  0  0  0  0
  3 21  2  0  0  0  0
  4 14  1  0  0  0  0
  5 13  1  0  0  0  0
  6  2  1  0  0  0  0
  7  9  1  6  0  0  0
  7 11  1  0  0  0  0
  8 10  1  0  0  0  0
 10 19  1  0  0  0  0
 11 16  1  6  0  0  0
 12 23  1  1  0  0  0
 12  1  1  0  0  0  0
 13  4  2  0  0  0  0
 13  7  1  0  0  0  0
 14 11  1  0  0  0  0
 14 18  1  6  0  0  0
 15  1  1  1  0  0  0
 15 20  1  0  0  0  0
 16  3  1  0  0  0  0
 16  2  2  0  0  0  0
 17 21  1  0  0  0  0
 17  8  2  0  0  0  0
 18  6  2  0  0  0  0
 20 19  1  0  0  0  0
 21 15  1  0  0  0  0
 22 26  1  0  0  0  0
 23 27  1  0  0  0  0
 24 23  2  0  0  0  0
 24 25  1  0  0  0  0
 25 22  2  0  0  0  0
 27 26  2  0  0  0  0
M  END
>  <MODEL>
5

>  <REMARK>
 VINA RESULT:      -7.8      1.755      5.078
  Name = 
  1 active torsions:
  status: ('A' for Active; 'I' for Inactive)
    1  A    between atoms: C_9  and  C_15
                            x       y       z     vdW  Elec       q    Type
                         _______ _______ _______ _____ _____    ______ ____

>  <TORSDO>
F 1

$$$$
=
 OpenBabel11052418193D

 27 31  0  0  1  0  0  0  0  0999 V2000
  187.8170  176.6520  141.3460 C   0  0  0  0  0  2  0  0  0  0  0  0
  189.2340  175.7260  143.1310 C   0  0  0  0  0  0  0  0  0  0  0  0
  187.9300  177.6060  144.1340 N   0  0  0  0  0  0  0  0  0  0  0  0
  192.1360  176.3120  146.0630 N   0  0  0  0  0  0  0  0  0  0  0  0
  191.5660  176.7910  148.3880 C   0  0  0  0  0  1  0  0  0  0  0  0
  190.4170  174.8170  143.2540 C   0  0  0  0  0  3  0  0  0  0  0  0
  190.0440  177.1820  146.3010 C   0  0  2  0  0  3  0  0  0  0  0  0
  184.6430  178.9650  143.5640 C   0  0  0  0  0  3  0  0  0  0  0  0
  188.7760  177.4910  147.0250 C   0  0  0  0  0  1  0  0  0  0  0  0
  183.9920  178.0990  142.5270 C   0  0  0  0  0  2  0  0  0  0  0  0
  190.1710  176.9300  145.0060 C   0  0  1  0  0  3  0  0  0  0  0  0
  188.1740  175.4050  142.1130 C   0  0  2  0  0  3  0  0  0  0  0  0
  191.2940  176.7820  146.9240 C   0  0  0  0  0  0  0  0  0  0  0  0
  191.5500  176.4310  144.7330 C   0  0  2  0  0  3  0  0  0  0  0  0
  186.6200  177.2730  142.0170 C   0  0  2  0  0  3  0  0  0  0  0  0
  189.0860  176.7460  144.0200 C   0  0  0  0  0  0  0  0  0  0  0  0
  185.9140  178.8220  143.9590 C   0  0  0  0  0  3  0  0  0  0  0  0
  191.4730  175.1090  144.0280 C   0  0  0  0  0  3  0  0  0  0  0  0
  184.6120  178.2510  141.1320 C   0  0  0  0  0  2  0  0  0  0  0  0
  186.0770  178.3070  141.1410 N   0  0  0  0  0  2  0  0  0  0  0  0
  186.8880  177.8630  143.3900 C   0  0  0  0  0  0  0  0  0  0  0  0
  189.1250  172.2240  139.3700 C   0  0  0  0  0  3  0  0  0  0  0  0
  188.5190  174.2840  141.1720 C   0  0  0  0  0  0  0  0  0  0  0  0
  188.7750  172.9840  141.6410 C   0  0  0  0  0  3  0  0  0  0  0  0
  189.0780  171.9590  140.7410 C   0  0  0  0  0  3  0  0  0  0  0  0
  188.8670  173.5150  138.8980 C   0  0  0  0  0  3  0  0  0  0  0  0
  188.5630  174.5410  139.7970 C   0  0  0  0  0  3  0  0  0  0  0  0
  1 12  1  0  0  0  0
  2  6  1  0  0  0  0
  2 16  2  0  0  0  0
  4 13  2  0  0  0  0
  6 18  2  0  0  0  0
  7 13  1  0  0  0  0
  7  9  1  1  0  0  0
  8 17  2  0  0  0  0
 10  8  1  0  0  0  0
 11 16  1  1  0  0  0
 11  7  1  0  0  0  0
 12 23  1  6  0  0  0
 12  2  1  0  0  0  0
 13  5  1  0  0  0  0
 14 18  1  1  0  0  0
 14 11  1  0  0  0  0
 14  4  1  0  0  0  0
 15  1  1  6  0  0  0
 15 21  1  0  0  0  0
 16  3  1  0  0  0  0
 19 20  1  0  0  0  0
 19 10  1  0  0  0  0
 20 15  1  0  0  0  0
 21 17  1  0  0  0  0
 21  3  2  0  0  0  0
 22 25  1  0  0  0  0
 23 24  1  0  0  0  0
 25 24  2  0  0  0  0
 26 22  2  0  0  0  0
 26 27  1  0  0  0  0
 27 23  2  0  0  0  0
M  END
>  <MODEL>
6

>  <REMARK>
 VINA RESULT:      -7.6      1.842      6.985
  Name = 
  1 active torsions:
  status: ('A' for Active; 'I' for Inactive)
    1  A    between atoms: C_9  and  C_15
                            x       y       z     vdW  Elec       q    Type
                         _______ _______ _______ _____ _____    ______ ____

>  <TORSDO>
F 1

$$$$
=
 OpenBabel11052418193D

 27 31  0  0  1  0  0  0  0  0999 V2000
  187.9360  176.5930  142.7980 C   0  0  0  0  0  2  0  0  0  0  0  0
  190.1380  175.5470  143.1290 C   0  0  0  0  0  0  0  0  0  0  0  0
  189.5700  176.7390  145.2490 N   0  0  0  0  0  0  0  0  0  0  0  0
  194.1680  175.9250  144.1170 N   0  0  0  0  0  0  0  0  0  0  0  0
  194.9890  175.6030  146.3940 C   0  0  0  0  0  1  0  0  0  0  0  0
  191.2120  174.9240  142.2910 C   0  0  0  0  0  3  0  0  0  0  0  0
  192.5470  176.2100  145.6940 C   0  0  2  0  0  3  0  0  0  0  0  0
  186.4930  177.4400  146.9860 C   0  0  0  0  0  3  0  0  0  0  0  0
  191.8970  176.0180  147.0230 C   0  0  0  0  0  1  0  0  0  0  0  0
  185.3970  176.7730  146.2100 C   0  0  0  0  0  2  0  0  0  0  0  0
  191.9320  176.3610  144.5300 C   0  0  1  0  0  3  0  0  0  0  0  0
  188.6990  175.2940  142.7700 C   0  0  2  0  0  3  0  0  0  0  0  0
  193.9430  175.9400  145.3910 C   0  0  0  0  0  0  0  0  0  0  0  0
  192.9320  176.2750  143.4270 C   0  0  2  0  0  3  0  0  0  0  0  0
  187.3060  176.7230  144.1590 C   0  0  2  0  0  3  0  0  0  0  0  0
  190.4860  176.2220  144.2580 C   0  0  0  0  0  0  0  0  0  0  0  0
  187.7690  177.4780  146.5860 C   0  0  0  0  0  3  0  0  0  0  0  0
  192.5110  175.2170  142.4500 C   0  0  0  0  0  3  0  0  0  0  0  0
  185.1210  177.4390  144.8550 C   0  0  0  0  0  2  0  0  0  0  0  0
  186.3350  177.8130  144.1230 N   0  0  0  0  0  2  0  0  0  0  0  0
  188.2830  176.9540  145.2990 C   0  0  0  0  0  0  0  0  0  0  0  0
  188.1370  173.2090  139.0440 C   0  0  0  0  0  3  0  0  0  0  0  0
  188.4880  174.5820  141.4620 C   0  0  0  0  0  0  0  0  0  0  0  0
  188.1620  175.2850  140.2900 C   0  0  0  0  0  3  0  0  0  0  0  0
  187.9860  174.5980  139.0850 C   0  0  0  0  0  3  0  0  0  0  0  0
  188.4640  172.5070  140.2070 C   0  0  0  0  0  3  0  0  0  0  0  0
  188.6420  173.1920  141.4120 C   0  0  0  0  0  3  0  0  0  0  0  0
  2 16  2  0  0  0  0
  3 21  2  0  0  0  0
  4 13  2  0  0  0  0
  6 18  2  0  0  0  0
  6  2  1  0  0  0  0
  7  9  1  6  0  0  0
 10  8  1  0  0  0  0
 11 16  1  6  0  0  0
 11  7  1  0  0  0  0
 12 23  1  6  0  0  0
 12  1  1  0  0  0  0
 12  2  1  0  0  0  0
 13  7  1  0  0  0  0
 13  5  1  0  0  0  0
 14 18  1  6  0  0  0
 14  4  1  0  0  0  0
 14 11  1  0  0  0  0
 15  1  1  6  0  0  0
 15 21  1  0  0  0  0
 16  3  1  0  0  0  0
 17  8  2  0  0  0  0
 19 10  1  0  0  0  0
 20 15  1  0  0  0  0
 20 19  1  0  0  0  0
 21 17  1  0  0  0  0
 22 25  2  0  0  0  0
 22 26  1  0  0  0  0
 24 23  2  0  0  0  0
 25 24  1  0  0  0  0
 26 27  2  0  0  0  0
 27 23  1  0  0  0  0
M  END
>  <MODEL>
7

>  <REMARK>
 VINA RESULT:      -7.6      2.002      6.014
  Name = 
  1 active torsions:
  status: ('A' for Active; 'I' for Inactive)
    1  A    between atoms: C_9  and  C_15
                            x       y       z     vdW  Elec       q    Type
                         _______ _______ _______ _____ _____    ______ ____

>  <TORSDO>
F 1

$$$$
=
 OpenBabel11052418193D

 27 31  0  0  1  0  0  0  0  0999 V2000
  191.1160  176.8420  144.4910 C   0  0  0  0  0  2  0  0  0  0  0  0
  189.8220  175.1180  143.3050 C   0  0  0  0  0  0  0  0  0  0  0  0
  192.2310  174.4850  143.1130 N   0  0  0  0  0  0  0  0  0  0  0  0
  189.0850  172.9660  139.8140 N   0  0  0  0  0  0  0  0  0  0  0  0
  190.1320  170.8070  139.3660 C   0  0  0  0  0  1  0  0  0  0  0  0
  188.4330  174.9370  142.7750 C   0  0  0  0  0  3  0  0  0  0  0  0
  191.0070  172.6500  140.9970 C   0  0  2  0  0  3  0  0  0  0  0  0
  195.1060  174.8810  145.2460 C   0  0  0  0  0  3  0  0  0  0  0  0
  192.0780  171.8490  141.6590 C   0  0  0  0  0  1  0  0  0  0  0  0
  194.6210  175.5190  146.5130 C   0  0  0  0  0  2  0  0  0  0  0  0
  190.5440  173.8270  141.3930 C   0  0  1  0  0  3  0  0  0  0  0  0
  190.0110  175.8250  144.6190 C   0  0  2  0  0  3  0  0  0  0  0  0
  190.0670  172.1470  140.0090 C   0  0  0  0  0  0  0  0  0  0  0  0
  189.3200  174.1660  140.6090 C   0  0  2  0  0  3  0  0  0  0  0  0
  192.3920  176.1900  144.9520 C   0  0  2  0  0  3  0  0  0  0  0  0
  190.8630  174.5380  142.6490 C   0  0  0  0  0  0  0  0  0  0  0  0
  194.3310  174.6700  144.1760 C   0  0  0  0  0  3  0  0  0  0  0  0
  188.1870  174.4530  141.5490 C   0  0  0  0  0  3  0  0  0  0  0  0
  194.1920  176.9810  146.3320 C   0  0  0  0  0  2  0  0  0  0  0  0
  193.4130  177.2210  145.1130 N   0  0  0  0  0  2  0  0  0  0  0  0
  192.9200  175.0960  144.0390 C   0  0  0  0  0  0  0  0  0  0  0  0
  186.4730  177.7000  146.2040 C   0  0  0  0  0  3  0  0  0  0  0  0
  188.7690  176.4590  145.1830 C   0  0  0  0  0  0  0  0  0  0  0  0
  188.1910  176.0040  146.3800 C   0  0  0  0  0  3  0  0  0  0  0  0
  187.0460  176.6230  146.8870 C   0  0  0  0  0  3  0  0  0  0  0  0
  187.0460  178.1580  145.0140 C   0  0  0  0  0  3  0  0  0  0  0  0
  188.1930  177.5410  144.5070 C   0  0  0  0  0  3  0  0  0  0  0  0
  1 12  1  0  0  0  0
  2 12  1  0  0  0  0
  3 21  2  0  0  0  0
  4 13  2  0  0  0  0
  4 14  1  0  0  0  0
  5 13  1  0  0  0  0
  6  2  1  0  0  0  0
  7 11  1  0  0  0  0
  7  9  1  1  0  0  0
  8 10  1  0  0  0  0
 11 16  1  1  0  0  0
 12 23  1  6  0  0  0
 13  7  1  0  0  0  0
 14 11  1  0  0  0  0
 14 18  1  1  0  0  0
 15  1  1  6  0  0  0
 15 20  1  0  0  0  0
 16  3  1  0  0  0  0
 16  2  2  0  0  0  0
 17  8  2  0  0  0  0
 18  6  2  0  0  0  0
 19 10  1  0  0  0  0
 20 19  1  0  0  0  0
 21 17  1  0  0  0  0
 21 15  1  0  0  0  0
 22 25  1  0  0  0  0
 23 24  1  0  0  0  0
 24 25  2  0  0  0  0
 26 22  2  0  0  0  0
 27 26  1  0  0  0  0
 27 23  2  0  0  0  0
M  END
>  <MODEL>
8

>  <REMARK>
 VINA RESULT:      -7.5      1.905      2.691
  Name = 
  1 active torsions:
  status: ('A' for Active; 'I' for Inactive)
    1  A    between atoms: C_9  and  C_15
                            x       y       z     vdW  Elec       q    Type
                         _______ _______ _______ _____ _____    ______ ____

>  <TORSDO>
F 1

$$$$
=
 OpenBabel11052418193D

 27 31  0  0  1  0  0  0  0  0999 V2000
  189.5870  174.2150  143.3080 C   0  0  0  0  0  2  0  0  0  0  0  0
  191.4490  175.6950  143.9400 C   0  0  0  0  0  0  0  0  0  0  0  0
  192.1190  174.5380  141.8300 N   0  0  0  0  0  0  0  0  0  0  0  0
  195.4890  176.1820  144.8340 N   0  0  0  0  0  0  0  0  0  0  0  0
  197.1370  176.7920  143.1390 C   0  0  0  0  0  1  0  0  0  0  0  0
  191.8970  176.4690  145.1410 C   0  0  0  0  0  3  0  0  0  0  0  0
  194.8150  175.6720  142.7180 C   0  0  2  0  0  3  0  0  0  0  0  0
  190.3230  173.3420  138.9450 C   0  0  0  0  0  3  0  0  0  0  0  0
  194.7860  175.8080  141.2310 C   0  0  0  0  0  1  0  0  0  0  0  0
  188.8880  173.7310  139.1370 C   0  0  0  0  0  2  0  0  0  0  0  0
  193.7980  175.3350  143.4980 C   0  0  1  0  0  3  0  0  0  0  0  0
  189.9800  175.6360  143.6210 C   0  0  2  0  0  3  0  0  0  0  0  0
  195.8500  176.1960  143.5920 C   0  0  0  0  0  0  0  0  0  0  0  0
  194.1760  175.5550  144.9240 C   0  0  2  0  0  3  0  0  0  0  0  0
  189.6560  174.0410  141.8140 C   0  0  2  0  0  3  0  0  0  0  0  0
  192.3830  175.1680  143.1030 C   0  0  0  0  0  0  0  0  0  0  0  0
  191.2740  173.5340  139.8660 C   0  0  0  0  0  3  0  0  0  0  0  0
  193.1650  176.4490  145.5780 C   0  0  0  0  0  3  0  0  0  0  0  0
  188.1900  172.9470  140.2560 C   0  0  0  0  0  2  0  0  0  0  0  0
  189.0110  172.7800  141.4600 N   0  0  0  0  0  2  0  0  0  0  0  0
  191.0570  174.0750  141.2270 C   0  0  0  0  0  0  0  0  0  0  0  0
  187.3870  177.2300  146.6680 C   0  0  0  0  0  3  0  0  0  0  0  0
  189.0780  176.2150  144.6770 C   0  0  0  0  0  0  0  0  0  0  0  0
  188.3670  177.4070  144.4610 C   0  0  0  0  0  3  0  0  0  0  0  0
  187.5250  177.9120  145.4560 C   0  0  0  0  0  3  0  0  0  0  0  0
  188.0900  176.0420  146.8850 C   0  0  0  0  0  3  0  0  0  0  0  0
  188.9320  175.5350  145.8910 C   0  0  0  0  0  3  0  0  0  0  0  0
  1 12  1  0  0  0  0
  2  6  1  0  0  0  0
  3 16  1  0  0  0  0
  4 14  1  0  0  0  0
  5 13  1  0  0  0  0
  6 18  2  0  0  0  0
  7  9  1  6  0  0  0
  7 11  1  0  0  0  0
  7 13  1  0  0  0  0
  8 10  1  0  0  0  0
  8 17  2  0  0  0  0
 10 19  1  0  0  0  0
 11 16  1  6  0  0  0
 11 14  1  0  0  0  0
 12  2  1  0  0  0  0
 12 23  1  1  0  0  0
 13  4  2  0  0  0  0
 14 18  1  6  0  0  0
 15  1  1  1  0  0  0
 16  2  2  0  0  0  0
 17 21  1  0  0  0  0
 19 20  1  0  0  0  0
 20 15  1  0  0  0  0
 21 15  1  0  0  0  0
 21  3  2  0  0  0  0
 22 26  1  0  0  0  0
 23 27  1  0  0  0  0
 24 23  2  0  0  0  0
 24 25  1  0  0  0  0
 25 22  2  0  0  0  0
 27 26  2  0  0  0  0
M  END
>  <MODEL>
9

>  <REMARK>
 VINA RESULT:      -7.5      2.820      6.055
  Name = 
  1 active torsions:
  status: ('A' for Active; 'I' for Inactive)
    1  A    between atoms: C_9  and  C_15
                            x       y       z     vdW  Elec       q    Type
                         _______ _______ _______ _____ _____    ______ ____

>  <TORSDO>
F 1

$$$$
