=
 OpenBabel11052421333D

 32 35  0  0  1  0  0  0  0  0999 V2000
  188.3060  177.3660  145.2150 C   0  0  1  0  0  3  0  0  0  0  0  0
  189.8820  172.6960  144.5410 C   0  0  0  0  0  3  0  0  0  0  0  0
  189.5770  172.7680  143.1820 C   0  0  0  0  0  3  0  0  0  0  0  0
  187.2200  178.5620  143.2500 C   0  0  1  0  0  3  0  0  0  0  0  0
  186.5250  178.4210  141.8860 C   0  0  1  0  0  3  0  0  0  0  0  0
  189.7130  173.8190  145.3530 C   0  0  0  0  0  3  0  0  0  0  0  0
  189.0730  176.1870  145.6550 N   0  0  0  0  0  0  0  0  0  0  0  0
  188.8980  175.0890  143.4500 C   0  0  0  0  0  0  0  0  0  0  0  0
  188.4680  176.4080  142.8590 C   0  0  1  0  0  3  0  0  0  0  0  0
  189.0980  173.9610  142.6380 C   0  0  0  0  0  3  0  0  0  0  0  0
  189.2260  175.0240  144.8170 C   0  0  0  0  0  0  0  0  0  0  0  0
  187.7330  176.2340  141.5250 C   0  0  0  0  0  2  0  0  0  0  0  0
  186.4180  179.3030  144.1230 O   0  0  0  0  0  1  0  0  0  0  0  0
  186.7610  177.4360  139.6950 O   0  0  0  0  0  1  0  0  0  0  0  0
  187.5930  177.1940  143.8520 C   0  0  1  0  0  3  0  0  0  0  0  0
  187.3930  177.5950  140.9280 C   0  0  1  0  0  3  0  0  0  0  0  0
  184.1770  178.2820  141.0400 O   0  0  0  0  0  0  0  0  0  0  0  0
  184.7710  177.1430  142.9350 O   0  0  0  0  0  1  0  0  0  0  0  0
  185.1130  177.9090  141.9940 C   0  0  0  0  0  0  0  0  0  0  0  0
  189.8380  176.2990  146.8950 C   0  0  0  0  0  2  0  0  0  0  0  0
  192.2540  175.9330  146.8030 C   0  0  0  0  0  3  0  0  0  0  0  0
  191.2280  176.7560  146.6070 C   0  0  0  0  0  3  0  0  0  0  0  0
  193.6550  176.3750  146.5140 C   0  0  0  0  0  2  0  0  0  0  0  0
  193.8210  176.7710  145.0540 C   0  0  0  0  0  2  0  0  0  0  0  0
  193.4310  175.6200  144.1430 C   0  0  0  0  0  2  0  0  0  0  0  0
  192.4930  176.1020  143.0930 C   0  0  0  0  0  0  0  0  0  0  0  0
  192.2800  175.4000  142.0710 O   0  0  0  0  0  0  0  0  0  0  0  0
  191.8810  177.3410  143.2230 O   0  0  0  0  0  1  0  0  0  0  0  0
  187.4330  177.8260  146.2300 O   0  0  0  0  0  0  0  0  0  0  0  0
  186.4510  176.8470  146.4590 C   0  0  0  0  0  3  0  0  0  0  0  0
  185.9170  177.0000  147.8680 C   0  0  0  0  0  2  0  0  0  0  0  0
  185.1170  177.5250  146.6970 C   0  0  0  0  0  2  0  0  0  0  0  0
  1  7  1  0  0  0  0
  1 29  1  1  0  0  0
  2  6  1  0  0  0  0
  3  2  2  0  0  0  0
  4 15  1  0  0  0  0
  4 13  1  1  0  0  0
  5 19  1  1  0  0  0
  5  4  1  0  0  0  0
  7 20  1  0  0  0  0
  8 11  1  0  0  0  0
  9 12  1  6  0  0  0
  9  8  1  0  0  0  0
  9 15  1  0  0  0  0
 10  3  1  0  0  0  0
 10  8  2  0  0  0  0
 11  6  2  0  0  0  0
 11  7  1  0  0  0  0
 14 16  1  0  0  0  0
 15  1  1  0  0  0  0
 16 12  1  0  0  0  0
 16  5  1  0  0  0  0
 17 19  2  0  0  0  0
 19 18  1  0  0  0  0
 22 21  2  0  0  0  0
 22 20  1  0  0  0  0
 23 21  1  0  0  0  0
 24 23  1  0  0  0  0
 25 24  1  0  0  0  0
 26 28  1  0  0  0  0
 26 25  1  0  0  0  0
 27 26  2  0  0  0  0
 29 30  1  0  0  0  0
 30 32  1  0  0  0  0
 30 31  1  0  0  0  0
 32 31  1  0  0  0  0
M  END
>  <MODEL>
1

>  <REMARK>
 VINA RESULT:      -7.0      0.000      0.000
  Name = 
  9 active torsions:
  status: ('A' for Active; 'I' for Inactive)
    1  A    between atoms: C_1  and  C_24
    2  A    between atoms: C_2  and  C_10
    3  A    between atoms: C_2  and  C_12
    4  A    between atoms: C_3  and  O_28
    5  A    between atoms: C_7  and  C_22
    6  A    between atoms: C_8  and  O_28
    7  A    between atoms: C_9  and  N_14
    8  A    between atoms: C_9  and  C_21
    9  A    between atoms: C_10  and  C_24
                            x       y       z     vdW  Elec       q    Type
                         _______ _______ _______ _____ _____    ______ ____

>  <TORSDO>
F 9

$$$$
=
 OpenBabel11052421333D

 32 35  0  0  1  0  0  0  0  0999 V2000
  190.5740  174.9350  145.0820 C   0  0  1  0  0  3  0  0  0  0  0  0
  187.8420  177.9580  142.2280 C   0  0  0  0  0  3  0  0  0  0  0  0
  187.6930  176.9540  141.2720 C   0  0  0  0  0  3  0  0  0  0  0  0
  191.1980  172.6490  144.1560 C   0  0  1  0  0  3  0  0  0  0  0  0
  191.3540  171.7700  142.9050 C   0  0  1  0  0  3  0  0  0  0  0  0
  188.5200  177.6910  143.4190 C   0  0  0  0  0  3  0  0  0  0  0  0
  189.7460  176.1410  144.9030 N   0  0  0  0  0  0  0  0  0  0  0  0
  188.9320  175.4120  142.6890 C   0  0  0  0  0  0  0  0  0  0  0  0
  189.4330  174.0230  142.9940 C   0  0  1  0  0  3  0  0  0  0  0  0
  188.2250  175.6850  141.5060 C   0  0  0  0  0  3  0  0  0  0  0  0
  189.0650  176.4190  143.6630 C   0  0  0  0  0  0  0  0  0  0  0  0
  189.6290  173.1850  141.7240 C   0  0  0  0  0  2  0  0  0  0  0  0
  192.3880  172.6590  144.8880 O   0  0  0  0  0  1  0  0  0  0  0  0
  190.1940  170.9950  140.9350 O   0  0  0  0  0  1  0  0  0  0  0  0
  190.7400  174.0770  143.8040 C   0  0  1  0  0  3  0  0  0  0  0  0
  190.0560  171.7670  142.0880 C   0  0  1  0  0  3  0  0  0  0  0  0
  193.5480  171.1640  141.8720 O   0  0  0  0  0  1  0  0  0  0  0  0
  192.7010  173.2720  141.5870 O   0  0  0  0  0  0  0  0  0  0  0  0
  192.5680  172.1220  142.0850 C   0  0  0  0  0  0  0  0  0  0  0  0
  189.4780  176.9610  146.0820 C   0  0  0  0  0  2  0  0  0  0  0  0
  187.2370  177.5460  146.8690 C   0  0  0  0  0  3  0  0  0  0  0  0
  188.1550  176.6040  146.6720 C   0  0  0  0  0  3  0  0  0  0  0  0
  185.9030  177.2030  147.4550 C   0  0  0  0  0  2  0  0  0  0  0  0
  184.8070  177.2500  146.4000 C   0  0  0  0  0  2  0  0  0  0  0  0
  184.4920  178.6870  146.0240 C   0  0  0  0  0  2  0  0  0  0  0  0
  184.8060  178.9130  144.5870 C   0  0  0  0  0  0  0  0  0  0  0  0
  184.5090  178.0380  143.7330 O   0  0  0  0  0  0  0  0  0  0  0  0
  185.4590  180.0730  144.1930 O   0  0  0  0  0  1  0  0  0  0  0  0
  191.8120  175.2410  145.6960 O   0  0  0  0  0  0  0  0  0  0  0  0
  192.5590  176.0540  144.8260 C   0  0  0  0  0  3  0  0  0  0  0  0
  193.5660  176.8480  145.6300 C   0  0  0  0  0  2  0  0  0  0  0  0
  194.0110  175.6230  144.8630 C   0  0  0  0  0  2  0  0  0  0  0  0
  1 29  1  6  0  0  0
  2  6  1  0  0  0  0
  3 10  1  0  0  0  0
  3  2  2  0  0  0  0
  4 13  1  6  0  0  0
  5 19  1  6  0  0  0
  5  4  1  0  0  0  0
  6 11  2  0  0  0  0
  7  1  1  0  0  0  0
  7 20  1  0  0  0  0
  8  9  1  0  0  0  0
  8 11  1  0  0  0  0
  9 12  1  6  0  0  0
  9 15  1  0  0  0  0
 10  8  2  0  0  0  0
 11  7  1  0  0  0  0
 12 16  1  0  0  0  0
 14 16  1  0  0  0  0
 15  4  1  0  0  0  0
 15  1  1  0  0  0  0
 16  5  1  0  0  0  0
 17 19  1  0  0  0  0
 18 19  2  0  0  0  0
 20 22  1  0  0  0  0
 21 23  1  0  0  0  0
 22 21  2  0  0  0  0
 24 23  1  0  0  0  0
 25 24  1  0  0  0  0
 26 25  1  0  0  0  0
 27 26  2  0  0  0  0
 28 26  1  0  0  0  0
 30 32  1  0  0  0  0
 30 31  1  0  0  0  0
 30 29  1  0  0  0  0
 32 31  1  0  0  0  0
M  END
>  <MODEL>
2

>  <REMARK>
 VINA RESULT:      -6.3      2.006      6.684
  Name = 
  9 active torsions:
  status: ('A' for Active; 'I' for Inactive)
    1  A    between atoms: C_1  and  C_24
    2  A    between atoms: C_2  and  C_10
    3  A    between atoms: C_2  and  C_12
    4  A    between atoms: C_3  and  O_28
    5  A    between atoms: C_7  and  C_22
    6  A    between atoms: C_8  and  O_28
    7  A    between atoms: C_9  and  N_14
    8  A    between atoms: C_9  and  C_21
    9  A    between atoms: C_10  and  C_24
                            x       y       z     vdW  Elec       q    Type
                         _______ _______ _______ _____ _____    ______ ____

>  <TORSDO>
F 9

$$$$
=
 OpenBabel11052421333D

 32 35  0  0  1  0  0  0  0  0999 V2000
  190.8850  175.2380  142.6950 C   0  0  1  0  0  3  0  0  0  0  0  0
  189.8830  175.0550  147.5640 C   0  0  0  0  0  3  0  0  0  0  0  0
  191.2020  175.3880  147.8690 C   0  0  0  0  0  3  0  0  0  0  0  0
  193.2990  175.5980  141.9790 C   0  0  1  0  0  3  0  0  0  0  0  0
  194.7820  175.5300  142.3810 C   0  0  1  0  0  3  0  0  0  0  0  0
  189.4670  175.0060  146.2330 C   0  0  0  0  0  3  0  0  0  0  0  0
  189.9290  175.2460  143.8170 N   0  0  0  0  0  0  0  0  0  0  0  0
  191.7050  175.5930  145.4970 C   0  0  0  0  0  0  0  0  0  0  0  0
  192.6450  175.9790  144.3830 C   0  0  1  0  0  3  0  0  0  0  0  0
  192.1050  175.6670  146.8420 C   0  0  0  0  0  3  0  0  0  0  0  0
  190.3680  175.2780  145.1900 C   0  0  0  0  0  0  0  0  0  0  0  0
  194.1160  175.8530  144.7950 C   0  0  0  0  0  2  0  0  0  0  0  0
  193.0830  174.8540  140.8160 O   0  0  0  0  0  1  0  0  0  0  0  0
  196.3600  176.2550  144.0580 O   0  0  0  0  0  1  0  0  0  0  0  0
  192.3710  175.1430  143.1210 C   0  0  1  0  0  3  0  0  0  0  0  0
  195.0230  176.3320  143.6670 C   0  0  1  0  0  3  0  0  0  0  0  0
  196.3250  173.7270  141.5980 O   0  0  0  0  0  0  0  0  0  0  0  0
  194.8420  173.2980  143.2880 O   0  0  0  0  0  1  0  0  0  0  0  0
  195.3080  174.1210  142.4550 C   0  0  0  0  0  0  0  0  0  0  0  0
  188.5130  175.4120  143.5000 C   0  0  0  0  0  2  0  0  0  0  0  0
  187.0320  177.2010  142.7330 C   0  0  0  0  0  3  0  0  0  0  0  0
  188.1990  176.8520  143.2660 C   0  0  0  0  0  3  0  0  0  0  0  0
  186.6990  178.6410  142.4970 C   0  0  0  0  0  2  0  0  0  0  0  0
  185.3460  179.0030  143.0920 C   0  0  0  0  0  2  0  0  0  0  0  0
  185.5250  179.8150  144.3630 C   0  0  0  0  0  2  0  0  0  0  0  0
  185.1940  178.9770  145.5480 C   0  0  0  0  0  0  0  0  0  0  0  0
  183.9930  178.8070  145.8830 O   0  0  0  0  0  0  0  0  0  0  0  0
  186.2110  178.4130  146.3060 O   0  0  0  0  0  1  0  0  0  0  0  0
  190.5360  174.2700  141.7230 O   0  0  0  0  0  0  0  0  0  0  0  0
  190.7270  172.9900  142.2700 C   0  0  0  0  0  3  0  0  0  0  0  0
  189.5010  172.1440  141.9940 C   0  0  0  0  0  2  0  0  0  0  0  0
  190.7460  171.9670  141.1530 C   0  0  0  0  0  2  0  0  0  0  0  0
  1 29  1  6  0  0  0
  1 15  1  0  0  0  0
  1  7  1  0  0  0  0
  2  3  1  0  0  0  0
  4 13  1  6  0  0  0
  4  5  1  0  0  0  0
  4 15  1  0  0  0  0
  5 19  1  1  0  0  0
  5 16  1  0  0  0  0
  6  2  2  0  0  0  0
  7 11  1  0  0  0  0
  8 10  1  0  0  0  0
  9 12  1  1  0  0  0
  9  8  1  0  0  0  0
 10  3  2  0  0  0  0
 11  8  2  0  0  0  0
 11  6  1  0  0  0  0
 15  9  1  0  0  0  0
 16 14  1  0  0  0  0
 16 12  1  0  0  0  0
 17 19  2  0  0  0  0
 19 18  1  0  0  0  0
 20  7  1  0  0  0  0
 21 22  2  0  0  0  0
 22 20  1  0  0  0  0
 23 21  1  0  0  0  0
 23 24  1  0  0  0  0
 24 25  1  0  0  0  0
 25 26  1  0  0  0  0
 26 27  2  0  0  0  0
 26 28  1  0  0  0  0
 29 30  1  0  0  0  0
 31 30  1  0  0  0  0
 32 31  1  0  0  0  0
 32 30  1  0  0  0  0
M  END
>  <MODEL>
3

>  <REMARK>
 VINA RESULT:      -6.2      2.187      7.435
  Name = 
  9 active torsions:
  status: ('A' for Active; 'I' for Inactive)
    1  A    between atoms: C_1  and  C_24
    2  A    between atoms: C_2  and  C_10
    3  A    between atoms: C_2  and  C_12
    4  A    between atoms: C_3  and  O_28
    5  A    between atoms: C_7  and  C_22
    6  A    between atoms: C_8  and  O_28
    7  A    between atoms: C_9  and  N_14
    8  A    between atoms: C_9  and  C_21
    9  A    between atoms: C_10  and  C_24
                            x       y       z     vdW  Elec       q    Type
                         _______ _______ _______ _____ _____    ______ ____

>  <TORSDO>
F 9

$$$$
=
 OpenBabel11052421333D

 32 35  0  0  1  0  0  0  0  0999 V2000
  190.8520  175.2910  142.7050 C   0  0  1  0  0  3  0  0  0  0  0  0
  189.8390  175.0330  147.5690 C   0  0  0  0  0  3  0  0  0  0  0  0
  191.1680  175.3140  147.8820 C   0  0  0  0  0  3  0  0  0  0  0  0
  193.2780  175.5850  141.9990 C   0  0  1  0  0  3  0  0  0  0  0  0
  194.7570  175.4580  142.4000 C   0  0  1  0  0  3  0  0  0  0  0  0
  189.4230  175.0280  146.2370 C   0  0  0  0  0  3  0  0  0  0  0  0
  189.8960  175.3070  143.8270 N   0  0  0  0  0  0  0  0  0  0  0  0
  191.6800  175.5560  145.5150 C   0  0  0  0  0  0  0  0  0  0  0  0
  192.6340  175.9340  144.4100 C   0  0  1  0  0  3  0  0  0  0  0  0
  192.0820  175.5850  146.8610 C   0  0  0  0  0  3  0  0  0  0  0  0
  190.3340  175.2930  145.2000 C   0  0  0  0  0  0  0  0  0  0  0  0
  194.1000  175.7490  144.8200 C   0  0  0  0  0  2  0  0  0  0  0  0
  193.0380  174.8760  140.8190 O   0  0  0  0  0  1  0  0  0  0  0  0
  196.3570  176.0910  144.0930 O   0  0  0  0  0  1  0  0  0  0  0  0
  192.3330  175.1360  143.1290 C   0  0  1  0  0  3  0  0  0  0  0  0
  195.0240  176.2220  143.7030 C   0  0  1  0  0  3  0  0  0  0  0  0
  196.2950  173.6420  141.6360 O   0  0  0  0  0  0  0  0  0  0  0  0
  194.6900  173.1870  143.2030 O   0  0  0  0  0  1  0  0  0  0  0  0
  195.2350  174.0300  142.4420 C   0  0  0  0  0  0  0  0  0  0  0  0
  188.4860  175.5280  143.5140 C   0  0  0  0  0  2  0  0  0  0  0  0
  186.8570  177.2430  144.1370 C   0  0  0  0  0  3  0  0  0  0  0  0
  188.1080  176.9430  143.7980 C   0  0  0  0  0  3  0  0  0  0  0  0
  186.4620  178.6570  144.4300 C   0  0  0  0  0  2  0  0  0  0  0  0
  185.5840  179.2270  143.3270 C   0  0  0  0  0  2  0  0  0  0  0  0
  184.8210  178.1170  142.6260 C   0  0  0  0  0  2  0  0  0  0  0  0
  185.0200  178.2170  141.1550 C   0  0  0  0  0  0  0  0  0  0  0  0
  184.0830  178.6240  140.4200 O   0  0  0  0  0  0  0  0  0  0  0  0
  186.2260  177.8270  140.5890 O   0  0  0  0  0  1  0  0  0  0  0  0
  190.4710  174.3590  141.7120 O   0  0  0  0  0  0  0  0  0  0  0  0
  190.6220  173.0600  142.2280 C   0  0  0  0  0  3  0  0  0  0  0  0
  189.3630  172.2660  141.9510 C   0  0  0  0  0  2  0  0  0  0  0  0
  190.5880  172.0620  141.0900 C   0  0  0  0  0  2  0  0  0  0  0  0
  1 29  1  6  0  0  0
  1 15  1  0  0  0  0
  1  7  1  0  0  0  0
  2  3  1  0  0  0  0
  4 13  1  6  0  0  0
  4  5  1  0  0  0  0
  4 15  1  0  0  0  0
  5 19  1  1  0  0  0
  5 16  1  0  0  0  0
  6  2  2  0  0  0  0
  7 11  1  0  0  0  0
  8 10  1  0  0  0  0
  9 12  1  1  0  0  0
  9  8  1  0  0  0  0
 10  3  2  0  0  0  0
 11  8  2  0  0  0  0
 11  6  1  0  0  0  0
 15  9  1  0  0  0  0
 16 14  1  0  0  0  0
 16 12  1  0  0  0  0
 17 19  2  0  0  0  0
 19 18  1  0  0  0  0
 20 22  1  0  0  0  0
 20  7  1  0  0  0  0
 21 23  1  0  0  0  0
 22 21  2  0  0  0  0
 24 23  1  0  0  0  0
 25 24  1  0  0  0  0
 26 25  1  0  0  0  0
 27 26  2  0  0  0  0
 28 26  1  0  0  0  0
 29 30  1  0  0  0  0
 31 30  1  0  0  0  0
 32 31  1  0  0  0  0
 32 30  1  0  0  0  0
M  END
>  <MODEL>
4

>  <REMARK>
 VINA RESULT:      -6.1      2.187      7.326
  Name = 
  9 active torsions:
  status: ('A' for Active; 'I' for Inactive)
    1  A    between atoms: C_1  and  C_24
    2  A    between atoms: C_2  and  C_10
    3  A    between atoms: C_2  and  C_12
    4  A    between atoms: C_3  and  O_28
    5  A    between atoms: C_7  and  C_22
    6  A    between atoms: C_8  and  O_28
    7  A    between atoms: C_9  and  N_14
    8  A    between atoms: C_9  and  C_21
    9  A    between atoms: C_10  and  C_24
                            x       y       z     vdW  Elec       q    Type
                         _______ _______ _______ _____ _____    ______ ____

>  <TORSDO>
F 9

$$$$
=
 OpenBabel11052421333D

 32 35  0  0  1  0  0  0  0  0999 V2000
  188.5130  177.7770  143.2890 C   0  0  1  0  0  3  0  0  0  0  0  0
  184.4310  177.8320  146.1340 C   0  0  0  0  0  3  0  0  0  0  0  0
  185.1870  177.5040  147.2590 C   0  0  0  0  0  3  0  0  0  0  0  0
  190.7000  177.0200  144.3430 C   0  0  1  0  0  3  0  0  0  0  0  0
  191.3740  176.2560  145.4960 C   0  0  1  0  0  3  0  0  0  0  0  0
  185.0650  178.0470  144.9090 C   0  0  0  0  0  3  0  0  0  0  0  0
  187.1120  178.1690  143.5290 N   0  0  0  0  0  0  0  0  0  0  0  0
  187.2190  177.5740  145.9230 C   0  0  0  0  0  0  0  0  0  0  0  0
  188.7230  177.5380  145.8180 C   0  0  1  0  0  3  0  0  0  0  0  0
  186.5740  177.3870  147.1570 C   0  0  0  0  0  3  0  0  0  0  0  0
  186.4600  177.9260  144.7920 C   0  0  0  0  0  0  0  0  0  0  0  0
  189.3660  176.7280  146.9500 C   0  0  0  0  0  2  0  0  0  0  0  0
  191.1390  176.5190  143.1150 O   0  0  0  0  0  1  0  0  0  0  0  0
  191.4680  176.0870  147.9020 O   0  0  0  0  0  1  0  0  0  0  0  0
  189.1640  176.9870  144.4510 C   0  0  1  0  0  3  0  0  0  0  0  0
  190.8850  176.7910  146.8480 C   0  0  1  0  0  3  0  0  0  0  0  0
  189.9830  174.1970  145.2260 O   0  0  0  0  0  0  0  0  0  0  0  0
  192.2600  174.0190  145.3820 O   0  0  0  0  0  1  0  0  0  0  0  0
  191.2430  174.7620  145.3680 C   0  0  0  0  0  0  0  0  0  0  0  0
  186.4520  178.9840  142.5130 C   0  0  0  0  0  2  0  0  0  0  0  0
  184.4180  178.3980  141.2870 C   0  0  0  0  0  3  0  0  0  0  0  0
  185.6880  178.1180  141.5690 C   0  0  0  0  0  3  0  0  0  0  0  0
  183.6390  177.5420  140.3380 C   0  0  0  0  0  2  0  0  0  0  0  0
  182.1760  177.9590  140.2890 C   0  0  0  0  0  2  0  0  0  0  0  0
  181.7370  178.5170  141.6310 C   0  0  0  0  0  2  0  0  0  0  0  0
  180.2560  178.6520  141.6610 C   0  0  0  0  0  0  0  0  0  0  0  0
  179.7230  179.7770  141.4800 O   0  0  0  0  0  0  0  0  0  0  0  0
  179.4620  177.5440  141.9260 O   0  0  0  0  0  1  0  0  0  0  0  0
  188.6640  177.1300  142.0400 O   0  0  0  0  0  0  0  0  0  0  0  0
  188.0790  175.8540  142.1180 C   0  0  0  0  0  3  0  0  0  0  0  0
  187.8100  175.3450  140.7180 C   0  0  0  0  0  2  0  0  0  0  0  0
  189.0090  174.8390  141.4870 C   0  0  0  0  0  2  0  0  0  0  0  0
  1 29  1  6  0  0  0
  1  7  1  0  0  0  0
  1 15  1  0  0  0  0
  2  3  1  0  0  0  0
  4 13  1  6  0  0  0
  4 15  1  0  0  0  0
  4  5  1  0  0  0  0
  5 19  1  6  0  0  0
  5 16  1  0  0  0  0
  6  2  2  0  0  0  0
  7 11  1  0  0  0  0
  8 10  1  0  0  0  0
  9  8  1  0  0  0  0
  9 12  1  1  0  0  0
 10  3  2  0  0  0  0
 11  6  1  0  0  0  0
 11  8  2  0  0  0  0
 15  9  1  0  0  0  0
 16 12  1  0  0  0  0
 16 14  1  0  0  0  0
 17 19  2  0  0  0  0
 19 18  1  0  0  0  0
 20  7  1  0  0  0  0
 21 22  2  0  0  0  0
 22 20  1  0  0  0  0
 23 21  1  0  0  0  0
 24 23  1  0  0  0  0
 24 25  1  0  0  0  0
 25 26  1  0  0  0  0
 26 28  1  0  0  0  0
 27 26  2  0  0  0  0
 29 30  1  0  0  0  0
 31 32  1  0  0  0  0
 31 30  1  0  0  0  0
 32 30  1  0  0  0  0
M  END
>  <MODEL>
5

>  <REMARK>
 VINA RESULT:      -6.1      2.522      7.903
  Name = 
  9 active torsions:
  status: ('A' for Active; 'I' for Inactive)
    1  A    between atoms: C_1  and  C_24
    2  A    between atoms: C_2  and  C_10
    3  A    between atoms: C_2  and  C_12
    4  A    between atoms: C_3  and  O_28
    5  A    between atoms: C_7  and  C_22
    6  A    between atoms: C_8  and  O_28
    7  A    between atoms: C_9  and  N_14
    8  A    between atoms: C_9  and  C_21
    9  A    between atoms: C_10  and  C_24
                            x       y       z     vdW  Elec       q    Type
                         _______ _______ _______ _____ _____    ______ ____

>  <TORSDO>
F 9

$$$$
=
 OpenBabel11052421333D

 32 35  0  0  1  0  0  0  0  0999 V2000
  189.9780  176.0450  144.1950 C   0  0  1  0  0  3  0  0  0  0  0  0
  190.5140  171.7000  141.8320 C   0  0  0  0  0  3  0  0  0  0  0  0
  189.6790  172.1330  140.8030 C   0  0  0  0  0  3  0  0  0  0  0  0
  188.3300  177.7330  143.2440 C   0  0  1  0  0  3  0  0  0  0  0  0
  187.1150  177.9670  142.3310 C   0  0  1  0  0  3  0  0  0  0  0  0
  190.8460  172.5690  142.8720 C   0  0  0  0  0  3  0  0  0  0  0  0
  190.7010  174.7810  143.9660 N   0  0  0  0  0  0  0  0  0  0  0  0
  189.4780  174.3090  141.8740 C   0  0  0  0  0  0  0  0  0  0  0  0
  189.0120  175.7430  141.8560 C   0  0  1  0  0  3  0  0  0  0  0  0
  189.1730  173.4340  140.8180 C   0  0  0  0  0  3  0  0  0  0  0  0
  190.3380  173.8790  142.9010 C   0  0  0  0  0  0  0  0  0  0  0  0
  187.7700  175.9390  140.9790 C   0  0  0  0  0  2  0  0  0  0  0  0
  188.0700  178.2270  144.5250 O   0  0  0  0  0  1  0  0  0  0  0  0
  186.2820  177.5960  140.0960 O   0  0  0  0  0  1  0  0  0  0  0  0
  188.7430  176.2500  143.2840 C   0  0  1  0  0  3  0  0  0  0  0  0
  187.3880  177.4140  140.9260 C   0  0  1  0  0  3  0  0  0  0  0  0
  184.7300  178.3130  142.9940 O   0  0  0  0  0  0  0  0  0  0  0  0
  185.7270  176.2840  143.3540 O   0  0  0  0  0  1  0  0  0  0  0  0
  185.8260  177.4650  142.9250 C   0  0  0  0  0  0  0  0  0  0  0  0
  191.9220  174.5500  144.7340 C   0  0  0  0  0  2  0  0  0  0  0  0
  194.1180  175.5890  145.0160 C   0  0  0  0  0  3  0  0  0  0  0  0
  192.9770  175.5250  144.3340 C   0  0  0  0  0  3  0  0  0  0  0  0
  195.1890  176.5590  144.6240 C   0  0  0  0  0  2  0  0  0  0  0  0
  196.2860  175.8780  143.8190 C   0  0  0  0  0  2  0  0  0  0  0  0
  196.8210  176.8140  142.7500 C   0  0  0  0  0  2  0  0  0  0  0  0
  196.1960  176.4930  141.4380 C   0  0  0  0  0  0  0  0  0  0  0  0
  196.9110  176.1000  140.4810 O   0  0  0  0  0  0  0  0  0  0  0  0
  194.8290  176.6610  141.2600 O   0  0  0  0  0  1  0  0  0  0  0  0
  189.6770  176.2310  145.5660 O   0  0  0  0  0  0  0  0  0  0  0  0
  188.7360  175.2630  145.9580 C   0  0  0  0  0  3  0  0  0  0  0  0
  189.1350  174.7000  147.3050 C   0  0  0  0  0  2  0  0  0  0  0  0
  188.0330  175.7310  147.2150 C   0  0  0  0  0  2  0  0  0  0  0  0
  1 29  1  1  0  0  0
  2  6  1  0  0  0  0
  3 10  1  0  0  0  0
  3  2  2  0  0  0  0
  4 15  1  0  0  0  0
  4 13  1  1  0  0  0
  5 19  1  1  0  0  0
  5  4  1  0  0  0  0
  6 11  2  0  0  0  0
  7  1  1  0  0  0  0
  7 20  1  0  0  0  0
  8 11  1  0  0  0  0
  9 12  1  6  0  0  0
  9  8  1  0  0  0  0
  9 15  1  0  0  0  0
 10  8  2  0  0  0  0
 11  7  1  0  0  0  0
 14 16  1  0  0  0  0
 15  1  1  0  0  0  0
 16 12  1  0  0  0  0
 16  5  1  0  0  0  0
 19 17  2  0  0  0  0
 19 18  1  0  0  0  0
 22 20  1  0  0  0  0
 22 21  2  0  0  0  0
 23 21  1  0  0  0  0
 24 23  1  0  0  0  0
 25 24  1  0  0  0  0
 26 25  1  0  0  0  0
 27 26  2  0  0  0  0
 28 26  1  0  0  0  0
 29 30  1  0  0  0  0
 30 32  1  0  0  0  0
 30 31  1  0  0  0  0
 32 31  1  0  0  0  0
M  END
>  <MODEL>
6

>  <REMARK>
 VINA RESULT:      -5.9      2.059      2.653
  Name = 
  9 active torsions:
  status: ('A' for Active; 'I' for Inactive)
    1  A    between atoms: C_1  and  C_24
    2  A    between atoms: C_2  and  C_10
    3  A    between atoms: C_2  and  C_12
    4  A    between atoms: C_3  and  O_28
    5  A    between atoms: C_7  and  C_22
    6  A    between atoms: C_8  and  O_28
    7  A    between atoms: C_9  and  N_14
    8  A    between atoms: C_9  and  C_21
    9  A    between atoms: C_10  and  C_24
                            x       y       z     vdW  Elec       q    Type
                         _______ _______ _______ _____ _____    ______ ____

>  <TORSDO>
F 9

$$$$
=
 OpenBabel11052421333D

 32 35  0  0  1  0  0  0  0  0999 V2000
  191.2360  175.6850  142.9030 C   0  0  1  0  0  3  0  0  0  0  0  0
  189.7060  177.5300  147.2620 C   0  0  0  0  0  3  0  0  0  0  0  0
  190.8170  176.9870  147.9060 C   0  0  0  0  0  3  0  0  0  0  0  0
  193.2800  174.1690  142.8920 C   0  0  1  0  0  3  0  0  0  0  0  0
  194.2100  173.2630  143.7150 C   0  0  1  0  0  3  0  0  0  0  0  0
  189.5720  177.4060  145.8780 C   0  0  0  0  0  3  0  0  0  0  0  0
  190.4130  176.6190  143.6910 N   0  0  0  0  0  0  0  0  0  0  0  0
  191.6550  176.1610  145.7750 C   0  0  0  0  0  0  0  0  0  0  0  0
  192.7420  175.5180  144.9530 C   0  0  1  0  0  3  0  0  0  0  0  0
  191.7920  176.3160  147.1650 C   0  0  0  0  0  3  0  0  0  0  0  0
  190.5440  176.7270  145.1230 C   0  0  0  0  0  0  0  0  0  0  0  0
  193.6230  174.5800  145.7860 C   0  0  0  0  0  2  0  0  0  0  0  0
  192.7760  173.4690  141.7930 O   0  0  0  0  0  1  0  0  0  0  0  0
  195.5790  173.2000  145.7020 O   0  0  0  0  0  1  0  0  0  0  0  0
  192.1470  174.7630  143.7510 C   0  0  1  0  0  3  0  0  0  0  0  0
  194.7550  174.0210  144.9320 C   0  0  1  0  0  3  0  0  0  0  0  0
  194.2540  170.7650  143.7820 O   0  0  0  0  0  0  0  0  0  0  0  0
  192.4550  171.8930  144.6370 O   0  0  0  0  0  1  0  0  0  0  0  0
  193.5800  171.9420  144.0730 C   0  0  0  0  0  0  0  0  0  0  0  0
  189.5850  177.5750  142.9600 C   0  0  0  0  0  2  0  0  0  0  0  0
  187.2560  178.3240  142.9340 C   0  0  0  0  0  3  0  0  0  0  0  0
  188.1600  177.4570  143.3850 C   0  0  0  0  0  3  0  0  0  0  0  0
  185.8210  178.2160  143.3460 C   0  0  0  0  0  2  0  0  0  0  0  0
  185.4150  179.3730  144.2470 C   0  0  0  0  0  2  0  0  0  0  0  0
  185.9110  179.1440  145.6640 C   0  0  0  0  0  2  0  0  0  0  0  0
  185.2840  177.9180  146.2270 C   0  0  0  0  0  0  0  0  0  0  0  0
  184.0610  177.9160  146.5230 O   0  0  0  0  0  1  0  0  0  0  0  0
  186.0550  176.7880  146.4600 O   0  0  0  0  0  0  0  0  0  0  0  0
  190.4550  174.9650  141.9680 O   0  0  0  0  0  0  0  0  0  0  0  0
  189.6300  174.0660  142.6660 C   0  0  0  0  0  3  0  0  0  0  0  0
  188.2630  174.0390  142.0140 C   0  0  0  0  0  2  0  0  0  0  0  0
  189.2480  172.9230  141.7480 C   0  0  0  0  0  2  0  0  0  0  0  0
  1 29  1  1  0  0  0
  1  7  1  0  0  0  0
  1 15  1  0  0  0  0
  2  3  1  0  0  0  0
  4 13  1  6  0  0  0
  4  5  1  0  0  0  0
  4 15  1  0  0  0  0
  5 19  1  1  0  0  0
  5 16  1  0  0  0  0
  6  2  2  0  0  0  0
  7 11  1  0  0  0  0
  8 10  1  0  0  0  0
  9  8  1  0  0  0  0
  9 12  1  1  0  0  0
 10  3  2  0  0  0  0
 11  8  2  0  0  0  0
 11  6  1  0  0  0  0
 15  9  1  0  0  0  0
 16 14  1  0  0  0  0
 16 12  1  0  0  0  0
 17 19  2  0  0  0  0
 19 18  1  0  0  0  0
 20 22  1  0  0  0  0
 20  7  1  0  0  0  0
 21 23  1  0  0  0  0
 21 22  2  0  0  0  0
 23 24  1  0  0  0  0
 24 25  1  0  0  0  0
 25 26  1  0  0  0  0
 26 28  2  0  0  0  0
 26 27  1  0  0  0  0
 29 30  1  0  0  0  0
 31 30  1  0  0  0  0
 32 31  1  0  0  0  0
 32 30  1  0  0  0  0
M  END
>  <MODEL>
7

>  <REMARK>
 VINA RESULT:      -5.9      2.305      7.421
  Name = 
  9 active torsions:
  status: ('A' for Active; 'I' for Inactive)
    1  A    between atoms: C_1  and  C_24
    2  A    between atoms: C_2  and  C_10
    3  A    between atoms: C_2  and  C_12
    4  A    between atoms: C_3  and  O_28
    5  A    between atoms: C_7  and  C_22
    6  A    between atoms: C_8  and  O_28
    7  A    between atoms: C_9  and  N_14
    8  A    between atoms: C_9  and  C_21
    9  A    between atoms: C_10  and  C_24
                            x       y       z     vdW  Elec       q    Type
                         _______ _______ _______ _____ _____    ______ ____

>  <TORSDO>
F 9

$$$$
=
 OpenBabel11052421333D

 32 35  0  0  1  0  0  0  0  0999 V2000
  192.1610  175.7320  145.8880 C   0  0  1  0  0  3  0  0  0  0  0  0
  190.2840  171.5390  143.9780 C   0  0  0  0  0  3  0  0  0  0  0  0
  191.5640  171.0870  143.6600 C   0  0  0  0  0  3  0  0  0  0  0  0
  194.6600  176.1450  145.6500 C   0  0  1  0  0  3  0  0  0  0  0  0
  195.9540  175.7910  144.9000 C   0  0  1  0  0  3  0  0  0  0  0  0
  190.1210  172.7460  144.6600 C   0  0  0  0  0  3  0  0  0  0  0  0
  191.0650  174.7570  145.7440 N   0  0  0  0  0  0  0  0  0  0  0  0
  192.5270  173.0740  144.6820 C   0  0  0  0  0  0  0  0  0  0  0  0
  193.7250  173.8580  145.1550 C   0  0  1  0  0  3  0  0  0  0  0  0
  192.6800  171.8440  144.0200 C   0  0  0  0  0  3  0  0  0  0  0  0
  191.2370  173.5210  145.0220 C   0  0  0  0  0  0  0  0  0  0  0  0
  194.9900  173.5230  144.3560 C   0  0  0  0  0  2  0  0  0  0  0  0
  194.4450  177.5260  145.6130 O   0  0  0  0  0  1  0  0  0  0  0  0
  197.3460  173.9380  144.2220 O   0  0  0  0  0  1  0  0  0  0  0  0
  193.4460  175.3700  145.1030 C   0  0  1  0  0  3  0  0  0  0  0  0
  196.1880  174.2750  144.9240 C   0  0  1  0  0  3  0  0  0  0  0  0
  197.0920  177.1650  143.1490 O   0  0  0  0  0  1  0  0  0  0  0  0
  195.0920  176.1560  142.6790 O   0  0  0  0  0  0  0  0  0  0  0  0
  196.0100  176.3770  143.5130 C   0  0  0  0  0  0  0  0  0  0  0  0
  189.8470  174.9880  146.5160 C   0  0  0  0  0  2  0  0  0  0  0  0
  187.9070  176.4220  146.1120 C   0  0  0  0  0  3  0  0  0  0  0  0
  188.7710  175.5290  145.6360 C   0  0  0  0  0  3  0  0  0  0  0  0
  186.8250  176.9790  145.2400 C   0  0  0  0  0  2  0  0  0  0  0  0
  185.6210  177.4140  146.0620 C   0  0  0  0  0  2  0  0  0  0  0  0
  185.4970  178.9280  146.0640 C   0  0  0  0  0  2  0  0  0  0  0  0
  184.8570  179.3840  144.8000 C   0  0  0  0  0  0  0  0  0  0  0  0
  183.6800  179.0340  144.5290 O   0  0  0  0  0  1  0  0  0  0  0  0
  185.5710  180.1660  143.9030 O   0  0  0  0  0  0  0  0  0  0  0  0
  191.7200  177.0510  145.6280 O   0  0  0  0  0  0  0  0  0  0  0  0
  191.5250  177.1990  144.2440 C   0  0  0  0  0  3  0  0  0  0  0  0
  190.2330  177.9490  144.0010 C   0  0  0  0  0  2  0  0  0  0  0  0
  191.5570  178.6710  143.8890 C   0  0  0  0  0  2  0  0  0  0  0  0
  1 29  1  6  0  0  0
  2  6  1  0  0  0  0
  3  2  2  0  0  0  0
  3 10  1  0  0  0  0
  4 13  1  6  0  0  0
  5 19  1  6  0  0  0
  5 16  1  0  0  0  0
  5  4  1  0  0  0  0
  6 11  2  0  0  0  0
  7  1  1  0  0  0  0
  7 20  1  0  0  0  0
  8 11  1  0  0  0  0
  8  9  1  0  0  0  0
  9 12  1  6  0  0  0
 10  8  2  0  0  0  0
 11  7  1  0  0  0  0
 12 16  1  0  0  0  0
 14 16  1  0  0  0  0
 15  9  1  0  0  0  0
 15  4  1  0  0  0  0
 15  1  1  0  0  0  0
 17 19  1  0  0  0  0
 18 19  2  0  0  0  0
 22 21  2  0  0  0  0
 22 20  1  0  0  0  0
 23 24  1  0  0  0  0
 23 21  1  0  0  0  0
 24 25  1  0  0  0  0
 26 25  1  0  0  0  0
 27 26  1  0  0  0  0
 28 26  2  0  0  0  0
 30 29  1  0  0  0  0
 31 30  1  0  0  0  0
 32 31  1  0  0  0  0
 32 30  1  0  0  0  0
M  END
>  <MODEL>
8

>  <REMARK>
 VINA RESULT:      -5.8      2.496      7.274
  Name = 
  9 active torsions:
  status: ('A' for Active; 'I' for Inactive)
    1  A    between atoms: C_1  and  C_24
    2  A    between atoms: C_2  and  C_10
    3  A    between atoms: C_2  and  C_12
    4  A    between atoms: C_3  and  O_28
    5  A    between atoms: C_7  and  C_22
    6  A    between atoms: C_8  and  O_28
    7  A    between atoms: C_9  and  N_14
    8  A    between atoms: C_9  and  C_21
    9  A    between atoms: C_10  and  C_24
                            x       y       z     vdW  Elec       q    Type
                         _______ _______ _______ _____ _____    ______ ____

>  <TORSDO>
F 9

$$$$
=
 OpenBabel11052421333D

 32 35  0  0  1  0  0  0  0  0999 V2000
  189.6570  174.2420  143.4870 C   0  0  1  0  0  3  0  0  0  0  0  0
  191.5160  176.3780  147.5780 C   0  0  0  0  0  3  0  0  0  0  0  0
  190.4430  177.2680  147.6250 C   0  0  0  0  0  3  0  0  0  0  0  0
  187.5950  175.2820  142.4210 C   0  0  1  0  0  3  0  0  0  0  0  0
  186.7110  176.5320  142.2890 C   0  0  1  0  0  3  0  0  0  0  0  0
  191.5500  175.3810  146.6020 C   0  0  0  0  0  3  0  0  0  0  0  0
  190.5480  174.2240  144.6620 N   0  0  0  0  0  0  0  0  0  0  0  0
  189.4470  176.1800  145.6890 C   0  0  0  0  0  0  0  0  0  0  0  0
  188.2950  175.9990  144.7340 C   0  0  1  0  0  3  0  0  0  0  0  0
  189.4090  177.1630  146.6930 C   0  0  0  0  0  3  0  0  0  0  0  0
  190.5180  175.2680  145.6550 C   0  0  0  0  0  0  0  0  0  0  0  0
  187.4600  177.2750  144.5810 C   0  0  0  0  0  2  0  0  0  0  0  0
  188.0110  174.8520  141.1580 O   0  0  0  0  0  1  0  0  0  0  0  0
  185.4820  178.1700  143.5690 O   0  0  0  0  0  1  0  0  0  0  0  0
  188.7940  175.5200  143.3590 C   0  0  1  0  0  3  0  0  0  0  0  0
  186.2630  177.0180  143.6730 C   0  0  1  0  0  3  0  0  0  0  0  0
  186.8190  177.9100  140.2060 O   0  0  0  0  0  0  0  0  0  0  0  0
  188.3370  178.2640  141.8830 O   0  0  0  0  0  1  0  0  0  0  0  0
  187.3430  177.6170  141.4570 C   0  0  0  0  0  0  0  0  0  0  0  0
  191.3380  173.0170  144.8950 C   0  0  0  0  0  2  0  0  0  0  0  0
  193.7290  172.8730  145.3880 C   0  0  0  0  0  3  0  0  0  0  0  0
  192.7690  173.2600  144.5530 C   0  0  0  0  0  3  0  0  0  0  0  0
  195.1700  173.1040  145.0560 C   0  0  0  0  0  2  0  0  0  0  0  0
  195.6660  174.4250  145.6270 C   0  0  0  0  0  2  0  0  0  0  0  0
  196.4020  175.2220  144.5650 C   0  0  0  0  0  2  0  0  0  0  0  0
  195.4380  176.0650  143.8070 C   0  0  0  0  0  0  0  0  0  0  0  0
  194.3620  176.4300  144.3460 O   0  0  0  0  0  1  0  0  0  0  0  0
  195.7090  176.4190  142.4920 O   0  0  0  0  0  0  0  0  0  0  0  0
  190.3610  173.9390  142.2970 O   0  0  0  0  0  0  0  0  0  0  0  0
  190.1360  172.5910  141.9690 C   0  0  0  0  0  3  0  0  0  0  0  0
  190.2020  172.4290  140.4650 C   0  0  0  0  0  2  0  0  0  0  0  0
  191.3800  172.0210  141.3200 C   0  0  0  0  0  2  0  0  0  0  0  0
  1 29  1  6  0  0  0
  1  7  1  0  0  0  0
  2  3  1  0  0  0  0
  4 13  1  6  0  0  0
  4 15  1  0  0  0  0
  5 19  1  1  0  0  0
  5  4  1  0  0  0  0
  5 16  1  0  0  0  0
  6  2  2  0  0  0  0
  7 20  1  0  0  0  0
  7 11  1  0  0  0  0
  8 10  1  0  0  0  0
  9 12  1  6  0  0  0
  9  8  1  0  0  0  0
 10  3  2  0  0  0  0
 11  8  2  0  0  0  0
 11  6  1  0  0  0  0
 14 16  1  0  0  0  0
 15  1  1  0  0  0  0
 15  9  1  0  0  0  0
 16 12  1  0  0  0  0
 17 19  2  0  0  0  0
 19 18  1  0  0  0  0
 22 20  1  0  0  0  0
 22 21  2  0  0  0  0
 23 21  1  0  0  0  0
 23 24  1  0  0  0  0
 25 24  1  0  0  0  0
 26 27  1  0  0  0  0
 26 25  1  0  0  0  0
 28 26  2  0  0  0  0
 30 29  1  0  0  0  0
 31 32  1  0  0  0  0
 31 30  1  0  0  0  0
 32 30  1  0  0  0  0
M  END
>  <MODEL>
9

>  <REMARK>
 VINA RESULT:      -5.6      2.092      4.517
  Name = 
  9 active torsions:
  status: ('A' for Active; 'I' for Inactive)
    1  A    between atoms: C_1  and  C_24
    2  A    between atoms: C_2  and  C_10
    3  A    between atoms: C_2  and  C_12
    4  A    between atoms: C_3  and  O_28
    5  A    between atoms: C_7  and  C_22
    6  A    between atoms: C_8  and  O_28
    7  A    between atoms: C_9  and  N_14
    8  A    between atoms: C_9  and  C_21
    9  A    between atoms: C_10  and  C_24
                            x       y       z     vdW  Elec       q    Type
                         _______ _______ _______ _____ _____    ______ ____

>  <TORSDO>
F 9

$$$$
