=
 OpenBabel11052417383D

 25 28  0  0  1  0  0  0  0  0999 V2000
  187.8650  177.2850  144.9500 C   0  0  0  0  0  0  0  0  0  0  0  0
  187.1320  178.0770  143.8980 C   0  0  1  0  0  3  0  0  0  0  0  0
  185.6730  176.8200  146.1970 C   0  0  0  0  0  2  0  0  0  0  0  0
  189.1710  177.1760  145.1730 C   0  0  0  0  0  0  0  0  0  0  0  0
  186.9060  176.9400  141.5950 C   0  0  1  0  0  3  0  0  0  0  0  0
  185.1700  177.9520  145.4100 N   0  0  0  0  0  2  0  0  0  0  0  0
  189.4010  176.4990  146.5010 C   0  0  1  0  0  3  0  0  0  0  0  0
  190.0690  177.3680  147.3650 O   0  0  0  0  0  1  0  0  0  0  0  0
  184.8600  178.6440  143.0620 N   0  0  0  0  0  0  0  0  0  0  0  0
  183.5530  179.0250  143.5880 C   0  0  0  0  0  1  0  0  0  0  0  0
  187.7160  177.8720  142.4910 C   0  0  0  0  0  2  0  0  0  0  0  0
  187.1630  176.7620  146.0950 C   0  0  0  0  0  0  0  0  0  0  0  0
  188.0010  176.2860  146.9980 C   0  0  0  0  0  3  0  0  0  0  0  0
  184.5720  177.8150  141.8970 C   0  0  0  0  0  2  0  0  0  0  0  0
  185.7700  177.7260  140.9570 C   0  0  0  0  0  2  0  0  0  0  0  0
  185.6100  177.7980  144.0100 C   0  0  1  0  0  3  0  0  0  0  0  0
  190.7080  176.8340  143.2700 C   0  0  0  0  0  2  0  0  0  0  0  0
  191.5660  177.0760  144.4900 C   0  0  0  0  0  2  0  0  0  0  0  0
  190.2450  177.8110  144.3370 C   0  0  0  0  0  3  0  0  0  0  0  0
  187.7440  176.4200  140.5720 O   0  0  0  0  0  0  0  0  0  0  0  0
  188.1740  174.3440  139.3440 N   0  0  0  0  0  0  0  0  0  0  0  0
  188.6230  172.9630  139.3120 C   0  0  0  0  0  1  0  0  0  0  0  0
  187.7290  174.9610  138.1070 C   0  0  0  0  0  1  0  0  0  0  0  0
  188.5630  174.5460  141.6380 O   0  0  0  0  0  0  0  0  0  0  0  0
  188.1770  175.0900  140.5680 C   0  0  0  0  0  0  0  0  0  0  0  0
  1  4  2  0  0  0  0
  1 12  1  0  0  0  0
  2 11  1  6  0  0  0
  2 16  1  0  0  0  0
  2  1  1  0  0  0  0
  4  7  1  0  0  0  0
  5 20  1  6  0  0  0
  5 11  1  0  0  0  0
  6  3  1  0  0  0  0
  7 13  1  0  0  0  0
  7  8  1  1  0  0  0
  9 10  1  0  0  0  0
  9 16  1  0  0  0  0
 12  3  1  0  0  0  0
 12 13  2  0  0  0  0
 14  9  1  0  0  0  0
 15  5  1  0  0  0  0
 15 14  1  0  0  0  0
 16  6  1  1  0  0  0
 17 19  1  0  0  0  0
 17 18  1  0  0  0  0
 19 18  1  0  0  0  0
 19  4  1  0  0  0  0
 21 25  1  0  0  0  0
 22 21  1  0  0  0  0
 23 21  1  0  0  0  0
 25 20  1  0  0  0  0
 25 24  2  0  0  0  0
M  END
>  <MODEL>
1

>  <REMARK>
 VINA RESULT:      -7.5      0.000      0.000
  Name = 
  3 active torsions:
  status: ('A' for Active; 'I' for Inactive)
    1  A    between atoms: C_5  and  C_22
    2  A    between atoms: C_6  and  O_15
    3  A    between atoms: O_15  and  C_25
                            x       y       z     vdW  Elec       q    Type
                         _______ _______ _______ _____ _____    ______ ____

>  <TORSDO>
F 3

$$$$
=
 OpenBabel11052417383D

 25 28  0  0  1  0  0  0  0  0999 V2000
  188.6190  176.6980  145.1400 C   0  0  0  0  0  0  0  0  0  0  0  0
  188.0740  177.7230  144.1780 C   0  0  1  0  0  3  0  0  0  0  0  0
  186.4760  176.8040  146.5430 C   0  0  0  0  0  2  0  0  0  0  0  0
  189.8510  176.2110  145.2530 C   0  0  0  0  0  0  0  0  0  0  0  0
  187.3760  176.8280  141.8630 C   0  0  1  0  0  3  0  0  0  0  0  0
  186.2660  178.0750  145.8390 N   0  0  0  0  0  2  0  0  0  0  0  0
  189.9660  175.4240  146.5330 C   0  0  1  0  0  3  0  0  0  0  0  0
  190.9130  176.0180  147.3700 O   0  0  0  0  0  1  0  0  0  0  0  0
  186.0090  178.9570  143.5500 N   0  0  0  0  0  0  0  0  0  0  0  0
  184.9050  179.6620  144.1920 C   0  0  0  0  0  1  0  0  0  0  0  0
  188.4780  177.4410  142.7230 C   0  0  0  0  0  2  0  0  0  0  0  0
  187.8760  176.3330  146.3200 C   0  0  0  0  0  0  0  0  0  0  0  0
  188.6020  175.5890  147.1340 C   0  0  0  0  0  3  0  0  0  0  0  0
  185.4170  178.3100  142.3840 C   0  0  0  0  0  2  0  0  0  0  0  0
  186.4720  177.9380  141.3480 C   0  0  0  0  0  2  0  0  0  0  0  0
  186.5470  177.8810  144.4030 C   0  0  1  0  0  3  0  0  0  0  0  0
  191.1750  175.4840  143.2980 C   0  0  0  0  0  2  0  0  0  0  0  0
  192.1220  175.5420  144.4740 C   0  0  0  0  0  2  0  0  0  0  0  0
  191.0030  176.5620  144.3540 C   0  0  0  0  0  3  0  0  0  0  0  0
  187.9580  176.1500  140.7580 O   0  0  0  0  0  0  0  0  0  0  0  0
  188.2400  174.0390  139.5490 N   0  0  0  0  0  0  0  0  0  0  0  0
  188.5060  172.6100  139.5420 C   0  0  0  0  0  1  0  0  0  0  0  0
  188.0120  174.7110  138.2830 C   0  0  0  0  0  1  0  0  0  0  0  0
  188.4090  174.1830  141.8740 O   0  0  0  0  0  0  0  0  0  0  0  0
  188.2120  174.7750  140.7780 C   0  0  0  0  0  0  0  0  0  0  0  0
  1  4  2  0  0  0  0
  1 12  1  0  0  0  0
  2 11  1  6  0  0  0
  2 16  1  0  0  0  0
  2  1  1  0  0  0  0
  4  7  1  0  0  0  0
  5 20  1  6  0  0  0
  5 11  1  0  0  0  0
  6  3  1  0  0  0  0
  7 13  1  0  0  0  0
  7  8  1  1  0  0  0
  9 10  1  0  0  0  0
  9 16  1  0  0  0  0
 12  3  1  0  0  0  0
 12 13  2  0  0  0  0
 14  9  1  0  0  0  0
 15  5  1  0  0  0  0
 15 14  1  0  0  0  0
 16  6  1  1  0  0  0
 17 19  1  0  0  0  0
 17 18  1  0  0  0  0
 19 18  1  0  0  0  0
 19  4  1  0  0  0  0
 20 25  1  0  0  0  0
 21 25  1  0  0  0  0
 22 21  1  0  0  0  0
 23 21  1  0  0  0  0
 25 24  2  0  0  0  0
M  END
>  <MODEL>
2

>  <REMARK>
 VINA RESULT:      -7.0      0.988      1.046
  Name = 
  3 active torsions:
  status: ('A' for Active; 'I' for Inactive)
    1  A    between atoms: C_5  and  C_22
    2  A    between atoms: C_6  and  O_15
    3  A    between atoms: O_15  and  C_25
                            x       y       z     vdW  Elec       q    Type
                         _______ _______ _______ _____ _____    ______ ____

>  <TORSDO>
F 3

$$$$
=
 OpenBabel11052417383D

 25 28  0  0  1  0  0  0  0  0999 V2000
  188.9550  176.1200  145.1160 C   0  0  0  0  0  0  0  0  0  0  0  0
  188.6170  177.0200  143.9550 C   0  0  1  0  0  3  0  0  0  0  0  0
  186.7280  176.6770  146.2590 C   0  0  0  0  0  2  0  0  0  0  0  0
  190.1080  175.5360  145.4300 C   0  0  0  0  0  0  0  0  0  0  0  0
  188.0170  175.8250  141.7510 C   0  0  1  0  0  3  0  0  0  0  0  0
  186.7290  177.8270  145.3460 N   0  0  0  0  0  2  0  0  0  0  0  0
  190.0220  174.9670  146.8230 C   0  0  1  0  0  3  0  0  0  0  0  0
  190.9570  175.5930  147.6490 O   0  0  0  0  0  1  0  0  0  0  0  0
  186.7710  178.3340  142.9330 N   0  0  0  0  0  0  0  0  0  0  0  0
  185.7070  179.2460  143.3400 C   0  0  0  0  0  1  0  0  0  0  0  0
  189.1060  176.4580  142.6110 C   0  0  0  0  0  2  0  0  0  0  0  0
  188.0770  176.0350  146.2570 C   0  0  0  0  0  0  0  0  0  0  0  0
  188.6400  175.3680  147.2480 C   0  0  0  0  0  3  0  0  0  0  0  0
  186.2080  177.5650  141.8280 C   0  0  0  0  0  2  0  0  0  0  0  0
  187.2960  176.9190  140.9770 C   0  0  0  0  0  2  0  0  0  0  0  0
  187.1060  177.3680  143.9950 C   0  0  1  0  0  3  0  0  0  0  0  0
  191.4820  174.3760  143.7380 C   0  0  0  0  0  2  0  0  0  0  0  0
  192.3300  174.5010  144.9820 C   0  0  0  0  0  2  0  0  0  0  0  0
  191.3640  175.6130  144.6100 C   0  0  0  0  0  3  0  0  0  0  0  0
  188.6070  174.9160  140.8310 O   0  0  0  0  0  0  0  0  0  0  0  0
  189.9820  172.8910  140.7440 N   0  0  0  0  0  0  0  0  0  0  0  0
  190.1830  171.4840  141.0460 C   0  0  0  0  0  1  0  0  0  0  0  0
  191.0340  173.6130  140.0500 C   0  0  0  0  0  1  0  0  0  0  0  0
  187.8650  172.9260  141.7300 O   0  0  0  0  0  0  0  0  0  0  0  0
  188.7750  173.5610  141.1290 C   0  0  0  0  0  0  0  0  0  0  0  0
  1  4  2  0  0  0  0
  1 12  1  0  0  0  0
  2 11  1  6  0  0  0
  2 16  1  0  0  0  0
  2  1  1  0  0  0  0
  4  7  1  0  0  0  0
  5 20  1  6  0  0  0
  5 11  1  0  0  0  0
  6  3  1  0  0  0  0
  7 13  1  0  0  0  0
  7  8  1  1  0  0  0
  9 10  1  0  0  0  0
  9 16  1  0  0  0  0
 12  3  1  0  0  0  0
 12 13  2  0  0  0  0
 14  9  1  0  0  0  0
 15  5  1  0  0  0  0
 15 14  1  0  0  0  0
 16  6  1  1  0  0  0
 17 19  1  0  0  0  0
 17 18  1  0  0  0  0
 19 18  1  0  0  0  0
 19  4  1  0  0  0  0
 20 25  1  0  0  0  0
 21 22  1  0  0  0  0
 21 25  1  0  0  0  0
 23 21  1  0  0  0  0
 25 24  2  0  0  0  0
M  END
>  <MODEL>
3

>  <REMARK>
 VINA RESULT:      -6.7      1.737      2.068
  Name = 
  3 active torsions:
  status: ('A' for Active; 'I' for Inactive)
    1  A    between atoms: C_5  and  C_22
    2  A    between atoms: C_6  and  O_15
    3  A    between atoms: O_15  and  C_25
                            x       y       z     vdW  Elec       q    Type
                         _______ _______ _______ _____ _____    ______ ____

>  <TORSDO>
F 3

$$$$
=
 OpenBabel11052417383D

 25 28  0  0  1  0  0  0  0  0999 V2000
  187.1890  176.7930  143.0720 C   0  0  0  0  0  0  0  0  0  0  0  0
  186.5220  176.7440  144.4230 C   0  0  1  0  0  3  0  0  0  0  0  0
  185.7700  178.8160  142.3900 C   0  0  0  0  0  2  0  0  0  0  0  0
  187.9910  175.9060  142.4890 C   0  0  0  0  0  0  0  0  0  0  0  0
  187.9670  177.5160  146.4140 C   0  0  1  0  0  3  0  0  0  0  0  0
  184.9110  178.3880  143.5000 N   0  0  0  0  0  2  0  0  0  0  0  0
  188.1760  176.2710  141.0390 C   0  0  1  0  0  3  0  0  0  0  0  0
  187.6730  175.2540  140.2270 O   0  0  0  0  0  1  0  0  0  0  0  0
  185.0050  178.0060  145.9350 N   0  0  0  0  0  0  0  0  0  0  0  0
  183.7580  178.7610  145.8700 C   0  0  0  0  0  1  0  0  0  0  0  0
  187.4940  176.3520  145.5470 C   0  0  0  0  0  2  0  0  0  0  0  0
  186.7550  177.7380  142.0740 C   0  0  0  0  0  0  0  0  0  0  0  0
  187.3090  177.4880  140.9020 C   0  0  0  0  0  3  0  0  0  0  0  0
  185.8130  178.6940  146.9370 C   0  0  0  0  0  2  0  0  0  0  0  0
  186.9210  177.7990  147.4810 C   0  0  0  0  0  2  0  0  0  0  0  0
  185.7560  178.0700  144.6670 C   0  0  1  0  0  3  0  0  0  0  0  0
  189.9170  174.7810  143.5490 C   0  0  0  0  0  2  0  0  0  0  0  0
  189.5810  173.9960  142.3030 C   0  0  0  0  0  2  0  0  0  0  0  0
  188.4680  174.6290  143.1210 C   0  0  0  0  0  3  0  0  0  0  0  0
  189.1930  177.1690  147.0440 O   0  0  0  0  0  0  0  0  0  0  0  0
  191.4330  176.2090  146.8040 N   0  0  0  0  0  0  0  0  0  0  0  0
  192.6890  176.0910  146.0830 C   0  0  0  0  0  1  0  0  0  0  0  0
  191.2460  175.4220  148.0100 C   0  0  0  0  0  1  0  0  0  0  0  0
  190.5660  177.7580  145.2870 O   0  0  0  0  0  0  0  0  0  0  0  0
  190.3950  177.0770  146.3350 C   0  0  0  0  0  0  0  0  0  0  0  0
  1  2  1  0  0  0  0
  2 16  1  0  0  0  0
  2 11  1  1  0  0  0
  3  6  1  0  0  0  0
  4  1  2  0  0  0  0
  4 19  1  0  0  0  0
  5 20  1  1  0  0  0
  5 15  1  0  0  0  0
  7  8  1  6  0  0  0
  7  4  1  0  0  0  0
  9 14  1  0  0  0  0
 10  9  1  0  0  0  0
 11  5  1  0  0  0  0
 12  3  1  0  0  0  0
 12  1  1  0  0  0  0
 13  7  1  0  0  0  0
 13 12  2  0  0  0  0
 14 15  1  0  0  0  0
 16  6  1  6  0  0  0
 16  9  1  0  0  0  0
 18 19  1  0  0  0  0
 18 17  1  0  0  0  0
 19 17  1  0  0  0  0
 21 23  1  0  0  0  0
 22 21  1  0  0  0  0
 24 25  2  0  0  0  0
 25 21  1  0  0  0  0
 25 20  1  0  0  0  0
M  END
>  <MODEL>
4

>  <REMARK>
 VINA RESULT:      -6.7      2.143      5.350
  Name = 
  3 active torsions:
  status: ('A' for Active; 'I' for Inactive)
    1  A    between atoms: C_5  and  C_22
    2  A    between atoms: C_6  and  O_15
    3  A    between atoms: O_15  and  C_25
                            x       y       z     vdW  Elec       q    Type
                         _______ _______ _______ _____ _____    ______ ____

>  <TORSDO>
F 3

$$$$
=
 OpenBabel11052417383D

 25 28  0  0  1  0  0  0  0  0999 V2000
  186.9550  177.3790  144.2670 C   0  0  0  0  0  0  0  0  0  0  0  0
  187.7530  176.1240  144.5090 C   0  0  1  0  0  3  0  0  0  0  0  0
  186.9530  177.9210  146.7730 C   0  0  0  0  0  2  0  0  0  0  0  0
  186.3280  177.7870  143.1670 C   0  0  0  0  0  0  0  0  0  0  0  0
  190.2180  176.2020  143.7570 C   0  0  1  0  0  3  0  0  0  0  0  0
  187.3020  176.5020  146.9180 N   0  0  0  0  0  2  0  0  0  0  0  0
  185.4420  178.9610  143.4980 C   0  0  1  0  0  3  0  0  0  0  0  0
  184.1080  178.6320  143.2530 O   0  0  0  0  0  1  0  0  0  0  0  0
  189.0480  174.8970  146.2410 N   0  0  0  0  0  0  0  0  0  0  0  0
  188.9430  174.5390  147.6520 C   0  0  0  0  0  1  0  0  0  0  0  0
  188.7770  175.8510  143.3960 C   0  0  0  0  0  2  0  0  0  0  0  0
  186.5020  178.1850  145.3730 C   0  0  0  0  0  0  0  0  0  0  0  0
  185.6510  179.1130  144.9760 C   0  0  0  0  0  3  0  0  0  0  0  0
  190.4690  175.1360  146.0160 C   0  0  0  0  0  2  0  0  0  0  0  0
  190.8290  175.0480  144.5370 C   0  0  0  0  0  2  0  0  0  0  0  0
  188.3520  176.1620  145.9400 C   0  0  1  0  0  3  0  0  0  0  0  0
  187.3800  177.6840  140.9350 C   0  0  0  0  0  2  0  0  0  0  0  0
  185.9160  177.9840  140.7180 C   0  0  0  0  0  2  0  0  0  0  0  0
  186.3380  177.0640  141.8500 C   0  0  0  0  0  3  0  0  0  0  0  0
  190.9670  176.4080  142.5670 O   0  0  0  0  0  0  0  0  0  0  0  0
  192.3990  174.6660  141.6120 N   0  0  0  0  0  0  0  0  0  0  0  0
  193.7120  174.0810  141.4030 C   0  0  0  0  0  1  0  0  0  0  0  0
  191.2450  174.0200  141.0110 C   0  0  0  0  0  1  0  0  0  0  0  0
  193.2480  176.4160  142.9040 O   0  0  0  0  0  0  0  0  0  0  0  0
  192.2410  175.8620  142.3850 C   0  0  0  0  0  0  0  0  0  0  0  0
  1  2  1  0  0  0  0
  1 12  1  0  0  0  0
  2 11  1  6  0  0  0
  2 16  1  0  0  0  0
  3  6  1  0  0  0  0
  4  7  1  0  0  0  0
  4  1  2  0  0  0  0
  5 20  1  6  0  0  0
  5 15  1  0  0  0  0
  7  8  1  1  0  0  0
  7 13  1  0  0  0  0
  9 10  1  0  0  0  0
 11  5  1  0  0  0  0
 12  3  1  0  0  0  0
 13 12  2  0  0  0  0
 14  9  1  0  0  0  0
 15 14  1  0  0  0  0
 16  9  1  0  0  0  0
 16  6  1  1  0  0  0
 17 19  1  0  0  0  0
 18 17  1  0  0  0  0
 18 19  1  0  0  0  0
 19  4  1  0  0  0  0
 21 25  1  0  0  0  0
 22 21  1  0  0  0  0
 23 21  1  0  0  0  0
 25 20  1  0  0  0  0
 25 24  2  0  0  0  0
M  END
>  <MODEL>
5

>  <REMARK>
 VINA RESULT:      -6.6      2.739      4.932
  Name = 
  3 active torsions:
  status: ('A' for Active; 'I' for Inactive)
    1  A    between atoms: C_5  and  C_22
    2  A    between atoms: C_6  and  O_15
    3  A    between atoms: O_15  and  C_25
                            x       y       z     vdW  Elec       q    Type
                         _______ _______ _______ _____ _____    ______ ____

>  <TORSDO>
F 3

$$$$
=
 OpenBabel11052417383D

 25 28  0  0  1  0  0  0  0  0999 V2000
  187.6370  177.5870  144.2080 C   0  0  0  0  0  0  0  0  0  0  0  0
  188.4700  176.4110  144.6500 C   0  0  1  0  0  3  0  0  0  0  0  0
  186.5600  177.7600  146.5290 C   0  0  0  0  0  2  0  0  0  0  0  0
  187.4350  178.0730  142.9870 C   0  0  0  0  0  0  0  0  0  0  0  0
  190.9820  176.8810  144.9840 C   0  0  1  0  0  3  0  0  0  0  0  0
  187.0510  176.3850  146.6840 N   0  0  0  0  0  2  0  0  0  0  0  0
  186.3110  179.0760  143.0230 C   0  0  1  0  0  3  0  0  0  0  0  0
  185.2550  178.6340  142.2250 O   0  0  0  0  0  1  0  0  0  0  0  0
  189.1610  175.1070  146.6510 N   0  0  0  0  0  0  0  0  0  0  0  0
  188.5700  174.5410  147.8590 C   0  0  0  0  0  1  0  0  0  0  0  0
  189.8780  176.4210  144.0360 C   0  0  0  0  0  2  0  0  0  0  0  0
  186.6600  178.1670  145.0950 C   0  0  0  0  0  0  0  0  0  0  0  0
  185.8940  179.0380  144.4630 C   0  0  0  0  0  3  0  0  0  0  0  0
  190.4960  175.5390  147.0490 C   0  0  0  0  0  2  0  0  0  0  0  0
  191.4180  175.7060  145.8460 C   0  0  0  0  0  2  0  0  0  0  0  0
  188.4430  176.3130  146.1980 C   0  0  1  0  0  3  0  0  0  0  0  0
  187.0690  177.5410  140.6030 C   0  0  0  0  0  2  0  0  0  0  0  0
  187.4410  176.2480  141.2890 C   0  0  0  0  0  2  0  0  0  0  0  0
  188.0810  177.5520  141.7340 C   0  0  0  0  0  3  0  0  0  0  0  0
  192.0940  177.3420  144.2280 O   0  0  0  0  0  0  0  0  0  0  0  0
  194.3540  176.4170  144.4140 N   0  0  0  0  0  0  0  0  0  0  0  0
  195.3980  175.5200  143.9460 C   0  0  0  0  0  1  0  0  0  0  0  0
  194.6210  177.2510  145.5730 C   0  0  0  0  0  1  0  0  0  0  0  0
  192.8610  175.7480  142.7480 O   0  0  0  0  0  0  0  0  0  0  0  0
  193.0830  176.4740  143.7550 C   0  0  0  0  0  0  0  0  0  0  0  0
  1  2  1  0  0  0  0
  1 12  1  0  0  0  0
  2 11  1  1  0  0  0
  2 16  1  0  0  0  0
  3  6  1  0  0  0  0
  4  7  1  0  0  0  0
  4  1  2  0  0  0  0
  5 20  1  6  0  0  0
  5 15  1  0  0  0  0
  7  8  1  6  0  0  0
  7 13  1  0  0  0  0
  9 14  1  0  0  0  0
  9 10  1  0  0  0  0
 11  5  1  0  0  0  0
 12  3  1  0  0  0  0
 13 12  2  0  0  0  0
 15 14  1  0  0  0  0
 16  9  1  0  0  0  0
 16  6  1  6  0  0  0
 17 18  1  0  0  0  0
 17 19  1  0  0  0  0
 18 19  1  0  0  0  0
 19  4  1  0  0  0  0
 21 23  1  0  0  0  0
 22 21  1  0  0  0  0
 24 25  2  0  0  0  0
 25 20  1  0  0  0  0
 25 21  1  0  0  0  0
M  END
>  <MODEL>
6

>  <REMARK>
 VINA RESULT:      -6.6      2.880      5.702
  Name = 
  3 active torsions:
  status: ('A' for Active; 'I' for Inactive)
    1  A    between atoms: C_5  and  C_22
    2  A    between atoms: C_6  and  O_15
    3  A    between atoms: O_15  and  C_25
                            x       y       z     vdW  Elec       q    Type
                         _______ _______ _______ _____ _____    ______ ____

>  <TORSDO>
F 3

$$$$
=
 OpenBabel11052417383D

 25 28  0  0  1  0  0  0  0  0999 V2000
  189.2020  175.2460  143.2030 C   0  0  0  0  0  0  0  0  0  0  0  0
  190.0810  176.0320  144.1420 C   0  0  1  0  0  3  0  0  0  0  0  0
  190.1520  173.0340  144.0860 C   0  0  0  0  0  2  0  0  0  0  0  0
  188.4650  175.6660  142.1790 C   0  0  0  0  0  0  0  0  0  0  0  0
  188.8800  177.1460  146.1330 C   0  0  1  0  0  3  0  0  0  0  0  0
  191.2390  173.8840  144.5870 N   0  0  0  0  0  2  0  0  0  0  0  0
  187.9890  174.4790  141.3810 C   0  0  1  0  0  3  0  0  0  0  0  0
  188.5060  174.5420  140.0860 O   0  0  0  0  0  1  0  0  0  0  0  0
  191.6080  175.8050  146.0900 N   0  0  0  0  0  0  0  0  0  0  0  0
  192.6930  174.9430  146.5500 C   0  0  0  0  0  1  0  0  0  0  0  0
  189.3820  177.2820  144.6980 C   0  0  0  0  0  2  0  0  0  0  0  0
  189.3110  173.8100  143.1260 C   0  0  0  0  0  0  0  0  0  0  0  0
  188.6190  173.3300  142.1100 C   0  0  0  0  0  3  0  0  0  0  0  0
  190.8780  176.1710  147.2990 C   0  0  0  0  0  2  0  0  0  0  0  0
  190.0300  177.4210  147.0900 C   0  0  0  0  0  2  0  0  0  0  0  0
  190.6580  175.0820  145.2240 C   0  0  1  0  0  3  0  0  0  0  0  0
  187.0280  177.6670  142.3580 C   0  0  0  0  0  2  0  0  0  0  0  0
  187.0710  177.2850  140.8970 C   0  0  0  0  0  2  0  0  0  0  0  0
  188.3050  177.1010  141.7630 C   0  0  0  0  0  3  0  0  0  0  0  0
  187.8450  178.0910  146.3650 O   0  0  0  0  0  0  0  0  0  0  0  0
  185.4200  178.3580  146.1500 N   0  0  0  0  0  0  0  0  0  0  0  0
  184.0670  177.9720  146.5130 C   0  0  0  0  0  1  0  0  0  0  0  0
  185.6030  179.4170  145.1730 C   0  0  0  0  0  1  0  0  0  0  0  0
  186.3840  176.7880  147.5840 O   0  0  0  0  0  0  0  0  0  0  0  0
  186.5530  177.7050  146.7340 C   0  0  0  0  0  0  0  0  0  0  0  0
  1  2  1  0  0  0  0
  2 11  1  1  0  0  0
  2 16  1  0  0  0  0
  3  6  1  0  0  0  0
  4  1  2  0  0  0  0
  5 20  1  1  0  0  0
  5 15  1  0  0  0  0
  7  8  1  6  0  0  0
  7 13  1  0  0  0  0
  7  4  1  0  0  0  0
  9 10  1  0  0  0  0
  9 14  1  0  0  0  0
 11  5  1  0  0  0  0
 12  1  1  0  0  0  0
 12  3  1  0  0  0  0
 13 12  2  0  0  0  0
 15 14  1  0  0  0  0
 16  6  1  6  0  0  0
 16  9  1  0  0  0  0
 18 19  1  0  0  0  0
 18 17  1  0  0  0  0
 19  4  1  0  0  0  0
 19 17  1  0  0  0  0
 20 25  1  0  0  0  0
 21 22  1  0  0  0  0
 21 25  1  0  0  0  0
 23 21  1  0  0  0  0
 25 24  2  0  0  0  0
M  END
>  <MODEL>
7

>  <REMARK>
 VINA RESULT:      -6.6      2.696      6.553
  Name = 
  3 active torsions:
  status: ('A' for Active; 'I' for Inactive)
    1  A    between atoms: C_5  and  C_22
    2  A    between atoms: C_6  and  O_15
    3  A    between atoms: O_15  and  C_25
                            x       y       z     vdW  Elec       q    Type
                         _______ _______ _______ _____ _____    ______ ____

>  <TORSDO>
F 3

$$$$
=
 OpenBabel11052417383D

 25 28  0  0  1  0  0  0  0  0999 V2000
  191.6130  175.8490  144.5540 C   0  0  0  0  0  0  0  0  0  0  0  0
  190.3800  175.1590  144.0290 C   0  0  1  0  0  3  0  0  0  0  0  0
  192.7220  175.7290  142.2450 C   0  0  0  0  0  2  0  0  0  0  0  0
  191.9670  176.1180  145.8070 C   0  0  0  0  0  0  0  0  0  0  0  0
  188.2950  176.6490  143.7510 C   0  0  1  0  0  3  0  0  0  0  0  0
  191.7120  174.6960  141.9880 N   0  0  0  0  0  2  0  0  0  0  0  0
  193.4050  176.5660  145.8400 C   0  0  1  0  0  3  0  0  0  0  0  0
  194.1640  175.6690  146.5930 O   0  0  0  0  0  1  0  0  0  0  0  0
  189.2630  174.4070  141.9390 N   0  0  0  0  0  0  0  0  0  0  0  0
  189.5970  173.7360  140.6870 C   0  0  0  0  0  1  0  0  0  0  0  0
  189.0870  175.7060  144.6520 C   0  0  0  0  0  2  0  0  0  0  0  0
  192.7650  176.0360  143.7070 C   0  0  0  0  0  0  0  0  0  0  0  0
  193.8050  176.4630  144.3980 C   0  0  0  0  0  3  0  0  0  0  0  0
  188.2350  175.3800  141.5850 C   0  0  0  0  0  2  0  0  0  0  0  0
  187.4350  175.8260  142.8040 C   0  0  0  0  0  2  0  0  0  0  0  0
  190.4030  175.1710  142.4780 C   0  0  1  0  0  3  0  0  0  0  0  0
  190.2360  177.0090  147.3270 C   0  0  0  0  0  2  0  0  0  0  0  0
  191.4710  176.7660  148.1620 C   0  0  0  0  0  2  0  0  0  0  0  0
  191.1320  175.8220  147.0210 C   0  0  0  0  0  3  0  0  0  0  0  0
  187.4540  177.4720  144.5480 O   0  0  0  0  0  0  0  0  0  0  0  0
  185.1260  178.2240  144.6550 N   0  0  0  0  0  0  0  0  0  0  0  0
  184.0150  178.9860  144.1100 C   0  0  0  0  0  1  0  0  0  0  0  0
  184.9220  177.4790  145.8850 C   0  0  0  0  0  1  0  0  0  0  0  0
  186.5680  178.8580  142.9310 O   0  0  0  0  0  0  0  0  0  0  0  0
  186.4000  178.2100  144.0000 C   0  0  0  0  0  0  0  0  0  0  0  0
  1  4  2  0  0  0  0
  2  1  1  0  0  0  0
  2 11  1  6  0  0  0
  3 12  1  0  0  0  0
  4  7  1  0  0  0  0
  4 19  1  0  0  0  0
  5 20  1  1  0  0  0
  5 11  1  0  0  0  0
  6  3  1  0  0  0  0
  7  8  1  1  0  0  0
  9 16  1  0  0  0  0
 10  9  1  0  0  0  0
 12 13  2  0  0  0  0
 12  1  1  0  0  0  0
 13  7  1  0  0  0  0
 14  9  1  0  0  0  0
 14 15  1  0  0  0  0
 15  5  1  0  0  0  0
 16  6  1  1  0  0  0
 16  2  1  0  0  0  0
 17 18  1  0  0  0  0
 19 17  1  0  0  0  0
 19 18  1  0  0  0  0
 21 23  1  0  0  0  0
 22 21  1  0  0  0  0
 24 25  2  0  0  0  0
 25 20  1  0  0  0  0
 25 21  1  0  0  0  0
M  END
>  <MODEL>
8

>  <REMARK>
 VINA RESULT:      -6.5      2.319      5.650
  Name = 
  3 active torsions:
  status: ('A' for Active; 'I' for Inactive)
    1  A    between atoms: C_5  and  C_22
    2  A    between atoms: C_6  and  O_15
    3  A    between atoms: O_15  and  C_25
                            x       y       z     vdW  Elec       q    Type
                         _______ _______ _______ _____ _____    ______ ____

>  <TORSDO>
F 3

$$$$
=
 OpenBabel11052417383D

 25 28  0  0  1  0  0  0  0  0999 V2000
  189.0050  174.7280  143.5930 C   0  0  0  0  0  0  0  0  0  0  0  0
  189.0180  175.0010  145.0750 C   0  0  1  0  0  3  0  0  0  0  0  0
  187.7690  176.9290  143.1470 C   0  0  0  0  0  2  0  0  0  0  0  0
  189.3090  173.6140  142.9330 C   0  0  0  0  0  0  0  0  0  0  0  0
  191.3040  175.6480  146.0750 C   0  0  1  0  0  3  0  0  0  0  0  0
  187.4450  176.8530  144.5770 N   0  0  0  0  0  2  0  0  0  0  0  0
  188.8770  173.7470  141.4950 C   0  0  1  0  0  3  0  0  0  0  0  0
  187.9100  172.7850  141.2000 O   0  0  0  0  0  1  0  0  0  0  0  0
  188.5610  176.7570  146.7750 N   0  0  0  0  0  0  0  0  0  0  0  0
  187.5540  177.7700  147.0730 C   0  0  0  0  0  1  0  0  0  0  0  0
  190.3150  174.5320  145.7510 C   0  0  0  0  0  2  0  0  0  0  0  0
  188.3230  175.6200  142.6890 C   0  0  0  0  0  0  0  0  0  0  0  0
  188.2450  175.1070  141.4750 C   0  0  0  0  0  3  0  0  0  0  0  0
  189.8290  177.3530  147.1810 C   0  0  0  0  0  2  0  0  0  0  0  0
  190.9080  176.2960  147.3930 C   0  0  0  0  0  2  0  0  0  0  0  0
  188.6620  176.4900  145.3280 C   0  0  1  0  0  3  0  0  0  0  0  0
  191.2980  172.1940  143.2940 C   0  0  0  0  0  2  0  0  0  0  0  0
  190.3040  171.3680  142.5130 C   0  0  0  0  0  2  0  0  0  0  0  0
  189.8110  172.3470  143.5650 C   0  0  0  0  0  3  0  0  0  0  0  0
  192.6110  175.1030  146.1990 O   0  0  0  0  0  0  0  0  0  0  0  0
  194.4100  175.6620  144.6340 N   0  0  0  0  0  0  0  0  0  0  0  0
  195.6000  176.4220  144.2940 C   0  0  0  0  0  1  0  0  0  0  0  0
  193.8850  174.7170  143.6640 C   0  0  0  0  0  1  0  0  0  0  0  0
  194.2210  176.6640  146.7350 O   0  0  0  0  0  0  0  0  0  0  0  0
  193.7580  175.8430  145.8970 C   0  0  0  0  0  0  0  0  0  0  0  0
  1  2  1  0  0  0  0
  2 16  1  0  0  0  0
  2 11  1  6  0  0  0
  3  6  1  0  0  0  0
  4 19  1  0  0  0  0
  4  1  2  0  0  0  0
  5 20  1  1  0  0  0
  5 15  1  0  0  0  0
  7  8  1  1  0  0  0
  7  4  1  0  0  0  0
  9 10  1  0  0  0  0
  9 14  1  0  0  0  0
 11  5  1  0  0  0  0
 12  3  1  0  0  0  0
 12  1  1  0  0  0  0
 13  7  1  0  0  0  0
 13 12  2  0  0  0  0
 14 15  1  0  0  0  0
 16  6  1  6  0  0  0
 16  9  1  0  0  0  0
 17 19  1  0  0  0  0
 18 17  1  0  0  0  0
 18 19  1  0  0  0  0
 21 25  1  0  0  0  0
 22 21  1  0  0  0  0
 23 21  1  0  0  0  0
 25 20  1  0  0  0  0
 25 24  2  0  0  0  0
M  END
>  <MODEL>
9

>  <REMARK>
 VINA RESULT:      -6.0      3.267      6.220
  Name = 
  3 active torsions:
  status: ('A' for Active; 'I' for Inactive)
    1  A    between atoms: C_5  and  C_22
    2  A    between atoms: C_6  and  O_15
    3  A    between atoms: O_15  and  C_25
                            x       y       z     vdW  Elec       q    Type
                         _______ _______ _______ _____ _____    ______ ____

>  <TORSDO>
F 3

$$$$
