=
 OpenBabel11052419043D

 32 36  0  0  1  0  0  0  0  0999 V2000
  189.6950  176.0550  145.0540 C   0  0  2  0  0  3  0  0  0  0  0  0
  189.8640  174.4310  143.2520 C   0  0  2  0  0  3  0  0  0  0  0  0
  190.4530  176.8420  146.0990 C   0  0  0  0  0  2  0  0  0  0  0  0
  190.4100  175.2620  144.2830 C   0  0  1  0  0  3  0  0  0  0  0  0
  191.1040  174.2900  142.4210 C   0  0  1  0  0  3  0  0  0  0  0  0
  188.7260  175.1670  142.5780 C   0  0  2  0  0  3  0  0  0  0  0  0
  188.9340  173.9900  140.2890 C   0  0  0  0  0  0  0  0  0  0  0  0
  191.8720  175.2480  144.2460 C   0  0  2  0  0  3  0  0  0  0  0  0
  190.1500  173.5020  140.3050 N   0  0  0  0  0  0  0  0  0  0  0  0
  192.1980  174.2280  143.3220 O   0  0  0  0  0  0  0  0  0  0  0  0
  192.3440  175.0250  145.6760 C   0  0  0  0  0  2  0  0  0  0  0  0
  187.7610  175.5050  143.5680 O   0  0  0  0  0  0  0  0  0  0  0  0
  188.3080  176.4180  144.5240 C   0  0  1  0  0  3  0  0  0  0  0  0
  188.1000  174.2290  141.5380 C   0  0  1  0  0  3  0  0  0  0  0  0
  190.9900  173.1240  141.4500 C   0  0  2  0  0  3  0  0  0  0  0  0
  191.7080  176.0790  146.6350 C   0  0  0  0  0  2  0  0  0  0  0  0
  187.6880  173.0190  142.1030 O   0  0  0  0  0  1  0  0  0  0  0  0
  187.2750  176.8700  145.5730 C   0  0  2  0  0  3  0  0  0  0  0  0
  185.9510  176.5230  145.2040 O   0  0  0  0  0  0  0  0  0  0  0  0
  186.2390  177.9020  145.2150 C   0  0  2  0  0  0  0  0  0  0  0  0
  186.0310  178.5600  143.8160 C   0  0  0  0  0  0  0  0  0  0  0  0
  185.4360  179.9450  143.9860 C   0  0  0  0  0  1  0  0  0  0  0  0
  185.0490  177.7350  143.0010 C   0  0  0  0  0  1  0  0  0  0  0  0
  187.2930  178.6670  142.9740 C   0  0  0  0  0  1  0  0  0  0  0  0
  186.5210  178.5600  147.5150 O   0  0  0  0  0  1  0  0  0  0  0  0
  185.6460  178.6440  146.4320 C   0  0  2  0  0  3  0  0  0  0  0  0
  184.2600  178.1730  146.8530 C   0  0  0  0  0  1  0  0  0  0  0  0
  190.4870  171.9150  142.0930 N   0  0  0  0  0  2  0  0  0  0  0  0
  190.7210  170.8120  141.1770 C   0  0  0  0  0  1  0  0  0  0  0  0
  188.3790  174.2870  139.0390 O   0  0  0  0  0  0  0  0  0  0  0  0
  189.2110  174.1360  136.7820 C   0  0  0  0  0  1  0  0  0  0  0  0
  188.4870  173.4270  137.9110 C   0  0  0  0  0  2  0  0  0  0  0  0
  1  3  1  6  0  0  0
  2  4  1  0  0  0  0
  3 16  1  0  0  0  0
  4  1  1  0  0  0  0
  5  2  1  0  0  0  0
  5 10  1  0  0  0  0
  6  2  1  0  0  0  0
  6 12  1  0  0  0  0
  7  9  2  0  0  0  0
  7 14  1  0  0  0  0
  8  4  1  0  0  0  0
  8 11  1  0  0  0  0
  9 15  1  0  0  0  0
 10  8  1  0  0  0  0
 11 16  1  0  0  0  0
 12 13  1  0  0  0  0
 13  1  1  0  0  0  0
 13 18  1  0  0  0  0
 14 17  1  0  0  0  0
 14  6  1  0  0  0  0
 15 28  1  0  0  0  0
 15  5  1  0  0  0  0
 19 20  1  0  0  0  0
 19 18  1  0  0  0  0
 20 18  1  0  0  0  0
 20 26  1  0  0  0  0
 21 22  1  0  0  0  0
 21 20  1  0  0  0  0
 23 21  1  0  0  0  0
 24 21  1  0  0  0  0
 26 27  1  0  0  0  0
 26 25  1  0  0  0  0
 29 28  1  0  0  0  0
 30  7  1  0  0  0  0
 31 32  1  0  0  0  0
 32 30  1  0  0  0  0
M  END
>  <MODEL>
1

>  <REMARK>
 VINA RESULT:      -7.2      0.000      0.000
  Name = 
  6 active torsions:
  status: ('A' for Active; 'I' for Inactive)
    1  A    between atoms: C_3  and  C_22
    2  A    between atoms: O_11  and  C_12
    3  A    between atoms: O_11  and  C_31
    4  A    between atoms: N_13  and  C_29
    5  A    between atoms: C_15  and  C_22
    6  A    between atoms: C_16  and  C_27
                            x       y       z     vdW  Elec       q    Type
                         _______ _______ _______ _____ _____    ______ ____

>  <TORSDO>
F 6

$$$$
=
 OpenBabel11052419043D

 32 36  0  0  1  0  0  0  0  0999 V2000
  189.8040  176.1170  145.7640 C   0  0  2  0  0  3  0  0  0  0  0  0
  190.3490  174.3700  144.1630 C   0  0  2  0  0  3  0  0  0  0  0  0
  190.3350  177.0150  146.8580 C   0  0  0  0  0  2  0  0  0  0  0  0
  190.6720  175.3010  145.2020 C   0  0  1  0  0  3  0  0  0  0  0  0
  191.7240  174.2230  143.5800 C   0  0  1  0  0  3  0  0  0  0  0  0
  189.3300  174.9990  143.2380 C   0  0  2  0  0  3  0  0  0  0  0  0
  189.9880  173.6620  141.1290 C   0  0  0  0  0  0  0  0  0  0  0  0
  192.1170  175.3530  145.4280 C   0  0  2  0  0  3  0  0  0  0  0  0
  191.1950  173.2340  141.4020 N   0  0  0  0  0  0  0  0  0  0  0  0
  192.6380  174.2820  144.6650 O   0  0  0  0  0  0  0  0  0  0  0  0
  192.3280  175.2620  146.9320 C   0  0  0  0  0  2  0  0  0  0  0  0
  188.1910  175.3650  144.0090 O   0  0  0  0  0  0  0  0  0  0  0  0
  188.5260  176.3730  144.9670 C   0  0  1  0  0  3  0  0  0  0  0  0
  188.9330  173.9560  142.1850 C   0  0  1  0  0  3  0  0  0  0  0  0
  191.8250  172.9840  142.7050 C   0  0  2  0  0  3  0  0  0  0  0  0
  191.4960  176.3540  147.6710 C   0  0  0  0  0  2  0  0  0  0  0  0
  188.4650  172.7750  142.7660 O   0  0  0  0  0  1  0  0  0  0  0  0
  187.3060  176.8550  145.7740 C   0  0  2  0  0  3  0  0  0  0  0  0
  186.0830  176.4040  145.2160 O   0  0  0  0  0  0  0  0  0  0  0  0
  186.3090  177.7930  145.1460 C   0  0  2  0  0  0  0  0  0  0  0  0
  186.3270  178.3150  143.6760 C   0  0  0  0  0  0  0  0  0  0  0  0
  185.6110  179.6500  143.6000 C   0  0  0  0  0  1  0  0  0  0  0  0
  185.5810  177.3430  142.7770 C   0  0  0  0  0  1  0  0  0  0  0  0
  187.7150  178.4660  143.0760 C   0  0  0  0  0  1  0  0  0  0  0  0
  186.2440  178.8610  147.3040 O   0  0  0  0  0  1  0  0  0  0  0  0
  185.4800  178.6020  146.1660 C   0  0  2  0  0  3  0  0  0  0  0  0
  184.1590  177.9580  146.5690 C   0  0  0  0  0  1  0  0  0  0  0  0
  191.2530  171.8050  143.3470 N   0  0  0  0  0  2  0  0  0  0  0  0
  192.3480  170.8920  143.6250 C   0  0  0  0  0  1  0  0  0  0  0  0
  189.6590  173.8370  139.7800 O   0  0  0  0  0  0  0  0  0  0  0  0
  188.1490  174.2370  137.9430 C   0  0  0  0  0  1  0  0  0  0  0  0
  188.4020  173.4670  139.2260 C   0  0  0  0  0  2  0  0  0  0  0  0
  1  3  1  6  0  0  0
  2  4  1  0  0  0  0
  3 16  1  0  0  0  0
  4  8  1  0  0  0  0
  4  1  1  0  0  0  0
  5  2  1  0  0  0  0
  5 10  1  0  0  0  0
  6 12  1  0  0  0  0
  6  2  1  0  0  0  0
  7  9  2  0  0  0  0
  7 14  1  0  0  0  0
  8 11  1  0  0  0  0
  9 15  1  0  0  0  0
 10  8  1  0  0  0  0
 11 16  1  0  0  0  0
 12 13  1  0  0  0  0
 13  1  1  0  0  0  0
 13 18  1  0  0  0  0
 14 17  1  0  0  0  0
 14  6  1  0  0  0  0
 15 28  1  0  0  0  0
 15  5  1  0  0  0  0
 19 18  1  0  0  0  0
 20 19  1  0  0  0  0
 20 18  1  0  0  0  0
 20 26  1  0  0  0  0
 21 20  1  0  0  0  0
 22 21  1  0  0  0  0
 23 21  1  0  0  0  0
 24 21  1  0  0  0  0
 26 27  1  0  0  0  0
 26 25  1  0  0  0  0
 28 29  1  0  0  0  0
 30  7  1  0  0  0  0
 31 32  1  0  0  0  0
 32 30  1  0  0  0  0
M  END
>  <MODEL>
2

>  <REMARK>
 VINA RESULT:      -7.1      1.062      1.127
  Name = 
  6 active torsions:
  status: ('A' for Active; 'I' for Inactive)
    1  A    between atoms: C_3  and  C_22
    2  A    between atoms: O_11  and  C_12
    3  A    between atoms: O_11  and  C_31
    4  A    between atoms: N_13  and  C_29
    5  A    between atoms: C_15  and  C_22
    6  A    between atoms: C_16  and  C_27
                            x       y       z     vdW  Elec       q    Type
                         _______ _______ _______ _____ _____    ______ ____

>  <TORSDO>
F 6

$$$$
=
 OpenBabel11052419043D

 32 36  0  0  1  0  0  0  0  0999 V2000
  191.6220  175.7830  145.0850 C   0  0  2  0  0  3  0  0  0  0  0  0
  189.4670  176.6530  144.3680 C   0  0  2  0  0  3  0  0  0  0  0  0
  192.3710  175.0510  146.1750 C   0  0  0  0  0  2  0  0  0  0  0  0
  190.3330  175.9690  145.2810 C   0  0  1  0  0  3  0  0  0  0  0  0
  188.1730  176.0340  144.8060 C   0  0  1  0  0  3  0  0  0  0  0  0
  189.8850  176.3210  142.9520 C   0  0  2  0  0  3  0  0  0  0  0  0
  187.5610  176.6590  141.8770 C   0  0  0  0  0  0  0  0  0  0  0  0
  189.5680  175.3520  146.3650 C   0  0  2  0  0  3  0  0  0  0  0  0
  186.7380  176.5720  142.8930 N   0  0  0  0  0  0  0  0  0  0  0  0
  188.2560  175.8590  146.2120 O   0  0  0  0  0  0  0  0  0  0  0  0
  190.2740  175.7170  147.6620 C   0  0  0  0  0  2  0  0  0  0  0  0
  191.2480  176.6940  142.7870 O   0  0  0  0  0  0  0  0  0  0  0  0
  192.0960  175.9180  143.6380 C   0  0  1  0  0  3  0  0  0  0  0  0
  189.0030  177.1290  141.9920 C   0  0  1  0  0  3  0  0  0  0  0  0
  186.9800  176.8420  144.3170 C   0  0  2  0  0  3  0  0  0  0  0  0
  191.7820  175.3210  147.5970 C   0  0  0  0  0  2  0  0  0  0  0  0
  189.0620  178.5010  142.2540 O   0  0  0  0  0  1  0  0  0  0  0  0
  193.5900  176.2360  143.4380 C   0  0  2  0  0  3  0  0  0  0  0  0
  193.9590  176.2310  142.0700 O   0  0  0  0  0  0  0  0  0  0  0  0
  194.5090  175.1970  142.8520 C   0  0  2  0  0  0  0  0  0  0  0  0
  194.1010  173.7840  142.3350 C   0  0  0  0  0  0  0  0  0  0  0  0
  193.7610  172.8880  143.5110 C   0  0  0  0  0  1  0  0  0  0  0  0
  195.2690  173.1500  141.5980 C   0  0  0  0  0  1  0  0  0  0  0  0
  192.9340  173.7800  141.3600 C   0  0  0  0  0  1  0  0  0  0  0  0
  196.1870  175.3400  144.5760 O   0  0  0  0  0  1  0  0  0  0  0  0
  195.9990  175.4140  143.1960 C   0  0  2  0  0  3  0  0  0  0  0  0
  196.5940  176.7120  142.6650 C   0  0  0  0  0  1  0  0  0  0  0  0
  187.1420  178.2710  144.5590 N   0  0  0  0  0  2  0  0  0  0  0  0
  185.8860  178.9110  144.2100 C   0  0  0  0  0  1  0  0  0  0  0  0
  187.0620  176.3110  140.6170 O   0  0  0  0  0  0  0  0  0  0  0  0
  186.5520  176.6130  138.2800 C   0  0  0  0  0  1  0  0  0  0  0  0
  186.6570  177.2680  139.6450 C   0  0  0  0  0  2  0  0  0  0  0  0
  1  4  1  0  0  0  0
  1  3  1  6  0  0  0
  2  5  1  0  0  0  0
  2  4  1  0  0  0  0
  3 16  1  0  0  0  0
  4  8  1  0  0  0  0
  5 10  1  0  0  0  0
  6  2  1  0  0  0  0
  7 14  1  0  0  0  0
  7  9  2  0  0  0  0
  8 11  1  0  0  0  0
  9 15  1  0  0  0  0
 10  8  1  0  0  0  0
 12  6  1  0  0  0  0
 12 13  1  0  0  0  0
 13  1  1  0  0  0  0
 14 17  1  0  0  0  0
 14  6  1  0  0  0  0
 15 28  1  0  0  0  0
 15  5  1  0  0  0  0
 16 11  1  0  0  0  0
 18 13  1  0  0  0  0
 19 20  1  0  0  0  0
 19 18  1  0  0  0  0
 20 26  1  0  0  0  0
 20 18  1  0  0  0  0
 21 20  1  0  0  0  0
 21 22  1  0  0  0  0
 23 21  1  0  0  0  0
 24 21  1  0  0  0  0
 26 25  1  0  0  0  0
 27 26  1  0  0  0  0
 29 28  1  0  0  0  0
 30  7  1  0  0  0  0
 31 32  1  0  0  0  0
 32 30  1  0  0  0  0
M  END
>  <MODEL>
3

>  <REMARK>
 VINA RESULT:      -6.8      3.017      6.713
  Name = 
  6 active torsions:
  status: ('A' for Active; 'I' for Inactive)
    1  A    between atoms: C_3  and  C_22
    2  A    between atoms: O_11  and  C_12
    3  A    between atoms: O_11  and  C_31
    4  A    between atoms: N_13  and  C_29
    5  A    between atoms: C_15  and  C_22
    6  A    between atoms: C_16  and  C_27
                            x       y       z     vdW  Elec       q    Type
                         _______ _______ _______ _____ _____    ______ ____

>  <TORSDO>
F 6

$$$$
=
 OpenBabel11052419043D

 32 36  0  0  1  0  0  0  0  0999 V2000
  189.4590  174.4880  142.1630 C   0  0  2  0  0  3  0  0  0  0  0  0
  191.8790  174.4940  141.9310 C   0  0  2  0  0  3  0  0  0  0  0  0
  188.1890  173.6930  141.9620 C   0  0  0  0  0  2  0  0  0  0  0  0
  190.5840  173.8920  141.8250 C   0  0  1  0  0  3  0  0  0  0  0  0
  192.6890  173.2330  141.9970 C   0  0  1  0  0  3  0  0  0  0  0  0
  191.9250  175.3470  143.1800 C   0  0  2  0  0  3  0  0  0  0  0  0
  194.4720  175.1560  143.5680 C   0  0  0  0  0  0  0  0  0  0  0  0
  190.6920  172.4780  141.4670 C   0  0  2  0  0  3  0  0  0  0  0  0
  194.8080  174.0960  142.8760 N   0  0  0  0  0  0  0  0  0  0  0  0
  192.0560  172.2930  141.1440 O   0  0  0  0  0  0  0  0  0  0  0  0
  189.7020  172.2370  140.3360 C   0  0  0  0  0  2  0  0  0  0  0  0
  190.8850  176.3140  143.1010 O   0  0  0  0  0  0  0  0  0  0  0  0
  189.6010  175.6850  143.1030 C   0  0  1  0  0  3  0  0  0  0  0  0
  193.2880  176.0500  143.2280 C   0  0  1  0  0  3  0  0  0  0  0  0
  194.1560  173.5020  141.7010 C   0  0  2  0  0  3  0  0  0  0  0  0
  188.2740  172.7170  140.7440 C   0  0  0  0  0  2  0  0  0  0  0  0
  193.5380  176.7910  142.0700 O   0  0  0  0  0  1  0  0  0  0  0  0
  188.4410  176.6980  143.0950 C   0  0  2  0  0  3  0  0  0  0  0  0
  188.8130  177.9410  143.6660 O   0  0  0  0  0  0  0  0  0  0  0  0
  187.8660  177.1960  144.3950 C   0  0  2  0  0  0  0  0  0  0  0  0
  188.3700  176.8410  145.8280 C   0  0  0  0  0  0  0  0  0  0  0  0
  187.3720  177.3360  146.8580 C   0  0  0  0  0  1  0  0  0  0  0  0
  189.6920  177.5410  146.0960 C   0  0  0  0  0  1  0  0  0  0  0  0
  188.6210  175.3590  146.0590 C   0  0  0  0  0  1  0  0  0  0  0  0
  185.5920  176.7760  143.7210 O   0  0  0  0  0  1  0  0  0  0  0  0
  186.4280  177.7450  144.2740 C   0  0  2  0  0  3  0  0  0  0  0  0
  186.3050  179.0430  143.4850 C   0  0  0  0  0  1  0  0  0  0  0  0
  194.3390  174.3400  140.5210 N   0  0  0  0  0  2  0  0  0  0  0  0
  195.7520  174.3050  140.1830 C   0  0  0  0  0  1  0  0  0  0  0  0
  195.2690  175.4810  144.6710 O   0  0  0  0  0  0  0  0  0  0  0  0
  194.1970  176.6030  146.5160 C   0  0  0  0  0  1  0  0  0  0  0  0
  194.8420  175.3220  146.0180 C   0  0  0  0  0  2  0  0  0  0  0  0
  1  3  1  1  0  0  0
  1 13  1  0  0  0  0
  2  5  1  0  0  0  0
  2  6  1  0  0  0  0
  4  2  1  0  0  0  0
  4  1  1  0  0  0  0
  6 14  1  0  0  0  0
  7 30  1  0  0  0  0
  8  4  1  0  0  0  0
  9  7  2  0  0  0  0
 10  8  1  0  0  0  0
 10  5  1  0  0  0  0
 11 16  1  0  0  0  0
 11  8  1  0  0  0  0
 12 13  1  0  0  0  0
 12  6  1  0  0  0  0
 14  7  1  0  0  0  0
 15  5  1  0  0  0  0
 15  9  1  0  0  0  0
 16  3  1  0  0  0  0
 17 14  1  0  0  0  0
 18 13  1  0  0  0  0
 18 19  1  0  0  0  0
 18 20  1  0  0  0  0
 19 20  1  0  0  0  0
 20 21  1  0  0  0  0
 21 24  1  0  0  0  0
 21 23  1  0  0  0  0
 21 22  1  0  0  0  0
 25 26  1  0  0  0  0
 26 20  1  0  0  0  0
 27 26  1  0  0  0  0
 28 15  1  0  0  0  0
 29 28  1  0  0  0  0
 30 32  1  0  0  0  0
 32 31  1  0  0  0  0
M  END
>  <MODEL>
4

>  <REMARK>
 VINA RESULT:      -6.4      2.482      5.311
  Name = 
  6 active torsions:
  status: ('A' for Active; 'I' for Inactive)
    1  A    between atoms: C_3  and  C_22
    2  A    between atoms: O_11  and  C_12
    3  A    between atoms: O_11  and  C_31
    4  A    between atoms: N_13  and  C_29
    5  A    between atoms: C_15  and  C_22
    6  A    between atoms: C_16  and  C_27
                            x       y       z     vdW  Elec       q    Type
                         _______ _______ _______ _____ _____    ______ ____

>  <TORSDO>
F 6

$$$$
=
 OpenBabel11052419043D

 32 36  0  0  1  0  0  0  0  0999 V2000
  189.1290  175.4240  144.7180 C   0  0  2  0  0  3  0  0  0  0  0  0
  187.3420  177.0700  144.8260 C   0  0  2  0  0  3  0  0  0  0  0  0
  189.9390  174.4110  145.4940 C   0  0  0  0  0  2  0  0  0  0  0  0
  188.1950  176.0670  145.3890 C   0  0  1  0  0  3  0  0  0  0  0  0
  186.2140  176.9580  145.8080 C   0  0  1  0  0  3  0  0  0  0  0  0
  186.9920  176.6780  143.4070 C   0  0  2  0  0  3  0  0  0  0  0  0
  184.7260  177.9140  143.3150 C   0  0  0  0  0  0  0  0  0  0  0  0
  187.7760  175.7260  146.7490 C   0  0  2  0  0  3  0  0  0  0  0  0
  184.4210  178.0880  144.5770 N   0  0  0  0  0  0  0  0  0  0  0  0
  186.7960  176.6930  147.0750 O   0  0  0  0  0  0  0  0  0  0  0  0
  189.0310  175.7350  147.6090 C   0  0  0  0  0  2  0  0  0  0  0  0
  188.2010  176.5230  142.6730 O   0  0  0  0  0  0  0  0  0  0  0  0
  188.9820  175.4450  143.1970 C   0  0  1  0  0  3  0  0  0  0  0  0
  186.1510  177.8050  142.7940 C   0  0  1  0  0  3  0  0  0  0  0  0
  185.3050  178.1760  145.7480 C   0  0  2  0  0  3  0  0  0  0  0  0
  190.1250  174.8090  146.9940 C   0  0  0  0  0  2  0  0  0  0  0  0
  186.8020  179.0400  142.8580 O   0  0  0  0  0  1  0  0  0  0  0  0
  190.2660  175.1920  142.3860 C   0  0  2  0  0  3  0  0  0  0  0  0
  189.9910  174.8870  141.0290 O   0  0  0  0  0  0  0  0  0  0  0  0
  190.5280  173.8330  141.7930 C   0  0  2  0  0  0  0  0  0  0  0  0
  189.5760  172.5980  141.8490 C   0  0  0  0  0  0  0  0  0  0  0  0
  189.7810  171.8530  143.1550 C   0  0  0  0  0  1  0  0  0  0  0  0
  189.9100  171.6410  140.7170 C   0  0  0  0  0  1  0  0  0  0  0  0
  188.1010  172.9320  141.6990 C   0  0  0  0  0  1  0  0  0  0  0  0
  192.8200  174.1760  142.4520 O   0  0  0  0  0  1  0  0  0  0  0  0
  192.0180  173.5550  141.4950 C   0  0  2  0  0  3  0  0  0  0  0  0
  192.4750  173.9600  140.0990 C   0  0  0  0  0  1  0  0  0  0  0  0
  186.0550  179.4270  145.7460 N   0  0  0  0  0  2  0  0  0  0  0  0
  186.1160  179.8930  147.1210 C   0  0  0  0  0  1  0  0  0  0  0  0
  183.6660  177.8410  142.4040 O   0  0  0  0  0  0  0  0  0  0  0  0
  182.4640  177.9990  140.3200 C   0  0  0  0  0  1  0  0  0  0  0  0
  183.7940  178.1790  141.0280 C   0  0  0  0  0  2  0  0  0  0  0  0
  1  4  1  0  0  0  0
  1  3  1  1  0  0  0
  2  4  1  0  0  0  0
  2  5  1  0  0  0  0
  3 16  1  0  0  0  0
  4  8  1  0  0  0  0
  5 10  1  0  0  0  0
  6  2  1  0  0  0  0
  7  9  2  0  0  0  0
  8 10  1  0  0  0  0
  8 11  1  0  0  0  0
  9 15  1  0  0  0  0
 12 13  1  0  0  0  0
 12  6  1  0  0  0  0
 13  1  1  0  0  0  0
 14 17  1  0  0  0  0
 14  7  1  0  0  0  0
 14  6  1  0  0  0  0
 15  5  1  0  0  0  0
 16 11  1  0  0  0  0
 18 13  1  0  0  0  0
 19 20  1  0  0  0  0
 19 18  1  0  0  0  0
 20 21  1  0  0  0  0
 20 18  1  0  0  0  0
 21 22  1  0  0  0  0
 23 21  1  0  0  0  0
 24 21  1  0  0  0  0
 26 20  1  0  0  0  0
 26 25  1  0  0  0  0
 27 26  1  0  0  0  0
 28 15  1  0  0  0  0
 28 29  1  0  0  0  0
 30  7  1  0  0  0  0
 31 32  1  0  0  0  0
 32 30  1  0  0  0  0
M  END
>  <MODEL>
5

>  <REMARK>
 VINA RESULT:      -6.4      2.882      6.786
  Name = 
  6 active torsions:
  status: ('A' for Active; 'I' for Inactive)
    1  A    between atoms: C_3  and  C_22
    2  A    between atoms: O_11  and  C_12
    3  A    between atoms: O_11  and  C_31
    4  A    between atoms: N_13  and  C_29
    5  A    between atoms: C_15  and  C_22
    6  A    between atoms: C_16  and  C_27
                            x       y       z     vdW  Elec       q    Type
                         _______ _______ _______ _____ _____    ______ ____

>  <TORSDO>
F 6

$$$$
=
 OpenBabel11052419043D

 32 36  0  0  1  0  0  0  0  0999 V2000
  189.7440  175.6320  144.7540 C   0  0  2  0  0  3  0  0  0  0  0  0
  188.0640  176.9960  143.6450 C   0  0  2  0  0  3  0  0  0  0  0  0
  190.0690  174.8010  145.9750 C   0  0  0  0  0  2  0  0  0  0  0  0
  188.5420  176.1690  144.7130 C   0  0  1  0  0  3  0  0  0  0  0  0
  186.5950  176.7800  143.8570 C   0  0  1  0  0  3  0  0  0  0  0  0
  188.6030  176.4680  142.3340 C   0  0  2  0  0  3  0  0  0  0  0  0
  186.6750  177.3430  140.8550 C   0  0  0  0  0  0  0  0  0  0  0  0
  187.4670  175.8560  145.6540 C   0  0  2  0  0  3  0  0  0  0  0  0
  185.7040  177.5500  141.7090 N   0  0  0  0  0  0  0  0  0  0  0  0
  186.3910  176.6850  145.2590 O   0  0  0  0  0  0  0  0  0  0  0  0
  188.0210  176.1070  147.0500 C   0  0  0  0  0  2  0  0  0  0  0  0
  190.0230  176.4490  142.4080 O   0  0  0  0  0  0  0  0  0  0  0  0
  190.4700  175.5350  143.4130 C   0  0  1  0  0  3  0  0  0  0  0  0
  188.1510  177.4160  141.2160 C   0  0  1  0  0  3  0  0  0  0  0  0
  185.7710  177.8420  143.1470 C   0  0  2  0  0  3  0  0  0  0  0  0
  189.3490  175.3170  147.2630 C   0  0  0  0  0  2  0  0  0  0  0  0
  188.5420  178.7360  141.4570 O   0  0  0  0  0  1  0  0  0  0  0  0
  192.0060  175.4250  143.4770 C   0  0  2  0  0  3  0  0  0  0  0  0
  192.5930  175.3800  142.1880 O   0  0  0  0  0  0  0  0  0  0  0  0
  192.6960  174.1970  142.9460 C   0  0  2  0  0  0  0  0  0  0  0  0
  192.0170  172.9820  142.2420 C   0  0  0  0  0  0  0  0  0  0  0  0
  193.0580  171.9240  141.9300 C   0  0  0  0  0  1  0  0  0  0  0  0
  191.4070  173.4280  140.9230 C   0  0  0  0  0  1  0  0  0  0  0  0
  190.8880  172.3440  143.0350 C   0  0  0  0  0  1  0  0  0  0  0  0
  194.0500  173.9870  144.9280 O   0  0  0  0  0  1  0  0  0  0  0  0
  194.1050  173.9660  143.5340 C   0  0  2  0  0  3  0  0  0  0  0  0
  195.1680  174.9430  143.0470 C   0  0  0  0  0  1  0  0  0  0  0  0
  186.2790  179.1890  143.3860 N   0  0  0  0  0  2  0  0  0  0  0  0
  185.2980  179.8790  144.2060 C   0  0  0  0  0  1  0  0  0  0  0  0
  186.3170  177.0570  139.5330 O   0  0  0  0  0  0  0  0  0  0  0  0
  186.6340  176.2560  137.2810 C   0  0  0  0  0  1  0  0  0  0  0  0
  186.9510  176.0510  138.7510 C   0  0  0  0  0  2  0  0  0  0  0  0
  1  3  1  6  0  0  0
  2  5  1  0  0  0  0
  2  4  1  0  0  0  0
  3 16  1  0  0  0  0
  4  1  1  0  0  0  0
  4  8  1  0  0  0  0
  5 10  1  0  0  0  0
  6 12  1  0  0  0  0
  6  2  1  0  0  0  0
  7 14  1  0  0  0  0
  7  9  2  0  0  0  0
  8 11  1  0  0  0  0
  9 15  1  0  0  0  0
 10  8  1  0  0  0  0
 11 16  1  0  0  0  0
 12 13  1  0  0  0  0
 13 18  1  0  0  0  0
 13  1  1  0  0  0  0
 14 17  1  0  0  0  0
 14  6  1  0  0  0  0
 15 28  1  0  0  0  0
 15  5  1  0  0  0  0
 19 20  1  0  0  0  0
 19 18  1  0  0  0  0
 20 18  1  0  0  0  0
 20 26  1  0  0  0  0
 21 20  1  0  0  0  0
 21 24  1  0  0  0  0
 22 21  1  0  0  0  0
 23 21  1  0  0  0  0
 26 25  1  0  0  0  0
 27 26  1  0  0  0  0
 28 29  1  0  0  0  0
 30  7  1  0  0  0  0
 31 32  1  0  0  0  0
 32 30  1  0  0  0  0
M  END
>  <MODEL>
6

>  <REMARK>
 VINA RESULT:      -6.4      2.673      6.425
  Name = 
  6 active torsions:
  status: ('A' for Active; 'I' for Inactive)
    1  A    between atoms: C_3  and  C_22
    2  A    between atoms: O_11  and  C_12
    3  A    between atoms: O_11  and  C_31
    4  A    between atoms: N_13  and  C_29
    5  A    between atoms: C_15  and  C_22
    6  A    between atoms: C_16  and  C_27
                            x       y       z     vdW  Elec       q    Type
                         _______ _______ _______ _____ _____    ______ ____

>  <TORSDO>
F 6

$$$$
=
 OpenBabel11052419043D

 32 36  0  0  1  0  0  0  0  0999 V2000
  191.5180  174.5270  141.9310 C   0  0  2  0  0  3  0  0  0  0  0  0
  193.9420  174.6950  141.8580 C   0  0  2  0  0  3  0  0  0  0  0  0
  190.2950  173.8610  141.3400 C   0  0  0  0  0  2  0  0  0  0  0  0
  192.6820  174.1620  141.4340 C   0  0  1  0  0  3  0  0  0  0  0  0
  194.8080  173.5490  141.4250 C   0  0  1  0  0  3  0  0  0  0  0  0
  193.8990  174.9320  143.3510 C   0  0  2  0  0  3  0  0  0  0  0  0
  196.4350  174.6600  143.7610 C   0  0  0  0  0  0  0  0  0  0  0  0
  192.8710  173.0410  140.5140 C   0  0  2  0  0  3  0  0  0  0  0  0
  196.8480  174.0070  142.7030 N   0  0  0  0  0  0  0  0  0  0  0  0
  194.2540  173.0480  140.2180 O   0  0  0  0  0  0  0  0  0  0  0  0
  191.9380  173.2810  139.3350 C   0  0  0  0  0  2  0  0  0  0  0  0
  192.8180  175.8120  143.6350 O   0  0  0  0  0  0  0  0  0  0  0  0
  191.5660  175.2080  143.2980 C   0  0  1  0  0  3  0  0  0  0  0  0
  195.2250  175.5820  143.7700 C   0  0  1  0  0  3  0  0  0  0  0  0
  196.2710  173.9570  141.3530 C   0  0  2  0  0  3  0  0  0  0  0  0
  190.4750  173.5030  139.8290 C   0  0  0  0  0  2  0  0  0  0  0  0
  195.4840  176.7540  143.0550 O   0  0  0  0  0  1  0  0  0  0  0  0
  190.3610  176.0970  143.6580 C   0  0  2  0  0  3  0  0  0  0  0  0
  190.5840  176.8480  144.8400 O   0  0  0  0  0  0  0  0  0  0  0  0
  189.5960  175.8480  144.9310 C   0  0  2  0  0  0  0  0  0  0  0  0
  189.9300  174.7840  146.0210 C   0  0  0  0  0  0  0  0  0  0  0  0
  189.7800  173.3910  145.4390 C   0  0  0  0  0  1  0  0  0  0  0  0
  188.9500  174.9070  147.1760 C   0  0  0  0  0  1  0  0  0  0  0  0
  191.3180  174.9170  146.6280 C   0  0  0  0  0  1  0  0  0  0  0  0
  187.5140  176.0390  143.7330 O   0  0  0  0  0  1  0  0  0  0  0  0
  188.1560  176.4060  144.9160 C   0  0  2  0  0  3  0  0  0  0  0  0
  188.0540  177.9140  145.1090 C   0  0  0  0  0  1  0  0  0  0  0  0
  196.4590  175.2240  140.6550 N   0  0  0  0  0  2  0  0  0  0  0  0
  197.1300  174.9280  139.4000 C   0  0  0  0  0  1  0  0  0  0  0  0
  197.1730  174.5030  144.9400 O   0  0  0  0  0  0  0  0  0  0  0  0
  196.8290  172.3470  145.9630 C   0  0  0  0  0  1  0  0  0  0  0  0
  196.6660  173.8500  146.0980 C   0  0  0  0  0  2  0  0  0  0  0  0
  1  3  1  1  0  0  0
  1 13  1  0  0  0  0
  2  6  1  0  0  0  0
  4  2  1  0  0  0  0
  4  1  1  0  0  0  0
  5  2  1  0  0  0  0
  6 12  1  0  0  0  0
  6 14  1  0  0  0  0
  7 14  1  0  0  0  0
  7 30  1  0  0  0  0
  8  4  1  0  0  0  0
  9  7  2  0  0  0  0
 10  8  1  0  0  0  0
 10  5  1  0  0  0  0
 11 16  1  0  0  0  0
 11  8  1  0  0  0  0
 13 12  1  0  0  0  0
 13 18  1  0  0  0  0
 15  5  1  0  0  0  0
 15  9  1  0  0  0  0
 16  3  1  0  0  0  0
 17 14  1  0  0  0  0
 18 19  1  0  0  0  0
 18 20  1  0  0  0  0
 19 20  1  0  0  0  0
 20 21  1  0  0  0  0
 21 24  1  0  0  0  0
 21 23  1  0  0  0  0
 22 21  1  0  0  0  0
 25 26  1  0  0  0  0
 26 20  1  0  0  0  0
 26 27  1  0  0  0  0
 28 15  1  0  0  0  0
 29 28  1  0  0  0  0
 30 32  1  0  0  0  0
 31 32  1  0  0  0  0
M  END
>  <MODEL>
7

>  <REMARK>
 VINA RESULT:      -6.2      3.453      6.530
  Name = 
  6 active torsions:
  status: ('A' for Active; 'I' for Inactive)
    1  A    between atoms: C_3  and  C_22
    2  A    between atoms: O_11  and  C_12
    3  A    between atoms: O_11  and  C_31
    4  A    between atoms: N_13  and  C_29
    5  A    between atoms: C_15  and  C_22
    6  A    between atoms: C_16  and  C_27
                            x       y       z     vdW  Elec       q    Type
                         _______ _______ _______ _____ _____    ______ ____

>  <TORSDO>
F 6

$$$$
=
 OpenBabel11052419043D

 32 36  0  0  1  0  0  0  0  0999 V2000
  192.8520  175.5530  143.7380 C   0  0  2  0  0  3  0  0  0  0  0  0
  193.1560  174.3410  141.6520 C   0  0  2  0  0  3  0  0  0  0  0  0
  193.4370  176.5800  144.6800 C   0  0  0  0  0  2  0  0  0  0  0  0
  193.5460  175.2930  142.6490 C   0  0  1  0  0  3  0  0  0  0  0  0
  193.9330  174.9140  140.5040 C   0  0  1  0  0  3  0  0  0  0  0  0
  191.6530  174.3870  141.4890 C   0  0  2  0  0  3  0  0  0  0  0  0
  191.6030  173.5930  139.0320 C   0  0  0  0  0  0  0  0  0  0  0  0
  194.7130  176.0600  142.2130 C   0  0  2  0  0  3  0  0  0  0  0  0
  192.8220  173.8260  138.6100 N   0  0  0  0  0  0  0  0  0  0  0  0
  195.1520  175.4070  141.0380 O   0  0  0  0  0  0  0  0  0  0  0  0
  195.6930  176.0650  143.3770 C   0  0  0  0  0  2  0  0  0  0  0  0
  191.0560  174.1200  142.7520 O   0  0  0  0  0  0  0  0  0  0  0  0
  191.3800  175.1440  143.6960 C   0  0  1  0  0  3  0  0  0  0  0  0
  191.2490  173.3020  140.4820 C   0  0  1  0  0  3  0  0  0  0  0  0
  194.0740  173.9060  139.3730 C   0  0  2  0  0  3  0  0  0  0  0  0
  195.0000  176.5800  144.6770 C   0  0  0  0  0  2  0  0  0  0  0  0
  191.7030  172.0360  140.8630 O   0  0  0  0  0  1  0  0  0  0  0  0
  190.6930  174.9360  145.0590 C   0  0  2  0  0  3  0  0  0  0  0  0
  189.3510  174.5010  144.9210 O   0  0  0  0  0  0  0  0  0  0  0  0
  189.5200  175.7950  145.4510 C   0  0  2  0  0  0  0  0  0  0  0  0
  188.8360  176.8870  144.5730 C   0  0  0  0  0  0  0  0  0  0  0  0
  189.8440  177.9640  144.2200 C   0  0  0  0  0  1  0  0  0  0  0  0
  187.7140  177.5480  145.3560 C   0  0  0  0  0  1  0  0  0  0  0  0
  188.2060  176.3640  143.2920 C   0  0  0  0  0  1  0  0  0  0  0  0
  190.3870  176.4360  147.6060 O   0  0  0  0  0  1  0  0  0  0  0  0
  189.2790  175.8700  146.9750 C   0  0  2  0  0  3  0  0  0  0  0  0
  188.9370  174.5400  147.6330 C   0  0  0  0  0  1  0  0  0  0  0  0
  194.4820  172.5900  139.8530 N   0  0  0  0  0  2  0  0  0  0  0  0
  195.7730  172.2960  139.2540 C   0  0  0  0  0  1  0  0  0  0  0  0
  190.5820  173.6000  138.0750 O   0  0  0  0  0  0  0  0  0  0  0  0
  188.2520  174.1940  137.9030 C   0  0  0  0  0  1  0  0  0  0  0  0
  189.2600  173.1470  138.3400 C   0  0  0  0  0  2  0  0  0  0  0  0
  1  3  1  6  0  0  0
  2  4  1  0  0  0  0
  4  1  1  0  0  0  0
  5 10  1  0  0  0  0
  5  2  1  0  0  0  0
  6  2  1  0  0  0  0
  6 12  1  0  0  0  0
  7 14  1  0  0  0  0
  8  4  1  0  0  0  0
  8 11  1  0  0  0  0
  9  7  2  0  0  0  0
  9 15  1  0  0  0  0
 10  8  1  0  0  0  0
 11 16  1  0  0  0  0
 12 13  1  0  0  0  0
 13  1  1  0  0  0  0
 13 18  1  0  0  0  0
 14 17  1  0  0  0  0
 14  6  1  0  0  0  0
 15 28  1  0  0  0  0
 15  5  1  0  0  0  0
 16  3  1  0  0  0  0
 18 20  1  0  0  0  0
 19 18  1  0  0  0  0
 19 20  1  0  0  0  0
 20 26  1  0  0  0  0
 21 23  1  0  0  0  0
 21 20  1  0  0  0  0
 22 21  1  0  0  0  0
 24 21  1  0  0  0  0
 26 25  1  0  0  0  0
 26 27  1  0  0  0  0
 29 28  1  0  0  0  0
 30 32  1  0  0  0  0
 30  7  1  0  0  0  0
 31 32  1  0  0  0  0
M  END
>  <MODEL>
8

>  <REMARK>
 VINA RESULT:      -6.1      2.685      3.791
  Name = 
  6 active torsions:
  status: ('A' for Active; 'I' for Inactive)
    1  A    between atoms: C_3  and  C_22
    2  A    between atoms: O_11  and  C_12
    3  A    between atoms: O_11  and  C_31
    4  A    between atoms: N_13  and  C_29
    5  A    between atoms: C_15  and  C_22
    6  A    between atoms: C_16  and  C_27
                            x       y       z     vdW  Elec       q    Type
                         _______ _______ _______ _____ _____    ______ ____

>  <TORSDO>
F 6

$$$$
=
 OpenBabel11052419043D

 32 36  0  0  1  0  0  0  0  0999 V2000
  192.6700  175.1190  145.1040 C   0  0  2  0  0  3  0  0  0  0  0  0
  193.3420  173.0690  143.9810 C   0  0  2  0  0  3  0  0  0  0  0  0
  193.1430  176.4160  145.7200 C   0  0  0  0  0  2  0  0  0  0  0  0
  193.6000  174.3390  144.5920 C   0  0  1  0  0  3  0  0  0  0  0  0
  194.5730  172.9950  143.1280 C   0  0  1  0  0  3  0  0  0  0  0  0
  192.0400  173.1470  143.2150 C   0  0  2  0  0  3  0  0  0  0  0  0
  192.6160  171.3250  141.4780 C   0  0  0  0  0  0  0  0  0  0  0  0
  194.9970  174.7330  144.4090 C   0  0  2  0  0  3  0  0  0  0  0  0
  193.9230  171.2480  141.5370 N   0  0  0  0  0  0  0  0  0  0  0  0
  195.6260  173.5850  143.8740 O   0  0  0  0  0  0  0  0  0  0  0  0
  195.5010  175.1960  145.7680 C   0  0  0  0  0  2  0  0  0  0  0  0
  191.0090  173.5310  144.1180 O   0  0  0  0  0  0  0  0  0  0  0  0
  191.2430  174.8470  144.6290 C   0  0  1  0  0  3  0  0  0  0  0  0
  191.7380  171.7550  142.6430 C   0  0  1  0  0  3  0  0  0  0  0  0
  194.8280  171.5750  142.6470 C   0  0  2  0  0  3  0  0  0  0  0  0
  194.5660  176.2980  146.3560 C   0  0  0  0  0  2  0  0  0  0  0  0
  191.7110  170.7740  143.6370 O   0  0  0  0  0  1  0  0  0  0  0  0
  190.1130  175.3350  145.5540 C   0  0  2  0  0  3  0  0  0  0  0  0
  188.8280  175.0460  145.0280 O   0  0  0  0  0  0  0  0  0  0  0  0
  189.1690  176.4120  145.0870 C   0  0  2  0  0  0  0  0  0  0  0  0
  189.1550  177.0860  143.6800 C   0  0  0  0  0  0  0  0  0  0  0  0
  190.3390  178.0260  143.5520 C   0  0  0  0  0  1  0  0  0  0  0  0
  187.8910  177.9160  143.5210 C   0  0  0  0  0  1  0  0  0  0  0  0
  189.1700  176.1120  142.5130 C   0  0  0  0  0  1  0  0  0  0  0  0
  189.3990  177.5400  147.2030 O   0  0  0  0  0  1  0  0  0  0  0  0
  188.4670  177.1710  146.2340 C   0  0  2  0  0  3  0  0  0  0  0  0
  187.3160  176.4160  146.8870 C   0  0  0  0  0  1  0  0  0  0  0  0
  194.7130  170.5960  143.7230 N   0  0  0  0  0  2  0  0  0  0  0  0
  195.2860  169.3530  143.2370 C   0  0  0  0  0  1  0  0  0  0  0  0
  192.0080  170.9700  140.2690 O   0  0  0  0  0  0  0  0  0  0  0  0
  190.3000  172.3200  139.2330 C   0  0  0  0  0  1  0  0  0  0  0  0
  190.6080  171.0710  140.0390 C   0  0  0  0  0  2  0  0  0  0  0  0
  1  3  1  6  0  0  0
  2  4  1  0  0  0  0
  3 16  1  0  0  0  0
  4  1  1  0  0  0  0
  5 10  1  0  0  0  0
  5  2  1  0  0  0  0
  6  2  1  0  0  0  0
  6 12  1  0  0  0  0
  7  9  2  0  0  0  0
  7 14  1  0  0  0  0
  8  4  1  0  0  0  0
  8 11  1  0  0  0  0
  9 15  1  0  0  0  0
 10  8  1  0  0  0  0
 11 16  1  0  0  0  0
 12 13  1  0  0  0  0
 13  1  1  0  0  0  0
 13 18  1  0  0  0  0
 14  6  1  0  0  0  0
 14 17  1  0  0  0  0
 15  5  1  0  0  0  0
 15 28  1  0  0  0  0
 19 20  1  0  0  0  0
 19 18  1  0  0  0  0
 20 18  1  0  0  0  0
 20 26  1  0  0  0  0
 21 20  1  0  0  0  0
 22 21  1  0  0  0  0
 23 21  1  0  0  0  0
 24 21  1  0  0  0  0
 26 27  1  0  0  0  0
 26 25  1  0  0  0  0
 29 28  1  0  0  0  0
 30  7  1  0  0  0  0
 31 32  1  0  0  0  0
 32 30  1  0  0  0  0
M  END
>  <MODEL>
9

>  <REMARK>
 VINA RESULT:      -6.1      2.668      3.822
  Name = 
  6 active torsions:
  status: ('A' for Active; 'I' for Inactive)
    1  A    between atoms: C_3  and  C_22
    2  A    between atoms: O_11  and  C_12
    3  A    between atoms: O_11  and  C_31
    4  A    between atoms: N_13  and  C_29
    5  A    between atoms: C_15  and  C_22
    6  A    between atoms: C_16  and  C_27
                            x       y       z     vdW  Elec       q    Type
                         _______ _______ _______ _____ _____    ______ ____

>  <TORSDO>
F 6

$$$$
