=
 OpenBabel11052420403D

 34 39  0  0  1  0  0  0  0  0999 V2000
  190.4310  175.5660  142.4520 C   0  0  0  0  0  0  0  0  0  0  0  0
  187.6660  174.8650  142.2740 C   0  0  0  0  0  3  0  0  0  0  0  0
  188.9270  177.4180  146.5620 C   0  0  0  0  0  0  0  0  0  0  0  0
  189.9900  174.2670  143.0970 C   0  0  1  0  0  0  0  0  0  0  0  0
  188.9910  174.4840  146.6160 O   0  0  0  0  0  1  0  0  0  0  0  0
  185.9640  177.1730  144.5340 C   0  0  1  0  0  3  0  0  0  0  0  0
  189.4170  175.1950  145.4920 C   0  0  2  0  0  3  0  0  0  0  0  0
  190.4900  177.2460  144.8210 F   0  0  0  0  0  0  0  0  0  0  0  0
  190.3320  174.2870  144.6280 C   0  0  2  0  0  3  0  0  0  0  0  0
  185.3940  177.6030  145.8760 C   0  0  1  0  0  0  0  0  0  0  0  0
  187.4120  177.3980  144.5690 N   0  0  2  0  0  0  0  0  0  0  0  0
  184.1280  178.4190  146.0300 C   0  0  0  0  0  1  0  0  0  0  0  0
  187.6800  177.7250  145.9130 N   0  0  0  0  0  0  0  0  0  0  0  0
  191.8140  174.4060  144.9820 C   0  0  0  0  0  1  0  0  0  0  0  0
  191.0280  176.3760  146.8110 F   0  0  0  0  0  0  0  0  0  0  0  0
  191.6540  175.8710  142.4090 O   0  0  0  0  0  0  0  0  0  0  0  0
  185.6980  175.8200  144.3280 O   0  0  0  0  0  1  0  0  0  0  0  0
  188.1560  176.0330  141.4760 C   0  0  1  0  0  3  0  0  0  0  0  0
  187.2270  177.2210  141.6730 C   0  0  1  0  0  3  0  0  0  0  0  0
  185.7920  176.8530  146.9930 O   0  0  0  0  0  0  0  0  0  0  0  0
  188.0590  178.3320  142.3290 C   0  0  1  0  0  3  0  0  0  0  0  0
  186.5100  178.0370  146.7130 C   0  0  2  0  0  3  0  0  0  0  0  0
  187.6440  178.6120  143.7820 C   0  0  0  0  0  2  0  0  0  0  0  0
  189.9890  176.5670  145.9100 C   0  0  0  0  0  0  0  0  0  0  0  0
  189.1360  177.8630  147.7240 O   0  0  0  0  0  0  0  0  0  0  0  0
  188.4870  174.0810  142.9850 C   0  0  0  0  0  3  0  0  0  0  0  0
  189.5050  177.8830  142.2660 C   0  0  0  0  0  2  0  0  0  0  0  0
  189.4600  176.4760  141.9350 N   0  0  0  0  0  0  0  0  0  0  0  0
  186.5870  177.6620  140.3530 C   0  0  1  0  0  3  0  0  0  0  0  0
  186.8000  176.6930  139.3720 O   0  0  0  0  0  1  0  0  0  0  0  0
  185.0970  177.9440  140.4800 C   0  0  0  0  0  1  0  0  0  0  0  0
  190.9280  171.8380  143.0500 C   0  0  0  0  0  2  0  0  0  0  0  0
  190.5840  173.0920  142.2670 C   0  0  0  0  0  3  0  0  0  0  0  0
  189.6690  171.8810  142.2040 C   0  0  0  0  0  2  0  0  0  0  0  0
  1  4  1  0  0  0  0
  2 26  2  0  0  0  0
  3 25  2  0  0  0  0
  4 33  1  6  0  0  0
  4  9  1  0  0  0  0
  6 17  1  1  0  0  0
  6 11  1  0  0  0  0
  6 10  1  0  0  0  0
  7 24  1  0  0  0  0
  7  5  1  1  0  0  0
  8 24  1  0  0  0  0
  9 14  1  6  0  0  0
  9  7  1  0  0  0  0
 10 12  1  1  0  0  0
 10 22  1  0  0  0  0
 10 20  1  0  0  0  0
 11 23  1  6  0  0  0
 11 13  1  0  0  0  0
 13  3  1  0  0  0  0
 13 22  1  0  0  0  0
 16  1  2  0  0  0  0
 18 19  1  0  0  0  0
 18 28  1  0  0  0  0
 18  2  1  1  0  0  0
 19 29  1  6  0  0  0
 19 21  1  0  0  0  0
 21 27  1  1  0  0  0
 21 23  1  0  0  0  0
 22 20  1  1  0  0  0
 24  3  1  0  0  0  0
 24 15  1  0  0  0  0
 26  4  1  0  0  0  0
 28 27  1  0  0  0  0
 28  1  1  0  0  0  0
 29 31  1  1  0  0  0
 30 29  1  0  0  0  0
 33 32  1  0  0  0  0
 34 33  1  0  0  0  0
 34 32  1  0  0  0  0
M  END
>  <MODEL>
1

>  <REMARK>
 VINA RESULT:      -8.0      0.000      0.000
  Name = 
  2 active torsions:
  status: ('A' for Active; 'I' for Inactive)
    1  A    between atoms: C_3  and  C_25
    2  A    between atoms: C_5  and  C_19
                            x       y       z     vdW  Elec       q    Type
                         _______ _______ _______ _____ _____    ______ ____

>  <TORSDO>
F 2

$$$$
=
 OpenBabel11052420403D

 34 39  0  0  1  0  0  0  0  0999 V2000
  189.8850  177.2790  144.6770 C   0  0  0  0  0  0  0  0  0  0  0  0
  190.1440  174.8170  146.1030 C   0  0  0  0  0  3  0  0  0  0  0  0
  189.6070  174.2660  141.0130 C   0  0  0  0  0  0  0  0  0  0  0  0
  188.6120  176.5760  145.1060 C   0  0  1  0  0  0  0  0  0  0  0  0
  187.1940  174.2190  142.6840 O   0  0  0  0  0  1  0  0  0  0  0  0
  191.2650  172.3990  143.6060 C   0  0  1  0  0  3  0  0  0  0  0  0
  188.2480  175.0910  142.9630 C   0  0  2  0  0  3  0  0  0  0  0  0
  189.9740  176.4020  141.9100 F   0  0  0  0  0  0  0  0  0  0  0  0
  187.7300  176.2550  143.8490 C   0  0  2  0  0  3  0  0  0  0  0  0
  191.0540  171.3390  142.5380 C   0  0  1  0  0  0  0  0  0  0  0  0
  191.0440  173.7090  142.9870 N   0  0  2  0  0  0  0  0  0  0  0  0
  191.9650  170.1450  142.3460 C   0  0  0  0  0  1  0  0  0  0  0  0
  190.5280  173.4070  141.7120 N   0  0  0  0  0  0  0  0  0  0  0  0
  187.2470  177.4620  143.0440 C   0  0  0  0  0  1  0  0  0  0  0  0
  188.0800  176.0460  140.7750 F   0  0  0  0  0  0  0  0  0  0  0  0
  189.8300  178.4200  144.1400 O   0  0  0  0  0  0  0  0  0  0  0  0
  190.3510  172.2040  144.6430 O   0  0  0  0  0  1  0  0  0  0  0  0
  191.3790  175.6250  145.8510 C   0  0  1  0  0  3  0  0  0  0  0  0
  192.4800  174.7310  145.2990 C   0  0  1  0  0  3  0  0  0  0  0  0
  189.7530  171.2180  142.0250 O   0  0  0  0  0  0  0  0  0  0  0  0
  192.8090  175.2500  143.8920 C   0  0  1  0  0  3  0  0  0  0  0  0
  190.6670  172.0210  141.3060 C   0  0  2  0  0  3  0  0  0  0  0  0
  192.3780  174.2800  142.7810 C   0  0  0  0  0  2  0  0  0  0  0  0
  188.9840  175.4780  141.6610 C   0  0  0  0  0  0  0  0  0  0  0  0
  189.2980  173.9890  139.8220 O   0  0  0  0  0  0  0  0  0  0  0  0
  188.9200  175.2480  145.7770 C   0  0  0  0  0  3  0  0  0  0  0  0
  192.0980  176.5790  143.7440 C   0  0  0  0  0  2  0  0  0  0  0  0
  191.1490  176.6350  144.8340 N   0  0  0  0  0  0  0  0  0  0  0  0
  193.7010  174.7070  146.2230 C   0  0  1  0  0  3  0  0  0  0  0  0
  194.7160  173.9380  145.6530 O   0  0  0  0  0  1  0  0  0  0  0  0
  194.2300  176.0970  146.5440 C   0  0  0  0  0  1  0  0  0  0  0  0
  186.4750  177.7430  146.0260 C   0  0  0  0  0  2  0  0  0  0  0  0
  187.9460  177.4250  146.2250 C   0  0  0  0  0  3  0  0  0  0  0  0
  186.8890  176.6620  147.0070 C   0  0  0  0  0  2  0  0  0  0  0  0
  1 28  1  0  0  0  0
  1  4  1  0  0  0  0
  3 24  1  0  0  0  0
  3 13  1  0  0  0  0
  4 26  1  0  0  0  0
  4 33  1  1  0  0  0
  6 17  1  1  0  0  0
  7  5  1  6  0  0  0
  7  9  1  0  0  0  0
  9 14  1  6  0  0  0
  9  4  1  0  0  0  0
 10 12  1  6  0  0  0
 10  6  1  0  0  0  0
 11 23  1  6  0  0  0
 11  6  1  0  0  0  0
 13 11  1  0  0  0  0
 15 24  1  0  0  0  0
 16  1  2  0  0  0  0
 18  2  1  6  0  0  0
 19 18  1  0  0  0  0
 19 29  1  1  0  0  0
 20 10  1  0  0  0  0
 21 23  1  6  0  0  0
 21 19  1  0  0  0  0
 22 13  1  0  0  0  0
 22 20  1  1  0  0  0
 22 10  1  0  0  0  0
 24  8  1  0  0  0  0
 24  7  1  0  0  0  0
 25  3  2  0  0  0  0
 26  2  2  0  0  0  0
 27 21  1  0  0  0  0
 27 28  1  0  0  0  0
 28 18  1  0  0  0  0
 29 31  1  6  0  0  0
 30 29  1  0  0  0  0
 32 33  1  0  0  0  0
 32 34  1  0  0  0  0
 33 34  1  0  0  0  0
M  END
>  <MODEL>
2

>  <REMARK>
 VINA RESULT:      -7.7      2.557      6.707
  Name = 
  2 active torsions:
  status: ('A' for Active; 'I' for Inactive)
    1  A    between atoms: C_3  and  C_25
    2  A    between atoms: C_5  and  C_19
                            x       y       z     vdW  Elec       q    Type
                         _______ _______ _______ _____ _____    ______ ____

>  <TORSDO>
F 2

$$$$
=
 OpenBabel11052420403D

 34 39  0  0  1  0  0  0  0  0999 V2000
  194.5090  175.4900  145.2680 C   0  0  0  0  0  0  0  0  0  0  0  0
  192.8110  176.4260  143.1690 C   0  0  0  0  0  3  0  0  0  0  0  0
  192.3770  171.3920  144.1530 C   0  0  0  0  0  0  0  0  0  0  0  0
  195.0240  175.3880  143.8460 C   0  0  1  0  0  0  0  0  0  0  0  0
  194.2880  172.2520  142.0980 O   0  0  0  0  0  1  0  0  0  0  0  0
  190.1440  173.9410  142.9390 C   0  0  1  0  0  3  0  0  0  0  0  0
  194.1120  172.9860  143.2720 C   0  0  2  0  0  3  0  0  0  0  0  0
  193.6070  172.7510  145.6170 F   0  0  0  0  0  0  0  0  0  0  0  0
  195.3500  173.8920  143.5020 C   0  0  2  0  0  3  0  0  0  0  0  0
  189.4990  172.6730  142.4040 C   0  0  1  0  0  0  0  0  0  0  0  0
  191.1220  173.5490  143.9590 N   0  0  2  0  0  0  0  0  0  0  0  0
  188.0120  172.5260  142.1580 C   0  0  0  0  0  1  0  0  0  0  0  0
  191.1880  172.1460  143.8560 N   0  0  0  0  0  0  0  0  0  0  0  0
  196.4370  173.2310  144.3510 C   0  0  0  0  0  1  0  0  0  0  0  0
  194.6710  171.0710  144.5930 F   0  0  0  0  0  0  0  0  0  0  0  0
  195.2580  175.1900  146.2380 O   0  0  0  0  0  0  0  0  0  0  0  0
  190.7870  174.6110  141.8980 O   0  0  0  0  0  1  0  0  0  0  0  0
  192.4090  176.7020  144.5850 C   0  0  1  0  0  3  0  0  0  0  0  0
  190.9480  176.3300  144.7900 C   0  0  1  0  0  3  0  0  0  0  0  0
  190.3360  171.7940  141.7010 O   0  0  0  0  0  0  0  0  0  0  0  0
  190.9190  175.2060  145.8360 C   0  0  1  0  0  3  0  0  0  0  0  0
  190.1260  171.5380  143.0750 C   0  0  2  0  0  3  0  0  0  0  0  0
  190.4930  173.8520  145.2470 C   0  0  0  0  0  2  0  0  0  0  0  0
  193.7040  172.0530  144.4330 C   0  0  0  0  0  0  0  0  0  0  0  0
  192.3140  170.1320  144.1650 O   0  0  0  0  0  0  0  0  0  0  0  0
  193.9760  175.8490  142.8480 C   0  0  0  0  0  3  0  0  0  0  0  0
  192.3160  175.1180  146.4140 C   0  0  0  0  0  2  0  0  0  0  0  0
  193.1570  175.8770  145.5160 N   0  0  0  0  0  0  0  0  0  0  0  0
  190.1100  177.5440  145.2030 C   0  0  1  0  0  3  0  0  0  0  0  0
  189.5980  178.1770  144.0710 O   0  0  0  0  0  1  0  0  0  0  0  0
  188.9740  177.1870  146.1500 C   0  0  0  0  0  1  0  0  0  0  0  0
  197.4260  175.8900  142.9750 C   0  0  0  0  0  2  0  0  0  0  0  0
  196.1860  176.4090  143.6800 C   0  0  0  0  0  3  0  0  0  0  0  0
  196.4510  176.7850  142.2320 C   0  0  0  0  0  2  0  0  0  0  0  0
  1 28  1  0  0  0  0
  1 16  2  0  0  0  0
  3 25  2  0  0  0  0
  3 24  1  0  0  0  0
  4 33  1  6  0  0  0
  4  1  1  0  0  0  0
  6 17  1  6  0  0  0
  6 11  1  0  0  0  0
  7  5  1  6  0  0  0
  7  9  1  0  0  0  0
  7 24  1  0  0  0  0
  9  4  1  0  0  0  0
  9 14  1  1  0  0  0
 10 12  1  6  0  0  0
 10  6  1  0  0  0  0
 10 22  1  0  0  0  0
 11 23  1  1  0  0  0
 13 11  1  0  0  0  0
 13  3  1  0  0  0  0
 18  2  1  6  0  0  0
 18 19  1  0  0  0  0
 18 28  1  0  0  0  0
 19 29  1  1  0  0  0
 19 21  1  0  0  0  0
 20 10  1  0  0  0  0
 21 23  1  6  0  0  0
 21 27  1  0  0  0  0
 22 20  1  6  0  0  0
 22 13  1  0  0  0  0
 24 15  1  0  0  0  0
 24  8  1  0  0  0  0
 26  2  2  0  0  0  0
 26  4  1  0  0  0  0
 28 27  1  0  0  0  0
 29 31  1  1  0  0  0
 30 29  1  0  0  0  0
 32 33  1  0  0  0  0
 34 32  1  0  0  0  0
 34 33  1  0  0  0  0
M  END
>  <MODEL>
3

>  <REMARK>
 VINA RESULT:      -7.3      3.722      6.401
  Name = 
  2 active torsions:
  status: ('A' for Active; 'I' for Inactive)
    1  A    between atoms: C_3  and  C_25
    2  A    between atoms: C_5  and  C_19
                            x       y       z     vdW  Elec       q    Type
                         _______ _______ _______ _____ _____    ______ ____

>  <TORSDO>
F 2

$$$$
=
 OpenBabel11052420403D

 34 39  0  0  1  0  0  0  0  0999 V2000
  189.5820  174.8980  145.5330 C   0  0  0  0  0  0  0  0  0  0  0  0
  189.9250  175.5310  142.7680 C   0  0  0  0  0  3  0  0  0  0  0  0
  194.3050  174.4540  145.2500 C   0  0  0  0  0  0  0  0  0  0  0  0
  189.8870  176.3380  145.1720 C   0  0  1  0  0  0  0  0  0  0  0  0
  193.4350  177.2540  145.1050 O   0  0  0  0  0  1  0  0  0  0  0  0
  193.1480  174.0700  141.8630 C   0  0  1  0  0  3  0  0  0  0  0  0
  192.5140  176.2210  145.2890 C   0  0  2  0  0  3  0  0  0  0  0  0
  192.2500  174.0540  146.3090 F   0  0  0  0  0  0  0  0  0  0  0  0
  191.2050  176.8000  145.8870 C   0  0  2  0  0  3  0  0  0  0  0  0
  194.6570  174.0920  141.6820 C   0  0  1  0  0  0  0  0  0  0  0  0
  192.8700  173.8560  143.2870 N   0  0  2  0  0  0  0  0  0  0  0  0
  195.3790  173.3780  140.5590 C   0  0  0  0  0  1  0  0  0  0  0  0
  194.1310  173.9690  143.9060 N   0  0  0  0  0  0  0  0  0  0  0  0
  191.1780  176.7860  147.4150 C   0  0  0  0  0  1  0  0  0  0  0  0
  193.6630  175.5030  147.2620 F   0  0  0  0  0  0  0  0  0  0  0  0
  189.3160  174.5840  146.7260 O   0  0  0  0  0  0  0  0  0  0  0  0
  192.6120  175.2920  141.4530 O   0  0  0  0  0  1  0  0  0  0  0  0
  189.4260  174.1660  143.1280 C   0  0  1  0  0  3  0  0  0  0  0  0
  190.2150  173.1090  142.3690 C   0  0  1  0  0  3  0  0  0  0  0  0
  195.3440  175.1540  142.2890 O   0  0  0  0  0  0  0  0  0  0  0  0
  190.9390  172.2560  143.4200 C   0  0  1  0  0  3  0  0  0  0  0  0
  195.2640  173.9360  143.0010 C   0  0  2  0  0  3  0  0  0  0  0  0
  192.4630  172.4540  143.4040 C   0  0  0  0  0  2  0  0  0  0  0  0
  193.1690  175.0460  146.0480 C   0  0  0  0  0  0  0  0  0  0  0  0
  195.4500  174.3980  145.7760 O   0  0  0  0  0  0  0  0  0  0  0  0
  190.1200  176.4920  143.6790 C   0  0  0  0  0  3  0  0  0  0  0  0
  190.3660  172.6490  144.7660 C   0  0  0  0  0  2  0  0  0  0  0  0
  189.6420  173.8790  144.5340 N   0  0  0  0  0  0  0  0  0  0  0  0
  189.3090  172.2790  141.4540 C   0  0  1  0  0  3  0  0  0  0  0  0
  187.9800  172.6660  141.6200 O   0  0  0  0  0  1  0  0  0  0  0  0
  189.6950  172.3820  139.9860 C   0  0  0  0  0  1  0  0  0  0  0  0
  188.0300  177.9160  144.2530 C   0  0  0  0  0  2  0  0  0  0  0  0
  188.6120  177.1850  145.4500 C   0  0  0  0  0  3  0  0  0  0  0  0
  187.3710  176.6450  144.7570 C   0  0  0  0  0  2  0  0  0  0  0  0
  1 16  2  0  0  0  0
  2 26  2  0  0  0  0
  3 25  2  0  0  0  0
  3 24  1  0  0  0  0
  4 33  1  1  0  0  0
  4  1  1  0  0  0  0
  4  9  1  0  0  0  0
  6 17  1  1  0  0  0
  6 11  1  0  0  0  0
  7  5  1  1  0  0  0
  7  9  1  0  0  0  0
  7 24  1  0  0  0  0
  9 14  1  1  0  0  0
 10 12  1  6  0  0  0
 10  6  1  0  0  0  0
 10 20  1  0  0  0  0
 10 22  1  0  0  0  0
 11 23  1  6  0  0  0
 11 13  1  0  0  0  0
 13  3  1  0  0  0  0
 18  2  1  6  0  0  0
 18 28  1  0  0  0  0
 19 29  1  1  0  0  0
 19 18  1  0  0  0  0
 19 21  1  0  0  0  0
 21 23  1  1  0  0  0
 21 27  1  0  0  0  0
 22 20  1  1  0  0  0
 22 13  1  0  0  0  0
 24  8  1  0  0  0  0
 24 15  1  0  0  0  0
 26  4  1  0  0  0  0
 28 27  1  0  0  0  0
 28  1  1  0  0  0  0
 29 31  1  6  0  0  0
 29 30  1  0  0  0  0
 32 34  1  0  0  0  0
 32 33  1  0  0  0  0
 34 33  1  0  0  0  0
M  END
>  <MODEL>
4

>  <REMARK>
 VINA RESULT:      -7.2      2.802      6.453
  Name = 
  2 active torsions:
  status: ('A' for Active; 'I' for Inactive)
    1  A    between atoms: C_3  and  C_25
    2  A    between atoms: C_5  and  C_19
                            x       y       z     vdW  Elec       q    Type
                         _______ _______ _______ _____ _____    ______ ____

>  <TORSDO>
F 2

$$$$
=
 OpenBabel11052420403D

 34 39  0  0  1  0  0  0  0  0999 V2000
  190.0900  176.6040  143.6160 C   0  0  0  0  0  0  0  0  0  0  0  0
  190.5360  174.4680  145.4600 C   0  0  0  0  0  3  0  0  0  0  0  0
  190.1160  172.9710  140.5530 C   0  0  0  0  0  0  0  0  0  0  0  0
  188.8750  175.8830  144.1660 C   0  0  1  0  0  0  0  0  0  0  0  0
  187.6930  173.0180  142.2090 O   0  0  0  0  0  1  0  0  0  0  0  0
  191.8890  171.7460  143.4360 C   0  0  1  0  0  3  0  0  0  0  0  0
  188.6660  174.0130  142.3250 C   0  0  2  0  0  3  0  0  0  0  0  0
  190.2900  175.2570  141.0500 F   0  0  0  0  0  0  0  0  0  0  0  0
  188.0400  175.2680  142.9890 C   0  0  2  0  0  3  0  0  0  0  0  0
  191.7830  170.4980  142.5760 C   0  0  1  0  0  0  0  0  0  0  0  0
  191.5670  172.9010  142.5920 N   0  0  2  0  0  0  0  0  0  0  0  0
  192.7940  169.3710  142.6000 C   0  0  0  0  0  1  0  0  0  0  0  0
  191.0960  172.3320  141.3920 N   0  0  0  0  0  0  0  0  0  0  0  0
  187.4690  176.2660  141.9810 C   0  0  0  0  0  1  0  0  0  0  0  0
  188.4480  174.5430  140.0020 F   0  0  0  0  0  0  0  0  0  0  0  0
  189.9470  177.6210  142.8820 O   0  0  0  0  0  0  0  0  0  0  0  0
  190.9820  171.6630  144.4920 O   0  0  0  0  0  1  0  0  0  0  0  0
  191.7020  175.3200  145.0640 C   0  0  1  0  0  3  0  0  0  0  0  0
  192.8810  174.4390  144.6800 C   0  0  1  0  0  3  0  0  0  0  0  0
  190.5040  170.1770  142.0950 O   0  0  0  0  0  0  0  0  0  0  0  0
  193.1850  174.7230  143.2020 C   0  0  1  0  0  3  0  0  0  0  0  0
  191.3560  170.9130  141.2420 C   0  0  2  0  0  3  0  0  0  0  0  0
  192.8510  173.5370  142.2850 C   0  0  0  0  0  2  0  0  0  0  0  0
  189.3840  174.2220  140.9740 C   0  0  0  0  0  0  0  0  0  0  0  0
  189.8470  172.4600  139.4320 O   0  0  0  0  0  0  0  0  0  0  0  0
  189.2840  174.7280  145.0640 C   0  0  0  0  0  3  0  0  0  0  0  0
  192.3660  175.9390  142.8190 C   0  0  0  0  0  2  0  0  0  0  0  0
  191.4020  176.1080  143.8830 N   0  0  0  0  0  0  0  0  0  0  0  0
  194.0880  174.6840  145.5910 C   0  0  1  0  0  3  0  0  0  0  0  0
  195.2500  174.7860  144.8270 O   0  0  0  0  0  1  0  0  0  0  0  0
  193.9340  175.9250  146.4590 C   0  0  0  0  0  1  0  0  0  0  0  0
  187.7890  176.3150  146.4930 C   0  0  0  0  0  2  0  0  0  0  0  0
  188.1240  176.8590  145.1160 C   0  0  0  0  0  3  0  0  0  0  0  0
  188.9510  177.2760  146.3210 C   0  0  0  0  0  2  0  0  0  0  0  0
  1 28  1  0  0  0  0
  1  4  1  0  0  0  0
  3 24  1  0  0  0  0
  3 13  1  0  0  0  0
  4 26  1  0  0  0  0
  4 33  1  1  0  0  0
  6 17  1  1  0  0  0
  7  5  1  6  0  0  0
  7  9  1  0  0  0  0
  9 14  1  6  0  0  0
  9  4  1  0  0  0  0
 10 12  1  1  0  0  0
 10  6  1  0  0  0  0
 11 23  1  6  0  0  0
 11  6  1  0  0  0  0
 13 11  1  0  0  0  0
 15 24  1  0  0  0  0
 16  1  2  0  0  0  0
 18  2  1  6  0  0  0
 19 18  1  0  0  0  0
 19 29  1  1  0  0  0
 20 10  1  0  0  0  0
 21 23  1  6  0  0  0
 21 19  1  0  0  0  0
 22 13  1  0  0  0  0
 22 20  1  1  0  0  0
 22 10  1  0  0  0  0
 24  8  1  0  0  0  0
 24  7  1  0  0  0  0
 25  3  2  0  0  0  0
 26  2  2  0  0  0  0
 27 21  1  0  0  0  0
 27 28  1  0  0  0  0
 28 18  1  0  0  0  0
 29 31  1  6  0  0  0
 30 29  1  0  0  0  0
 33 34  1  0  0  0  0
 33 32  1  0  0  0  0
 34 32  1  0  0  0  0
M  END
>  <MODEL>
5

>  <REMARK>
 VINA RESULT:      -7.2      2.997      7.019
  Name = 
  2 active torsions:
  status: ('A' for Active; 'I' for Inactive)
    1  A    between atoms: C_3  and  C_25
    2  A    between atoms: C_5  and  C_19
                            x       y       z     vdW  Elec       q    Type
                         _______ _______ _______ _____ _____    ______ ____

>  <TORSDO>
F 2

$$$$
=
 OpenBabel11052420403D

 34 39  0  0  1  0  0  0  0  0999 V2000
  191.4350  176.5560  143.6280 C   0  0  0  0  0  0  0  0  0  0  0  0
  193.1000  175.4130  145.6480 C   0  0  0  0  0  3  0  0  0  0  0  0
  191.1100  171.9880  142.3600 C   0  0  0  0  0  0  0  0  0  0  0  0
  190.7660  176.0550  144.8920 C   0  0  1  0  0  0  0  0  0  0  0  0
  189.6360  172.5690  144.8310 O   0  0  0  0  0  1  0  0  0  0  0  0
  194.1410  172.1860  144.2910 C   0  0  1  0  0  3  0  0  0  0  0  0
  190.2950  173.5800  144.1290 C   0  0  2  0  0  3  0  0  0  0  0  0
  190.9020  174.2800  141.9050 F   0  0  0  0  0  0  0  0  0  0  0  0
  189.7040  174.9560  144.5360 C   0  0  2  0  0  3  0  0  0  0  0  0
  194.0060  170.6890  144.0670 C   0  0  1  0  0  0  0  0  0  0  0  0
  193.2320  172.8630  143.3620 N   0  0  2  0  0  0  0  0  0  0  0  0
  195.1840  169.7390  143.9950 C   0  0  0  0  0  1  0  0  0  0  0  0
  192.4700  171.8190  142.8010 N   0  0  0  0  0  0  0  0  0  0  0  0
  188.5470  175.4070  143.6440 C   0  0  0  0  0  1  0  0  0  0  0  0
  189.0310  173.0820  142.1600 F   0  0  0  0  0  0  0  0  0  0  0  0
  190.7610  177.1650  142.7510 O   0  0  0  0  0  0  0  0  0  0  0  0
  193.7910  172.4930  145.6060 O   0  0  0  0  0  1  0  0  0  0  0  0
  193.7570  176.0940  144.4870 C   0  0  1  0  0  3  0  0  0  0  0  0
  194.8560  175.2080  143.9210 C   0  0  1  0  0  3  0  0  0  0  0  0
  192.7650  170.1190  144.3860 O   0  0  0  0  0  0  0  0  0  0  0  0
  194.4550  174.8700  142.4770 C   0  0  1  0  0  3  0  0  0  0  0  0
  192.9880  170.4850  143.0390 C   0  0  2  0  0  3  0  0  0  0  0  0
  194.0810  173.3920  142.2910 C   0  0  0  0  0  2  0  0  0  0  0  0
  190.3290  173.2520  142.6210 C   0  0  0  0  0  0  0  0  0  0  0  0
  190.5450  171.0420  141.7480 O   0  0  0  0  0  0  0  0  0  0  0  0
  191.7740  175.4060  145.8250 C   0  0  0  0  0  3  0  0  0  0  0  0
  193.2790  175.7630  142.1360 C   0  0  0  0  0  2  0  0  0  0  0  0
  192.8200  176.2990  143.3980 N   0  0  0  0  0  0  0  0  0  0  0  0
  196.2270  175.8850  144.0110 C   0  0  1  0  0  3  0  0  0  0  0  0
  197.2080  174.9390  144.3050 O   0  0  0  0  0  1  0  0  0  0  0  0
  196.6030  176.6360  142.7430 C   0  0  0  0  0  1  0  0  0  0  0  0
  188.9180  177.1100  146.3940 C   0  0  0  0  0  2  0  0  0  0  0  0
  190.2490  177.2890  145.6860 C   0  0  0  0  0  3  0  0  0  0  0  0
  190.2110  177.0630  147.1880 C   0  0  0  0  0  2  0  0  0  0  0  0
  1  4  1  0  0  0  0
  2 26  2  0  0  0  0
  3 24  1  0  0  0  0
  3 13  1  0  0  0  0
  4 33  1  1  0  0  0
  4 26  1  0  0  0  0
  6 17  1  1  0  0  0
  7  9  1  0  0  0  0
  7  5  1  1  0  0  0
  8 24  1  0  0  0  0
  9 14  1  6  0  0  0
  9  4  1  0  0  0  0
 10 12  1  1  0  0  0
 10  6  1  0  0  0  0
 10 20  1  0  0  0  0
 11 23  1  6  0  0  0
 11  6  1  0  0  0  0
 13 22  1  0  0  0  0
 13 11  1  0  0  0  0
 15 24  1  0  0  0  0
 16  1  2  0  0  0  0
 18  2  1  1  0  0  0
 19 29  1  6  0  0  0
 19 18  1  0  0  0  0
 21 27  1  1  0  0  0
 21 19  1  0  0  0  0
 22 10  1  0  0  0  0
 22 20  1  1  0  0  0
 23 21  1  0  0  0  0
 24  7  1  0  0  0  0
 25  3  2  0  0  0  0
 27 28  1  0  0  0  0
 28  1  1  0  0  0  0
 28 18  1  0  0  0  0
 29 31  1  6  0  0  0
 29 30  1  0  0  0  0
 32 34  1  0  0  0  0
 33 32  1  0  0  0  0
 33 34  1  0  0  0  0
M  END
>  <MODEL>
6

>  <REMARK>
 VINA RESULT:      -7.1      3.556      7.515
  Name = 
  2 active torsions:
  status: ('A' for Active; 'I' for Inactive)
    1  A    between atoms: C_3  and  C_25
    2  A    between atoms: C_5  and  C_19
                            x       y       z     vdW  Elec       q    Type
                         _______ _______ _______ _____ _____    ______ ____

>  <TORSDO>
F 2

$$$$
=
 OpenBabel11052420403D

 34 39  0  0  1  0  0  0  0  0999 V2000
  190.8770  174.9900  145.0960 C   0  0  0  0  0  0  0  0  0  0  0  0
  191.1440  176.4170  142.6350 C   0  0  0  0  0  3  0  0  0  0  0  0
  195.6110  174.9000  144.6940 C   0  0  0  0  0  0  0  0  0  0  0  0
  191.1030  176.4870  145.1700 C   0  0  1  0  0  0  0  0  0  0  0  0
  194.5990  177.5700  145.3710 O   0  0  0  0  0  1  0  0  0  0  0  0
  194.4220  175.4560  141.3430 C   0  0  1  0  0  3  0  0  0  0  0  0
  193.7340  176.4810  145.2460 C   0  0  2  0  0  3  0  0  0  0  0  0
  193.5970  174.1000  145.5920 F   0  0  0  0  0  0  0  0  0  0  0  0
  192.4070  176.7910  145.9880 C   0  0  2  0  0  3  0  0  0  0  0  0
  195.9240  175.6090  141.1750 C   0  0  1  0  0  0  0  0  0  0  0  0
  194.1780  174.8230  142.6430 N   0  0  2  0  0  0  0  0  0  0  0  0
  196.6640  175.2920  139.8920 C   0  0  0  0  0  1  0  0  0  0  0  0
  195.4410  174.8170  143.2670 N   0  0  0  0  0  0  0  0  0  0  0  0
  192.4050  176.3320  147.4460 C   0  0  0  0  0  1  0  0  0  0  0  0
  194.9490  175.2830  146.9240 F   0  0  0  0  0  0  0  0  0  0  0  0
  190.6470  174.3300  146.1470 O   0  0  0  0  0  0  0  0  0  0  0  0
  193.8180  176.7130  141.3070 O   0  0  0  0  0  1  0  0  0  0  0  0
  190.7200  174.9810  142.5820 C   0  0  1  0  0  3  0  0  0  0  0  0
  191.5500  174.2340  141.5480 C   0  0  1  0  0  3  0  0  0  0  0  0
  196.5660  176.4830  142.0650 O   0  0  0  0  0  0  0  0  0  0  0  0
  192.3330  173.1520  142.3050 C   0  0  1  0  0  3  0  0  0  0  0  0
  196.5600  175.1080  142.3910 C   0  0  2  0  0  3  0  0  0  0  0  0
  193.8440  173.4270  142.3470 C   0  0  0  0  0  2  0  0  0  0  0  0
  194.4590  175.1730  145.6300 C   0  0  0  0  0  0  0  0  0  0  0  0
  196.7660  174.7540  145.1800 O   0  0  0  0  0  0  0  0  0  0  0  0
  191.3040  177.0800  143.7860 C   0  0  0  0  0  3  0  0  0  0  0  0
  191.7620  173.1070  143.7070 C   0  0  0  0  0  2  0  0  0  0  0  0
  190.9720  174.3110  143.8440 N   0  0  0  0  0  0  0  0  0  0  0  0
  190.6730  173.6590  140.4320 C   0  0  1  0  0  3  0  0  0  0  0  0
  190.8660  172.2820  140.3340 O   0  0  0  0  0  1  0  0  0  0  0  0
  189.1930  173.9580  140.6260 C   0  0  0  0  0  1  0  0  0  0  0  0
  188.9900  177.9160  144.6470 C   0  0  0  0  0  2  0  0  0  0  0  0
  189.7910  177.1480  145.6820 C   0  0  0  0  0  3  0  0  0  0  0  0
  188.5370  176.5340  145.0820 C   0  0  0  0  0  2  0  0  0  0  0  0
  1  4  1  0  0  0  0
  1 16  2  0  0  0  0
  2 26  2  0  0  0  0
  3 25  2  0  0  0  0
  3 24  1  0  0  0  0
  4 33  1  1  0  0  0
  4  9  1  0  0  0  0
  6 17  1  1  0  0  0
  6 11  1  0  0  0  0
  7  5  1  1  0  0  0
  7 24  1  0  0  0  0
  7  9  1  0  0  0  0
  8 24  1  0  0  0  0
  9 14  1  1  0  0  0
 10 12  1  6  0  0  0
 10  6  1  0  0  0  0
 10 20  1  0  0  0  0
 10 22  1  0  0  0  0
 11 23  1  6  0  0  0
 11 13  1  0  0  0  0
 13  3  1  0  0  0  0
 18  2  1  1  0  0  0
 18 28  1  0  0  0  0
 19 29  1  6  0  0  0
 19 21  1  0  0  0  0
 19 18  1  0  0  0  0
 21 23  1  1  0  0  0
 21 27  1  0  0  0  0
 22 20  1  1  0  0  0
 22 13  1  0  0  0  0
 24 15  1  0  0  0  0
 26  4  1  0  0  0  0
 27 28  1  0  0  0  0
 28  1  1  0  0  0  0
 29 31  1  1  0  0  0
 30 29  1  0  0  0  0
 32 34  1  0  0  0  0
 32 33  1  0  0  0  0
 34 33  1  0  0  0  0
M  END
>  <MODEL>
7

>  <REMARK>
 VINA RESULT:      -7.0      3.543      6.942
  Name = 
  2 active torsions:
  status: ('A' for Active; 'I' for Inactive)
    1  A    between atoms: C_3  and  C_25
    2  A    between atoms: C_5  and  C_19
                            x       y       z     vdW  Elec       q    Type
                         _______ _______ _______ _____ _____    ______ ____

>  <TORSDO>
F 2

$$$$
=
 OpenBabel11052420403D

 34 39  0  0  1  0  0  0  0  0999 V2000
  188.5740  173.3070  141.9410 C   0  0  0  0  0  0  0  0  0  0  0  0
  191.3160  173.3710  141.1390 C   0  0  0  0  0  3  0  0  0  0  0  0
  190.2220  176.3790  145.1710 C   0  0  0  0  0  0  0  0  0  0  0  0
  189.0000  174.3920  140.9720 C   0  0  1  0  0  0  0  0  0  0  0  0
  190.0910  177.5480  142.4810 O   0  0  0  0  0  1  0  0  0  0  0  0
  193.1280  174.5560  144.0800 C   0  0  1  0  0  3  0  0  0  0  0  0
  189.6530  176.2440  142.7240 C   0  0  2  0  0  3  0  0  0  0  0  0
  188.6130  174.8570  144.3970 F   0  0  0  0  0  0  0  0  0  0  0  0
  188.6970  175.8040  141.5840 C   0  0  2  0  0  3  0  0  0  0  0  0
  193.7400  175.6240  144.9700 C   0  0  1  0  0  0  0  0  0  0  0  0
  191.6860  174.5230  144.3450 N   0  0  2  0  0  0  0  0  0  0  0  0
  195.0290  175.4380  145.7430 C   0  0  0  0  0  1  0  0  0  0  0  0
  191.4600  175.6440  145.1680 N   0  0  0  0  0  0  0  0  0  0  0  0
  187.2270  176.1060  141.8750 C   0  0  0  0  0  1  0  0  0  0  0  0
  188.1050  177.0350  144.3680 F   0  0  0  0  0  0  0  0  0  0  0  0
  187.3570  173.1680  142.2450 O   0  0  0  0  0  0  0  0  0  0  0  0
  193.3570  174.8770  142.7420 O   0  0  0  0  0  1  0  0  0  0  0  0
  190.8340  172.1940  141.9300 C   0  0  1  0  0  3  0  0  0  0  0  0
  191.7960  171.9110  143.0740 C   0  0  1  0  0  3  0  0  0  0  0  0
  193.3530  176.9480  144.7140 O   0  0  0  0  0  0  0  0  0  0  0  0
  191.0060  172.1060  144.3770 C   0  0  1  0  0  3  0  0  0  0  0  0
  192.6560  176.2480  145.7250 C   0  0  2  0  0  3  0  0  0  0  0  0
  191.4630  173.3350  145.1750 C   0  0  0  0  0  2  0  0  0  0  0  0
  189.1250  176.1150  144.1690 C   0  0  0  0  0  0  0  0  0  0  0  0
  190.0530  177.2860  146.0300 O   0  0  0  0  0  0  0  0  0  0  0  0
  190.4950  174.3380  140.7110 C   0  0  0  0  0  3  0  0  0  0  0  0
  189.5490  172.2390  143.9830 C   0  0  0  0  0  2  0  0  0  0  0  0
  189.5530  172.4680  142.5550 N   0  0  0  0  0  0  0  0  0  0  0  0
  192.4120  170.5130  142.9590 C   0  0  1  0  0  3  0  0  0  0  0  0
  192.5460  169.9440  144.2240 O   0  0  0  0  0  1  0  0  0  0  0  0
  191.6100  169.5830  142.0600 C   0  0  0  0  0  1  0  0  0  0  0  0
  189.3240  173.6880  138.4860 C   0  0  0  0  0  2  0  0  0  0  0  0
  188.3580  174.0810  139.5890 C   0  0  0  0  0  3  0  0  0  0  0  0
  188.4940  172.6240  139.1800 C   0  0  0  0  0  2  0  0  0  0  0  0
  1 16  2  0  0  0  0
  1 28  1  0  0  0  0
  3 25  2  0  0  0  0
  4 33  1  6  0  0  0
  4  9  1  0  0  0  0
  4  1  1  0  0  0  0
  6 17  1  6  0  0  0
  6 11  1  0  0  0  0
  6 10  1  0  0  0  0
  7  5  1  6  0  0  0
  7 24  1  0  0  0  0
  9 14  1  1  0  0  0
  9  7  1  0  0  0  0
 10 22  1  0  0  0  0
 10 12  1  1  0  0  0
 11 13  1  0  0  0  0
 11 23  1  1  0  0  0
 13  3  1  0  0  0  0
 13 22  1  0  0  0  0
 18  2  1  1  0  0  0
 18 28  1  0  0  0  0
 18 19  1  0  0  0  0
 19 29  1  6  0  0  0
 19 21  1  0  0  0  0
 20 10  1  0  0  0  0
 21 27  1  6  0  0  0
 21 23  1  0  0  0  0
 22 20  1  6  0  0  0
 24 15  1  0  0  0  0
 24  8  1  0  0  0  0
 24  3  1  0  0  0  0
 26  4  1  0  0  0  0
 26  2  2  0  0  0  0
 28 27  1  0  0  0  0
 29 31  1  6  0  0  0
 29 30  1  0  0  0  0
 32 34  1  0  0  0  0
 32 33  1  0  0  0  0
 34 33  1  0  0  0  0
M  END
>  <MODEL>
8

>  <REMARK>
 VINA RESULT:      -6.9      2.873      6.040
  Name = 
  2 active torsions:
  status: ('A' for Active; 'I' for Inactive)
    1  A    between atoms: C_3  and  C_25
    2  A    between atoms: C_5  and  C_19
                            x       y       z     vdW  Elec       q    Type
                         _______ _______ _______ _____ _____    ______ ____

>  <TORSDO>
F 2

$$$$
=
 OpenBabel11052420403D

 34 39  0  0  1  0  0  0  0  0999 V2000
  191.3180  176.6610  144.6820 C   0  0  0  0  0  0  0  0  0  0  0  0
  192.8940  174.3490  145.2630 C   0  0  0  0  0  3  0  0  0  0  0  0
  190.0140  173.9300  141.0180 C   0  0  0  0  0  0  0  0  0  0  0  0
  190.6720  175.5530  145.4910 C   0  0  1  0  0  0  0  0  0  0  0  0
  188.8910  172.9940  143.5630 O   0  0  0  0  0  1  0  0  0  0  0  0
  193.1760  172.5790  142.0820 C   0  0  1  0  0  3  0  0  0  0  0  0
  189.6720  174.1500  143.5000 C   0  0  2  0  0  3  0  0  0  0  0  0
  190.2150  176.0150  142.0740 F   0  0  0  0  0  0  0  0  0  0  0  0
  189.3930  175.0260  144.7500 C   0  0  2  0  0  3  0  0  0  0  0  0
  192.7370  171.5690  141.0350 C   0  0  1  0  0  0  0  0  0  0  0  0
  192.3400  173.7750  141.9300 N   0  0  2  0  0  0  0  0  0  0  0  0
  193.6990  170.7580  140.1930 C   0  0  0  0  0  1  0  0  0  0  0  0
  191.3480  173.3880  141.0090 N   0  0  0  0  0  0  0  0  0  0  0  0
  188.2740  176.0470  144.5390 C   0  0  0  0  0  1  0  0  0  0  0  0
  188.1750  175.1130  141.9000 F   0  0  0  0  0  0  0  0  0  0  0  0
  190.7030  177.7460  144.4880 O   0  0  0  0  0  0  0  0  0  0  0  0
  193.0020  172.0370  143.3550 O   0  0  0  0  0  1  0  0  0  0  0  0
  193.5700  175.5340  144.6460 C   0  0  1  0  0  3  0  0  0  0  0  0
  194.4270  175.0870  143.4710 C   0  0  1  0  0  3  0  0  0  0  0  0
  191.4400  171.0520  141.1710 O   0  0  0  0  0  0  0  0  0  0  0  0
  193.8490  175.7610  142.2180 C   0  0  1  0  0  3  0  0  0  0  0  0
  191.6160  172.1510  140.3000 C   0  0  2  0  0  3  0  0  0  0  0  0
  193.1830  174.7660  141.2570 C   0  0  0  0  0  2  0  0  0  0  0  0
  189.5150  174.8290  142.1220 C   0  0  0  0  0  0  0  0  0  0  0  0
  189.2270  173.6310  140.0780 O   0  0  0  0  0  0  0  0  0  0  0  0
  191.6100  174.3670  145.6430 C   0  0  0  0  0  3  0  0  0  0  0  0
  192.8440  176.7850  142.7040 C   0  0  0  0  0  2  0  0  0  0  0  0
  192.6030  176.4640  144.0930 N   0  0  0  0  0  0  0  0  0  0  0  0
  195.9060  175.4190  143.6940 C   0  0  1  0  0  3  0  0  0  0  0  0
  196.0630  176.7910  143.8880 O   0  0  0  0  0  1  0  0  0  0  0  0
  196.5140  174.6620  144.8650 C   0  0  0  0  0  1  0  0  0  0  0  0
  191.1910  175.2910  148.0290 C   0  0  0  0  0  2  0  0  0  0  0  0
  190.4710  176.0710  146.9430 C   0  0  0  0  0  3  0  0  0  0  0  0
  191.7430  176.6260  147.5630 C   0  0  0  0  0  2  0  0  0  0  0  0
  1  4  1  0  0  0  0
  2 26  2  0  0  0  0
  3 24  1  0  0  0  0
  4 26  1  0  0  0  0
  4 33  1  1  0  0  0
  6 17  1  1  0  0  0
  7  5  1  6  0  0  0
  7  9  1  0  0  0  0
  8 24  1  0  0  0  0
  9 14  1  6  0  0  0
  9  4  1  0  0  0  0
 10 12  1  6  0  0  0
 10 20  1  0  0  0  0
 10  6  1  0  0  0  0
 11 23  1  6  0  0  0
 11  6  1  0  0  0  0
 13  3  1  0  0  0  0
 13 11  1  0  0  0  0
 15 24  1  0  0  0  0
 16  1  2  0  0  0  0
 18  2  1  6  0  0  0
 19 29  1  1  0  0  0
 19 18  1  0  0  0  0
 21 23  1  6  0  0  0
 21 27  1  0  0  0  0
 21 19  1  0  0  0  0
 22 13  1  0  0  0  0
 22 10  1  0  0  0  0
 22 20  1  1  0  0  0
 24  7  1  0  0  0  0
 25  3  2  0  0  0  0
 27 28  1  0  0  0  0
 28 18  1  0  0  0  0
 28  1  1  0  0  0  0
 29 30  1  0  0  0  0
 29 31  1  1  0  0  0
 33 34  1  0  0  0  0
 33 32  1  0  0  0  0
 34 32  1  0  0  0  0
M  END
>  <MODEL>
9

>  <REMARK>
 VINA RESULT:      -6.8      3.343      7.175
  Name = 
  2 active torsions:
  status: ('A' for Active; 'I' for Inactive)
    1  A    between atoms: C_3  and  C_25
    2  A    between atoms: C_5  and  C_19
                            x       y       z     vdW  Elec       q    Type
                         _______ _______ _______ _____ _____    ______ ____

>  <TORSDO>
F 2

$$$$
