=
 OpenBabel11052417493D

 31 35  0  0  0  0  0  0  0  0999 V2000
  184.4420  178.5960  146.4490 C   0  0  0  0  0  0  0  0  0  0  0  0
  186.9570  177.5580  143.8470 C   0  0  0  0  0  0  0  0  0  0  0  0
  186.3250  177.6920  142.5720 C   0  0  0  0  0  0  0  0  0  0  0  0
  190.7090  176.5010  147.3860 O   0  0  0  0  0  0  0  0  0  0  0  0
  191.1660  176.2670  146.2340 C   0  0  0  0  0  0  0  0  0  0  0  0
  184.4300  178.2500  141.1470 C   0  0  0  0  0  0  0  0  0  0  0  0
  186.3360  177.8540  145.0970 C   0  0  0  0  0  0  0  0  0  0  0  0
  185.1870  178.4160  147.6150 C   0  0  0  0  0  3  0  0  0  0  0  0
  185.0020  178.1360  142.4130 C   0  0  0  0  0  3  0  0  0  0  0  0
  188.9840  176.9420  145.0790 C   0  0  0  0  0  0  0  0  0  0  0  0
  183.1650  179.0400  146.5240 F   0  0  0  0  0  0  0  0  0  0  0  0
  188.3560  176.9220  141.4920 C   0  0  0  0  0  3  0  0  0  0  0  0
  183.1540  178.6800  141.0090 F   0  0  0  0  0  0  0  0  0  0  0  0
  188.3580  177.2350  146.2460 N   0  0  0  0  0  0  0  0  0  0  0  0
  188.3030  177.0960  143.8630 C   0  0  0  0  0  0  0  0  0  0  0  0
  190.3410  176.4750  145.0780 N   0  0  0  0  0  2  0  0  0  0  0  0
  185.0120  178.3170  145.2060 C   0  0  0  0  0  3  0  0  0  0  0  0
  185.1850  177.9160  140.0250 C   0  0  0  0  0  3  0  0  0  0  0  0
  187.0790  177.6780  146.2920 C   0  0  0  0  0  0  0  0  0  0  0  0
  186.5030  177.9580  147.5340 C   0  0  0  0  0  3  0  0  0  0  0  0
  188.9470  176.7980  142.7030 N   0  0  0  0  0  0  0  0  0  0  0  0
  187.0440  177.3670  141.3980 C   0  0  0  0  0  0  0  0  0  0  0  0
  186.4650  177.4860  140.1730 N   0  0  0  0  0  0  0  0  0  0  0  0
  195.2230  174.9430  145.7620 C   0  0  0  0  0  0  0  0  0  0  0  0
  193.6150  176.6610  146.3160 C   0  0  0  0  0  3  0  0  0  0  0  0
  191.8410  173.5390  145.3850 O   0  0  0  0  0  1  0  0  0  0  0  0
  196.5080  174.5410  145.6180 F   0  0  0  0  0  0  0  0  0  0  0  0
  194.9410  176.2480  146.1680 C   0  0  0  0  0  3  0  0  0  0  0  0
  192.8490  174.4580  145.6510 C   0  0  0  0  0  0  0  0  0  0  0  0
  192.5530  175.7780  146.0620 C   0  0  0  0  0  0  0  0  0  0  0  0
  194.1800  174.0520  145.5050 C   0  0  0  0  0  3  0  0  0  0  0  0
  1 11  1  0  0  0  0
  1  8  1  0  0  0  0
  2 15  1  0  0  0  0
  2  7  1  0  0  0  0
  3  2  2  0  0  0  0
  5  4  2  0  0  0  0
  6  9  2  0  0  0  0
  7 17  1  0  0  0  0
  7 19  2  0  0  0  0
  9  3  1  0  0  0  0
 10 14  2  0  0  0  0
 12 21  1  0  0  0  0
 13  6  1  0  0  0  0
 14 19  1  0  0  0  0
 15 10  1  0  0  0  0
 16 10  1  0  0  0  0
 16  5  1  0  0  0  0
 17  1  2  0  0  0  0
 18 23  2  0  0  0  0
 18  6  1  0  0  0  0
 19 20  1  0  0  0  0
 20  8  2  0  0  0  0
 21 15  2  0  0  0  0
 22 12  2  0  0  0  0
 22  3  1  0  0  0  0
 23 22  1  0  0  0  0
 24 28  1  0  0  0  0
 26 29  1  0  0  0  0
 27 24  1  0  0  0  0
 28 25  2  0  0  0  0
 29 30  2  0  0  0  0
 30  5  1  0  0  0  0
 30 25  1  0  0  0  0
 31 29  1  0  0  0  0
 31 24  2  0  0  0  0
M  END
>  <MODEL>
1

>  <REMARK>
 VINA RESULT:     -10.1      0.000      0.000
  Name = 
  1 active torsions:
  status: ('A' for Active; 'I' for Inactive)
    1  A    between atoms: C_9  and  C_22
                            x       y       z     vdW  Elec       q    Type
                         _______ _______ _______ _____ _____    ______ ____

>  <TORSDO>
F 1

$$$$
=
 OpenBabel11052417493D

 31 35  0  0  0  0  0  0  0  0999 V2000
  184.9390  178.0720  146.8820 C   0  0  0  0  0  0  0  0  0  0  0  0
  186.7460  177.6960  143.6010 C   0  0  0  0  0  0  0  0  0  0  0  0
  185.7770  177.8650  142.5630 C   0  0  0  0  0  0  0  0  0  0  0  0
  191.4210  176.8480  145.8710 O   0  0  0  0  0  0  0  0  0  0  0  0
  191.5680  176.8060  144.6190 C   0  0  0  0  0  0  0  0  0  0  0  0
  183.5140  178.2790  141.7660 C   0  0  0  0  0  0  0  0  0  0  0  0
  186.4620  177.7650  144.9970 C   0  0  0  0  0  0  0  0  0  0  0  0
  185.9900  177.8850  147.7790 C   0  0  0  0  0  3  0  0  0  0  0  0
  184.4200  178.1210  142.8140 C   0  0  0  0  0  3  0  0  0  0  0  0
  189.0910  177.2640  144.1700 C   0  0  0  0  0  0  0  0  0  0  0  0
  183.6880  178.3100  147.3440 F   0  0  0  0  0  0  0  0  0  0  0  0
  187.5100  177.5220  140.9000 C   0  0  0  0  0  3  0  0  0  0  0  0
  182.2080  178.5260  142.0240 F   0  0  0  0  0  0  0  0  0  0  0  0
  188.7780  177.3380  145.4890 N   0  0  0  0  0  0  0  0  0  0  0  0
  188.0890  177.4400  143.2050 C   0  0  0  0  0  0  0  0  0  0  0  0
  190.4390  177.0070  143.7550 N   0  0  0  0  0  2  0  0  0  0  0  0
  185.1740  178.0110  145.5070 C   0  0  0  0  0  3  0  0  0  0  0  0
  183.9660  178.1790  140.4530 C   0  0  0  0  0  3  0  0  0  0  0  0
  187.5190  177.5780  145.9240 C   0  0  0  0  0  0  0  0  0  0  0  0
  187.2770  177.6390  147.2990 C   0  0  0  0  0  3  0  0  0  0  0  0
  188.4210  177.3630  141.8880 N   0  0  0  0  0  0  0  0  0  0  0  0
  186.1800  177.7740  141.2100 C   0  0  0  0  0  0  0  0  0  0  0  0
  185.2770  177.9320  140.2040 N   0  0  0  0  0  0  0  0  0  0  0  0
  195.3900  176.0510  142.8140 C   0  0  0  0  0  0  0  0  0  0  0  0
  192.9890  176.2720  142.6550 C   0  0  0  0  0  3  0  0  0  0  0  0
  194.0690  176.8440  146.1570 O   0  0  0  0  0  1  0  0  0  0  0  0
  196.5880  175.8100  142.2300 F   0  0  0  0  0  0  0  0  0  0  0  0
  194.2230  176.0240  142.0510 C   0  0  0  0  0  3  0  0  0  0  0  0
  194.0900  176.5750  144.7940 C   0  0  0  0  0  0  0  0  0  0  0  0
  192.9020  176.5500  144.0280 C   0  0  0  0  0  0  0  0  0  0  0  0
  195.3230  176.3250  144.1810 C   0  0  0  0  0  3  0  0  0  0  0  0
  1 11  1  0  0  0  0
  1  8  1  0  0  0  0
  2  7  1  0  0  0  0
  3  9  1  0  0  0  0
  3  2  2  0  0  0  0
  5  4  2  0  0  0  0
  6 13  1  0  0  0  0
  6  9  2  0  0  0  0
  7 17  1  0  0  0  0
  7 19  2  0  0  0  0
 10 14  2  0  0  0  0
 12 22  2  0  0  0  0
 12 21  1  0  0  0  0
 14 19  1  0  0  0  0
 15  2  1  0  0  0  0
 15 10  1  0  0  0  0
 16 10  1  0  0  0  0
 16  5  1  0  0  0  0
 17  1  2  0  0  0  0
 18  6  1  0  0  0  0
 19 20  1  0  0  0  0
 20  8  2  0  0  0  0
 21 15  2  0  0  0  0
 22  3  1  0  0  0  0
 23 18  2  0  0  0  0
 23 22  1  0  0  0  0
 24 31  1  0  0  0  0
 25 30  2  0  0  0  0
 27 24  1  0  0  0  0
 28 25  1  0  0  0  0
 28 24  2  0  0  0  0
 29 26  1  0  0  0  0
 30  5  1  0  0  0  0
 30 29  1  0  0  0  0
 31 29  2  0  0  0  0
M  END
>  <MODEL>
2

>  <REMARK>
 VINA RESULT:      -9.9      1.782      1.941
  Name = 
  1 active torsions:
  status: ('A' for Active; 'I' for Inactive)
    1  A    between atoms: C_9  and  C_22
                            x       y       z     vdW  Elec       q    Type
                         _______ _______ _______ _____ _____    ______ ____

>  <TORSDO>
F 1

$$$$
=
 OpenBabel11052417493D

 31 35  0  0  0  0  0  0  0  0999 V2000
  185.5820  177.9160  141.0460 C   0  0  0  0  0  0  0  0  0  0  0  0
  187.2060  177.4420  144.4090 C   0  0  0  0  0  0  0  0  0  0  0  0
  186.2500  177.8320  145.3980 C   0  0  0  0  0  0  0  0  0  0  0  0
  191.7330  175.6900  142.3710 O   0  0  0  0  0  0  0  0  0  0  0  0
  191.8350  175.7000  143.6270 C   0  0  0  0  0  0  0  0  0  0  0  0
  184.0660  178.6660  146.0830 C   0  0  0  0  0  0  0  0  0  0  0  0
  186.9770  177.4730  143.0010 C   0  0  0  0  0  0  0  0  0  0  0  0
  186.6130  177.5030  140.2010 C   0  0  0  0  0  3  0  0  0  0  0  0
  184.9630  178.2970  145.0810 C   0  0  0  0  0  3  0  0  0  0  0  0
  189.4590  176.5910  143.9550 C   0  0  0  0  0  0  0  0  0  0  0  0
  184.4040  178.3320  140.5230 F   0  0  0  0  0  0  0  0  0  0  0  0
  187.8500  177.3060  147.1430 C   0  0  0  0  0  3  0  0  0  0  0  0
  182.8290  179.1110  145.7630 F   0  0  0  0  0  0  0  0  0  0  0  0
  189.2010  176.6360  142.6230 N   0  0  0  0  0  0  0  0  0  0  0  0
  188.4740  176.9900  144.8700 C   0  0  0  0  0  0  0  0  0  0  0  0
  190.7320  176.1390  144.4360 N   0  0  0  0  0  2  0  0  0  0  0  0
  185.7650  177.9010  142.4290 C   0  0  0  0  0  3  0  0  0  0  0  0
  184.4570  178.5720  147.4170 C   0  0  0  0  0  3  0  0  0  0  0  0
  188.0140  177.0570  142.1280 C   0  0  0  0  0  0  0  0  0  0  0  0
  187.8250  177.0740  140.7420 C   0  0  0  0  0  3  0  0  0  0  0  0
  188.7500  176.9380  146.2010 N   0  0  0  0  0  0  0  0  0  0  0  0
  186.5920  177.7580  146.7690 C   0  0  0  0  0  0  0  0  0  0  0  0
  185.7000  178.1230  147.7290 N   0  0  0  0  0  0  0  0  0  0  0  0
  195.5090  174.5220  145.5110 C   0  0  0  0  0  0  0  0  0  0  0  0
  194.1390  176.1840  144.4150 C   0  0  0  0  0  3  0  0  0  0  0  0
  192.2670  172.9920  144.6770 O   0  0  0  0  0  1  0  0  0  0  0  0
  196.6740  174.1660  146.1030 F   0  0  0  0  0  0  0  0  0  0  0  0
  195.3410  175.8180  145.0250 C   0  0  0  0  0  3  0  0  0  0  0  0
  193.2690  173.9490  144.7780 C   0  0  0  0  0  0  0  0  0  0  0  0
  193.0890  175.2610  144.2820 C   0  0  0  0  0  0  0  0  0  0  0  0
  194.4770  173.5910  145.3880 C   0  0  0  0  0  3  0  0  0  0  0  0
  1 17  1  0  0  0  0
  2 15  2  0  0  0  0
  2  3  1  0  0  0  0
  3 22  1  0  0  0  0
  4  5  2  0  0  0  0
  5 30  1  0  0  0  0
  5 16  1  0  0  0  0
  6 18  2  0  0  0  0
  7  2  1  0  0  0  0
  8 20  1  0  0  0  0
  8  1  2  0  0  0  0
  9  3  2  0  0  0  0
  9  6  1  0  0  0  0
 10 16  1  0  0  0  0
 10 15  1  0  0  0  0
 11  1  1  0  0  0  0
 13  6  1  0  0  0  0
 14 10  2  0  0  0  0
 15 21  1  0  0  0  0
 17  7  2  0  0  0  0
 18 23  1  0  0  0  0
 19 14  1  0  0  0  0
 19  7  1  0  0  0  0
 20 19  2  0  0  0  0
 21 12  2  0  0  0  0
 22 12  1  0  0  0  0
 22 23  2  0  0  0  0
 24 27  1  0  0  0  0
 25 28  1  0  0  0  0
 26 29  1  0  0  0  0
 28 24  2  0  0  0  0
 29 31  2  0  0  0  0
 30 25  2  0  0  0  0
 30 29  1  0  0  0  0
 31 24  1  0  0  0  0
M  END
>  <MODEL>
3

>  <REMARK>
 VINA RESULT:      -9.1      1.496      4.107
  Name = 
  1 active torsions:
  status: ('A' for Active; 'I' for Inactive)
    1  A    between atoms: C_9  and  C_22
                            x       y       z     vdW  Elec       q    Type
                         _______ _______ _______ _____ _____    ______ ____

>  <TORSDO>
F 1

$$$$
=
 OpenBabel11052417493D

 31 35  0  0  0  0  0  0  0  0999 V2000
  190.8160  176.8710  147.4780 C   0  0  0  0  0  0  0  0  0  0  0  0
  188.2310  176.4720  144.7700 C   0  0  0  0  0  0  0  0  0  0  0  0
  187.0730  177.2020  145.1820 C   0  0  0  0  0  0  0  0  0  0  0  0
  191.3300  173.4550  141.7670 O   0  0  0  0  0  0  0  0  0  0  0  0
  190.2240  173.6050  141.1810 C   0  0  0  0  0  0  0  0  0  0  0  0
  185.8480  178.6070  146.7490 C   0  0  0  0  0  0  0  0  0  0  0  0
  189.4390  176.3720  145.5230 C   0  0  0  0  0  0  0  0  0  0  0  0
  191.8650  176.1210  146.9460 C   0  0  0  0  0  3  0  0  0  0  0  0
  187.0010  177.9100  146.3930 C   0  0  0  0  0  3  0  0  0  0  0  0
  189.2680  175.0640  143.0530 C   0  0  0  0  0  0  0  0  0  0  0  0
  190.9610  177.4790  148.6790 F   0  0  0  0  0  0  0  0  0  0  0  0
  185.9430  176.5470  143.1380 C   0  0  0  0  0  3  0  0  0  0  0  0
  185.7930  179.2850  147.9190 F   0  0  0  0  0  0  0  0  0  0  0  0
  190.3980  174.9950  143.8000 N   0  0  0  0  0  0  0  0  0  0  0  0
  188.1680  175.7990  143.5180 C   0  0  0  0  0  0  0  0  0  0  0  0
  189.1870  174.3910  141.7880 N   0  0  0  0  0  2  0  0  0  0  0  0
  189.6180  176.9930  146.7730 C   0  0  0  0  0  3  0  0  0  0  0  0
  184.7520  178.5990  145.8890 C   0  0  0  0  0  3  0  0  0  0  0  0
  190.5150  175.6140  144.9980 C   0  0  0  0  0  0  0  0  0  0  0  0
  191.7140  175.4940  145.7080 C   0  0  0  0  0  3  0  0  0  0  0  0
  187.0430  175.8580  142.7550 N   0  0  0  0  0  0  0  0  0  0  0  0
  185.9310  177.2290  144.3480 C   0  0  0  0  0  0  0  0  0  0  0  0
  184.8160  177.9160  144.7160 N   0  0  0  0  0  0  0  0  0  0  0  0
  189.5010  171.8660  137.3220 C   0  0  0  0  0  0  0  0  0  0  0  0
  189.6270  173.7910  138.7780 C   0  0  0  0  0  3  0  0  0  0  0  0
  190.4410  170.7180  140.6900 O   0  0  0  0  0  1  0  0  0  0  0  0
  189.2700  171.3330  136.0980 F   0  0  0  0  0  0  0  0  0  0  0  0
  189.3870  173.2420  137.5160 C   0  0  0  0  0  3  0  0  0  0  0  0
  190.0930  171.5790  139.6560 C   0  0  0  0  0  0  0  0  0  0  0  0
  189.9810  172.9720  139.8630 C   0  0  0  0  0  0  0  0  0  0  0  0
  189.8520  171.0370  138.3890 C   0  0  0  0  0  3  0  0  0  0  0  0
  1 11  1  0  0  0  0
  2  3  1  0  0  0  0
  2  7  1  0  0  0  0
  3  9  1  0  0  0  0
  5  4  2  0  0  0  0
  5 16  1  0  0  0  0
  6 13  1  0  0  0  0
  7 17  1  0  0  0  0
  8  1  1  0  0  0  0
  9  6  2  0  0  0  0
 10 15  1  0  0  0  0
 10 14  2  0  0  0  0
 12 22  1  0  0  0  0
 14 19  1  0  0  0  0
 15  2  2  0  0  0  0
 16 10  1  0  0  0  0
 17  1  2  0  0  0  0
 18  6  1  0  0  0  0
 19  7  2  0  0  0  0
 19 20  1  0  0  0  0
 20  8  2  0  0  0  0
 21 12  2  0  0  0  0
 21 15  1  0  0  0  0
 22 23  1  0  0  0  0
 22  3  2  0  0  0  0
 23 18  2  0  0  0  0
 24 28  2  0  0  0  0
 24 31  1  0  0  0  0
 25 30  2  0  0  0  0
 27 24  1  0  0  0  0
 28 25  1  0  0  0  0
 29 30  1  0  0  0  0
 29 26  1  0  0  0  0
 30  5  1  0  0  0  0
 31 29  2  0  0  0  0
M  END
>  <MODEL>
4

>  <REMARK>
 VINA RESULT:      -8.9      3.949      6.349
  Name = 
  1 active torsions:
  status: ('A' for Active; 'I' for Inactive)
    1  A    between atoms: C_9  and  C_22
                            x       y       z     vdW  Elec       q    Type
                         _______ _______ _______ _____ _____    ______ ____

>  <TORSDO>
F 1

$$$$
=
 OpenBabel11052417493D

 31 35  0  0  0  0  0  0  0  0999 V2000
  195.0590  174.0660  145.4590 C   0  0  0  0  0  0  0  0  0  0  0  0
  191.6190  173.3260  144.1200 C   0  0  0  0  0  0  0  0  0  0  0  0
  191.7070  172.1030  143.3850 C   0  0  0  0  0  0  0  0  0  0  0  0
  189.4780  177.6410  146.2460 O   0  0  0  0  0  0  0  0  0  0  0  0
  188.5800  177.0100  145.6250 C   0  0  0  0  0  0  0  0  0  0  0  0
  192.9330  170.1880  142.5120 C   0  0  0  0  0  0  0  0  0  0  0  0
  192.7130  173.9520  144.7880 C   0  0  0  0  0  0  0  0  0  0  0  0
  194.8200  175.2610  146.1380 C   0  0  0  0  0  3  0  0  0  0  0  0
  192.9000  171.3770  143.2400 C   0  0  0  0  0  3  0  0  0  0  0  0
  190.1880  175.1600  144.8910 C   0  0  0  0  0  0  0  0  0  0  0  0
  196.3030  173.5320  145.4460 F   0  0  0  0  0  0  0  0  0  0  0  0
  189.3400  172.2500  142.8710 C   0  0  0  0  0  3  0  0  0  0  0  0
  194.0910  169.5000  142.3820 F   0  0  0  0  0  0  0  0  0  0  0  0
  191.2540  175.7230  145.5130 N   0  0  0  0  0  0  0  0  0  0  0  0
  190.3460  173.9590  144.1860 C   0  0  0  0  0  0  0  0  0  0  0  0
  188.8980  175.7850  144.9470 N   0  0  0  0  0  2  0  0  0  0  0  0
  194.0160  173.4220  144.7920 C   0  0  0  0  0  3  0  0  0  0  0  0
  191.7640  169.7170  141.9210 C   0  0  0  0  0  3  0  0  0  0  0  0
  192.4890  175.1670  145.4830 C   0  0  0  0  0  0  0  0  0  0  0  0
  193.5370  175.8090  146.1490 C   0  0  0  0  0  3  0  0  0  0  0  0
  189.2660  173.4080  143.5690 N   0  0  0  0  0  0  0  0  0  0  0  0
  190.5500  171.5770  142.7630 C   0  0  0  0  0  0  0  0  0  0  0  0
  190.6070  170.4150  142.0580 N   0  0  0  0  0  0  0  0  0  0  0  0
  184.5760  178.5480  145.4290 C   0  0  0  0  0  0  0  0  0  0  0  0
  186.8040  178.3430  144.5150 C   0  0  0  0  0  3  0  0  0  0  0  0
  186.5640  176.4160  147.6760 O   0  0  0  0  0  1  0  0  0  0  0  0
  183.3160  179.0410  145.3530 F   0  0  0  0  0  0  0  0  0  0  0  0
  185.5060  178.8530  144.4360 C   0  0  0  0  0  3  0  0  0  0  0  0
  186.2410  177.2210  146.5910 C   0  0  0  0  0  0  0  0  0  0  0  0
  187.1910  177.5240  145.5880 C   0  0  0  0  0  0  0  0  0  0  0  0
  184.9420  177.7350  146.5030 C   0  0  0  0  0  3  0  0  0  0  0  0
  1  8  1  0  0  0  0
  2 15  1  0  0  0  0
  2  7  1  0  0  0  0
  3  2  2  0  0  0  0
  5  4  2  0  0  0  0
  6  9  2  0  0  0  0
  7 17  1  0  0  0  0
  7 19  2  0  0  0  0
  8 20  2  0  0  0  0
  9  3  1  0  0  0  0
 10 16  1  0  0  0  0
 10 14  2  0  0  0  0
 11  1  1  0  0  0  0
 12 21  1  0  0  0  0
 13  6  1  0  0  0  0
 15 10  1  0  0  0  0
 16  5  1  0  0  0  0
 17  1  2  0  0  0  0
 18 23  2  0  0  0  0
 18  6  1  0  0  0  0
 19 14  1  0  0  0  0
 19 20  1  0  0  0  0
 21 15  2  0  0  0  0
 22 12  2  0  0  0  0
 22  3  1  0  0  0  0
 23 22  1  0  0  0  0
 24 31  1  0  0  0  0
 25 30  2  0  0  0  0
 27 24  1  0  0  0  0
 28 25  1  0  0  0  0
 28 24  2  0  0  0  0
 29 26  1  0  0  0  0
 30  5  1  0  0  0  0
 30 29  1  0  0  0  0
 31 29  2  0  0  0  0
M  END
>  <MODEL>
5

>  <REMARK>
 VINA RESULT:      -8.5      3.053      8.543
  Name = 
  1 active torsions:
  status: ('A' for Active; 'I' for Inactive)
    1  A    between atoms: C_9  and  C_22
                            x       y       z     vdW  Elec       q    Type
                         _______ _______ _______ _____ _____    ______ ____

>  <TORSDO>
F 1

$$$$
=
 OpenBabel11052417493D

 31 35  0  0  0  0  0  0  0  0999 V2000
  192.2940  172.7120  139.8390 C   0  0  0  0  0  0  0  0  0  0  0  0
  192.0890  175.1810  142.6730 C   0  0  0  0  0  0  0  0  0  0  0  0
  193.4250  175.4230  143.1200 C   0  0  0  0  0  0  0  0  0  0  0  0
  186.8420  175.5480  142.4400 O   0  0  0  0  0  0  0  0  0  0  0  0
  187.2570  176.3000  143.3630 C   0  0  0  0  0  0  0  0  0  0  0  0
  195.8340  175.0760  143.0200 C   0  0  0  0  0  0  0  0  0  0  0  0
  191.7350  174.3000  141.6080 C   0  0  0  0  0  0  0  0  0  0  0  0
  190.9440  172.5780  139.5140 C   0  0  0  0  0  3  0  0  0  0  0  0
  194.5500  174.8060  142.5480 C   0  0  0  0  0  3  0  0  0  0  0  0
  189.7070  175.6840  142.9560 C   0  0  0  0  0  0  0  0  0  0  0  0
  193.2280  172.0150  139.1490 F   0  0  0  0  0  0  0  0  0  0  0  0
  192.5790  176.9610  144.7950 C   0  0  0  0  0  3  0  0  0  0  0  0
  196.9080  174.4740  142.4580 F   0  0  0  0  0  0  0  0  0  0  0  0
  189.4130  174.8370  141.9370 N   0  0  0  0  0  0  0  0  0  0  0  0
  191.0410  175.8730  143.3430 C   0  0  0  0  0  0  0  0  0  0  0  0
  188.6620  176.3880  143.6420 N   0  0  0  0  0  2  0  0  0  0  0  0
  192.6820  173.5630  140.8740 C   0  0  0  0  0  3  0  0  0  0  0  0
  195.9990  175.9690  144.0760 C   0  0  0  0  0  3  0  0  0  0  0  0
  190.3670  174.1520  141.2650 C   0  0  0  0  0  0  0  0  0  0  0  0
  189.9840  173.2970  140.2270 C   0  0  0  0  0  3  0  0  0  0  0  0
  191.3170  176.7260  144.3660 N   0  0  0  0  0  0  0  0  0  0  0  0
  193.6530  176.3210  144.1890 C   0  0  0  0  0  0  0  0  0  0  0  0
  194.9150  176.5680  144.6330 N   0  0  0  0  0  0  0  0  0  0  0  0
  184.4940  178.5400  145.7680 C   0  0  0  0  0  0  0  0  0  0  0  0
  185.8920  176.6010  145.4150 C   0  0  0  0  0  3  0  0  0  0  0  0
  186.1600  178.8850  142.5040 O   0  0  0  0  0  1  0  0  0  0  0  0
  183.6230  179.2350  146.5390 F   0  0  0  0  0  0  0  0  0  0  0  0
  184.9940  177.3150  146.2100 C   0  0  0  0  0  3  0  0  0  0  0  0
  185.7900  178.3400  143.7280 C   0  0  0  0  0  0  0  0  0  0  0  0
  186.3020  177.0980  144.1680 C   0  0  0  0  0  0  0  0  0  0  0  0
  184.8910  179.0500  144.5310 C   0  0  0  0  0  3  0  0  0  0  0  0
  1 17  1  0  0  0  0
  2  3  2  0  0  0  0
  2 15  1  0  0  0  0
  3 22  1  0  0  0  0
  4  5  2  0  0  0  0
  5 16  1  0  0  0  0
  5 30  1  0  0  0  0
  6 18  1  0  0  0  0
  7  2  1  0  0  0  0
  8  1  2  0  0  0  0
  8 20  1  0  0  0  0
  9  6  2  0  0  0  0
  9  3  1  0  0  0  0
 10 15  1  0  0  0  0
 10 16  1  0  0  0  0
 11  1  1  0  0  0  0
 13  6  1  0  0  0  0
 14 10  2  0  0  0  0
 15 21  2  0  0  0  0
 17  7  2  0  0  0  0
 18 23  2  0  0  0  0
 19  7  1  0  0  0  0
 19 14  1  0  0  0  0
 20 19  2  0  0  0  0
 21 12  1  0  0  0  0
 22 23  1  0  0  0  0
 22 12  2  0  0  0  0
 24 28  1  0  0  0  0
 24 27  1  0  0  0  0
 25 28  2  0  0  0  0
 26 29  1  0  0  0  0
 29 30  2  0  0  0  0
 29 31  1  0  0  0  0
 30 25  1  0  0  0  0
 31 24  2  0  0  0  0
M  END
>  <MODEL>
6

>  <REMARK>
 VINA RESULT:      -8.3      3.556      9.003
  Name = 
  1 active torsions:
  status: ('A' for Active; 'I' for Inactive)
    1  A    between atoms: C_9  and  C_22
                            x       y       z     vdW  Elec       q    Type
                         _______ _______ _______ _____ _____    ______ ____

>  <TORSDO>
F 1

$$$$
=
 OpenBabel11052417493D

 31 35  0  0  0  0  0  0  0  0999 V2000
  194.6920  174.9560  142.3300 C   0  0  0  0  0  0  0  0  0  0  0  0
  191.0490  174.3240  141.6190 C   0  0  0  0  0  0  0  0  0  0  0  0
  190.9850  173.3170  140.6060 C   0  0  0  0  0  0  0  0  0  0  0  0
  189.3840  177.8650  145.1420 O   0  0  0  0  0  0  0  0  0  0  0  0
  188.3780  177.3390  144.5940 C   0  0  0  0  0  0  0  0  0  0  0  0
  192.0100  171.7480  139.0510 C   0  0  0  0  0  0  0  0  0  0  0  0
  192.2570  174.8470  142.1700 C   0  0  0  0  0  0  0  0  0  0  0  0
  194.5960  175.9390  143.3150 C   0  0  0  0  0  3  0  0  0  0  0  0
  192.1250  172.7270  140.0360 C   0  0  0  0  0  3  0  0  0  0  0  0
  189.8040  175.8260  143.1030 C   0  0  0  0  0  0  0  0  0  0  0  0
  195.9090  174.5250  141.9200 F   0  0  0  0  0  0  0  0  0  0  0  0
  188.5620  173.4230  140.6640 C   0  0  0  0  0  3  0  0  0  0  0  0
  193.1180  171.1880  138.5110 F   0  0  0  0  0  0  0  0  0  0  0  0
  190.9760  176.2970  143.6000 N   0  0  0  0  0  0  0  0  0  0  0  0
  189.8150  174.8370  142.1090 C   0  0  0  0  0  0  0  0  0  0  0  0
  188.5520  176.3320  143.5850 N   0  0  0  0  0  2  0  0  0  0  0  0
  193.5340  174.4190  141.7650 C   0  0  0  0  0  3  0  0  0  0  0  0
  190.7430  171.3520  138.6270 C   0  0  0  0  0  3  0  0  0  0  0  0
  192.1790  175.8470  143.1720 C   0  0  0  0  0  0  0  0  0  0  0  0
  193.3410  176.3820  143.7340 C   0  0  0  0  0  3  0  0  0  0  0  0
  188.6310  174.3760  141.6220 N   0  0  0  0  0  0  0  0  0  0  0  0
  189.7250  172.8760  140.1380 C   0  0  0  0  0  0  0  0  0  0  0  0
  189.6380  171.9190  139.1750 N   0  0  0  0  0  0  0  0  0  0  0  0
  184.4080  178.6010  145.6350 C   0  0  0  0  0  0  0  0  0  0  0  0
  186.3280  178.6730  144.1690 C   0  0  0  0  0  3  0  0  0  0  0  0
  186.9870  176.3460  146.9810 O   0  0  0  0  0  1  0  0  0  0  0  0
  183.1550  179.0090  145.9500 F   0  0  0  0  0  0  0  0  0  0  0  0
  185.0370  179.0960  144.4920 C   0  0  0  0  0  3  0  0  0  0  0  0
  186.3640  177.2590  146.1380 C   0  0  0  0  0  0  0  0  0  0  0  0
  187.0100  177.7540  144.9820 C   0  0  0  0  0  0  0  0  0  0  0  0
  185.0700  177.6860  146.4550 C   0  0  0  0  0  3  0  0  0  0  0  0
  1  8  1  0  0  0  0
  2 15  1  0  0  0  0
  2  7  1  0  0  0  0
  3  2  2  0  0  0  0
  5 30  1  0  0  0  0
  5  4  2  0  0  0  0
  6  9  2  0  0  0  0
  7 19  2  0  0  0  0
  8 20  2  0  0  0  0
  9  3  1  0  0  0  0
 10 16  1  0  0  0  0
 10 14  2  0  0  0  0
 11  1  1  0  0  0  0
 12 21  1  0  0  0  0
 13  6  1  0  0  0  0
 15 10  1  0  0  0  0
 16  5  1  0  0  0  0
 17  7  1  0  0  0  0
 17  1  2  0  0  0  0
 18  6  1  0  0  0  0
 18 23  2  0  0  0  0
 19 14  1  0  0  0  0
 19 20  1  0  0  0  0
 21 15  2  0  0  0  0
 22  3  1  0  0  0  0
 22 12  2  0  0  0  0
 23 22  1  0  0  0  0
 24 27  1  0  0  0  0
 24 31  1  0  0  0  0
 25 28  1  0  0  0  0
 25 30  2  0  0  0  0
 28 24  2  0  0  0  0
 29 31  2  0  0  0  0
 29 26  1  0  0  0  0
 30 29  1  0  0  0  0
M  END
>  <MODEL>
7

>  <REMARK>
 VINA RESULT:      -8.2      3.719      8.184
  Name = 
  1 active torsions:
  status: ('A' for Active; 'I' for Inactive)
    1  A    between atoms: C_9  and  C_22
                            x       y       z     vdW  Elec       q    Type
                         _______ _______ _______ _____ _____    ______ ____

>  <TORSDO>
F 1

$$$$
=
 OpenBabel11052417493D

 31 35  0  0  0  0  0  0  0  0999 V2000
  193.3600  175.1250  145.9510 C   0  0  0  0  0  0  0  0  0  0  0  0
  190.7080  173.7910  143.6350 C   0  0  0  0  0  0  0  0  0  0  0  0
  191.1010  172.4690  143.2610 C   0  0  0  0  0  0  0  0  0  0  0  0
  187.8060  178.1780  143.8620 O   0  0  0  0  0  0  0  0  0  0  0  0
  187.2280  177.3530  143.1040 C   0  0  0  0  0  0  0  0  0  0  0  0
  192.6180  170.5640  143.3260 C   0  0  0  0  0  0  0  0  0  0  0  0
  191.4490  174.6420  144.5080 C   0  0  0  0  0  0  0  0  0  0  0  0
  192.8490  176.3930  146.2260 C   0  0  0  0  0  3  0  0  0  0  0  0
  192.2790  171.8580  143.7210 C   0  0  0  0  0  3  0  0  0  0  0  0
  189.0430  175.5770  143.4200 C   0  0  0  0  0  0  0  0  0  0  0  0
  194.5300  174.7310  146.5090 F   0  0  0  0  0  0  0  0  0  0  0  0
  189.1040  172.2700  141.8970 C   0  0  0  0  0  3  0  0  0  0  0  0
  193.7560  169.9890  143.7780 F   0  0  0  0  0  0  0  0  0  0  0  0
  189.7780  176.3550  144.2550 N   0  0  0  0  0  0  0  0  0  0  0  0
  189.4890  174.2890  143.0950 C   0  0  0  0  0  0  0  0  0  0  0  0
  187.8120  176.0630  142.8660 N   0  0  0  0  0  2  0  0  0  0  0  0
  192.6660  174.2610  145.1020 C   0  0  0  0  0  3  0  0  0  0  0  0
  191.7730  169.8720  142.4620 C   0  0  0  0  0  3  0  0  0  0  0  0
  190.9450  175.9360  144.7990 C   0  0  0  0  0  0  0  0  0  0  0  0
  191.6440  176.7960  145.6500 C   0  0  0  0  0  3  0  0  0  0  0  0
  188.7390  173.5230  142.2560 N   0  0  0  0  0  0  0  0  0  0  0  0
  190.2820  171.7180  142.3850 C   0  0  0  0  0  0  0  0  0  0  0  0
  190.6330  170.4580  142.0140 N   0  0  0  0  0  0  0  0  0  0  0  0
  183.5530  178.3580  141.1240 C   0  0  0  0  0  0  0  0  0  0  0  0
  185.8980  177.7750  141.0510 C   0  0  0  0  0  3  0  0  0  0  0  0
  184.7490  177.9080  144.5760 O   0  0  0  0  0  1  0  0  0  0  0  0
  182.4020  178.6740  140.4840 F   0  0  0  0  0  0  0  0  0  0  0  0
  184.7110  178.1010  140.3900 C   0  0  0  0  0  3  0  0  0  0  0  0
  184.7650  177.9650  143.1870 C   0  0  0  0  0  0  0  0  0  0  0  0
  185.9440  177.7020  142.4530 C   0  0  0  0  0  0  0  0  0  0  0  0
  183.5810  178.2910  142.5180 C   0  0  0  0  0  3  0  0  0  0  0  0
  1  8  1  0  0  0  0
  1 11  1  0  0  0  0
  2  7  1  0  0  0  0
  3  2  1  0  0  0  0
  3  9  1  0  0  0  0
  5  4  2  0  0  0  0
  6  9  2  0  0  0  0
  6 13  1  0  0  0  0
  7 19  2  0  0  0  0
  7 17  1  0  0  0  0
 10 14  2  0  0  0  0
 12 21  2  0  0  0  0
 12 22  1  0  0  0  0
 14 19  1  0  0  0  0
 15 10  1  0  0  0  0
 15  2  2  0  0  0  0
 16  5  1  0  0  0  0
 16 10  1  0  0  0  0
 17  1  2  0  0  0  0
 18  6  1  0  0  0  0
 19 20  1  0  0  0  0
 20  8  2  0  0  0  0
 21 15  1  0  0  0  0
 22  3  2  0  0  0  0
 23 22  1  0  0  0  0
 23 18  2  0  0  0  0
 24 31  1  0  0  0  0
 25 30  2  0  0  0  0
 27 24  1  0  0  0  0
 28 25  1  0  0  0  0
 28 24  2  0  0  0  0
 29 26  1  0  0  0  0
 30  5  1  0  0  0  0
 30 29  1  0  0  0  0
 31 29  2  0  0  0  0
M  END
>  <MODEL>
8

>  <REMARK>
 VINA RESULT:      -7.9      3.225      8.625
  Name = 
  1 active torsions:
  status: ('A' for Active; 'I' for Inactive)
    1  A    between atoms: C_9  and  C_22
                            x       y       z     vdW  Elec       q    Type
                         _______ _______ _______ _____ _____    ______ ____

>  <TORSDO>
F 1

$$$$
=
 OpenBabel11052417493D

 31 35  0  0  0  0  0  0  0  0999 V2000
  186.6120  176.7800  141.2250 C   0  0  0  0  0  0  0  0  0  0  0  0
  188.3540  176.5060  144.5520 C   0  0  0  0  0  0  0  0  0  0  0  0
  187.5900  177.2660  145.4910 C   0  0  0  0  0  0  0  0  0  0  0  0
  192.2040  173.4410  142.6810 O   0  0  0  0  0  0  0  0  0  0  0  0
  192.4050  173.6340  143.9100 C   0  0  0  0  0  0  0  0  0  0  0  0
  185.7070  178.6840  146.1030 C   0  0  0  0  0  0  0  0  0  0  0  0
  188.0260  176.3560  143.1710 C   0  0  0  0  0  0  0  0  0  0  0  0
  187.4550  176.0060  140.4270 C   0  0  0  0  0  3  0  0  0  0  0  0
  186.4170  177.9570  145.1480 C   0  0  0  0  0  3  0  0  0  0  0  0
  190.3190  175.0930  144.1670 C   0  0  0  0  0  0  0  0  0  0  0  0
  185.5180  177.3660  140.6830 F   0  0  0  0  0  0  0  0  0  0  0  0
  189.1680  176.6790  147.2370 C   0  0  0  0  0  3  0  0  0  0  0  0
  184.5770  179.3450  145.7570 F   0  0  0  0  0  0  0  0  0  0  0  0
  189.9720  174.9760  142.8600 N   0  0  0  0  0  0  0  0  0  0  0  0
  189.5240  175.8550  145.0340 C   0  0  0  0  0  0  0  0  0  0  0  0
  191.4950  174.4440  144.6700 N   0  0  0  0  0  2  0  0  0  0  0  0
  186.8970  176.9520  142.5800 C   0  0  0  0  0  3  0  0  0  0  0  0
  186.1720  178.7240  147.4150 C   0  0  0  0  0  3  0  0  0  0  0  0
  188.8720  175.5730  142.3450 C   0  0  0  0  0  0  0  0  0  0  0  0
  188.5820  175.4040  140.9880 C   0  0  0  0  0  3  0  0  0  0  0  0
  189.8860  175.9620  146.3410 N   0  0  0  0  0  0  0  0  0  0  0  0
  188.0150  177.3410  146.8390 C   0  0  0  0  0  0  0  0  0  0  0  0
  187.3060  178.0570  147.7520 N   0  0  0  0  0  0  0  0  0  0  0  0
  195.7570  171.7960  145.8650 C   0  0  0  0  0  0  0  0  0  0  0  0
  193.5130  171.6840  144.9740 C   0  0  0  0  0  3  0  0  0  0  0  0
  194.8890  175.0940  144.4800 O   0  0  0  0  0  1  0  0  0  0  0  0
  196.8060  171.2010  146.4830 F   0  0  0  0  0  0  0  0  0  0  0  0
  194.5940  171.0700  145.6120 C   0  0  0  0  0  3  0  0  0  0  0  0
  194.7630  173.7580  144.8450 C   0  0  0  0  0  0  0  0  0  0  0  0
  193.5800  173.0310  144.5830 C   0  0  0  0  0  0  0  0  0  0  0  0
  195.8410  173.1350  145.4830 C   0  0  0  0  0  3  0  0  0  0  0  0
  1 17  1  0  0  0  0
  2 15  2  0  0  0  0
  2  3  1  0  0  0  0
  3 22  1  0  0  0  0
  4  5  2  0  0  0  0
  5 30  1  0  0  0  0
  5 16  1  0  0  0  0
  6 18  2  0  0  0  0
  7  2  1  0  0  0  0
  8 20  1  0  0  0  0
  8  1  2  0  0  0  0
  9  3  2  0  0  0  0
  9  6  1  0  0  0  0
 10 16  1  0  0  0  0
 10 15  1  0  0  0  0
 11  1  1  0  0  0  0
 13  6  1  0  0  0  0
 14 10  2  0  0  0  0
 15 21  1  0  0  0  0
 17  7  2  0  0  0  0
 18 23  1  0  0  0  0
 19 14  1  0  0  0  0
 19  7  1  0  0  0  0
 20 19  2  0  0  0  0
 21 12  2  0  0  0  0
 22 12  1  0  0  0  0
 22 23  2  0  0  0  0
 24 27  1  0  0  0  0
 25 28  2  0  0  0  0
 26 29  1  0  0  0  0
 28 24  1  0  0  0  0
 29 31  1  0  0  0  0
 30 29  2  0  0  0  0
 30 25  1  0  0  0  0
 31 24  2  0  0  0  0
M  END
>  <MODEL>
9

>  <REMARK>
 VINA RESULT:      -7.9      2.303      4.744
  Name = 
  1 active torsions:
  status: ('A' for Active; 'I' for Inactive)
    1  A    between atoms: C_9  and  C_22
                            x       y       z     vdW  Elec       q    Type
                         _______ _______ _______ _____ _____    ______ ____

>  <TORSDO>
F 1

$$$$
