=
 OpenBabel11052421313D

 32 36  0  0  0  0  0  0  0  0999 V2000
  187.5310  177.2450  144.3830 C   0  0  0  0  0  0  0  0  0  0  0  0
  188.1920  174.0200  140.5640 S   0  0  0  0  0  0  0  0  0  0  0  0
  189.7640  173.7850  141.4960 C   0  0  0  0  0  2  0  0  0  0  0  0
  189.1310  177.2290  146.3140 C   0  0  0  0  0  0  0  0  0  0  0  0
  190.3800  176.8450  146.7960 C   0  0  0  0  0  0  0  0  0  0  0  0
  185.3230  178.2920  144.5310 C   0  0  0  0  0  0  0  0  0  0  0  0
  186.0130  177.2280  142.4720 C   0  0  0  0  0  3  0  0  0  0  0  0
  192.4440  175.9350  146.8260 C   0  0  0  0  0  0  0  0  0  0  0  0
  187.9380  175.8120  140.8480 C   0  0  0  0  0  2  0  0  0  0  0  0
  187.2500  176.8840  143.0390 C   0  0  0  0  0  0  0  0  0  0  0  0
  188.2000  176.1840  142.2800 C   0  0  0  0  0  0  0  0  0  0  0  0
  189.7380  176.1840  144.1650 C   0  0  0  0  0  0  0  0  0  0  0  0
  192.3010  176.4280  148.0160 N   0  0  0  0  0  0  0  0  0  0  0  0
  185.0490  177.9200  143.2060 C   0  0  0  0  0  0  0  0  0  0  0  0
  190.9840  177.0610  148.1440 C   0  0  0  0  0  2  0  0  0  0  0  0
  190.4050  175.0800  141.9810 C   0  0  0  0  0  2  0  0  0  0  0  0
  189.4350  175.8390  142.8380 C   0  0  0  0  0  0  0  0  0  0  0  0
  190.9890  175.8210  144.7070 C   0  0  0  0  0  3  0  0  0  0  0  0
  186.5500  177.9470  145.1030 C   0  0  0  0  0  3  0  0  0  0  0  0
  188.2710  177.9180  147.1630 O   0  0  0  0  0  1  0  0  0  0  0  0
  193.6740  175.2260  146.3830 C   0  0  0  0  0  1  0  0  0  0  0  0
  188.7830  176.8980  144.9650 C   0  0  0  0  0  0  0  0  0  0  0  0
  191.2700  176.1680  146.0190 C   0  0  0  0  0  0  0  0  0  0  0  0
  184.1880  178.3690  146.7220 C   0  0  0  0  0  1  0  0  0  0  0  0
  184.3230  179.0270  145.3620 C   0  0  0  0  0  2  0  0  0  0  0  0
  183.7590  178.2800  142.5400 C   0  0  0  0  0  2  0  0  0  0  0  0
  183.9180  178.2520  141.0950 N   0  0  0  0  0  2  0  0  0  0  0  0
  182.5860  178.2900  140.5180 C   0  0  0  0  0  2  0  0  0  0  0  0
  180.4650  179.1200  141.5920 C   0  0  0  0  0  0  0  0  0  0  0  0
  181.5960  178.2510  141.5820 N   0  0  0  0  0  2  0  0  0  0  0  0
  179.5470  179.0410  142.6310 O   0  0  0  0  0  1  0  0  0  0  0  0
  180.2910  179.9580  140.6680 O   0  0  0  0  0  0  0  0  0  0  0  0
  1 22  1  0  0  0  0
  1 19  1  0  0  0  0
  2  9  1  0  0  0  0
  2  3  1  0  0  0  0
  3 16  1  0  0  0  0
  4  5  1  0  0  0  0
  4 20  1  0  0  0  0
  5 15  1  0  0  0  0
  6 19  2  0  0  0  0
  6 25  1  0  0  0  0
  7 10  1  0  0  0  0
  7 14  2  0  0  0  0
  8 13  2  0  0  0  0
  9 11  1  0  0  0  0
 10  1  2  0  0  0  0
 11 17  2  0  0  0  0
 11 10  1  0  0  0  0
 12 18  2  0  0  0  0
 12 22  1  0  0  0  0
 13 15  1  0  0  0  0
 14  6  1  0  0  0  0
 16 17  1  0  0  0  0
 17 12  1  0  0  0  0
 18 23  1  0  0  0  0
 21  8  1  0  0  0  0
 22  4  2  0  0  0  0
 23  5  2  0  0  0  0
 23  8  1  0  0  0  0
 25 24  1  0  0  0  0
 26 14  1  0  0  0  0
 27 26  1  0  0  0  0
 28 27  1  0  0  0  0
 28 30  1  0  0  0  0
 29 31  1  0  0  0  0
 30 29  1  0  0  0  0
 32 29  2  0  0  0  0
M  END
>  <MODEL>
1

>  <REMARK>
 VINA RESULT:      -8.4      0.000      0.000
  Name = 
  5 active torsions:
  status: ('A' for Active; 'I' for Inactive)
    1  A    between atoms: N_2  and  C_12
    2  A    between atoms: N_2  and  C_24
    3  A    between atoms: C_8  and  C_23
    4  A    between atoms: N_10  and  C_24
    5  A    between atoms: C_12  and  C_21
                            x       y       z     vdW  Elec       q    Type
                         _______ _______ _______ _____ _____    ______ ____

>  <TORSDO>
F 5

$$$$
=
 OpenBabel11052421313D

 32 36  0  0  0  0  0  0  0  0999 V2000
  187.1100  176.9840  143.1230 C   0  0  0  0  0  0  0  0  0  0  0  0
  184.7860  178.9440  147.1450 S   0  0  0  0  0  0  0  0  0  0  0  0
  186.2960  178.2330  147.9260 C   0  0  0  0  0  2  0  0  0  0  0  0
  189.4610  176.1370  143.3360 C   0  0  0  0  0  0  0  0  0  0  0  0
  190.4800  175.7150  144.1860 C   0  0  0  0  0  0  0  0  0  0  0  0
  186.1020  177.4910  140.9500 C   0  0  0  0  0  0  0  0  0  0  0  0
  184.8180  177.8100  142.9750 C   0  0  0  0  0  2  0  0  0  0  0  0
  191.5550  175.1960  146.1000 C   0  0  0  0  0  0  0  0  0  0  0  0
  184.4990  177.6860  145.8440 C   0  0  0  0  0  2  0  0  0  0  0  0
  185.8980  177.3680  143.7540 C   0  0  0  0  0  0  0  0  0  0  0  0
  185.7780  177.3110  145.1520 C   0  0  0  0  0  0  0  0  0  0  0  0
  188.0600  176.4850  145.3340 C   0  0  0  0  0  0  0  0  0  0  0  0
  192.4290  174.9550  145.1740 N   0  0  0  0  0  0  0  0  0  0  0  0
  184.9120  177.8810  141.5840 C   0  0  0  0  0  0  0  0  0  0  0  0
  191.8600  175.2520  143.8550 C   0  0  0  0  0  3  0  0  0  0  0  0
  186.6670  176.8420  147.4240 C   0  0  0  0  0  2  0  0  0  0  0  0
  186.8500  176.8700  145.9340 C   0  0  0  0  0  0  0  0  0  0  0  0
  189.1280  176.0490  146.1460 C   0  0  0  0  0  3  0  0  0  0  0  0
  187.1820  177.0570  141.7210 C   0  0  0  0  0  3  0  0  0  0  0  0
  189.6990  176.1540  141.9650 O   0  0  0  0  0  1  0  0  0  0  0  0
  191.8290  174.9940  147.5480 C   0  0  0  0  0  1  0  0  0  0  0  0
  188.2100  176.5370  143.9070 C   0  0  0  0  0  0  0  0  0  0  0  0
  190.3150  175.6740  145.5370 C   0  0  0  0  0  0  0  0  0  0  0  0
  186.9150  176.2880  138.9540 C   0  0  0  0  0  1  0  0  0  0  0  0
  186.2560  177.5550  139.4660 C   0  0  0  0  0  2  0  0  0  0  0  0
  183.7190  178.3360  140.8050 C   0  0  0  0  0  2  0  0  0  0  0  0
  182.5050  178.1110  141.5730 N   0  0  0  0  0  2  0  0  0  0  0  0
  181.4100  178.7040  140.8250 C   0  0  0  0  0  2  0  0  0  0  0  0
  179.1930  178.5470  142.0050 C   0  0  0  0  0  0  0  0  0  0  0  0
  180.4200  179.2280  141.7490 N   0  0  0  0  0  2  0  0  0  0  0  0
  178.2790  179.0890  142.8990 O   0  0  0  0  0  1  0  0  0  0  0  0
  178.9290  177.4590  141.4270 O   0  0  0  0  0  0  0  0  0  0  0  0
  1 10  1  0  0  0  0
  1 22  1  0  0  0  0
  2  3  1  0  0  0  0
  4 22  2  0  0  0  0
  4  5  1  0  0  0  0
  5 23  1  0  0  0  0
  6 14  2  0  0  0  0
  6 19  1  0  0  0  0
  7 10  1  0  0  0  0
  8 21  1  0  0  0  0
  9  2  1  0  0  0  0
 10 11  2  0  0  0  0
 11  9  1  0  0  0  0
 11 17  1  0  0  0  0
 12 17  2  0  0  0  0
 12 18  1  0  0  0  0
 13  8  2  0  0  0  0
 14  7  1  0  0  0  0
 15  5  2  0  0  0  0
 15 13  1  0  0  0  0
 16  3  1  0  0  0  0
 17 16  1  0  0  0  0
 19  1  2  0  0  0  0
 20  4  1  0  0  0  0
 22 12  1  0  0  0  0
 23  8  1  0  0  0  0
 23 18  2  0  0  0  0
 24 25  1  0  0  0  0
 25  6  1  0  0  0  0
 26 27  1  0  0  0  0
 26 14  1  0  0  0  0
 28 27  1  0  0  0  0
 28 30  1  0  0  0  0
 29 31  1  0  0  0  0
 30 29  1  0  0  0  0
 32 29  2  0  0  0  0
M  END
>  <MODEL>
2

>  <REMARK>
 VINA RESULT:      -8.1      2.409      4.127
  Name = 
  5 active torsions:
  status: ('A' for Active; 'I' for Inactive)
    1  A    between atoms: N_2  and  C_12
    2  A    between atoms: N_2  and  C_24
    3  A    between atoms: C_8  and  C_23
    4  A    between atoms: N_10  and  C_24
    5  A    between atoms: C_12  and  C_21
                            x       y       z     vdW  Elec       q    Type
                         _______ _______ _______ _____ _____    ______ ____

>  <TORSDO>
F 5

$$$$
=
 OpenBabel11052421313D

 32 36  0  0  0  0  0  0  0  0999 V2000
  188.1100  175.8630  142.7550 C   0  0  0  0  0  0  0  0  0  0  0  0
  190.4110  176.7400  147.1540 S   0  0  0  0  0  0  0  0  0  0  0  0
  191.3810  175.3020  146.5330 C   0  0  0  0  0  2  0  0  0  0  0  0
  189.1170  174.2430  141.1270 C   0  0  0  0  0  0  0  0  0  0  0  0
  190.0080  173.1930  140.9210 C   0  0  0  0  0  0  0  0  0  0  0  0
  186.4250  177.5060  142.0810 C   0  0  0  0  0  0  0  0  0  0  0  0
  187.1670  177.4190  144.3810 C   0  0  0  0  0  3  0  0  0  0  0  0
  191.5600  171.6200  141.3730 C   0  0  0  0  0  0  0  0  0  0  0  0
  188.7560  176.2880  146.5120 C   0  0  0  0  0  2  0  0  0  0  0  0
  188.0370  176.3600  144.0830 C   0  0  0  0  0  0  0  0  0  0  0  0
  188.8330  175.7990  145.0940 C   0  0  0  0  0  0  0  0  0  0  0  0
  189.7930  174.2320  143.4980 C   0  0  0  0  0  0  0  0  0  0  0  0
  191.3310  171.4780  140.1070 N   0  0  0  0  0  0  0  0  0  0  0  0
  186.3680  177.9990  143.3940 C   0  0  0  0  0  0  0  0  0  0  0  0
  190.3270  172.4520  139.6650 C   0  0  0  0  0  3  0  0  0  0  0  0
  190.5350  174.1910  145.9230 C   0  0  0  0  0  2  0  0  0  0  0  0
  189.7010  174.7420  144.8040 C   0  0  0  0  0  0  0  0  0  0  0  0
  190.6790  173.1690  143.2290 C   0  0  0  0  0  3  0  0  0  0  0  0
  187.2940  176.4560  141.7760 C   0  0  0  0  0  2  0  0  0  0  0  0
  188.3840  174.7180  140.0450 O   0  0  0  0  0  1  0  0  0  0  0  0
  192.5320  170.7780  142.1220 C   0  0  0  0  0  1  0  0  0  0  0  0
  188.9920  174.7900  142.4440 C   0  0  0  0  0  0  0  0  0  0  0  0
  190.7580  172.6800  141.9350 C   0  0  0  0  0  0  0  0  0  0  0  0
  186.0620  177.5750  139.6400 C   0  0  0  0  0  1  0  0  0  0  0  0
  185.5960  178.0950  140.9870 C   0  0  0  0  0  2  0  0  0  0  0  0
  185.4420  179.1090  143.7770 C   0  0  0  0  0  2  0  0  0  0  0  0
  184.1460  178.5690  144.1580 N   0  0  0  0  0  2  0  0  0  0  0  0
  183.8880  179.0000  145.5200 C   0  0  0  0  0  2  0  0  0  0  0  0
  185.4210  178.3580  147.4100 C   0  0  0  0  0  0  0  0  0  0  0  0
  184.4240  178.0190  146.4480 N   0  0  0  0  0  2  0  0  0  0  0  0
  185.9000  177.3840  148.2760 O   0  0  0  0  0  1  0  0  0  0  0  0
  185.8720  179.5320  147.4820 O   0  0  0  0  0  0  0  0  0  0  0  0
  1 10  1  0  0  0  0
  3  2  1  0  0  0  0
  4 22  1  0  0  0  0
  5  4  2  0  0  0  0
  5 23  1  0  0  0  0
  6 14  2  0  0  0  0
  8 23  2  0  0  0  0
  8 21  1  0  0  0  0
  9  2  1  0  0  0  0
 10  7  2  0  0  0  0
 10 11  1  0  0  0  0
 11  9  1  0  0  0  0
 12 17  1  0  0  0  0
 13  8  1  0  0  0  0
 14 26  1  0  0  0  0
 14  7  1  0  0  0  0
 15 13  2  0  0  0  0
 15  5  1  0  0  0  0
 16  3  1  0  0  0  0
 17 11  2  0  0  0  0
 17 16  1  0  0  0  0
 18 12  2  0  0  0  0
 19  6  1  0  0  0  0
 19  1  1  0  0  0  0
 20  4  1  0  0  0  0
 22  1  2  0  0  0  0
 22 12  1  0  0  0  0
 23 18  1  0  0  0  0
 24 25  1  0  0  0  0
 25  6  1  0  0  0  0
 26 27  1  0  0  0  0
 27 28  1  0  0  0  0
 28 30  1  0  0  0  0
 29 32  2  0  0  0  0
 29 31  1  0  0  0  0
 30 29  1  0  0  0  0
M  END
>  <MODEL>
3

>  <REMARK>
 VINA RESULT:      -8.0      3.422      5.628
  Name = 
  5 active torsions:
  status: ('A' for Active; 'I' for Inactive)
    1  A    between atoms: N_2  and  C_12
    2  A    between atoms: N_2  and  C_24
    3  A    between atoms: C_8  and  C_23
    4  A    between atoms: N_10  and  C_24
    5  A    between atoms: C_12  and  C_21
                            x       y       z     vdW  Elec       q    Type
                         _______ _______ _______ _____ _____    ______ ____

>  <TORSDO>
F 5

$$$$
=
 OpenBabel11052421313D

 32 36  0  0  0  0  0  0  0  0999 V2000
  188.8620  176.6650  145.5200 C   0  0  0  0  0  0  0  0  0  0  0  0
  187.5820  173.7170  141.6360 S   0  0  0  0  0  0  0  0  0  0  0  0
  189.4190  173.5850  141.5840 C   0  0  0  0  0  2  0  0  0  0  0  0
  191.2370  176.7010  146.3230 C   0  0  0  0  0  0  0  0  0  0  0  0
  192.5710  176.4140  146.0450 C   0  0  0  0  0  0  0  0  0  0  0  0
  187.0110  177.4880  146.8960 C   0  0  0  0  0  0  0  0  0  0  0  0
  186.5670  176.6020  144.6900 C   0  0  0  0  0  3  0  0  0  0  0  0
  194.3860  175.7030  144.9090 C   0  0  0  0  0  0  0  0  0  0  0  0
  187.4200  175.4600  142.1760 C   0  0  0  0  0  2  0  0  0  0  0  0
  187.9340  176.3480  144.4940 C   0  0  0  0  0  0  0  0  0  0  0  0
  188.3770  175.7810  143.2890 C   0  0  0  0  0  0  0  0  0  0  0  0
  190.6760  175.8310  144.0860 C   0  0  0  0  0  0  0  0  0  0  0  0
  194.8660  176.1180  146.0390 N   0  0  0  0  0  0  0  0  0  0  0  0
  186.0990  177.1600  145.8800 C   0  0  0  0  0  0  0  0  0  0  0  0
  193.7820  176.6160  146.8930 C   0  0  0  0  0  2  0  0  0  0  0  0
  190.1490  174.9080  141.7820 C   0  0  0  0  0  2  0  0  0  0  0  0
  189.7370  175.5270  143.0860 C   0  0  0  0  0  0  0  0  0  0  0  0
  192.0410  175.5600  143.8600 C   0  0  0  0  0  3  0  0  0  0  0  0
  188.3710  177.2320  146.7090 C   0  0  0  0  0  3  0  0  0  0  0  0
  190.9190  177.2610  147.5560 O   0  0  0  0  0  1  0  0  0  0  0  0
  195.2340  175.1370  143.8250 C   0  0  0  0  0  1  0  0  0  0  0  0
  190.2480  176.4090  145.3300 C   0  0  0  0  0  0  0  0  0  0  0  0
  192.9530  175.8650  144.8580 C   0  0  0  0  0  0  0  0  0  0  0  0
  187.1870  179.4510  148.3830 C   0  0  0  0  0  1  0  0  0  0  0  0
  186.5610  178.0820  148.1900 C   0  0  0  0  0  2  0  0  0  0  0  0
  184.6360  177.4310  146.0210 C   0  0  0  0  0  2  0  0  0  0  0  0
  184.3600  178.8350  145.7630 N   0  0  0  0  0  2  0  0  0  0  0  0
  184.7540  179.1030  144.3910 C   0  0  0  0  0  2  0  0  0  0  0  0
  183.9520  178.2990  142.1450 C   0  0  0  0  0  0  0  0  0  0  0  0
  183.6910  178.6890  143.4920 N   0  0  0  0  0  2  0  0  0  0  0  0
  182.9000  177.9090  141.3260 O   0  0  0  0  0  0  0  0  0  0  0  0
  185.1270  178.3050  141.6900 O   0  0  0  0  0  1  0  0  0  0  0  0
  1 19  1  0  0  0  0
  2  9  1  0  0  0  0
  3  2  1  0  0  0  0
  3 16  1  0  0  0  0
  4 20  1  0  0  0  0
  5  4  1  0  0  0  0
  5 15  1  0  0  0  0
  6 25  1  0  0  0  0
  7 14  2  0  0  0  0
  8 13  2  0  0  0  0
  9 11  1  0  0  0  0
 10  7  1  0  0  0  0
 10  1  2  0  0  0  0
 11 10  1  0  0  0  0
 12 22  1  0  0  0  0
 13 15  1  0  0  0  0
 14 26  1  0  0  0  0
 14  6  1  0  0  0  0
 16 17  1  0  0  0  0
 17 11  2  0  0  0  0
 17 12  1  0  0  0  0
 18 12  2  0  0  0  0
 18 23  1  0  0  0  0
 19  6  2  0  0  0  0
 21  8  1  0  0  0  0
 22  1  1  0  0  0  0
 22  4  2  0  0  0  0
 23  8  1  0  0  0  0
 23  5  2  0  0  0  0
 25 24  1  0  0  0  0
 27 26  1  0  0  0  0
 28 27  1  0  0  0  0
 29 30  1  0  0  0  0
 30 28  1  0  0  0  0
 31 29  2  0  0  0  0
 32 29  1  0  0  0  0
M  END
>  <MODEL>
4

>  <REMARK>
 VINA RESULT:      -7.8      2.121      2.805
  Name = 
  5 active torsions:
  status: ('A' for Active; 'I' for Inactive)
    1  A    between atoms: N_2  and  C_12
    2  A    between atoms: N_2  and  C_24
    3  A    between atoms: C_8  and  C_23
    4  A    between atoms: N_10  and  C_24
    5  A    between atoms: C_12  and  C_21
                            x       y       z     vdW  Elec       q    Type
                         _______ _______ _______ _____ _____    ______ ____

>  <TORSDO>
F 5

$$$$
=
 OpenBabel11052421313D

 32 36  0  0  0  0  0  0  0  0999 V2000
  189.7430  175.5310  144.5030 C   0  0  0  0  0  0  0  0  0  0  0  0
  190.3570  173.2920  140.0290 S   0  0  0  0  0  0  0  0  0  0  0  0
  188.7770  174.1990  139.7510 C   0  0  0  0  0  2  0  0  0  0  0  0
  187.9570  177.2680  144.7890 C   0  0  0  0  0  0  0  0  0  0  0  0
  186.7810  177.8300  144.2970 C   0  0  0  0  0  0  0  0  0  0  0  0
  191.6050  175.3090  146.0770 C   0  0  0  0  0  0  0  0  0  0  0  0
  191.4560  173.8250  144.1740 C   0  0  0  0  0  3  0  0  0  0  0  0
  185.0030  178.1660  142.9500 C   0  0  0  0  0  0  0  0  0  0  0  0
  190.1440  172.8470  141.7930 C   0  0  0  0  0  2  0  0  0  0  0  0
  190.2720  174.4490  143.7520 C   0  0  0  0  0  0  0  0  0  0  0  0
  189.6200  174.0060  142.5910 C   0  0  0  0  0  0  0  0  0  0  0  0
  187.8940  175.6960  142.8910 C   0  0  0  0  0  0  0  0  0  0  0  0
  184.8720  179.0650  143.8730 N   0  0  0  0  0  0  0  0  0  0  0  0
  192.1280  174.2480  145.3210 C   0  0  0  0  0  0  0  0  0  0  0  0
  185.9750  178.9650  144.8350 C   0  0  0  0  0  2  0  0  0  0  0  0
  187.7930  174.1130  140.9110 C   0  0  0  0  0  2  0  0  0  0  0  0
  188.4390  174.6230  142.1670 C   0  0  0  0  0  0  0  0  0  0  0  0
  186.7050  176.3050  142.4400 C   0  0  0  0  0  3  0  0  0  0  0  0
  190.4310  175.9390  145.6590 C   0  0  0  0  0  3  0  0  0  0  0  0
  188.5140  177.7960  145.9490 O   0  0  0  0  0  1  0  0  0  0  0  0
  184.0410  178.0090  141.8260 C   0  0  0  0  0  1  0  0  0  0  0  0
  188.5440  176.1710  144.0810 C   0  0  0  0  0  0  0  0  0  0  0  0
  186.1830  177.3630  143.1670 C   0  0  0  0  0  0  0  0  0  0  0  0
  191.3410  176.6650  148.1220 C   0  0  0  0  0  1  0  0  0  0  0  0
  192.2890  175.8050  147.3090 C   0  0  0  0  0  2  0  0  0  0  0  0
  193.3720  173.5280  145.7340 C   0  0  0  0  0  2  0  0  0  0  0  0
  194.4520  173.8240  144.8080 N   0  0  0  0  0  2  0  0  0  0  0  0
  195.2900  174.8310  145.4350 C   0  0  0  0  0  2  0  0  0  0  0  0
  196.6820  175.9520  143.6640 C   0  0  0  0  0  0  0  0  0  0  0  0
  195.5260  175.9160  144.4990 N   0  0  0  0  0  2  0  0  0  0  0  0
  196.8610  177.0110  142.7840 O   0  0  0  0  0  0  0  0  0  0  0  0
  197.5430  175.0340  143.7180 O   0  0  0  0  0  1  0  0  0  0  0  0
  1 19  1  0  0  0  0
  2  9  1  0  0  0  0
  3  2  1  0  0  0  0
  3 16  1  0  0  0  0
  4 20  1  0  0  0  0
  5  4  1  0  0  0  0
  5 15  1  0  0  0  0
  6 25  1  0  0  0  0
  7 14  2  0  0  0  0
  8 23  1  0  0  0  0
  8 13  2  0  0  0  0
  9 11  1  0  0  0  0
 10  7  1  0  0  0  0
 10  1  2  0  0  0  0
 11 10  1  0  0  0  0
 12 22  1  0  0  0  0
 13 15  1  0  0  0  0
 14 26  1  0  0  0  0
 14  6  1  0  0  0  0
 16 17  1  0  0  0  0
 17 11  2  0  0  0  0
 17 12  1  0  0  0  0
 18 12  2  0  0  0  0
 18 23  1  0  0  0  0
 19  6  2  0  0  0  0
 21  8  1  0  0  0  0
 22  1  1  0  0  0  0
 22  4  2  0  0  0  0
 23  5  2  0  0  0  0
 25 24  1  0  0  0  0
 27 28  1  0  0  0  0
 27 26  1  0  0  0  0
 29 32  1  0  0  0  0
 29 30  1  0  0  0  0
 30 28  1  0  0  0  0
 31 29  2  0  0  0  0
M  END
>  <MODEL>
5

>  <REMARK>
 VINA RESULT:      -7.5      3.154      8.618
  Name = 
  5 active torsions:
  status: ('A' for Active; 'I' for Inactive)
    1  A    between atoms: N_2  and  C_12
    2  A    between atoms: N_2  and  C_24
    3  A    between atoms: C_8  and  C_23
    4  A    between atoms: N_10  and  C_24
    5  A    between atoms: C_12  and  C_21
                            x       y       z     vdW  Elec       q    Type
                         _______ _______ _______ _____ _____    ______ ____

>  <TORSDO>
F 5

$$$$
=
 OpenBabel11052421313D

 32 36  0  0  0  0  0  0  0  0999 V2000
  188.0820  177.4370  143.7890 C   0  0  0  0  0  0  0  0  0  0  0  0
  185.9050  177.1980  148.3300 S   0  0  0  0  0  0  0  0  0  0  0  0
  184.4430  177.5330  147.2580 C   0  0  0  0  0  2  0  0  0  0  0  0
  186.6540  177.5120  141.7280 C   0  0  0  0  0  0  0  0  0  0  0  0
  185.3950  177.7510  141.1860 C   0  0  0  0  0  0  0  0  0  0  0  0
  190.4550  176.8420  143.7060 C   0  0  0  0  0  0  0  0  0  0  0  0
  189.4230  177.3760  145.8270 C   0  0  0  0  0  3  0  0  0  0  0  0
  183.2040  178.2820  141.0840 C   0  0  0  0  0  0  0  0  0  0  0  0
  187.1650  178.1840  147.4380 C   0  0  0  0  0  2  0  0  0  0  0  0
  188.1900  177.6000  145.1950 C   0  0  0  0  0  0  0  0  0  0  0  0
  187.0710  177.9790  145.9520 C   0  0  0  0  0  0  0  0  0  0  0  0
  185.7060  178.0510  143.9390 C   0  0  0  0  0  0  0  0  0  0  0  0
  183.5240  178.0340  139.8540 N   0  0  0  0  0  0  0  0  0  0  0  0
  190.5500  176.9940  145.0990 C   0  0  0  0  0  0  0  0  0  0  0  0
  184.9420  177.6690  139.7650 C   0  0  0  0  0  3  0  0  0  0  0  0
  184.6770  178.5970  146.1920 C   0  0  0  0  0  2  0  0  0  0  0  0
  185.8410  178.2050  145.3290 C   0  0  0  0  0  0  0  0  0  0  0  0
  184.4530  178.2790  143.3340 C   0  0  0  0  0  3  0  0  0  0  0  0
  189.2300  177.0570  143.0720 C   0  0  0  0  0  2  0  0  0  0  0  0
  187.6880  177.1370  140.8760 O   0  0  0  0  0  1  0  0  0  0  0  0
  181.8330  178.6800  141.5030 C   0  0  0  0  0  1  0  0  0  0  0  0
  186.8350  177.6600  143.1410 C   0  0  0  0  0  0  0  0  0  0  0  0
  184.3390  178.1200  141.9620 C   0  0  0  0  0  0  0  0  0  0  0  0
  191.5770  174.9370  142.6090 C   0  0  0  0  0  1  0  0  0  0  0  0
  191.6300  176.4280  142.8810 C   0  0  0  0  0  2  0  0  0  0  0  0
  191.8420  176.7940  145.8240 C   0  0  0  0  0  2  0  0  0  0  0  0
  191.9060  175.4470  146.3690 N   0  0  0  0  0  2  0  0  0  0  0  0
  193.2170  174.9150  146.0390 C   0  0  0  0  0  2  0  0  0  0  0  0
  195.0680  175.7370  144.5440 C   0  0  0  0  0  0  0  0  0  0  0  0
  194.0560  175.9810  145.5200 N   0  0  0  0  0  2  0  0  0  0  0  0
  195.8420  176.7910  144.0790 O   0  0  0  0  0  0  0  0  0  0  0  0
  195.2660  174.5740  144.1020 O   0  0  0  0  0  1  0  0  0  0  0  0
  1 10  1  0  0  0  0
  3  2  1  0  0  0  0
  4 22  1  0  0  0  0
  5  4  2  0  0  0  0
  5 23  1  0  0  0  0
  6 14  2  0  0  0  0
  8 21  1  0  0  0  0
  8 23  2  0  0  0  0
  9  2  1  0  0  0  0
 10  7  2  0  0  0  0
 10 11  1  0  0  0  0
 11  9  1  0  0  0  0
 12 17  1  0  0  0  0
 13  8  1  0  0  0  0
 14 26  1  0  0  0  0
 14  7  1  0  0  0  0
 15 13  2  0  0  0  0
 15  5  1  0  0  0  0
 16  3  1  0  0  0  0
 17 11  2  0  0  0  0
 17 16  1  0  0  0  0
 18 12  2  0  0  0  0
 19  6  1  0  0  0  0
 19  1  1  0  0  0  0
 20  4  1  0  0  0  0
 22  1  2  0  0  0  0
 22 12  1  0  0  0  0
 23 18  1  0  0  0  0
 24 25  1  0  0  0  0
 25  6  1  0  0  0  0
 26 27  1  0  0  0  0
 28 27  1  0  0  0  0
 29 30  1  0  0  0  0
 30 28  1  0  0  0  0
 31 29  2  0  0  0  0
 32 29  1  0  0  0  0
M  END
>  <MODEL>
6

>  <REMARK>
 VINA RESULT:      -7.4      3.121      9.127
  Name = 
  5 active torsions:
  status: ('A' for Active; 'I' for Inactive)
    1  A    between atoms: N_2  and  C_12
    2  A    between atoms: N_2  and  C_24
    3  A    between atoms: C_8  and  C_23
    4  A    between atoms: N_10  and  C_24
    5  A    between atoms: C_12  and  C_21
                            x       y       z     vdW  Elec       q    Type
                         _______ _______ _______ _____ _____    ______ ____

>  <TORSDO>
F 5

$$$$
=
 OpenBabel11052421313D

 32 36  0  0  0  0  0  0  0  0999 V2000
  190.3240  175.4270  143.6850 C   0  0  0  0  0  0  0  0  0  0  0  0
  189.8400  171.9960  140.0220 S   0  0  0  0  0  0  0  0  0  0  0  0
  191.6190  171.7950  140.4570 C   0  0  0  0  0  2  0  0  0  0  0  0
  192.4260  175.4970  145.0520 C   0  0  0  0  0  0  0  0  0  0  0  0
  193.7640  175.1270  145.1610 C   0  0  0  0  0  0  0  0  0  0  0  0
  188.2540  176.5030  144.4250 C   0  0  0  0  0  0  0  0  0  0  0  0
  188.3070  175.3240  142.3150 C   0  0  0  0  0  3  0  0  0  0  0  0
  195.7480  174.1970  144.6270 C   0  0  0  0  0  0  0  0  0  0  0  0
  189.6710  173.8030  140.2710 C   0  0  0  0  0  2  0  0  0  0  0  0
  189.6590  174.9980  142.5070 C   0  0  0  0  0  0  0  0  0  0  0  0
  190.3450  174.2480  141.5390 C   0  0  0  0  0  0  0  0  0  0  0  0
  192.3740  174.3330  142.8800 C   0  0  0  0  0  0  0  0  0  0  0  0
  195.9620  174.7540  145.7770 N   0  0  0  0  0  0  0  0  0  0  0  0
  187.6000  176.0640  143.2630 C   0  0  0  0  0  0  0  0  0  0  0  0
  194.7390  175.4070  146.2560 C   0  0  0  0  0  2  0  0  0  0  0  0
  192.3680  173.1060  140.6590 C   0  0  0  0  0  2  0  0  0  0  0  0
  191.6910  173.9210  141.7230 C   0  0  0  0  0  0  0  0  0  0  0  0
  193.7300  173.9860  143.0450 C   0  0  0  0  0  3  0  0  0  0  0  0
  189.5970  176.1760  144.6250 C   0  0  0  0  0  3  0  0  0  0  0  0
  191.8530  176.2390  146.0800 O   0  0  0  0  0  1  0  0  0  0  0  0
  196.7960  173.4530  143.8780 C   0  0  0  0  0  1  0  0  0  0  0  0
  191.6940  175.0980  143.8880 C   0  0  0  0  0  0  0  0  0  0  0  0
  194.3870  174.4000  144.1930 C   0  0  0  0  0  0  0  0  0  0  0  0
  187.3820  176.4630  146.7340 C   0  0  0  0  0  1  0  0  0  0  0  0
  187.5410  177.2920  145.4740 C   0  0  0  0  0  2  0  0  0  0  0  0
  186.1690  176.4020  142.9920 C   0  0  0  0  0  2  0  0  0  0  0  0
  186.0870  177.5720  142.1320 N   0  0  0  0  0  2  0  0  0  0  0  0
  184.7350  178.0900  142.2440 C   0  0  0  0  0  2  0  0  0  0  0  0
  184.6170  179.1720  144.5140 C   0  0  0  0  0  0  0  0  0  0  0  0
  184.3280  178.0830  143.6390 N   0  0  0  0  0  2  0  0  0  0  0  0
  184.2050  179.1170  145.8390 O   0  0  0  0  0  1  0  0  0  0  0  0
  185.2430  180.1820  144.0970 O   0  0  0  0  0  0  0  0  0  0  0  0
  1 22  1  0  0  0  0
  1 19  1  0  0  0  0
  2  9  1  0  0  0  0
  2  3  1  0  0  0  0
  3 16  1  0  0  0  0
  4  5  1  0  0  0  0
  4 20  1  0  0  0  0
  5 15  1  0  0  0  0
  6 19  2  0  0  0  0
  6 25  1  0  0  0  0
  7 10  1  0  0  0  0
  7 14  2  0  0  0  0
  8 13  2  0  0  0  0
  9 11  1  0  0  0  0
 10  1  2  0  0  0  0
 11 17  2  0  0  0  0
 11 10  1  0  0  0  0
 12 18  2  0  0  0  0
 12 22  1  0  0  0  0
 13 15  1  0  0  0  0
 14  6  1  0  0  0  0
 16 17  1  0  0  0  0
 17 12  1  0  0  0  0
 18 23  1  0  0  0  0
 21  8  1  0  0  0  0
 22  4  2  0  0  0  0
 23  8  1  0  0  0  0
 23  5  2  0  0  0  0
 25 24  1  0  0  0  0
 26 14  1  0  0  0  0
 27 28  1  0  0  0  0
 27 26  1  0  0  0  0
 28 30  1  0  0  0  0
 29 31  1  0  0  0  0
 30 29  1  0  0  0  0
 32 29  2  0  0  0  0
M  END
>  <MODEL>
7

>  <REMARK>
 VINA RESULT:      -7.4      2.572      3.775
  Name = 
  5 active torsions:
  status: ('A' for Active; 'I' for Inactive)
    1  A    between atoms: N_2  and  C_12
    2  A    between atoms: N_2  and  C_24
    3  A    between atoms: C_8  and  C_23
    4  A    between atoms: N_10  and  C_24
    5  A    between atoms: C_12  and  C_21
                            x       y       z     vdW  Elec       q    Type
                         _______ _______ _______ _____ _____    ______ ____

>  <TORSDO>
F 5

$$$$
=
 OpenBabel11052421313D

 32 36  0  0  0  0  0  0  0  0999 V2000
  189.1440  175.6030  143.0040 C   0  0  0  0  0  0  0  0  0  0  0  0
  192.3510  174.7680  146.8030 S   0  0  0  0  0  0  0  0  0  0  0  0
  191.0860  175.8170  147.6380 C   0  0  0  0  0  2  0  0  0  0  0  0
  186.9270  176.6820  143.4640 C   0  0  0  0  0  0  0  0  0  0  0  0
  186.1510  177.4340  144.3420 C   0  0  0  0  0  0  0  0  0  0  0  0
  189.5860  174.3670  140.9380 C   0  0  0  0  0  0  0  0  0  0  0  0
  191.3200  174.5700  142.6120 C   0  0  0  0  0  2  0  0  0  0  0  0
  185.5810  178.6080  146.1820 C   0  0  0  0  0  0  0  0  0  0  0  0
  192.3290  175.5360  145.1410 C   0  0  0  0  0  2  0  0  0  0  0  0
  190.4680  175.3240  143.4330 C   0  0  0  0  0  0  0  0  0  0  0  0
  190.9250  175.7950  144.6740 C   0  0  0  0  0  0  0  0  0  0  0  0
  188.7670  176.8390  145.0960 C   0  0  0  0  0  0  0  0  0  0  0  0
  184.5120  178.6310  145.4520 N   0  0  0  0  0  0  0  0  0  0  0  0
  190.8900  174.0850  141.3760 C   0  0  0  0  0  0  0  0  0  0  0  0
  184.7380  177.8950  144.2030 C   0  0  0  0  0  3  0  0  0  0  0  0
  190.6230  177.0140  146.8180 C   0  0  0  0  0  2  0  0  0  0  0  0
  190.0820  176.5480  145.4970 C   0  0  0  0  0  0  0  0  0  0  0  0
  187.9350  177.5960  145.9460 C   0  0  0  0  0  3  0  0  0  0  0  0
  188.7320  175.1120  141.7540 C   0  0  0  0  0  3  0  0  0  0  0  0
  186.3620  176.2680  142.2620 O   0  0  0  0  0  1  0  0  0  0  0  0
  185.6710  179.2670  147.5130 C   0  0  0  0  0  1  0  0  0  0  0  0
  188.2740  176.3660  143.8330 C   0  0  0  0  0  0  0  0  0  0  0  0
  186.6400  177.8710  145.5350 C   0  0  0  0  0  0  0  0  0  0  0  0
  188.2110  172.6380  139.8370 C   0  0  0  0  0  1  0  0  0  0  0  0
  189.0750  173.8670  139.6270 C   0  0  0  0  0  2  0  0  0  0  0  0
  191.8500  173.3090  140.5330 C   0  0  0  0  0  2  0  0  0  0  0  0
  192.7240  174.2160  139.8060 N   0  0  0  0  0  2  0  0  0  0  0  0
  194.0820  173.9400  140.2380 C   0  0  0  0  0  2  0  0  0  0  0  0
  194.9600  175.0760  142.3060 C   0  0  0  0  0  0  0  0  0  0  0  0
  194.6190  175.1040  140.9210 N   0  0  0  0  0  2  0  0  0  0  0  0
  195.4710  176.2150  142.9120 O   0  0  0  0  0  0  0  0  0  0  0  0
  194.7990  174.0270  142.9850 O   0  0  0  0  0  1  0  0  0  0  0  0
  1 10  1  0  0  0  0
  1 22  1  0  0  0  0
  2  3  1  0  0  0  0
  4 22  2  0  0  0  0
  4  5  1  0  0  0  0
  5 23  1  0  0  0  0
  6 14  2  0  0  0  0
  6 19  1  0  0  0  0
  7 10  1  0  0  0  0
  8 21  1  0  0  0  0
  9  2  1  0  0  0  0
 10 11  2  0  0  0  0
 11  9  1  0  0  0  0
 11 17  1  0  0  0  0
 12 17  2  0  0  0  0
 12 18  1  0  0  0  0
 13  8  2  0  0  0  0
 14  7  1  0  0  0  0
 15  5  2  0  0  0  0
 15 13  1  0  0  0  0
 16  3  1  0  0  0  0
 17 16  1  0  0  0  0
 19  1  2  0  0  0  0
 20  4  1  0  0  0  0
 22 12  1  0  0  0  0
 23 18  2  0  0  0  0
 23  8  1  0  0  0  0
 25 24  1  0  0  0  0
 25  6  1  0  0  0  0
 26 14  1  0  0  0  0
 27 28  1  0  0  0  0
 27 26  1  0  0  0  0
 28 30  1  0  0  0  0
 29 31  2  0  0  0  0
 29 32  1  0  0  0  0
 30 29  1  0  0  0  0
M  END
>  <MODEL>
8

>  <REMARK>
 VINA RESULT:      -7.3      3.796      8.250
  Name = 
  5 active torsions:
  status: ('A' for Active; 'I' for Inactive)
    1  A    between atoms: N_2  and  C_12
    2  A    between atoms: N_2  and  C_24
    3  A    between atoms: C_8  and  C_23
    4  A    between atoms: N_10  and  C_24
    5  A    between atoms: C_12  and  C_21
                            x       y       z     vdW  Elec       q    Type
                         _______ _______ _______ _____ _____    ______ ____

>  <TORSDO>
F 5

$$$$
=
 OpenBabel11052421313D

 32 36  0  0  0  0  0  0  0  0999 V2000
  189.0710  175.6070  142.8760 C   0  0  0  0  0  0  0  0  0  0  0  0
  192.4020  174.6730  146.5440 S   0  0  0  0  0  0  0  0  0  0  0  0
  191.1830  175.7260  147.4390 C   0  0  0  0  0  2  0  0  0  0  0  0
  186.8880  176.7100  143.4310 C   0  0  0  0  0  0  0  0  0  0  0  0
  186.1550  177.4590  144.3480 C   0  0  0  0  0  0  0  0  0  0  0  0
  189.4200  174.3950  140.7780 C   0  0  0  0  0  0  0  0  0  0  0  0
  191.2170  174.5500  142.3900 C   0  0  0  0  0  2  0  0  0  0  0  0
  185.6690  178.6140  146.2240 C   0  0  0  0  0  0  0  0  0  0  0  0
  192.3310  175.4650  144.8940 C   0  0  0  0  0  2  0  0  0  0  0  0
  190.4060  175.3030  143.2530 C   0  0  0  0  0  0  0  0  0  0  0  0
  190.9140  175.7500  144.4820 C   0  0  0  0  0  0  0  0  0  0  0  0
  188.7880  176.8170  144.9980 C   0  0  0  0  0  0  0  0  0  0  0  0
  184.5750  178.6630  145.5330 N   0  0  0  0  0  0  0  0  0  0  0  0
  190.7350  174.0890  141.1640 C   0  0  0  0  0  0  0  0  0  0  0  0
  184.7450  177.9420  144.2670 C   0  0  0  0  0  3  0  0  0  0  0  0
  190.7070  176.9420  146.6520 C   0  0  0  0  0  2  0  0  0  0  0  0
  190.1130  176.5030  145.3460 C   0  0  0  0  0  0  0  0  0  0  0  0
  187.9980  177.5730  145.8880 C   0  0  0  0  0  3  0  0  0  0  0  0
  188.6070  175.1400  141.6350 C   0  0  0  0  0  3  0  0  0  0  0  0
  186.2740  176.3210  142.2450 O   0  0  0  0  0  1  0  0  0  0  0  0
  185.8160  179.2530  147.5590 C   0  0  0  0  0  1  0  0  0  0  0  0
  188.2430  176.3690  143.7470 C   0  0  0  0  0  0  0  0  0  0  0  0
  186.6940  177.8720  145.5280 C   0  0  0  0  0  0  0  0  0  0  0  0
  188.0280  172.6680  139.6960 C   0  0  0  0  0  1  0  0  0  0  0  0
  188.8550  173.9210  139.4790 C   0  0  0  0  0  2  0  0  0  0  0  0
  191.6530  173.3120  140.2760 C   0  0  0  0  0  2  0  0  0  0  0  0
  191.9920  172.0410  140.8970 N   0  0  0  0  0  2  0  0  0  0  0  0
  191.2880  171.0050  140.1620 C   0  0  0  0  0  2  0  0  0  0  0  0
  190.4990  170.6570  137.7970 C   0  0  0  0  0  0  0  0  0  0  0  0
  191.3720  171.2790  138.7380 N   0  0  0  0  0  2  0  0  0  0  0  0
  190.6200  170.9540  136.4470 O   0  0  0  0  0  0  0  0  0  0  0  0
  189.6210  169.8390  138.1800 O   0  0  0  0  0  1  0  0  0  0  0  0
  1 10  1  0  0  0  0
  1 22  1  0  0  0  0
  2  3  1  0  0  0  0
  4 22  2  0  0  0  0
  4  5  1  0  0  0  0
  5 23  1  0  0  0  0
  6 14  2  0  0  0  0
  6 19  1  0  0  0  0
  7 10  1  0  0  0  0
  8 21  1  0  0  0  0
  9  2  1  0  0  0  0
 10 11  2  0  0  0  0
 11  9  1  0  0  0  0
 11 17  1  0  0  0  0
 12 17  2  0  0  0  0
 12 18  1  0  0  0  0
 13  8  2  0  0  0  0
 14  7  1  0  0  0  0
 15  5  2  0  0  0  0
 15 13  1  0  0  0  0
 16  3  1  0  0  0  0
 17 16  1  0  0  0  0
 19  1  2  0  0  0  0
 20  4  1  0  0  0  0
 22 12  1  0  0  0  0
 23 18  2  0  0  0  0
 23  8  1  0  0  0  0
 25 24  1  0  0  0  0
 25  6  1  0  0  0  0
 26 27  1  0  0  0  0
 26 14  1  0  0  0  0
 28 27  1  0  0  0  0
 29 32  1  0  0  0  0
 29 30  1  0  0  0  0
 30 28  1  0  0  0  0
 31 29  2  0  0  0  0
M  END
>  <MODEL>
9

>  <REMARK>
 VINA RESULT:      -7.2      4.606      7.872
  Name = 
  5 active torsions:
  status: ('A' for Active; 'I' for Inactive)
    1  A    between atoms: N_2  and  C_12
    2  A    between atoms: N_2  and  C_24
    3  A    between atoms: C_8  and  C_23
    4  A    between atoms: N_10  and  C_24
    5  A    between atoms: C_12  and  C_21
                            x       y       z     vdW  Elec       q    Type
                         _______ _______ _______ _____ _____    ______ ____

>  <TORSDO>
F 5

$$$$
