=
 OpenBabel11052418573D

 34 37  0  0  1  0  0  0  0  0999 V2000
  185.3010  178.3540  144.0110 C   0  0  0  0  0  0  0  0  0  0  0  0
  185.6500  177.7390  141.6440 C   0  0  0  0  0  0  0  0  0  0  0  0
  187.4000  177.2830  143.3630 C   0  0  0  0  0  0  0  0  0  0  0  0
  183.3730  178.2380  142.4200 C   0  0  0  0  0  2  0  0  0  0  0  0
  184.3280  178.1030  141.3650 O   0  0  0  0  0  0  0  0  0  0  0  0
  187.8100  177.0400  140.9670 O   0  0  0  0  0  0  0  0  0  0  0  0
  186.1250  177.7740  143.0340 C   0  0  0  0  0  0  0  0  0  0  0  0
  183.9830  178.9640  143.6240 C   0  0  0  0  0  2  0  0  0  0  0  0
  187.8430  177.3580  144.7010 C   0  0  0  0  0  0  0  0  0  0  0  0
  185.7630  178.4660  145.3230 C   0  0  0  0  0  3  0  0  0  0  0  0
  186.4920  177.4110  140.6680 C   0  0  0  0  0  3  0  0  0  0  0  0
  188.2320  176.6330  142.2790 C   0  0  2  0  0  3  0  0  0  0  0  0
  187.0240  177.9690  145.6650 C   0  0  0  0  0  3  0  0  0  0  0  0
  190.2480  177.8560  144.6260 C   0  0  0  0  0  1  0  0  0  0  0  0
  189.2040  176.8460  145.0940 C   0  0  1  0  0  3  0  0  0  0  0  0
  189.3090  176.5170  146.6080 C   0  0  1  0  0  3  0  0  0  0  0  0
  189.6580  175.0290  146.8590 C   0  0  1  0  0  3  0  0  0  0  0  0
  188.7370  174.4320  147.7220 O   0  0  0  0  0  1  0  0  0  0  0  0
  189.7030  174.2170  145.5780 C   0  0  0  0  0  1  0  0  0  0  0  0
  191.5440  176.6130  148.3150 S   0  0  0  0  0  1  0  0  0  0  0  0
  189.5900  178.3960  148.1160 O   0  0  0  0  0  1  0  0  0  0  0  0
  190.2810  177.4780  147.3250 C   0  0  2  0  0  3  0  0  0  0  0  0
  188.1370  175.2410  142.3920 O   0  0  0  0  0  0  0  0  0  0  0  0
  188.9330  174.7360  141.3590 C   0  0  0  0  0  2  0  0  0  0  0  0
  189.9170  173.7230  141.9120 C   0  0  0  0  0  2  0  0  0  0  0  0
  191.1610  173.7040  141.0510 C   0  0  0  0  0  2  0  0  0  0  0  0
  192.3190  173.1050  141.8220 C   0  0  0  0  0  2  0  0  0  0  0  0
  192.1510  171.9280  144.5210 O   0  0  0  0  0  1  0  0  0  0  0  0
  192.4410  173.7770  143.1070 N   0  0  0  0  0  0  0  0  0  0  0  0
  193.0950  172.8380  144.0350 C   0  0  1  0  0  3  0  0  0  0  0  0
  193.2110  174.9420  145.4410 C   0  0  0  0  0  2  0  0  0  0  0  0
  193.3720  175.7900  144.1750 C   0  0  0  0  0  2  0  0  0  0  0  0
  193.2960  174.9450  142.8980 C   0  0  0  0  0  2  0  0  0  0  0  0
  193.7740  173.5400  145.2270 C   0  0  0  0  0  2  0  0  0  0  0  0
  1 10  1  0  0  0  0
  2  7  1  0  0  0  0
  3  9  2  0  0  0  0
  4  8  1  0  0  0  0
  5  2  1  0  0  0  0
  5  4  1  0  0  0  0
  6 12  1  0  0  0  0
  7  3  1  0  0  0  0
  7  1  2  0  0  0  0
  8  1  1  0  0  0  0
  9 15  1  0  0  0  0
  9 13  1  0  0  0  0
 10 13  2  0  0  0  0
 11  6  1  0  0  0  0
 11  2  2  0  0  0  0
 12 23  1  6  0  0  0
 12  3  1  0  0  0  0
 15 14  1  1  0  0  0
 16 15  1  6  0  0  0
 16 17  1  0  0  0  0
 16 22  1  0  0  0  0
 17 19  1  6  0  0  0
 17 18  1  0  0  0  0
 22 21  1  1  0  0  0
 22 20  1  0  0  0  0
 24 25  1  0  0  0  0
 24 23  1  0  0  0  0
 26 27  1  0  0  0  0
 26 25  1  0  0  0  0
 27 29  1  0  0  0  0
 29 30  1  0  0  0  0
 30 28  1  1  0  0  0
 30 34  1  0  0  0  0
 32 31  1  0  0  0  0
 33 29  1  0  0  0  0
 33 32  1  0  0  0  0
 34 31  1  0  0  0  0
M  END
>  <MODEL>
1

>  <REMARK>
 VINA RESULT:      -6.7      0.000      0.000
  Name = 
  10 active torsions:
  status: ('A' for Active; 'I' for Inactive)
    1  A    between atoms: C_3  and  N_13
    2  A    between atoms: C_3  and  C_17
    3  A    between atoms: O_5  and  C_18
    4  A    between atoms: O_5  and  C_31
    5  A    between atoms: C_7  and  C_23
    6  A    between atoms: C_17  and  C_29
    7  A    between atoms: C_18  and  C_29
    8  A    between atoms: C_21  and  C_28
    9  A    between atoms: C_23  and  C_27
   10  A    between atoms: C_23  and  C_28
                            x       y       z     vdW  Elec       q    Type
                         _______ _______ _______ _____ _____    ______ ____

>  <TORSDO>
F 10

$$$$
=
 OpenBabel11052418573D

 34 37  0  0  1  0  0  0  0  0999 V2000
  186.7130  177.3760  146.3750 C   0  0  0  0  0  0  0  0  0  0  0  0
  185.2100  178.9730  145.2380 C   0  0  0  0  0  0  0  0  0  0  0  0
  187.0000  177.7710  143.9810 C   0  0  0  0  0  0  0  0  0  0  0  0
  184.5750  178.1090  147.4480 C   0  0  0  0  0  2  0  0  0  0  0  0
  184.4600  179.0880  146.4130 O   0  0  0  0  0  0  0  0  0  0  0  0
  185.7220  179.6170  143.0160 O   0  0  0  0  0  0  0  0  0  0  0  0
  186.3190  178.0100  145.1870 C   0  0  0  0  0  0  0  0  0  0  0  0
  186.0390  177.7170  147.6750 C   0  0  0  0  0  2  0  0  0  0  0  0
  188.0800  176.8640  143.9670 C   0  0  0  0  0  0  0  0  0  0  0  0
  187.8110  176.5150  146.3640 C   0  0  0  0  0  3  0  0  0  0  0  0
  184.9670  179.7540  144.1890 C   0  0  0  0  0  3  0  0  0  0  0  0
  186.5090  178.4510  142.7210 C   0  0  2  0  0  3  0  0  0  0  0  0
  188.4880  176.2590  145.1680 C   0  0  0  0  0  3  0  0  0  0  0  0
  189.9800  177.5910  142.5880 C   0  0  0  0  0  1  0  0  0  0  0  0
  188.8380  176.5840  142.6960 C   0  0  1  0  0  3  0  0  0  0  0  0
  189.3140  175.1090  142.5920 C   0  0  1  0  0  3  0  0  0  0  0  0
  188.6720  174.3720  141.3890 C   0  0  1  0  0  3  0  0  0  0  0  0
  187.7970  173.3720  141.8170 O   0  0  0  0  0  1  0  0  0  0  0  0
  187.9080  175.3090  140.4720 C   0  0  0  0  0  1  0  0  0  0  0  0
  191.5020  173.9540  141.2510 S   0  0  0  0  0  1  0  0  0  0  0  0
  191.3390  174.5900  143.8210 O   0  0  0  0  0  1  0  0  0  0  0  0
  190.8550  175.0150  142.5840 C   0  0  2  0  0  3  0  0  0  0  0  0
  185.7460  177.5480  141.9720 O   0  0  0  0  0  0  0  0  0  0  0  0
  185.3840  178.2470  140.8160 C   0  0  0  0  0  2  0  0  0  0  0  0
  184.0120  177.8010  140.3490 C   0  0  0  0  0  2  0  0  0  0  0  0
  182.9650  178.7610  140.8680 C   0  0  0  0  0  2  0  0  0  0  0  0
  181.8090  177.9940  141.4750 C   0  0  0  0  0  2  0  0  0  0  0  0
  179.0650  177.0990  142.0780 O   0  0  0  0  0  1  0  0  0  0  0  0
  180.5550  178.5290  140.9680 N   0  0  0  0  0  0  0  0  0  0  0  0
  179.5560  178.4070  142.0440 C   0  0  1  0  0  3  0  0  0  0  0  0
  178.2520  179.8810  140.4480 C   0  0  0  0  0  2  0  0  0  0  0  0
  179.5510  180.5570  139.9960 C   0  0  0  0  0  2  0  0  0  0  0  0
  180.7870  179.9420  140.6640 C   0  0  0  0  0  2  0  0  0  0  0  0
  178.3730  179.3830  141.8850 C   0  0  0  0  0  2  0  0  0  0  0  0
  1  8  1  0  0  0  0
  2  5  1  0  0  0  0
  3  7  1  0  0  0  0
  4  8  1  0  0  0  0
  5  4  1  0  0  0  0
  6 11  1  0  0  0  0
  7  2  1  0  0  0  0
  7  1  2  0  0  0  0
  9  3  2  0  0  0  0
  9 13  1  0  0  0  0
 10  1  1  0  0  0  0
 11  2  2  0  0  0  0
 12 23  1  1  0  0  0
 12  6  1  0  0  0  0
 12  3  1  0  0  0  0
 13 10  2  0  0  0  0
 15 14  1  1  0  0  0
 15  9  1  0  0  0  0
 16 17  1  6  0  0  0
 16 15  1  0  0  0  0
 17 19  1  6  0  0  0
 17 18  1  0  0  0  0
 22 20  1  6  0  0  0
 22 16  1  0  0  0  0
 22 21  1  0  0  0  0
 24 23  1  0  0  0  0
 25 24  1  0  0  0  0
 25 26  1  0  0  0  0
 26 27  1  0  0  0  0
 29 27  1  0  0  0  0
 29 30  1  0  0  0  0
 30 28  1  6  0  0  0
 31 34  1  0  0  0  0
 32 31  1  0  0  0  0
 32 33  1  0  0  0  0
 33 29  1  0  0  0  0
 34 30  1  0  0  0  0
M  END
>  <MODEL>
2

>  <REMARK>
 VINA RESULT:      -6.6      3.677      8.210
  Name = 
  10 active torsions:
  status: ('A' for Active; 'I' for Inactive)
    1  A    between atoms: C_3  and  N_13
    2  A    between atoms: C_3  and  C_17
    3  A    between atoms: O_5  and  C_18
    4  A    between atoms: O_5  and  C_31
    5  A    between atoms: C_7  and  C_23
    6  A    between atoms: C_17  and  C_29
    7  A    between atoms: C_18  and  C_29
    8  A    between atoms: C_21  and  C_28
    9  A    between atoms: C_23  and  C_27
   10  A    between atoms: C_23  and  C_28
                            x       y       z     vdW  Elec       q    Type
                         _______ _______ _______ _____ _____    ______ ____

>  <TORSDO>
F 10

$$$$
=
 OpenBabel11052418573D

 34 37  0  0  1  0  0  0  0  0999 V2000
  186.2430  178.2830  146.2470 C   0  0  0  0  0  0  0  0  0  0  0  0
  185.3840  178.3900  143.9340 C   0  0  0  0  0  0  0  0  0  0  0  0
  187.6350  177.4330  144.4280 C   0  0  0  0  0  0  0  0  0  0  0  0
  183.8090  178.6570  145.8000 C   0  0  0  0  0  2  0  0  0  0  0  0
  184.1500  178.8310  144.4230 O   0  0  0  0  0  0  0  0  0  0  0  0
  186.8710  177.9040  142.1550 O   0  0  0  0  0  0  0  0  0  0  0  0
  186.4380  178.0110  144.8840 C   0  0  0  0  0  0  0  0  0  0  0  0
  184.9990  178.9910  146.7070 C   0  0  0  0  0  2  0  0  0  0  0  0
  188.6430  177.1070  145.3590 C   0  0  0  0  0  0  0  0  0  0  0  0
  187.2610  178.0000  147.1580 C   0  0  0  0  0  3  0  0  0  0  0  0
  185.6320  178.3570  142.6280 C   0  0  0  0  0  3  0  0  0  0  0  0
  187.7780  177.1250  142.9530 C   0  0  2  0  0  3  0  0  0  0  0  0
  188.4510  177.4140  146.7170 C   0  0  0  0  0  3  0  0  0  0  0  0
  190.7980  177.5870  144.2810 C   0  0  0  0  0  1  0  0  0  0  0  0
  189.9410  176.4910  144.9100 C   0  0  1  0  0  3  0  0  0  0  0  0
  190.6700  175.7250  146.0470 C   0  0  1  0  0  3  0  0  0  0  0  0
  190.2380  174.2390  146.1200 C   0  0  1  0  0  3  0  0  0  0  0  0
  189.2170  174.0540  147.0540 O   0  0  0  0  0  1  0  0  0  0  0  0
  189.7590  173.7050  144.7830 C   0  0  0  0  0  1  0  0  0  0  0  0
  193.0800  174.3000  145.7640 S   0  0  0  0  0  1  0  0  0  0  0  0
  192.7080  176.6030  147.0280 O   0  0  0  0  0  1  0  0  0  0  0  0
  192.2020  175.8880  145.9420 C   0  0  2  0  0  3  0  0  0  0  0  0
  187.5410  175.7630  142.7380 O   0  0  0  0  0  0  0  0  0  0  0  0
  188.0730  175.4940  141.4730 C   0  0  0  0  0  2  0  0  0  0  0  0
  189.5230  175.0700  141.6010 C   0  0  0  0  0  2  0  0  0  0  0  0
  189.7700  173.8480  140.7450 C   0  0  0  0  0  2  0  0  0  0  0  0
  188.4530  173.2530  140.2930 C   0  0  0  0  0  2  0  0  0  0  0  0
  187.8040  174.6480  137.7770 O   0  0  0  0  0  1  0  0  0  0  0  0
  188.5880  172.7620  138.9300 N   0  0  0  0  0  0  0  0  0  0  0  0
  188.9520  173.9100  138.0820 C   0  0  1  0  0  3  0  0  0  0  0  0
  189.3590  172.0380  136.4240 C   0  0  0  0  0  2  0  0  0  0  0  0
  189.8020  171.1140  137.5630 C   0  0  0  0  0  2  0  0  0  0  0  0
  189.6760  171.7840  138.9350 C   0  0  0  0  0  2  0  0  0  0  0  0
  189.6450  173.4970  136.7690 C   0  0  0  0  0  2  0  0  0  0  0  0
  1  8  1  0  0  0  0
  1 10  1  0  0  0  0
  2  5  1  0  0  0  0
  2  7  1  0  0  0  0
  3  7  1  0  0  0  0
  3  9  2  0  0  0  0
  4  8  1  0  0  0  0
  5  4  1  0  0  0  0
  6 11  1  0  0  0  0
  6 12  1  0  0  0  0
  7  1  2  0  0  0  0
  9 13  1  0  0  0  0
 11  2  2  0  0  0  0
 12 23  1  1  0  0  0
 12  3  1  0  0  0  0
 13 10  2  0  0  0  0
 15 14  1  1  0  0  0
 15  9  1  0  0  0  0
 16 15  1  6  0  0  0
 16 17  1  0  0  0  0
 17 19  1  6  0  0  0
 17 18  1  0  0  0  0
 22 20  1  1  0  0  0
 22 16  1  0  0  0  0
 22 21  1  0  0  0  0
 24 25  1  0  0  0  0
 24 23  1  0  0  0  0
 26 25  1  0  0  0  0
 27 26  1  0  0  0  0
 29 33  1  0  0  0  0
 29 27  1  0  0  0  0
 30 28  1  6  0  0  0
 30 29  1  0  0  0  0
 31 34  1  0  0  0  0
 31 32  1  0  0  0  0
 32 33  1  0  0  0  0
 34 30  1  0  0  0  0
M  END
>  <MODEL>
3

>  <REMARK>
 VINA RESULT:      -6.6      2.490      4.218
  Name = 
  10 active torsions:
  status: ('A' for Active; 'I' for Inactive)
    1  A    between atoms: C_3  and  N_13
    2  A    between atoms: C_3  and  C_17
    3  A    between atoms: O_5  and  C_18
    4  A    between atoms: O_5  and  C_31
    5  A    between atoms: C_7  and  C_23
    6  A    between atoms: C_17  and  C_29
    7  A    between atoms: C_18  and  C_29
    8  A    between atoms: C_21  and  C_28
    9  A    between atoms: C_23  and  C_27
   10  A    between atoms: C_23  and  C_28
                            x       y       z     vdW  Elec       q    Type
                         _______ _______ _______ _____ _____    ______ ____

>  <TORSDO>
F 10

$$$$
=
 OpenBabel11052418573D

 34 37  0  0  1  0  0  0  0  0999 V2000
  186.3250  178.2750  146.3110 C   0  0  0  0  0  0  0  0  0  0  0  0
  185.4490  178.6140  144.0270 C   0  0  0  0  0  0  0  0  0  0  0  0
  187.6930  177.5910  144.4050 C   0  0  0  0  0  0  0  0  0  0  0  0
  183.8920  178.7150  145.9250 C   0  0  0  0  0  2  0  0  0  0  0  0
  184.2240  179.0180  144.5680 O   0  0  0  0  0  0  0  0  0  0  0  0
  186.9160  178.2870  142.1960 O   0  0  0  0  0  0  0  0  0  0  0  0
  186.5050  178.1330  144.9270 C   0  0  0  0  0  0  0  0  0  0  0  0
  185.0930  178.9470  146.8490 C   0  0  0  0  0  2  0  0  0  0  0  0
  188.7040  177.1650  145.2920 C   0  0  0  0  0  0  0  0  0  0  0  0
  187.3470  177.8930  147.1810 C   0  0  0  0  0  3  0  0  0  0  0  0
  185.6860  178.7060  142.7220 C   0  0  0  0  0  3  0  0  0  0  0  0
  187.8200  177.4250  142.9060 C   0  0  2  0  0  3  0  0  0  0  0  0
  188.5270  177.3410  146.6750 C   0  0  0  0  0  3  0  0  0  0  0  0
  190.8620  177.7260  144.2600 C   0  0  0  0  0  1  0  0  0  0  0  0
  189.9920  176.5820  144.7730 C   0  0  1  0  0  3  0  0  0  0  0  0
  190.7130  175.6890  145.8190 C   0  0  1  0  0  3  0  0  0  0  0  0
  190.3650  174.1900  145.6470 C   0  0  1  0  0  3  0  0  0  0  0  0
  189.3700  173.7950  146.5440 O   0  0  0  0  0  1  0  0  0  0  0  0
  189.8940  173.8590  144.2430 C   0  0  0  0  0  1  0  0  0  0  0  0
  193.2150  174.4260  145.5590 S   0  0  0  0  0  1  0  0  0  0  0  0
  192.6400  176.5850  146.9890 O   0  0  0  0  0  1  0  0  0  0  0  0
  192.2360  175.9420  145.8190 C   0  0  2  0  0  3  0  0  0  0  0  0
  187.5660  176.0930  142.5630 O   0  0  0  0  0  0  0  0  0  0  0  0
  188.3180  175.8640  141.4070 C   0  0  0  0  0  2  0  0  0  0  0  0
  188.3190  174.3840  141.0730 C   0  0  0  0  0  2  0  0  0  0  0  0
  188.6630  174.1950  139.6130 C   0  0  0  0  0  2  0  0  0  0  0  0
  189.6270  173.0380  139.4510 C   0  0  0  0  0  2  0  0  0  0  0  0
  189.9500  171.2980  141.8100 O   0  0  0  0  0  1  0  0  0  0  0  0
  190.6430  173.1080  140.4890 N   0  0  0  0  0  0  0  0  0  0  0  0
  190.9350  171.7280  140.9150 C   0  0  1  0  0  3  0  0  0  0  0  0
  192.8390  172.9230  142.0840 C   0  0  0  0  0  2  0  0  0  0  0  0
  192.9170  173.9380  140.9400 C   0  0  0  0  0  2  0  0  0  0  0  0
  191.8340  173.7020  139.8810 C   0  0  0  0  0  2  0  0  0  0  0  0
  192.3170  171.5800  141.5810 C   0  0  0  0  0  2  0  0  0  0  0  0
  1  8  1  0  0  0  0
  1 10  1  0  0  0  0
  2  5  1  0  0  0  0
  2  7  1  0  0  0  0
  3  7  1  0  0  0  0
  3  9  2  0  0  0  0
  4  8  1  0  0  0  0
  5  4  1  0  0  0  0
  6 11  1  0  0  0  0
  6 12  1  0  0  0  0
  7  1  2  0  0  0  0
  9 13  1  0  0  0  0
 11  2  2  0  0  0  0
 12 23  1  1  0  0  0
 12  3  1  0  0  0  0
 13 10  2  0  0  0  0
 15 14  1  1  0  0  0
 15  9  1  0  0  0  0
 16 15  1  6  0  0  0
 17 19  1  6  0  0  0
 17 16  1  0  0  0  0
 17 18  1  0  0  0  0
 22 20  1  1  0  0  0
 22 16  1  0  0  0  0
 22 21  1  0  0  0  0
 24 23  1  0  0  0  0
 25 24  1  0  0  0  0
 26 25  1  0  0  0  0
 27 26  1  0  0  0  0
 27 29  1  0  0  0  0
 29 30  1  0  0  0  0
 30 34  1  0  0  0  0
 30 28  1  1  0  0  0
 32 31  1  0  0  0  0
 33 29  1  0  0  0  0
 33 32  1  0  0  0  0
 34 31  1  0  0  0  0
M  END
>  <MODEL>
4

>  <REMARK>
 VINA RESULT:      -6.5      1.927      2.729
  Name = 
  10 active torsions:
  status: ('A' for Active; 'I' for Inactive)
    1  A    between atoms: C_3  and  N_13
    2  A    between atoms: C_3  and  C_17
    3  A    between atoms: O_5  and  C_18
    4  A    between atoms: O_5  and  C_31
    5  A    between atoms: C_7  and  C_23
    6  A    between atoms: C_17  and  C_29
    7  A    between atoms: C_18  and  C_29
    8  A    between atoms: C_21  and  C_28
    9  A    between atoms: C_23  and  C_27
   10  A    between atoms: C_23  and  C_28
                            x       y       z     vdW  Elec       q    Type
                         _______ _______ _______ _____ _____    ______ ____

>  <TORSDO>
F 10

$$$$
=
 OpenBabel11052418573D

 34 37  0  0  1  0  0  0  0  0999 V2000
  186.6120  178.0560  146.5050 C   0  0  0  0  0  0  0  0  0  0  0  0
  185.2490  178.4290  144.4790 C   0  0  0  0  0  0  0  0  0  0  0  0
  187.6110  177.6420  144.3130 C   0  0  0  0  0  0  0  0  0  0  0  0
  184.1210  178.2430  146.6530 C   0  0  0  0  0  2  0  0  0  0  0  0
  184.1310  178.6610  145.2860 O   0  0  0  0  0  0  0  0  0  0  0  0
  186.3260  178.3760  142.3690 O   0  0  0  0  0  0  0  0  0  0  0  0
  186.5120  178.0170  145.1050 C   0  0  0  0  0  0  0  0  0  0  0  0
  185.4600  178.5540  147.3320 C   0  0  0  0  0  2  0  0  0  0  0  0
  188.8220  177.2810  144.9400 C   0  0  0  0  0  0  0  0  0  0  0  0
  187.8260  177.7400  147.1170 C   0  0  0  0  0  3  0  0  0  0  0  0
  185.1990  178.6230  143.1640 C   0  0  0  0  0  3  0  0  0  0  0  0
  187.4380  177.5800  142.8110 C   0  0  2  0  0  3  0  0  0  0  0  0
  188.9220  177.3540  146.3400 C   0  0  0  0  0  3  0  0  0  0  0  0
  190.5660  178.1190  143.4270 C   0  0  0  0  0  1  0  0  0  0  0  0
  190.0230  176.8770  144.1280 C   0  0  1  0  0  3  0  0  0  0  0  0
  191.0970  176.1330  144.9680 C   0  0  1  0  0  3  0  0  0  0  0  0
  191.1020  174.6090  144.6910 C   0  0  1  0  0  3  0  0  0  0  0  0
  192.0390  173.9520  145.4910 O   0  0  0  0  0  1  0  0  0  0  0  0
  189.7460  173.9690  144.9280 C   0  0  0  0  0  1  0  0  0  0  0  0
  193.4690  175.9840  143.4600 S   0  0  0  0  0  1  0  0  0  0  0  0
  193.2080  176.7620  145.9830 O   0  0  0  0  0  1  0  0  0  0  0  0
  192.4920  176.7680  144.7860 C   0  0  2  0  0  3  0  0  0  0  0  0
  187.2480  176.2500  142.4190 O   0  0  0  0  0  0  0  0  0  0  0  0
  187.8800  176.1420  141.1760 C   0  0  0  0  0  2  0  0  0  0  0  0
  188.9120  175.0320  141.2150 C   0  0  0  0  0  2  0  0  0  0  0  0
  188.2370  173.7250  141.5690 C   0  0  0  0  0  2  0  0  0  0  0  0
  188.1720  172.8260  140.3520 C   0  0  0  0  0  2  0  0  0  0  0  0
  191.0720  172.2990  140.2570 O   0  0  0  0  0  1  0  0  0  0  0  0
  189.1380  173.2810  139.3640 N   0  0  0  0  0  0  0  0  0  0  0  0
  190.1470  172.2180  139.2120 C   0  0  1  0  0  3  0  0  0  0  0  0
  190.7940  173.6740  137.2420 C   0  0  0  0  0  2  0  0  0  0  0  0
  189.3270  174.0670  137.0380 C   0  0  0  0  0  2  0  0  0  0  0  0
  188.4110  173.4590  138.1070 C   0  0  0  0  0  2  0  0  0  0  0  0
  190.9010  172.2870  137.8690 C   0  0  0  0  0  2  0  0  0  0  0  0
  1 10  1  0  0  0  0
  1  8  1  0  0  0  0
  2  7  1  0  0  0  0
  2  5  1  0  0  0  0
  3  9  2  0  0  0  0
  3  7  1  0  0  0  0
  4  8  1  0  0  0  0
  5  4  1  0  0  0  0
  6 12  1  0  0  0  0
  6 11  1  0  0  0  0
  7  1  2  0  0  0  0
  9 13  1  0  0  0  0
 11  2  2  0  0  0  0
 12 23  1  1  0  0  0
 12  3  1  0  0  0  0
 13 10  2  0  0  0  0
 15 14  1  1  0  0  0
 15  9  1  0  0  0  0
 16 15  1  6  0  0  0
 17 19  1  1  0  0  0
 17 16  1  0  0  0  0
 17 18  1  0  0  0  0
 22 20  1  6  0  0  0
 22 16  1  0  0  0  0
 22 21  1  0  0  0  0
 24 25  1  0  0  0  0
 24 23  1  0  0  0  0
 25 26  1  0  0  0  0
 27 26  1  0  0  0  0
 29 27  1  0  0  0  0
 30 29  1  0  0  0  0
 30 28  1  1  0  0  0
 31 34  1  0  0  0  0
 32 31  1  0  0  0  0
 32 33  1  0  0  0  0
 33 29  1  0  0  0  0
 34 30  1  0  0  0  0
M  END
>  <MODEL>
5

>  <REMARK>
 VINA RESULT:      -6.4      2.556      4.084
  Name = 
  10 active torsions:
  status: ('A' for Active; 'I' for Inactive)
    1  A    between atoms: C_3  and  N_13
    2  A    between atoms: C_3  and  C_17
    3  A    between atoms: O_5  and  C_18
    4  A    between atoms: O_5  and  C_31
    5  A    between atoms: C_7  and  C_23
    6  A    between atoms: C_17  and  C_29
    7  A    between atoms: C_18  and  C_29
    8  A    between atoms: C_21  and  C_28
    9  A    between atoms: C_23  and  C_27
   10  A    between atoms: C_23  and  C_28
                            x       y       z     vdW  Elec       q    Type
                         _______ _______ _______ _____ _____    ______ ____

>  <TORSDO>
F 10

$$$$
=
 OpenBabel11052418573D

 34 37  0  0  1  0  0  0  0  0999 V2000
  185.7240  178.5260  144.3990 C   0  0  0  0  0  0  0  0  0  0  0  0
  185.6360  178.0980  141.9680 C   0  0  0  0  0  0  0  0  0  0  0  0
  187.5980  177.3770  143.3310 C   0  0  0  0  0  0  0  0  0  0  0  0
  183.5620  178.6800  143.1480 C   0  0  0  0  0  2  0  0  0  0  0  0
  184.3210  178.5730  141.9420 O   0  0  0  0  0  0  0  0  0  0  0  0
  187.5960  177.3170  140.8890 O   0  0  0  0  0  0  0  0  0  0  0  0
  186.3310  177.9800  143.2570 C   0  0  0  0  0  0  0  0  0  0  0  0
  184.4150  179.2550  144.2850 C   0  0  0  0  0  2  0  0  0  0  0  0
  188.2560  177.3040  144.5770 C   0  0  0  0  0  0  0  0  0  0  0  0
  186.3990  178.4910  145.6200 C   0  0  0  0  0  3  0  0  0  0  0  0
  186.2810  177.8010  140.8430 C   0  0  0  0  0  3  0  0  0  0  0  0
  188.1890  176.7690  142.0770 C   0  0  2  0  0  3  0  0  0  0  0  0
  187.6540  177.8830  145.7080 C   0  0  0  0  0  3  0  0  0  0  0  0
  190.6610  177.6940  144.2630 C   0  0  0  0  0  1  0  0  0  0  0  0
  189.6150  176.6700  144.6980 C   0  0  1  0  0  3  0  0  0  0  0  0
  189.8850  176.0860  146.1120 C   0  0  1  0  0  3  0  0  0  0  0  0
  189.9730  174.5400  146.0990 C   0  0  1  0  0  3  0  0  0  0  0  0
  189.0290  173.9720  146.9560 O   0  0  0  0  0  1  0  0  0  0  0  0
  189.7660  173.9570  144.7130 C   0  0  0  0  0  1  0  0  0  0  0  0
  192.5770  175.6410  146.8010 S   0  0  0  0  0  1  0  0  0  0  0  0
  190.8310  177.2030  148.0460 O   0  0  0  0  0  1  0  0  0  0  0  0
  191.1230  176.7400  146.7630 C   0  0  2  0  0  3  0  0  0  0  0  0
  188.0020  175.3830  142.1000 O   0  0  0  0  0  0  0  0  0  0  0  0
  188.4750  174.9300  140.8640 C   0  0  0  0  0  2  0  0  0  0  0  0
  189.7690  174.1630  141.0540 C   0  0  0  0  0  2  0  0  0  0  0  0
  189.6320  172.7820  140.4520 C   0  0  0  0  0  2  0  0  0  0  0  0
  188.4460  172.7400  139.5110 C   0  0  0  0  0  2  0  0  0  0  0  0
  188.8720  174.1930  136.9800 O   0  0  0  0  0  1  0  0  0  0  0  0
  188.8700  172.2060  138.2250 N   0  0  0  0  0  0  0  0  0  0  0  0
  189.6990  173.2340  137.5720 C   0  0  1  0  0  3  0  0  0  0  0  0
  190.1740  171.2880  136.0220 C   0  0  0  0  0  2  0  0  0  0  0  0
  190.0600  170.3120  137.1970 C   0  0  0  0  0  2  0  0  0  0  0  0
  189.6800  171.0190  138.5030 C   0  0  0  0  0  2  0  0  0  0  0  0
  190.6450  172.6580  136.5000 C   0  0  0  0  0  2  0  0  0  0  0  0
  1 10  1  0  0  0  0
  2  7  1  0  0  0  0
  3  9  2  0  0  0  0
  4  8  1  0  0  0  0
  5  2  1  0  0  0  0
  5  4  1  0  0  0  0
  6 12  1  0  0  0  0
  7  3  1  0  0  0  0
  7  1  2  0  0  0  0
  8  1  1  0  0  0  0
  9 15  1  0  0  0  0
  9 13  1  0  0  0  0
 10 13  2  0  0  0  0
 11  6  1  0  0  0  0
 11  2  2  0  0  0  0
 12 23  1  1  0  0  0
 12  3  1  0  0  0  0
 15 14  1  1  0  0  0
 16 15  1  6  0  0  0
 16 22  1  0  0  0  0
 17 19  1  6  0  0  0
 17 16  1  0  0  0  0
 17 18  1  0  0  0  0
 22 20  1  1  0  0  0
 22 21  1  0  0  0  0
 24 25  1  0  0  0  0
 24 23  1  0  0  0  0
 26 25  1  0  0  0  0
 27 26  1  0  0  0  0
 29 33  1  0  0  0  0
 29 27  1  0  0  0  0
 30 28  1  6  0  0  0
 30 29  1  0  0  0  0
 31 34  1  0  0  0  0
 31 32  1  0  0  0  0
 32 33  1  0  0  0  0
 34 30  1  0  0  0  0
M  END
>  <MODEL>
6

>  <REMARK>
 VINA RESULT:      -6.4      2.456      3.998
  Name = 
  10 active torsions:
  status: ('A' for Active; 'I' for Inactive)
    1  A    between atoms: C_3  and  N_13
    2  A    between atoms: C_3  and  C_17
    3  A    between atoms: O_5  and  C_18
    4  A    between atoms: O_5  and  C_31
    5  A    between atoms: C_7  and  C_23
    6  A    between atoms: C_17  and  C_29
    7  A    between atoms: C_18  and  C_29
    8  A    between atoms: C_21  and  C_28
    9  A    between atoms: C_23  and  C_27
   10  A    between atoms: C_23  and  C_28
                            x       y       z     vdW  Elec       q    Type
                         _______ _______ _______ _____ _____    ______ ____

>  <TORSDO>
F 10

$$$$
=
 OpenBabel11052418573D

 34 37  0  0  1  0  0  0  0  0999 V2000
  191.7320  174.7170  145.5820 C   0  0  0  0  0  0  0  0  0  0  0  0
  190.5880  176.9020  145.4530 C   0  0  0  0  0  0  0  0  0  0  0  0
  190.7670  175.4240  143.4510 C   0  0  0  0  0  0  0  0  0  0  0  0
  191.0160  175.9120  147.6600 C   0  0  0  0  0  2  0  0  0  0  0  0
  190.7260  177.0450  146.8380 O   0  0  0  0  0  0  0  0  0  0  0  0
  189.9800  177.7330  143.3190 O   0  0  0  0  0  0  0  0  0  0  0  0
  191.0200  175.6520  144.8150 C   0  0  0  0  0  0  0  0  0  0  0  0
  192.0810  175.0200  147.0120 C   0  0  0  0  0  2  0  0  0  0  0  0
  191.2200  174.2280  142.8560 C   0  0  0  0  0  0  0  0  0  0  0  0
  192.2160  173.5560  144.9770 C   0  0  0  0  0  3  0  0  0  0  0  0
  190.1210  177.8970  144.7040 C   0  0  0  0  0  3  0  0  0  0  0  0
  189.9610  176.4470  142.6800 C   0  0  2  0  0  3  0  0  0  0  0  0
  191.9600  173.3130  143.6240 C   0  0  0  0  0  3  0  0  0  0  0  0
  192.3050  174.0450  140.6590 C   0  0  0  0  0  1  0  0  0  0  0  0
  190.9730  173.9480  141.3980 C   0  0  1  0  0  3  0  0  0  0  0  0
  190.2410  172.5990  141.1580 C   0  0  1  0  0  3  0  0  0  0  0  0
  188.8630  172.7940  140.4790 C   0  0  1  0  0  3  0  0  0  0  0  0
  187.8560  172.9970  141.4250 O   0  0  0  0  0  1  0  0  0  0  0  0
  188.8500  173.9670  139.5150 C   0  0  0  0  0  1  0  0  0  0  0  0
  190.2620  170.7390  139.0460 S   0  0  0  0  0  1  0  0  0  0  0  0
  191.7190  170.6780  141.2630 O   0  0  0  0  0  1  0  0  0  0  0  0
  191.1370  171.6010  140.3940 C   0  0  2  0  0  3  0  0  0  0  0  0
  188.6400  176.0020  142.5590 O   0  0  0  0  0  0  0  0  0  0  0  0
  188.1000  176.7420  141.5020 C   0  0  0  0  0  2  0  0  0  0  0  0
  186.5990  176.8680  141.6710 C   0  0  0  0  0  2  0  0  0  0  0  0
  186.2080  176.4270  143.0640 C   0  0  0  0  0  2  0  0  0  0  0  0
  185.2030  177.3940  143.6550 C   0  0  0  0  0  2  0  0  0  0  0  0
  183.9340  179.3240  145.4880 O   0  0  0  0  0  1  0  0  0  0  0  0
  185.6810  177.8550  144.9490 N   0  0  0  0  0  0  0  0  0  0  0  0
  184.5000  178.0840  145.7990 C   0  0  1  0  0  3  0  0  0  0  0  0
  186.3090  178.2710  147.5630 C   0  0  0  0  0  2  0  0  0  0  0  0
  187.1530  177.2290  146.8210 C   0  0  0  0  0  2  0  0  0  0  0  0
  186.4960  176.7780  145.5110 C   0  0  0  0  0  2  0  0  0  0  0  0
  184.8220  178.0450  147.3060 C   0  0  0  0  0  2  0  0  0  0  0  0
  1  8  1  0  0  0  0
  2  5  1  0  0  0  0
  3  7  1  0  0  0  0
  5  4  1  0  0  0  0
  6 11  1  0  0  0  0
  7  2  1  0  0  0  0
  7  1  2  0  0  0  0
  8  4  1  0  0  0  0
  9  3  2  0  0  0  0
  9 13  1  0  0  0  0
 10  1  1  0  0  0  0
 11  2  2  0  0  0  0
 12 23  1  1  0  0  0
 12  6  1  0  0  0  0
 12  3  1  0  0  0  0
 13 10  2  0  0  0  0
 15 14  1  6  0  0  0
 15  9  1  0  0  0  0
 16 22  1  6  0  0  0
 16 15  1  0  0  0  0
 17 19  1  6  0  0  0
 17 16  1  0  0  0  0
 17 18  1  0  0  0  0
 22 20  1  6  0  0  0
 22 21  1  0  0  0  0
 24 25  1  0  0  0  0
 24 23  1  0  0  0  0
 25 26  1  0  0  0  0
 26 27  1  0  0  0  0
 27 29  1  0  0  0  0
 29 33  1  0  0  0  0
 29 30  1  0  0  0  0
 30 28  1  6  0  0  0
 30 34  1  0  0  0  0
 32 31  1  0  0  0  0
 33 32  1  0  0  0  0
 34 31  1  0  0  0  0
M  END
>  <MODEL>
7

>  <REMARK>
 VINA RESULT:      -6.3      3.011      7.341
  Name = 
  10 active torsions:
  status: ('A' for Active; 'I' for Inactive)
    1  A    between atoms: C_3  and  N_13
    2  A    between atoms: C_3  and  C_17
    3  A    between atoms: O_5  and  C_18
    4  A    between atoms: O_5  and  C_31
    5  A    between atoms: C_7  and  C_23
    6  A    between atoms: C_17  and  C_29
    7  A    between atoms: C_18  and  C_29
    8  A    between atoms: C_21  and  C_28
    9  A    between atoms: C_23  and  C_27
   10  A    between atoms: C_23  and  C_28
                            x       y       z     vdW  Elec       q    Type
                         _______ _______ _______ _____ _____    ______ ____

>  <TORSDO>
F 10

$$$$
=
 OpenBabel11052418573D

 34 37  0  0  1  0  0  0  0  0999 V2000
  186.7220  176.7730  143.5840 C   0  0  0  0  0  0  0  0  0  0  0  0
  187.4600  177.0410  145.9260 C   0  0  0  0  0  0  0  0  0  0  0  0
  188.6410  175.4840  144.3750 C   0  0  0  0  0  0  0  0  0  0  0  0
  185.9670  178.7300  144.9490 C   0  0  0  0  0  2  0  0  0  0  0  0
  186.5370  178.0800  146.0880 O   0  0  0  0  0  0  0  0  0  0  0  0
  189.0760  175.5330  146.7790 O   0  0  0  0  0  0  0  0  0  0  0  0
  187.6270  176.4300  144.6010 C   0  0  0  0  0  0  0  0  0  0  0  0
  185.5830  177.7120  143.8700 C   0  0  0  0  0  2  0  0  0  0  0  0
  188.7590  174.8900  143.1010 C   0  0  0  0  0  0  0  0  0  0  0  0
  186.8170  176.1490  142.3400 C   0  0  0  0  0  3  0  0  0  0  0  0
  188.1490  176.5680  146.9610 C   0  0  0  0  0  3  0  0  0  0  0  0
  189.6130  175.1780  145.4940 C   0  0  2  0  0  3  0  0  0  0  0  0
  187.8290  175.2160  142.0990 C   0  0  0  0  0  3  0  0  0  0  0  0
  189.1580  172.5100  142.6340 C   0  0  0  0  0  1  0  0  0  0  0  0
  189.8300  173.8690  142.8200 C   0  0  1  0  0  3  0  0  0  0  0  0
  190.7430  174.2660  141.6280 C   0  0  1  0  0  3  0  0  0  0  0  0
  192.2220  174.4350  142.0560 C   0  0  1  0  0  3  0  0  0  0  0  0
  192.5000  175.7590  142.4020 O   0  0  0  0  0  1  0  0  0  0  0  0
  192.5920  173.5510  143.2320 C   0  0  0  0  0  1  0  0  0  0  0  0
  192.1670  172.8340  139.6680 S   0  0  0  0  0  1  0  0  0  0  0  0
  189.6990  173.7890  139.4910 O   0  0  0  0  0  1  0  0  0  0  0  0
  190.5820  173.2850  140.4460 C   0  0  2  0  0  3  0  0  0  0  0  0
  190.8070  175.8750  145.2760 O   0  0  0  0  0  0  0  0  0  0  0  0
  191.7180  175.3340  146.1880 C   0  0  0  0  0  2  0  0  0  0  0  0
  192.6330  176.4230  146.7150 C   0  0  0  0  0  2  0  0  0  0  0  0
  194.0750  176.0100  146.5220 C   0  0  0  0  0  2  0  0  0  0  0  0
  194.6010  176.5520  145.2100 C   0  0  0  0  0  2  0  0  0  0  0  0
  195.9600  176.7010  142.5970 O   0  0  0  0  0  1  0  0  0  0  0  0
  195.2930  175.4920  144.4930 N   0  0  0  0  0  0  0  0  0  0  0  0
  196.4220  176.1090  143.7760 C   0  0  1  0  0  3  0  0  0  0  0  0
  197.0240  173.6690  143.4530 C   0  0  0  0  0  2  0  0  0  0  0  0
  196.4260  173.3310  144.8230 C   0  0  0  0  0  2  0  0  0  0  0  0
  195.7960  174.5550  145.4980 C   0  0  0  0  0  2  0  0  0  0  0  0
  197.5390  175.1050  143.4280 C   0  0  0  0  0  2  0  0  0  0  0  0
  1  8  1  0  0  0  0
  1  7  1  0  0  0  0
  2  5  1  0  0  0  0
  2 11  2  0  0  0  0
  3  7  2  0  0  0  0
  3 12  1  0  0  0  0
  4  5  1  0  0  0  0
  6 11  1  0  0  0  0
  7  2  1  0  0  0  0
  8  4  1  0  0  0  0
  9  3  1  0  0  0  0
 10  1  2  0  0  0  0
 12 23  1  6  0  0  0
 12  6  1  0  0  0  0
 13 10  1  0  0  0  0
 13  9  2  0  0  0  0
 15 14  1  6  0  0  0
 15  9  1  0  0  0  0
 16 22  1  6  0  0  0
 16 17  1  0  0  0  0
 16 15  1  0  0  0  0
 17 18  1  0  0  0  0
 17 19  1  1  0  0  0
 20 22  1  0  0  0  0
 22 21  1  6  0  0  0
 23 24  1  0  0  0  0
 24 25  1  0  0  0  0
 26 25  1  0  0  0  0
 27 26  1  0  0  0  0
 29 27  1  0  0  0  0
 29 33  1  0  0  0  0
 30 28  1  6  0  0  0
 30 29  1  0  0  0  0
 31 32  1  0  0  0  0
 32 33  1  0  0  0  0
 34 31  1  0  0  0  0
 34 30  1  0  0  0  0
M  END
>  <MODEL>
8

>  <REMARK>
 VINA RESULT:      -6.1      2.948      5.273
  Name = 
  10 active torsions:
  status: ('A' for Active; 'I' for Inactive)
    1  A    between atoms: C_3  and  N_13
    2  A    between atoms: C_3  and  C_17
    3  A    between atoms: O_5  and  C_18
    4  A    between atoms: O_5  and  C_31
    5  A    between atoms: C_7  and  C_23
    6  A    between atoms: C_17  and  C_29
    7  A    between atoms: C_18  and  C_29
    8  A    between atoms: C_21  and  C_28
    9  A    between atoms: C_23  and  C_27
   10  A    between atoms: C_23  and  C_28
                            x       y       z     vdW  Elec       q    Type
                         _______ _______ _______ _____ _____    ______ ____

>  <TORSDO>
F 10

$$$$
=
 OpenBabel11052418573D

 34 37  0  0  1  0  0  0  0  0999 V2000
  193.6320  175.2540  145.9810 C   0  0  0  0  0  0  0  0  0  0  0  0
  193.6530  173.0810  144.8060 C   0  0  0  0  0  0  0  0  0  0  0  0
  191.5040  174.1900  145.4230 C   0  0  0  0  0  0  0  0  0  0  0  0
  195.7000  174.4380  144.8320 C   0  0  0  0  0  2  0  0  0  0  0  0
  195.0410  173.1800  144.6670 O   0  0  0  0  0  0  0  0  0  0  0  0
  191.6130  171.8940  144.5950 O   0  0  0  0  0  0  0  0  0  0  0  0
  192.9090  174.2010  145.3980 C   0  0  0  0  0  0  0  0  0  0  0  0
  195.1330  175.2030  146.0340 C   0  0  0  0  0  2  0  0  0  0  0  0
  190.8160  175.2640  146.0250 C   0  0  0  0  0  0  0  0  0  0  0  0
  192.9470  176.2910  146.6140 C   0  0  0  0  0  3  0  0  0  0  0  0
  193.0060  171.9720  144.4580 C   0  0  0  0  0  3  0  0  0  0  0  0
  190.7740  173.0500  144.7460 C   0  0  2  0  0  3  0  0  0  0  0  0
  191.5490  176.2970  146.6340 C   0  0  0  0  0  3  0  0  0  0  0  0
  188.8650  174.5950  147.3610 C   0  0  0  0  0  1  0  0  0  0  0  0
  189.3120  175.2880  146.0760 C   0  0  1  0  0  3  0  0  0  0  0  0
  188.7250  176.7170  145.9190 C   0  0  1  0  0  3  0  0  0  0  0  0
  188.4460  177.0750  144.4380 C   0  0  1  0  0  3  0  0  0  0  0  0
  189.4480  177.8950  143.9170 O   0  0  0  0  0  1  0  0  0  0  0  0
  188.3330  175.8460  143.5540 C   0  0  0  0  0  1  0  0  0  0  0  0
  185.9170  176.8950  145.8860 S   0  0  0  0  0  1  0  0  0  0  0  0
  187.5890  178.0910  147.5630 O   0  0  0  0  0  1  0  0  0  0  0  0
  187.4850  176.9180  146.8160 C   0  0  2  0  0  3  0  0  0  0  0  0
  190.3210  173.4690  143.4900 O   0  0  0  0  0  0  0  0  0  0  0  0
  189.7000  172.3470  142.9320 C   0  0  0  0  0  2  0  0  0  0  0  0
  190.2620  172.0780  141.5500 C   0  0  0  0  0  2  0  0  0  0  0  0
  191.0760  173.2680  141.0940 C   0  0  0  0  0  2  0  0  0  0  0  0
  192.5100  172.8520  140.8400 C   0  0  0  0  0  2  0  0  0  0  0  0
  195.2920  173.3730  140.0140 O   0  0  0  0  0  1  0  0  0  0  0  0
  193.4060  173.9010  141.3020 N   0  0  0  0  0  0  0  0  0  0  0  0
  194.2510  174.2940  140.1620 C   0  0  1  0  0  3  0  0  0  0  0  0
  194.8440  176.1620  141.7660 C   0  0  0  0  0  2  0  0  0  0  0  0
  193.4230  176.1340  142.3390 C   0  0  0  0  0  2  0  0  0  0  0  0
  192.5670  175.0280  141.7100 C   0  0  0  0  0  2  0  0  0  0  0  0
  194.8490  175.7060  140.3100 C   0  0  0  0  0  2  0  0  0  0  0  0
  1  8  1  0  0  0  0
  1 10  1  0  0  0  0
  2  7  1  0  0  0  0
  3  9  2  0  0  0  0
  4  8  1  0  0  0  0
  5  2  1  0  0  0  0
  5  4  1  0  0  0  0
  6 12  1  0  0  0  0
  7  3  1  0  0  0  0
  7  1  2  0  0  0  0
  9 15  1  0  0  0  0
  9 13  1  0  0  0  0
 10 13  2  0  0  0  0
 11  6  1  0  0  0  0
 11  2  2  0  0  0  0
 12 23  1  6  0  0  0
 12  3  1  0  0  0  0
 15 14  1  1  0  0  0
 16 17  1  6  0  0  0
 16 15  1  0  0  0  0
 16 22  1  0  0  0  0
 17 19  1  6  0  0  0
 18 17  1  0  0  0  0
 22 20  1  6  0  0  0
 22 21  1  0  0  0  0
 24 23  1  0  0  0  0
 25 24  1  0  0  0  0
 26 25  1  0  0  0  0
 27 26  1  0  0  0  0
 27 29  1  0  0  0  0
 29 33  1  0  0  0  0
 30 28  1  1  0  0  0
 30 34  1  0  0  0  0
 30 29  1  0  0  0  0
 31 32  1  0  0  0  0
 33 32  1  0  0  0  0
 34 31  1  0  0  0  0
M  END
>  <MODEL>
9

>  <REMARK>
 VINA RESULT:      -6.0      2.779      6.076
  Name = 
  10 active torsions:
  status: ('A' for Active; 'I' for Inactive)
    1  A    between atoms: C_3  and  N_13
    2  A    between atoms: C_3  and  C_17
    3  A    between atoms: O_5  and  C_18
    4  A    between atoms: O_5  and  C_31
    5  A    between atoms: C_7  and  C_23
    6  A    between atoms: C_17  and  C_29
    7  A    between atoms: C_18  and  C_29
    8  A    between atoms: C_21  and  C_28
    9  A    between atoms: C_23  and  C_27
   10  A    between atoms: C_23  and  C_28
                            x       y       z     vdW  Elec       q    Type
                         _______ _______ _______ _____ _____    ______ ____

>  <TORSDO>
F 10

$$$$
