=
 OpenBabel11052418163D

 28 31  0  0  1  0  0  0  0  0999 V2000
  191.3210  173.9890  143.3150 C   0  0  2  0  0  0  0  0  0  0  0  0
  192.1370  172.6790  143.1240 C   0  0  2  0  0  3  0  0  0  0  0  0
  191.8390  176.5350  143.2410 C   0  0  0  0  0  2  0  0  0  0  0  0
  190.9430  172.1940  140.9520 C   0  0  1  0  0  3  0  0  0  0  0  0
  190.1710  173.5000  141.0840 C   0  0  0  0  0  2  0  0  0  0  0  0
  189.3120  176.0420  144.8090 C   0  0  2  0  0  3  0  0  0  0  0  0
  189.9780  173.8540  142.5580 C   0  0  0  0  0  2  0  0  0  0  0  0
  190.0980  178.3230  144.6810 O   0  0  0  0  0  1  0  0  0  0  0  0
  192.1120  175.2460  145.4440 C   0  0  1  0  0  0  0  0  0  0  0  0
  189.6710  174.6180  145.2590 C   0  0  0  0  0  2  0  0  0  0  0  0
  191.9950  175.3220  146.9630 C   0  0  0  0  0  1  0  0  0  0  0  0
  191.7890  176.6050  144.7860 C   0  0  2  0  0  3  0  0  0  0  0  0
  193.4260  174.8690  145.1490 O   0  0  0  0  0  1  0  0  0  0  0  0
  191.1490  171.8750  139.4870 C   0  0  0  0  0  1  0  0  0  0  0  0
  190.3850  177.0660  145.2200 C   0  0  2  0  0  3  0  0  0  0  0  0
  192.1410  175.1410  142.6770 C   0  0  0  0  0  2  0  0  0  0  0  0
  191.1120  174.2260  144.8580 C   0  0  1  0  0  3  0  0  0  0  0  0
  192.2990  172.3130  141.6420 C   0  0  0  0  0  2  0  0  0  0  0  0
  187.6710  176.4300  146.6820 C   0  0  0  0  0  3  0  0  0  0  0  0
  186.9390  176.7720  144.3940 C   0  0  0  0  0  0  0  0  0  0  0  0
  185.3990  177.1310  146.2310 C   0  0  0  0  0  0  0  0  0  0  0  0
  187.9500  176.4240  145.3060 C   0  0  0  0  0  0  0  0  0  0  0  0
  185.6690  177.1240  144.8600 C   0  0  0  0  0  3  0  0  0  0  0  0
  187.1890  176.7690  143.0260 O   0  0  0  0  0  1  0  0  0  0  0  0
  184.1670  177.4730  146.6780 F   0  0  0  0  0  0  0  0  0  0  0  0
  186.4000  176.7840  147.1420 C   0  0  0  0  0  3  0  0  0  0  0  0
  191.5650  171.4830  143.8850 C   0  0  0  0  0  2  0  0  0  0  0  0
  192.5520  170.3330  143.8650 C   0  0  0  0  0  1  0  0  0  0  0  0
  1  7  1  6  0  0  0
  1 17  1  0  0  0  0
  2  1  1  0  0  0  0
  2 27  1  1  0  0  0
  4 14  1  6  0  0  0
  4  5  1  0  0  0  0
  4 18  1  0  0  0  0
  5  7  1  0  0  0  0
  6 15  1  0  0  0  0
  6 10  1  0  0  0  0
  6 22  1  1  0  0  0
  9 11  1  1  0  0  0
 12  3  1  6  0  0  0
 12 15  1  0  0  0  0
 12  9  1  0  0  0  0
 13  9  1  0  0  0  0
 15  8  1  6  0  0  0
 16  3  1  0  0  0  0
 16  1  1  0  0  0  0
 17 10  1  6  0  0  0
 17  9  1  0  0  0  0
 18  2  1  0  0  0  0
 19 26  1  0  0  0  0
 20 23  2  0  0  0  0
 20 22  1  0  0  0  0
 21 25  1  0  0  0  0
 21 26  2  0  0  0  0
 22 19  2  0  0  0  0
 23 21  1  0  0  0  0
 24 20  1  0  0  0  0
 28 27  1  0  0  0  0
M  END
>  <MODEL>
1

>  <REMARK>
 VINA RESULT:      -7.5      0.000      0.000
  Name = 
  2 active torsions:
  status: ('A' for Active; 'I' for Inactive)
    1  A    between atoms: C_2  and  C_3
    2  A    between atoms: C_10  and  C_13
                            x       y       z     vdW  Elec       q    Type
                         _______ _______ _______ _____ _____    ______ ____

>  <TORSDO>
F 2

$$$$
=
 OpenBabel11052418163D

 28 31  0  0  1  0  0  0  0  0999 V2000
  190.3610  174.1350  142.7840 C   0  0  2  0  0  0  0  0  0  0  0  0
  190.6560  172.6080  142.7790 C   0  0  2  0  0  3  0  0  0  0  0  0
  191.7830  176.3080  142.9050 C   0  0  0  0  0  2  0  0  0  0  0  0
  189.9470  172.4290  140.3620 C   0  0  1  0  0  3  0  0  0  0  0  0
  189.7040  173.9320  140.3210 C   0  0  0  0  0  2  0  0  0  0  0  0
  188.9480  176.8810  143.7560 C   0  0  2  0  0  3  0  0  0  0  0  0
  189.2960  174.4400  141.7040 C   0  0  0  0  0  2  0  0  0  0  0  0
  190.5250  178.7060  143.8880 O   0  0  0  0  0  1  0  0  0  0  0  0
  191.0060  175.1750  145.0730 C   0  0  1  0  0  0  0  0  0  0  0  0
  188.6330  175.4610  144.2510 C   0  0  0  0  0  2  0  0  0  0  0  0
  190.5530  175.4010  146.5120 C   0  0  0  0  0  1  0  0  0  0  0  0
  191.3800  176.5060  144.3860 C   0  0  2  0  0  3  0  0  0  0  0  0
  192.1170  174.3270  145.1180 O   0  0  0  0  0  1  0  0  0  0  0  0
  190.3770  171.9490  138.9920 C   0  0  0  0  0  1  0  0  0  0  0  0
  190.1850  177.4750  144.4540 C   0  0  2  0  0  3  0  0  0  0  0  0
  191.6790  174.8610  142.4050 C   0  0  0  0  0  2  0  0  0  0  0  0
  189.8790  174.5460  144.2260 C   0  0  1  0  0  3  0  0  0  0  0  0
  191.0350  172.1000  141.3810 C   0  0  0  0  0  2  0  0  0  0  0  0
  187.2070  178.0410  145.1620 C   0  0  0  0  0  3  0  0  0  0  0  0
  187.1430  178.3200  142.7520 C   0  0  0  0  0  0  0  0  0  0  0  0
  185.4910  179.4140  144.1480 C   0  0  0  0  0  0  0  0  0  0  0  0
  187.7450  177.7660  143.8950 C   0  0  0  0  0  0  0  0  0  0  0  0
  186.0200  179.1410  142.8830 C   0  0  0  0  0  3  0  0  0  0  0  0
  187.6550  178.0590  141.4860 O   0  0  0  0  0  1  0  0  0  0  0  0
  184.4030  180.2100  144.2700 F   0  0  0  0  0  0  0  0  0  0  0  0
  186.0840  178.8630  145.2870 C   0  0  0  0  0  3  0  0  0  0  0  0
  189.5150  171.7610  143.3390 C   0  0  0  0  0  2  0  0  0  0  0  0
  189.6030  171.7020  144.8510 C   0  0  0  0  0  1  0  0  0  0  0  0
  1  7  1  6  0  0  0
  1 17  1  0  0  0  0
  2  1  1  0  0  0  0
  2 27  1  6  0  0  0
  4 14  1  6  0  0  0
  4 18  1  0  0  0  0
  5  4  1  0  0  0  0
  5  7  1  0  0  0  0
  6 22  1  1  0  0  0
  6 10  1  0  0  0  0
  6 15  1  0  0  0  0
  9 13  1  0  0  0  0
  9 11  1  1  0  0  0
 12  3  1  6  0  0  0
 12 15  1  0  0  0  0
 12  9  1  0  0  0  0
 15  8  1  6  0  0  0
 16  1  1  0  0  0  0
 16  3  1  0  0  0  0
 17 10  1  6  0  0  0
 17  9  1  0  0  0  0
 18  2  1  0  0  0  0
 19 26  1  0  0  0  0
 20 23  2  0  0  0  0
 20 22  1  0  0  0  0
 21 25  1  0  0  0  0
 21 26  2  0  0  0  0
 22 19  2  0  0  0  0
 23 21  1  0  0  0  0
 24 20  1  0  0  0  0
 27 28  1  0  0  0  0
M  END
>  <MODEL>
2

>  <REMARK>
 VINA RESULT:      -7.0      1.617      1.875
  Name = 
  2 active torsions:
  status: ('A' for Active; 'I' for Inactive)
    1  A    between atoms: C_2  and  C_3
    2  A    between atoms: C_10  and  C_13
                            x       y       z     vdW  Elec       q    Type
                         _______ _______ _______ _____ _____    ______ ____

>  <TORSDO>
F 2

$$$$
=
 OpenBabel11052418163D

 28 31  0  0  1  0  0  0  0  0999 V2000
  189.1020  175.9920  144.1560 C   0  0  2  0  0  0  0  0  0  0  0  0
  187.7520  176.6650  144.5320 C   0  0  2  0  0  3  0  0  0  0  0  0
  190.0160  173.5590  144.0880 C   0  0  0  0  0  2  0  0  0  0  0  0
  187.3230  177.2660  142.1160 C   0  0  1  0  0  3  0  0  0  0  0  0
  188.6110  176.5640  141.7110 C   0  0  0  0  0  2  0  0  0  0  0  0
  192.3030  175.5170  144.2310 C   0  0  2  0  0  3  0  0  0  0  0  0
  189.6300  176.6300  142.8490 C   0  0  0  0  0  2  0  0  0  0  0  0
  192.8640  173.1680  144.2770 O   0  0  0  0  0  1  0  0  0  0  0  0
  190.1970  174.9250  146.2530 C   0  0  1  0  0  0  0  0  0  0  0  0
  191.5240  176.6320  144.9440 C   0  0  0  0  0  2  0  0  0  0  0  0
  191.0390  175.1990  147.4960 C   0  0  0  0  0  1  0  0  0  0  0  0
  190.8200  173.8100  145.3870 C   0  0  2  0  0  3  0  0  0  0  0  0
  188.9260  174.5420  146.6920 O   0  0  0  0  0  1  0  0  0  0  0  0
  186.3160  177.1660  140.9900 C   0  0  0  0  0  1  0  0  0  0  0  0
  192.2640  174.1920  145.0140 C   0  0  2  0  0  3  0  0  0  0  0  0
  188.8120  174.4900  143.8950 C   0  0  0  0  0  2  0  0  0  0  0  0
  190.1040  176.1780  145.3560 C   0  0  1  0  0  3  0  0  0  0  0  0
  186.7450  176.6220  143.3740 C   0  0  0  0  0  2  0  0  0  0  0  0
  194.5220  176.4550  144.9710 C   0  0  0  0  0  3  0  0  0  0  0  0
  194.2140  175.8850  142.6330 C   0  0  0  0  0  0  0  0  0  0  0  0
  196.3290  176.7910  143.3950 C   0  0  0  0  0  0  0  0  0  0  0  0
  193.7070  175.9580  143.9420 C   0  0  0  0  0  0  0  0  0  0  0  0
  195.5210  176.3000  142.3650 C   0  0  0  0  0  3  0  0  0  0  0  0
  193.4250  175.4000  141.5960 O   0  0  0  0  0  1  0  0  0  0  0  0
  197.5950  177.1910  143.1310 F   0  0  0  0  0  0  0  0  0  0  0  0
  195.8290  176.8680  144.6980 C   0  0  0  0  0  3  0  0  0  0  0  0
  187.9000  178.1040  145.0250 C   0  0  0  0  0  2  0  0  0  0  0  0
  186.5530  178.6470  145.4590 C   0  0  0  0  0  1  0  0  0  0  0  0
  1  7  1  6  0  0  0
  1  2  1  0  0  0  0
  1 17  1  0  0  0  0
  2 27  1  6  0  0  0
  4 14  1  6  0  0  0
  4 18  1  0  0  0  0
  5  4  1  0  0  0  0
  5  7  1  0  0  0  0
  6 22  1  1  0  0  0
  6 10  1  0  0  0  0
  6 15  1  0  0  0  0
  9 13  1  0  0  0  0
  9 11  1  1  0  0  0
 12  3  1  6  0  0  0
 12  9  1  0  0  0  0
 15  8  1  6  0  0  0
 15 12  1  0  0  0  0
 16  3  1  0  0  0  0
 16  1  1  0  0  0  0
 17 10  1  6  0  0  0
 17  9  1  0  0  0  0
 18  2  1  0  0  0  0
 20 22  1  0  0  0  0
 21 26  2  0  0  0  0
 22 19  2  0  0  0  0
 23 20  2  0  0  0  0
 23 21  1  0  0  0  0
 24 20  1  0  0  0  0
 25 21  1  0  0  0  0
 26 19  1  0  0  0  0
 27 28  1  0  0  0  0
M  END
>  <MODEL>
3

>  <REMARK>
 VINA RESULT:      -6.8      3.597      6.588
  Name = 
  2 active torsions:
  status: ('A' for Active; 'I' for Inactive)
    1  A    between atoms: C_2  and  C_3
    2  A    between atoms: C_10  and  C_13
                            x       y       z     vdW  Elec       q    Type
                         _______ _______ _______ _____ _____    ______ ____

>  <TORSDO>
F 2

$$$$
=
 OpenBabel11052418163D

 28 31  0  0  1  0  0  0  0  0999 V2000
  191.2890  173.9910  143.1510 C   0  0  2  0  0  0  0  0  0  0  0  0
  192.0980  172.6780  142.9540 C   0  0  2  0  0  3  0  0  0  0  0  0
  191.8210  176.5350  143.1010 C   0  0  0  0  0  2  0  0  0  0  0  0
  190.9160  172.2180  140.7700 C   0  0  1  0  0  3  0  0  0  0  0  0
  190.1500  173.5270  140.9080 C   0  0  0  0  0  2  0  0  0  0  0  0
  189.2810  176.0430  144.6470 C   0  0  2  0  0  3  0  0  0  0  0  0
  189.9500  173.8700  142.3840 C   0  0  0  0  0  2  0  0  0  0  0  0
  190.0800  178.3200  144.5430 O   0  0  0  0  0  1  0  0  0  0  0  0
  192.0730  175.2270  145.2940 C   0  0  1  0  0  0  0  0  0  0  0  0
  189.6290  174.6130  145.0890 C   0  0  0  0  0  2  0  0  0  0  0  0
  191.9470  175.2910  146.8130 C   0  0  0  0  0  1  0  0  0  0  0  0
  191.7610  176.5920  144.6460 C   0  0  2  0  0  3  0  0  0  0  0  0
  193.3860  174.8440  145.0050 O   0  0  0  0  0  1  0  0  0  0  0  0
  191.1300  171.9090  139.3040 C   0  0  0  0  0  1  0  0  0  0  0  0
  190.3570  177.0580  145.0740 C   0  0  2  0  0  3  0  0  0  0  0  0
  192.1190  175.1430  142.5260 C   0  0  0  0  0  2  0  0  0  0  0  0
  191.0710  174.2170  144.6940 C   0  0  1  0  0  3  0  0  0  0  0  0
  192.2690  172.3240  141.4700 C   0  0  0  0  0  2  0  0  0  0  0  0
  186.9140  176.8000  144.2320 C   0  0  0  0  0  3  0  0  0  0  0  0
  187.6400  176.4270  146.5170 C   0  0  0  0  0  0  0  0  0  0  0  0
  185.3730  177.1570  146.0650 C   0  0  0  0  0  0  0  0  0  0  0  0
  187.9180  176.4280  145.1400 C   0  0  0  0  0  0  0  0  0  0  0  0
  186.3700  176.7900  146.9740 C   0  0  0  0  0  3  0  0  0  0  0  0
  188.6190  176.0660  147.4360 O   0  0  0  0  0  1  0  0  0  0  0  0
  184.1440  177.5080  146.5130 F   0  0  0  0  0  0  0  0  0  0  0  0
  185.6450  177.1620  144.6950 C   0  0  0  0  0  3  0  0  0  0  0  0
  191.5150  171.4790  143.7020 C   0  0  0  0  0  2  0  0  0  0  0  0
  192.4810  170.3120  143.6470 C   0  0  0  0  0  1  0  0  0  0  0  0
  1  7  1  6  0  0  0
  1 17  1  0  0  0  0
  2  1  1  0  0  0  0
  2 27  1  1  0  0  0
  4 14  1  6  0  0  0
  4  5  1  0  0  0  0
  4 18  1  0  0  0  0
  5  7  1  0  0  0  0
  6 15  1  0  0  0  0
  6 10  1  0  0  0  0
  6 22  1  1  0  0  0
  9 11  1  1  0  0  0
 12  3  1  6  0  0  0
 12 15  1  0  0  0  0
 12  9  1  0  0  0  0
 13  9  1  0  0  0  0
 15  8  1  6  0  0  0
 16  3  1  0  0  0  0
 16  1  1  0  0  0  0
 17 10  1  6  0  0  0
 17  9  1  0  0  0  0
 18  2  1  0  0  0  0
 19 26  2  0  0  0  0
 19 22  1  0  0  0  0
 20 23  1  0  0  0  0
 20 24  1  0  0  0  0
 21 25  1  0  0  0  0
 21 23  2  0  0  0  0
 22 20  2  0  0  0  0
 26 21  1  0  0  0  0
 28 27  1  0  0  0  0
M  END
>  <MODEL>
4

>  <REMARK>
 VINA RESULT:      -6.7      0.747      1.285
  Name = 
  2 active torsions:
  status: ('A' for Active; 'I' for Inactive)
    1  A    between atoms: C_2  and  C_3
    2  A    between atoms: C_10  and  C_13
                            x       y       z     vdW  Elec       q    Type
                         _______ _______ _______ _____ _____    ______ ____

>  <TORSDO>
F 2

$$$$
=
 OpenBabel11052418163D

 28 31  0  0  1  0  0  0  0  0999 V2000
  190.0990  176.0900  145.2950 C   0  0  2  0  0  0  0  0  0  0  0  0
  189.1460  176.9020  146.2170 C   0  0  2  0  0  3  0  0  0  0  0  0
  191.5410  176.6000  143.1930 C   0  0  0  0  0  2  0  0  0  0  0  0
  190.7980  176.7730  148.1230 C   0  0  1  0  0  3  0  0  0  0  0  0
  191.7760  176.0260  147.2260 C   0  0  0  0  0  2  0  0  0  0  0  0
  191.0020  173.6400  143.3810 C   0  0  2  0  0  3  0  0  0  0  0  0
  191.0170  175.2120  146.1790 C   0  0  0  0  0  2  0  0  0  0  0  0
  192.2250  174.4130  141.4470 O   0  0  0  0  0  1  0  0  0  0  0  0
  189.0940  175.8800  142.9120 C   0  0  1  0  0  0  0  0  0  0  0  0
  189.6820  173.7600  144.1580 C   0  0  0  0  0  2  0  0  0  0  0  0
  188.1060  175.1120  142.0380 C   0  0  0  0  0  1  0  0  0  0  0  0
  190.5080  175.8820  142.2930 C   0  0  2  0  0  3  0  0  0  0  0  0
  188.6150  177.1890  143.0240 O   0  0  0  0  0  1  0  0  0  0  0  0
  191.5660  177.5960  149.1340 C   0  0  0  0  0  1  0  0  0  0  0  0
  190.9710  174.4310  142.0610 C   0  0  2  0  0  3  0  0  0  0  0  0
  190.9770  177.1120  144.5250 C   0  0  0  0  0  2  0  0  0  0  0  0
  189.2260  175.2310  144.3060 C   0  0  1  0  0  3  0  0  0  0  0  0
  189.9130  177.6930  147.2850 C   0  0  0  0  0  2  0  0  0  0  0  0
  190.6710  171.4340  142.2090 C   0  0  0  0  0  3  0  0  0  0  0  0
  192.3750  171.6020  143.9280 C   0  0  0  0  0  0  0  0  0  0  0  0
  192.0160  169.5020  142.7720 C   0  0  0  0  0  0  0  0  0  0  0  0
  191.3560  172.1990  143.1650 C   0  0  0  0  0  0  0  0  0  0  0  0
  192.7010  170.2580  143.7280 C   0  0  0  0  0  3  0  0  0  0  0  0
  193.0660  172.3380  144.8840 O   0  0  0  0  0  1  0  0  0  0  0  0
  192.3360  168.2000  142.5810 F   0  0  0  0  0  0  0  0  0  0  0  0
  191.0010  170.0900  142.0130 C   0  0  0  0  0  3  0  0  0  0  0  0
  188.0680  176.0500  146.8880 C   0  0  0  0  0  2  0  0  0  0  0  0
  186.7460  176.7910  146.8890 C   0  0  0  0  0  1  0  0  0  0  0  0
  1 16  1  6  0  0  0
  1  7  1  0  0  0  0
  1  2  1  0  0  0  0
  2 27  1  1  0  0  0
  2 18  1  0  0  0  0
  3 16  1  0  0  0  0
  4 14  1  1  0  0  0
  5  4  1  0  0  0  0
  6 22  1  6  0  0  0
  6 10  1  0  0  0  0
  7  5  1  0  0  0  0
  9 11  1  6  0  0  0
  9 13  1  0  0  0  0
  9 17  1  0  0  0  0
 12  9  1  0  0  0  0
 12  3  1  1  0  0  0
 15  8  1  1  0  0  0
 15 12  1  0  0  0  0
 15  6  1  0  0  0  0
 17 10  1  6  0  0  0
 17  1  1  0  0  0  0
 18  4  1  0  0  0  0
 19 22  1  0  0  0  0
 20 24  1  0  0  0  0
 21 23  2  0  0  0  0
 22 20  2  0  0  0  0
 23 20  1  0  0  0  0
 25 21  1  0  0  0  0
 26 19  2  0  0  0  0
 26 21  1  0  0  0  0
 27 28  1  0  0  0  0
M  END
>  <MODEL>
5

>  <REMARK>
 VINA RESULT:      -6.7      2.981      6.935
  Name = 
  2 active torsions:
  status: ('A' for Active; 'I' for Inactive)
    1  A    between atoms: C_2  and  C_3
    2  A    between atoms: C_10  and  C_13
                            x       y       z     vdW  Elec       q    Type
                         _______ _______ _______ _____ _____    ______ ____

>  <TORSDO>
F 2

$$$$
=
 OpenBabel11052418163D

 28 31  0  0  1  0  0  0  0  0999 V2000
  193.3740  173.7570  144.0550 C   0  0  2  0  0  0  0  0  0  0  0  0
  194.4090  172.6240  144.3040 C   0  0  2  0  0  3  0  0  0  0  0  0
  193.3500  176.0090  142.7560 C   0  0  0  0  0  2  0  0  0  0  0  0
  193.0840  171.0290  142.8630 C   0  0  1  0  0  3  0  0  0  0  0  0
  192.0850  172.1350  142.5550 C   0  0  0  0  0  2  0  0  0  0  0  0
  191.1850  176.0050  144.8540 C   0  0  2  0  0  3  0  0  0  0  0  0
  192.0050  173.1160  143.7250 C   0  0  0  0  0  2  0  0  0  0  0  0
  191.4690  178.0330  143.5730 O   0  0  0  0  0  1  0  0  0  0  0  0
  194.1450  175.9570  145.1960 C   0  0  1  0  0  0  0  0  0  0  0  0
  191.8780  175.0190  145.8070 C   0  0  0  0  0  2  0  0  0  0  0  0
  194.2000  176.7260  146.5130 C   0  0  0  0  0  1  0  0  0  0  0  0
  193.4750  176.7930  144.0850 C   0  0  2  0  0  3  0  0  0  0  0  0
  195.4620  175.6510  144.8410 O   0  0  0  0  0  1  0  0  0  0  0  0
  193.1720  170.0840  141.6840 C   0  0  0  0  0  1  0  0  0  0  0  0
  192.0700  177.2270  144.5430 C   0  0  2  0  0  3  0  0  0  0  0  0
  193.8580  174.5630  142.8210 C   0  0  0  0  0  2  0  0  0  0  0  0
  193.3100  174.6670  145.3390 C   0  0  1  0  0  3  0  0  0  0  0  0
  194.4620  171.6260  143.1390 C   0  0  0  0  0  2  0  0  0  0  0  0
  189.7480  177.1290  146.5940 C   0  0  0  0  0  3  0  0  0  0  0  0
  188.6730  176.0490  144.7060 C   0  0  0  0  0  0  0  0  0  0  0  0
  187.3350  177.1420  146.4060 C   0  0  0  0  0  0  0  0  0  0  0  0
  189.8450  176.4050  145.3950 C   0  0  0  0  0  0  0  0  0  0  0  0
  187.4240  176.4190  145.2130 C   0  0  0  0  0  3  0  0  0  0  0  0
  188.7420  175.3290  143.5180 O   0  0  0  0  0  1  0  0  0  0  0  0
  186.1230  177.4990  146.8930 F   0  0  0  0  0  0  0  0  0  0  0  0
  188.4970  177.4960  147.0960 C   0  0  0  0  0  3  0  0  0  0  0  0
  194.1900  171.8690  145.6150 C   0  0  0  0  0  2  0  0  0  0  0  0
  195.2950  170.8520  145.8200 C   0  0  0  0  0  1  0  0  0  0  0  0
  1 16  1  6  0  0  0
  1  2  1  0  0  0  0
  1 17  1  0  0  0  0
  2 27  1  1  0  0  0
  3 16  1  0  0  0  0
  4 14  1  6  0  0  0
  4 18  1  0  0  0  0
  5  4  1  0  0  0  0
  5  7  1  0  0  0  0
  6 22  1  1  0  0  0
  6 10  1  0  0  0  0
  7  1  1  0  0  0  0
  9 17  1  0  0  0  0
  9 11  1  1  0  0  0
 12  3  1  6  0  0  0
 12 15  1  0  0  0  0
 12  9  1  0  0  0  0
 13  9  1  0  0  0  0
 15  8  1  6  0  0  0
 15  6  1  0  0  0  0
 17 10  1  6  0  0  0
 18  2  1  0  0  0  0
 19 26  1  0  0  0  0
 20 23  2  0  0  0  0
 20 22  1  0  0  0  0
 21 25  1  0  0  0  0
 21 26  2  0  0  0  0
 22 19  2  0  0  0  0
 23 21  1  0  0  0  0
 24 20  1  0  0  0  0
 27 28  1  0  0  0  0
M  END
>  <MODEL>
6

>  <REMARK>
 VINA RESULT:      -6.6      1.801      2.357
  Name = 
  2 active torsions:
  status: ('A' for Active; 'I' for Inactive)
    1  A    between atoms: C_2  and  C_3
    2  A    between atoms: C_10  and  C_13
                            x       y       z     vdW  Elec       q    Type
                         _______ _______ _______ _____ _____    ______ ____

>  <TORSDO>
F 2

$$$$
=
 OpenBabel11052418163D

 28 31  0  0  1  0  0  0  0  0999 V2000
  191.5210  175.8300  145.6000 C   0  0  2  0  0  0  0  0  0  0  0  0
  190.0760  176.2780  145.9610 C   0  0  2  0  0  3  0  0  0  0  0  0
  193.3390  176.5910  143.9040 C   0  0  0  0  0  2  0  0  0  0  0  0
  190.8570  177.1650  148.1930 C   0  0  1  0  0  3  0  0  0  0  0  0
  192.2900  176.7900  147.8420 C   0  0  0  0  0  2  0  0  0  0  0  0
  193.8670  173.7550  144.7800 C   0  0  2  0  0  3  0  0  0  0  0  0
  192.3060  175.5790  146.9090 C   0  0  0  0  0  2  0  0  0  0  0  0
  195.3420  174.6800  143.1060 O   0  0  0  0  0  1  0  0  0  0  0  0
  191.5920  174.8490  143.1980 C   0  0  1  0  0  0  0  0  0  0  0  0
  192.4070  173.4070  145.1070 C   0  0  0  0  0  2  0  0  0  0  0  0
  191.3310  173.6080  142.3500 C   0  0  0  0  0  1  0  0  0  0  0  0
  193.0320  175.3690  143.0050 C   0  0  2  0  0  3  0  0  0  0  0  0
  190.6700  175.8230  142.7990 O   0  0  0  0  0  1  0  0  0  0  0  0
  190.8590  178.3820  149.0940 C   0  0  0  0  0  1  0  0  0  0  0  0
  194.0330  174.2450  143.3300 C   0  0  2  0  0  3  0  0  0  0  0  0
  192.1890  177.0020  144.8340 C   0  0  0  0  0  2  0  0  0  0  0  0
  191.4340  174.5390  144.7020 C   0  0  1  0  0  3  0  0  0  0  0  0
  190.0680  177.4740  146.9230 C   0  0  0  0  0  2  0  0  0  0  0  0
  194.3970  171.2920  144.7180 C   0  0  0  0  0  3  0  0  0  0  0  0
  195.9820  172.8050  145.7590 C   0  0  0  0  0  0  0  0  0  0  0  0
  196.4460  170.4270  145.6750 C   0  0  0  0  0  0  0  0  0  0  0  0
  194.7660  172.5950  145.0880 C   0  0  0  0  0  0  0  0  0  0  0  0
  196.8170  171.7220  146.0490 C   0  0  0  0  0  3  0  0  0  0  0  0
  196.3680  174.0860  146.1400 O   0  0  0  0  0  1  0  0  0  0  0  0
  197.2580  169.3820  145.9570 F   0  0  0  0  0  0  0  0  0  0  0  0
  195.2360  170.2130  145.0090 C   0  0  0  0  0  3  0  0  0  0  0  0
  189.2110  175.1560  146.5340 C   0  0  0  0  0  2  0  0  0  0  0  0
  187.8670  175.7050  146.9660 C   0  0  0  0  0  1  0  0  0  0  0  0
  1 16  1  6  0  0  0
  1  2  1  0  0  0  0
  1  7  1  0  0  0  0
  2 27  1  1  0  0  0
  2 18  1  0  0  0  0
  3 16  1  0  0  0  0
  4 14  1  1  0  0  0
  5  4  1  0  0  0  0
  6 22  1  6  0  0  0
  6 10  1  0  0  0  0
  7  5  1  0  0  0  0
  9 11  1  6  0  0  0
  9 17  1  0  0  0  0
 12  9  1  0  0  0  0
 12 15  1  0  0  0  0
 12  3  1  1  0  0  0
 13  9  1  0  0  0  0
 15  8  1  1  0  0  0
 15  6  1  0  0  0  0
 17 10  1  1  0  0  0
 17  1  1  0  0  0  0
 18  4  1  0  0  0  0
 19 26  2  0  0  0  0
 19 22  1  0  0  0  0
 20 23  1  0  0  0  0
 20 24  1  0  0  0  0
 21 25  1  0  0  0  0
 21 23  2  0  0  0  0
 22 20  2  0  0  0  0
 26 21  1  0  0  0  0
 27 28  1  0  0  0  0
M  END
>  <MODEL>
7

>  <REMARK>
 VINA RESULT:      -6.2      3.807      7.716
  Name = 
  2 active torsions:
  status: ('A' for Active; 'I' for Inactive)
    1  A    between atoms: C_2  and  C_3
    2  A    between atoms: C_10  and  C_13
                            x       y       z     vdW  Elec       q    Type
                         _______ _______ _______ _____ _____    ______ ____

>  <TORSDO>
F 2

$$$$
=
 OpenBabel11052418163D

 28 31  0  0  1  0  0  0  0  0999 V2000
  193.3860  173.8900  143.6570 C   0  0  2  0  0  0  0  0  0  0  0  0
  194.7740  174.1450  143.0050 C   0  0  2  0  0  3  0  0  0  0  0  0
  191.7580  171.8730  143.8500 C   0  0  0  0  0  2  0  0  0  0  0  0
  195.8640  174.3200  145.2770 C   0  0  1  0  0  3  0  0  0  0  0  0
  194.5280  174.0170  145.9420 C   0  0  0  0  0  2  0  0  0  0  0  0
  190.2630  174.4510  144.3020 C   0  0  2  0  0  3  0  0  0  0  0  0
  193.3770  174.5190  145.0710 C   0  0  0  0  0  2  0  0  0  0  0  0
  188.9650  172.4140  144.3050 O   0  0  0  0  0  1  0  0  0  0  0  0
  191.5950  173.4490  141.8320 C   0  0  1  0  0  0  0  0  0  0  0  0
  191.2020  175.3360  143.4670 C   0  0  0  0  0  2  0  0  0  0  0  0
  190.6530  174.1030  140.8250 C   0  0  0  0  0  1  0  0  0  0  0  0
  190.8330  172.4990  142.7790 C   0  0  2  0  0  3  0  0  0  0  0  0
  192.5510  172.7370  141.1010 O   0  0  0  0  0  1  0  0  0  0  0  0
  196.9900  173.7910  146.1390 C   0  0  0  0  0  1  0  0  0  0  0  0
  189.7030  173.2720  143.4860 C   0  0  2  0  0  3  0  0  0  0  0  0
  193.2140  172.3550  143.7940 C   0  0  0  0  0  2  0  0  0  0  0  0
  192.2760  174.5070  142.7250 C   0  0  1  0  0  3  0  0  0  0  0  0
  195.9260  173.6650  143.8990 C   0  0  0  0  0  2  0  0  0  0  0  0
  188.3190  176.0440  144.1120 C   0  0  0  0  0  3  0  0  0  0  0  0
  189.0050  175.2900  146.3140 C   0  0  0  0  0  0  0  0  0  0  0  0
  187.1420  176.8230  146.0790 C   0  0  0  0  0  0  0  0  0  0  0  0
  189.1730  175.2760  144.9190 C   0  0  0  0  0  0  0  0  0  0  0  0
  187.9910  176.0620  146.8880 C   0  0  0  0  0  3  0  0  0  0  0  0
  189.8410  174.5410  147.1350 O   0  0  0  0  0  1  0  0  0  0  0  0
  186.1610  177.5690  146.6390 F   0  0  0  0  0  0  0  0  0  0  0  0
  187.3060  176.8140  144.6910 C   0  0  0  0  0  3  0  0  0  0  0  0
  195.0090  175.6020  142.6080 C   0  0  0  0  0  2  0  0  0  0  0  0
  196.3090  175.7290  141.8400 C   0  0  0  0  0  1  0  0  0  0  0  0
  1 16  1  1  0  0  0
  1  7  1  0  0  0  0
  2 27  1  1  0  0  0
  2  1  1  0  0  0  0
  2 18  1  0  0  0  0
  4  5  1  0  0  0  0
  4 14  1  1  0  0  0
  6 22  1  6  0  0  0
  7  5  1  0  0  0  0
  9 11  1  6  0  0  0
  9 17  1  0  0  0  0
  9 12  1  0  0  0  0
 10  6  1  0  0  0  0
 12 15  1  0  0  0  0
 12  3  1  1  0  0  0
 13  9  1  0  0  0  0
 15  6  1  0  0  0  0
 15  8  1  1  0  0  0
 16  3  1  0  0  0  0
 17 10  1  1  0  0  0
 17  1  1  0  0  0  0
 18  4  1  0  0  0  0
 19 26  2  0  0  0  0
 19 22  1  0  0  0  0
 20 23  1  0  0  0  0
 20 24  1  0  0  0  0
 21 25  1  0  0  0  0
 21 23  2  0  0  0  0
 22 20  2  0  0  0  0
 26 21  1  0  0  0  0
 28 27  1  0  0  0  0
M  END
>  <MODEL>
8

>  <REMARK>
 VINA RESULT:      -6.2      2.589      4.548
  Name = 
  2 active torsions:
  status: ('A' for Active; 'I' for Inactive)
    1  A    between atoms: C_2  and  C_3
    2  A    between atoms: C_10  and  C_13
                            x       y       z     vdW  Elec       q    Type
                         _______ _______ _______ _____ _____    ______ ____

>  <TORSDO>
F 2

$$$$
=
 OpenBabel11052418163D

 28 31  0  0  1  0  0  0  0  0999 V2000
  190.7420  174.8560  144.5980 C   0  0  2  0  0  0  0  0  0  0  0  0
  191.3350  175.8620  145.6250 C   0  0  2  0  0  3  0  0  0  0  0  0
  190.1620  172.3220  144.5920 C   0  0  0  0  0  2  0  0  0  0  0  0
  189.1090  177.0380  145.8300 C   0  0  1  0  0  3  0  0  0  0  0  0
  188.4880  176.0330  144.8710 C   0  0  0  0  0  2  0  0  0  0  0  0
  190.4910  173.3110  141.7640 C   0  0  2  0  0  3  0  0  0  0  0  0
  189.5400  175.5210  143.8870 C   0  0  0  0  0  2  0  0  0  0  0  0
  190.0650  170.9520  142.0600 O   0  0  0  0  0  1  0  0  0  0  0  0
  192.5210  173.0870  143.9330 C   0  0  1  0  0  0  0  0  0  0  0  0
  191.4520  174.4610  142.1000 C   0  0  0  0  0  2  0  0  0  0  0  0
  193.7270  172.8050  143.0420 C   0  0  0  0  0  1  0  0  0  0  0  0
  191.4210  172.0210  143.7450 C   0  0  2  0  0  3  0  0  0  0  0  0
  192.9750  173.0820  145.2560 O   0  0  0  0  0  1  0  0  0  0  0  0
  188.0620  177.5130  146.8140 C   0  0  0  0  0  1  0  0  0  0  0  0
  191.0190  171.9520  142.2600 C   0  0  2  0  0  3  0  0  0  0  0  0
  190.2330  173.6270  145.3960 C   0  0  0  0  0  2  0  0  0  0  0  0
  191.8790  174.4470  143.5870 C   0  0  1  0  0  3  0  0  0  0  0  0
  190.2670  176.3950  146.5900 C   0  0  0  0  0  2  0  0  0  0  0  0
  191.2170  173.4160  139.3530 C   0  0  0  0  0  3  0  0  0  0  0  0
  188.8570  173.1630  139.8550 C   0  0  0  0  0  0  0  0  0  0  0  0
  189.6060  173.2700  137.5520 C   0  0  0  0  0  0  0  0  0  0  0  0
  190.1850  173.2940  140.2960 C   0  0  0  0  0  0  0  0  0  0  0  0
  188.5730  173.1510  138.4860 C   0  0  0  0  0  3  0  0  0  0  0  0
  187.8160  173.0440  140.7700 O   0  0  0  0  0  1  0  0  0  0  0  0
  189.3260  173.2570  136.2270 F   0  0  0  0  0  0  0  0  0  0  0  0
  190.9280  173.4030  137.9850 C   0  0  0  0  0  3  0  0  0  0  0  0
  192.0720  177.0360  144.9800 C   0  0  0  0  0  2  0  0  0  0  0  0
  193.5350  177.0090  145.3720 C   0  0  0  0  0  1  0  0  0  0  0  0
  1  7  1  6  0  0  0
  1 16  1  0  0  0  0
  1  2  1  0  0  0  0
  2 27  1  6  0  0  0
  2 18  1  0  0  0  0
  3 16  1  0  0  0  0
  4 18  1  0  0  0  0
  4 14  1  1  0  0  0
  5  4  1  0  0  0  0
  6 22  1  6  0  0  0
  6 10  1  0  0  0  0
  6 15  1  0  0  0  0
  7  5  1  0  0  0  0
  9 11  1  6  0  0  0
  9 13  1  0  0  0  0
 12  9  1  0  0  0  0
 12  3  1  1  0  0  0
 15  8  1  1  0  0  0
 15 12  1  0  0  0  0
 17 10  1  6  0  0  0
 17  9  1  0  0  0  0
 17  1  1  0  0  0  0
 19 22  1  0  0  0  0
 20 22  2  0  0  0  0
 20 24  1  0  0  0  0
 21 26  1  0  0  0  0
 21 23  2  0  0  0  0
 23 20  1  0  0  0  0
 25 21  1  0  0  0  0
 26 19  2  0  0  0  0
 27 28  1  0  0  0  0
M  END
>  <MODEL>
9

>  <REMARK>
 VINA RESULT:      -6.2      3.085      6.427
  Name = 
  2 active torsions:
  status: ('A' for Active; 'I' for Inactive)
    1  A    between atoms: C_2  and  C_3
    2  A    between atoms: C_10  and  C_13
                            x       y       z     vdW  Elec       q    Type
                         _______ _______ _______ _____ _____    ______ ____

>  <TORSDO>
F 2

$$$$
