=
 OpenBabel11052417363D

 25 29  0  0  1  0  0  0  0  0999 V2000
  189.3930  175.8710  143.3240 N   0  0  0  0  0  0  0  0  0  0  0  0
  188.8130  177.0770  142.7220 C   0  0  1  0  0  3  0  0  0  0  0  0
  188.2670  174.4230  141.7800 N   0  0  0  0  0  2  0  0  0  0  0  0
  190.2940  175.7240  144.3080 C   0  0  0  0  0  0  0  0  0  0  0  0
  192.1010  174.9340  146.2520 C   0  0  0  0  0  3  0  0  0  0  0  0
  187.9570  175.5250  140.9590 N   0  0  0  0  0  2  0  0  0  0  0  0
  190.5570  174.3880  144.5020 C   0  0  0  0  0  0  0  0  0  0  0  0
  191.4590  173.9550  145.4710 C   0  0  0  0  0  3  0  0  0  0  0  0
  191.8320  176.3050  146.0490 C   0  0  0  0  0  3  0  0  0  0  0  0
  189.1330  174.6280  142.8890 C   0  0  0  0  0  0  0  0  0  0  0  0
  189.8180  173.6430  143.5950 C   0  0  0  0  0  3  0  0  0  0  0  0
  190.9190  176.7170  145.0640 C   0  0  0  0  0  3  0  0  0  0  0  0
  187.6240  176.6870  141.8020 C   0  0  2  0  0  3  0  0  0  0  0  0
  187.2260  177.8540  140.9090 C   0  0  1  0  0  3  0  0  0  0  0  0
  186.3830  177.3840  139.8120 C   0  0  0  0  0  2  0  0  0  0  0  0
  185.7680  178.0400  140.9740 N   0  0  0  0  0  2  0  0  0  0  0  0
  188.3330  178.0260  143.8180 C   0  0  0  0  0  2  0  0  0  0  0  0
  185.7300  178.6000  146.1200 C   0  0  1  0  0  0  0  0  0  0  0  0
  186.9720  177.6010  144.3510 C   0  0  1  0  0  3  0  0  0  0  0  0
  185.8340  179.7770  146.8360 F   0  0  0  0  0  0  0  0  0  0  0  0
  184.3020  178.0730  146.1730 C   0  0  0  0  0  1  0  0  0  0  0  0
  187.1380  176.7980  145.4970 O   0  0  0  0  0  0  0  0  0  0  0  0
  186.2770  176.7620  147.6800 N   0  0  0  0  0  1  0  0  0  0  0  0
  186.1250  178.8180  144.6950 C   0  0  0  0  0  2  0  0  0  0  0  0
  186.7630  177.5940  146.5900 C   0  0  2  0  0  3  0  0  0  0  0  0
  1  4  1  0  0  0  0
  2  1  1  0  0  0  0
  2 17  1  1  0  0  0
  3 10  1  0  0  0  0
  4  7  2  0  0  0  0
  4 12  1  0  0  0  0
  6  3  1  0  0  0  0
  7  8  1  0  0  0  0
  8  5  2  0  0  0  0
  9  5  1  0  0  0  0
 10  1  1  0  0  0  0
 10 11  2  0  0  0  0
 11  7  1  0  0  0  0
 12  9  2  0  0  0  0
 13  6  1  6  0  0  0
 13  2  1  0  0  0  0
 14 15  1  6  0  0  0
 14 16  1  0  0  0  0
 14 13  1  0  0  0  0
 15 16  1  0  0  0  0
 18 21  1  1  0  0  0
 18 25  1  0  0  0  0
 18 20  1  0  0  0  0
 19 17  1  1  0  0  0
 19 24  1  0  0  0  0
 19 22  1  0  0  0  0
 22 25  1  0  0  0  0
 24 18  1  0  0  0  0
 25 23  1  1  0  0  0
M  END
>  <MODEL>
1

>  <REMARK>
 VINA RESULT:      -7.4      0.000      0.000
  Name = 
  3 active torsions:
  status: ('A' for Active; 'I' for Inactive)
    1  A    between atoms: C_3  and  C_16
    2  A    between atoms: C_6  and  C_16
    3  A    between atoms: C_13  and  C_24
                            x       y       z     vdW  Elec       q    Type
                         _______ _______ _______ _____ _____    ______ ____

>  <TORSDO>
F 3

$$$$
=
 OpenBabel11052417363D

 25 29  0  0  1  0  0  0  0  0999 V2000
  187.5330  176.7520  144.1220 N   0  0  0  0  0  0  0  0  0  0  0  0
  188.1910  175.4490  143.9740 C   0  0  1  0  0  3  0  0  0  0  0  0
  188.1390  177.4350  141.9050 N   0  0  0  0  0  2  0  0  0  0  0  0
  186.7970  177.2600  145.1240 C   0  0  0  0  0  0  0  0  0  0  0  0
  185.2370  178.7050  146.8970 C   0  0  0  0  0  3  0  0  0  0  0  0
  188.4800  176.1070  141.5810 N   0  0  0  0  0  2  0  0  0  0  0  0
  186.3590  178.5190  144.7880 C   0  0  0  0  0  0  0  0  0  0  0  0
  185.5740  179.2740  145.6550 C   0  0  0  0  0  3  0  0  0  0  0  0
  185.6840  177.4100  147.2390 C   0  0  0  0  0  3  0  0  0  0  0  0
  187.5140  177.6850  143.1580 C   0  0  0  0  0  0  0  0  0  0  0  0
  186.8070  178.8310  143.5120 C   0  0  0  0  0  3  0  0  0  0  0  0
  186.4750  176.6680  146.3460 C   0  0  0  0  0  3  0  0  0  0  0  0
  189.1310  175.4700  142.7390 C   0  0  2  0  0  3  0  0  0  0  0  0
  189.5570  174.0590  142.3590 C   0  0  1  0  0  3  0  0  0  0  0  0
  189.9060  174.0020  140.9420 C   0  0  0  0  0  2  0  0  0  0  0  0
  190.9710  174.0720  141.9510 N   0  0  0  0  0  2  0  0  0  0  0  0
  188.9930  175.1260  145.2330 C   0  0  0  0  0  2  0  0  0  0  0  0
  192.1850  175.6540  146.6250 C   0  0  1  0  0  0  0  0  0  0  0  0
  190.2060  176.0370  145.3570 C   0  0  1  0  0  3  0  0  0  0  0  0
  192.7220  174.5640  147.2810 F   0  0  0  0  0  0  0  0  0  0  0  0
  193.2790  176.6540  146.2760 C   0  0  0  0  0  1  0  0  0  0  0  0
  190.1110  176.7990  146.5390 O   0  0  0  0  0  0  0  0  0  0  0  0
  191.5060  177.2740  148.3650 N   0  0  0  0  0  1  0  0  0  0  0  0
  191.4910  175.2220  145.3730 C   0  0  0  0  0  2  0  0  0  0  0  0
  191.0500  176.2580  147.4300 C   0  0  2  0  0  3  0  0  0  0  0  0
  1  4  1  0  0  0  0
  2  1  1  0  0  0  0
  2 17  1  1  0  0  0
  3 10  1  0  0  0  0
  4 12  1  0  0  0  0
  5  9  1  0  0  0  0
  6  3  1  0  0  0  0
  7  4  2  0  0  0  0
  7  8  1  0  0  0  0
  8  5  2  0  0  0  0
 10 11  2  0  0  0  0
 10  1  1  0  0  0  0
 11  7  1  0  0  0  0
 12  9  2  0  0  0  0
 13  6  1  6  0  0  0
 13  2  1  0  0  0  0
 14 15  1  6  0  0  0
 14 13  1  0  0  0  0
 15 16  1  0  0  0  0
 16 14  1  0  0  0  0
 18 21  1  6  0  0  0
 18 20  1  0  0  0  0
 18 25  1  0  0  0  0
 19 17  1  1  0  0  0
 19 24  1  0  0  0  0
 19 22  1  0  0  0  0
 22 25  1  0  0  0  0
 24 18  1  0  0  0  0
 25 23  1  1  0  0  0
M  END
>  <MODEL>
2

>  <REMARK>
 VINA RESULT:      -7.0      2.518      5.417
  Name = 
  3 active torsions:
  status: ('A' for Active; 'I' for Inactive)
    1  A    between atoms: C_3  and  C_16
    2  A    between atoms: C_6  and  C_16
    3  A    between atoms: C_13  and  C_24
                            x       y       z     vdW  Elec       q    Type
                         _______ _______ _______ _____ _____    ______ ____

>  <TORSDO>
F 3

$$$$
=
 OpenBabel11052417363D

 25 29  0  0  1  0  0  0  0  0999 V2000
  187.4970  177.1060  143.1530 N   0  0  0  0  0  0  0  0  0  0  0  0
  188.7780  176.5700  143.6240 C   0  0  1  0  0  3  0  0  0  0  0  0
  187.6790  175.9900  141.0390 N   0  0  0  0  0  2  0  0  0  0  0  0
  186.5720  177.8550  143.7750 C   0  0  0  0  0  0  0  0  0  0  0  0
  184.4160  179.3660  144.6310 C   0  0  0  0  0  3  0  0  0  0  0  0
  188.7190  175.1860  141.5440 N   0  0  0  0  0  2  0  0  0  0  0  0
  185.5110  178.0810  142.9300 C   0  0  0  0  0  0  0  0  0  0  0  0
  184.4100  178.8370  143.3280 C   0  0  0  0  0  3  0  0  0  0  0  0
  185.5040  179.1300  145.4980 C   0  0  0  0  0  3  0  0  0  0  0  0
  186.9840  176.8420  141.9410 C   0  0  0  0  0  0  0  0  0  0  0  0
  185.7430  177.4360  141.7250 C   0  0  0  0  0  3  0  0  0  0  0  0
  186.6030  178.3630  145.0740 C   0  0  0  0  0  3  0  0  0  0  0  0
  189.5800  175.9920  142.4260 C   0  0  2  0  0  3  0  0  0  0  0  0
  190.7390  175.1340  142.9150 C   0  0  1  0  0  3  0  0  0  0  0  0
  191.4350  174.5350  141.7790 C   0  0  0  0  0  2  0  0  0  0  0  0
  192.0060  175.7150  142.4420 N   0  0  0  0  0  2  0  0  0  0  0  0
  189.5850  177.6740  144.3050 C   0  0  0  0  0  2  0  0  0  0  0  0
  191.0640  175.4930  146.6420 C   0  0  1  0  0  0  0  0  0  0  0  0
  189.8410  177.3390  145.7680 C   0  0  1  0  0  3  0  0  0  0  0  0
  191.9050  174.5410  146.1000 F   0  0  0  0  0  0  0  0  0  0  0  0
  191.3380  175.6550  148.1320 C   0  0  0  0  0  1  0  0  0  0  0  0
  188.9090  176.3790  146.2080 O   0  0  0  0  0  0  0  0  0  0  0  0
  189.0000  174.3190  147.3300 N   0  0  0  0  0  1  0  0  0  0  0  0
  191.2540  176.8090  145.9590 C   0  0  0  0  0  2  0  0  0  0  0  0
  189.6160  175.1730  146.3260 C   0  0  2  0  0  3  0  0  0  0  0  0
  1  2  1  0  0  0  0
  1  4  1  0  0  0  0
  2 17  1  6  0  0  0
  3  6  1  0  0  0  0
  3 10  1  0  0  0  0
  4 12  1  0  0  0  0
  5  9  1  0  0  0  0
  7  8  1  0  0  0  0
  7  4  2  0  0  0  0
  8  5  2  0  0  0  0
 10  1  1  0  0  0  0
 11 10  2  0  0  0  0
 11  7  1  0  0  0  0
 12  9  2  0  0  0  0
 13  6  1  6  0  0  0
 13 14  1  0  0  0  0
 13  2  1  0  0  0  0
 14 15  1  6  0  0  0
 15 16  1  0  0  0  0
 16 14  1  0  0  0  0
 18 21  1  1  0  0  0
 19 17  1  6  0  0  0
 19 24  1  0  0  0  0
 19 22  1  0  0  0  0
 20 18  1  0  0  0  0
 22 25  1  0  0  0  0
 24 18  1  0  0  0  0
 25 18  1  0  0  0  0
 25 23  1  1  0  0  0
M  END
>  <MODEL>
3

>  <REMARK>
 VINA RESULT:      -6.9      2.375      5.274
  Name = 
  3 active torsions:
  status: ('A' for Active; 'I' for Inactive)
    1  A    between atoms: C_3  and  C_16
    2  A    between atoms: C_6  and  C_16
    3  A    between atoms: C_13  and  C_24
                            x       y       z     vdW  Elec       q    Type
                         _______ _______ _______ _____ _____    ______ ____

>  <TORSDO>
F 3

$$$$
=
 OpenBabel11052417363D

 25 29  0  0  1  0  0  0  0  0999 V2000
  186.9550  176.8820  143.2070 N   0  0  0  0  0  0  0  0  0  0  0  0
  187.4720  175.5450  142.8990 C   0  0  1  0  0  3  0  0  0  0  0  0
  187.2640  177.6420  140.9540 N   0  0  0  0  0  2  0  0  0  0  0  0
  186.4260  177.3850  144.3340 C   0  0  0  0  0  0  0  0  0  0  0  0
  185.2830  178.8390  146.3940 C   0  0  0  0  0  3  0  0  0  0  0  0
  187.4420  176.3140  140.5220 N   0  0  0  0  0  2  0  0  0  0  0  0
  186.0470  178.6910  144.1280 C   0  0  0  0  0  0  0  0  0  0  0  0
  185.4690  179.4520  145.1410 C   0  0  0  0  0  3  0  0  0  0  0  0
  185.6690  177.4980  146.6030 C   0  0  0  0  0  3  0  0  0  0  0  0
  186.8640  177.8670  142.3000 C   0  0  0  0  0  0  0  0  0  0  0  0
  186.3160  179.0410  142.8120 C   0  0  0  0  0  3  0  0  0  0  0  0
  186.2490  176.7510  145.5640 C   0  0  0  0  0  3  0  0  0  0  0  0
  188.2090  175.5660  141.5320 C   0  0  2  0  0  3  0  0  0  0  0  0
  188.4540  174.1500  141.0280 C   0  0  1  0  0  3  0  0  0  0  0  0
  188.7130  174.1660  139.5910 C   0  0  0  0  0  2  0  0  0  0  0  0
  189.8350  174.0440  140.5320 N   0  0  0  0  0  2  0  0  0  0  0  0
  188.4300  175.0910  143.9990 C   0  0  0  0  0  2  0  0  0  0  0  0
  191.7940  175.5070  144.9580 C   0  0  1  0  0  0  0  0  0  0  0  0
  189.6360  176.0160  144.0890 C   0  0  1  0  0  3  0  0  0  0  0  0
  192.4410  174.3450  145.3300 F   0  0  0  0  0  0  0  0  0  0  0  0
  192.8060  176.5930  144.6190 C   0  0  0  0  0  1  0  0  0  0  0  0
  189.7180  176.5690  145.3830 O   0  0  0  0  0  0  0  0  0  0  0  0
  191.3760  176.7910  147.0290 N   0  0  0  0  0  1  0  0  0  0  0  0
  190.9180  175.2610  143.7710 C   0  0  0  0  0  2  0  0  0  0  0  0
  190.7910  175.9250  146.0160 C   0  0  2  0  0  3  0  0  0  0  0  0
  1  4  1  0  0  0  0
  2  1  1  0  0  0  0
  2 17  1  1  0  0  0
  3 10  1  0  0  0  0
  4 12  1  0  0  0  0
  5  9  1  0  0  0  0
  6  3  1  0  0  0  0
  7  4  2  0  0  0  0
  7  8  1  0  0  0  0
  8  5  2  0  0  0  0
 10 11  2  0  0  0  0
 10  1  1  0  0  0  0
 11  7  1  0  0  0  0
 12  9  2  0  0  0  0
 13  6  1  6  0  0  0
 13  2  1  0  0  0  0
 14 15  1  6  0  0  0
 14 13  1  0  0  0  0
 15 16  1  0  0  0  0
 16 14  1  0  0  0  0
 18 21  1  6  0  0  0
 18 20  1  0  0  0  0
 18 25  1  0  0  0  0
 19 17  1  1  0  0  0
 19 22  1  0  0  0  0
 22 25  1  0  0  0  0
 24 19  1  0  0  0  0
 24 18  1  0  0  0  0
 25 23  1  1  0  0  0
M  END
>  <MODEL>
4

>  <REMARK>
 VINA RESULT:      -6.9      2.493      5.297
  Name = 
  3 active torsions:
  status: ('A' for Active; 'I' for Inactive)
    1  A    between atoms: C_3  and  C_16
    2  A    between atoms: C_6  and  C_16
    3  A    between atoms: C_13  and  C_24
                            x       y       z     vdW  Elec       q    Type
                         _______ _______ _______ _____ _____    ______ ____

>  <TORSDO>
F 3

$$$$
=
 OpenBabel11052417363D

 25 29  0  0  1  0  0  0  0  0999 V2000
  187.3380  177.5210  144.4360 N   0  0  0  0  0  0  0  0  0  0  0  0
  188.7960  177.4330  144.5680 C   0  0  1  0  0  3  0  0  0  0  0  0
  186.9940  177.1980  146.7870 N   0  0  0  0  0  2  0  0  0  0  0  0
  186.5630  177.7890  143.3730 C   0  0  0  0  0  0  0  0  0  0  0  0
  184.5880  178.2960  141.4990 C   0  0  0  0  0  3  0  0  0  0  0  0
  188.3600  177.4420  147.0290 N   0  0  0  0  0  2  0  0  0  0  0  0
  185.2410  177.7980  143.7510 C   0  0  0  0  0  0  0  0  0  0  0  0
  184.2220  178.0490  142.8350 C   0  0  0  0  0  3  0  0  0  0  0  0
  185.9460  178.2900  141.1140 C   0  0  0  0  0  3  0  0  0  0  0  0
  186.4930  177.4040  145.4730 C   0  0  0  0  0  0  0  0  0  0  0  0
  185.1550  177.5510  145.1140 C   0  0  0  0  0  3  0  0  0  0  0  0
  186.9560  178.0360  142.0570 C   0  0  0  0  0  3  0  0  0  0  0  0
  189.1650  176.8380  145.9540 C   0  0  2  0  0  3  0  0  0  0  0  0
  190.6430  177.0480  146.2560 C   0  0  1  0  0  3  0  0  0  0  0  0
  190.9210  176.7250  147.6530 C   0  0  0  0  0  2  0  0  0  0  0  0
  191.2560  175.7560  146.6010 N   0  0  0  0  0  2  0  0  0  0  0  0
  189.3660  176.5550  143.4560 C   0  0  0  0  0  2  0  0  0  0  0  0
  189.8970  173.1790  142.6030 C   0  0  1  0  0  0  0  0  0  0  0  0
  188.9490  175.1020  143.6380 C   0  0  1  0  0  3  0  0  0  0  0  0
  191.0390  172.9380  141.8630 F   0  0  0  0  0  0  0  0  0  0  0  0
  189.4010  171.8920  143.2470 C   0  0  0  0  0  1  0  0  0  0  0  0
  188.0930  174.7160  142.5870 O   0  0  0  0  0  0  0  0  0  0  0  0
  187.9800  172.9370  141.0600 N   0  0  0  0  0  1  0  0  0  0  0  0
  190.1680  174.1920  143.6680 C   0  0  0  0  0  2  0  0  0  0  0  0
  188.8480  173.8750  141.7560 C   0  0  2  0  0  3  0  0  0  0  0  0
  1  2  1  0  0  0  0
  1 10  1  0  0  0  0
  2 17  1  6  0  0  0
  2 13  1  0  0  0  0
  3  6  1  0  0  0  0
  4  7  1  0  0  0  0
  4  1  1  0  0  0  0
  5  8  1  0  0  0  0
  7 11  1  0  0  0  0
  8  7  2  0  0  0  0
  9  5  2  0  0  0  0
  9 12  1  0  0  0  0
 10  3  1  0  0  0  0
 11 10  2  0  0  0  0
 12  4  2  0  0  0  0
 13 14  1  0  0  0  0
 13  6  1  1  0  0  0
 14 16  1  0  0  0  0
 14 15  1  1  0  0  0
 16 15  1  0  0  0  0
 18 21  1  1  0  0  0
 18 24  1  0  0  0  0
 19 17  1  6  0  0  0
 19 24  1  0  0  0  0
 20 18  1  0  0  0  0
 22 19  1  0  0  0  0
 25 23  1  1  0  0  0
 25 22  1  0  0  0  0
 25 18  1  0  0  0  0
M  END
>  <MODEL>
5

>  <REMARK>
 VINA RESULT:      -6.9      2.746      6.551
  Name = 
  3 active torsions:
  status: ('A' for Active; 'I' for Inactive)
    1  A    between atoms: C_3  and  C_16
    2  A    between atoms: C_6  and  C_16
    3  A    between atoms: C_13  and  C_24
                            x       y       z     vdW  Elec       q    Type
                         _______ _______ _______ _____ _____    ______ ____

>  <TORSDO>
F 3

$$$$
=
 OpenBabel11052417363D

 25 29  0  0  1  0  0  0  0  0999 V2000
  188.7610  177.1290  145.2250 N   0  0  0  0  0  0  0  0  0  0  0  0
  190.0430  177.2460  144.5210 C   0  0  1  0  0  3  0  0  0  0  0  0
  189.8090  176.3330  147.2300 N   0  0  0  0  0  2  0  0  0  0  0  0
  187.5160  177.4610  144.8500 C   0  0  0  0  0  0  0  0  0  0  0  0
  184.8160  177.9870  144.5290 C   0  0  0  0  0  3  0  0  0  0  0  0
  191.0670  176.7390  146.7440 N   0  0  0  0  0  2  0  0  0  0  0  0
  186.6350  177.1950  145.8730 C   0  0  0  0  0  0  0  0  0  0  0  0
  185.2710  177.4460  145.7460 C   0  0  0  0  0  3  0  0  0  0  0  0
  185.7220  178.2630  143.4820 C   0  0  0  0  0  3  0  0  0  0  0  0
  188.6490  176.6940  146.4900 C   0  0  0  0  0  0  0  0  0  0  0  0
  187.3380  176.6940  146.9590 C   0  0  0  0  0  3  0  0  0  0  0  0
  187.0940  178.0020  143.6350 C   0  0  0  0  0  3  0  0  0  0  0  0
  191.1440  176.4740  145.2970 C   0  0  2  0  0  3  0  0  0  0  0  0
  192.5290  176.8530  144.7920 C   0  0  1  0  0  3  0  0  0  0  0  0
  193.5490  176.4140  145.7400 C   0  0  0  0  0  2  0  0  0  0  0  0
  193.3000  175.6290  144.5240 N   0  0  0  0  0  2  0  0  0  0  0  0
  189.9120  176.6850  143.1060 C   0  0  0  0  0  2  0  0  0  0  0  0
  189.9160  173.7020  141.2340 C   0  0  1  0  0  0  0  0  0  0  0  0
  190.0110  175.1660  143.1090 C   0  0  1  0  0  3  0  0  0  0  0  0
  189.9650  173.8730  139.8650 F   0  0  0  0  0  0  0  0  0  0  0  0
  190.3320  172.2850  141.6060 C   0  0  0  0  0  1  0  0  0  0  0  0
  188.7200  174.6040  143.0710 O   0  0  0  0  0  0  0  0  0  0  0  0
  187.6160  172.9810  141.7840 N   0  0  0  0  0  1  0  0  0  0  0  0
  190.8200  174.6780  141.9170 C   0  0  0  0  0  2  0  0  0  0  0  0
  188.5540  174.0930  141.7750 C   0  0  2  0  0  3  0  0  0  0  0  0
  1 10  1  0  0  0  0
  2 17  1  6  0  0  0
  2  1  1  0  0  0  0
  2 13  1  0  0  0  0
  4  1  1  0  0  0  0
  4  7  1  0  0  0  0
  5  8  1  0  0  0  0
  6  3  1  0  0  0  0
  7 11  1  0  0  0  0
  8  7  2  0  0  0  0
  9 12  1  0  0  0  0
  9  5  2  0  0  0  0
 10 11  2  0  0  0  0
 10  3  1  0  0  0  0
 12  4  2  0  0  0  0
 13  6  1  1  0  0  0
 14 13  1  0  0  0  0
 14 15  1  1  0  0  0
 16 14  1  0  0  0  0
 16 15  1  0  0  0  0
 18 21  1  1  0  0  0
 18 25  1  0  0  0  0
 18 24  1  0  0  0  0
 19 17  1  6  0  0  0
 20 18  1  0  0  0  0
 22 19  1  0  0  0  0
 24 19  1  0  0  0  0
 25 23  1  1  0  0  0
 25 22  1  0  0  0  0
M  END
>  <MODEL>
6

>  <REMARK>
 VINA RESULT:      -6.9      3.010      6.363
  Name = 
  3 active torsions:
  status: ('A' for Active; 'I' for Inactive)
    1  A    between atoms: C_3  and  C_16
    2  A    between atoms: C_6  and  C_16
    3  A    between atoms: C_13  and  C_24
                            x       y       z     vdW  Elec       q    Type
                         _______ _______ _______ _____ _____    ______ ____

>  <TORSDO>
F 3

$$$$
=
 OpenBabel11052417363D

 25 29  0  0  1  0  0  0  0  0999 V2000
  185.6890  177.8850  143.4550 N   0  0  0  0  0  0  0  0  0  0  0  0
  186.5490  177.6880  144.6270 C   0  0  1  0  0  3  0  0  0  0  0  0
  183.9210  178.8270  144.7720 N   0  0  0  0  0  2  0  0  0  0  0  0
  185.9200  177.6820  142.1480 C   0  0  0  0  0  0  0  0  0  0  0  0
  185.9340  177.4340  139.3900 C   0  0  0  0  0  3  0  0  0  0  0  0
  184.8030  178.9820  145.8600 N   0  0  0  0  0  2  0  0  0  0  0  0
  184.8140  178.0490  141.4180 C   0  0  0  0  0  0  0  0  0  0  0  0
  184.7860  177.9370  140.0300 C   0  0  0  0  0  3  0  0  0  0  0  0
  187.0700  177.0620  140.1410 C   0  0  0  0  0  3  0  0  0  0  0  0
  184.4560  178.4110  143.5220 C   0  0  0  0  0  0  0  0  0  0  0  0
  183.8380  178.5290  142.2800 C   0  0  0  0  0  3  0  0  0  0  0  0
  187.0740  177.1850  141.5400 C   0  0  0  0  0  3  0  0  0  0  0  0
  185.7090  177.8230  145.9260 C   0  0  2  0  0  3  0  0  0  0  0  0
  186.6140  177.9650  147.1420 C   0  0  1  0  0  3  0  0  0  0  0  0
  185.8170  178.2490  148.3330 C   0  0  0  0  0  2  0  0  0  0  0  0
  186.3150  176.8870  148.0980 N   0  0  0  0  0  2  0  0  0  0  0  0
  187.1990  176.3070  144.5680 C   0  0  0  0  0  2  0  0  0  0  0  0
  190.3860  177.3160  143.4610 C   0  0  1  0  0  0  0  0  0  0  0  0
  188.6910  176.3920  144.8550 C   0  0  1  0  0  3  0  0  0  0  0  0
  190.3880  178.0890  142.3160 F   0  0  0  0  0  0  0  0  0  0  0  0
  191.7040  177.4730  144.2070 C   0  0  0  0  0  1  0  0  0  0  0  0
  189.3600  175.3220  144.2270 O   0  0  0  0  0  0  0  0  0  0  0  0
  191.2200  175.0790  142.8170 N   0  0  0  0  0  1  0  0  0  0  0  0
  189.2590  177.7140  144.3590 C   0  0  0  0  0  2  0  0  0  0  0  0
  190.0440  175.8750  143.1350 C   0  0  2  0  0  3  0  0  0  0  0  0
  1 10  1  0  0  0  0
  1  2  1  0  0  0  0
  2 17  1  6  0  0  0
  2 13  1  0  0  0  0
  3  6  1  0  0  0  0
  4  1  1  0  0  0  0
  5  8  2  0  0  0  0
  5  9  1  0  0  0  0
  7  4  2  0  0  0  0
  7 11  1  0  0  0  0
  8  7  1  0  0  0  0
  9 12  2  0  0  0  0
 10  3  1  0  0  0  0
 11 10  2  0  0  0  0
 12  4  1  0  0  0  0
 13  6  1  6  0  0  0
 13 14  1  0  0  0  0
 14 16  1  0  0  0  0
 14 15  1  1  0  0  0
 16 15  1  0  0  0  0
 18 21  1  1  0  0  0
 18 24  1  0  0  0  0
 19 17  1  6  0  0  0
 20 18  1  0  0  0  0
 22 19  1  0  0  0  0
 24 19  1  0  0  0  0
 25 23  1  1  0  0  0
 25 18  1  0  0  0  0
 25 22  1  0  0  0  0
M  END
>  <MODEL>
7

>  <REMARK>
 VINA RESULT:      -6.7      2.376      6.309
  Name = 
  3 active torsions:
  status: ('A' for Active; 'I' for Inactive)
    1  A    between atoms: C_3  and  C_16
    2  A    between atoms: C_6  and  C_16
    3  A    between atoms: C_13  and  C_24
                            x       y       z     vdW  Elec       q    Type
                         _______ _______ _______ _____ _____    ______ ____

>  <TORSDO>
F 3

$$$$
=
 OpenBabel11052417363D

 25 29  0  0  1  0  0  0  0  0999 V2000
  186.0030  177.9060  143.9040 N   0  0  0  0  0  0  0  0  0  0  0  0
  186.7860  177.3300  142.8060 C   0  0  1  0  0  3  0  0  0  0  0  0
  184.1650  178.4420  142.4610 N   0  0  0  0  0  2  0  0  0  0  0  0
  186.2510  177.9750  145.2220 C   0  0  0  0  0  0  0  0  0  0  0  0
  186.3200  178.3420  147.9660 C   0  0  0  0  0  3  0  0  0  0  0  0
  184.7030  177.6160  141.4550 N   0  0  0  0  0  2  0  0  0  0  0  0
  185.1950  178.5800  145.8630 C   0  0  0  0  0  0  0  0  0  0  0  0
  185.1970  178.7810  147.2410 C   0  0  0  0  0  3  0  0  0  0  0  0
  187.4010  177.7180  147.3060 C   0  0  0  0  0  3  0  0  0  0  0  0
  184.7790  178.4330  143.7430 C   0  0  0  0  0  0  0  0  0  0  0  0
  184.2160  178.8930  144.9310 C   0  0  0  0  0  3  0  0  0  0  0  0
  187.3750  177.5260  145.9150 C   0  0  0  0  0  3  0  0  0  0  0  0
  186.1700  177.7480  141.4430 C   0  0  2  0  0  3  0  0  0  0  0  0
  186.7380  176.9050  140.3100 C   0  0  1  0  0  3  0  0  0  0  0  0
  185.9030  177.0320  139.1190 C   0  0  0  0  0  2  0  0  0  0  0  0
  187.1590  177.7880  139.2110 N   0  0  0  0  0  2  0  0  0  0  0  0
  188.2330  177.8100  142.8910 C   0  0  0  0  0  2  0  0  0  0  0  0
  189.7420  174.9760  144.3390 C   0  0  1  0  0  0  0  0  0  0  0  0
  189.2050  176.6490  142.7330 C   0  0  1  0  0  3  0  0  0  0  0  0
  189.2060  174.5860  145.5510 F   0  0  0  0  0  0  0  0  0  0  0  0
  190.5330  173.8330  143.7180 C   0  0  0  0  0  1  0  0  0  0  0  0
  190.4490  176.9870  143.3020 O   0  0  0  0  0  0  0  0  0  0  0  0
  191.9400  176.0000  144.8230 N   0  0  0  0  0  1  0  0  0  0  0  0
  188.6580  175.3960  143.3990 C   0  0  0  0  0  2  0  0  0  0  0  0
  190.5450  176.2530  144.4940 C   0  0  2  0  0  3  0  0  0  0  0  0
  1  4  1  0  0  0  0
  2 17  1  6  0  0  0
  2  1  1  0  0  0  0
  3 10  1  0  0  0  0
  4  7  2  0  0  0  0
  4 12  1  0  0  0  0
  6  3  1  0  0  0  0
  7  8  1  0  0  0  0
  8  5  2  0  0  0  0
  9  5  1  0  0  0  0
 10  1  1  0  0  0  0
 10 11  2  0  0  0  0
 11  7  1  0  0  0  0
 12  9  2  0  0  0  0
 13  6  1  1  0  0  0
 13  2  1  0  0  0  0
 14 15  1  6  0  0  0
 14 13  1  0  0  0  0
 15 16  1  0  0  0  0
 16 14  1  0  0  0  0
 18 21  1  6  0  0  0
 18 25  1  0  0  0  0
 18 20  1  0  0  0  0
 19 17  1  1  0  0  0
 19 22  1  0  0  0  0
 19 24  1  0  0  0  0
 22 25  1  0  0  0  0
 24 18  1  0  0  0  0
 25 23  1  6  0  0  0
M  END
>  <MODEL>
8

>  <REMARK>
 VINA RESULT:      -6.6      2.356      5.049
  Name = 
  3 active torsions:
  status: ('A' for Active; 'I' for Inactive)
    1  A    between atoms: C_3  and  C_16
    2  A    between atoms: C_6  and  C_16
    3  A    between atoms: C_13  and  C_24
                            x       y       z     vdW  Elec       q    Type
                         _______ _______ _______ _____ _____    ______ ____

>  <TORSDO>
F 3

$$$$
=
 OpenBabel11052417363D

 25 29  0  0  1  0  0  0  0  0999 V2000
  189.5390  176.6950  145.5180 N   0  0  0  0  0  0  0  0  0  0  0  0
  190.8720  176.9420  144.9560 C   0  0  1  0  0  3  0  0  0  0  0  0
  190.4380  175.7000  147.5050 N   0  0  0  0  0  2  0  0  0  0  0  0
  188.3180  177.0280  145.0690 C   0  0  0  0  0  0  0  0  0  0  0  0
  185.6370  177.4950  144.5580 C   0  0  0  0  0  3  0  0  0  0  0  0
  191.7140  176.2060  147.1910 N   0  0  0  0  0  2  0  0  0  0  0  0
  187.3630  176.6100  145.9660 C   0  0  0  0  0  0  0  0  0  0  0  0
  186.0060  176.8270  145.7410 C   0  0  0  0  0  3  0  0  0  0  0  0
  186.6190  177.9270  143.6410 C   0  0  0  0  0  3  0  0  0  0  0  0
  189.3340  176.1080  146.7070 C   0  0  0  0  0  0  0  0  0  0  0  0
  187.9880  176.0050  147.0470 C   0  0  0  0  0  3  0  0  0  0  0  0
  187.9820  177.6960  143.8910 C   0  0  0  0  0  3  0  0  0  0  0  0
  191.9330  176.1200  145.7370 C   0  0  2  0  0  3  0  0  0  0  0  0
  193.3390  176.6050  145.4120 C   0  0  1  0  0  3  0  0  0  0  0  0
  194.2930  176.0680  146.3790 C   0  0  0  0  0  2  0  0  0  0  0  0
  194.1790  175.4530  145.0500 N   0  0  0  0  0  2  0  0  0  0  0  0
  190.8940  176.5520  143.4800 C   0  0  0  0  0  2  0  0  0  0  0  0
  191.1500  173.7860  141.3140 C   0  0  1  0  0  0  0  0  0  0  0  0
  190.8300  175.0400  143.3120 C   0  0  1  0  0  3  0  0  0  0  0  0
  191.6240  174.0780  140.0500 F   0  0  0  0  0  0  0  0  0  0  0  0
  191.2880  172.2970  141.6000 C   0  0  0  0  0  1  0  0  0  0  0  0
  189.5590  174.6660  142.8340 O   0  0  0  0  0  0  0  0  0  0  0  0
  188.7290  173.3380  141.0860 N   0  0  0  0  0  1  0  0  0  0  0  0
  191.9040  174.5600  142.3470 C   0  0  0  0  0  2  0  0  0  0  0  0
  189.7370  174.3070  141.4900 C   0  0  2  0  0  3  0  0  0  0  0  0
  1 10  1  0  0  0  0
  2 17  1  6  0  0  0
  2  1  1  0  0  0  0
  2 13  1  0  0  0  0
  4  1  1  0  0  0  0
  4  7  1  0  0  0  0
  5  8  1  0  0  0  0
  6  3  1  0  0  0  0
  7 11  1  0  0  0  0
  8  7  2  0  0  0  0
  9 12  1  0  0  0  0
  9  5  2  0  0  0  0
 10 11  2  0  0  0  0
 10  3  1  0  0  0  0
 12  4  2  0  0  0  0
 13  6  1  1  0  0  0
 14 13  1  0  0  0  0
 14 15  1  1  0  0  0
 16 14  1  0  0  0  0
 16 15  1  0  0  0  0
 18 25  1  0  0  0  0
 18 21  1  1  0  0  0
 18 24  1  0  0  0  0
 19 17  1  6  0  0  0
 20 18  1  0  0  0  0
 22 19  1  0  0  0  0
 24 19  1  0  0  0  0
 25 23  1  1  0  0  0
 25 22  1  0  0  0  0
M  END
>  <MODEL>
9

>  <REMARK>
 VINA RESULT:      -6.6      3.207      6.642
  Name = 
  3 active torsions:
  status: ('A' for Active; 'I' for Inactive)
    1  A    between atoms: C_3  and  C_16
    2  A    between atoms: C_6  and  C_16
    3  A    between atoms: C_13  and  C_24
                            x       y       z     vdW  Elec       q    Type
                         _______ _______ _______ _____ _____    ______ ____

>  <TORSDO>
F 3

$$$$
