=
 OpenBabel11052420073D

 37 45  0  0  1  0  0  0  0  0999 V2000
  186.5080  177.8480  141.1450 C   0  0  1  0  0  3  0  0  0  0  0  0
  184.3550  178.3420  146.6200 C   0  0  0  0  0  2  0  0  0  0  0  0
  188.2230  176.2460  145.6790 C   0  0  2  0  0  0  0  0  0  0  0  0
  189.1780  174.0760  143.0410 N   0  0  0  0  0  2  0  0  0  0  0  0
  186.8360  177.7610  146.6900 C   0  0  0  0  0  0  0  0  0  0  0  0
  188.7240  176.2040  144.2610 C   0  0  1  0  0  3  0  0  0  0  0  0
  184.4400  178.7600  141.9290 O   0  0  0  0  0  1  0  0  0  0  0  0
  186.8570  176.7440  145.6960 N   0  0  0  0  0  0  0  0  0  0  0  0
  189.7470  175.1250  143.9060 C   0  0  1  0  0  3  0  0  0  0  0  0
  188.0860  177.9100  147.2570 O   0  0  0  0  0  0  0  0  0  0  0  0
  186.3050  176.6840  144.3280 C   0  0  1  0  0  3  0  0  0  0  0  0
  185.0400  178.8910  144.5130 C   0  0  0  0  0  2  0  0  0  0  0  0
  190.1640  175.2120  147.4340 C   0  0  0  0  0  2  0  0  0  0  0  0
  185.4340  177.8270  142.2490 C   0  0  2  0  0  3  0  0  0  0  0  0
  189.0350  177.0530  146.6250 C   0  0  1  0  0  3  0  0  0  0  0  0
  186.0120  178.0580  143.6670 C   0  0  2  0  0  3  0  0  0  0  0  0
  188.6550  174.7110  141.8140 C   0  0  0  0  0  2  0  0  0  0  0  0
  188.7530  175.5510  146.9510 C   0  0  2  0  0  0  0  0  0  0  0  0
  187.4000  175.9140  143.5910 C   0  0  1  0  0  3  0  0  0  0  0  0
  185.7800  178.4650  147.1090 C   0  0  0  0  0  3  0  0  0  0  0  0
  190.4820  174.5980  145.1400 C   0  0  1  0  0  3  0  0  0  0  0  0
  184.1970  178.0460  145.2510 O   0  0  0  0  0  0  0  0  0  0  0  0
  187.4880  175.6900  142.0930 C   0  0  1  0  0  3  0  0  0  0  0  0
  187.7700  177.0180  141.4030 C   0  0  0  0  0  2  0  0  0  0  0  0
  189.5930  174.3610  146.3710 C   0  0  1  0  0  3  0  0  0  0  0  0
  190.9040  172.2240  144.3770 C   0  0  0  0  0  3  0  0  0  0  0  0
  191.3990  173.4490  144.8510 C   0  0  0  0  0  0  0  0  0  0  0  0
  192.7770  173.6140  145.0320 C   0  0  0  0  0  3  0  0  0  0  0  0
  194.9870  172.7260  144.9330 F   0  0  0  0  0  0  0  0  0  0  0  0
  193.1570  171.3420  144.2850 C   0  0  0  0  0  3  0  0  0  0  0  0
  193.6540  172.5620  144.7520 C   0  0  0  0  0  0  0  0  0  0  0  0
  191.7830  171.1740  144.0970 C   0  0  0  0  0  3  0  0  0  0  0  0
  185.9200  177.5680  139.7570 C   0  0  0  0  0  2  0  0  0  0  0  0
  186.9860  177.3140  138.7000 C   0  0  0  0  0  2  0  0  0  0  0  0
  186.5690  176.1620  137.8070 C   0  0  0  0  0  2  0  0  0  0  0  0
  187.5120  175.0530  137.9620 C   0  0  0  0  0  0  0  0  0  0  0  0
  188.2900  174.1410  138.0890 C   0  0  0  0  0  3  0  0  0  0  0  0
  1 33  1  6  0  0  0
  1 24  1  0  0  0  0
  1 14  1  0  0  0  0
  2 20  1  0  0  0  0
  3  8  1  1  0  0  0
  3 15  1  0  0  0  0
  3 18  1  0  0  0  0
  4  9  1  0  0  0  0
  5 20  2  0  0  0  0
  5 10  1  0  0  0  0
  6  3  1  0  0  0  0
  7 14  1  0  0  0  0
  8  5  1  0  0  0  0
  9  6  1  0  0  0  0
  9 21  1  0  0  0  0
 11  8  1  0  0  0  0
 12 22  1  0  0  0  0
 14 16  1  0  0  0  0
 15 18  1  0  0  0  0
 15 10  1  0  0  0  0
 16 11  1  0  0  0  0
 16 12  1  0  0  0  0
 17 23  1  0  0  0  0
 17  4  1  0  0  0  0
 18 13  1  0  0  0  0
 19  6  1  0  0  0  0
 19 11  1  0  0  0  0
 21 25  1  0  0  0  0
 22  2  1  0  0  0  0
 23 19  1  0  0  0  0
 24 23  1  0  0  0  0
 25 18  1  0  0  0  0
 25 13  1  0  0  0  0
 26 27  1  0  0  0  0
 27 28  2  0  0  0  0
 27 21  1  0  0  0  0
 30 31  2  0  0  0  0
 31 29  1  0  0  0  0
 31 28  1  0  0  0  0
 32 30  1  0  0  0  0
 32 26  2  0  0  0  0
 34 33  1  0  0  0  0
 35 36  1  0  0  0  0
 35 34  1  0  0  0  0
 36 37  3  0  0  0  0
M  END
>  <MODEL>
1

>  <REMARK>
 VINA RESULT:      -9.0      0.000      0.000
  Name = 
  5 active torsions:
  status: ('A' for Active; 'I' for Inactive)
    1  A    between atoms: C_1  and  C_5
    2  A    between atoms: C_5  and  C_17
    3  A    between atoms: C_6  and  C_31
    4  A    between atoms: C_11  and  C_26
    5  A    between atoms: C_17  and  C_26
                            x       y       z     vdW  Elec       q    Type
                         _______ _______ _______ _____ _____    ______ ____

>  <TORSDO>
F 5

$$$$
=
 OpenBabel11052420073D

 37 45  0  0  1  0  0  0  0  0999 V2000
  190.4450  171.9530  141.6520 C   0  0  1  0  0  3  0  0  0  0  0  0
  195.0690  174.6360  144.1560 C   0  0  0  0  0  2  0  0  0  0  0  0
  190.8020  175.6450  145.1610 C   0  0  2  0  0  0  0  0  0  0  0  0
  187.8960  175.9780  143.1550 N   0  0  0  0  0  2  0  0  0  0  0  0
  192.9670  175.0080  145.5480 C   0  0  0  0  0  0  0  0  0  0  0  0
  189.6810  174.8820  144.5090 C   0  0  1  0  0  3  0  0  0  0  0  0
  192.7890  171.7410  141.2240 O   0  0  0  0  0  1  0  0  0  0  0  0
  192.0570  175.3220  144.5000 N   0  0  0  0  0  0  0  0  0  0  0  0
  188.2970  175.5310  144.5010 C   0  0  1  0  0  3  0  0  0  0  0  0
  192.3460  175.1120  146.7760 O   0  0  0  0  0  0  0  0  0  0  0  0
  191.7670  174.6650  143.2100 C   0  0  1  0  0  3  0  0  0  0  0  0
  193.6850  172.9930  143.3880 C   0  0  0  0  0  2  0  0  0  0  0  0
  189.7950  177.3430  147.1670 C   0  0  0  0  0  2  0  0  0  0  0  0
  191.8250  172.6350  141.7060 C   0  0  2  0  0  3  0  0  0  0  0  0
  190.9630  175.4310  146.6220 C   0  0  1  0  0  3  0  0  0  0  0  0
  192.1860  173.1730  143.1120 C   0  0  2  0  0  3  0  0  0  0  0  0
  187.9220  174.8140  142.2460 C   0  0  0  0  0  2  0  0  0  0  0  0
  190.7700  176.8840  146.0810 C   0  0  2  0  0  0  0  0  0  0  0  0
  190.2530  174.8440  143.1100 C   0  0  1  0  0  3  0  0  0  0  0  0
  194.2640  174.7090  145.4330 C   0  0  0  0  0  3  0  0  0  0  0  0
  188.1530  176.5960  145.5900 C   0  0  1  0  0  3  0  0  0  0  0  0
  194.3850  174.1530  143.0240 O   0  0  0  0  0  0  0  0  0  0  0  0
  189.3400  174.2150  142.0740 C   0  0  1  0  0  3  0  0  0  0  0  0
  189.2820  172.7110  142.3030 C   0  0  0  0  0  2  0  0  0  0  0  0
  189.3710  177.5160  145.7630 C   0  0  1  0  0  3  0  0  0  0  0  0
  185.7200  176.8890  146.2170 C   0  0  0  0  0  3  0  0  0  0  0  0
  186.8560  177.3460  145.5320 C   0  0  0  0  0  0  0  0  0  0  0  0
  186.7910  178.5380  144.8020 C   0  0  0  0  0  3  0  0  0  0  0  0
  185.5390  180.4160  144.0370 F   0  0  0  0  0  0  0  0  0  0  0  0
  184.4660  178.8030  145.4270 C   0  0  0  0  0  3  0  0  0  0  0  0
  185.5980  179.2640  144.7480 C   0  0  0  0  0  0  0  0  0  0  0  0
  184.5280  177.6160  146.1620 C   0  0  0  0  0  3  0  0  0  0  0  0
  190.0890  171.4730  140.2400 C   0  0  0  0  0  2  0  0  0  0  0  0
  190.3940  172.5080  139.1660 C   0  0  0  0  0  2  0  0  0  0  0  0
  189.3260  172.4750  138.0920 C   0  0  0  0  0  2  0  0  0  0  0  0
  188.5250  173.6970  138.1570 C   0  0  0  0  0  0  0  0  0  0  0  0
  187.8630  174.7040  138.2110 C   0  0  0  0  0  3  0  0  0  0  0  0
  1 33  1  6  0  0  0
  1 14  1  0  0  0  0
  1 24  1  0  0  0  0
  2 20  1  0  0  0  0
  3  8  1  6  0  0  0
  3 18  1  0  0  0  0
  3 15  1  0  0  0  0
  4  9  1  0  0  0  0
  5 10  1  0  0  0  0
  6  3  1  0  0  0  0
  7 14  1  0  0  0  0
  8  5  1  0  0  0  0
  9  6  1  0  0  0  0
  9 21  1  0  0  0  0
 11  8  1  0  0  0  0
 14 16  1  0  0  0  0
 15 10  1  0  0  0  0
 16 11  1  0  0  0  0
 16 12  1  0  0  0  0
 17  4  1  0  0  0  0
 18 15  1  0  0  0  0
 18 13  1  0  0  0  0
 19 11  1  0  0  0  0
 19  6  1  0  0  0  0
 20  5  2  0  0  0  0
 21 25  1  0  0  0  0
 22 12  1  0  0  0  0
 22  2  1  0  0  0  0
 23 17  1  0  0  0  0
 23 24  1  0  0  0  0
 23 19  1  0  0  0  0
 25 18  1  0  0  0  0
 25 13  1  0  0  0  0
 27 21  1  0  0  0  0
 27 26  2  0  0  0  0
 28 27  1  0  0  0  0
 29 31  1  0  0  0  0
 30 32  2  0  0  0  0
 31 28  2  0  0  0  0
 31 30  1  0  0  0  0
 32 26  1  0  0  0  0
 34 33  1  0  0  0  0
 35 36  1  0  0  0  0
 35 34  1  0  0  0  0
 36 37  3  0  0  0  0
M  END
>  <MODEL>
2

>  <REMARK>
 VINA RESULT:      -8.8      3.543      6.863
  Name = 
  5 active torsions:
  status: ('A' for Active; 'I' for Inactive)
    1  A    between atoms: C_1  and  C_5
    2  A    between atoms: C_5  and  C_17
    3  A    between atoms: C_6  and  C_31
    4  A    between atoms: C_11  and  C_26
    5  A    between atoms: C_17  and  C_26
                            x       y       z     vdW  Elec       q    Type
                         _______ _______ _______ _____ _____    ______ ____

>  <TORSDO>
F 5

$$$$
=
 OpenBabel11052420073D

 37 45  0  0  1  0  0  0  0  0999 V2000
  192.7370  173.7670  144.3510 C   0  0  1  0  0  3  0  0  0  0  0  0
  189.4650  172.0220  139.7580 C   0  0  0  0  0  2  0  0  0  0  0  0
  188.1720  175.2510  142.6110 C   0  0  2  0  0  0  0  0  0  0  0  0
  188.4290  175.5610  146.1340 N   0  0  0  0  0  2  0  0  0  0  0  0
  188.6810  174.2990  140.5910 C   0  0  0  0  0  0  0  0  0  0  0  0
  189.0860  175.6670  143.7300 C   0  0  1  0  0  3  0  0  0  0  0  0
  193.0840  172.0040  142.7720 O   0  0  0  0  0  1  0  0  0  0  0  0
  188.6870  174.0400  141.9910 N   0  0  0  0  0  0  0  0  0  0  0  0
  188.4590  176.3950  144.9200 C   0  0  1  0  0  3  0  0  0  0  0  0
  188.2130  175.5720  140.3360 O   0  0  0  0  0  0  0  0  0  0  0  0
  189.6950  173.4320  142.8820 C   0  0  1  0  0  3  0  0  0  0  0  0
  191.2520  172.7260  140.9890 C   0  0  0  0  0  2  0  0  0  0  0  0
  185.9480  176.9700  142.4710 C   0  0  0  0  0  2  0  0  0  0  0  0
  192.0800  172.7660  143.3830 C   0  0  2  0  0  3  0  0  0  0  0  0
  187.9440  176.2680  141.5530 C   0  0  1  0  0  3  0  0  0  0  0  0
  191.1510  173.4400  142.3440 C   0  0  2  0  0  3  0  0  0  0  0  0
  189.8110  175.1500  146.4560 C   0  0  0  0  0  2  0  0  0  0  0  0
  186.7160  175.6570  142.3010 C   0  0  2  0  0  0  0  0  0  0  0  0
  189.5420  174.2860  144.1400 C   0  0  1  0  0  3  0  0  0  0  0  0
  189.0100  173.4550  139.6090 C   0  0  0  0  0  3  0  0  0  0  0  0
  187.1180  177.0380  144.5600 C   0  0  1  0  0  3  0  0  0  0  0  0
  190.2580  171.7420  140.8880 O   0  0  0  0  0  0  0  0  0  0  0  0
  190.4440  174.2560  145.3610 C   0  0  1  0  0  3  0  0  0  0  0  0
  191.8120  174.8110  144.9870 C   0  0  0  0  0  2  0  0  0  0  0  0
  186.1970  176.1720  143.6870 C   0  0  1  0  0  3  0  0  0  0  0  0
  185.0090  177.6320  145.8240 C   0  0  0  0  0  3  0  0  0  0  0  0
  186.4090  177.6490  145.7310 C   0  0  0  0  0  0  0  0  0  0  0  0
  187.1640  178.2220  146.7610 C   0  0  0  0  0  3  0  0  0  0  0  0
  187.2610  179.3390  148.8650 F   0  0  0  0  0  0  0  0  0  0  0  0
  185.1310  178.7690  147.9580 C   0  0  0  0  0  3  0  0  0  0  0  0
  186.5260  178.7830  147.8720 C   0  0  0  0  0  0  0  0  0  0  0  0
  184.3730  178.1930  146.9350 C   0  0  0  0  0  3  0  0  0  0  0  0
  193.6120  173.0720  145.4010 C   0  0  0  0  0  2  0  0  0  0  0  0
  195.0900  173.4130  145.2630 C   0  0  0  0  0  2  0  0  0  0  0  0
  195.3540  174.8070  145.7970 C   0  0  0  0  0  2  0  0  0  0  0  0
  195.6920  175.7020  144.6890 C   0  0  0  0  0  0  0  0  0  0  0  0
  195.9700  176.4370  143.7760 C   0  0  0  0  0  3  0  0  0  0  0  0
  1 24  1  0  0  0  0
  1 33  1  1  0  0  0
  2 22  1  0  0  0  0
  3  8  1  6  0  0  0
  3  6  1  0  0  0  0
  4 17  1  0  0  0  0
  5  8  1  0  0  0  0
  6 19  1  0  0  0  0
  6  9  1  0  0  0  0
  7 14  1  0  0  0  0
  8 11  1  0  0  0  0
  9  4  1  0  0  0  0
 10  5  1  0  0  0  0
 10 15  1  0  0  0  0
 11 19  1  0  0  0  0
 12 16  1  0  0  0  0
 13 25  1  0  0  0  0
 14  1  1  0  0  0  0
 15 18  1  0  0  0  0
 15  3  1  0  0  0  0
 16 11  1  0  0  0  0
 16 14  1  0  0  0  0
 18 13  1  0  0  0  0
 18  3  1  0  0  0  0
 18 25  1  0  0  0  0
 19 23  1  0  0  0  0
 20  2  1  0  0  0  0
 20  5  2  0  0  0  0
 21  9  1  0  0  0  0
 21 27  1  0  0  0  0
 22 12  1  0  0  0  0
 23 17  1  0  0  0  0
 24 23  1  0  0  0  0
 25 21  1  0  0  0  0
 26 32  1  0  0  0  0
 27 26  2  0  0  0  0
 27 28  1  0  0  0  0
 28 31  2  0  0  0  0
 31 30  1  0  0  0  0
 31 29  1  0  0  0  0
 32 30  2  0  0  0  0
 34 33  1  0  0  0  0
 34 35  1  0  0  0  0
 36 35  1  0  0  0  0
 37 36  3  0  0  0  0
M  END
>  <MODEL>
3

>  <REMARK>
 VINA RESULT:      -8.6      3.339      7.918
  Name = 
  5 active torsions:
  status: ('A' for Active; 'I' for Inactive)
    1  A    between atoms: C_1  and  C_5
    2  A    between atoms: C_5  and  C_17
    3  A    between atoms: C_6  and  C_31
    4  A    between atoms: C_11  and  C_26
    5  A    between atoms: C_17  and  C_26
                            x       y       z     vdW  Elec       q    Type
                         _______ _______ _______ _____ _____    ______ ____

>  <TORSDO>
F 5

$$$$
=
 OpenBabel11052420073D

 37 45  0  0  1  0  0  0  0  0999 V2000
  187.4630  177.8840  144.6500 C   0  0  1  0  0  3  0  0  0  0  0  0
  191.5640  175.2900  148.0120 C   0  0  0  0  0  2  0  0  0  0  0  0
  191.1980  174.5680  143.5870 C   0  0  2  0  0  0  0  0  0  0  0  0
  188.3870  174.1480  141.4650 N   0  0  0  0  0  2  0  0  0  0  0  0
  192.2160  175.1530  145.5520 C   0  0  0  0  0  0  0  0  0  0  0  0
  190.1520  175.3050  142.7950 C   0  0  1  0  0  3  0  0  0  0  0  0
  187.8090  177.9530  147.0160 O   0  0  0  0  0  1  0  0  0  0  0  0
  190.9590  174.7690  145.0070 N   0  0  0  0  0  0  0  0  0  0  0  0
  189.7460  174.7160  141.4430 C   0  0  1  0  0  3  0  0  0  0  0  0
  193.1780  175.2040  144.5630 O   0  0  0  0  0  0  0  0  0  0  0  0
  189.5940  175.2980  145.1980 C   0  0  1  0  0  3  0  0  0  0  0  0
  190.2460  176.8990  147.0730 C   0  0  0  0  0  2  0  0  0  0  0  0
  192.9010  173.1340  141.8660 C   0  0  0  0  0  2  0  0  0  0  0  0
  188.0240  177.1550  145.8850 C   0  0  2  0  0  3  0  0  0  0  0  0
  192.6060  174.9280  143.2850 C   0  0  1  0  0  3  0  0  0  0  0  0
  189.5110  176.7530  145.7340 C   0  0  2  0  0  3  0  0  0  0  0  0
  187.4410  175.2080  141.8670 C   0  0  0  0  0  2  0  0  0  0  0  0
  192.1590  173.4360  143.1700 C   0  0  2  0  0  0  0  0  0  0  0  0
  189.0200  175.1720  143.7870 C   0  0  1  0  0  3  0  0  0  0  0  0
  192.5080  175.3840  146.8360 C   0  0  0  0  0  3  0  0  0  0  0  0
  190.8150  173.7790  140.8780 C   0  0  1  0  0  3  0  0  0  0  0  0
  190.2320  175.6790  147.7660 O   0  0  0  0  0  0  0  0  0  0  0  0
  187.6910  175.7260  143.3050 C   0  0  1  0  0  3  0  0  0  0  0  0
  187.7590  177.2470  143.2880 C   0  0  0  0  0  2  0  0  0  0  0  0
  191.4560  172.8320  141.9050 C   0  0  1  0  0  3  0  0  0  0  0  0
  190.2080  173.7910  138.4230 C   0  0  0  0  0  3  0  0  0  0  0  0
  190.4000  173.0810  139.6180 C   0  0  0  0  0  0  0  0  0  0  0  0
  190.2290  171.6920  139.6330 C   0  0  0  0  0  3  0  0  0  0  0  0
  189.6910  169.6730  138.4870 F   0  0  0  0  0  0  0  0  0  0  0  0
  189.6630  171.7280  137.2790 C   0  0  0  0  0  3  0  0  0  0  0  0
  189.8590  171.0170  138.4660 C   0  0  0  0  0  0  0  0  0  0  0  0
  189.8390  173.1140  137.2570 C   0  0  0  0  0  3  0  0  0  0  0  0
  185.9760  178.2270  144.8030 C   0  0  0  0  0  2  0  0  0  0  0  0
  185.4920  179.2420  143.7760 C   0  0  0  0  0  2  0  0  0  0  0  0
  184.3380  178.6650  142.9790 C   0  0  0  0  0  2  0  0  0  0  0  0
  184.8020  178.2910  141.6430 C   0  0  0  0  0  0  0  0  0  0  0  0
  185.1850  177.9810  140.5430 C   0  0  0  0  0  3  0  0  0  0  0  0
  1 33  1  1  0  0  0
  1 14  1  0  0  0  0
  3  8  1  1  0  0  0
  4 17  1  0  0  0  0
  5 20  2  0  0  0  0
  6  3  1  0  0  0  0
  6 19  1  0  0  0  0
  8 11  1  0  0  0  0
  8  5  1  0  0  0  0
  9  4  1  0  0  0  0
  9  6  1  0  0  0  0
 10  5  1  0  0  0  0
 11 16  1  0  0  0  0
 12 22  1  0  0  0  0
 13 25  1  0  0  0  0
 13 18  1  0  0  0  0
 14  7  1  0  0  0  0
 15  3  1  0  0  0  0
 15 10  1  0  0  0  0
 16 14  1  0  0  0  0
 16 12  1  0  0  0  0
 17 23  1  0  0  0  0
 18 15  1  0  0  0  0
 18  3  1  0  0  0  0
 19 11  1  0  0  0  0
 20  2  1  0  0  0  0
 21  9  1  0  0  0  0
 21 25  1  0  0  0  0
 22  2  1  0  0  0  0
 23 19  1  0  0  0  0
 24 23  1  0  0  0  0
 24  1  1  0  0  0  0
 25 18  1  0  0  0  0
 26 27  1  0  0  0  0
 27 28  2  0  0  0  0
 27 21  1  0  0  0  0
 30 31  2  0  0  0  0
 31 29  1  0  0  0  0
 31 28  1  0  0  0  0
 32 30  1  0  0  0  0
 32 26  2  0  0  0  0
 34 33  1  0  0  0  0
 35 34  1  0  0  0  0
 36 35  1  0  0  0  0
 37 36  3  0  0  0  0
M  END
>  <MODEL>
4

>  <REMARK>
 VINA RESULT:      -8.4      2.654      5.471
  Name = 
  5 active torsions:
  status: ('A' for Active; 'I' for Inactive)
    1  A    between atoms: C_1  and  C_5
    2  A    between atoms: C_5  and  C_17
    3  A    between atoms: C_6  and  C_31
    4  A    between atoms: C_11  and  C_26
    5  A    between atoms: C_17  and  C_26
                            x       y       z     vdW  Elec       q    Type
                         _______ _______ _______ _____ _____    ______ ____

>  <TORSDO>
F 5

$$$$
=
 OpenBabel11052420073D

 37 45  0  0  1  0  0  0  0  0999 V2000
  185.5980  178.5940  142.0290 C   0  0  1  0  0  3  0  0  0  0  0  0
  184.8940  178.3770  147.8870 C   0  0  0  0  0  2  0  0  0  0  0  0
  188.3160  176.3890  145.7470 C   0  0  2  0  0  0  0  0  0  0  0  0
  188.4940  174.5790  142.7020 N   0  0  0  0  0  2  0  0  0  0  0  0
  187.2880  177.7700  147.2570 C   0  0  0  0  0  0  0  0  0  0  0  0
  188.4470  176.5310  144.2550 C   0  0  1  0  0  3  0  0  0  0  0  0
  183.8300  179.4120  143.4170 O   0  0  0  0  0  1  0  0  0  0  0  0
  187.0190  176.8930  146.1690 N   0  0  0  0  0  0  0  0  0  0  0  0
  189.3040  175.4990  143.5200 C   0  0  1  0  0  3  0  0  0  0  0  0
  188.6450  177.8310  147.5050 O   0  0  0  0  0  0  0  0  0  0  0  0
  186.1420  177.0200  144.9880 C   0  0  1  0  0  3  0  0  0  0  0  0
  185.0570  179.1940  145.7620 C   0  0  0  0  0  2  0  0  0  0  0  0
  190.5870  175.1140  146.8120 C   0  0  0  0  0  2  0  0  0  0  0  0
  184.8320  178.4360  143.3560 C   0  0  2  0  0  3  0  0  0  0  0  0
  189.3710  177.0560  146.5520 C   0  0  1  0  0  3  0  0  0  0  0  0
  185.7520  178.4720  144.6010 C   0  0  2  0  0  3  0  0  0  0  0  0
  187.7110  175.3760  141.7360 C   0  0  0  0  0  2  0  0  0  0  0  0
  189.1160  175.5270  146.7460 C   0  0  2  0  0  0  0  0  0  0  0  0
  186.9870  176.3450  143.9080 C   0  0  1  0  0  3  0  0  0  0  0  0
  186.4000  178.4220  148.0130 C   0  0  0  0  0  3  0  0  0  0  0  0
  190.2990  174.8080  144.4540 C   0  0  1  0  0  3  0  0  0  0  0  0
  184.3890  178.2670  146.5760 O   0  0  0  0  0  0  0  0  0  0  0  0
  186.6910  176.3200  142.4200 C   0  0  1  0  0  3  0  0  0  0  0  0
  186.8490  177.7260  141.8540 C   0  0  0  0  0  2  0  0  0  0  0  0
  189.7350  174.4170  145.8290 C   0  0  1  0  0  3  0  0  0  0  0  0
  190.8750  172.3600  144.1770 C   0  0  0  0  0  3  0  0  0  0  0  0
  191.0670  173.6990  143.8000 C   0  0  0  0  0  0  0  0  0  0  0  0
  191.9720  174.0060  142.7780 C   0  0  0  0  0  3  0  0  0  0  0  0
  193.5640  173.2900  141.1550 F   0  0  0  0  0  0  0  0  0  0  0  0
  192.4960  171.6560  142.5230 C   0  0  0  0  0  3  0  0  0  0  0  0
  192.6870  172.9870  142.1420 C   0  0  0  0  0  0  0  0  0  0  0  0
  191.5900  171.3430  143.5390 C   0  0  0  0  0  3  0  0  0  0  0  0
  184.6720  178.5050  140.8100 C   0  0  0  0  0  2  0  0  0  0  0  0
  183.3310  177.8590  141.1280 C   0  0  0  0  0  2  0  0  0  0  0  0
  182.2050  178.6660  140.5130 C   0  0  0  0  0  2  0  0  0  0  0  0
  180.9340  178.2890  141.1330 C   0  0  0  0  0  0  0  0  0  0  0  0
  179.8880  177.9770  141.6440 C   0  0  0  0  0  3  0  0  0  0  0  0
  1 33  1  6  0  0  0
  1 14  1  0  0  0  0
  2 20  1  0  0  0  0
  3  8  1  1  0  0  0
  3 15  1  0  0  0  0
  3 18  1  0  0  0  0
  4  9  1  0  0  0  0
  5 10  1  0  0  0  0
  5 20  2  0  0  0  0
  6  3  1  0  0  0  0
  8  5  1  0  0  0  0
  9  6  1  0  0  0  0
  9 21  1  0  0  0  0
 11  8  1  0  0  0  0
 12 22  1  0  0  0  0
 14  7  1  0  0  0  0
 14 16  1  0  0  0  0
 15 18  1  0  0  0  0
 15 10  1  0  0  0  0
 16 11  1  0  0  0  0
 16 12  1  0  0  0  0
 17 23  1  0  0  0  0
 17  4  1  0  0  0  0
 18 13  1  0  0  0  0
 19  6  1  0  0  0  0
 19 11  1  0  0  0  0
 21 25  1  0  0  0  0
 22  2  1  0  0  0  0
 23 19  1  0  0  0  0
 24  1  1  0  0  0  0
 24 23  1  0  0  0  0
 25 18  1  0  0  0  0
 25 13  1  0  0  0  0
 27 26  1  0  0  0  0
 27 21  1  0  0  0  0
 28 27  2  0  0  0  0
 29 31  1  0  0  0  0
 30 32  1  0  0  0  0
 31 30  2  0  0  0  0
 31 28  1  0  0  0  0
 32 26  2  0  0  0  0
 33 34  1  0  0  0  0
 35 34  1  0  0  0  0
 35 36  1  0  0  0  0
 36 37  3  0  0  0  0
M  END
>  <MODEL>
5

>  <REMARK>
 VINA RESULT:      -8.4      1.870      2.739
  Name = 
  5 active torsions:
  status: ('A' for Active; 'I' for Inactive)
    1  A    between atoms: C_1  and  C_5
    2  A    between atoms: C_5  and  C_17
    3  A    between atoms: C_6  and  C_31
    4  A    between atoms: C_11  and  C_26
    5  A    between atoms: C_17  and  C_26
                            x       y       z     vdW  Elec       q    Type
                         _______ _______ _______ _____ _____    ______ ____

>  <TORSDO>
F 5

$$$$
=
 OpenBabel11052420073D

 37 45  0  0  1  0  0  0  0  0999 V2000
  190.9130  172.8180  141.1090 C   0  0  1  0  0  3  0  0  0  0  0  0
  195.2650  175.1510  144.3450 C   0  0  0  0  0  2  0  0  0  0  0  0
  190.9070  175.8390  145.2250 C   0  0  2  0  0  0  0  0  0  0  0  0
  188.1160  176.4360  143.1200 N   0  0  0  0  0  2  0  0  0  0  0  0
  193.0690  175.2080  145.6380 C   0  0  0  0  0  0  0  0  0  0  0  0
  189.8600  175.1710  144.3770 C   0  0  1  0  0  3  0  0  0  0  0  0
  193.2860  172.7540  140.8070 O   0  0  0  0  0  1  0  0  0  0  0  0
  192.2110  175.6750  144.6030 N   0  0  0  0  0  0  0  0  0  0  0  0
  188.4530  175.7700  144.3900 C   0  0  1  0  0  3  0  0  0  0  0  0
  192.3710  175.0750  146.8220 O   0  0  0  0  0  0  0  0  0  0  0  0
  192.0270  175.2490  143.2010 C   0  0  1  0  0  3  0  0  0  0  0  0
  193.9980  173.6290  143.2120 C   0  0  0  0  0  2  0  0  0  0  0  0
  189.7120  177.1240  147.4250 C   0  0  0  0  0  2  0  0  0  0  0  0
  192.2590  173.5200  141.3730 C   0  0  2  0  0  3  0  0  0  0  0  0
  190.9890  175.3740  146.6330 C   0  0  1  0  0  3  0  0  0  0  0  0
  192.5120  173.8110  142.8730 C   0  0  2  0  0  3  0  0  0  0  0  0
  188.2440  175.4520  142.0250 C   0  0  0  0  0  2  0  0  0  0  0  0
  190.7690  176.8940  146.3430 C   0  0  2  0  0  0  0  0  0  0  0  0
  190.5160  175.3980  143.0340 C   0  0  1  0  0  3  0  0  0  0  0  0
  194.3820  174.9730  145.5590 C   0  0  0  0  0  3  0  0  0  0  0  0
  188.2000  176.6190  145.6370 C   0  0  1  0  0  3  0  0  0  0  0  0
  194.6700  174.8550  143.1030 O   0  0  0  0  0  0  0  0  0  0  0  0
  189.6930  174.9360  141.8450 C   0  0  1  0  0  3  0  0  0  0  0  0
  189.6840  173.4130  141.8040 C   0  0  0  0  0  2  0  0  0  0  0  0
  189.3670  177.5300  146.0490 C   0  0  1  0  0  3  0  0  0  0  0  0
  185.7760  176.8240  146.3280 C   0  0  0  0  0  3  0  0  0  0  0  0
  186.8800  177.3300  145.6250 C   0  0  0  0  0  0  0  0  0  0  0  0
  186.7590  178.5320  144.9200 C   0  0  0  0  0  3  0  0  0  0  0  0
  185.4310  180.3840  144.2210 F   0  0  0  0  0  0  0  0  0  0  0  0
  184.4440  178.7120  145.6060 C   0  0  0  0  0  3  0  0  0  0  0  0
  185.5430  179.2210  144.9080 C   0  0  0  0  0  0  0  0  0  0  0  0
  184.5600  177.5150  146.3160 C   0  0  0  0  0  3  0  0  0  0  0  0
  190.6630  172.5850  139.6150 C   0  0  0  0  0  2  0  0  0  0  0  0
  190.0790  171.2100  139.3170 C   0  0  0  0  0  2  0  0  0  0  0  0
  191.1590  170.1520  139.4190 C   0  0  0  0  0  2  0  0  0  0  0  0
  190.9710  169.3740  140.6450 C   0  0  0  0  0  0  0  0  0  0  0  0
  190.8170  168.7350  141.6550 C   0  0  0  0  0  3  0  0  0  0  0  0
  1 33  1  6  0  0  0
  1 14  1  0  0  0  0
  1 24  1  0  0  0  0
  2 20  1  0  0  0  0
  3  8  1  6  0  0  0
  3 18  1  0  0  0  0
  3 15  1  0  0  0  0
  4  9  1  0  0  0  0
  5 10  1  0  0  0  0
  6  9  1  0  0  0  0
  6  3  1  0  0  0  0
  7 14  1  0  0  0  0
  8  5  1  0  0  0  0
  9 21  1  0  0  0  0
 11  8  1  0  0  0  0
 14 16  1  0  0  0  0
 15 10  1  0  0  0  0
 16 11  1  0  0  0  0
 16 12  1  0  0  0  0
 17  4  1  0  0  0  0
 18 15  1  0  0  0  0
 18 13  1  0  0  0  0
 19 11  1  0  0  0  0
 19  6  1  0  0  0  0
 20  5  2  0  0  0  0
 21 25  1  0  0  0  0
 22 12  1  0  0  0  0
 22  2  1  0  0  0  0
 23 17  1  0  0  0  0
 23 19  1  0  0  0  0
 24 23  1  0  0  0  0
 25 18  1  0  0  0  0
 25 13  1  0  0  0  0
 27 21  1  0  0  0  0
 27 26  2  0  0  0  0
 28 27  1  0  0  0  0
 29 31  1  0  0  0  0
 30 32  2  0  0  0  0
 31 28  2  0  0  0  0
 31 30  1  0  0  0  0
 32 26  1  0  0  0  0
 34 35  1  0  0  0  0
 34 33  1  0  0  0  0
 35 36  1  0  0  0  0
 36 37  3  0  0  0  0
M  END
>  <MODEL>
6

>  <REMARK>
 VINA RESULT:      -8.4      3.789      7.100
  Name = 
  5 active torsions:
  status: ('A' for Active; 'I' for Inactive)
    1  A    between atoms: C_1  and  C_5
    2  A    between atoms: C_5  and  C_17
    3  A    between atoms: C_6  and  C_31
    4  A    between atoms: C_11  and  C_26
    5  A    between atoms: C_17  and  C_26
                            x       y       z     vdW  Elec       q    Type
                         _______ _______ _______ _____ _____    ______ ____

>  <TORSDO>
F 5

$$$$
=
 OpenBabel11052420073D

 37 45  0  0  1  0  0  0  0  0999 V2000
  192.9570  173.5700  144.4910 C   0  0  1  0  0  3  0  0  0  0  0  0
  189.7900  171.6410  139.8970 C   0  0  0  0  0  2  0  0  0  0  0  0
  188.4410  174.9920  142.5800 C   0  0  2  0  0  0  0  0  0  0  0  0
  188.6150  175.4500  146.0920 N   0  0  0  0  0  2  0  0  0  0  0  0
  188.9950  173.9540  140.6150 C   0  0  0  0  0  0  0  0  0  0  0  0
  189.3300  175.4530  143.7020 C   0  0  1  0  0  3  0  0  0  0  0  0
  193.3350  171.7410  142.9960 O   0  0  0  0  0  1  0  0  0  0  0  0
  188.9660  173.7550  142.0240 N   0  0  0  0  0  0  0  0  0  0  0  0
  188.6770  176.2320  144.8450 C   0  0  1  0  0  3  0  0  0  0  0  0
  188.5380  175.2170  140.2950 O   0  0  0  0  0  0  0  0  0  0  0  0
  189.9500  173.1820  142.9640 C   0  0  1  0  0  3  0  0  0  0  0  0
  191.5500  172.3920  141.1410 C   0  0  0  0  0  2  0  0  0  0  0  0
  186.2280  176.7100  142.3130 C   0  0  0  0  0  2  0  0  0  0  0  0
  192.3200  172.5300  143.5500 C   0  0  2  0  0  3  0  0  0  0  0  0
  188.2430  175.9640  141.4750 C   0  0  1  0  0  3  0  0  0  0  0  0
  191.4190  173.1630  142.4610 C   0  0  2  0  0  3  0  0  0  0  0  0
  189.9870  175.0490  146.4640 C   0  0  0  0  0  2  0  0  0  0  0  0
  186.9950  175.3890  142.2180 C   0  0  2  0  0  0  0  0  0  0  0  0
  189.7710  174.0880  144.1810 C   0  0  1  0  0  3  0  0  0  0  0  0
  189.3440  173.0690  139.6770 C   0  0  0  0  0  3  0  0  0  0  0  0
  187.3480  176.8630  144.4260 C   0  0  1  0  0  3  0  0  0  0  0  0
  190.5540  171.4070  141.0580 O   0  0  0  0  0  0  0  0  0  0  0  0
  190.6430  174.1070  145.4230 C   0  0  1  0  0  3  0  0  0  0  0  0
  192.0210  174.6420  145.0590 C   0  0  0  0  0  2  0  0  0  0  0  0
  186.4440  175.9630  143.5690 C   0  0  1  0  0  3  0  0  0  0  0  0
  187.2530  177.8090  146.7700 C   0  0  0  0  0  3  0  0  0  0  0  0
  186.6140  177.5250  145.5530 C   0  0  0  0  0  0  0  0  0  0  0  0
  185.2750  177.8900  145.3730 C   0  0  0  0  0  3  0  0  0  0  0  0
  183.2770  178.8720  146.2260 F   0  0  0  0  0  0  0  0  0  0  0  0
  185.2120  178.8010  147.6160 C   0  0  0  0  0  3  0  0  0  0  0  0
  184.5750  178.5240  146.4030 C   0  0  0  0  0  0  0  0  0  0  0  0
  186.5510  178.4440  147.7990 C   0  0  0  0  0  3  0  0  0  0  0  0
  193.8040  172.9170  145.5900 C   0  0  0  0  0  2  0  0  0  0  0  0
  195.2940  173.1920  145.4340 C   0  0  0  0  0  2  0  0  0  0  0  0
  195.5990  174.6320  145.7940 C   0  0  0  0  0  2  0  0  0  0  0  0
  196.0990  175.3380  144.6140 C   0  0  0  0  0  0  0  0  0  0  0  0
  196.5110  175.9220  143.6430 C   0  0  0  0  0  3  0  0  0  0  0  0
  1 24  1  0  0  0  0
  1 33  1  1  0  0  0
  2 22  1  0  0  0  0
  3  8  1  6  0  0  0
  3  6  1  0  0  0  0
  4 17  1  0  0  0  0
  5  8  1  0  0  0  0
  6 19  1  0  0  0  0
  6  9  1  0  0  0  0
  7 14  1  0  0  0  0
  8 11  1  0  0  0  0
  9  4  1  0  0  0  0
 10  5  1  0  0  0  0
 10 15  1  0  0  0  0
 11 19  1  0  0  0  0
 12 16  1  0  0  0  0
 13 25  1  0  0  0  0
 14  1  1  0  0  0  0
 15 18  1  0  0  0  0
 15  3  1  0  0  0  0
 16 11  1  0  0  0  0
 16 14  1  0  0  0  0
 18 13  1  0  0  0  0
 18  3  1  0  0  0  0
 18 25  1  0  0  0  0
 19 23  1  0  0  0  0
 20  2  1  0  0  0  0
 20  5  2  0  0  0  0
 21  9  1  0  0  0  0
 21 27  1  0  0  0  0
 22 12  1  0  0  0  0
 23 17  1  0  0  0  0
 24 23  1  0  0  0  0
 25 21  1  0  0  0  0
 26 32  1  0  0  0  0
 27 26  2  0  0  0  0
 28 27  1  0  0  0  0
 28 31  2  0  0  0  0
 29 31  1  0  0  0  0
 30 32  2  0  0  0  0
 31 30  1  0  0  0  0
 34 33  1  0  0  0  0
 34 35  1  0  0  0  0
 36 35  1  0  0  0  0
 37 36  3  0  0  0  0
M  END
>  <MODEL>
7

>  <REMARK>
 VINA RESULT:      -8.2      3.636      8.171
  Name = 
  5 active torsions:
  status: ('A' for Active; 'I' for Inactive)
    1  A    between atoms: C_1  and  C_5
    2  A    between atoms: C_5  and  C_17
    3  A    between atoms: C_6  and  C_31
    4  A    between atoms: C_11  and  C_26
    5  A    between atoms: C_17  and  C_26
                            x       y       z     vdW  Elec       q    Type
                         _______ _______ _______ _____ _____    ______ ____

>  <TORSDO>
F 5

$$$$
=
 OpenBabel11052420073D

 37 45  0  0  1  0  0  0  0  0999 V2000
  187.6520  177.4410  143.8810 C   0  0  1  0  0  3  0  0  0  0  0  0
  191.3650  175.2910  147.9360 C   0  0  0  0  0  2  0  0  0  0  0  0
  191.6170  174.2400  143.5690 C   0  0  2  0  0  0  0  0  0  0  0  0
  189.1310  173.5360  141.1400 N   0  0  0  0  0  2  0  0  0  0  0  0
  192.3430  175.0110  145.5990 C   0  0  0  0  0  0  0  0  0  0  0  0
  190.6590  174.8670  142.5940 C   0  0  1  0  0  3  0  0  0  0  0  0
  187.6780  177.6950  146.2600 O   0  0  0  0  0  1  0  0  0  0  0  0
  191.1850  174.5300  144.9270 N   0  0  0  0  0  0  0  0  0  0  0  0
  190.4590  174.1650  141.2500 C   0  0  1  0  0  3  0  0  0  0  0  0
  193.4250  175.0370  144.7420 O   0  0  0  0  0  0  0  0  0  0  0  0
  189.7880  175.0050  144.8980 C   0  0  1  0  0  3  0  0  0  0  0  0
  190.1240  176.7650  146.7130 C   0  0  0  0  0  2  0  0  0  0  0  0
  193.5870  172.7700  142.1990 C   0  0  0  0  0  2  0  0  0  0  0  0
  188.0710  176.8300  145.2310 C   0  0  2  0  0  3  0  0  0  0  0  0
  193.0390  174.6440  143.4250 C   0  0  1  0  0  3  0  0  0  0  0  0
  189.5790  176.4890  145.3050 C   0  0  2  0  0  3  0  0  0  0  0  0
  188.1010  174.5760  141.3330 C   0  0  0  0  0  2  0  0  0  0  0  0
  192.6680  173.1280  143.3680 C   0  0  2  0  0  0  0  0  0  0  0  0
  189.4110  174.7520  143.4390 C   0  0  1  0  0  3  0  0  0  0  0  0
  192.4530  175.3470  146.8880 C   0  0  0  0  0  3  0  0  0  0  0  0
  191.6280  173.2420  140.9020 C   0  0  1  0  0  3  0  0  0  0  0  0
  190.0640  175.5980  147.4900 O   0  0  0  0  0  0  0  0  0  0  0  0
  188.1380  175.2060  142.7470 C   0  0  1  0  0  3  0  0  0  0  0  0
  188.1500  176.7240  142.6220 C   0  0  0  0  0  2  0  0  0  0  0  0
  192.1620  172.4030  142.0730 C   0  0  1  0  0  3  0  0  0  0  0  0
  191.2350  171.0460  139.7110 C   0  0  0  0  0  3  0  0  0  0  0  0
  191.4110  172.4370  139.6570 C   0  0  0  0  0  0  0  0  0  0  0  0
  191.3560  173.0940  138.4220 C   0  0  0  0  0  3  0  0  0  0  0  0
  191.0890  173.0060  136.0550 F   0  0  0  0  0  0  0  0  0  0  0  0
  190.9670  170.9800  137.3060 C   0  0  0  0  0  3  0  0  0  0  0  0
  191.1370  172.3660  137.2490 C   0  0  0  0  0  0  0  0  0  0  0  0
  191.0150  170.3200  138.5370 C   0  0  0  0  0  3  0  0  0  0  0  0
  186.1460  177.7230  143.8140 C   0  0  0  0  0  2  0  0  0  0  0  0
  185.8170  179.2090  143.8680 C   0  0  0  0  0  2  0  0  0  0  0  0
  184.4420  179.4160  144.4700 C   0  0  0  0  0  2  0  0  0  0  0  0
  184.3870  178.7980  145.7950 C   0  0  0  0  0  0  0  0  0  0  0  0
  184.3440  178.2910  146.8880 C   0  0  0  0  0  3  0  0  0  0  0  0
  1 33  1  6  0  0  0
  1 14  1  0  0  0  0
  3  8  1  1  0  0  0
  4  9  1  0  0  0  0
  4 17  1  0  0  0  0
  5 20  2  0  0  0  0
  6 19  1  0  0  0  0
  6  3  1  0  0  0  0
  8  5  1  0  0  0  0
  9  6  1  0  0  0  0
 10  5  1  0  0  0  0
 11  8  1  0  0  0  0
 11 16  1  0  0  0  0
 12 22  1  0  0  0  0
 13 18  1  0  0  0  0
 14 16  1  0  0  0  0
 14  7  1  0  0  0  0
 15  3  1  0  0  0  0
 15 10  1  0  0  0  0
 16 12  1  0  0  0  0
 17 23  1  0  0  0  0
 18 15  1  0  0  0  0
 18  3  1  0  0  0  0
 19 11  1  0  0  0  0
 20  2  1  0  0  0  0
 21  9  1  0  0  0  0
 21 25  1  0  0  0  0
 22  2  1  0  0  0  0
 23 19  1  0  0  0  0
 24 23  1  0  0  0  0
 24  1  1  0  0  0  0
 25 13  1  0  0  0  0
 25 18  1  0  0  0  0
 27 26  1  0  0  0  0
 27 21  1  0  0  0  0
 28 27  2  0  0  0  0
 29 31  1  0  0  0  0
 30 32  1  0  0  0  0
 31 30  2  0  0  0  0
 31 28  1  0  0  0  0
 32 26  2  0  0  0  0
 33 34  1  0  0  0  0
 34 35  1  0  0  0  0
 35 36  1  0  0  0  0
 36 37  3  0  0  0  0
M  END
>  <MODEL>
8

>  <REMARK>
 VINA RESULT:      -8.2      2.939      5.800
  Name = 
  5 active torsions:
  status: ('A' for Active; 'I' for Inactive)
    1  A    between atoms: C_1  and  C_5
    2  A    between atoms: C_5  and  C_17
    3  A    between atoms: C_6  and  C_31
    4  A    between atoms: C_11  and  C_26
    5  A    between atoms: C_17  and  C_26
                            x       y       z     vdW  Elec       q    Type
                         _______ _______ _______ _____ _____    ______ ____

>  <TORSDO>
F 5

$$$$
=
 OpenBabel11052420073D

 37 45  0  0  1  0  0  0  0  0999 V2000
  187.8660  176.5040  145.6580 C   0  0  1  0  0  3  0  0  0  0  0  0
  187.5640  175.7810  139.8070 C   0  0  0  0  0  2  0  0  0  0  0  0
  190.9940  174.2710  142.2960 C   0  0  2  0  0  0  0  0  0  0  0  0
  192.7540  175.6810  145.0340 N   0  0  0  0  0  2  0  0  0  0  0  0
  189.2510  174.1590  140.8160 C   0  0  0  0  0  0  0  0  0  0  0  0
  190.9720  174.4580  143.7890 C   0  0  1  0  0  3  0  0  0  0  0  0
  186.2700  177.3100  144.0690 O   0  0  0  0  0  1  0  0  0  0  0  0
  189.9250  175.0520  141.6950 N   0  0  0  0  0  0  0  0  0  0  0  0
  192.3060  174.3710  144.5310 C   0  0  1  0  0  3  0  0  0  0  0  0
  189.8330  172.9080  140.8580 O   0  0  0  0  0  0  0  0  0  0  0  0
  189.4290  176.0330  142.6810 C   0  0  1  0  0  3  0  0  0  0  0  0
  186.9800  175.7870  142.0130 C   0  0  0  0  0  2  0  0  0  0  0  0
  193.1640  172.6450  141.5450 C   0  0  0  0  0  2  0  0  0  0  0  0
  187.6050  176.9090  144.1950 C   0  0  2  0  0  3  0  0  0  0  0  0
  190.8850  172.8690  141.8210 C   0  0  1  0  0  3  0  0  0  0  0  0
  187.9770  175.8020  143.1790 C   0  0  2  0  0  3  0  0  0  0  0  0
  191.7070  176.2260  145.9230 C   0  0  0  0  0  2  0  0  0  0  0  0
  192.1050  173.7350  141.3690 C   0  0  2  0  0  0  0  0  0  0  0  0
  190.4530  175.8780  143.8050 C   0  0  1  0  0  3  0  0  0  0  0  0
  188.2350  174.4400  139.9940 C   0  0  0  0  0  3  0  0  0  0  0  0
  193.3610  173.6050  143.7310 C   0  0  1  0  0  3  0  0  0  0  0  0
  187.4580  176.5830  140.9610 O   0  0  0  0  0  0  0  0  0  0  0  0
  190.3750  176.5050  145.1850 C   0  0  1  0  0  3  0  0  0  0  0  0
  189.2280  175.8690  145.9600 C   0  0  0  0  0  2  0  0  0  0  0  0
  193.4000  173.9310  142.2300 C   0  0  1  0  0  3  0  0  0  0  0  0
  195.0220  172.7610  145.4420 C   0  0  0  0  0  3  0  0  0  0  0  0
  194.7190  173.6090  144.3660 C   0  0  0  0  0  0  0  0  0  0  0  0
  195.7080  174.4570  143.8550 C   0  0  0  0  0  3  0  0  0  0  0  0
  197.9400  175.2910  143.9230 F   0  0  0  0  0  0  0  0  0  0  0  0
  197.2830  173.6230  145.4940 C   0  0  0  0  0  3  0  0  0  0  0  0
  196.9870  174.4660  144.4190 C   0  0  0  0  0  0  0  0  0  0  0  0
  196.3010  172.7700  146.0050 C   0  0  0  0  0  3  0  0  0  0  0  0
  187.5380  177.6340  146.6420 C   0  0  0  0  0  2  0  0  0  0  0  0
  186.2990  177.3510  147.4810 C   0  0  0  0  0  2  0  0  0  0  0  0
  185.4860  178.6180  147.6520 C   0  0  0  0  0  2  0  0  0  0  0  0
  184.5480  178.7540  146.5370 C   0  0  0  0  0  0  0  0  0  0  0  0
  183.7730  178.8650  145.6200 C   0  0  0  0  0  3  0  0  0  0  0  0
  1 24  1  0  0  0  0
  1 33  1  1  0  0  0
  2 20  1  0  0  0  0
  2 22  1  0  0  0  0
  3  8  1  6  0  0  0
  3  6  1  0  0  0  0
  4 17  1  0  0  0  0
  5 10  1  0  0  0  0
  5  8  1  0  0  0  0
  6 19  1  0  0  0  0
  6  9  1  0  0  0  0
  7 14  1  0  0  0  0
  8 11  1  0  0  0  0
  9  4  1  0  0  0  0
 10 15  1  0  0  0  0
 11 16  1  0  0  0  0
 11 19  1  0  0  0  0
 12 16  1  0  0  0  0
 13 25  1  0  0  0  0
 14  1  1  0  0  0  0
 15  3  1  0  0  0  0
 16 14  1  0  0  0  0
 18 13  1  0  0  0  0
 18 15  1  0  0  0  0
 18 25  1  0  0  0  0
 18  3  1  0  0  0  0
 19 23  1  0  0  0  0
 20  5  2  0  0  0  0
 21 27  1  0  0  0  0
 21  9  1  0  0  0  0
 22 12  1  0  0  0  0
 23 17  1  0  0  0  0
 23 24  1  0  0  0  0
 25 21  1  0  0  0  0
 26 32  1  0  0  0  0
 27 26  2  0  0  0  0
 28 27  1  0  0  0  0
 28 31  2  0  0  0  0
 29 31  1  0  0  0  0
 30 32  2  0  0  0  0
 31 30  1  0  0  0  0
 33 34  1  0  0  0  0
 34 35  1  0  0  0  0
 36 35  1  0  0  0  0
 37 36  3  0  0  0  0
M  END
>  <MODEL>
9

>  <REMARK>
 VINA RESULT:      -8.0      2.608      5.868
  Name = 
  5 active torsions:
  status: ('A' for Active; 'I' for Inactive)
    1  A    between atoms: C_1  and  C_5
    2  A    between atoms: C_5  and  C_17
    3  A    between atoms: C_6  and  C_31
    4  A    between atoms: C_11  and  C_26
    5  A    between atoms: C_17  and  C_26
                            x       y       z     vdW  Elec       q    Type
                         _______ _______ _______ _____ _____    ______ ____

>  <TORSDO>
F 5

$$$$
