=
 OpenBabel11052418043D

 28 31  0  0  1  0  0  0  0  0999 V2000
  188.2480  174.9190  140.4550 C   0  0  0  0  0  1  0  0  0  0  0  0
  189.3730  176.6190  143.6380 C   0  0  1  0  0  3  0  0  0  0  0  0
  187.4160  177.1920  141.7810 C   0  0  2  0  0  0  0  0  0  0  0  0
  187.9540  176.4010  144.1750 C   0  0  0  0  0  2  0  0  0  0  0  0
  186.5470  177.2470  140.7020 C   0  0  0  0  0  0  0  0  0  0  0  0
  188.6160  178.1420  141.7590 C   0  0  0  0  0  2  0  0  0  0  0  0
  187.5890  176.1370  140.8870 N   0  0  0  0  0  0  0  0  0  0  0  0
  189.5010  178.0050  143.0040 C   0  0  0  0  0  2  0  0  0  0  0  0
  185.6150  177.7860  140.0510 O   0  0  0  0  0  0  0  0  0  0  0  0
  186.8620  176.6990  143.1290 C   0  0  1  0  0  3  0  0  0  0  0  0
  190.1800  177.1020  145.9430 C   0  0  0  0  0  2  0  0  0  0  0  0
  192.2810  174.9900  145.6440 C   0  0  0  0  0  2  0  0  0  0  0  0
  191.9960  175.7100  146.9710 C   0  0  2  0  0  3  0  0  0  0  0  0
  190.3790  176.4090  144.6760 N   0  0  0  0  0  0  0  0  0  0  0  0
  191.9160  175.2750  143.3130 O   0  0  0  0  0  0  0  0  0  0  0  0
  191.5440  175.5820  144.4760 C   0  0  0  0  0  0  0  0  0  0  0  0
  190.5540  176.2050  147.1140 C   0  0  0  0  0  2  0  0  0  0  0  0
  194.1140  176.2880  146.8050 O   0  0  0  0  0  1  0  0  0  0  0  0
  192.9600  176.6800  147.3150 O   0  0  0  0  0  0  0  0  0  0  0  0
  185.7450  177.5870  143.6950 C   0  0  0  0  0  2  0  0  0  0  0  0
  185.7960  177.7490  145.1860 C   0  0  0  0  0  0  0  0  0  0  0  0
  185.7380  176.6140  146.0010 C   0  0  0  0  0  3  0  0  0  0  0  0
  185.9370  179.1460  147.1660 C   0  0  0  0  0  0  0  0  0  0  0  0
  185.7870  176.7420  147.3920 C   0  0  0  0  0  3  0  0  0  0  0  0
  185.9050  180.1370  145.0010 F   0  0  0  0  0  0  0  0  0  0  0  0
  185.8840  179.0220  145.7730 C   0  0  0  0  0  0  0  0  0  0  0  0
  186.0280  180.3720  147.7390 F   0  0  0  0  0  0  0  0  0  0  0  0
  185.8890  178.0070  147.9740 C   0  0  0  0  0  3  0  0  0  0  0  0
  1  7  1  0  0  0  0
  2  8  1  1  0  0  0
  2  4  1  0  0  0  0
  2 14  1  0  0  0  0
  3  6  1  1  0  0  0
  3 10  1  0  0  0  0
  5  7  1  0  0  0  0
  5  3  1  0  0  0  0
  6  8  1  0  0  0  0
  7  3  1  0  0  0  0
  9  5  2  0  0  0  0
 10 20  1  1  0  0  0
 10  4  1  0  0  0  0
 11 17  1  0  0  0  0
 12 13  1  0  0  0  0
 13 17  1  0  0  0  0
 13 19  1  6  0  0  0
 14 11  1  0  0  0  0
 15 16  2  0  0  0  0
 16 14  1  0  0  0  0
 16 12  1  0  0  0  0
 18 19  1  0  0  0  0
 20 21  1  0  0  0  0
 21 26  2  0  0  0  0
 21 22  1  0  0  0  0
 22 24  2  0  0  0  0
 23 27  1  0  0  0  0
 23 28  2  0  0  0  0
 24 28  1  0  0  0  0
 25 26  1  0  0  0  0
 26 23  1  0  0  0  0
M  END
>  <MODEL>
1

>  <REMARK>
 VINA RESULT:      -8.3      0.000      0.000
  Name = 
  4 active torsions:
  status: ('A' for Active; 'I' for Inactive)
    1  A    between atoms: C_1  and  C_2
    2  A    between atoms: C_1  and  C_27
    3  A    between atoms: C_10  and  N_13
    4  A    between atoms: C_12  and  O_23
                            x       y       z     vdW  Elec       q    Type
                         _______ _______ _______ _____ _____    ______ ____

>  <TORSDO>
F 4

$$$$
=
 OpenBabel11052418043D

 28 31  0  0  1  0  0  0  0  0999 V2000
  184.3890  177.8010  141.6190 C   0  0  0  0  0  1  0  0  0  0  0  0
  187.7190  176.1170  142.2170 C   0  0  1  0  0  3  0  0  0  0  0  0
  186.5400  178.3880  143.2450 C   0  0  2  0  0  0  0  0  0  0  0  0
  187.3020  175.9640  143.6840 C   0  0  0  0  0  2  0  0  0  0  0  0
  185.7330  179.4680  143.5650 C   0  0  0  0  0  0  0  0  0  0  0  0
  187.7120  178.6490  142.2970 C   0  0  0  0  0  2  0  0  0  0  0  0
  185.3260  178.3830  142.5610 N   0  0  0  0  0  0  0  0  0  0  0  0
  188.5430  177.3900  142.0220 C   0  0  0  0  0  2  0  0  0  0  0  0
  185.4970  180.5330  144.1920 O   0  0  0  0  0  0  0  0  0  0  0  0
  186.6210  177.2260  144.2510 C   0  0  1  0  0  3  0  0  0  0  0  0
  189.3060  174.2560  142.6850 C   0  0  0  0  0  2  0  0  0  0  0  0
  188.6430  173.0320  140.0340 C   0  0  0  0  0  2  0  0  0  0  0  0
  189.5130  172.3320  141.0890 C   0  0  2  0  0  3  0  0  0  0  0  0
  188.4340  174.9370  141.7360 N   0  0  0  0  0  0  0  0  0  0  0  0
  187.8780  175.2110  139.4730 O   0  0  0  0  0  0  0  0  0  0  0  0
  188.3230  174.4590  140.3790 C   0  0  0  0  0  0  0  0  0  0  0  0
  189.2000  172.7460  142.5300 C   0  0  0  0  0  2  0  0  0  0  0  0
  191.0100  172.3370  139.4750 O   0  0  0  0  0  1  0  0  0  0  0  0
  190.8910  172.3360  140.7900 O   0  0  0  0  0  0  0  0  0  0  0  0
  187.1990  177.6330  145.6130 C   0  0  0  0  0  2  0  0  0  0  0  0
  188.3870  176.8190  146.0360 C   0  0  0  0  0  0  0  0  0  0  0  0
  188.1960  175.7000  146.8540 C   0  0  0  0  0  3  0  0  0  0  0  0
  190.7770  176.3940  146.0370 C   0  0  0  0  0  0  0  0  0  0  0  0
  189.2880  174.9260  147.2560 C   0  0  0  0  0  3  0  0  0  0  0  0
  189.8970  178.2750  144.8740 F   0  0  0  0  0  0  0  0  0  0  0  0
  189.6870  177.1740  145.6360 C   0  0  0  0  0  0  0  0  0  0  0  0
  192.0340  176.7260  145.6510 F   0  0  0  0  0  0  0  0  0  0  0  0
  190.5780  175.2710  146.8460 C   0  0  0  0  0  3  0  0  0  0  0  0
  1  7  1  0  0  0  0
  2 14  1  1  0  0  0
  2  4  1  0  0  0  0
  3  6  1  6  0  0  0
  3  5  1  0  0  0  0
  3 10  1  0  0  0  0
  4 10  1  0  0  0  0
  5  9  2  0  0  0  0
  7  3  1  0  0  0  0
  7  5  1  0  0  0  0
  8  2  1  0  0  0  0
  8  6  1  0  0  0  0
 10 20  1  1  0  0  0
 12 16  1  0  0  0  0
 12 13  1  0  0  0  0
 13 19  1  6  0  0  0
 13 17  1  0  0  0  0
 14 11  1  0  0  0  0
 15 16  2  0  0  0  0
 16 14  1  0  0  0  0
 17 11  1  0  0  0  0
 18 19  1  0  0  0  0
 20 21  1  0  0  0  0
 21 22  1  0  0  0  0
 22 24  2  0  0  0  0
 23 28  2  0  0  0  0
 25 26  1  0  0  0  0
 26 21  2  0  0  0  0
 26 23  1  0  0  0  0
 27 23  1  0  0  0  0
 28 24  1  0  0  0  0
M  END
>  <MODEL>
2

>  <REMARK>
 VINA RESULT:      -8.0      3.146      4.842
  Name = 
  4 active torsions:
  status: ('A' for Active; 'I' for Inactive)
    1  A    between atoms: C_1  and  C_2
    2  A    between atoms: C_1  and  C_27
    3  A    between atoms: C_10  and  N_13
    4  A    between atoms: C_12  and  O_23
                            x       y       z     vdW  Elec       q    Type
                         _______ _______ _______ _____ _____    ______ ____

>  <TORSDO>
F 4

$$$$
=
 OpenBabel11052418043D

 28 31  0  0  1  0  0  0  0  0999 V2000
  188.6650  174.9910  141.6160 C   0  0  0  0  0  1  0  0  0  0  0  0
  191.3030  176.2660  144.0040 C   0  0  1  0  0  3  0  0  0  0  0  0
  188.9830  177.3610  142.9940 C   0  0  2  0  0  0  0  0  0  0  0  0
  190.1940  176.3940  145.0540 C   0  0  0  0  0  2  0  0  0  0  0  0
  187.8060  177.6620  142.3250 C   0  0  0  0  0  0  0  0  0  0  0  0
  190.2710  177.9820  142.4510 C   0  0  0  0  0  2  0  0  0  0  0  0
  188.5380  176.3220  142.1790 N   0  0  0  0  0  0  0  0  0  0  0  0
  191.5070  177.5930  143.2720 C   0  0  0  0  0  2  0  0  0  0  0  0
  186.8540  178.4340  142.0410 O   0  0  0  0  0  0  0  0  0  0  0  0
  188.8900  176.9840  144.4830 C   0  0  1  0  0  3  0  0  0  0  0  0
  193.5260  176.7870  144.9970 C   0  0  0  0  0  2  0  0  0  0  0  0
  193.8480  173.9120  145.7700 C   0  0  0  0  0  2  0  0  0  0  0  0
  194.8200  175.0160  146.2140 C   0  0  2  0  0  3  0  0  0  0  0  0
  192.5490  175.7820  144.5940 N   0  0  0  0  0  0  0  0  0  0  0  0
  192.1950  173.5140  144.1090 O   0  0  0  0  0  0  0  0  0  0  0  0
  192.8400  174.3790  144.7570 C   0  0  0  0  0  0  0  0  0  0  0  0
  194.1820  176.4040  146.3160 C   0  0  0  0  0  2  0  0  0  0  0  0
  196.7430  173.9760  145.9570 O   0  0  0  0  0  1  0  0  0  0  0  0
  196.0480  175.0110  145.5210 O   0  0  0  0  0  0  0  0  0  0  0  0
  188.3260  178.1060  145.3660 C   0  0  0  0  0  2  0  0  0  0  0  0
  186.9110  177.8760  145.8090 C   0  0  0  0  0  0  0  0  0  0  0  0
  186.6130  176.7580  146.5960 C   0  0  0  0  0  3  0  0  0  0  0  0
  184.5720  178.5220  145.8660 C   0  0  0  0  0  0  0  0  0  0  0  0
  185.3020  176.5260  147.0220 C   0  0  0  0  0  3  0  0  0  0  0  0
  186.1440  179.8240  144.6410 F   0  0  0  0  0  0  0  0  0  0  0  0
  185.8820  178.7550  145.4330 C   0  0  0  0  0  0  0  0  0  0  0  0
  183.5750  179.3700  145.5110 F   0  0  0  0  0  0  0  0  0  0  0  0
  184.2830  177.4090  146.6600 C   0  0  0  0  0  3  0  0  0  0  0  0
  1  7  1  0  0  0  0
  2  8  1  1  0  0  0
  2 14  1  0  0  0  0
  2  4  1  0  0  0  0
  3  6  1  6  0  0  0
  3 10  1  0  0  0  0
  5  3  1  0  0  0  0
  6  8  1  0  0  0  0
  7  5  1  0  0  0  0
  7  3  1  0  0  0  0
  9  5  2  0  0  0  0
 10  4  1  0  0  0  0
 10 20  1  1  0  0  0
 11 17  1  0  0  0  0
 12 13  1  0  0  0  0
 13 19  1  6  0  0  0
 13 17  1  0  0  0  0
 14 16  1  0  0  0  0
 14 11  1  0  0  0  0
 15 16  2  0  0  0  0
 16 12  1  0  0  0  0
 19 18  1  0  0  0  0
 20 21  1  0  0  0  0
 21 22  1  0  0  0  0
 22 24  2  0  0  0  0
 23 28  2  0  0  0  0
 25 26  1  0  0  0  0
 26 21  2  0  0  0  0
 26 23  1  0  0  0  0
 27 23  1  0  0  0  0
 28 24  1  0  0  0  0
M  END
>  <MODEL>
3

>  <REMARK>
 VINA RESULT:      -7.8      1.803      2.353
  Name = 
  4 active torsions:
  status: ('A' for Active; 'I' for Inactive)
    1  A    between atoms: C_1  and  C_2
    2  A    between atoms: C_1  and  C_27
    3  A    between atoms: C_10  and  N_13
    4  A    between atoms: C_12  and  O_23
                            x       y       z     vdW  Elec       q    Type
                         _______ _______ _______ _____ _____    ______ ____

>  <TORSDO>
F 4

$$$$
=
 OpenBabel11052418043D

 28 31  0  0  1  0  0  0  0  0999 V2000
  191.4230  177.4680  148.7660 C   0  0  0  0  0  1  0  0  0  0  0  0
  188.6350  177.1770  146.2320 C   0  0  1  0  0  3  0  0  0  0  0  0
  191.1900  176.1480  146.3540 C   0  0  2  0  0  0  0  0  0  0  0  0
  188.6610  175.6640  146.4770 C   0  0  0  0  0  2  0  0  0  0  0  0
  192.4960  175.7970  146.6610 C   0  0  0  0  0  0  0  0  0  0  0  0
  190.9920  177.2440  145.3040 C   0  0  0  0  0  2  0  0  0  0  0  0
  191.6270  176.6810  147.5650 N   0  0  0  0  0  0  0  0  0  0  0  0
  189.5120  177.5430  145.0340 C   0  0  0  0  0  2  0  0  0  0  0  0
  193.5780  175.2090  146.4070 O   0  0  0  0  0  0  0  0  0  0  0  0
  190.0900  175.0950  146.5690 C   0  0  1  0  0  3  0  0  0  0  0  0
  186.6840  177.5720  144.7360 C   0  0  0  0  0  2  0  0  0  0  0  0
  185.0180  178.3090  147.1130 C   0  0  0  0  0  2  0  0  0  0  0  0
  184.4380  178.1400  145.7000 C   0  0  2  0  0  3  0  0  0  0  0  0
  187.2700  177.6720  146.0670 N   0  0  0  0  0  0  0  0  0  0  0  0
  187.1100  178.6780  148.1800 O   0  0  0  0  0  0  0  0  0  0  0  0
  186.5200  178.2630  147.1490 C   0  0  0  0  0  0  0  0  0  0  0  0
  185.2210  177.1610  144.8190 C   0  0  0  0  0  2  0  0  0  0  0  0
  183.5930  179.0600  143.8890 O   0  0  0  0  0  1  0  0  0  0  0  0
  184.1330  179.3560  145.0560 O   0  0  0  0  0  0  0  0  0  0  0  0
  190.2680  173.8370  145.7070 C   0  0  0  0  0  2  0  0  0  0  0  0
  190.1240  174.0860  144.2340 C   0  0  0  0  0  0  0  0  0  0  0  0
  188.8480  174.2740  143.6920 C   0  0  0  0  0  3  0  0  0  0  0  0
  191.0870  174.3580  142.0220 C   0  0  0  0  0  0  0  0  0  0  0  0
  188.6910  174.5100  142.3240 C   0  0  0  0  0  3  0  0  0  0  0  0
  192.4900  173.9000  143.8910 F   0  0  0  0  0  0  0  0  0  0  0  0
  191.2480  174.1160  143.3910 C   0  0  0  0  0  0  0  0  0  0  0  0
  192.1680  174.3940  141.2040 F   0  0  0  0  0  0  0  0  0  0  0  0
  189.8100  174.5550  141.4900 C   0  0  0  0  0  3  0  0  0  0  0  0
  2  8  1  6  0  0  0
  2  4  1  0  0  0  0
  3  6  1  6  0  0  0
  3 10  1  0  0  0  0
  3  5  1  0  0  0  0
  3  7  1  0  0  0  0
  4 10  1  0  0  0  0
  5  7  1  0  0  0  0
  7  1  1  0  0  0  0
  8  6  1  0  0  0  0
  9  5  2  0  0  0  0
 10 20  1  6  0  0  0
 11 17  1  0  0  0  0
 11 14  1  0  0  0  0
 12 16  1  0  0  0  0
 13 19  1  6  0  0  0
 13 12  1  0  0  0  0
 14  2  1  0  0  0  0
 14 16  1  0  0  0  0
 16 15  2  0  0  0  0
 17 13  1  0  0  0  0
 18 19  1  0  0  0  0
 21 20  1  0  0  0  0
 22 21  1  0  0  0  0
 23 26  1  0  0  0  0
 24 22  2  0  0  0  0
 26 25  1  0  0  0  0
 26 21  2  0  0  0  0
 27 23  1  0  0  0  0
 28 23  2  0  0  0  0
 28 24  1  0  0  0  0
M  END
>  <MODEL>
4

>  <REMARK>
 VINA RESULT:      -7.6      3.496      7.247
  Name = 
  4 active torsions:
  status: ('A' for Active; 'I' for Inactive)
    1  A    between atoms: C_1  and  C_2
    2  A    between atoms: C_1  and  C_27
    3  A    between atoms: C_10  and  N_13
    4  A    between atoms: C_12  and  O_23
                            x       y       z     vdW  Elec       q    Type
                         _______ _______ _______ _____ _____    ______ ____

>  <TORSDO>
F 4

$$$$
=
 OpenBabel11052418043D

 28 31  0  0  1  0  0  0  0  0999 V2000
  191.7910  177.6260  143.9290 C   0  0  0  0  0  1  0  0  0  0  0  0
  189.8680  174.6130  142.7020 C   0  0  1  0  0  3  0  0  0  0  0  0
  189.7720  176.0960  145.0240 C   0  0  2  0  0  0  0  0  0  0  0  0
  188.5960  175.4610  142.8190 C   0  0  0  0  0  2  0  0  0  0  0  0
  189.9570  176.9830  146.0740 C   0  0  0  0  0  0  0  0  0  0  0  0
  190.3620  174.6930  145.1850 C   0  0  0  0  0  2  0  0  0  0  0  0
  190.7670  177.0380  144.7730 N   0  0  0  0  0  0  0  0  0  0  0  0
  190.0880  173.7940  143.9740 C   0  0  0  0  0  2  0  0  0  0  0  0
  189.6830  177.4220  147.2200 O   0  0  0  0  0  0  0  0  0  0  0  0
  188.5550  176.3070  144.1070 C   0  0  1  0  0  3  0  0  0  0  0  0
  188.6800  172.8910  141.3510 C   0  0  0  0  0  2  0  0  0  0  0  0
  190.6630  173.2680  139.1390 C   0  0  0  0  0  2  0  0  0  0  0  0
  189.4000  172.4040  138.9970 C   0  0  2  0  0  3  0  0  0  0  0  0
  189.8380  173.7620  141.5140 N   0  0  0  0  0  0  0  0  0  0  0  0
  192.0420  174.1960  140.8370 O   0  0  0  0  0  0  0  0  0  0  0  0
  190.9060  173.7410  140.5440 C   0  0  0  0  0  0  0  0  0  0  0  0
  188.2400  172.8460  139.8940 C   0  0  0  0  0  2  0  0  0  0  0  0
  189.7210  170.5910  137.7920 O   0  0  0  0  0  1  0  0  0  0  0  0
  189.6470  171.0170  139.0400 O   0  0  0  0  0  0  0  0  0  0  0  0
  187.2090  176.1880  144.8350 C   0  0  0  0  0  2  0  0  0  0  0  0
  186.3250  177.3900  144.6760 C   0  0  0  0  0  0  0  0  0  0  0  0
  186.6600  178.3670  143.7320 C   0  0  0  0  0  3  0  0  0  0  0  0
  184.3670  178.6840  145.2990 C   0  0  0  0  0  0  0  0  0  0  0  0
  185.8490  179.4930  143.5650 C   0  0  0  0  0  3  0  0  0  0  0  0
  184.8580  176.6410  146.4180 F   0  0  0  0  0  0  0  0  0  0  0  0
  185.1790  177.5570  145.4720 C   0  0  0  0  0  0  0  0  0  0  0  0
  183.2570  178.8480  146.0590 F   0  0  0  0  0  0  0  0  0  0  0  0
  184.7020  179.6500  144.3460 C   0  0  0  0  0  3  0  0  0  0  0  0
  1  7  1  0  0  0  0
  2 14  1  6  0  0  0
  2  4  1  0  0  0  0
  2  8  1  0  0  0  0
  3  6  1  1  0  0  0
  3  5  1  0  0  0  0
  4 10  1  0  0  0  0
  5  9  2  0  0  0  0
  7  3  1  0  0  0  0
  7  5  1  0  0  0  0
  8  6  1  0  0  0  0
 10 20  1  1  0  0  0
 10  3  1  0  0  0  0
 11 14  1  0  0  0  0
 12 16  1  0  0  0  0
 13 19  1  1  0  0  0
 13 12  1  0  0  0  0
 13 17  1  0  0  0  0
 16 15  2  0  0  0  0
 16 14  1  0  0  0  0
 17 11  1  0  0  0  0
 18 19  1  0  0  0  0
 21 20  1  0  0  0  0
 21 26  1  0  0  0  0
 22 21  2  0  0  0  0
 23 26  2  0  0  0  0
 23 27  1  0  0  0  0
 24 22  1  0  0  0  0
 24 28  2  0  0  0  0
 26 25  1  0  0  0  0
 28 23  1  0  0  0  0
M  END
>  <MODEL>
5

>  <REMARK>
 VINA RESULT:      -7.6      2.861      5.545
  Name = 
  4 active torsions:
  status: ('A' for Active; 'I' for Inactive)
    1  A    between atoms: C_1  and  C_2
    2  A    between atoms: C_1  and  C_27
    3  A    between atoms: C_10  and  N_13
    4  A    between atoms: C_12  and  O_23
                            x       y       z     vdW  Elec       q    Type
                         _______ _______ _______ _____ _____    ______ ____

>  <TORSDO>
F 4

$$$$
=
 OpenBabel11052418043D

 28 31  0  0  1  0  0  0  0  0999 V2000
  193.4230  174.6060  145.5570 C   0  0  0  0  0  1  0  0  0  0  0  0
  190.3310  174.5900  143.3830 C   0  0  1  0  0  3  0  0  0  0  0  0
  190.8800  175.6300  145.8770 C   0  0  2  0  0  0  0  0  0  0  0  0
  190.3990  176.1210  143.3920 C   0  0  0  0  0  2  0  0  0  0  0  0
  191.4180  176.0180  147.0950 C   0  0  0  0  0  0  0  0  0  0  0  0
  189.9470  174.4180  145.8820 C   0  0  0  0  0  2  0  0  0  0  0  0
  192.2100  175.2460  146.0320 N   0  0  0  0  0  0  0  0  0  0  0  0
  189.4010  174.0860  144.4880 C   0  0  0  0  0  2  0  0  0  0  0  0
  191.3370  176.5740  148.2200 O   0  0  0  0  0  0  0  0  0  0  0  0
  190.7290  176.7000  144.7820 C   0  0  1  0  0  3  0  0  0  0  0  0
  188.5290  174.2030  141.7090 C   0  0  0  0  0  2  0  0  0  0  0  0
  190.5850  173.3710  139.6970 C   0  0  0  0  0  2  0  0  0  0  0  0
  189.1020  173.5700  139.3500 C   0  0  2  0  0  3  0  0  0  0  0  0
  189.9350  174.0760  142.0740 N   0  0  0  0  0  0  0  0  0  0  0  0
  191.9690  173.0080  141.5960 O   0  0  0  0  0  0  0  0  0  0  0  0
  190.8660  173.4420  141.1720 C   0  0  0  0  0  0  0  0  0  0  0  0
  188.3840  174.5860  140.2430 C   0  0  0  0  0  2  0  0  0  0  0  0
  189.2280  171.4740  138.6910 O   0  0  0  0  0  1  0  0  0  0  0  0
  188.3870  172.3670  139.1790 O   0  0  0  0  0  0  0  0  0  0  0  0
  189.7860  177.8470  145.1700 C   0  0  0  0  0  2  0  0  0  0  0  0
  188.3440  177.5810  144.8500 C   0  0  0  0  0  0  0  0  0  0  0  0
  187.8720  177.8310  143.5570 C   0  0  0  0  0  3  0  0  0  0  0  0
  186.1230  176.8540  145.5060 C   0  0  0  0  0  0  0  0  0  0  0  0
  186.5330  177.5870  143.2370 C   0  0  0  0  0  3  0  0  0  0  0  0
  187.8910  176.8870  147.1000 F   0  0  0  0  0  0  0  0  0  0  0  0
  187.4610  177.1010  145.8320 C   0  0  0  0  0  0  0  0  0  0  0  0
  185.2660  176.3860  146.4470 F   0  0  0  0  0  0  0  0  0  0  0  0
  185.6600  177.0960  144.2100 C   0  0  0  0  0  3  0  0  0  0  0  0
  1  7  1  0  0  0  0
  2 14  1  6  0  0  0
  2  4  1  0  0  0  0
  2  8  1  0  0  0  0
  3  6  1  1  0  0  0
  3  7  1  0  0  0  0
  3  5  1  0  0  0  0
  4 10  1  0  0  0  0
  5  9  2  0  0  0  0
  7  5  1  0  0  0  0
  8  6  1  0  0  0  0
 10 20  1  1  0  0  0
 10  3  1  0  0  0  0
 11 14  1  0  0  0  0
 12 16  1  0  0  0  0
 13 19  1  1  0  0  0
 13 12  1  0  0  0  0
 13 17  1  0  0  0  0
 16 15  2  0  0  0  0
 16 14  1  0  0  0  0
 17 11  1  0  0  0  0
 18 19  1  0  0  0  0
 21 20  1  0  0  0  0
 21 26  1  0  0  0  0
 22 21  2  0  0  0  0
 23 26  2  0  0  0  0
 23 27  1  0  0  0  0
 24 22  1  0  0  0  0
 24 28  2  0  0  0  0
 26 25  1  0  0  0  0
 28 23  1  0  0  0  0
M  END
>  <MODEL>
6

>  <REMARK>
 VINA RESULT:      -7.6      2.674      5.831
  Name = 
  4 active torsions:
  status: ('A' for Active; 'I' for Inactive)
    1  A    between atoms: C_1  and  C_2
    2  A    between atoms: C_1  and  C_27
    3  A    between atoms: C_10  and  N_13
    4  A    between atoms: C_12  and  O_23
                            x       y       z     vdW  Elec       q    Type
                         _______ _______ _______ _____ _____    ______ ____

>  <TORSDO>
F 4

$$$$
=
 OpenBabel11052418043D

 28 31  0  0  1  0  0  0  0  0999 V2000
  189.1440  173.2540  142.9190 C   0  0  0  0  0  1  0  0  0  0  0  0
  188.4330  176.0410  145.3690 C   0  0  1  0  0  3  0  0  0  0  0  0
  190.6120  174.4030  144.9530 C   0  0  2  0  0  0  0  0  0  0  0  0
  189.6350  176.7820  144.7720 C   0  0  0  0  0  2  0  0  0  0  0  0
  191.5310  173.4490  144.5450 C   0  0  0  0  0  0  0  0  0  0  0  0
  189.8310  174.1140  146.2370 C   0  0  0  0  0  2  0  0  0  0  0  0
  190.1530  173.6230  143.8940 N   0  0  0  0  0  0  0  0  0  0  0  0
  188.8550  175.2390  146.6010 C   0  0  0  0  0  2  0  0  0  0  0  0
  192.6430  172.8680  144.6290 O   0  0  0  0  0  0  0  0  0  0  0  0
  190.8440  175.8600  144.5170 C   0  0  1  0  0  3  0  0  0  0  0  0
  186.7970  176.9160  147.0300 C   0  0  0  0  0  2  0  0  0  0  0  0
  186.0200  179.0820  145.1130 C   0  0  0  0  0  2  0  0  0  0  0  0
  185.5220  179.0270  146.5660 C   0  0  2  0  0  3  0  0  0  0  0  0
  187.3350  176.9550  145.6750 N   0  0  0  0  0  0  0  0  0  0  0  0
  186.9640  177.6520  143.4660 O   0  0  0  0  0  0  0  0  0  0  0  0
  186.7700  177.8490  144.6940 C   0  0  0  0  0  0  0  0  0  0  0  0
  186.4830  178.3200  147.5270 C   0  0  0  0  0  2  0  0  0  0  0  0
  183.5380  178.9940  145.6130 O   0  0  0  0  0  1  0  0  0  0  0  0
  184.1840  178.6040  146.6970 O   0  0  0  0  0  0  0  0  0  0  0  0
  192.1520  176.4600  145.0520 C   0  0  0  0  0  2  0  0  0  0  0  0
  193.3190  176.2940  144.1240 C   0  0  0  0  0  0  0  0  0  0  0  0
  193.1120  176.3690  142.7420 C   0  0  0  0  0  3  0  0  0  0  0  0
  195.6830  175.9040  143.7340 C   0  0  0  0  0  0  0  0  0  0  0  0
  194.1860  176.2200  141.8600 C   0  0  0  0  0  3  0  0  0  0  0  0
  194.8250  175.9360  145.9550 F   0  0  0  0  0  0  0  0  0  0  0  0
  194.6100  176.0480  144.6210 C   0  0  0  0  0  0  0  0  0  0  0  0
  196.9330  175.6730  144.2070 F   0  0  0  0  0  0  0  0  0  0  0  0
  195.4710  175.9900  142.3560 C   0  0  0  0  0  3  0  0  0  0  0  0
  1  7  1  0  0  0  0
  2  4  1  1  0  0  0
  2 14  1  0  0  0  0
  2  8  1  0  0  0  0
  3  6  1  1  0  0  0
  5  9  2  0  0  0  0
  5  3  1  0  0  0  0
  6  8  1  0  0  0  0
  7  5  1  0  0  0  0
  7  3  1  0  0  0  0
 10  4  1  0  0  0  0
 10  3  1  0  0  0  0
 10 20  1  1  0  0  0
 11 17  1  0  0  0  0
 12 13  1  0  0  0  0
 13 19  1  6  0  0  0
 13 17  1  0  0  0  0
 14 11  1  0  0  0  0
 15 16  2  0  0  0  0
 16 12  1  0  0  0  0
 16 14  1  0  0  0  0
 18 19  1  0  0  0  0
 21 26  1  0  0  0  0
 21 20  1  0  0  0  0
 22 21  2  0  0  0  0
 23 27  1  0  0  0  0
 23 26  2  0  0  0  0
 24 28  2  0  0  0  0
 24 22  1  0  0  0  0
 26 25  1  0  0  0  0
 28 23  1  0  0  0  0
M  END
>  <MODEL>
7

>  <REMARK>
 VINA RESULT:      -7.6      4.086      7.463
  Name = 
  4 active torsions:
  status: ('A' for Active; 'I' for Inactive)
    1  A    between atoms: C_1  and  C_2
    2  A    between atoms: C_1  and  C_27
    3  A    between atoms: C_10  and  N_13
    4  A    between atoms: C_12  and  O_23
                            x       y       z     vdW  Elec       q    Type
                         _______ _______ _______ _____ _____    ______ ____

>  <TORSDO>
F 4

$$$$
=
 OpenBabel11052418043D

 28 31  0  0  1  0  0  0  0  0999 V2000
  186.7760  177.4300  146.1570 C   0  0  0  0  0  1  0  0  0  0  0  0
  189.2970  175.2950  144.3220 C   0  0  1  0  0  3  0  0  0  0  0  0
  189.4920  177.0400  146.4480 C   0  0  2  0  0  0  0  0  0  0  0  0
  189.5670  174.5880  145.6540 C   0  0  0  0  0  2  0  0  0  0  0  0
  189.3040  177.9680  147.4590 C   0  0  0  0  0  0  0  0  0  0  0  0
  190.1210  177.5440  145.1470 C   0  0  0  0  0  2  0  0  0  0  0  0
  188.1680  177.4560  146.5650 N   0  0  0  0  0  0  0  0  0  0  0  0
  190.2950  176.4330  144.1040 C   0  0  0  0  0  2  0  0  0  0  0  0
  189.7250  178.6910  148.3990 O   0  0  0  0  0  0  0  0  0  0  0  0
  189.6520  175.5620  146.8450 C   0  0  1  0  0  3  0  0  0  0  0  0
  190.4540  173.4650  143.0910 C   0  0  0  0  0  2  0  0  0  0  0  0
  188.0150  173.0670  141.4010 C   0  0  0  0  0  2  0  0  0  0  0  0
  189.2290  172.1270  141.3580 C   0  0  2  0  0  3  0  0  0  0  0  0
  189.3040  174.3550  143.2030 N   0  0  0  0  0  0  0  0  0  0  0  0
  187.4530  175.2710  142.0910 O   0  0  0  0  0  0  0  0  0  0  0  0
  188.2480  174.3050  142.2210 C   0  0  0  0  0  0  0  0  0  0  0  0
  190.0180  172.0690  142.6700 C   0  0  0  0  0  2  0  0  0  0  0  0
  189.2920  172.8220  139.2710 O   0  0  0  0  0  1  0  0  0  0  0  0
  190.0430  172.2940  140.2190 O   0  0  0  0  0  0  0  0  0  0  0  0
  190.8810  175.2930  147.7260 C   0  0  0  0  0  2  0  0  0  0  0  0
  192.1890  175.4600  147.0090 C   0  0  0  0  0  0  0  0  0  0  0  0
  192.6240  174.4570  146.1360 C   0  0  0  0  0  3  0  0  0  0  0  0
  194.2000  176.7320  146.5290 C   0  0  0  0  0  0  0  0  0  0  0  0
  193.8370  174.5940  145.4560 C   0  0  0  0  0  3  0  0  0  0  0  0
  192.6010  177.5620  148.0850 F   0  0  0  0  0  0  0  0  0  0  0  0
  192.9880  176.5970  147.2150 C   0  0  0  0  0  0  0  0  0  0  0  0
  194.9730  177.8290  146.7180 F   0  0  0  0  0  0  0  0  0  0  0  0
  194.6230  175.7310  145.6500 C   0  0  0  0  0  3  0  0  0  0  0  0
  1  7  1  0  0  0  0
  2 14  1  6  0  0  0
  2  4  1  0  0  0  0
  3  6  1  6  0  0  0
  3  7  1  0  0  0  0
  3 10  1  0  0  0  0
  3  5  1  0  0  0  0
  4 10  1  0  0  0  0
  5  9  2  0  0  0  0
  7  5  1  0  0  0  0
  8  2  1  0  0  0  0
  8  6  1  0  0  0  0
 10 20  1  6  0  0  0
 11 14  1  0  0  0  0
 12 16  1  0  0  0  0
 13 19  1  6  0  0  0
 13 12  1  0  0  0  0
 13 17  1  0  0  0  0
 15 16  2  0  0  0  0
 16 14  1  0  0  0  0
 17 11  1  0  0  0  0
 18 19  1  0  0  0  0
 21 26  1  0  0  0  0
 21 20  1  0  0  0  0
 22 21  2  0  0  0  0
 23 27  1  0  0  0  0
 23 26  2  0  0  0  0
 24 28  2  0  0  0  0
 24 22  1  0  0  0  0
 26 25  1  0  0  0  0
 28 23  1  0  0  0  0
M  END
>  <MODEL>
8

>  <REMARK>
 VINA RESULT:      -7.5      3.348      6.687
  Name = 
  4 active torsions:
  status: ('A' for Active; 'I' for Inactive)
    1  A    between atoms: C_1  and  C_2
    2  A    between atoms: C_1  and  C_27
    3  A    between atoms: C_10  and  N_13
    4  A    between atoms: C_12  and  O_23
                            x       y       z     vdW  Elec       q    Type
                         _______ _______ _______ _____ _____    ______ ____

>  <TORSDO>
F 4

$$$$
=
 OpenBabel11052418043D

 28 31  0  0  1  0  0  0  0  0999 V2000
  188.3760  178.7160  147.6350 C   0  0  0  0  0  1  0  0  0  0  0  0
  190.5720  176.2200  145.8380 C   0  0  1  0  0  3  0  0  0  0  0  0
  187.8540  176.3730  146.2740 C   0  0  2  0  0  0  0  0  0  0  0  0
  189.7780  176.5390  144.5660 C   0  0  0  0  0  2  0  0  0  0  0  0
  186.5590  176.6870  146.6580 C   0  0  0  0  0  0  0  0  0  0  0  0
  188.5670  175.2730  147.0630 C   0  0  0  0  0  2  0  0  0  0  0  0
  187.7740  177.5530  147.0100 N   0  0  0  0  0  0  0  0  0  0  0  0
  189.9850  174.9990  146.5470 C   0  0  0  0  0  2  0  0  0  0  0  0
  185.3230  176.4540  146.6990 O   0  0  0  0  0  0  0  0  0  0  0  0
  188.2600  176.6470  144.8160 C   0  0  1  0  0  3  0  0  0  0  0  0
  192.3410  175.3330  144.3270 C   0  0  0  0  0  2  0  0  0  0  0  0
  194.4230  176.7640  145.9350 C   0  0  0  0  0  2  0  0  0  0  0  0
  194.7290  176.0490  144.6100 C   0  0  2  0  0  3  0  0  0  0  0  0
  191.9940  176.0420  145.5530 N   0  0  0  0  0  0  0  0  0  0  0  0
  192.7650  176.7920  147.6380 O   0  0  0  0  0  0  0  0  0  0  0  0
  193.0300  176.5100  146.4400 C   0  0  0  0  0  0  0  0  0  0  0  0
  193.5390  175.9830  143.6480 C   0  0  0  0  0  2  0  0  0  0  0  0
  195.8320  174.7570  146.0090 O   0  0  0  0  0  1  0  0  0  0  0  0
  195.3960  174.8160  144.7650 O   0  0  0  0  0  0  0  0  0  0  0  0
  187.4460  175.8470  143.7910 C   0  0  0  0  0  2  0  0  0  0  0  0
  186.6550  176.7020  142.8440 C   0  0  0  0  0  0  0  0  0  0  0  0
  185.4840  177.3210  143.2950 C   0  0  0  0  0  3  0  0  0  0  0  0
  186.3130  177.6840  140.6500 C   0  0  0  0  0  0  0  0  0  0  0  0
  184.7340  178.1240  142.4300 C   0  0  0  0  0  3  0  0  0  0  0  0
  188.1760  176.2540  141.0450 F   0  0  0  0  0  0  0  0  0  0  0  0
  187.0640  176.8750  141.5110 C   0  0  0  0  0  0  0  0  0  0  0  0
  186.7050  177.8600  139.3640 F   0  0  0  0  0  0  0  0  0  0  0  0
  185.1500  178.3080  141.1100 C   0  0  0  0  0  3  0  0  0  0  0  0
  2  4  1  6  0  0  0
  2  8  1  0  0  0  0
  3  5  1  0  0  0  0
  3  7  1  0  0  0  0
  3  6  1  1  0  0  0
  4 10  1  0  0  0  0
  5  9  2  0  0  0  0
  5  7  1  0  0  0  0
  7  1  1  0  0  0  0
  8  6  1  0  0  0  0
 10 20  1  6  0  0  0
 10  3  1  0  0  0  0
 11 14  1  0  0  0  0
 12 16  1  0  0  0  0
 13 19  1  1  0  0  0
 13 12  1  0  0  0  0
 14  2  1  0  0  0  0
 14 16  1  0  0  0  0
 16 15  2  0  0  0  0
 17 11  1  0  0  0  0
 17 13  1  0  0  0  0
 19 18  1  0  0  0  0
 21 22  1  0  0  0  0
 21 20  1  0  0  0  0
 23 28  2  0  0  0  0
 23 26  1  0  0  0  0
 24 22  2  0  0  0  0
 25 26  1  0  0  0  0
 26 21  2  0  0  0  0
 27 23  1  0  0  0  0
 28 24  1  0  0  0  0
M  END
>  <MODEL>
9

>  <REMARK>
 VINA RESULT:      -7.4      3.027      4.877
  Name = 
  4 active torsions:
  status: ('A' for Active; 'I' for Inactive)
    1  A    between atoms: C_1  and  C_2
    2  A    between atoms: C_1  and  C_27
    3  A    between atoms: C_10  and  N_13
    4  A    between atoms: C_12  and  O_23
                            x       y       z     vdW  Elec       q    Type
                         _______ _______ _______ _____ _____    ______ ____

>  <TORSDO>
F 4

$$$$
