=
 OpenBabel11052419523D

 37 43  0  0  1  0  0  0  0  0999 V2000
  189.5030  172.3880  143.2540 C   0  0  0  0  0  2  0  0  0  0  0  0
  194.9660  172.3650  145.1560 C   0  0  0  0  0  2  0  0  0  0  0  0
  192.1670  175.5770  145.1950 C   0  0  0  0  0  0  0  0  0  0  0  0
  189.3390  171.3930  142.1030 C   0  0  1  0  0  3  0  0  0  0  0  0
  188.7330  175.5250  143.6580 C   0  0  0  0  0  2  0  0  0  0  0  0
  194.5170  174.8910  145.2710 C   0  0  0  0  0  0  0  0  0  0  0  0
  191.0520  174.9910  144.7710 C   0  0  0  0  0  0  0  0  0  0  0  0
  188.6490  174.2160  139.7130 C   0  0  0  0  0  0  0  0  0  0  0  0
  193.3110  174.8300  144.7050 C   0  0  0  0  0  0  0  0  0  0  0  0
  189.6980  175.6180  144.8340 C   0  0  0  0  0  0  0  0  0  0  0  0
  194.6930  175.8930  146.3560 C   0  0  0  0  0  3  0  0  0  0  0  0
  189.2930  172.0930  140.6970 C   0  0  0  0  0  2  0  0  0  0  0  0
  192.7940  173.9090  143.6990 C   0  0  0  0  0  0  0  0  0  0  0  0
  193.9250  171.8630  142.8350 C   0  0  0  0  0  2  0  0  0  0  0  0
  191.3650  176.4520  147.3450 C   0  0  0  0  0  3  0  0  0  0  0  0
  193.7120  176.7340  146.7660 C   0  0  0  0  0  3  0  0  0  0  0  0
  193.5750  173.3630  142.5580 C   0  0  0  0  0  2  0  0  0  0  0  0
  189.1070  173.6090  140.7690 C   0  0  0  0  0  0  0  0  0  0  0  0
  189.4600  175.6700  142.3200 C   0  0  0  0  0  2  0  0  0  0  0  0
  192.3040  176.6950  146.1880 C   0  0  1  0  0  3  0  0  0  0  0  0
  191.4780  173.9680  143.7980 C   0  0  0  0  0  0  0  0  0  0  0  0
  195.5570  173.8030  145.1270 C   0  0  0  0  0  2  0  0  0  0  0  0
  189.2690  176.2600  145.9710 C   0  0  0  0  0  0  0  0  0  0  0  0
  195.1300  171.7160  143.7820 C   0  0  0  0  0  2  0  0  0  0  0  0
  190.0020  174.3620  141.7450 C   0  0  1  0  0  3  0  0  0  0  0  0
  188.1800  174.8090  138.7010 O   0  0  0  0  0  0  0  0  0  0  0  0
  190.5800  173.3560  142.7850 C   0  0  2  0  0  3  0  0  0  0  0  0
  190.0500  176.2870  147.2110 C   0  0  0  0  0  3  0  0  0  0  0  0
  186.9780  176.3940  146.8700 C   0  0  0  0  0  3  0  0  0  0  0  0
  187.9810  176.9560  146.0500 C   0  0  0  0  0  0  0  0  0  0  0  0
  187.6630  178.0070  145.1720 C   0  0  0  0  0  3  0  0  0  0  0  0
  186.0530  179.4600  144.2120 F   0  0  0  0  0  0  0  0  0  0  0  0
  185.3510  177.9040  145.9120 C   0  0  0  0  0  3  0  0  0  0  0  0
  186.3590  178.4810  145.1000 C   0  0  0  0  0  0  0  0  0  0  0  0
  185.6740  176.8590  146.7880 C   0  0  0  0  0  3  0  0  0  0  0  0
  191.1390  170.3540  140.7050 C   0  0  0  0  0  1  0  0  0  0  0  0
  190.5700  170.4510  142.1110 C   0  0  0  0  0  2  0  0  0  0  0  0
  3 20  1  0  0  0  0
  4 37  1  6  0  0  0
  4  1  1  0  0  0  0
  5 10  1  0  0  0  0
  6 11  1  0  0  0  0
  7 10  1  0  0  0  0
  7  3  2  0  0  0  0
  8 18  2  0  0  0  0
  9  3  1  0  0  0  0
  9  6  2  0  0  0  0
 10 23  2  0  0  0  0
 11 16  2  0  0  0  0
 12 18  1  0  0  0  0
 12  4  1  0  0  0  0
 13 21  2  0  0  0  0
 13  9  1  0  0  0  0
 14 24  1  0  0  0  0
 17 14  1  0  0  0  0
 17 13  1  0  0  0  0
 18 25  1  0  0  0  0
 19  5  1  0  0  0  0
 20 16  1  1  0  0  0
 20 15  1  0  0  0  0
 21  7  1  0  0  0  0
 22  2  1  0  0  0  0
 22  6  1  0  0  0  0
 23 30  1  0  0  0  0
 23 28  1  0  0  0  0
 24  2  1  0  0  0  0
 25 19  1  1  0  0  0
 25 27  1  0  0  0  0
 26  8  2  0  0  0  0
 27  1  1  1  0  0  0
 27 21  1  0  0  0  0
 28 15  2  0  0  0  0
 30 29  2  0  0  0  0
 31 30  1  0  0  0  0
 32 34  1  0  0  0  0
 33 35  2  0  0  0  0
 34 31  2  0  0  0  0
 34 33  1  0  0  0  0
 35 29  1  0  0  0  0
 36 37  1  0  0  0  0
M  END
>  <MODEL>
1

>  <REMARK>
 VINA RESULT:      -9.5      0.000      0.000
  Name = 
  2 active torsions:
  status: ('A' for Active; 'I' for Inactive)
    1  A    between atoms: C_5  and  C_23
    2  A    between atoms: C_6  and  C_31
                            x       y       z     vdW  Elec       q    Type
                         _______ _______ _______ _____ _____    ______ ____

>  <TORSDO>
F 2

$$$$
=
 OpenBabel11052419523D

 37 43  0  0  1  0  0  0  0  0999 V2000
  192.1830  177.1090  144.3190 C   0  0  0  0  0  2  0  0  0  0  0  0
  193.2600  173.8000  139.6980 C   0  0  0  0  0  2  0  0  0  0  0  0
  189.5350  174.4810  141.6510 C   0  0  0  0  0  0  0  0  0  0  0  0
  193.4160  177.1720  145.2230 C   0  0  1  0  0  3  0  0  0  0  0  0
  189.0390  176.4370  144.8260 C   0  0  0  0  0  2  0  0  0  0  0  0
  190.8580  173.0330  140.1830 C   0  0  0  0  0  0  0  0  0  0  0  0
  189.8470  175.4130  142.5460 C   0  0  1  0  0  3  0  0  0  0  0  0
  191.5690  175.3240  147.9300 C   0  0  0  0  0  0  0  0  0  0  0  0
  190.7300  173.7280  141.3140 C   0  0  0  0  0  0  0  0  0  0  0  0
  188.8440  176.1880  143.3350 C   0  0  0  0  0  0  0  0  0  0  0  0
  189.6460  172.9280  139.3260 C   0  0  0  0  0  3  0  0  0  0  0  0
  193.2880  176.2510  146.4890 C   0  0  0  0  0  2  0  0  0  0  0  0
  191.7330  174.0930  142.3070 C   0  0  0  0  0  0  0  0  0  0  0  0
  194.1980  173.7790  142.1150 C   0  0  0  0  0  2  0  0  0  0  0  0
  187.7440  175.6630  140.4540 C   0  0  0  0  0  3  0  0  0  0  0  0
  188.4490  173.4770  139.6500 C   0  0  0  0  0  3  0  0  0  0  0  0
  192.8680  173.2320  142.7310 C   0  0  0  0  0  2  0  0  0  0  0  0
  191.8710  175.7300  146.7310 C   0  0  0  0  0  0  0  0  0  0  0  0
  189.6200  175.2120  145.5310 C   0  0  0  0  0  2  0  0  0  0  0  0
  188.2430  174.3100  140.9060 C   0  0  0  0  0  0  0  0  0  0  0  0
  191.2290  175.1180  142.9710 C   0  0  0  0  0  0  0  0  0  0  0  0
  192.1950  172.6730  139.5770 C   0  0  0  0  0  2  0  0  0  0  0  0
  187.7380  176.7340  142.7280 C   0  0  0  0  0  0  0  0  0  0  0  0
  194.3720  173.3520  140.6460 C   0  0  0  0  0  2  0  0  0  0  0  0
  191.1460  175.1390  145.5290 C   0  0  1  0  0  3  0  0  0  0  0  0
  191.2590  174.9530  149.0980 O   0  0  0  0  0  0  0  0  0  0  0  0
  191.8420  175.6280  144.2240 C   0  0  2  0  0  3  0  0  0  0  0  0
  187.5200  176.6840  141.2800 C   0  0  0  0  0  3  0  0  0  0  0  0
  186.5550  178.8260  143.2750 C   0  0  0  0  0  3  0  0  0  0  0  0
  186.6890  177.4350  143.4750 C   0  0  0  0  0  0  0  0  0  0  0  0
  185.9950  176.8060  144.5240 C   0  0  0  0  0  3  0  0  0  0  0  0
  184.5650  176.9480  146.4110 F   0  0  0  0  0  0  0  0  0  0  0  0
  185.0710  178.9560  145.1790 C   0  0  0  0  0  3  0  0  0  0  0  0
  185.1900  177.5570  145.3720 C   0  0  0  0  0  0  0  0  0  0  0  0
  185.7630  179.5760  144.1310 C   0  0  0  0  0  3  0  0  0  0  0  0
  195.3550  175.5870  145.1920 C   0  0  0  0  0  1  0  0  0  0  0  0
  194.6320  176.6670  144.4050 C   0  0  0  0  0  2  0  0  0  0  0  0
  1  4  1  0  0  0  0
  2 24  1  0  0  0  0
  4 37  1  6  0  0  0
  4 12  1  0  0  0  0
  5 19  1  0  0  0  0
  6  9  1  0  0  0  0
  7  3  1  1  0  0  0
  7 21  1  0  0  0  0
  7 10  1  0  0  0  0
  8 26  2  0  0  0  0
  9  3  2  0  0  0  0
  9 13  1  0  0  0  0
 10  5  1  0  0  0  0
 11 16  1  0  0  0  0
 11  6  2  0  0  0  0
 12 18  1  0  0  0  0
 13 17  1  0  0  0  0
 13 21  2  0  0  0  0
 14 17  1  0  0  0  0
 15 20  1  0  0  0  0
 15 28  2  0  0  0  0
 16 20  2  0  0  0  0
 18  8  2  0  0  0  0
 20  3  1  0  0  0  0
 21 27  1  0  0  0  0
 22  2  1  0  0  0  0
 22  6  1  0  0  0  0
 23 10  2  0  0  0  0
 23 30  1  0  0  0  0
 24 14  1  0  0  0  0
 25 19  1  6  0  0  0
 25 18  1  0  0  0  0
 27  1  1  6  0  0  0
 27 25  1  0  0  0  0
 28 23  1  0  0  0  0
 29 30  2  0  0  0  0
 29 35  1  0  0  0  0
 30 31  1  0  0  0  0
 31 34  2  0  0  0  0
 33 34  1  0  0  0  0
 34 32  1  0  0  0  0
 35 33  2  0  0  0  0
 37 36  1  0  0  0  0
M  END
>  <MODEL>
2

>  <REMARK>
 VINA RESULT:      -9.0      2.523      5.599
  Name = 
  2 active torsions:
  status: ('A' for Active; 'I' for Inactive)
    1  A    between atoms: C_5  and  C_23
    2  A    between atoms: C_6  and  C_31
                            x       y       z     vdW  Elec       q    Type
                         _______ _______ _______ _____ _____    ______ ____

>  <TORSDO>
F 2

$$$$
=
 OpenBabel11052419523D

 37 43  0  0  1  0  0  0  0  0999 V2000
  191.5310  174.4940  145.5780 C   0  0  0  0  0  2  0  0  0  0  0  0
  186.2920  176.9460  145.6610 C   0  0  0  0  0  2  0  0  0  0  0  0
  188.7590  176.0950  142.2940 C   0  0  0  0  0  0  0  0  0  0  0  0
  192.2810  174.8040  146.8750 C   0  0  1  0  0  3  0  0  0  0  0  0
  192.2730  174.7560  142.4190 C   0  0  0  0  0  2  0  0  0  0  0  0
  186.9080  177.4100  143.2120 C   0  0  0  0  0  0  0  0  0  0  0  0
  189.7660  175.4200  142.8390 C   0  0  0  0  0  0  0  0  0  0  0  0
  194.8050  176.8440  144.9710 C   0  0  0  0  0  0  0  0  0  0  0  0
  188.1530  176.9430  143.3040 C   0  0  1  0  0  3  0  0  0  0  0  0
  190.7950  174.6710  142.0570 C   0  0  0  0  0  0  0  0  0  0  0  0
  186.1940  177.1540  141.9320 C   0  0  0  0  0  3  0  0  0  0  0  0
  193.3650  175.9270  146.6960 C   0  0  0  0  0  2  0  0  0  0  0  0
  189.0720  176.9430  144.4380 C   0  0  0  0  0  0  0  0  0  0  0  0
  188.5390  177.5920  146.7840 C   0  0  0  0  0  2  0  0  0  0  0  0
  188.0160  174.4360  140.6420 C   0  0  0  0  0  3  0  0  0  0  0  0
  186.7510  176.5010  140.8820 C   0  0  0  0  0  3  0  0  0  0  0  0
  189.1970  178.0360  145.4360 C   0  0  0  0  0  2  0  0  0  0  0  0
  193.6730  176.2600  145.2360 C   0  0  0  0  0  0  0  0  0  0  0  0
  192.6710  176.1720  142.8350 C   0  0  0  0  0  2  0  0  0  0  0  0
  188.1530  175.9120  140.9320 C   0  0  0  0  0  0  0  0  0  0  0  0
  189.9660  176.0050  144.1780 C   0  0  0  0  0  0  0  0  0  0  0  0
  186.0940  177.8460  144.4090 C   0  0  0  0  0  2  0  0  0  0  0  0
  190.4310  173.8500  141.0170 C   0  0  0  0  0  0  0  0  0  0  0  0
  187.0060  177.7400  146.7550 C   0  0  0  0  0  2  0  0  0  0  0  0
  192.4770  176.4790  144.3190 C   0  0  1  0  0  3  0  0  0  0  0  0
  195.9140  177.3860  144.7020 O   0  0  0  0  0  0  0  0  0  0  0  0
  191.2100  175.8550  144.9760 C   0  0  2  0  0  3  0  0  0  0  0  0
  189.0330  173.5760  140.6700 C   0  0  0  0  0  3  0  0  0  0  0  0
  191.7240  173.7290  138.9210 C   0  0  0  0  0  3  0  0  0  0  0  0
  191.4110  173.1570  140.1740 C   0  0  0  0  0  0  0  0  0  0  0  0
  191.8500  171.8580  140.4820 C   0  0  0  0  0  3  0  0  0  0  0  0
  192.9540  169.8600  139.8370 F   0  0  0  0  0  0  0  0  0  0  0  0
  192.8780  171.7020  138.2850 C   0  0  0  0  0  3  0  0  0  0  0  0
  192.5790  171.1310  139.5480 C   0  0  0  0  0  0  0  0  0  0  0  0
  192.4390  172.9980  137.9850 C   0  0  0  0  0  3  0  0  0  0  0  0
  191.6300  176.7240  148.3470 C   0  0  0  0  0  1  0  0  0  0  0  0
  191.2480  175.3190  147.9100 C   0  0  0  0  0  2  0  0  0  0  0  0
  1  4  1  0  0  0  0
  2 24  1  0  0  0  0
  3  7  2  0  0  0  0
  4 37  1  1  0  0  0
  5 19  1  0  0  0  0
  6  9  1  0  0  0  0
  6 22  1  0  0  0  0
  7 21  1  0  0  0  0
  8 18  2  0  0  0  0
  9  3  1  1  0  0  0
  9 13  1  0  0  0  0
 10  5  1  0  0  0  0
 10  7  1  0  0  0  0
 11  6  2  0  0  0  0
 12  4  1  0  0  0  0
 13 17  1  0  0  0  0
 15 28  2  0  0  0  0
 15 20  1  0  0  0  0
 16 20  2  0  0  0  0
 16 11  1  0  0  0  0
 17 14  1  0  0  0  0
 18 12  1  0  0  0  0
 20  3  1  0  0  0  0
 21 13  2  0  0  0  0
 21 27  1  0  0  0  0
 22  2  1  0  0  0  0
 23 10  2  0  0  0  0
 24 14  1  0  0  0  0
 25 19  1  6  0  0  0
 25 27  1  0  0  0  0
 25 18  1  0  0  0  0
 26  8  2  0  0  0  0
 27  1  1  6  0  0  0
 28 23  1  0  0  0  0
 29 30  1  0  0  0  0
 30 31  2  0  0  0  0
 30 23  1  0  0  0  0
 33 34  2  0  0  0  0
 34 32  1  0  0  0  0
 34 31  1  0  0  0  0
 35 33  1  0  0  0  0
 35 29  2  0  0  0  0
 37 36  1  0  0  0  0
M  END
>  <MODEL>
3

>  <REMARK>
 VINA RESULT:      -8.6      3.236      7.946
  Name = 
  2 active torsions:
  status: ('A' for Active; 'I' for Inactive)
    1  A    between atoms: C_5  and  C_23
    2  A    between atoms: C_6  and  C_31
                            x       y       z     vdW  Elec       q    Type
                         _______ _______ _______ _____ _____    ______ ____

>  <TORSDO>
F 2

$$$$
=
 OpenBabel11052419523D

 37 43  0  0  1  0  0  0  0  0999 V2000
  191.8360  173.4040  141.0660 C   0  0  0  0  0  2  0  0  0  0  0  0
  188.7850  177.4830  143.8070 C   0  0  0  0  0  2  0  0  0  0  0  0
  191.7740  174.8990  145.4020 C   0  0  0  0  0  0  0  0  0  0  0  0
  191.0230  172.8240  139.9070 C   0  0  1  0  0  3  0  0  0  0  0  0
  193.4720  172.0940  143.5570 C   0  0  0  0  0  2  0  0  0  0  0  0
  189.8470  176.3440  145.8490 C   0  0  0  0  0  0  0  0  0  0  0  0
  192.2230  174.2770  144.3160 C   0  0  0  0  0  0  0  0  0  0  0  0
  190.8640  169.4870  141.6380 C   0  0  0  0  0  0  0  0  0  0  0  0
  190.4170  175.3560  145.1590 C   0  0  0  0  0  0  0  0  0  0  0  0
  193.4560  173.4340  144.2830 C   0  0  0  0  0  0  0  0  0  0  0  0
  190.6140  176.8750  147.0080 C   0  0  0  0  0  3  0  0  0  0  0  0
  190.4060  171.4180  140.2400 C   0  0  0  0  0  2  0  0  0  0  0  0
  189.9790  174.6930  143.9350 C   0  0  0  0  0  0  0  0  0  0  0  0
  188.0760  175.3730  142.4760 C   0  0  0  0  0  2  0  0  0  0  0  0
  193.8850  175.8550  146.2160 C   0  0  0  0  0  3  0  0  0  0  0  0
  191.8230  176.3940  147.3900 C   0  0  0  0  0  3  0  0  0  0  0  0
  188.5670  174.3880  143.5880 C   0  0  0  0  0  2  0  0  0  0  0  0
  190.9830  170.7760  141.5020 C   0  0  0  0  0  0  0  0  0  0  0  0
  192.1630  171.3300  143.7560 C   0  0  0  0  0  2  0  0  0  0  0  0
  192.5450  175.2930  146.6280 C   0  0  1  0  0  3  0  0  0  0  0  0
  191.0580  174.1260  143.4250 C   0  0  0  0  0  0  0  0  0  0  0  0
  188.6870  177.1600  145.3250 C   0  0  0  0  0  2  0  0  0  0  0  0
  194.6220  173.8650  144.8680 C   0  0  0  0  0  0  0  0  0  0  0  0
  187.6790  176.7450  143.0550 C   0  0  0  0  0  2  0  0  0  0  0  0
  191.0710  171.6610  142.7390 C   0  0  1  0  0  3  0  0  0  0  0  0
  190.7760  168.2340  141.7640 O   0  0  0  0  0  0  0  0  0  0  0  0
  190.9860  173.1540  142.3040 C   0  0  2  0  0  3  0  0  0  0  0  0
  194.7670  175.1950  145.4660 C   0  0  0  0  0  3  0  0  0  0  0  0
  196.8190  173.2450  143.9370 C   0  0  0  0  0  3  0  0  0  0  0  0
  195.8320  173.0390  144.9270 C   0  0  0  0  0  0  0  0  0  0  0  0
  195.9160  171.9260  145.7820 C   0  0  0  0  0  3  0  0  0  0  0  0
  197.0040  169.9240  146.4390 F   0  0  0  0  0  0  0  0  0  0  0  0
  197.9410  171.2220  144.6380 C   0  0  0  0  0  3  0  0  0  0  0  0
  196.9610  171.0210  145.6430 C   0  0  0  0  0  0  0  0  0  0  0  0
  197.8530  172.3340  143.7910 C   0  0  0  0  0  3  0  0  0  0  0  0
  188.5500  172.9990  139.5490 C   0  0  0  0  0  1  0  0  0  0  0  0
  189.8450  173.7910  139.6230 C   0  0  0  0  0  2  0  0  0  0  0  0
  2 22  1  0  0  0  0
  3 20  1  0  0  0  0
  4 37  1  1  0  0  0
  4 12  1  0  0  0  0
  4  1  1  0  0  0  0
  5 19  1  0  0  0  0
  5 10  1  0  0  0  0
  6 11  1  0  0  0  0
  7  3  2  0  0  0  0
  8 26  2  0  0  0  0
  9  3  1  0  0  0  0
  9  6  2  0  0  0  0
 10  7  1  0  0  0  0
 10 23  2  0  0  0  0
 11 16  2  0  0  0  0
 12 18  1  0  0  0  0
 13  9  1  0  0  0  0
 14 24  1  0  0  0  0
 14 17  1  0  0  0  0
 17 13  1  0  0  0  0
 18  8  2  0  0  0  0
 18 25  1  0  0  0  0
 20 15  1  6  0  0  0
 20 16  1  0  0  0  0
 21 13  2  0  0  0  0
 21  7  1  0  0  0  0
 22  6  1  0  0  0  0
 23 30  1  0  0  0  0
 23 28  1  0  0  0  0
 24  2  1  0  0  0  0
 25 19  1  6  0  0  0
 27  1  1  6  0  0  0
 27 25  1  0  0  0  0
 27 21  1  0  0  0  0
 28 15  2  0  0  0  0
 29 30  1  0  0  0  0
 30 31  2  0  0  0  0
 33 34  2  0  0  0  0
 34 31  1  0  0  0  0
 34 32  1  0  0  0  0
 35 29  2  0  0  0  0
 35 33  1  0  0  0  0
 36 37  1  0  0  0  0
M  END
>  <MODEL>
4

>  <REMARK>
 VINA RESULT:      -8.6      3.087      6.847
  Name = 
  2 active torsions:
  status: ('A' for Active; 'I' for Inactive)
    1  A    between atoms: C_5  and  C_23
    2  A    between atoms: C_6  and  C_31
                            x       y       z     vdW  Elec       q    Type
                         _______ _______ _______ _____ _____    ______ ____

>  <TORSDO>
F 2

$$$$
=
 OpenBabel11052419523D

 37 43  0  0  1  0  0  0  0  0999 V2000
  193.5770  172.6530  143.4170 C   0  0  0  0  0  2  0  0  0  0  0  0
  190.0990  175.2680  147.2280 C   0  0  0  0  0  2  0  0  0  0  0  0
  189.7730  175.1790  142.9820 C   0  0  0  0  0  0  0  0  0  0  0  0
  195.0040  172.5850  143.9630 C   0  0  1  0  0  3  0  0  0  0  0  0
  192.2770  173.6730  140.6120 C   0  0  0  0  0  2  0  0  0  0  0  0
  189.1750  176.3090  145.0710 C   0  0  0  0  0  0  0  0  0  0  0  0
  190.7420  174.3370  142.6370 C   0  0  1  0  0  3  0  0  0  0  0  0
  196.1940  174.9100  141.2550 C   0  0  0  0  0  0  0  0  0  0  0  0
  190.0930  175.7710  144.2680 C   0  0  0  0  0  0  0  0  0  0  0  0
  190.9050  173.7600  141.2700 C   0  0  0  0  0  0  0  0  0  0  0  0
  187.7970  176.4240  144.5230 C   0  0  0  0  0  3  0  0  0  0  0  0
  195.9530  173.6590  143.3210 C   0  0  0  0  0  2  0  0  0  0  0  0
  191.4880  175.4350  144.5330 C   0  0  0  0  0  0  0  0  0  0  0  0
  192.6370  175.4910  146.7440 C   0  0  0  0  0  2  0  0  0  0  0  0
  187.8630  174.0350  141.9420 C   0  0  0  0  0  3  0  0  0  0  0  0
  187.4530  176.0330  143.2710 C   0  0  0  0  0  3  0  0  0  0  0  0
  192.4110  176.2300  145.3840 C   0  0  0  0  0  2  0  0  0  0  0  0
  195.3680  174.3360  142.0820 C   0  0  0  0  0  0  0  0  0  0  0  0
  193.1200  174.9150  140.9030 C   0  0  0  0  0  2  0  0  0  0  0  0
  188.4420  175.3800  142.3160 C   0  0  0  0  0  0  0  0  0  0  0  0
  191.8270  174.5500  143.6130 C   0  0  0  0  0  0  0  0  0  0  0  0
  189.3660  176.4670  146.5620 C   0  0  0  0  0  2  0  0  0  0  0  0
  189.8270  173.2510  140.5850 C   0  0  0  0  0  0  0  0  0  0  0  0
  191.4720  175.7200  147.7250 C   0  0  0  0  0  2  0  0  0  0  0  0
  193.9360  174.8430  142.1930 C   0  0  1  0  0  3  0  0  0  0  0  0
  196.9900  175.4450  140.4340 O   0  0  0  0  0  0  0  0  0  0  0  0
  193.2380  174.1380  143.3930 C   0  0  2  0  0  3  0  0  0  0  0  0
  188.4890  173.1460  141.1720 C   0  0  0  0  0  3  0  0  0  0  0  0
  189.7580  173.6700  138.1570 C   0  0  0  0  0  3  0  0  0  0  0  0
  189.9270  172.7460  139.2120 C   0  0  0  0  0  0  0  0  0  0  0  0
  189.9540  171.3670  138.9400 C   0  0  0  0  0  3  0  0  0  0  0  0
  189.7750  169.5780  137.3930 F   0  0  0  0  0  0  0  0  0  0  0  0
  189.6130  171.8420  136.5810 C   0  0  0  0  0  3  0  0  0  0  0  0
  189.7990  170.9130  137.6370 C   0  0  0  0  0  0  0  0  0  0  0  0
  189.5900  173.2150  136.8580 C   0  0  0  0  0  3  0  0  0  0  0  0
  195.9730  173.9320  145.8390 C   0  0  0  0  0  1  0  0  0  0  0  0
  194.9440  172.8710  145.4860 C   0  0  0  0  0  2  0  0  0  0  0  0
  1  4  1  0  0  0  0
  2 24  1  0  0  0  0
  3  9  1  0  0  0  0
  4 37  1  1  0  0  0
  5 19  1  0  0  0  0
  5 10  1  0  0  0  0
  6 22  1  0  0  0  0
  7 10  1  6  0  0  0
  7  3  1  0  0  0  0
  7 21  1  0  0  0  0
  8 18  2  0  0  0  0
  9 13  1  0  0  0  0
  9  6  2  0  0  0  0
 11  6  1  0  0  0  0
 12  4  1  0  0  0  0
 13 17  1  0  0  0  0
 14 24  1  0  0  0  0
 15 20  1  0  0  0  0
 16 11  2  0  0  0  0
 17 14  1  0  0  0  0
 18 25  1  0  0  0  0
 18 12  1  0  0  0  0
 20  3  2  0  0  0  0
 20 16  1  0  0  0  0
 21 13  2  0  0  0  0
 22  2  1  0  0  0  0
 23 28  1  0  0  0  0
 23 10  2  0  0  0  0
 25 19  1  6  0  0  0
 25 27  1  0  0  0  0
 26  8  2  0  0  0  0
 27  1  1  6  0  0  0
 27 21  1  0  0  0  0
 28 15  2  0  0  0  0
 29 30  1  0  0  0  0
 30 23  1  0  0  0  0
 31 30  2  0  0  0  0
 32 34  1  0  0  0  0
 33 35  1  0  0  0  0
 33 34  2  0  0  0  0
 34 31  1  0  0  0  0
 35 29  2  0  0  0  0
 37 36  1  0  0  0  0
M  END
>  <MODEL>
5

>  <REMARK>
 VINA RESULT:      -8.5      3.045      6.935
  Name = 
  2 active torsions:
  status: ('A' for Active; 'I' for Inactive)
    1  A    between atoms: C_5  and  C_23
    2  A    between atoms: C_6  and  C_31
                            x       y       z     vdW  Elec       q    Type
                         _______ _______ _______ _____ _____    ______ ____

>  <TORSDO>
F 2

$$$$
=
 OpenBabel11052419523D

 37 43  0  0  1  0  0  0  0  0999 V2000
  191.2500  174.2780  146.4570 C   0  0  0  0  0  2  0  0  0  0  0  0
  187.9390  173.0350  141.8800 C   0  0  0  0  0  2  0  0  0  0  0  0
  191.9700  171.8730  142.6190 C   0  0  0  0  0  0  0  0  0  0  0  0
  190.8370  175.6230  147.0590 C   0  0  1  0  0  3  0  0  0  0  0  0
  194.0910  172.9990  145.5160 C   0  0  0  0  0  2  0  0  0  0  0  0
  190.1980  172.2250  140.9660 C   0  0  0  0  0  0  0  0  0  0  0  0
  192.1730  172.3130  143.8570 C   0  0  1  0  0  3  0  0  0  0  0  0
  194.1510  177.1160  146.0870 C   0  0  0  0  0  0  0  0  0  0  0  0
  190.9150  172.6570  142.0040 C   0  0  0  0  0  0  0  0  0  0  0  0
  193.3550  171.9470  144.6940 C   0  0  0  0  0  0  0  0  0  0  0  0
  190.6280  170.9430  140.3470 C   0  0  0  0  0  3  0  0  0  0  0  0
  191.8200  176.7880  146.6740 C   0  0  0  0  0  2  0  0  0  0  0  0
  190.7020  173.8060  142.8760 C   0  0  0  0  0  0  0  0  0  0  0  0
  188.6960  175.2840  142.9260 C   0  0  0  0  0  2  0  0  0  0  0  0
  192.5000  169.4960  142.9500 C   0  0  0  0  0  3  0  0  0  0  0  0
  191.7000  170.2290  140.7710 C   0  0  0  0  0  3  0  0  0  0  0  0
  190.1740  175.1250  142.4390 C   0  0  0  0  0  2  0  0  0  0  0  0
  193.1320  176.3070  146.0560 C   0  0  0  0  0  0  0  0  0  0  0  0
  194.2090  174.3230  144.7600 C   0  0  0  0  0  2  0  0  0  0  0  0
  192.5400  170.6450  141.9700 C   0  0  0  0  0  0  0  0  0  0  0  0
  191.3900  173.5570  143.9770 C   0  0  0  0  0  0  0  0  0  0  0  0
  188.8220  172.7540  140.6310 C   0  0  0  0  0  2  0  0  0  0  0  0
  193.7830  170.6440  144.7810 C   0  0  0  0  0  0  0  0  0  0  0  0
  187.7040  174.5390  142.0130 C   0  0  0  0  0  2  0  0  0  0  0  0
  193.0250  175.2700  144.9450 C   0  0  1  0  0  3  0  0  0  0  0  0
  195.1520  177.8850  146.1370 O   0  0  0  0  0  0  0  0  0  0  0  0
  191.6240  174.5930  145.0150 C   0  0  2  0  0  3  0  0  0  0  0  0
  193.0680  169.5290  144.1550 C   0  0  0  0  0  3  0  0  0  0  0  0
  196.2370  170.4430  144.9070 C   0  0  0  0  0  3  0  0  0  0  0  0
  194.9830  170.2520  145.5280 C   0  0  0  0  0  0  0  0  0  0  0  0
  194.8920  169.5000  146.7120 C   0  0  0  0  0  3  0  0  0  0  0  0
  195.9290  168.1660  148.3770 F   0  0  0  0  0  0  0  0  0  0  0  0
  197.2900  169.1120  146.6280 C   0  0  0  0  0  3  0  0  0  0  0  0
  196.0350  168.9320  147.2620 C   0  0  0  0  0  0  0  0  0  0  0  0
  197.3740  169.8650  145.4500 C   0  0  0  0  0  3  0  0  0  0  0  0
  189.4780  177.4040  145.9370 C   0  0  0  0  0  1  0  0  0  0  0  0
  189.4420  175.9890  146.4920 C   0  0  0  0  0  2  0  0  0  0  0  0
  1  4  1  0  0  0  0
  2 24  1  0  0  0  0
  4 37  1  6  0  0  0
  6  9  1  0  0  0  0
  7  3  1  6  0  0  0
  7 21  1  0  0  0  0
  7 10  1  0  0  0  0
  8 26  2  0  0  0  0
  9  3  2  0  0  0  0
  9 13  1  0  0  0  0
 10 23  2  0  0  0  0
 10  5  1  0  0  0  0
 11 16  1  0  0  0  0
 11  6  2  0  0  0  0
 12  4  1  0  0  0  0
 13 21  2  0  0  0  0
 15 28  2  0  0  0  0
 16 20  2  0  0  0  0
 17 13  1  0  0  0  0
 17 14  1  0  0  0  0
 18  8  2  0  0  0  0
 18 12  1  0  0  0  0
 19  5  1  0  0  0  0
 20  3  1  0  0  0  0
 20 15  1  0  0  0  0
 21 27  1  0  0  0  0
 22  6  1  0  0  0  0
 22  2  1  0  0  0  0
 23 30  1  0  0  0  0
 24 14  1  0  0  0  0
 25 19  1  1  0  0  0
 25 27  1  0  0  0  0
 25 18  1  0  0  0  0
 27  1  1  1  0  0  0
 28 23  1  0  0  0  0
 29 35  2  0  0  0  0
 29 30  1  0  0  0  0
 30 31  2  0  0  0  0
 31 34  1  0  0  0  0
 33 34  2  0  0  0  0
 34 32  1  0  0  0  0
 35 33  1  0  0  0  0
 36 37  1  0  0  0  0
M  END
>  <MODEL>
6

>  <REMARK>
 VINA RESULT:      -8.4      3.590      8.310
  Name = 
  2 active torsions:
  status: ('A' for Active; 'I' for Inactive)
    1  A    between atoms: C_5  and  C_23
    2  A    between atoms: C_6  and  C_31
                            x       y       z     vdW  Elec       q    Type
                         _______ _______ _______ _____ _____    ______ ____

>  <TORSDO>
F 2

$$$$
=
 OpenBabel11052419523D

 37 43  0  0  1  0  0  0  0  0999 V2000
  192.9080  176.7960  144.4900 C   0  0  0  0  0  2  0  0  0  0  0  0
  194.0920  171.6210  142.1930 C   0  0  0  0  0  2  0  0  0  0  0  0
  190.2940  173.2390  143.2440 C   0  0  0  0  0  0  0  0  0  0  0  0
  194.0810  177.2750  145.3470 C   0  0  1  0  0  3  0  0  0  0  0  0
  189.7050  176.5140  144.9990 C   0  0  0  0  0  2  0  0  0  0  0  0
  191.6250  171.2330  142.7900 C   0  0  0  0  0  0  0  0  0  0  0  0
  190.5990  174.4850  143.5900 C   0  0  1  0  0  3  0  0  0  0  0  0
  191.9650  177.0340  148.4480 C   0  0  0  0  0  0  0  0  0  0  0  0
  191.4640  172.3970  143.4200 C   0  0  0  0  0  0  0  0  0  0  0  0
  189.5920  175.5650  143.8110 C   0  0  0  0  0  0  0  0  0  0  0  0
  190.4670  170.7400  141.9970 C   0  0  0  0  0  3  0  0  0  0  0  0
  193.8210  177.1010  146.8860 C   0  0  0  0  0  2  0  0  0  0  0  0
  192.4210  173.1880  144.1860 C   0  0  0  0  0  0  0  0  0  0  0  0
  194.8720  172.7790  144.3780 C   0  0  0  0  0  2  0  0  0  0  0  0
  188.6520  173.7070  141.4780 C   0  0  0  0  0  3  0  0  0  0  0  0
  189.2840  171.3970  141.9100 C   0  0  0  0  0  3  0  0  0  0  0  0
  193.4770  172.6290  145.0700 C   0  0  0  0  0  2  0  0  0  0  0  0
  192.3660  176.7900  147.2340 C   0  0  0  0  0  0  0  0  0  0  0  0
  190.1700  175.7860  146.2600 C   0  0  0  0  0  2  0  0  0  0  0  0
  189.0440  172.7450  142.5740 C   0  0  0  0  0  0  0  0  0  0  0  0
  191.9320  174.4150  144.2180 C   0  0  0  0  0  0  0  0  0  0  0  0
  192.9770  170.5990  142.5510 C   0  0  0  0  0  2  0  0  0  0  0  0
  188.5590  175.7600  142.9250 C   0  0  0  0  0  0  0  0  0  0  0  0
  195.1150  171.6800  143.3270 C   0  0  0  0  0  2  0  0  0  0  0  0
  191.6870  175.6960  146.4200 C   0  0  1  0  0  3  0  0  0  0  0  0
  191.5620  177.2920  149.6170 O   0  0  0  0  0  0  0  0  0  0  0  0
  192.4920  175.4670  145.1060 C   0  0  2  0  0  3  0  0  0  0  0  0
  188.4320  175.0060  141.6750 C   0  0  0  0  0  3  0  0  0  0  0  0
  187.6010  177.9800  142.4450 C   0  0  0  0  0  3  0  0  0  0  0  0
  187.5050  176.7560  143.1430 C   0  0  0  0  0  0  0  0  0  0  0  0
  186.5630  176.6080  144.1750 C   0  0  0  0  0  3  0  0  0  0  0  0
  184.8660  177.5340  145.5510 F   0  0  0  0  0  0  0  0  0  0  0  0
  185.8460  178.9040  143.8270 C   0  0  0  0  0  3  0  0  0  0  0  0
  185.7370  177.6710  144.5190 C   0  0  0  0  0  0  0  0  0  0  0  0
  186.7850  179.0440  142.7980 C   0  0  0  0  0  3  0  0  0  0  0  0
  195.5110  176.4170  143.4780 C   0  0  0  0  0  1  0  0  0  0  0  0
  195.3170  176.4120  144.9850 C   0  0  0  0  0  2  0  0  0  0  0  0
  1  4  1  0  0  0  0
  2 22  1  0  0  0  0
  2 24  1  0  0  0  0
  3  9  2  0  0  0  0
  4 37  1  6  0  0  0
  4 12  1  0  0  0  0
  5 19  1  0  0  0  0
  6  9  1  0  0  0  0
  7  3  1  1  0  0  0
  7 10  1  0  0  0  0
  7 21  1  0  0  0  0
  8 26  2  0  0  0  0
  9 13  1  0  0  0  0
 10  5  1  0  0  0  0
 11  6  2  0  0  0  0
 12 18  1  0  0  0  0
 13 21  2  0  0  0  0
 13 17  1  0  0  0  0
 14 17  1  0  0  0  0
 15 28  2  0  0  0  0
 15 20  1  0  0  0  0
 16 11  1  0  0  0  0
 16 20  2  0  0  0  0
 18  8  2  0  0  0  0
 20  3  1  0  0  0  0
 21 27  1  0  0  0  0
 22  6  1  0  0  0  0
 23 30  1  0  0  0  0
 23 10  2  0  0  0  0
 24 14  1  0  0  0  0
 25 19  1  6  0  0  0
 25 18  1  0  0  0  0
 27  1  1  6  0  0  0
 27 25  1  0  0  0  0
 28 23  1  0  0  0  0
 29 35  2  0  0  0  0
 29 30  1  0  0  0  0
 30 31  2  0  0  0  0
 31 34  1  0  0  0  0
 33 34  2  0  0  0  0
 34 32  1  0  0  0  0
 35 33  1  0  0  0  0
 36 37  1  0  0  0  0
M  END
>  <MODEL>
7

>  <REMARK>
 VINA RESULT:      -8.3      2.365      5.475
  Name = 
  2 active torsions:
  status: ('A' for Active; 'I' for Inactive)
    1  A    between atoms: C_5  and  C_23
    2  A    between atoms: C_6  and  C_31
                            x       y       z     vdW  Elec       q    Type
                         _______ _______ _______ _____ _____    ______ ____

>  <TORSDO>
F 2

$$$$
=
 OpenBabel11052419523D

 37 43  0  0  1  0  0  0  0  0999 V2000
  192.5000  176.3550  143.4200 C   0  0  0  0  0  2  0  0  0  0  0  0
  193.2830  172.3070  139.3630 C   0  0  0  0  0  2  0  0  0  0  0  0
  189.6380  173.5570  141.1800 C   0  0  0  0  0  0  0  0  0  0  0  0
  193.7420  176.4620  144.3070 C   0  0  1  0  0  3  0  0  0  0  0  0
  189.3190  176.0080  144.0170 C   0  0  0  0  0  2  0  0  0  0  0  0
  190.8340  171.8070  139.9540 C   0  0  0  0  0  0  0  0  0  0  0  0
  190.0270  174.5880  141.9230 C   0  0  1  0  0  3  0  0  0  0  0  0
  191.7870  175.1940  147.2610 C   0  0  0  0  0  0  0  0  0  0  0  0
  190.7690  172.6740  140.9650 C   0  0  0  0  0  0  0  0  0  0  0  0
  189.0910  175.5480  142.5810 C   0  0  0  0  0  0  0  0  0  0  0  0
  189.6110  171.6630  139.1200 C   0  0  0  0  0  3  0  0  0  0  0  0
  193.5570  175.7580  145.6990 C   0  0  0  0  0  2  0  0  0  0  0  0
  191.8070  173.1100  141.8930 C   0  0  0  0  0  0  0  0  0  0  0  0
  194.2390  172.5850  141.7570 C   0  0  0  0  0  2  0  0  0  0  0  0
  187.9290  174.6740  139.8130 C   0  0  0  0  0  3  0  0  0  0  0  0
  188.4610  172.3440  139.3540 C   0  0  0  0  0  3  0  0  0  0  0  0
  192.8780  172.2410  142.4470 C   0  0  0  0  0  2  0  0  0  0  0  0
  192.1080  175.3880  146.0150 C   0  0  0  0  0  0  0  0  0  0  0  0
  189.8130  174.8640  144.9030 C   0  0  0  0  0  2  0  0  0  0  0  0
  188.3290  173.3730  140.4670 C   0  0  0  0  0  0  0  0  0  0  0  0
  191.3860  174.2590  142.3910 C   0  0  0  0  0  0  0  0  0  0  0  0
  192.1360  171.2580  139.4130 C   0  0  0  0  0  2  0  0  0  0  0  0
  188.0240  176.0770  141.8960 C   0  0  0  0  0  0  0  0  0  0  0  0
  194.3670  171.9270  140.3700 C   0  0  0  0  0  2  0  0  0  0  0  0
  191.3290  174.6770  144.9150 C   0  0  1  0  0  3  0  0  0  0  0  0
  191.4620  175.0310  148.4710 O   0  0  0  0  0  0  0  0  0  0  0  0
  192.0480  174.9070  143.5520 C   0  0  2  0  0  3  0  0  0  0  0  0
  187.7890  175.8230  140.4710 C   0  0  0  0  0  3  0  0  0  0  0  0
  187.0730  178.3320  142.1880 C   0  0  0  0  0  3  0  0  0  0  0  0
  187.0370  176.9610  142.5240 C   0  0  0  0  0  0  0  0  0  0  0  0
  186.2390  176.5210  143.5940 C   0  0  0  0  0  3  0  0  0  0  0  0
  184.7700  177.0070  145.3920 F   0  0  0  0  0  0  0  0  0  0  0  0
  185.5470  178.8150  144.0000 C   0  0  0  0  0  3  0  0  0  0  0  0
  185.4970  177.4360  144.3300 C   0  0  0  0  0  0  0  0  0  0  0  0
  186.3430  179.2470  142.9320 C   0  0  0  0  0  3  0  0  0  0  0  0
  194.9820  176.2400  142.1420 C   0  0  0  0  0  1  0  0  0  0  0  0
  194.9090  175.7480  143.5780 C   0  0  0  0  0  2  0  0  0  0  0  0
  1  4  1  0  0  0  0
  2 22  1  0  0  0  0
  2 24  1  0  0  0  0
  4 37  1  6  0  0  0
  4 12  1  0  0  0  0
  5 19  1  0  0  0  0
  6  9  1  0  0  0  0
  7  3  1  1  0  0  0
  7 21  1  0  0  0  0
  7 10  1  0  0  0  0
  8 26  2  0  0  0  0
  9  3  2  0  0  0  0
  9 13  1  0  0  0  0
 10  5  1  0  0  0  0
 11 16  1  0  0  0  0
 11  6  2  0  0  0  0
 12 18  1  0  0  0  0
 13 21  2  0  0  0  0
 13 17  1  0  0  0  0
 14 17  1  0  0  0  0
 15 20  1  0  0  0  0
 15 28  2  0  0  0  0
 16 20  2  0  0  0  0
 18  8  2  0  0  0  0
 20  3  1  0  0  0  0
 21 27  1  0  0  0  0
 22  6  1  0  0  0  0
 23 30  1  0  0  0  0
 23 10  2  0  0  0  0
 24 14  1  0  0  0  0
 25 19  1  6  0  0  0
 25 18  1  0  0  0  0
 27  1  1  6  0  0  0
 27 25  1  0  0  0  0
 28 23  1  0  0  0  0
 29 30  2  0  0  0  0
 29 35  1  0  0  0  0
 30 31  1  0  0  0  0
 31 34  2  0  0  0  0
 33 34  1  0  0  0  0
 34 32  1  0  0  0  0
 35 33  2  0  0  0  0
 36 37  1  0  0  0  0
M  END
>  <MODEL>
8

>  <REMARK>
 VINA RESULT:      -8.1      2.466      5.646
  Name = 
  2 active torsions:
  status: ('A' for Active; 'I' for Inactive)
    1  A    between atoms: C_5  and  C_23
    2  A    between atoms: C_6  and  C_31
                            x       y       z     vdW  Elec       q    Type
                         _______ _______ _______ _____ _____    ______ ____

>  <TORSDO>
F 2

$$$$
=
 OpenBabel11052419523D

 37 43  0  0  1  0  0  0  0  0999 V2000
  188.9910  174.7640  145.3570 C   0  0  0  0  0  2  0  0  0  0  0  0
  185.0850  177.5490  142.1240 C   0  0  0  0  0  2  0  0  0  0  0  0
  188.4670  175.3030  140.8320 C   0  0  0  0  0  0  0  0  0  0  0  0
  189.1460  175.4560  146.7120 C   0  0  1  0  0  3  0  0  0  0  0  0
  191.0860  173.7840  143.0660 C   0  0  0  0  0  2  0  0  0  0  0  0
  186.8120  177.0270  140.2970 C   0  0  0  0  0  0  0  0  0  0  0  0
  188.9180  174.7840  141.9700 C   0  0  1  0  0  3  0  0  0  0  0  0
  192.6830  176.4170  145.8590 C   0  0  0  0  0  0  0  0  0  0  0  0
  187.7210  176.5130  141.1260 C   0  0  0  0  0  0  0  0  0  0  0  0
  189.9520  173.7100  142.0500 C   0  0  0  0  0  0  0  0  0  0  0  0
  186.6940  176.3880  138.9590 C   0  0  0  0  0  3  0  0  0  0  0  0
  190.4480  176.3310  146.8020 C   0  0  0  0  0  2  0  0  0  0  0  0
  188.0130  176.8430  142.5160 C   0  0  0  0  0  0  0  0  0  0  0  0
  186.6900  178.3500  143.9960 C   0  0  0  0  0  2  0  0  0  0  0  0
  188.1240  173.2310  139.5580 C   0  0  0  0  0  3  0  0  0  0  0  0
  187.4650  175.3480  138.5550 C   0  0  0  0  0  3  0  0  0  0  0  0
  187.9640  178.2090  143.0990 C   0  0  0  0  0  2  0  0  0  0  0  0
  191.4410  176.0770  145.6680 C   0  0  0  0  0  0  0  0  0  0  0  0
  191.6130  175.2120  143.2190 C   0  0  0  0  0  2  0  0  0  0  0  0
  188.4970  174.6920  139.4610 C   0  0  0  0  0  0  0  0  0  0  0  0
  188.6520  175.7970  143.0090 C   0  0  0  0  0  0  0  0  0  0  0  0
  185.6980  177.9440  140.7510 C   0  0  0  0  0  2  0  0  0  0  0  0
  189.8850  172.6030  141.2380 C   0  0  0  0  0  0  0  0  0  0  0  0
  185.4230  178.6180  143.1620 C   0  0  0  0  0  2  0  0  0  0  0  0
  190.8720  176.0560  144.2550 C   0  0  1  0  0  3  0  0  0  0  0  0
  193.8950  176.7190  146.0460 O   0  0  0  0  0  0  0  0  0  0  0  0
  189.3320  175.8350  144.3290 C   0  0  2  0  0  3  0  0  0  0  0  0
  188.7640  172.3520  140.3270 C   0  0  0  0  0  3  0  0  0  0  0  0
  191.9440  171.6630  140.2630 C   0  0  0  0  0  3  0  0  0  0  0  0
  190.9180  171.5630  141.2280 C   0  0  0  0  0  0  0  0  0  0  0  0
  190.7770  170.3860  141.9840 C   0  0  0  0  0  3  0  0  0  0  0  0
  191.4610  168.1670  142.4690 F   0  0  0  0  0  0  0  0  0  0  0  0
  192.6570  169.4130  140.7890 C   0  0  0  0  0  3  0  0  0  0  0  0
  191.6380  169.3160  141.7700 C   0  0  0  0  0  0  0  0  0  0  0  0
  192.7930  170.5900  140.0410 C   0  0  0  0  0  3  0  0  0  0  0  0
  188.4380  177.7980  147.2520 C   0  0  0  0  0  1  0  0  0  0  0  0
  187.9360  176.4070  146.9020 C   0  0  0  0  0  2  0  0  0  0  0  0
  1  4  1  0  0  0  0
  2 24  1  0  0  0  0
  3  9  2  0  0  0  0
  4 12  1  0  0  0  0
  4 37  1  6  0  0  0
  5 19  1  0  0  0  0
  6 22  1  0  0  0  0
  6  9  1  0  0  0  0
  7  3  1  6  0  0  0
  7 10  1  0  0  0  0
  7 21  1  0  0  0  0
  8 26  2  0  0  0  0
  9 13  1  0  0  0  0
 10  5  1  0  0  0  0
 11  6  2  0  0  0  0
 13 21  2  0  0  0  0
 13 17  1  0  0  0  0
 15 28  2  0  0  0  0
 16 11  1  0  0  0  0
 16 20  2  0  0  0  0
 17 14  1  0  0  0  0
 18  8  2  0  0  0  0
 18 12  1  0  0  0  0
 20 15  1  0  0  0  0
 20  3  1  0  0  0  0
 21 27  1  0  0  0  0
 22  2  1  0  0  0  0
 23 10  2  0  0  0  0
 24 14  1  0  0  0  0
 25 19  1  6  0  0  0
 25 27  1  0  0  0  0
 25 18  1  0  0  0  0
 27  1  1  6  0  0  0
 28 23  1  0  0  0  0
 29 30  1  0  0  0  0
 30 23  1  0  0  0  0
 30 31  2  0  0  0  0
 33 34  2  0  0  0  0
 34 31  1  0  0  0  0
 34 32  1  0  0  0  0
 35 29  2  0  0  0  0
 35 33  1  0  0  0  0
 37 36  1  0  0  0  0
M  END
>  <MODEL>
9

>  <REMARK>
 VINA RESULT:      -8.0      3.210      8.327
  Name = 
  2 active torsions:
  status: ('A' for Active; 'I' for Inactive)
    1  A    between atoms: C_5  and  C_23
    2  A    between atoms: C_6  and  C_31
                            x       y       z     vdW  Elec       q    Type
                         _______ _______ _______ _____ _____    ______ ____

>  <TORSDO>
F 2

$$$$
