=
 OpenBabel11052417343D

 25 28  0  0  0  0  0  0  0  0999 V2000
  186.4300  177.8060  143.8710 N   0  0  0  0  0  0  0  0  0  0  0  0
  185.7170  177.8810  142.7100 C   0  0  0  0  0  0  0  0  0  0  0  0
  188.4610  177.4130  142.6970 C   0  0  0  0  0  3  0  0  0  0  0  0
  186.0640  177.9210  145.1600 C   0  0  0  0  0  0  0  0  0  0  0  0
  183.6390  178.1870  141.4910 C   0  0  0  0  0  0  0  0  0  0  0  0
  185.8050  178.0750  147.9150 C   0  0  0  0  0  3  0  0  0  0  0  0
  187.7670  177.4850  141.5270 N   0  0  0  0  0  0  0  0  0  0  0  0
  187.1680  177.7650  145.9690 C   0  0  0  0  0  0  0  0  0  0  0  0
  187.0730  177.8370  147.3570 C   0  0  0  0  0  3  0  0  0  0  0  0
  184.3390  178.1170  142.7000 C   0  0  0  0  0  3  0  0  0  0  0  0
  184.6730  178.2350  147.0870 C   0  0  0  0  0  3  0  0  0  0  0  0
  187.7620  177.5790  143.8870 C   0  0  0  0  0  0  0  0  0  0  0  0
  188.2850  177.5420  145.1780 C   0  0  0  0  0  3  0  0  0  0  0  0
  185.7110  177.7850  140.2600 C   0  0  0  0  0  0  0  0  0  0  0  0
  184.7940  178.1580  145.6890 C   0  0  0  0  0  3  0  0  0  0  0  0
  184.3330  178.0210  140.2860 C   0  0  0  0  0  3  0  0  0  0  0  0
  186.4180  177.7130  141.4880 C   0  0  0  0  0  0  0  0  0  0  0  0
  179.9690  178.1220  140.2750 C   0  0  0  0  0  0  0  0  0  0  0  0
  179.3130  177.5980  139.1700 O   0  0  0  0  0  0  0  0  0  0  0  0
  179.3100  178.7410  141.1520 O   0  0  0  0  0  1  0  0  0  0  0  0
  182.1860  178.4350  141.4850 C   0  0  0  0  0  0  0  0  0  0  0  0
  181.3850  177.9490  140.4000 N   0  0  0  0  0  2  0  0  0  0  0  0
  181.6550  179.0750  142.4340 O   0  0  0  0  0  0  0  0  0  0  0  0
  186.3050  177.6320  138.9970 O   0  0  0  0  0  0  0  0  0  0  0  0
  186.4910  176.3960  138.3230 C   0  0  0  0  0  1  0  0  0  0  0  0
  1 12  1  0  0  0  0
  1  4  1  0  0  0  0
  2  1  1  0  0  0  0
  3 12  1  0  0  0  0
  4 15  2  0  0  0  0
  4  8  1  0  0  0  0
  5 10  2  0  0  0  0
  7  3  2  0  0  0  0
  8  9  2  0  0  0  0
  9  6  1  0  0  0  0
 10  2  1  0  0  0  0
 11  6  2  0  0  0  0
 12 13  2  0  0  0  0
 13  8  1  0  0  0  0
 14 16  2  0  0  0  0
 14 17  1  0  0  0  0
 15 11  1  0  0  0  0
 16  5  1  0  0  0  0
 17  7  1  0  0  0  0
 17  2  2  0  0  0  0
 18 22  1  0  0  0  0
 18 20  1  0  0  0  0
 19 18  2  0  0  0  0
 21  5  1  0  0  0  0
 21 23  2  0  0  0  0
 22 21  1  0  0  0  0
 24 14  1  0  0  0  0
 25 24  1  0  0  0  0
M  END
>  <MODEL>
1

>  <REMARK>
 VINA RESULT:      -8.0      0.000      0.000
  Name = 
  2 active torsions:
  status: ('A' for Active; 'I' for Inactive)
    1  A    between atoms: C_6  and  C_15
    2  A    between atoms: O_13  and  C_20
                            x       y       z     vdW  Elec       q    Type
                         _______ _______ _______ _____ _____    ______ ____

>  <TORSDO>
F 2

$$$$
=
 OpenBabel11052417343D

 25 28  0  0  0  0  0  0  0  0999 V2000
  187.2980  176.4840  145.2810 N   0  0  0  0  0  0  0  0  0  0  0  0
  188.0260  175.8520  144.3160 C   0  0  0  0  0  0  0  0  0  0  0  0
  188.7500  175.7170  147.0000 C   0  0  0  0  0  3  0  0  0  0  0  0
  186.1880  177.2410  145.2180 C   0  0  0  0  0  0  0  0  0  0  0  0
  188.4460  175.2500  142.0010 C   0  0  0  0  0  0  0  0  0  0  0  0
  183.9510  178.8340  145.5970 C   0  0  0  0  0  3  0  0  0  0  0  0
  189.4910  175.0780  146.0520 N   0  0  0  0  0  0  0  0  0  0  0  0
  185.8380  177.6540  146.4850 C   0  0  0  0  0  0  0  0  0  0  0  0
  184.7210  178.4540  146.7100 C   0  0  0  0  0  3  0  0  0  0  0  0
  187.6760  175.9110  142.9640 C   0  0  0  0  0  3  0  0  0  0  0  0
  184.3080  178.4120  144.2980 C   0  0  0  0  0  3  0  0  0  0  0  0
  187.6310  176.4310  146.5890 C   0  0  0  0  0  0  0  0  0  0  0  0
  186.7510  177.1480  147.3970 C   0  0  0  0  0  3  0  0  0  0  0  0
  189.9540  174.4470  143.7480 C   0  0  0  0  0  0  0  0  0  0  0  0
  185.4400  177.6040  144.0960 C   0  0  0  0  0  3  0  0  0  0  0  0
  189.5750  174.5270  142.4040 C   0  0  0  0  0  3  0  0  0  0  0  0
  189.1710  175.1180  144.7220 C   0  0  0  0  0  0  0  0  0  0  0  0
  188.1660  174.2020  138.2890 C   0  0  0  0  0  0  0  0  0  0  0  0
  188.6070  173.1190  137.5420 O   0  0  0  0  0  0  0  0  0  0  0  0
  187.5110  175.1190  137.7270 O   0  0  0  0  0  1  0  0  0  0  0  0
  188.0720  175.3150  140.5770 C   0  0  0  0  0  0  0  0  0  0  0  0
  188.4650  174.2590  139.6890 N   0  0  0  0  0  2  0  0  0  0  0  0
  187.4100  176.2980  140.1460 O   0  0  0  0  0  0  0  0  0  0  0  0
  191.1020  173.6950  144.0400 O   0  0  0  0  0  0  0  0  0  0  0  0
  191.1280  172.2930  144.2650 C   0  0  0  0  0  1  0  0  0  0  0  0
  1 12  1  0  0  0  0
  2 17  1  0  0  0  0
  2  1  1  0  0  0  0
  4  1  1  0  0  0  0
  4  8  1  0  0  0  0
  5 16  2  0  0  0  0
  5 10  1  0  0  0  0
  6  9  1  0  0  0  0
  7  3  2  0  0  0  0
  8  9  2  0  0  0  0
  8 13  1  0  0  0  0
 10  2  2  0  0  0  0
 11  6  2  0  0  0  0
 12  3  1  0  0  0  0
 12 13  2  0  0  0  0
 14 24  1  0  0  0  0
 14 17  2  0  0  0  0
 15 11  1  0  0  0  0
 15  4  2  0  0  0  0
 16 14  1  0  0  0  0
 17  7  1  0  0  0  0
 18 22  1  0  0  0  0
 19 18  2  0  0  0  0
 20 18  1  0  0  0  0
 21  5  1  0  0  0  0
 22 21  1  0  0  0  0
 23 21  2  0  0  0  0
 24 25  1  0  0  0  0
M  END
>  <MODEL>
2

>  <REMARK>
 VINA RESULT:      -7.6      3.949      5.837
  Name = 
  2 active torsions:
  status: ('A' for Active; 'I' for Inactive)
    1  A    between atoms: C_6  and  C_15
    2  A    between atoms: O_13  and  C_20
                            x       y       z     vdW  Elec       q    Type
                         _______ _______ _______ _____ _____    ______ ____

>  <TORSDO>
F 2

$$$$
=
 OpenBabel11052417343D

 25 28  0  0  0  0  0  0  0  0999 V2000
  185.7410  177.6010  143.8460 N   0  0  0  0  0  0  0  0  0  0  0  0
  186.4580  177.0750  142.8110 C   0  0  0  0  0  0  0  0  0  0  0  0
  184.2370  178.6920  142.3630 C   0  0  0  0  0  3  0  0  0  0  0  0
  185.8840  177.5030  145.1800 C   0  0  0  0  0  0  0  0  0  0  0  0
  188.2850  175.7380  141.9350 C   0  0  0  0  0  0  0  0  0  0  0  0
  185.7660  177.6010  147.9480 C   0  0  0  0  0  3  0  0  0  0  0  0
  184.9390  178.1760  141.3150 N   0  0  0  0  0  0  0  0  0  0  0  0
  184.8940  178.2270  145.8050 C   0  0  0  0  0  0  0  0  0  0  0  0
  184.8050  178.2980  147.1930 C   0  0  0  0  0  3  0  0  0  0  0  0
  187.5740  176.2600  143.0200 C   0  0  0  0  0  3  0  0  0  0  0  0
  186.7810  176.8580  147.3090 C   0  0  0  0  0  3  0  0  0  0  0  0
  184.6610  178.3890  143.6510 C   0  0  0  0  0  0  0  0  0  0  0  0
  184.0840  178.8150  144.8450 C   0  0  0  0  0  3  0  0  0  0  0  0
  186.7540  176.8470  140.3880 C   0  0  0  0  0  0  0  0  0  0  0  0
  186.8500  176.8020  145.9060 C   0  0  0  0  0  3  0  0  0  0  0  0
  187.8670  176.0360  140.6330 C   0  0  0  0  0  3  0  0  0  0  0  0
  186.0360  177.3770  141.4900 C   0  0  0  0  0  0  0  0  0  0  0  0
  191.1480  173.9580  143.8310 C   0  0  0  0  0  0  0  0  0  0  0  0
  191.5760  173.9250  145.1500 O   0  0  0  0  0  1  0  0  0  0  0  0
  191.7630  173.2850  142.9620 O   0  0  0  0  0  0  0  0  0  0  0  0
  189.4630  174.8800  142.1600 C   0  0  0  0  0  0  0  0  0  0  0  0
  190.0120  174.7550  143.4790 N   0  0  0  0  0  2  0  0  0  0  0  0
  189.9810  174.2590  141.1920 O   0  0  0  0  0  0  0  0  0  0  0  0
  186.4240  177.0830  139.0440 O   0  0  0  0  0  0  0  0  0  0  0  0
  186.6660  176.1840  137.9720 C   0  0  0  0  0  1  0  0  0  0  0  0
  1  4  1  0  0  0  0
  2 10  1  0  0  0  0
  2  1  1  0  0  0  0
  3 12  1  0  0  0  0
  4  8  2  0  0  0  0
  4 15  1  0  0  0  0
  5 21  1  0  0  0  0
  5 10  2  0  0  0  0
  7 17  1  0  0  0  0
  7  3  2  0  0  0  0
  8  9  1  0  0  0  0
  9  6  2  0  0  0  0
 11  6  1  0  0  0  0
 12  1  1  0  0  0  0
 12 13  2  0  0  0  0
 13  8  1  0  0  0  0
 14 16  2  0  0  0  0
 14 17  1  0  0  0  0
 15 11  2  0  0  0  0
 16  5  1  0  0  0  0
 17  2  2  0  0  0  0
 18 19  1  0  0  0  0
 20 18  2  0  0  0  0
 21 22  1  0  0  0  0
 22 18  1  0  0  0  0
 23 21  2  0  0  0  0
 24 14  1  0  0  0  0
 25 24  1  0  0  0  0
M  END
>  <MODEL>
3

>  <REMARK>
 VINA RESULT:      -7.5      3.149      6.136
  Name = 
  2 active torsions:
  status: ('A' for Active; 'I' for Inactive)
    1  A    between atoms: C_6  and  C_15
    2  A    between atoms: O_13  and  C_20
                            x       y       z     vdW  Elec       q    Type
                         _______ _______ _______ _____ _____    ______ ____

>  <TORSDO>
F 2

$$$$
=
 OpenBabel11052417343D

 25 28  0  0  0  0  0  0  0  0999 V2000
  191.6130  176.6260  145.2560 N   0  0  0  0  0  0  0  0  0  0  0  0
  190.2960  176.9650  145.1540 C   0  0  0  0  0  0  0  0  0  0  0  0
  191.5080  176.5940  147.6310 C   0  0  0  0  0  3  0  0  0  0  0  0
  192.5600  176.4070  144.3260 C   0  0  0  0  0  0  0  0  0  0  0  0
  188.3190  177.5020  143.8490 C   0  0  0  0  0  0  0  0  0  0  0  0
  194.8180  175.8690  142.8110 C   0  0  0  0  0  3  0  0  0  0  0  0
  190.1900  176.9320  147.5500 N   0  0  0  0  0  0  0  0  0  0  0  0
  193.7490  176.0890  144.9440 C   0  0  0  0  0  0  0  0  0  0  0  0
  194.9020  175.8120  144.2140 C   0  0  0  0  0  3  0  0  0  0  0  0
  189.6720  177.1540  143.9160 C   0  0  0  0  0  3  0  0  0  0  0  0
  193.6000  176.1950  142.1760 C   0  0  0  0  0  3  0  0  0  0  0  0
  192.2210  176.4420  146.4490 C   0  0  0  0  0  0  0  0  0  0  0  0
  193.5660  176.1010  146.3190 C   0  0  0  0  0  3  0  0  0  0  0  0
  188.1830  177.4760  146.2880 C   0  0  0  0  0  0  0  0  0  0  0  0
  192.4500  176.4710  142.9360 C   0  0  0  0  0  3  0  0  0  0  0  0
  187.5910  177.6580  145.0340 C   0  0  0  0  0  3  0  0  0  0  0  0
  189.5550  177.1240  146.3540 C   0  0  0  0  0  0  0  0  0  0  0  0
  185.4850  178.0110  141.2670 C   0  0  0  0  0  0  0  0  0  0  0  0
  184.1030  178.1080  141.3380 O   0  0  0  0  0  1  0  0  0  0  0  0
  186.0570  178.0960  140.1490 O   0  0  0  0  0  0  0  0  0  0  0  0
  187.6660  177.7010  142.5420 C   0  0  0  0  0  0  0  0  0  0  0  0
  186.2390  177.8160  142.4690 N   0  0  0  0  0  2  0  0  0  0  0  0
  188.3670  177.7680  141.4950 O   0  0  0  0  0  0  0  0  0  0  0  0
  187.3600  177.6580  147.4110 O   0  0  0  0  0  0  0  0  0  0  0  0
  186.0020  177.2540  147.5050 C   0  0  0  0  0  1  0  0  0  0  0  0
  1 12  1  0  0  0  0
  2  1  1  0  0  0  0
  2 17  1  0  0  0  0
  4  8  1  0  0  0  0
  4  1  1  0  0  0  0
  5 10  1  0  0  0  0
  5 16  2  0  0  0  0
  6  9  1  0  0  0  0
  7  3  2  0  0  0  0
  8 13  1  0  0  0  0
  9  8  2  0  0  0  0
 10  2  2  0  0  0  0
 11  6  2  0  0  0  0
 11 15  1  0  0  0  0
 12  3  1  0  0  0  0
 13 12  2  0  0  0  0
 14 17  2  0  0  0  0
 14 24  1  0  0  0  0
 15  4  2  0  0  0  0
 16 14  1  0  0  0  0
 17  7  1  0  0  0  0
 18 19  1  0  0  0  0
 18 22  1  0  0  0  0
 20 18  2  0  0  0  0
 21  5  1  0  0  0  0
 22 21  1  0  0  0  0
 23 21  2  0  0  0  0
 24 25  1  0  0  0  0
M  END
>  <MODEL>
4

>  <REMARK>
 VINA RESULT:      -7.4      4.040      6.898
  Name = 
  2 active torsions:
  status: ('A' for Active; 'I' for Inactive)
    1  A    between atoms: C_6  and  C_15
    2  A    between atoms: O_13  and  C_20
                            x       y       z     vdW  Elec       q    Type
                         _______ _______ _______ _____ _____    ______ ____

>  <TORSDO>
F 2

$$$$
=
 OpenBabel11052417343D

 25 28  0  0  0  0  0  0  0  0999 V2000
  185.8820  177.4700  143.6870 N   0  0  0  0  0  0  0  0  0  0  0  0
  186.7490  176.7350  142.9320 C   0  0  0  0  0  0  0  0  0  0  0  0
  184.7630  178.2910  141.7560 C   0  0  0  0  0  3  0  0  0  0  0  0
  185.7590  177.6270  145.0170 C   0  0  0  0  0  0  0  0  0  0  0  0
  188.6230  175.2080  142.7030 C   0  0  0  0  0  0  0  0  0  0  0  0
  185.1160  178.2620  147.6370 C   0  0  0  0  0  3  0  0  0  0  0  0
  185.6190  177.5640  140.9840 N   0  0  0  0  0  0  0  0  0  0  0  0
  184.7150  178.4840  145.2850 C   0  0  0  0  0  0  0  0  0  0  0  0
  184.3650  178.8240  146.5900 C   0  0  0  0  0  3  0  0  0  0  0  0
  187.7510  175.9480  143.5080 C   0  0  0  0  0  3  0  0  0  0  0  0
  186.1860  177.3840  147.3630 C   0  0  0  0  0  3  0  0  0  0  0  0
  184.9110  178.2320  143.1360 C   0  0  0  0  0  0  0  0  0  0  0  0
  184.1430  178.8950  144.0900 C   0  0  0  0  0  3  0  0  0  0  0  0
  187.4920  176.0360  140.7020 C   0  0  0  0  0  0  0  0  0  0  0  0
  186.5200  177.0560  146.0380 C   0  0  0  0  0  3  0  0  0  0  0  0
  188.4830  175.2600  141.3110 C   0  0  0  0  0  3  0  0  0  0  0  0
  186.6090  176.7870  141.5200 C   0  0  0  0  0  0  0  0  0  0  0  0
  191.6220  174.2630  144.9540 C   0  0  0  0  0  0  0  0  0  0  0  0
  192.4040  174.9400  145.8790 O   0  0  0  0  0  1  0  0  0  0  0  0
  191.8560  173.0490  144.7140 O   0  0  0  0  0  0  0  0  0  0  0  0
  189.6780  174.3800  143.3140 C   0  0  0  0  0  0  0  0  0  0  0  0
  190.5610  174.9550  144.2870 N   0  0  0  0  0  2  0  0  0  0  0  0
  189.8000  173.1700  142.9780 O   0  0  0  0  0  0  0  0  0  0  0  0
  187.4420  176.0160  139.2990 O   0  0  0  0  0  0  0  0  0  0  0  0
  187.8160  174.9160  138.4820 C   0  0  0  0  0  1  0  0  0  0  0  0
  1  4  1  0  0  0  0
  2 10  1  0  0  0  0
  2  1  1  0  0  0  0
  3 12  1  0  0  0  0
  4  8  2  0  0  0  0
  4 15  1  0  0  0  0
  5 21  1  0  0  0  0
  5 10  2  0  0  0  0
  7 17  1  0  0  0  0
  7  3  2  0  0  0  0
  8  9  1  0  0  0  0
  9  6  2  0  0  0  0
 11  6  1  0  0  0  0
 12  1  1  0  0  0  0
 12 13  2  0  0  0  0
 13  8  1  0  0  0  0
 14 16  2  0  0  0  0
 14 17  1  0  0  0  0
 15 11  2  0  0  0  0
 16  5  1  0  0  0  0
 17  2  2  0  0  0  0
 18 19  1  0  0  0  0
 20 18  2  0  0  0  0
 21 22  1  0  0  0  0
 22 18  1  0  0  0  0
 23 21  2  0  0  0  0
 24 14  1  0  0  0  0
 25 24  1  0  0  0  0
M  END
>  <MODEL>
5

>  <REMARK>
 VINA RESULT:      -7.3      3.591      6.493
  Name = 
  2 active torsions:
  status: ('A' for Active; 'I' for Inactive)
    1  A    between atoms: C_6  and  C_15
    2  A    between atoms: O_13  and  C_20
                            x       y       z     vdW  Elec       q    Type
                         _______ _______ _______ _____ _____    ______ ____

>  <TORSDO>
F 2

$$$$
=
 OpenBabel11052417343D

 25 28  0  0  0  0  0  0  0  0999 V2000
  186.8210  177.1940  144.8890 N   0  0  0  0  0  0  0  0  0  0  0  0
  187.8760  176.3630  144.6480 C   0  0  0  0  0  0  0  0  0  0  0  0
  187.4850  177.5210  147.1480 C   0  0  0  0  0  3  0  0  0  0  0  0
  185.8200  177.6260  144.1020 C   0  0  0  0  0  0  0  0  0  0  0  0
  189.1790  174.9260  143.1860 C   0  0  0  0  0  0  0  0  0  0  0  0
  183.6010  178.7710  142.8970 C   0  0  0  0  0  3  0  0  0  0  0  0
  188.5450  176.6930  146.9280 N   0  0  0  0  0  0  0  0  0  0  0  0
  184.9960  178.4630  144.8210 C   0  0  0  0  0  0  0  0  0  0  0  0
  183.8730  179.0550  144.2470 C   0  0  0  0  0  3  0  0  0  0  0  0
  188.0870  175.7740  143.3970 C   0  0  0  0  0  3  0  0  0  0  0  0
  184.4450  177.9150  142.1580 C   0  0  0  0  0  3  0  0  0  0  0  0
  186.6130  177.7660  146.0950 C   0  0  0  0  0  0  0  0  0  0  0  0
  185.4800  178.5760  146.1160 C   0  0  0  0  0  3  0  0  0  0  0  0
  189.8830  175.2450  145.5040 C   0  0  0  0  0  0  0  0  0  0  0  0
  185.5720  177.3290  142.7600 C   0  0  0  0  0  3  0  0  0  0  0  0
  190.0640  174.6720  144.2400 C   0  0  0  0  0  3  0  0  0  0  0  0
  188.7740  176.1030  145.7160 C   0  0  0  0  0  0  0  0  0  0  0  0
  188.6800  174.1660  139.4280 C   0  0  0  0  0  0  0  0  0  0  0  0
  187.8160  174.6230  138.4430 O   0  0  0  0  0  0  0  0  0  0  0  0
  189.5470  173.2990  139.1390 O   0  0  0  0  0  1  0  0  0  0  0  0
  189.3970  174.3080  141.8660 C   0  0  0  0  0  0  0  0  0  0  0  0
  188.5720  174.6880  140.7560 N   0  0  0  0  0  2  0  0  0  0  0  0
  190.3070  173.4460  141.7190 O   0  0  0  0  0  0  0  0  0  0  0  0
  190.8300  174.9210  146.4880 O   0  0  0  0  0  0  0  0  0  0  0  0
  192.0110  175.6610  146.7640 C   0  0  0  0  0  1  0  0  0  0  0  0
  1 12  1  0  0  0  0
  2  1  1  0  0  0  0
  2 17  1  0  0  0  0
  4  8  1  0  0  0  0
  4  1  1  0  0  0  0
  5 10  1  0  0  0  0
  5 16  2  0  0  0  0
  6  9  1  0  0  0  0
  7  3  2  0  0  0  0
  8 13  1  0  0  0  0
  9  8  2  0  0  0  0
 10  2  2  0  0  0  0
 11 15  1  0  0  0  0
 11  6  2  0  0  0  0
 12 13  2  0  0  0  0
 12  3  1  0  0  0  0
 14 17  2  0  0  0  0
 14 24  1  0  0  0  0
 15  4  2  0  0  0  0
 16 14  1  0  0  0  0
 17  7  1  0  0  0  0
 18 22  1  0  0  0  0
 19 18  2  0  0  0  0
 20 18  1  0  0  0  0
 21  5  1  0  0  0  0
 22 21  1  0  0  0  0
 23 21  2  0  0  0  0
 24 25  1  0  0  0  0
M  END
>  <MODEL>
6

>  <REMARK>
 VINA RESULT:      -7.3      3.942      6.669
  Name = 
  2 active torsions:
  status: ('A' for Active; 'I' for Inactive)
    1  A    between atoms: C_6  and  C_15
    2  A    between atoms: O_13  and  C_20
                            x       y       z     vdW  Elec       q    Type
                         _______ _______ _______ _____ _____    ______ ____

>  <TORSDO>
F 2

$$$$
=
 OpenBabel11052417343D

 25 28  0  0  0  0  0  0  0  0999 V2000
  186.6780  177.4510  143.5570 N   0  0  0  0  0  0  0  0  0  0  0  0
  187.3630  176.5010  142.8560 C   0  0  0  0  0  0  0  0  0  0  0  0
  185.7070  178.3340  141.5740 C   0  0  0  0  0  3  0  0  0  0  0  0
  186.6170  177.7290  144.8710 C   0  0  0  0  0  0  0  0  0  0  0  0
  188.8850  174.6130  142.7360 C   0  0  0  0  0  0  0  0  0  0  0  0
  186.1720  178.6750  147.4380 C   0  0  0  0  0  3  0  0  0  0  0  0
  186.3820  177.3930  140.8560 N   0  0  0  0  0  0  0  0  0  0  0  0
  185.7730  178.7970  145.0780 C   0  0  0  0  0  0  0  0  0  0  0  0
  185.5270  179.2980  146.3540 C   0  0  0  0  0  3  0  0  0  0  0  0
  188.1980  175.5730  143.4860 C   0  0  0  0  0  3  0  0  0  0  0  0
  187.0370  177.5800  147.2270 C   0  0  0  0  0  3  0  0  0  0  0  0
  185.8690  178.3500  142.9540 C   0  0  0  0  0  0  0  0  0  0  0  0
  185.2710  179.2250  143.8580 C   0  0  0  0  0  3  0  0  0  0  0  0
  187.9020  175.5010  140.6840 C   0  0  0  0  0  0  0  0  0  0  0  0
  187.2700  177.0940  145.9300 C   0  0  0  0  0  3  0  0  0  0  0  0
  188.7290  174.5880  141.3450 C   0  0  0  0  0  3  0  0  0  0  0  0
  187.2060  176.4740  141.4460 C   0  0  0  0  0  0  0  0  0  0  0  0
  191.1880  171.5380  143.1810 C   0  0  0  0  0  0  0  0  0  0  0  0
  191.6600  170.5390  142.3420 O   0  0  0  0  0  0  0  0  0  0  0  0
  191.5270  171.5420  144.3940 O   0  0  0  0  0  1  0  0  0  0  0  0
  189.7650  173.6370  143.4040 C   0  0  0  0  0  0  0  0  0  0  0  0
  190.3230  172.5500  142.6530 N   0  0  0  0  0  2  0  0  0  0  0  0
  190.0220  173.7620  144.6330 O   0  0  0  0  0  0  0  0  0  0  0  0
  187.8190  175.3860  139.2870 O   0  0  0  0  0  0  0  0  0  0  0  0
  188.1940  174.2400  138.5360 C   0  0  0  0  0  1  0  0  0  0  0  0
  1  4  1  0  0  0  0
  2 10  1  0  0  0  0
  2  1  1  0  0  0  0
  3 12  1  0  0  0  0
  4  8  2  0  0  0  0
  4 15  1  0  0  0  0
  5 21  1  0  0  0  0
  5 10  2  0  0  0  0
  7 17  1  0  0  0  0
  7  3  2  0  0  0  0
  8  9  1  0  0  0  0
  9  6  2  0  0  0  0
 11  6  1  0  0  0  0
 12  1  1  0  0  0  0
 12 13  2  0  0  0  0
 13  8  1  0  0  0  0
 14 16  2  0  0  0  0
 14 17  1  0  0  0  0
 15 11  2  0  0  0  0
 16  5  1  0  0  0  0
 17  2  2  0  0  0  0
 18 20  1  0  0  0  0
 19 18  2  0  0  0  0
 21 23  2  0  0  0  0
 22 18  1  0  0  0  0
 22 21  1  0  0  0  0
 24 14  1  0  0  0  0
 25 24  1  0  0  0  0
M  END
>  <MODEL>
7

>  <REMARK>
 VINA RESULT:      -7.2      3.980      6.590
  Name = 
  2 active torsions:
  status: ('A' for Active; 'I' for Inactive)
    1  A    between atoms: C_6  and  C_15
    2  A    between atoms: O_13  and  C_20
                            x       y       z     vdW  Elec       q    Type
                         _______ _______ _______ _____ _____    ______ ____

>  <TORSDO>
F 2

$$$$
=
 OpenBabel11052417343D

 25 28  0  0  0  0  0  0  0  0999 V2000
  187.2840  176.9360  144.5440 N   0  0  0  0  0  0  0  0  0  0  0  0
  188.4340  176.3420  144.1130 C   0  0  0  0  0  0  0  0  0  0  0  0
  186.1480  176.3960  142.5260 C   0  0  0  0  0  3  0  0  0  0  0  0
  186.9740  177.5710  145.6890 C   0  0  0  0  0  0  0  0  0  0  0  0
  190.7510  175.6870  144.4250 C   0  0  0  0  0  0  0  0  0  0  0  0
  185.8750  178.9390  147.8340 C   0  0  0  0  0  3  0  0  0  0  0  0
  187.2870  175.7970  142.0770 N   0  0  0  0  0  0  0  0  0  0  0  0
  185.6660  177.9980  145.6400 C   0  0  0  0  0  0  0  0  0  0  0  0
  185.0820  178.6880  146.7000 C   0  0  0  0  0  3  0  0  0  0  0  0
  189.5900  176.3050  144.8990 C   0  0  0  0  0  3  0  0  0  0  0  0
  187.2150  178.5010  147.8860 C   0  0  0  0  0  3  0  0  0  0  0  0
  186.1640  176.9740  143.7890 C   0  0  0  0  0  0  0  0  0  0  0  0
  185.1110  177.6290  144.4240 C   0  0  0  0  0  3  0  0  0  0  0  0
  189.6080  175.1190  142.3420 C   0  0  0  0  0  0  0  0  0  0  0  0
  187.7820  177.8070  146.8030 C   0  0  0  0  0  3  0  0  0  0  0  0
  190.7470  175.1010  143.1540 C   0  0  0  0  0  3  0  0  0  0  0  0
  188.4320  175.7470  142.8240 C   0  0  0  0  0  0  0  0  0  0  0  0
  194.1200  176.8210  145.9470 C   0  0  0  0  0  0  0  0  0  0  0  0
  194.9420  177.9280  145.7910 O   0  0  0  0  0  0  0  0  0  0  0  0
  194.4540  175.9090  146.7490 O   0  0  0  0  0  1  0  0  0  0  0  0
  191.9680  175.6510  145.2570 C   0  0  0  0  0  0  0  0  0  0  0  0
  192.9060  176.7340  145.1940 N   0  0  0  0  0  2  0  0  0  0  0  0
  192.1770  174.6690  146.0210 O   0  0  0  0  0  0  0  0  0  0  0  0
  189.7150  174.5030  141.0850 O   0  0  0  0  0  0  0  0  0  0  0  0
  189.8540  173.1060  140.8670 C   0  0  0  0  0  1  0  0  0  0  0  0
  1  4  1  0  0  0  0
  2  1  1  0  0  0  0
  2 10  1  0  0  0  0
  3 12  1  0  0  0  0
  4 15  1  0  0  0  0
  5 10  2  0  0  0  0
  5 21  1  0  0  0  0
  6 11  1  0  0  0  0
  7  3  2  0  0  0  0
  7 17  1  0  0  0  0
  8  4  2  0  0  0  0
  8  9  1  0  0  0  0
  9  6  2  0  0  0  0
 12 13  2  0  0  0  0
 12  1  1  0  0  0  0
 13  8  1  0  0  0  0
 14 17  1  0  0  0  0
 14 16  2  0  0  0  0
 15 11  2  0  0  0  0
 16  5  1  0  0  0  0
 17  2  2  0  0  0  0
 18 20  1  0  0  0  0
 19 18  2  0  0  0  0
 21 23  2  0  0  0  0
 22 21  1  0  0  0  0
 22 18  1  0  0  0  0
 24 14  1  0  0  0  0
 25 24  1  0  0  0  0
M  END
>  <MODEL>
8

>  <REMARK>
 VINA RESULT:      -7.2      4.631      7.804
  Name = 
  2 active torsions:
  status: ('A' for Active; 'I' for Inactive)
    1  A    between atoms: C_6  and  C_15
    2  A    between atoms: O_13  and  C_20
                            x       y       z     vdW  Elec       q    Type
                         _______ _______ _______ _____ _____    ______ ____

>  <TORSDO>
F 2

$$$$
=
 OpenBabel11052417343D

 25 28  0  0  0  0  0  0  0  0999 V2000
  186.4670  177.0550  144.8770 N   0  0  0  0  0  0  0  0  0  0  0  0
  187.6260  176.3360  144.8590 C   0  0  0  0  0  0  0  0  0  0  0  0
  186.4880  177.1940  147.2500 C   0  0  0  0  0  3  0  0  0  0  0  0
  185.6640  177.4900  143.8890 C   0  0  0  0  0  0  0  0  0  0  0  0
  189.4010  175.1630  143.6870 C   0  0  0  0  0  0  0  0  0  0  0  0
  183.7290  178.5820  142.2330 C   0  0  0  0  0  3  0  0  0  0  0  0
  187.6470  176.4770  147.2550 N   0  0  0  0  0  0  0  0  0  0  0  0
  184.6030  178.1820  144.4280 C   0  0  0  0  0  0  0  0  0  0  0  0
  183.6130  178.7430  143.6250 C   0  0  0  0  0  3  0  0  0  0  0  0
  188.2110  175.8990  143.6670 C   0  0  0  0  0  3  0  0  0  0  0  0
  184.8160  177.8740  141.6790 C   0  0  0  0  0  3  0  0  0  0  0  0
  185.8980  177.4810  146.0250 C   0  0  0  0  0  0  0  0  0  0  0  0
  184.7220  178.1960  145.8090 C   0  0  0  0  0  3  0  0  0  0  0  0
  189.4470  175.2910  146.1270 C   0  0  0  0  0  0  0  0  0  0  0  0
  185.8020  177.3160  142.5100 C   0  0  0  0  0  3  0  0  0  0  0  0
  190.0040  174.8690  144.9150 C   0  0  0  0  0  3  0  0  0  0  0  0
  188.2400  176.0360  146.1040 C   0  0  0  0  0  0  0  0  0  0  0  0
  189.7220  173.4040  140.2590 C   0  0  0  0  0  0  0  0  0  0  0  0
  188.8730  172.6470  139.4640 O   0  0  0  0  0  0  0  0  0  0  0  0
  190.8970  173.6350  139.8680 O   0  0  0  0  0  1  0  0  0  0  0  0
  190.0130  174.7040  142.4270 C   0  0  0  0  0  0  0  0  0  0  0  0
  189.2470  173.9110  141.5110 N   0  0  0  0  0  2  0  0  0  0  0  0
  191.2080  175.0120  142.1620 O   0  0  0  0  0  0  0  0  0  0  0  0
  190.1350  174.9390  147.2980 O   0  0  0  0  0  0  0  0  0  0  0  0
  191.1870  175.6900  147.8870 C   0  0  0  0  0  1  0  0  0  0  0  0
  1 12  1  0  0  0  0
  2  1  1  0  0  0  0
  2 17  1  0  0  0  0
  3  7  2  0  0  0  0
  4  8  1  0  0  0  0
  4  1  1  0  0  0  0
  5 16  2  0  0  0  0
  6  9  1  0  0  0  0
  8 13  1  0  0  0  0
  9  8  2  0  0  0  0
 10  5  1  0  0  0  0
 10  2  2  0  0  0  0
 11  6  2  0  0  0  0
 11 15  1  0  0  0  0
 12  3  1  0  0  0  0
 13 12  2  0  0  0  0
 14 24  1  0  0  0  0
 15  4  2  0  0  0  0
 16 14  1  0  0  0  0
 17 14  2  0  0  0  0
 17  7  1  0  0  0  0
 18 22  1  0  0  0  0
 19 18  2  0  0  0  0
 20 18  1  0  0  0  0
 21  5  1  0  0  0  0
 22 21  1  0  0  0  0
 23 21  2  0  0  0  0
 24 25  1  0  0  0  0
M  END
>  <MODEL>
9

>  <REMARK>
 VINA RESULT:      -7.1      4.486      7.170
  Name = 
  2 active torsions:
  status: ('A' for Active; 'I' for Inactive)
    1  A    between atoms: C_6  and  C_15
    2  A    between atoms: O_13  and  C_20
                            x       y       z     vdW  Elec       q    Type
                         _______ _______ _______ _____ _____    ______ ____

>  <TORSDO>
F 2

$$$$
