=
 OpenBabel11052418363D

 34 39  0  0  1  0  0  0  0  0999 V2000
  188.5980  174.6590  141.0830 C   0  0  0  0  0  0  0  0  0  0  0  0
  190.4600  173.4680  142.1130 C   0  0  0  0  0  0  0  0  0  0  0  0
  188.9640  174.8380  143.4940 C   0  0  0  0  0  0  0  0  0  0  0  0
  189.2300  174.9510  145.8980 C   0  0  0  0  0  0  0  0  0  0  0  0
  190.0440  173.2640  139.7330 C   0  0  0  0  0  3  0  0  0  0  0  0
  190.8080  172.9520  140.8610 C   0  0  0  0  0  3  0  0  0  0  0  0
  190.6020  173.2660  144.6030 C   0  0  0  0  0  2  0  0  0  0  0  0
  189.3410  174.3170  142.2370 C   0  0  0  0  0  0  0  0  0  0  0  0
  188.9460  174.1200  139.8430 C   0  0  0  0  0  3  0  0  0  0  0  0
  187.9030  175.7730  143.5810 C   0  0  0  0  0  0  0  0  0  0  0  0
  187.5270  175.5450  141.1830 C   0  0  0  0  0  3  0  0  0  0  0  0
  191.3700  173.2400  143.2820 C   0  0  0  0  0  2  0  0  0  0  0  0
  188.2340  175.8740  145.9490 N   0  0  0  0  0  0  0  0  0  0  0  0
  187.5640  176.3130  144.8490 C   0  0  0  0  0  0  0  0  0  0  0  0
  189.6200  174.4100  144.6640 C   0  0  0  0  0  0  0  0  0  0  0  0
  187.1880  176.1010  142.4170 C   0  0  0  0  0  3  0  0  0  0  0  0
  185.5360  179.5330  144.6630 C   0  0  0  0  0  0  0  0  0  0  0  0
  184.4880  179.2380  145.5380 C   0  0  0  0  0  3  0  0  0  0  0  0
  186.4950  177.3280  145.0520 C   0  0  0  0  0  0  0  0  0  0  0  0
  184.4430  177.9980  146.1780 C   0  0  0  0  0  3  0  0  0  0  0  0
  186.5360  178.5850  144.4270 C   0  0  0  0  0  3  0  0  0  0  0  0
  185.4430  177.0520  145.9400 C   0  0  0  0  0  3  0  0  0  0  0  0
  185.5860  180.7370  144.0450 F   0  0  0  0  0  0  0  0  0  0  0  0
  189.8610  174.5030  147.1740 C   0  0  0  0  0  2  0  0  0  0  0  0
  190.8630  175.5410  147.6510 C   0  0  0  0  0  2  0  0  0  0  0  0
  192.1670  175.4000  146.8900 C   0  0  0  0  0  2  0  0  0  0  0  0
  192.7520  176.7710  146.5910 C   0  0  0  0  0  2  0  0  0  0  0  0
  190.8390  177.9430  144.6270 C   0  0  0  0  0  1  0  0  0  0  0  0
  193.1790  176.8530  145.1330 C   0  0  2  0  0  3  0  0  0  0  0  0
  192.0190  177.1390  144.1930 C   0  0  0  0  0  0  0  0  0  0  0  0
  193.2640  176.0200  142.4100 C   0  0  0  0  0  3  0  0  0  0  0  0
  194.1280  175.4720  143.2680 C   0  0  0  0  0  3  0  0  0  0  0  0
  193.8850  175.5470  144.7490 C   0  0  0  0  0  2  0  0  0  0  0  0
  192.1050  176.7870  142.9060 C   0  0  0  0  0  3  0  0  0  0  0  0
  1 11  2  0  0  0  0
  1  8  1  0  0  0  0
  2  8  1  0  0  0  0
  2 12  1  0  0  0  0
  3 10  1  0  0  0  0
  3 15  1  0  0  0  0
  4 13  1  0  0  0  0
  4 24  1  0  0  0  0
  5  9  2  0  0  0  0
  5  6  1  0  0  0  0
  6  2  2  0  0  0  0
  7 15  1  0  0  0  0
  8  3  2  0  0  0  0
  9  1  1  0  0  0  0
 10 14  1  0  0  0  0
 11 16  1  0  0  0  0
 12  7  1  0  0  0  0
 14 19  1  0  0  0  0
 14 13  2  0  0  0  0
 15  4  2  0  0  0  0
 16 10  2  0  0  0  0
 17 18  1  0  0  0  0
 18 20  2  0  0  0  0
 19 22  2  0  0  0  0
 21 17  2  0  0  0  0
 21 19  1  0  0  0  0
 22 20  1  0  0  0  0
 23 17  1  0  0  0  0
 24 25  1  0  0  0  0
 26 25  1  0  0  0  0
 27 26  1  0  0  0  0
 29 27  1  1  0  0  0
 30 28  1  0  0  0  0
 30 29  1  0  0  0  0
 31 34  1  0  0  0  0
 31 32  2  0  0  0  0
 32 33  1  0  0  0  0
 33 29  1  0  0  0  0
 34 30  2  0  0  0  0
M  END
>  <MODEL>
1

>  <REMARK>
 VINA RESULT:      -8.5      0.000      0.000
  Name = 
  6 active torsions:
  status: ('A' for Active; 'I' for Inactive)
    1  A    between atoms: C_3  and  C_13
    2  A    between atoms: C_3  and  C_17
    3  A    between atoms: C_5  and  C_18
    4  A    between atoms: C_12  and  C_28
    5  A    between atoms: C_17  and  C_29
    6  A    between atoms: C_18  and  C_29
                            x       y       z     vdW  Elec       q    Type
                         _______ _______ _______ _____ _____    ______ ____

>  <TORSDO>
F 6

$$$$
=
 OpenBabel11052418363D

 34 39  0  0  1  0  0  0  0  0999 V2000
  186.7780  177.9750  143.0000 C   0  0  0  0  0  0  0  0  0  0  0  0
  186.4350  178.3230  145.3880 C   0  0  0  0  0  0  0  0  0  0  0  0
  187.9310  176.5410  144.6100 C   0  0  0  0  0  0  0  0  0  0  0  0
  189.1740  175.1730  146.1740 C   0  0  0  0  0  0  0  0  0  0  0  0
  185.3440  179.7650  143.7740 C   0  0  0  0  0  3  0  0  0  0  0  0
  185.5790  179.3900  145.0990 C   0  0  0  0  0  3  0  0  0  0  0  0
  187.9190  177.1870  147.0520 C   0  0  0  0  0  2  0  0  0  0  0  0
  187.0530  177.6130  144.3390 C   0  0  0  0  0  0  0  0  0  0  0  0
  185.9360  179.0560  142.7260 C   0  0  0  0  0  3  0  0  0  0  0  0
  188.4580  175.7730  143.5410 C   0  0  0  0  0  0  0  0  0  0  0  0
  187.3350  177.2440  141.9530 C   0  0  0  0  0  3  0  0  0  0  0  0
  186.5620  177.8450  146.8040 C   0  0  0  0  0  2  0  0  0  0  0  0
  189.6350  174.4310  145.1340 N   0  0  0  0  0  0  0  0  0  0  0  0
  189.3090  174.6770  143.8360 C   0  0  0  0  0  0  0  0  0  0  0  0
  188.3070  176.2500  145.9350 C   0  0  0  0  0  0  0  0  0  0  0  0
  188.1600  176.1510  142.2210 C   0  0  0  0  0  3  0  0  0  0  0  0
  189.6880  172.4520  140.7670 C   0  0  0  0  0  0  0  0  0  0  0  0
  191.0100  172.0240  140.9100 C   0  0  0  0  0  3  0  0  0  0  0  0
  189.8870  173.7820  142.7980 C   0  0  0  0  0  0  0  0  0  0  0  0
  191.7710  172.4630  141.9960 C   0  0  0  0  0  3  0  0  0  0  0  0
  189.1290  173.3200  141.7090 C   0  0  0  0  0  3  0  0  0  0  0  0
  191.2100  173.3320  142.9360 C   0  0  0  0  0  3  0  0  0  0  0  0
  188.9470  172.0230  139.7180 F   0  0  0  0  0  0  0  0  0  0  0  0
  189.6400  174.8460  147.5540 C   0  0  0  0  0  2  0  0  0  0  0  0
  191.1490  175.0000  147.6430 C   0  0  0  0  0  2  0  0  0  0  0  0
  191.5360  176.4600  147.5070 C   0  0  0  0  0  2  0  0  0  0  0  0
  192.8660  176.5870  146.7820 C   0  0  0  0  0  2  0  0  0  0  0  0
  195.2110  175.2960  145.4710 C   0  0  0  0  0  1  0  0  0  0  0  0
  192.7220  176.1350  145.3370 C   0  0  2  0  0  3  0  0  0  0  0  0
  194.0570  175.8170  144.6830 C   0  0  0  0  0  0  0  0  0  0  0  0
  193.0530  176.3430  142.5150 C   0  0  0  0  0  3  0  0  0  0  0  0
  191.9960  176.9380  143.0750 C   0  0  0  0  0  3  0  0  0  0  0  0
  191.9710  177.2170  144.5520 C   0  0  0  0  0  2  0  0  0  0  0  0
  194.1720  175.8690  143.3510 C   0  0  0  0  0  3  0  0  0  0  0  0
  1  8  1  0  0  0  0
  2 12  1  0  0  0  0
  3 15  1  0  0  0  0
  4 24  1  0  0  0  0
  5  6  2  0  0  0  0
  6  2  1  0  0  0  0
  8  3  1  0  0  0  0
  8  2  2  0  0  0  0
  9  1  2  0  0  0  0
  9  5  1  0  0  0  0
 10 14  1  0  0  0  0
 10  3  2  0  0  0  0
 11 16  2  0  0  0  0
 11  1  1  0  0  0  0
 12  7  1  0  0  0  0
 13  4  1  0  0  0  0
 14 13  2  0  0  0  0
 15  4  2  0  0  0  0
 15  7  1  0  0  0  0
 16 10  1  0  0  0  0
 17 18  2  0  0  0  0
 17 21  1  0  0  0  0
 18 20  1  0  0  0  0
 19 22  1  0  0  0  0
 19 14  1  0  0  0  0
 20 22  2  0  0  0  0
 21 19  2  0  0  0  0
 23 17  1  0  0  0  0
 24 25  1  0  0  0  0
 26 25  1  0  0  0  0
 27 26  1  0  0  0  0
 29 27  1  1  0  0  0
 30 29  1  0  0  0  0
 30 28  1  0  0  0  0
 31 32  2  0  0  0  0
 31 34  1  0  0  0  0
 32 33  1  0  0  0  0
 33 29  1  0  0  0  0
 34 30  2  0  0  0  0
M  END
>  <MODEL>
2

>  <REMARK>
 VINA RESULT:      -8.0      2.074      5.424
  Name = 
  6 active torsions:
  status: ('A' for Active; 'I' for Inactive)
    1  A    between atoms: C_3  and  C_13
    2  A    between atoms: C_3  and  C_17
    3  A    between atoms: C_5  and  C_18
    4  A    between atoms: C_12  and  C_28
    5  A    between atoms: C_17  and  C_29
    6  A    between atoms: C_18  and  C_29
                            x       y       z     vdW  Elec       q    Type
                         _______ _______ _______ _____ _____    ______ ____

>  <TORSDO>
F 6

$$$$
=
 OpenBabel11052418363D

 34 39  0  0  1  0  0  0  0  0999 V2000
  186.6850  177.9200  143.0860 C   0  0  0  0  0  0  0  0  0  0  0  0
  186.5190  178.3050  145.4880 C   0  0  0  0  0  0  0  0  0  0  0  0
  187.8960  176.4620  144.6320 C   0  0  0  0  0  0  0  0  0  0  0  0
  189.1940  175.0680  146.1260 C   0  0  0  0  0  0  0  0  0  0  0  0
  185.3710  179.7680  143.9330 C   0  0  0  0  0  3  0  0  0  0  0  0
  185.6830  179.3980  145.2440 C   0  0  0  0  0  3  0  0  0  0  0  0
  188.0730  177.1340  147.0610 C   0  0  0  0  0  2  0  0  0  0  0  0
  187.0390  177.5620  144.4070 C   0  0  0  0  0  0  0  0  0  0  0  0
  185.8650  179.0270  142.8560 C   0  0  0  0  0  3  0  0  0  0  0  0
  188.3210  175.6650  143.5400 C   0  0  0  0  0  0  0  0  0  0  0  0
  187.1440  177.1580  142.0130 C   0  0  0  0  0  3  0  0  0  0  0  0
  186.7260  177.8370  146.8970 C   0  0  0  0  0  2  0  0  0  0  0  0
  189.5570  174.2990  145.0670 N   0  0  0  0  0  0  0  0  0  0  0  0
  189.1520  174.5430  143.7900 C   0  0  0  0  0  0  0  0  0  0  0  0
  188.3510  176.1720  145.9320 C   0  0  0  0  0  0  0  0  0  0  0  0
  187.9460  176.0390  142.2390 C   0  0  0  0  0  3  0  0  0  0  0  0
  189.9690  173.0430  140.3850 C   0  0  0  0  0  0  0  0  0  0  0  0
  190.4640  171.7910  140.7580 C   0  0  0  0  0  3  0  0  0  0  0  0
  189.6260  173.6160  142.7270 C   0  0  0  0  0  0  0  0  0  0  0  0
  190.5340  171.4430  142.1080 C   0  0  0  0  0  3  0  0  0  0  0  0
  189.5470  173.9470  141.3640 C   0  0  0  0  0  3  0  0  0  0  0  0
  190.1130  172.3490  143.0850 C   0  0  0  0  0  3  0  0  0  0  0  0
  189.8950  173.3800  139.0760 F   0  0  0  0  0  0  0  0  0  0  0  0
  189.7410  174.7390  147.4750 C   0  0  0  0  0  2  0  0  0  0  0  0
  190.9520  175.6080  147.7700 C   0  0  0  0  0  2  0  0  0  0  0  0
  192.1010  175.2370  146.8520 C   0  0  0  0  0  2  0  0  0  0  0  0
  192.7530  176.4910  146.2930 C   0  0  0  0  0  2  0  0  0  0  0  0
  191.2070  177.9810  144.2250 C   0  0  0  0  0  1  0  0  0  0  0  0
  193.1230  176.2840  144.8310 C   0  0  2  0  0  3  0  0  0  0  0  0
  192.0660  176.8110  143.8750 C   0  0  0  0  0  0  0  0  0  0  0  0
  192.8340  175.1830  142.2210 C   0  0  0  0  0  3  0  0  0  0  0  0
  193.5260  174.4890  143.1280 C   0  0  0  0  0  3  0  0  0  0  0  0
  193.3810  174.7910  144.5930 C   0  0  0  0  0  2  0  0  0  0  0  0
  191.9860  176.3160  142.6360 C   0  0  0  0  0  3  0  0  0  0  0  0
  1  8  1  0  0  0  0
  2 12  1  0  0  0  0
  3 15  1  0  0  0  0
  4 24  1  0  0  0  0
  5  6  2  0  0  0  0
  6  2  1  0  0  0  0
  8  3  1  0  0  0  0
  8  2  2  0  0  0  0
  9  1  2  0  0  0  0
  9  5  1  0  0  0  0
 10 14  1  0  0  0  0
 10  3  2  0  0  0  0
 11 16  2  0  0  0  0
 11  1  1  0  0  0  0
 12  7  1  0  0  0  0
 13  4  1  0  0  0  0
 14 13  2  0  0  0  0
 15  4  2  0  0  0  0
 15  7  1  0  0  0  0
 16 10  1  0  0  0  0
 17 18  2  0  0  0  0
 17 21  1  0  0  0  0
 18 20  1  0  0  0  0
 19 22  1  0  0  0  0
 19 14  1  0  0  0  0
 20 22  2  0  0  0  0
 21 19  2  0  0  0  0
 23 17  1  0  0  0  0
 24 25  1  0  0  0  0
 26 25  1  0  0  0  0
 27 26  1  0  0  0  0
 29 27  1  1  0  0  0
 30 28  1  0  0  0  0
 30 29  1  0  0  0  0
 31 34  1  0  0  0  0
 31 32  2  0  0  0  0
 32 33  1  0  0  0  0
 33 29  1  0  0  0  0
 34 30  2  0  0  0  0
M  END
>  <MODEL>
3

>  <REMARK>
 VINA RESULT:      -7.9      2.020      5.216
  Name = 
  6 active torsions:
  status: ('A' for Active; 'I' for Inactive)
    1  A    between atoms: C_3  and  C_13
    2  A    between atoms: C_3  and  C_17
    3  A    between atoms: C_5  and  C_18
    4  A    between atoms: C_12  and  C_28
    5  A    between atoms: C_17  and  C_29
    6  A    between atoms: C_18  and  C_29
                            x       y       z     vdW  Elec       q    Type
                         _______ _______ _______ _____ _____    ______ ____

>  <TORSDO>
F 6

$$$$
=
 OpenBabel11052418363D

 34 39  0  0  1  0  0  0  0  0999 V2000
  187.2100  175.9040  142.9660 C   0  0  0  0  0  0  0  0  0  0  0  0
  188.5790  177.4810  144.2250 C   0  0  0  0  0  0  0  0  0  0  0  0
  189.6440  175.8430  142.7400 C   0  0  0  0  0  0  0  0  0  0  0  0
  192.0420  175.8240  142.4060 C   0  0  0  0  0  0  0  0  0  0  0  0
  186.1620  177.5560  144.3920 C   0  0  0  0  0  3  0  0  0  0  0  0
  187.4190  178.0400  144.7660 C   0  0  0  0  0  3  0  0  0  0  0  0
  191.0090  177.7450  143.6890 C   0  0  0  0  0  2  0  0  0  0  0  0
  188.4840  176.4140  143.3080 C   0  0  0  0  0  0  0  0  0  0  0  0
  186.0580  176.4860  143.5000 C   0  0  0  0  0  3  0  0  0  0  0  0
  189.5330  174.7030  141.9040 C   0  0  0  0  0  0  0  0  0  0  0  0
  187.1050  174.8110  142.1080 C   0  0  0  0  0  3  0  0  0  0  0  0
  189.9170  177.9150  144.7440 C   0  0  0  0  0  2  0  0  0  0  0  0
  191.9110  174.7110  141.6390 N   0  0  0  0  0  0  0  0  0  0  0  0
  190.7130  174.1230  141.3720 C   0  0  0  0  0  0  0  0  0  0  0  0
  190.9070  176.4180  142.9770 C   0  0  0  0  0  0  0  0  0  0  0  0
  188.2540  174.2140  141.5890 C   0  0  0  0  0  3  0  0  0  0  0  0
  190.8070  170.4880  140.2350 C   0  0  0  0  0  0  0  0  0  0  0  0
  190.8070  170.6430  138.8470 C   0  0  0  0  0  3  0  0  0  0  0  0
  190.7180  172.9060  140.5160 C   0  0  0  0  0  0  0  0  0  0  0  0
  190.7720  171.9220  138.2890 C   0  0  0  0  0  3  0  0  0  0  0  0
  190.7690  171.6130  141.0640 C   0  0  0  0  0  3  0  0  0  0  0  0
  190.7330  173.0460  139.1190 C   0  0  0  0  0  3  0  0  0  0  0  0
  190.8460  169.2480  140.7790 F   0  0  0  0  0  0  0  0  0  0  0  0
  193.4000  176.4160  142.5880 C   0  0  0  0  0  2  0  0  0  0  0  0
  194.2380  175.5260  143.4910 C   0  0  0  0  0  2  0  0  0  0  0  0
  193.8140  175.6970  144.9370 C   0  0  0  0  0  2  0  0  0  0  0  0
  193.5140  174.3440  145.5610 C   0  0  0  0  0  2  0  0  0  0  0  0
  191.0430  172.9410  144.6610 C   0  0  0  0  0  1  0  0  0  0  0  0
  192.2760  174.4340  146.4410 C   0  0  2  0  0  3  0  0  0  0  0  0
  191.0120  173.9850  145.7270 C   0  0  0  0  0  0  0  0  0  0  0  0
  189.7240  175.4290  147.2230 C   0  0  0  0  0  3  0  0  0  0  0  0
  190.8130  176.0830  147.6360 C   0  0  0  0  0  3  0  0  0  0  0  0
  192.1350  175.8730  146.9510 C   0  0  0  0  0  2  0  0  0  0  0  0
  189.8210  174.4230  146.1490 C   0  0  0  0  0  3  0  0  0  0  0  0
  1  8  1  0  0  0  0
  1  9  2  0  0  0  0
  2 12  1  0  0  0  0
  2  6  1  0  0  0  0
  3 15  1  0  0  0  0
  3  8  1  0  0  0  0
  4 24  1  0  0  0  0
  4 15  2  0  0  0  0
  5  6  2  0  0  0  0
  7 12  1  0  0  0  0
  8  2  2  0  0  0  0
  9  5  1  0  0  0  0
 10  3  2  0  0  0  0
 11  1  1  0  0  0  0
 13  4  1  0  0  0  0
 14 13  2  0  0  0  0
 14 10  1  0  0  0  0
 15  7  1  0  0  0  0
 16 10  1  0  0  0  0
 16 11  2  0  0  0  0
 17 23  1  0  0  0  0
 17 21  1  0  0  0  0
 18 17  2  0  0  0  0
 19 21  2  0  0  0  0
 19 14  1  0  0  0  0
 20 18  1  0  0  0  0
 20 22  2  0  0  0  0
 22 19  1  0  0  0  0
 24 25  1  0  0  0  0
 25 26  1  0  0  0  0
 26 27  1  0  0  0  0
 28 30  1  0  0  0  0
 29 27  1  6  0  0  0
 29 33  1  0  0  0  0
 30 34  2  0  0  0  0
 30 29  1  0  0  0  0
 31 32  2  0  0  0  0
 33 32  1  0  0  0  0
 34 31  1  0  0  0  0
M  END
>  <MODEL>
4

>  <REMARK>
 VINA RESULT:      -7.6      2.735      6.351
  Name = 
  6 active torsions:
  status: ('A' for Active; 'I' for Inactive)
    1  A    between atoms: C_3  and  C_13
    2  A    between atoms: C_3  and  C_17
    3  A    between atoms: C_5  and  C_18
    4  A    between atoms: C_12  and  C_28
    5  A    between atoms: C_17  and  C_29
    6  A    between atoms: C_18  and  C_29
                            x       y       z     vdW  Elec       q    Type
                         _______ _______ _______ _____ _____    ______ ____

>  <TORSDO>
F 6

$$$$
=
 OpenBabel11052418363D

 34 39  0  0  1  0  0  0  0  0999 V2000
  186.8540  177.8810  146.6600 C   0  0  0  0  0  0  0  0  0  0  0  0
  185.5190  177.7010  144.6280 C   0  0  0  0  0  0  0  0  0  0  0  0
  187.8240  176.8600  144.6610 C   0  0  0  0  0  0  0  0  0  0  0  0
  188.7800  175.7450  142.7360 C   0  0  0  0  0  0  0  0  0  0  0  0
  184.5620  178.6610  146.6380 C   0  0  0  0  0  3  0  0  0  0  0  0
  184.4450  178.2990  145.2930 C   0  0  0  0  0  3  0  0  0  0  0  0
  186.3080  176.2810  142.7250 C   0  0  0  0  0  2  0  0  0  0  0  0
  186.7310  177.4740  145.3110 C   0  0  0  0  0  0  0  0  0  0  0  0
  185.7660  178.4590  147.3180 C   0  0  0  0  0  3  0  0  0  0  0  0
  189.0660  176.7380  145.3320 C   0  0  0  0  0  0  0  0  0  0  0  0
  188.0660  177.7170  147.3280 C   0  0  0  0  0  3  0  0  0  0  0  0
  185.4230  177.4510  143.1520 C   0  0  0  0  0  2  0  0  0  0  0  0
  189.9690  175.6740  143.3880 N   0  0  0  0  0  0  0  0  0  0  0  0
  190.1620  176.1500  144.6490 C   0  0  0  0  0  0  0  0  0  0  0  0
  187.6750  176.3420  143.3600 C   0  0  0  0  0  0  0  0  0  0  0  0
  189.1610  177.1590  146.6690 C   0  0  0  0  0  3  0  0  0  0  0  0
  193.7990  176.7930  145.5810 C   0  0  0  0  0  0  0  0  0  0  0  0
  194.0930  175.6420  146.3160 C   0  0  0  0  0  3  0  0  0  0  0  0
  191.5190  176.0060  145.2410 C   0  0  0  0  0  0  0  0  0  0  0  0
  193.1100  174.6680  146.5090 C   0  0  0  0  0  3  0  0  0  0  0  0
  192.5220  176.9700  145.0420 C   0  0  0  0  0  3  0  0  0  0  0  0
  191.8340  174.8480  145.9700 C   0  0  0  0  0  3  0  0  0  0  0  0
  194.7520  177.7350  145.3890 F   0  0  0  0  0  0  0  0  0  0  0  0
  188.6680  175.1410  141.3760 C   0  0  0  0  0  2  0  0  0  0  0  0
  188.9820  173.6550  141.4400 C   0  0  0  0  0  2  0  0  0  0  0  0
  190.3980  173.3970  140.9620 C   0  0  0  0  0  2  0  0  0  0  0  0
  191.2640  172.9210  142.1160 C   0  0  0  0  0  2  0  0  0  0  0  0
  193.3530  171.8610  143.9610 C   0  0  0  0  0  1  0  0  0  0  0  0
  192.6950  173.4050  141.9350 C   0  0  2  0  0  3  0  0  0  0  0  0
  193.5840  173.0740  143.1230 C   0  0  0  0  0  0  0  0  0  0  0  0
  194.9860  174.9890  142.5330 C   0  0  0  0  0  3  0  0  0  0  0  0
  194.0640  175.4930  141.7090 C   0  0  0  0  0  3  0  0  0  0  0  0
  192.6780  174.9150  141.6690 C   0  0  0  0  0  2  0  0  0  0  0  0
  194.6850  173.7980  143.3500 C   0  0  0  0  0  3  0  0  0  0  0  0
  1  9  1  0  0  0  0
  1 11  1  0  0  0  0
  2  6  2  0  0  0  0
  2  8  1  0  0  0  0
  3  8  1  0  0  0  0
  3 10  1  0  0  0  0
  4 15  1  0  0  0  0
  4 13  2  0  0  0  0
  5  9  2  0  0  0  0
  6  5  1  0  0  0  0
  7 12  1  0  0  0  0
  7 15  1  0  0  0  0
  8  1  2  0  0  0  0
 10 16  1  0  0  0  0
 12  2  1  0  0  0  0
 13 14  1  0  0  0  0
 14 19  1  0  0  0  0
 14 10  2  0  0  0  0
 15  3  2  0  0  0  0
 16 11  2  0  0  0  0
 17 18  1  0  0  0  0
 18 20  2  0  0  0  0
 19 22  2  0  0  0  0
 21 19  1  0  0  0  0
 21 17  2  0  0  0  0
 22 20  1  0  0  0  0
 23 17  1  0  0  0  0
 24 25  1  0  0  0  0
 24  4  1  0  0  0  0
 26 25  1  0  0  0  0
 26 27  1  0  0  0  0
 29 27  1  1  0  0  0
 29 30  1  0  0  0  0
 30 34  2  0  0  0  0
 30 28  1  0  0  0  0
 31 34  1  0  0  0  0
 32 31  2  0  0  0  0
 33 32  1  0  0  0  0
 33 29  1  0  0  0  0
M  END
>  <MODEL>
5

>  <REMARK>
 VINA RESULT:      -7.5      2.269      6.310
  Name = 
  6 active torsions:
  status: ('A' for Active; 'I' for Inactive)
    1  A    between atoms: C_3  and  C_13
    2  A    between atoms: C_3  and  C_17
    3  A    between atoms: C_5  and  C_18
    4  A    between atoms: C_12  and  C_28
    5  A    between atoms: C_17  and  C_29
    6  A    between atoms: C_18  and  C_29
                            x       y       z     vdW  Elec       q    Type
                         _______ _______ _______ _____ _____    ______ ____

>  <TORSDO>
F 6

$$$$
=
 OpenBabel11052418363D

 34 39  0  0  1  0  0  0  0  0999 V2000
  186.4040  178.1280  146.5570 C   0  0  0  0  0  0  0  0  0  0  0  0
  185.1440  178.0450  144.4710 C   0  0  0  0  0  0  0  0  0  0  0  0
  187.4140  177.1180  144.5720 C   0  0  0  0  0  0  0  0  0  0  0  0
  188.4050  176.0140  142.6590 C   0  0  0  0  0  0  0  0  0  0  0  0
  184.1450  178.9930  146.4650 C   0  0  0  0  0  3  0  0  0  0  0  0
  184.0670  178.6660  145.1090 C   0  0  0  0  0  3  0  0  0  0  0  0
  185.9560  176.6410  142.5660 C   0  0  0  0  0  2  0  0  0  0  0  0
  186.3200  177.7580  145.1950 C   0  0  0  0  0  0  0  0  0  0  0  0
  185.3120  178.7310  147.1860 C   0  0  0  0  0  3  0  0  0  0  0  0
  188.6240  176.9360  145.2870 C   0  0  0  0  0  0  0  0  0  0  0  0
  187.5810  177.9050  147.2670 C   0  0  0  0  0  3  0  0  0  0  0  0
  185.0980  177.8330  142.9870 C   0  0  0  0  0  2  0  0  0  0  0  0
  189.5650  175.8840  143.3550 N   0  0  0  0  0  0  0  0  0  0  0  0
  189.7240  176.3240  144.6330 C   0  0  0  0  0  0  0  0  0  0  0  0
  187.2980  176.6370  143.2550 C   0  0  0  0  0  0  0  0  0  0  0  0
  188.6810  177.3220  146.6370 C   0  0  0  0  0  3  0  0  0  0  0  0
  193.4380  176.5700  145.4440 C   0  0  0  0  0  0  0  0  0  0  0  0
  193.5500  175.6240  146.4660 C   0  0  0  0  0  3  0  0  0  0  0  0
  191.0510  176.1160  145.2730 C   0  0  0  0  0  0  0  0  0  0  0  0
  192.4230  174.9170  146.8880 C   0  0  0  0  0  3  0  0  0  0  0  0
  192.1970  176.8090  144.8480 C   0  0  0  0  0  3  0  0  0  0  0  0
  191.1830  175.1580  146.2910 C   0  0  0  0  0  3  0  0  0  0  0  0
  194.5310  177.2520  145.0300 F   0  0  0  0  0  0  0  0  0  0  0  0
  188.3260  175.4460  141.2810 C   0  0  0  0  0  2  0  0  0  0  0  0
  188.6410  173.9600  141.3120 C   0  0  0  0  0  2  0  0  0  0  0  0
  189.3510  173.5470  140.0370 C   0  0  0  0  0  2  0  0  0  0  0  0
  190.7580  173.0660  140.3510 C   0  0  0  0  0  2  0  0  0  0  0  0
  192.6990  174.9260  141.6390 C   0  0  0  0  0  1  0  0  0  0  0  0
  190.9570  172.9670  141.8560 C   0  0  2  0  0  3  0  0  0  0  0  0
  192.1940  173.7080  142.3370 C   0  0  0  0  0  0  0  0  0  0  0  0
  192.2970  172.1780  144.2420 C   0  0  0  0  0  3  0  0  0  0  0  0
  191.4380  171.3200  143.6850 C   0  0  0  0  0  3  0  0  0  0  0  0
  191.0160  171.4870  142.2520 C   0  0  0  0  0  2  0  0  0  0  0  0
  192.7730  173.3530  143.4890 C   0  0  0  0  0  3  0  0  0  0  0  0
  1  9  1  0  0  0  0
  1 11  1  0  0  0  0
  2  6  2  0  0  0  0
  2  8  1  0  0  0  0
  3  8  1  0  0  0  0
  3 10  1  0  0  0  0
  4 15  1  0  0  0  0
  4 13  2  0  0  0  0
  5  9  2  0  0  0  0
  6  5  1  0  0  0  0
  7 12  1  0  0  0  0
  7 15  1  0  0  0  0
  8  1  2  0  0  0  0
 10 16  1  0  0  0  0
 12  2  1  0  0  0  0
 13 14  1  0  0  0  0
 14 19  1  0  0  0  0
 14 10  2  0  0  0  0
 15  3  2  0  0  0  0
 16 11  2  0  0  0  0
 17 18  1  0  0  0  0
 18 20  2  0  0  0  0
 19 22  2  0  0  0  0
 21 19  1  0  0  0  0
 21 17  2  0  0  0  0
 22 20  1  0  0  0  0
 23 17  1  0  0  0  0
 24 25  1  0  0  0  0
 24  4  1  0  0  0  0
 26 27  1  0  0  0  0
 26 25  1  0  0  0  0
 28 30  1  0  0  0  0
 29 27  1  6  0  0  0
 29 33  1  0  0  0  0
 29 30  1  0  0  0  0
 30 34  2  0  0  0  0
 32 31  2  0  0  0  0
 33 32  1  0  0  0  0
 34 31  1  0  0  0  0
M  END
>  <MODEL>
6

>  <REMARK>
 VINA RESULT:      -7.4      2.198      6.477
  Name = 
  6 active torsions:
  status: ('A' for Active; 'I' for Inactive)
    1  A    between atoms: C_3  and  C_13
    2  A    between atoms: C_3  and  C_17
    3  A    between atoms: C_5  and  C_18
    4  A    between atoms: C_12  and  C_28
    5  A    between atoms: C_17  and  C_29
    6  A    between atoms: C_18  and  C_29
                            x       y       z     vdW  Elec       q    Type
                         _______ _______ _______ _____ _____    ______ ____

>  <TORSDO>
F 6

$$$$
=
 OpenBabel11052418363D

 34 39  0  0  1  0  0  0  0  0999 V2000
  192.9530  175.9560  146.1970 C   0  0  0  0  0  0  0  0  0  0  0  0
  193.3460  174.8730  144.0480 C   0  0  0  0  0  0  0  0  0  0  0  0
  191.1110  175.7180  144.6070 C   0  0  0  0  0  0  0  0  0  0  0  0
  189.2900  175.5980  143.0140 C   0  0  0  0  0  0  0  0  0  0  0  0
  195.1680  175.1680  145.6190 C   0  0  0  0  0  3  0  0  0  0  0  0
  194.6890  174.6960  144.3940 C   0  0  0  0  0  3  0  0  0  0  0  0
  191.6240  175.0070  142.2370 C   0  0  0  0  0  2  0  0  0  0  0  0
  192.4680  175.5180  144.9430 C   0  0  0  0  0  0  0  0  0  0  0  0
  194.3020  175.7900  146.5210 C   0  0  0  0  0  3  0  0  0  0  0  0
  190.2210  176.2710  145.5620 C   0  0  0  0  0  0  0  0  0  0  0  0
  192.0820  176.5400  147.1150 C   0  0  0  0  0  3  0  0  0  0  0  0
  192.8190  174.2360  142.7970 C   0  0  0  0  0  2  0  0  0  0  0  0
  188.4520  176.0960  143.9600 N   0  0  0  0  0  0  0  0  0  0  0  0
  188.8550  176.4300  145.2170 C   0  0  0  0  0  0  0  0  0  0  0  0
  190.6460  175.3970  143.3170 C   0  0  0  0  0  0  0  0  0  0  0  0
  190.7310  176.6890  146.8030 C   0  0  0  0  0  3  0  0  0  0  0  0
  187.1380  178.4530  147.9510 C   0  0  0  0  0  0  0  0  0  0  0  0
  185.8660  177.8760  147.9500 C   0  0  0  0  0  3  0  0  0  0  0  0
  187.8270  176.9630  146.1510 C   0  0  0  0  0  0  0  0  0  0  0  0
  185.5720  176.8390  147.0620 C   0  0  0  0  0  3  0  0  0  0  0  0
  188.1130  177.9950  147.0610 C   0  0  0  0  0  3  0  0  0  0  0  0
  186.5480  176.3830  146.1720 C   0  0  0  0  0  3  0  0  0  0  0  0
  187.4270  179.4540  148.8150 F   0  0  0  0  0  0  0  0  0  0  0  0
  188.7510  175.3170  141.6520 C   0  0  0  0  0  2  0  0  0  0  0  0
  187.3660  175.9250  141.5050 C   0  0  0  0  0  2  0  0  0  0  0  0
  187.4580  177.2810  140.8320 C   0  0  0  0  0  2  0  0  0  0  0  0
  186.1090  177.9810  140.8750 C   0  0  0  0  0  2  0  0  0  0  0  0
  183.1640  178.0080  141.3360 C   0  0  0  0  0  1  0  0  0  0  0  0
  185.6070  178.0670  142.3090 C   0  0  2  0  0  3  0  0  0  0  0  0
  184.1310  178.4170  142.3960 C   0  0  0  0  0  0  0  0  0  0  0  0
  184.5500  179.3780  144.6060 C   0  0  0  0  0  3  0  0  0  0  0  0
  185.8730  179.3890  144.4230 C   0  0  0  0  0  3  0  0  0  0  0  0
  186.4580  179.0890  143.0720 C   0  0  0  0  0  2  0  0  0  0  0  0
  183.6480  178.9820  143.5080 C   0  0  0  0  0  3  0  0  0  0  0  0
  1  9  1  0  0  0  0
  1 11  1  0  0  0  0
  2  6  2  0  0  0  0
  2  8  1  0  0  0  0
  3  8  1  0  0  0  0
  3 10  1  0  0  0  0
  4 15  1  0  0  0  0
  4 13  2  0  0  0  0
  5  9  2  0  0  0  0
  6  5  1  0  0  0  0
  7 12  1  0  0  0  0
  7 15  1  0  0  0  0
  8  1  2  0  0  0  0
 10 16  1  0  0  0  0
 12  2  1  0  0  0  0
 13 14  1  0  0  0  0
 14 10  2  0  0  0  0
 14 19  1  0  0  0  0
 15  3  2  0  0  0  0
 16 11  2  0  0  0  0
 17 23  1  0  0  0  0
 18 17  1  0  0  0  0
 19 22  2  0  0  0  0
 19 21  1  0  0  0  0
 20 18  2  0  0  0  0
 21 17  2  0  0  0  0
 22 20  1  0  0  0  0
 24  4  1  0  0  0  0
 25 24  1  0  0  0  0
 26 27  1  0  0  0  0
 26 25  1  0  0  0  0
 28 30  1  0  0  0  0
 29 27  1  6  0  0  0
 29 30  1  0  0  0  0
 29 33  1  0  0  0  0
 30 34  2  0  0  0  0
 32 31  2  0  0  0  0
 33 32  1  0  0  0  0
 34 31  1  0  0  0  0
M  END
>  <MODEL>
7

>  <REMARK>
 VINA RESULT:      -7.4      2.054      5.961
  Name = 
  6 active torsions:
  status: ('A' for Active; 'I' for Inactive)
    1  A    between atoms: C_3  and  C_13
    2  A    between atoms: C_3  and  C_17
    3  A    between atoms: C_5  and  C_18
    4  A    between atoms: C_12  and  C_28
    5  A    between atoms: C_17  and  C_29
    6  A    between atoms: C_18  and  C_29
                            x       y       z     vdW  Elec       q    Type
                         _______ _______ _______ _____ _____    ______ ____

>  <TORSDO>
F 6

$$$$
=
 OpenBabel11052418363D

 34 39  0  0  1  0  0  0  0  0999 V2000
  192.3030  176.3680  146.3720 C   0  0  0  0  0  0  0  0  0  0  0  0
  193.0240  175.3040  144.3000 C   0  0  0  0  0  0  0  0  0  0  0  0
  190.7150  176.1050  144.5310 C   0  0  0  0  0  0  0  0  0  0  0  0
  189.1480  175.9610  142.6910 C   0  0  0  0  0  0  0  0  0  0  0  0
  194.5920  175.6230  146.1200 C   0  0  0  0  0  3  0  0  0  0  0  0
  194.3050  175.1500  144.8370 C   0  0  0  0  0  3  0  0  0  0  0  0
  191.5810  175.4160  142.2590 C   0  0  0  0  0  2  0  0  0  0  0  0
  192.0130  175.9270  145.0600 C   0  0  0  0  0  0  0  0  0  0  0  0
  193.5930  176.2250  146.8890 C   0  0  0  0  0  3  0  0  0  0  0  0
  189.6870  176.6360  145.3480 C   0  0  0  0  0  0  0  0  0  0  0  0
  191.2970  176.9300  147.1560 C   0  0  0  0  0  3  0  0  0  0  0  0
  192.6960  174.6650  142.9840 C   0  0  0  0  0  2  0  0  0  0  0  0
  188.1720  176.4380  143.5070 N   0  0  0  0  0  0  0  0  0  0  0  0
  188.3820  176.7730  144.8090 C   0  0  0  0  0  0  0  0  0  0  0  0
  190.4480  175.7820  143.1870 C   0  0  0  0  0  0  0  0  0  0  0  0
  190.0020  177.0560  146.6510 C   0  0  0  0  0  3  0  0  0  0  0  0
  185.3120  178.7720  145.8530 C   0  0  0  0  0  0  0  0  0  0  0  0
  185.0840  178.2620  147.1330 C   0  0  0  0  0  3  0  0  0  0  0  0
  187.2190  177.2820  145.5860 C   0  0  0  0  0  0  0  0  0  0  0  0
  185.9230  177.2710  147.6470 C   0  0  0  0  0  3  0  0  0  0  0  0
  186.3770  178.2890  145.0880 C   0  0  0  0  0  3  0  0  0  0  0  0
  186.9860  176.7880  146.8800 C   0  0  0  0  0  3  0  0  0  0  0  0
  184.5030  179.7370  145.3550 F   0  0  0  0  0  0  0  0  0  0  0  0
  188.8170  175.6760  141.2640 C   0  0  0  0  0  2  0  0  0  0  0  0
  187.9480  174.4330  141.1700 C   0  0  0  0  0  2  0  0  0  0  0  0
  188.8120  173.1870  141.1840 C   0  0  0  0  0  2  0  0  0  0  0  0
  188.5370  172.3720  142.4370 C   0  0  0  0  0  2  0  0  0  0  0  0
  189.6910  172.6910  145.1670 C   0  0  0  0  0  1  0  0  0  0  0  0
  189.7580  171.5410  142.8020 C   0  0  2  0  0  3  0  0  0  0  0  0
  190.4500  172.0320  144.0640 C   0  0  0  0  0  0  0  0  0  0  0  0
  192.5360  171.0700  143.2240 C   0  0  0  0  0  3  0  0  0  0  0  0
  192.0490  170.9260  141.9890 C   0  0  0  0  0  3  0  0  0  0  0  0
  190.7270  171.5350  141.6140 C   0  0  0  0  0  2  0  0  0  0  0  0
  191.7420  171.7510  144.2640 C   0  0  0  0  0  3  0  0  0  0  0  0
  1  9  1  0  0  0  0
  1 11  1  0  0  0  0
  2  6  2  0  0  0  0
  2  8  1  0  0  0  0
  3  8  1  0  0  0  0
  3 10  1  0  0  0  0
  4 15  1  0  0  0  0
  4 13  2  0  0  0  0
  5  9  2  0  0  0  0
  6  5  1  0  0  0  0
  7 12  1  0  0  0  0
  7 15  1  0  0  0  0
  8  1  2  0  0  0  0
 10 16  1  0  0  0  0
 12  2  1  0  0  0  0
 13 14  1  0  0  0  0
 14 10  2  0  0  0  0
 14 19  1  0  0  0  0
 15  3  2  0  0  0  0
 16 11  2  0  0  0  0
 17 18  1  0  0  0  0
 18 20  2  0  0  0  0
 19 22  2  0  0  0  0
 21 19  1  0  0  0  0
 21 17  2  0  0  0  0
 22 20  1  0  0  0  0
 23 17  1  0  0  0  0
 24  4  1  0  0  0  0
 25 26  1  0  0  0  0
 25 24  1  0  0  0  0
 26 27  1  0  0  0  0
 29 27  1  6  0  0  0
 29 30  1  0  0  0  0
 30 34  2  0  0  0  0
 30 28  1  0  0  0  0
 31 34  1  0  0  0  0
 32 31  2  0  0  0  0
 33 32  1  0  0  0  0
 33 29  1  0  0  0  0
M  END
>  <MODEL>
8

>  <REMARK>
 VINA RESULT:      -7.3      1.598      4.888
  Name = 
  6 active torsions:
  status: ('A' for Active; 'I' for Inactive)
    1  A    between atoms: C_3  and  C_13
    2  A    between atoms: C_3  and  C_17
    3  A    between atoms: C_5  and  C_18
    4  A    between atoms: C_12  and  C_28
    5  A    between atoms: C_17  and  C_29
    6  A    between atoms: C_18  and  C_29
                            x       y       z     vdW  Elec       q    Type
                         _______ _______ _______ _____ _____    ______ ____

>  <TORSDO>
F 6

$$$$
=
 OpenBabel11052418363D

 34 39  0  0  1  0  0  0  0  0999 V2000
  190.9680  171.3640  141.3570 C   0  0  0  0  0  0  0  0  0  0  0  0
  189.4440  171.9320  139.5410 C   0  0  0  0  0  0  0  0  0  0  0  0
  189.5940  173.3810  141.5160 C   0  0  0  0  0  0  0  0  0  0  0  0
  188.3310  175.4420  141.6580 C   0  0  0  0  0  0  0  0  0  0  0  0
  190.8540  169.9660  139.3840 C   0  0  0  0  0  3  0  0  0  0  0  0
  189.8690  170.7980  138.8440 C   0  0  0  0  0  3  0  0  0  0  0  0
  188.3650  174.1880  139.4610 C   0  0  0  0  0  2  0  0  0  0  0  0
  190.0010  172.2320  140.8010 C   0  0  0  0  0  0  0  0  0  0  0  0
  191.3980  170.2450  140.6400 C   0  0  0  0  0  3  0  0  0  0  0  0
  190.0860  173.6080  142.8250 C   0  0  0  0  0  0  0  0  0  0  0  0
  191.4820  171.6170  142.6280 C   0  0  0  0  0  3  0  0  0  0  0  0
  188.2880  172.7290  139.0140 C   0  0  0  0  0  2  0  0  0  0  0  0
  188.7900  175.6160  142.9250 N   0  0  0  0  0  0  0  0  0  0  0  0
  189.6380  174.7480  143.5400 C   0  0  0  0  0  0  0  0  0  0  0  0
  188.7250  174.3150  140.9210 C   0  0  0  0  0  0  0  0  0  0  0  0
  191.0400  172.7230  143.3550 C   0  0  0  0  0  3  0  0  0  0  0  0
  191.6060  176.0630  146.5250 C   0  0  0  0  0  0  0  0  0  0  0  0
  190.8470  175.5620  147.5860 C   0  0  0  0  0  3  0  0  0  0  0  0
  190.0580  175.0640  144.9320 C   0  0  0  0  0  0  0  0  0  0  0  0
  189.7020  174.8070  147.3270 C   0  0  0  0  0  3  0  0  0  0  0  0
  191.2160  175.8100  145.2070 C   0  0  0  0  0  3  0  0  0  0  0  0
  189.3140  174.5560  146.0090 C   0  0  0  0  0  3  0  0  0  0  0  0
  192.7200  176.7910  146.7740 F   0  0  0  0  0  0  0  0  0  0  0  0
  187.4460  176.4860  141.0630 C   0  0  0  0  0  2  0  0  0  0  0  0
  186.3280  176.8320  142.0320 C   0  0  0  0  0  2  0  0  0  0  0  0
  186.0470  178.3220  141.9990 C   0  0  0  0  0  2  0  0  0  0  0  0
  186.3900  178.9520  143.3390 C   0  0  0  0  0  2  0  0  0  0  0  0
  183.6980  179.0350  144.6170 C   0  0  0  0  0  1  0  0  0  0  0  0
  186.1010  177.9740  144.4690 C   0  0  2  0  0  3  0  0  0  0  0  0
  184.8520  178.3370  145.2560 C   0  0  0  0  0  0  0  0  0  0  0  0
  185.8040  177.1760  147.1870 C   0  0  0  0  0  3  0  0  0  0  0  0
  187.0230  177.1350  146.6440 C   0  0  0  0  0  3  0  0  0  0  0  0
  187.3260  177.9030  145.3880 C   0  0  0  0  0  2  0  0  0  0  0  0
  184.7110  177.9030  146.5130 C   0  0  0  0  0  3  0  0  0  0  0  0
  1 11  1  0  0  0  0
  2  8  1  0  0  0  0
  3 10  1  0  0  0  0
  4 13  2  0  0  0  0
  5  9  2  0  0  0  0
  6  5  1  0  0  0  0
  6  2  2  0  0  0  0
  7 15  1  0  0  0  0
  8  1  2  0  0  0  0
  8  3  1  0  0  0  0
  9  1  1  0  0  0  0
 10 16  1  0  0  0  0
 10 14  2  0  0  0  0
 11 16  2  0  0  0  0
 12  7  1  0  0  0  0
 12  2  1  0  0  0  0
 13 14  1  0  0  0  0
 14 19  1  0  0  0  0
 15  3  2  0  0  0  0
 15  4  1  0  0  0  0
 17 23  1  0  0  0  0
 17 18  1  0  0  0  0
 19 21  1  0  0  0  0
 19 22  2  0  0  0  0
 20 18  2  0  0  0  0
 21 17  2  0  0  0  0
 22 20  1  0  0  0  0
 24  4  1  0  0  0  0
 24 25  1  0  0  0  0
 26 25  1  0  0  0  0
 26 27  1  0  0  0  0
 28 30  1  0  0  0  0
 29 27  1  6  0  0  0
 29 30  1  0  0  0  0
 29 33  1  0  0  0  0
 30 34  2  0  0  0  0
 32 31  2  0  0  0  0
 33 32  1  0  0  0  0
 34 31  1  0  0  0  0
M  END
>  <MODEL>
9

>  <REMARK>
 VINA RESULT:      -7.2      2.197      5.953
  Name = 
  6 active torsions:
  status: ('A' for Active; 'I' for Inactive)
    1  A    between atoms: C_3  and  C_13
    2  A    between atoms: C_3  and  C_17
    3  A    between atoms: C_5  and  C_18
    4  A    between atoms: C_12  and  C_28
    5  A    between atoms: C_17  and  C_29
    6  A    between atoms: C_18  and  C_29
                            x       y       z     vdW  Elec       q    Type
                         _______ _______ _______ _____ _____    ______ ____

>  <TORSDO>
F 6

$$$$
