=
 OpenBabel11052417253D

 25 28  0  0  1  0  0  0  0  0999 V2000
  185.7810  177.2460  143.9450 C   0  0  0  0  0  0  0  0  0  0  0  0
  186.5320  176.7230  142.8920 C   0  0  0  0  0  0  0  0  0  0  0  0
  184.4440  178.5810  142.4370 C   0  0  0  0  0  3  0  0  0  0  0  0
  185.8050  176.9330  145.3970 C   0  0  2  0  0  3  0  0  0  0  0  0
  185.8370  178.2240  147.9710 C   0  0  0  0  0  3  0  0  0  0  0  0
  185.1940  178.0840  141.3580 C   0  0  0  0  0  3  0  0  0  0  0  0
  184.7330  177.8810  145.8700 C   0  0  0  0  0  0  0  0  0  0  0  0
  184.6960  178.2940  147.2760 C   0  0  0  0  0  3  0  0  0  0  0  0
  186.9990  176.6210  140.5260 C   0  0  0  0  0  0  0  0  0  0  0  0
  186.7570  177.0140  139.1070 C   0  0  0  0  0  1  0  0  0  0  0  0
  187.5210  175.8190  143.1100 N   0  0  0  0  0  0  0  0  0  0  0  0
  187.1030  177.7920  147.3200 C   0  0  0  0  0  3  0  0  0  0  0  0
  184.7530  178.1290  143.7180 C   0  0  0  0  0  0  0  0  0  0  0  0
  184.1390  178.5460  144.9270 N   0  0  0  0  0  0  0  0  0  0  0  0
  187.9800  175.7210  140.8000 N   0  0  0  0  0  0  0  0  0  0  0  0
  187.1050  177.2470  146.0920 C   0  0  0  0  0  3  0  0  0  0  0  0
  188.2480  175.3260  142.0730 C   0  0  0  0  0  0  0  0  0  0  0  0
  186.2360  177.1530  141.5760 C   0  0  0  0  0  0  0  0  0  0  0  0
  189.3110  174.3180  142.3290 C   0  0  0  0  0  2  0  0  0  0  0  0
  190.3110  174.8800  143.2320 N   0  0  0  0  0  2  0  0  0  0  0  0
  190.4500  174.0580  144.4380 C   0  0  2  0  0  3  0  0  0  0  0  0
  189.7630  172.7040  144.3040 C   0  0  0  0  0  1  0  0  0  0  0  0
  190.0470  174.7930  145.6810 C   0  0  0  0  0  0  0  0  0  0  0  0
  190.4500  176.1100  145.8570 O   0  0  0  0  0  0  0  0  0  0  0  0
  189.3200  174.2420  146.5500 O   0  0  0  0  0  1  0  0  0  0  0  0
  1  4  1  0  0  0  0
  2 11  1  0  0  0  0
  2  1  2  0  0  0  0
  3 13  2  0  0  0  0
  4  7  1  0  0  0  0
  4 16  1  1  0  0  0
  6 18  2  0  0  0  0
  6  3  1  0  0  0  0
  7  8  1  0  0  0  0
  8  5  2  0  0  0  0
  9 15  2  0  0  0  0
  9 18  1  0  0  0  0
 10  9  1  0  0  0  0
 12  5  1  0  0  0  0
 13  1  1  0  0  0  0
 13 14  1  0  0  0  0
 14  7  2  0  0  0  0
 15 17  1  0  0  0  0
 16 12  2  0  0  0  0
 17 19  1  0  0  0  0
 17 11  2  0  0  0  0
 18  2  1  0  0  0  0
 19 20  1  0  0  0  0
 20 21  1  0  0  0  0
 21 22  1  6  0  0  0
 21 23  1  0  0  0  0
 23 24  2  0  0  0  0
 23 25  1  0  0  0  0
M  END
>  <MODEL>
1

>  <REMARK>
 VINA RESULT:      -7.3      0.000      0.000
  Name = 
  4 active torsions:
  status: ('A' for Active; 'I' for Inactive)
    1  A    between atoms: C_2  and  CA_21
    2  A    between atoms: C_6  and  N_15
    3  A    between atoms: C_6  and  C_23
    4  A    between atoms: N_15  and  CA_21
                            x       y       z     vdW  Elec       q    Type
                         _______ _______ _______ _____ _____    ______ ____

>  <TORSDO>
F 4

$$$$
=
 OpenBabel11052417253D

 25 28  0  0  1  0  0  0  0  0999 V2000
  185.7700  177.2740  143.9670 C   0  0  0  0  0  0  0  0  0  0  0  0
  186.5210  176.7620  142.9090 C   0  0  0  0  0  0  0  0  0  0  0  0
  184.3920  178.5760  142.4660 C   0  0  0  0  0  3  0  0  0  0  0  0
  185.8130  176.9670  145.4200 C   0  0  2  0  0  3  0  0  0  0  0  0
  185.8440  178.2680  147.9890 C   0  0  0  0  0  3  0  0  0  0  0  0
  185.1420  178.0900  141.3820 C   0  0  0  0  0  3  0  0  0  0  0  0
  184.7270  177.8960  145.8990 C   0  0  0  0  0  0  0  0  0  0  0  0
  184.6950  178.3130  147.3040 C   0  0  0  0  0  3  0  0  0  0  0  0
  186.9680  176.6600  140.5390 C   0  0  0  0  0  0  0  0  0  0  0  0
  186.7050  177.0430  139.1200 C   0  0  0  0  0  1  0  0  0  0  0  0
  187.5300  175.8800  143.1210 N   0  0  0  0  0  0  0  0  0  0  0  0
  187.1120  177.8590  147.3270 C   0  0  0  0  0  3  0  0  0  0  0  0
  184.7220  178.1350  143.7470 C   0  0  0  0  0  0  0  0  0  0  0  0
  184.1110  178.5440  144.9600 N   0  0  0  0  0  0  0  0  0  0  0  0
  187.9700  175.7810  140.8070 N   0  0  0  0  0  0  0  0  0  0  0  0
  187.1130  177.3100  146.1010 C   0  0  0  0  0  3  0  0  0  0  0  0
  188.2570  175.3970  142.0790 C   0  0  0  0  0  0  0  0  0  0  0  0
  186.2040  177.1810  141.5940 C   0  0  0  0  0  0  0  0  0  0  0  0
  189.3420  174.4120  142.3290 C   0  0  0  0  0  2  0  0  0  0  0  0
  190.0950  174.8030  143.5170 N   0  0  0  0  0  2  0  0  0  0  0  0
  190.0390  173.7570  144.5420 C   0  0  2  0  0  3  0  0  0  0  0  0
  189.6460  174.3020  145.9110 C   0  0  0  0  0  1  0  0  0  0  0  0
  191.2880  172.9280  144.5840 C   0  0  0  0  0  0  0  0  0  0  0  0
  191.2280  171.5850  144.2360 O   0  0  0  0  0  0  0  0  0  0  0  0
  192.3940  173.4430  144.8970 O   0  0  0  0  0  1  0  0  0  0  0  0
  1  4  1  0  0  0  0
  2 11  1  0  0  0  0
  2  1  2  0  0  0  0
  3 13  2  0  0  0  0
  4  7  1  0  0  0  0
  4 16  1  1  0  0  0
  6 18  2  0  0  0  0
  6  3  1  0  0  0  0
  7  8  1  0  0  0  0
  8  5  2  0  0  0  0
  9 15  2  0  0  0  0
  9 18  1  0  0  0  0
 10  9  1  0  0  0  0
 12  5  1  0  0  0  0
 13  1  1  0  0  0  0
 13 14  1  0  0  0  0
 14  7  2  0  0  0  0
 15 17  1  0  0  0  0
 16 12  2  0  0  0  0
 17 19  1  0  0  0  0
 17 11  2  0  0  0  0
 18  2  1  0  0  0  0
 19 20  1  0  0  0  0
 20 21  1  0  0  0  0
 21 23  1  0  0  0  0
 21 22  1  1  0  0  0
 23 25  1  0  0  0  0
 24 23  2  0  0  0  0
M  END
>  <MODEL>
2

>  <REMARK>
 VINA RESULT:      -7.1      1.110      1.391
  Name = 
  4 active torsions:
  status: ('A' for Active; 'I' for Inactive)
    1  A    between atoms: C_2  and  CA_21
    2  A    between atoms: C_6  and  N_15
    3  A    between atoms: C_6  and  C_23
    4  A    between atoms: N_15  and  CA_21
                            x       y       z     vdW  Elec       q    Type
                         _______ _______ _______ _____ _____    ______ ____

>  <TORSDO>
F 4

$$$$
=
 OpenBabel11052417253D

 25 28  0  0  1  0  0  0  0  0999 V2000
  187.5080  177.4180  144.0890 C   0  0  0  0  0  0  0  0  0  0  0  0
  188.7430  176.9900  144.5780 C   0  0  0  0  0  0  0  0  0  0  0  0
  186.3650  176.6580  146.0790 C   0  0  0  0  0  3  0  0  0  0  0  0
  187.1660  178.1610  142.8490 C   0  0  2  0  0  3  0  0  0  0  0  0
  185.2990  178.1280  140.6570 C   0  0  0  0  0  3  0  0  0  0  0  0
  187.5920  176.2010  146.5900 C   0  0  0  0  0  3  0  0  0  0  0  0
  185.6710  178.2510  143.0230 C   0  0  0  0  0  0  0  0  0  0  0  0
  184.8160  178.4780  141.8550 C   0  0  0  0  0  3  0  0  0  0  0  0
  190.0320  175.9380  146.3270 C   0  0  0  0  0  0  0  0  0  0  0  0
  190.1720  175.2730  147.6570 C   0  0  0  0  0  1  0  0  0  0  0  0
  189.8850  177.1650  143.8640 N   0  0  0  0  0  0  0  0  0  0  0  0
  186.6330  177.4830  140.5300 C   0  0  0  0  0  3  0  0  0  0  0  0
  186.3600  177.2770  144.8310 C   0  0  0  0  0  0  0  0  0  0  0  0
  185.2220  177.7620  144.1370 N   0  0  0  0  0  0  0  0  0  0  0  0
  191.1440  176.1360  145.5710 N   0  0  0  0  0  0  0  0  0  0  0  0
  187.4870  177.4360  141.5670 C   0  0  0  0  0  3  0  0  0  0  0  0
  191.0780  176.7340  144.3520 C   0  0  0  0  0  0  0  0  0  0  0  0
  188.7840  176.3660  145.8480 C   0  0  0  0  0  0  0  0  0  0  0  0
  192.3210  176.9570  143.5670 C   0  0  0  0  0  2  0  0  0  0  0  0
  193.2880  175.9060  143.8730 N   0  0  0  0  0  2  0  0  0  0  0  0
  194.5400  176.4760  144.3790 C   0  0  2  0  0  3  0  0  0  0  0  0
  195.7430  176.0890  143.5270 C   0  0  0  0  0  1  0  0  0  0  0  0
  194.7470  176.1980  145.8370 C   0  0  0  0  0  0  0  0  0  0  0  0
  194.2200  177.0690  146.7810 O   0  0  0  0  0  1  0  0  0  0  0  0
  195.3640  175.1670  146.2160 O   0  0  0  0  0  0  0  0  0  0  0  0
  1  2  2  0  0  0  0
  1 13  1  0  0  0  0
  2 18  1  0  0  0  0
  3  6  1  0  0  0  0
  4 16  1  6  0  0  0
  4  7  1  0  0  0  0
  4  1  1  0  0  0  0
  5  8  2  0  0  0  0
  7 14  2  0  0  0  0
  8  7  1  0  0  0  0
  9 10  1  0  0  0  0
 11 17  2  0  0  0  0
 11  2  1  0  0  0  0
 12  5  1  0  0  0  0
 12 16  2  0  0  0  0
 13  3  2  0  0  0  0
 14 13  1  0  0  0  0
 15  9  2  0  0  0  0
 17 15  1  0  0  0  0
 18  9  1  0  0  0  0
 18  6  2  0  0  0  0
 19 20  1  0  0  0  0
 19 17  1  0  0  0  0
 20 21  1  0  0  0  0
 21 22  1  6  0  0  0
 21 23  1  0  0  0  0
 23 25  2  0  0  0  0
 23 24  1  0  0  0  0
M  END
>  <MODEL>
3

>  <REMARK>
 VINA RESULT:      -7.0      2.788      5.031
  Name = 
  4 active torsions:
  status: ('A' for Active; 'I' for Inactive)
    1  A    between atoms: C_2  and  CA_21
    2  A    between atoms: C_6  and  N_15
    3  A    between atoms: C_6  and  C_23
    4  A    between atoms: N_15  and  CA_21
                            x       y       z     vdW  Elec       q    Type
                         _______ _______ _______ _____ _____    ______ ____

>  <TORSDO>
F 4

$$$$
=
 OpenBabel11052417253D

 25 28  0  0  1  0  0  0  0  0999 V2000
  186.4240  177.9420  143.1990 C   0  0  0  0  0  0  0  0  0  0  0  0
  186.7390  177.8810  144.5560 C   0  0  0  0  0  0  0  0  0  0  0  0
  184.1960  178.7550  143.6680 C   0  0  0  0  0  3  0  0  0  0  0  0
  187.2660  177.6930  142.0000 C   0  0  2  0  0  3  0  0  0  0  0  0
  187.2190  176.3130  139.4730 C   0  0  0  0  0  3  0  0  0  0  0  0
  184.4790  178.6870  145.0430 C   0  0  0  0  0  3  0  0  0  0  0  0
  186.2430  177.9540  140.9240 C   0  0  0  0  0  0  0  0  0  0  0  0
  186.4380  177.3950  139.5840 C   0  0  0  0  0  3  0  0  0  0  0  0
  186.0760  178.1880  146.8570 C   0  0  0  0  0  0  0  0  0  0  0  0
  185.0950  178.5650  147.9170 C   0  0  0  0  0  1  0  0  0  0  0  0
  187.9640  177.4780  144.9800 N   0  0  0  0  0  0  0  0  0  0  0  0
  187.8180  175.6770  140.6770 C   0  0  0  0  0  3  0  0  0  0  0  0
  185.1980  178.3890  142.7710 C   0  0  0  0  0  0  0  0  0  0  0  0
  185.0870  178.3520  141.3570 N   0  0  0  0  0  0  0  0  0  0  0  0
  187.3170  177.7750  147.2280 N   0  0  0  0  0  0  0  0  0  0  0  0
  187.7880  176.2850  141.8750 C   0  0  0  0  0  3  0  0  0  0  0  0
  188.2520  177.4170  146.3070 C   0  0  0  0  0  0  0  0  0  0  0  0
  185.7470  178.2550  145.4940 C   0  0  0  0  0  0  0  0  0  0  0  0
  189.6070  176.9970  146.7510 C   0  0  0  0  0  2  0  0  0  0  0  0
  189.7360  175.5480  146.6270 N   0  0  0  0  0  2  0  0  0  0  0  0
  191.0660  175.1800  146.1310 C   0  0  2  0  0  3  0  0  0  0  0  0
  192.1690  175.4890  147.1360 C   0  0  0  0  0  1  0  0  0  0  0  0
  191.3450  175.7440  144.7700 C   0  0  0  0  0  0  0  0  0  0  0  0
  192.3850  176.6480  144.6060 O   0  0  0  0  0  1  0  0  0  0  0  0
  190.6700  175.3810  143.7710 O   0  0  0  0  0  0  0  0  0  0  0  0
  1  2  1  0  0  0  0
  2 11  1  0  0  0  0
  2 18  2  0  0  0  0
  3  6  2  0  0  0  0
  4 16  1  1  0  0  0
  4  1  1  0  0  0  0
  5  8  2  0  0  0  0
  5 12  1  0  0  0  0
  6 18  1  0  0  0  0
  7 14  2  0  0  0  0
  7  4  1  0  0  0  0
  8  7  1  0  0  0  0
  9 15  2  0  0  0  0
  9 10  1  0  0  0  0
 11 17  2  0  0  0  0
 12 16  2  0  0  0  0
 13  1  2  0  0  0  0
 13  3  1  0  0  0  0
 14 13  1  0  0  0  0
 17 19  1  0  0  0  0
 17 15  1  0  0  0  0
 18  9  1  0  0  0  0
 20 19  1  0  0  0  0
 21 20  1  0  0  0  0
 21 22  1  1  0  0  0
 23 21  1  0  0  0  0
 24 23  1  0  0  0  0
 25 23  2  0  0  0  0
M  END
>  <MODEL>
4

>  <REMARK>
 VINA RESULT:      -6.7      2.034      4.855
  Name = 
  4 active torsions:
  status: ('A' for Active; 'I' for Inactive)
    1  A    between atoms: C_2  and  CA_21
    2  A    between atoms: C_6  and  N_15
    3  A    between atoms: C_6  and  C_23
    4  A    between atoms: N_15  and  CA_21
                            x       y       z     vdW  Elec       q    Type
                         _______ _______ _______ _____ _____    ______ ____

>  <TORSDO>
F 4

$$$$
=
 OpenBabel11052417253D

 25 28  0  0  1  0  0  0  0  0999 V2000
  186.2700  178.1140  143.7390 C   0  0  0  0  0  0  0  0  0  0  0  0
  185.6550  178.0730  142.4870 C   0  0  0  0  0  0  0  0  0  0  0  0
  188.3300  177.2170  142.8470 C   0  0  0  0  0  3  0  0  0  0  0  0
  185.7820  178.6470  145.0370 C   0  0  2  0  0  3  0  0  0  0  0  0
  185.6180  177.9530  147.8270 C   0  0  0  0  0  3  0  0  0  0  0  0
  187.7310  177.1470  141.5780 C   0  0  0  0  0  3  0  0  0  0  0  0
  186.9840  178.3410  145.8940 C   0  0  0  0  0  0  0  0  0  0  0  0
  186.8340  178.2440  147.3490 C   0  0  0  0  0  3  0  0  0  0  0  0
  185.7670  177.5370  140.1360 C   0  0  0  0  0  0  0  0  0  0  0  0
  186.4720  177.0310  138.9220 C   0  0  0  0  0  1  0  0  0  0  0  0
  184.3780  178.4990  142.3130 N   0  0  0  0  0  0  0  0  0  0  0  0
  184.4790  177.6860  146.9080 C   0  0  0  0  0  3  0  0  0  0  0  0
  187.5760  177.7210  143.9050 C   0  0  0  0  0  0  0  0  0  0  0  0
  187.9910  177.8290  145.2570 N   0  0  0  0  0  0  0  0  0  0  0  0
  184.4850  177.9740  140.0170 N   0  0  0  0  0  0  0  0  0  0  0  0
  184.5690  177.9470  145.5930 C   0  0  0  0  0  3  0  0  0  0  0  0
  183.7910  178.4430  141.0880 C   0  0  0  0  0  0  0  0  0  0  0  0
  186.3970  177.5760  141.3890 C   0  0  0  0  0  0  0  0  0  0  0  0
  182.4010  178.9380  140.9120 C   0  0  0  0  0  2  0  0  0  0  0  0
  181.4640  177.9880  141.5040 N   0  0  0  0  0  2  0  0  0  0  0  0
  180.0850  178.2950  141.1130 C   0  0  2  0  0  3  0  0  0  0  0  0
  179.9470  179.6890  140.5100 C   0  0  0  0  0  1  0  0  0  0  0  0
  179.1060  178.0410  142.2190 C   0  0  0  0  0  0  0  0  0  0  0  0
  178.3860  176.8540  142.2350 O   0  0  0  0  0  0  0  0  0  0  0  0
  178.9530  178.8760  143.1500 O   0  0  0  0  0  1  0  0  0  0  0  0
  1 13  1  0  0  0  0
  1  4  1  0  0  0  0
  2  1  2  0  0  0  0
  3 13  2  0  0  0  0
  4 16  1  1  0  0  0
  4  7  1  0  0  0  0
  6  3  1  0  0  0  0
  7  8  1  0  0  0  0
  8  5  2  0  0  0  0
  9 18  1  0  0  0  0
 10  9  1  0  0  0  0
 11  2  1  0  0  0  0
 12  5  1  0  0  0  0
 13 14  1  0  0  0  0
 14  7  2  0  0  0  0
 15  9  2  0  0  0  0
 15 17  1  0  0  0  0
 16 12  2  0  0  0  0
 17 11  2  0  0  0  0
 18  6  2  0  0  0  0
 18  2  1  0  0  0  0
 19 17  1  0  0  0  0
 19 20  1  0  0  0  0
 21 22  1  1  0  0  0
 21 20  1  0  0  0  0
 21 23  1  0  0  0  0
 23 24  2  0  0  0  0
 23 25  1  0  0  0  0
M  END
>  <MODEL>
5

>  <REMARK>
 VINA RESULT:      -6.7      4.196      6.475
  Name = 
  4 active torsions:
  status: ('A' for Active; 'I' for Inactive)
    1  A    between atoms: C_2  and  CA_21
    2  A    between atoms: C_6  and  N_15
    3  A    between atoms: C_6  and  C_23
    4  A    between atoms: N_15  and  CA_21
                            x       y       z     vdW  Elec       q    Type
                         _______ _______ _______ _____ _____    ______ ____

>  <TORSDO>
F 4

$$$$
=
 OpenBabel11052417253D

 25 28  0  0  1  0  0  0  0  0999 V2000
  188.4690  176.3570  143.0510 C   0  0  0  0  0  0  0  0  0  0  0  0
  187.3750  177.2180  142.9500 C   0  0  0  0  0  0  0  0  0  0  0  0
  188.1790  175.5890  140.7770 C   0  0  0  0  0  3  0  0  0  0  0  0
  189.4450  176.1620  144.1530 C   0  0  2  0  0  3  0  0  0  0  0  0
  190.7410  174.0780  145.6610 C   0  0  0  0  0  3  0  0  0  0  0  0
  187.0630  176.4330  140.6510 C   0  0  0  0  0  3  0  0  0  0  0  0
  190.3060  175.0930  143.5310 C   0  0  0  0  0  0  0  0  0  0  0  0
  191.1240  174.2290  144.3870 C   0  0  0  0  0  3  0  0  0  0  0  0
  185.5580  178.1200  141.6420 C   0  0  0  0  0  0  0  0  0  0  0  0
  184.7440  178.2250  140.3950 C   0  0  0  0  0  1  0  0  0  0  0  0
  187.0010  178.0100  143.9860 N   0  0  0  0  0  0  0  0  0  0  0  0
  189.5010  174.7260  146.1660 C   0  0  0  0  0  3  0  0  0  0  0  0
  188.8710  175.5860  141.9870 C   0  0  0  0  0  0  0  0  0  0  0  0
  189.9880  174.7760  142.3140 N   0  0  0  0  0  0  0  0  0  0  0  0
  185.2250  178.8900  142.7110 N   0  0  0  0  0  0  0  0  0  0  0  0
  188.8520  175.6530  145.4420 C   0  0  0  0  0  3  0  0  0  0  0  0
  185.9280  178.8360  143.8740 C   0  0  0  0  0  0  0  0  0  0  0  0
  186.6570  177.2520  141.7300 C   0  0  0  0  0  0  0  0  0  0  0  0
  185.5490  179.7150  145.0110 C   0  0  0  0  0  2  0  0  0  0  0  0
  184.4990  179.0730  145.7970 N   0  0  0  0  0  2  0  0  0  0  0  0
  185.0270  178.5750  147.0700 C   0  0  2  0  0  3  0  0  0  0  0  0
  186.0780  179.5020  147.6690 C   0  0  0  0  0  1  0  0  0  0  0  0
  185.4910  177.1520  146.9790 C   0  0  0  0  0  0  0  0  0  0  0  0
  186.4880  176.7020  147.8340 O   0  0  0  0  0  1  0  0  0  0  0  0
  184.9640  176.3520  146.1600 O   0  0  0  0  0  0  0  0  0  0  0  0
  1  4  1  0  0  0  0
  2  1  1  0  0  0  0
  2 11  1  0  0  0  0
  3 13  1  0  0  0  0
  4 16  1  1  0  0  0
  5 12  1  0  0  0  0
  6  3  2  0  0  0  0
  6 18  1  0  0  0  0
  7  4  1  0  0  0  0
  7  8  1  0  0  0  0
  8  5  2  0  0  0  0
  9 18  1  0  0  0  0
  9 15  2  0  0  0  0
 10  9  1  0  0  0  0
 13 14  1  0  0  0  0
 13  1  2  0  0  0  0
 14  7  2  0  0  0  0
 15 17  1  0  0  0  0
 16 12  2  0  0  0  0
 17 11  2  0  0  0  0
 17 19  1  0  0  0  0
 18  2  2  0  0  0  0
 19 20  1  0  0  0  0
 20 21  1  0  0  0  0
 21 22  1  6  0  0  0
 23 21  1  0  0  0  0
 23 24  1  0  0  0  0
 25 23  2  0  0  0  0
M  END
>  <MODEL>
6

>  <REMARK>
 VINA RESULT:      -6.7      1.814      5.244
  Name = 
  4 active torsions:
  status: ('A' for Active; 'I' for Inactive)
    1  A    between atoms: C_2  and  CA_21
    2  A    between atoms: C_6  and  N_15
    3  A    between atoms: C_6  and  C_23
    4  A    between atoms: N_15  and  CA_21
                            x       y       z     vdW  Elec       q    Type
                         _______ _______ _______ _____ _____    ______ ____

>  <TORSDO>
F 4

$$$$
=
 OpenBabel11052417253D

 25 28  0  0  1  0  0  0  0  0999 V2000
  187.9890  177.3290  144.1860 C   0  0  0  0  0  0  0  0  0  0  0  0
  189.2110  176.8710  144.6800 C   0  0  0  0  0  0  0  0  0  0  0  0
  186.8420  176.7140  146.2240 C   0  0  0  0  0  3  0  0  0  0  0  0
  187.6610  178.0280  142.9160 C   0  0  2  0  0  3  0  0  0  0  0  0
  185.7630  177.9730  140.7510 C   0  0  0  0  0  3  0  0  0  0  0  0
  188.0550  176.2290  146.7400 C   0  0  0  0  0  3  0  0  0  0  0  0
  186.1740  178.1910  143.1040 C   0  0  0  0  0  0  0  0  0  0  0  0
  185.3130  178.4000  141.9370 C   0  0  0  0  0  3  0  0  0  0  0  0
  190.4770  175.8480  146.4610 C   0  0  0  0  0  0  0  0  0  0  0  0
  190.6080  175.2410  147.8190 C   0  0  0  0  0  1  0  0  0  0  0  0
  190.3480  176.9630  143.9450 N   0  0  0  0  0  0  0  0  0  0  0  0
  187.0670  177.2650  140.6390 C   0  0  0  0  0  3  0  0  0  0  0  0
  186.8460  177.2730  144.9470 C   0  0  0  0  0  0  0  0  0  0  0  0
  185.7200  177.7750  144.2460 N   0  0  0  0  0  0  0  0  0  0  0  0
  191.5860  175.9610  145.6840 N   0  0  0  0  0  0  0  0  0  0  0  0
  187.9320  177.2310  141.6670 C   0  0  0  0  0  3  0  0  0  0  0  0
  191.5290  176.5040  144.4380 C   0  0  0  0  0  0  0  0  0  0  0  0
  189.2430  176.3070  145.9770 C   0  0  0  0  0  0  0  0  0  0  0  0
  192.7690  176.6360  143.6290 C   0  0  0  0  0  2  0  0  0  0  0  0
  193.9300  176.6660  144.5130 N   0  0  0  0  0  2  0  0  0  0  0  0
  194.9460  175.7020  144.0800 C   0  0  2  0  0  3  0  0  0  0  0  0
  195.6360  175.0150  145.2520 C   0  0  0  0  0  1  0  0  0  0  0  0
  195.9150  176.2940  143.1010 C   0  0  0  0  0  0  0  0  0  0  0  0
  195.8020  175.9800  141.7530 O   0  0  0  0  0  0  0  0  0  0  0  0
  196.8070  177.0980  143.4810 O   0  0  0  0  0  1  0  0  0  0  0  0
  1  2  2  0  0  0  0
  1 13  1  0  0  0  0
  2 18  1  0  0  0  0
  3  6  1  0  0  0  0
  4 16  1  6  0  0  0
  4  7  1  0  0  0  0
  4  1  1  0  0  0  0
  5  8  2  0  0  0  0
  7 14  2  0  0  0  0
  8  7  1  0  0  0  0
  9 10  1  0  0  0  0
 11 17  2  0  0  0  0
 11  2  1  0  0  0  0
 12  5  1  0  0  0  0
 12 16  2  0  0  0  0
 13  3  2  0  0  0  0
 14 13  1  0  0  0  0
 15  9  2  0  0  0  0
 17 15  1  0  0  0  0
 18  9  1  0  0  0  0
 18  6  2  0  0  0  0
 19 17  1  0  0  0  0
 19 20  1  0  0  0  0
 21 20  1  0  0  0  0
 21 22  1  1  0  0  0
 23 25  1  0  0  0  0
 23 21  1  0  0  0  0
 24 23  2  0  0  0  0
M  END
>  <MODEL>
7

>  <REMARK>
 VINA RESULT:      -6.7      3.276      5.497
  Name = 
  4 active torsions:
  status: ('A' for Active; 'I' for Inactive)
    1  A    between atoms: C_2  and  CA_21
    2  A    between atoms: C_6  and  N_15
    3  A    between atoms: C_6  and  C_23
    4  A    between atoms: N_15  and  CA_21
                            x       y       z     vdW  Elec       q    Type
                         _______ _______ _______ _____ _____    ______ ____

>  <TORSDO>
F 4

$$$$
=
 OpenBabel11052417253D

 25 28  0  0  1  0  0  0  0  0999 V2000
  186.9520  176.5040  144.7070 C   0  0  0  0  0  0  0  0  0  0  0  0
  188.1380  175.8590  144.3560 C   0  0  0  0  0  0  0  0  0  0  0  0
  186.2660  176.6750  142.3950 C   0  0  0  0  0  3  0  0  0  0  0  0
  186.3760  176.8070  146.0420 C   0  0  2  0  0  3  0  0  0  0  0  0
  185.1430  178.9500  147.5200 C   0  0  0  0  0  3  0  0  0  0  0  0
  187.4610  176.0430  142.0110 C   0  0  0  0  0  3  0  0  0  0  0  0
  185.1080  177.4990  145.6110 C   0  0  0  0  0  0  0  0  0  0  0  0
  184.4180  178.3980  146.5390 C   0  0  0  0  0  3  0  0  0  0  0  0
  189.5970  174.9820  142.6440 C   0  0  0  0  0  0  0  0  0  0  0  0
  189.9540  174.6950  141.2230 C   0  0  0  0  0  1  0  0  0  0  0  0
  189.0280  175.4530  145.2980 N   0  0  0  0  0  0  0  0  0  0  0  0
  186.6060  178.6960  147.6240 C   0  0  0  0  0  3  0  0  0  0  0  0
  186.0350  176.8770  143.7540 C   0  0  0  0  0  0  0  0  0  0  0  0
  184.9140  177.5300  144.3280 N   0  0  0  0  0  0  0  0  0  0  0  0
  190.4540  174.5980  143.6270 N   0  0  0  0  0  0  0  0  0  0  0  0
  187.2020  177.7400  146.8900 C   0  0  0  0  0  3  0  0  0  0  0  0
  190.1820  174.8340  144.9390 C   0  0  0  0  0  0  0  0  0  0  0  0
  188.3990  175.6290  142.9840 C   0  0  0  0  0  0  0  0  0  0  0  0
  191.1320  174.3740  145.9860 C   0  0  0  0  0  2  0  0  0  0  0  0
  192.5030  174.5510  145.5160 N   0  0  0  0  0  2  0  0  0  0  0  0
  193.1750  175.6280  146.2490 C   0  0  2  0  0  3  0  0  0  0  0  0
  192.2430  176.3390  147.2230 C   0  0  0  0  0  1  0  0  0  0  0  0
  193.8970  176.5760  145.3390 C   0  0  0  0  0  0  0  0  0  0  0  0
  194.6140  177.6320  145.8830 O   0  0  0  0  0  1  0  0  0  0  0  0
  193.8890  176.4050  144.0910 O   0  0  0  0  0  0  0  0  0  0  0  0
  1  4  1  0  0  0  0
  2  1  1  0  0  0  0
  2 11  1  0  0  0  0
  3 13  1  0  0  0  0
  4 16  1  1  0  0  0
  5 12  1  0  0  0  0
  6  3  2  0  0  0  0
  6 18  1  0  0  0  0
  7  4  1  0  0  0  0
  7  8  1  0  0  0  0
  8  5  2  0  0  0  0
  9 18  1  0  0  0  0
  9 15  2  0  0  0  0
 10  9  1  0  0  0  0
 13 14  1  0  0  0  0
 13  1  2  0  0  0  0
 14  7  2  0  0  0  0
 15 17  1  0  0  0  0
 16 12  2  0  0  0  0
 17 11  2  0  0  0  0
 17 19  1  0  0  0  0
 18  2  2  0  0  0  0
 20 19  1  0  0  0  0
 20 21  1  0  0  0  0
 21 22  1  6  0  0  0
 23 24  1  0  0  0  0
 23 21  1  0  0  0  0
 25 23  2  0  0  0  0
M  END
>  <MODEL>
8

>  <REMARK>
 VINA RESULT:      -6.5      2.113      3.161
  Name = 
  4 active torsions:
  status: ('A' for Active; 'I' for Inactive)
    1  A    between atoms: C_2  and  CA_21
    2  A    between atoms: C_6  and  N_15
    3  A    between atoms: C_6  and  C_23
    4  A    between atoms: N_15  and  CA_21
                            x       y       z     vdW  Elec       q    Type
                         _______ _______ _______ _____ _____    ______ ____

>  <TORSDO>
F 4

$$$$
=
 OpenBabel11052417253D

 25 28  0  0  1  0  0  0  0  0999 V2000
  187.9100  176.4390  145.0150 C   0  0  0  0  0  0  0  0  0  0  0  0
  188.4980  175.4930  144.1740 C   0  0  0  0  0  0  0  0  0  0  0  0
  188.9490  175.4690  146.9700 C   0  0  0  0  0  3  0  0  0  0  0  0
  187.0750  177.6260  144.6970 C   0  0  2  0  0  3  0  0  0  0  0  0
  184.6500  178.9480  145.5140 C   0  0  0  0  0  3  0  0  0  0  0  0
  189.5410  174.4930  146.1510 C   0  0  0  0  0  3  0  0  0  0  0  0
  186.8310  178.1350  146.0950 C   0  0  0  0  0  0  0  0  0  0  0  0
  185.6860  179.0100  146.3610 C   0  0  0  0  0  3  0  0  0  0  0  0
  189.9080  173.5530  143.8990 C   0  0  0  0  0  0  0  0  0  0  0  0
  190.7940  172.4710  144.4200 C   0  0  0  0  0  1  0  0  0  0  0  0
  188.2950  175.5160  142.8330 N   0  0  0  0  0  0  0  0  0  0  0  0
  184.6480  177.9850  144.3800 C   0  0  0  0  0  3  0  0  0  0  0  0
  188.1510  176.4390  146.3670 C   0  0  0  0  0  0  0  0  0  0  0  0
  187.4410  177.4730  147.0300 N   0  0  0  0  0  0  0  0  0  0  0  0
  189.6690  173.6200  142.5620 N   0  0  0  0  0  0  0  0  0  0  0  0
  185.7600  177.3150  144.0310 C   0  0  0  0  0  3  0  0  0  0  0  0
  188.8690  174.5820  142.0300 C   0  0  0  0  0  0  0  0  0  0  0  0
  189.3240  174.5000  144.7540 C   0  0  0  0  0  0  0  0  0  0  0  0
  188.6550  174.6380  140.5600 C   0  0  0  0  0  2  0  0  0  0  0  0
  189.6290  173.7820  139.8900 N   0  0  0  0  0  2  0  0  0  0  0  0
  189.3550  173.7000  138.4520 C   0  0  2  0  0  3  0  0  0  0  0  0
  188.0490  174.3840  138.0670 C   0  0  0  0  0  1  0  0  0  0  0  0
  189.4510  172.2970  137.9310 C   0  0  0  0  0  0  0  0  0  0  0  0
  189.4200  171.2330  138.8220 O   0  0  0  0  0  1  0  0  0  0  0  0
  189.5260  172.0720  136.6930 O   0  0  0  0  0  0  0  0  0  0  0  0
  1 13  1  0  0  0  0
  2 18  1  0  0  0  0
  2  1  2  0  0  0  0
  4 16  1  1  0  0  0
  4  1  1  0  0  0  0
  4  7  1  0  0  0  0
  5  8  2  0  0  0  0
  6  3  1  0  0  0  0
  7  8  1  0  0  0  0
  7 14  2  0  0  0  0
  9 10  1  0  0  0  0
  9 18  1  0  0  0  0
 11  2  1  0  0  0  0
 12  5  1  0  0  0  0
 13  3  2  0  0  0  0
 13 14  1  0  0  0  0
 15  9  2  0  0  0  0
 16 12  2  0  0  0  0
 17 15  1  0  0  0  0
 17 11  2  0  0  0  0
 18  6  2  0  0  0  0
 19 17  1  0  0  0  0
 20 19  1  0  0  0  0
 21 22  1  1  0  0  0
 21 20  1  0  0  0  0
 23 21  1  0  0  0  0
 23 24  1  0  0  0  0
 25 23  2  0  0  0  0
M  END
>  <MODEL>
9

>  <REMARK>
 VINA RESULT:      -6.4      3.298      5.173
  Name = 
  4 active torsions:
  status: ('A' for Active; 'I' for Inactive)
    1  A    between atoms: C_2  and  CA_21
    2  A    between atoms: C_6  and  N_15
    3  A    between atoms: C_6  and  C_23
    4  A    between atoms: N_15  and  CA_21
                            x       y       z     vdW  Elec       q    Type
                         _______ _______ _______ _____ _____    ______ ____

>  <TORSDO>
F 4

$$$$
