=
 OpenBabel11052417153D

 30 33  0  0  1  0  0  0  0  0999 V2000
  187.6780  176.7770  145.5670 C   0  0  0  0  0  3  0  0  0  0  0  0
  185.7960  177.6350  146.9930 C   0  0  2  0  0  3  0  0  0  0  0  0
  185.9610  177.8340  141.9980 N   0  0  0  0  0  0  0  0  0  0  0  0
  188.3110  176.5580  144.3260 C   0  0  0  0  0  0  0  0  0  0  0  0
  186.9910  177.4060  141.2240 C   0  0  0  0  0  0  0  0  0  0  0  0
  184.2880  177.8900  146.9200 C   0  0  0  0  0  2  0  0  0  0  0  0
  186.4920  178.8070  147.6650 C   0  0  0  0  0  1  0  0  0  0  0  0
  186.3960  177.5480  143.2360 C   0  0  0  0  0  0  0  0  0  0  0  0
  183.9660  178.9040  145.8250 C   0  0  0  0  0  2  0  0  0  0  0  0
  186.4000  177.3750  145.6380 C   0  0  0  0  0  0  0  0  0  0  0  0
  187.6310  176.9700  143.1780 C   0  0  0  0  0  0  0  0  0  0  0  0
  186.9730  177.5110  139.8060 N   0  0  0  0  0  1  0  0  0  0  0  0
  188.0360  176.8680  141.9020 N   0  0  0  0  0  2  0  0  0  0  0  0
  184.3400  178.3290  144.4630 C   0  0  0  0  0  2  0  0  0  0  0  0
  185.7410  177.7790  144.4460 C   0  0  0  0  0  0  0  0  0  0  0  0
  189.6780  175.9400  144.2310 C   0  0  2  0  0  3  0  0  0  0  0  0
  189.8060  173.8650  142.0790 C   0  0  0  0  0  2  0  0  0  0  0  0
  189.6200  174.0790  145.7390 O   0  0  0  0  0  0  0  0  0  0  0  0
  189.6950  174.4690  144.5420 C   0  0  0  0  0  0  0  0  0  0  0  0
  189.7460  172.0780  143.7110 C   0  0  0  0  0  2  0  0  0  0  0  0
  189.7560  173.5070  143.4820 N   0  0  0  0  0  0  0  0  0  0  0  0
  189.7000  172.5550  141.3210 C   0  0  0  0  0  2  0  0  0  0  0  0
  189.9020  171.4440  142.3410 C   0  0  0  0  0  2  0  0  0  0  0  0
  190.7680  176.7410  144.9480 C   0  0  0  0  0  2  0  0  0  0  0  0
  191.8540  177.2440  144.0040 C   0  0  0  0  0  2  0  0  0  0  0  0
  193.0790  176.3500  144.0780 C   0  0  0  0  0  2  0  0  0  0  0  0
  193.1210  175.6110  145.4050 C   0  0  0  0  0  2  0  0  0  0  0  0
  194.1970  177.1860  146.9330 O   0  0  0  0  0  0  0  0  0  0  0  0
  194.2730  176.0430  146.1740 N   0  0  0  0  0  0  0  0  0  0  0  0
  195.2640  175.2930  146.2830 O   0  0  0  0  0  0  0  0  0  0  0  0
  1 10  1  0  0  0  0
  2  7  1  6  0  0  0
  3  8  1  0  0  0  0
  4  1  2  0  0  0  0
  5 13  1  0  0  0  0
  5  3  2  0  0  0  0
  6  2  1  0  0  0  0
  8 15  1  0  0  0  0
  9  6  1  0  0  0  0
 10  2  1  0  0  0  0
 11  8  2  0  0  0  0
 11  4  1  0  0  0  0
 12  5  1  0  0  0  0
 13 11  1  0  0  0  0
 14  9  1  0  0  0  0
 15 14  1  0  0  0  0
 15 10  2  0  0  0  0
 16  4  1  0  0  0  0
 16 19  1  0  0  0  0
 16 24  1  1  0  0  0
 17 21  1  0  0  0  0
 19 18  2  0  0  0  0
 21 20  1  0  0  0  0
 21 19  1  0  0  0  0
 22 17  1  0  0  0  0
 22 23  1  0  0  0  0
 23 20  1  0  0  0  0
 25 26  1  0  0  0  0
 25 24  1  0  0  0  0
 26 27  1  0  0  0  0
 27 29  1  0  0  0  0
 29 30  2  0  0  0  0
 29 28  2  0  0  0  0
M  END
>  <MODEL>
1

>  <REMARK>
 VINA RESULT:      -7.6      0.000      0.000
  Name = 
  7 active torsions:
  status: ('A' for Active; 'I' for Inactive)
    1  A    between atoms: C_4  and  C_13
    2  A    between atoms: C_7  and  N_15
    3  A    between atoms: C_7  and  C_16
    4  A    between atoms: C_8  and  C_13
    5  A    between atoms: C_13  and  C_27
    6  A    between atoms: C_16  and  C_30
    7  A    between atoms: C_27  and  C_30
                            x       y       z     vdW  Elec       q    Type
                         _______ _______ _______ _____ _____    ______ ____

>  <TORSDO>
F 7

$$$$
=
 OpenBabel11052417153D

 30 33  0  0  1  0  0  0  0  0999 V2000
  187.4840  176.2120  145.1610 C   0  0  0  0  0  3  0  0  0  0  0  0
  185.8170  177.2870  146.7030 C   0  0  2  0  0  3  0  0  0  0  0  0
  185.8640  177.7490  141.7240 N   0  0  0  0  0  0  0  0  0  0  0  0
  188.0330  175.9640  143.8860 C   0  0  0  0  0  0  0  0  0  0  0  0
  186.7840  177.2020  140.8880 C   0  0  0  0  0  0  0  0  0  0  0  0
  184.3720  177.7940  146.7030 C   0  0  0  0  0  2  0  0  0  0  0  0
  186.7210  178.2850  147.4090 C   0  0  0  0  0  1  0  0  0  0  0  0
  186.2820  177.3220  142.9260 C   0  0  0  0  0  0  0  0  0  0  0  0
  184.1930  178.9090  145.6770 C   0  0  0  0  0  2  0  0  0  0  0  0
  186.3280  177.0100  145.3130 C   0  0  0  0  0  0  0  0  0  0  0  0
  187.3990  176.5510  142.7890 C   0  0  0  0  0  0  0  0  0  0  0  0
  186.7420  177.3920  139.4790 N   0  0  0  0  0  1  0  0  0  0  0  0
  187.7430  176.4590  141.4940 N   0  0  0  0  0  2  0  0  0  0  0  0
  184.4240  178.3610  144.2720 C   0  0  0  0  0  2  0  0  0  0  0  0
  185.7110  177.5880  144.1710 C   0  0  0  0  0  0  0  0  0  0  0  0
  189.2740  175.1340  143.7050 C   0  0  2  0  0  3  0  0  0  0  0  0
  190.9760  175.2180  146.1640 C   0  0  0  0  0  2  0  0  0  0  0  0
  190.9040  176.6240  142.7740 O   0  0  0  0  0  0  0  0  0  0  0  0
  190.5450  175.9340  143.7680 C   0  0  0  0  0  0  0  0  0  0  0  0
  192.5490  176.7190  145.1020 C   0  0  0  0  0  2  0  0  0  0  0  0
  191.3320  175.9480  144.9650 N   0  0  0  0  0  0  0  0  0  0  0  0
  191.9840  175.6420  147.2150 C   0  0  0  0  0  2  0  0  0  0  0  0
  193.0900  176.3870  146.4800 C   0  0  0  0  0  2  0  0  0  0  0  0
  189.2030  174.1690  142.5190 C   0  0  0  0  0  2  0  0  0  0  0  0
  189.0190  172.7170  142.9440 C   0  0  0  0  0  2  0  0  0  0  0  0
  189.8400  172.4180  144.1840 C   0  0  0  0  0  2  0  0  0  0  0  0
  191.1330  171.7130  143.8110 C   0  0  0  0  0  2  0  0  0  0  0  0
  193.0130  172.6670  145.0470 O   0  0  0  0  0  0  0  0  0  0  0  0
  192.2460  172.6390  143.9070 N   0  0  0  0  0  0  0  0  0  0  0  0
  192.6100  173.2800  142.9010 O   0  0  0  0  0  0  0  0  0  0  0  0
  1 10  1  0  0  0  0
  2  7  1  6  0  0  0
  3  8  1  0  0  0  0
  4  1  2  0  0  0  0
  5 13  1  0  0  0  0
  5  3  2  0  0  0  0
  6  2  1  0  0  0  0
  8 15  1  0  0  0  0
  9  6  1  0  0  0  0
 10  2  1  0  0  0  0
 11  8  2  0  0  0  0
 11  4  1  0  0  0  0
 12  5  1  0  0  0  0
 13 11  1  0  0  0  0
 14  9  1  0  0  0  0
 15 14  1  0  0  0  0
 15 10  2  0  0  0  0
 16 24  1  6  0  0  0
 16 19  1  0  0  0  0
 16  4  1  0  0  0  0
 17 22  1  0  0  0  0
 18 19  2  0  0  0  0
 19 21  1  0  0  0  0
 20 23  1  0  0  0  0
 21 20  1  0  0  0  0
 21 17  1  0  0  0  0
 23 22  1  0  0  0  0
 24 25  1  0  0  0  0
 25 26  1  0  0  0  0
 27 29  1  0  0  0  0
 27 26  1  0  0  0  0
 29 28  2  0  0  0  0
 30 29  2  0  0  0  0
M  END
>  <MODEL>
2

>  <REMARK>
 VINA RESULT:      -7.4      1.734      3.412
  Name = 
  7 active torsions:
  status: ('A' for Active; 'I' for Inactive)
    1  A    between atoms: C_4  and  C_13
    2  A    between atoms: C_7  and  N_15
    3  A    between atoms: C_7  and  C_16
    4  A    between atoms: C_8  and  C_13
    5  A    between atoms: C_13  and  C_27
    6  A    between atoms: C_16  and  C_30
    7  A    between atoms: C_27  and  C_30
                            x       y       z     vdW  Elec       q    Type
                         _______ _______ _______ _____ _____    ______ ____

>  <TORSDO>
F 7

$$$$
=
 OpenBabel11052417153D

 30 33  0  0  1  0  0  0  0  0999 V2000
  187.6550  176.7480  145.3320 C   0  0  0  0  0  3  0  0  0  0  0  0
  185.8210  177.6030  146.8220 C   0  0  2  0  0  3  0  0  0  0  0  0
  185.8250  177.8220  141.8260 N   0  0  0  0  0  0  0  0  0  0  0  0
  188.2460  176.5320  144.0710 C   0  0  0  0  0  0  0  0  0  0  0  0
  186.8290  177.3950  141.0170 C   0  0  0  0  0  0  0  0  0  0  0  0
  184.3120  177.8610  146.7990 C   0  0  0  0  0  2  0  0  0  0  0  0
  186.5410  178.7720  147.4760 C   0  0  0  0  0  1  0  0  0  0  0  0
  186.3000  177.5300  143.0470 C   0  0  0  0  0  0  0  0  0  0  0  0
  183.9570  178.8800  145.7190 C   0  0  0  0  0  2  0  0  0  0  0  0
  186.3810  177.3470  145.4470 C   0  0  0  0  0  0  0  0  0  0  0  0
  187.5310  176.9500  142.9470 C   0  0  0  0  0  0  0  0  0  0  0  0
  186.7650  177.5060  139.6000 N   0  0  0  0  0  1  0  0  0  0  0  0
  187.8940  176.8530  141.6580 N   0  0  0  0  0  2  0  0  0  0  0  0
  184.2850  178.3100  144.3430 C   0  0  0  0  0  2  0  0  0  0  0  0
  185.6840  177.7570  144.2790 C   0  0  0  0  0  0  0  0  0  0  0  0
  189.6090  175.9130  143.9290 C   0  0  2  0  0  3  0  0  0  0  0  0
  189.8400  173.7720  141.8520 C   0  0  0  0  0  2  0  0  0  0  0  0
  189.5420  174.1000  145.4960 O   0  0  0  0  0  0  0  0  0  0  0  0
  189.6450  174.4530  144.2890 C   0  0  0  0  0  0  0  0  0  0  0  0
  189.7660  172.0380  143.5380 C   0  0  0  0  0  2  0  0  0  0  0  0
  189.7560  173.4590  143.2630 N   0  0  0  0  0  0  0  0  0  0  0  0
  189.7800  172.4370  141.1330 C   0  0  0  0  0  2  0  0  0  0  0  0
  189.9730  171.3630  142.1950 C   0  0  0  0  0  2  0  0  0  0  0  0
  190.7310  176.7380  144.5640 C   0  0  0  0  0  2  0  0  0  0  0  0
  192.1220  176.2190  144.2150 C   0  0  0  0  0  2  0  0  0  0  0  0
  193.0560  176.3630  145.4020 C   0  0  0  0  0  2  0  0  0  0  0  0
  192.7380  175.3200  146.4610 C   0  0  0  0  0  2  0  0  0  0  0  0
  191.0300  175.1250  148.1980 O   0  0  0  0  0  0  0  0  0  0  0  0
  191.9210  175.9100  147.5050 N   0  0  0  0  0  0  0  0  0  0  0  0
  192.1470  177.0760  147.8880 O   0  0  0  0  0  0  0  0  0  0  0  0
  1 10  1  0  0  0  0
  2  7  1  6  0  0  0
  3  8  1  0  0  0  0
  4  1  2  0  0  0  0
  5 13  1  0  0  0  0
  5  3  2  0  0  0  0
  6  2  1  0  0  0  0
  8 15  1  0  0  0  0
  9  6  1  0  0  0  0
 10  2  1  0  0  0  0
 11  8  2  0  0  0  0
 11  4  1  0  0  0  0
 12  5  1  0  0  0  0
 13 11  1  0  0  0  0
 14  9  1  0  0  0  0
 15 14  1  0  0  0  0
 15 10  2  0  0  0  0
 16  4  1  0  0  0  0
 16 19  1  0  0  0  0
 16 24  1  1  0  0  0
 17 21  1  0  0  0  0
 19 18  2  0  0  0  0
 21 20  1  0  0  0  0
 21 19  1  0  0  0  0
 22 17  1  0  0  0  0
 22 23  1  0  0  0  0
 23 20  1  0  0  0  0
 25 24  1  0  0  0  0
 25 26  1  0  0  0  0
 26 27  1  0  0  0  0
 27 29  1  0  0  0  0
 29 30  2  0  0  0  0
 29 28  2  0  0  0  0
M  END
>  <MODEL>
3

>  <REMARK>
 VINA RESULT:      -7.3      1.032      1.215
  Name = 
  7 active torsions:
  status: ('A' for Active; 'I' for Inactive)
    1  A    between atoms: C_4  and  C_13
    2  A    between atoms: C_7  and  N_15
    3  A    between atoms: C_7  and  C_16
    4  A    between atoms: C_8  and  C_13
    5  A    between atoms: C_13  and  C_27
    6  A    between atoms: C_16  and  C_30
    7  A    between atoms: C_27  and  C_30
                            x       y       z     vdW  Elec       q    Type
                         _______ _______ _______ _____ _____    ______ ____

>  <TORSDO>
F 7

$$$$
=
 OpenBabel11052417153D

 30 33  0  0  1  0  0  0  0  0999 V2000
  187.4700  176.2660  145.1100 C   0  0  0  0  0  3  0  0  0  0  0  0
  185.8170  177.3130  146.6850 C   0  0  2  0  0  3  0  0  0  0  0  0
  185.7730  177.7970  141.7070 N   0  0  0  0  0  0  0  0  0  0  0  0
  188.0000  176.0300  143.8250 C   0  0  0  0  0  0  0  0  0  0  0  0
  186.6850  177.2650  140.8540 C   0  0  0  0  0  0  0  0  0  0  0  0
  184.3660  177.8030  146.7120 C   0  0  0  0  0  2  0  0  0  0  0  0
  186.7210  178.3190  147.3800 C   0  0  0  0  0  1  0  0  0  0  0  0
  186.2170  177.3700  142.9010 C   0  0  0  0  0  0  0  0  0  0  0  0
  184.1560  178.9210  145.6940 C   0  0  0  0  0  2  0  0  0  0  0  0
  186.3070  177.0480  145.2850 C   0  0  0  0  0  0  0  0  0  0  0  0
  187.3410  176.6130  142.7420 C   0  0  0  0  0  0  0  0  0  0  0  0
  186.6170  177.4600  139.4470 N   0  0  0  0  0  1  0  0  0  0  0  0
  187.6630  176.5310  141.4410 N   0  0  0  0  0  2  0  0  0  0  0  0
  184.3700  178.3820  144.2830 C   0  0  0  0  0  2  0  0  0  0  0  0
  185.6640  177.6240  144.1570 C   0  0  0  0  0  0  0  0  0  0  0  0
  189.2470  175.2150  143.6190 C   0  0  2  0  0  3  0  0  0  0  0  0
  191.1290  174.9700  145.9320 C   0  0  0  0  0  2  0  0  0  0  0  0
  190.7890  176.8580  142.8020 O   0  0  0  0  0  0  0  0  0  0  0  0
  190.5130  176.0220  143.7060 C   0  0  0  0  0  0  0  0  0  0  0  0
  192.6040  176.6430  144.9910 C   0  0  0  0  0  2  0  0  0  0  0  0
  191.3870  175.8760  144.8310 N   0  0  0  0  0  0  0  0  0  0  0  0
  192.2100  175.2560  146.9570 C   0  0  0  0  0  2  0  0  0  0  0  0
  193.2510  176.1230  146.2620 C   0  0  0  0  0  2  0  0  0  0  0  0
  189.1840  174.2860  142.4040 C   0  0  0  0  0  2  0  0  0  0  0  0
  190.3920  173.3620  142.2980 C   0  0  0  0  0  2  0  0  0  0  0  0
  190.7390  173.1060  140.8430 C   0  0  0  0  0  2  0  0  0  0  0  0
  190.1730  171.7720  140.3860 C   0  0  0  0  0  2  0  0  0  0  0  0
  188.0600  172.6050  139.4820 O   0  0  0  0  0  0  0  0  0  0  0  0
  189.2640  171.9770  139.2730 N   0  0  0  0  0  0  0  0  0  0  0  0
  189.6460  171.7420  138.1080 O   0  0  0  0  0  0  0  0  0  0  0  0
  1 10  1  0  0  0  0
  2  6  1  0  0  0  0
  2  7  1  6  0  0  0
  3  8  1  0  0  0  0
  4  1  2  0  0  0  0
  5 13  1  0  0  0  0
  5  3  2  0  0  0  0
  8 15  1  0  0  0  0
  9  6  1  0  0  0  0
 10  2  1  0  0  0  0
 11  8  2  0  0  0  0
 11  4  1  0  0  0  0
 12  5  1  0  0  0  0
 13 11  1  0  0  0  0
 14  9  1  0  0  0  0
 15 14  1  0  0  0  0
 15 10  2  0  0  0  0
 16 24  1  6  0  0  0
 16 19  1  0  0  0  0
 16  4  1  0  0  0  0
 17 22  1  0  0  0  0
 18 19  2  0  0  0  0
 19 21  1  0  0  0  0
 20 23  1  0  0  0  0
 21 20  1  0  0  0  0
 21 17  1  0  0  0  0
 23 22  1  0  0  0  0
 25 24  1  0  0  0  0
 26 25  1  0  0  0  0
 27 26  1  0  0  0  0
 29 28  2  0  0  0  0
 29 27  1  0  0  0  0
 30 29  2  0  0  0  0
M  END
>  <MODEL>
4

>  <REMARK>
 VINA RESULT:      -7.0      2.421      4.485
  Name = 
  7 active torsions:
  status: ('A' for Active; 'I' for Inactive)
    1  A    between atoms: C_4  and  C_13
    2  A    between atoms: C_7  and  N_15
    3  A    between atoms: C_7  and  C_16
    4  A    between atoms: C_8  and  C_13
    5  A    between atoms: C_13  and  C_27
    6  A    between atoms: C_16  and  C_30
    7  A    between atoms: C_27  and  C_30
                            x       y       z     vdW  Elec       q    Type
                         _______ _______ _______ _____ _____    ______ ____

>  <TORSDO>
F 7

$$$$
=
 OpenBabel11052417153D

 30 33  0  0  1  0  0  0  0  0999 V2000
  187.7500  177.4590  143.0850 C   0  0  0  0  0  3  0  0  0  0  0  0
  185.8750  179.1210  143.2820 C   0  0  2  0  0  3  0  0  0  0  0  0
  187.5710  176.2230  146.9890 N   0  0  0  0  0  0  0  0  0  0  0  0
  188.5960  176.4570  143.6030 C   0  0  0  0  0  0  0  0  0  0  0  0
  188.5580  175.2970  146.8790 C   0  0  0  0  0  0  0  0  0  0  0  0
  185.1940  180.0050  144.3300 C   0  0  0  0  0  2  0  0  0  0  0  0
  184.8300  178.4390  142.4140 C   0  0  0  0  0  1  0  0  0  0  0  0
  187.5110  176.7240  145.7440 C   0  0  0  0  0  0  0  0  0  0  0  0
  184.6020  179.1540  145.4500 C   0  0  0  0  0  2  0  0  0  0  0  0
  186.7900  178.0970  143.9020 C   0  0  0  0  0  0  0  0  0  0  0  0
  188.4340  176.1130  144.9460 C   0  0  0  0  0  0  0  0  0  0  0  0
  188.9760  174.4960  147.9770 N   0  0  0  0  0  1  0  0  0  0  0  0
  189.1170  175.1940  145.6480 N   0  0  0  0  0  2  0  0  0  0  0  0
  185.7210  178.4370  146.1990 C   0  0  0  0  0  2  0  0  0  0  0  0
  186.6580  177.7190  145.2650 C   0  0  0  0  0  0  0  0  0  0  0  0
  189.6100  175.7540  142.7450 C   0  0  2  0  0  3  0  0  0  0  0  0
  192.1470  174.1720  142.8660 C   0  0  0  0  0  2  0  0  0  0  0  0
  191.0470  177.6720  142.7370 O   0  0  0  0  0  0  0  0  0  0  0  0
  190.9610  176.4130  142.7500 C   0  0  0  0  0  0  0  0  0  0  0  0
  193.4820  176.1900  142.8480 C   0  0  0  0  0  2  0  0  0  0  0  0
  192.1520  175.6190  142.8100 N   0  0  0  0  0  0  0  0  0  0  0  0
  193.5930  173.7660  143.0790 C   0  0  0  0  0  2  0  0  0  0  0  0
  194.4350  175.0100  142.8290 C   0  0  0  0  0  2  0  0  0  0  0  0
  189.0960  175.3980  141.3480 C   0  0  0  0  0  2  0  0  0  0  0  0
  188.5230  173.9880  141.2650 C   0  0  0  0  0  2  0  0  0  0  0  0
  189.2150  173.1960  140.1720 C   0  0  0  0  0  2  0  0  0  0  0  0
  188.2030  172.6860  139.1600 C   0  0  0  0  0  2  0  0  0  0  0  0
  187.7620  174.7000  137.8480 O   0  0  0  0  0  0  0  0  0  0  0  0
  188.3120  173.4430  137.9270 N   0  0  0  0  0  0  0  0  0  0  0  0
  189.0470  173.0300  137.0070 O   0  0  0  0  0  0  0  0  0  0  0  0
  1  4  2  0  0  0  0
  1 10  1  0  0  0  0
  2  7  1  1  0  0  0
  2 10  1  0  0  0  0
  2  6  1  0  0  0  0
  4 11  1  0  0  0  0
  5  3  2  0  0  0  0
  5 12  1  0  0  0  0
  6  9  1  0  0  0  0
  8  3  1  0  0  0  0
  9 14  1  0  0  0  0
 10 15  2  0  0  0  0
 11 13  1  0  0  0  0
 11  8  2  0  0  0  0
 13  5  1  0  0  0  0
 15  8  1  0  0  0  0
 15 14  1  0  0  0  0
 16 24  1  6  0  0  0
 16 19  1  0  0  0  0
 16  4  1  0  0  0  0
 17 22  1  0  0  0  0
 18 19  2  0  0  0  0
 19 21  1  0  0  0  0
 21 20  1  0  0  0  0
 21 17  1  0  0  0  0
 23 20  1  0  0  0  0
 23 22  1  0  0  0  0
 25 24  1  0  0  0  0
 26 25  1  0  0  0  0
 27 26  1  0  0  0  0
 28 29  2  0  0  0  0
 29 27  1  0  0  0  0
 30 29  2  0  0  0  0
M  END
>  <MODEL>
5

>  <REMARK>
 VINA RESULT:      -6.8      3.240      5.542
  Name = 
  7 active torsions:
  status: ('A' for Active; 'I' for Inactive)
    1  A    between atoms: C_4  and  C_13
    2  A    between atoms: C_7  and  N_15
    3  A    between atoms: C_7  and  C_16
    4  A    between atoms: C_8  and  C_13
    5  A    between atoms: C_13  and  C_27
    6  A    between atoms: C_16  and  C_30
    7  A    between atoms: C_27  and  C_30
                            x       y       z     vdW  Elec       q    Type
                         _______ _______ _______ _____ _____    ______ ____

>  <TORSDO>
F 7

$$$$
=
 OpenBabel11052417153D

 30 33  0  0  1  0  0  0  0  0999 V2000
  187.3280  177.5290  143.2260 C   0  0  0  0  0  3  0  0  0  0  0  0
  185.3210  178.9900  143.6170 C   0  0  2  0  0  3  0  0  0  0  0  0
  187.5410  176.1430  147.0770 N   0  0  0  0  0  0  0  0  0  0  0  0
  188.3000  176.5980  143.6450 C   0  0  0  0  0  0  0  0  0  0  0  0
  188.6020  175.3230  146.8640 C   0  0  0  0  0  0  0  0  0  0  0  0
  184.6330  179.7650  144.7440 C   0  0  0  0  0  2  0  0  0  0  0  0
  184.2880  178.2390  142.7920 C   0  0  0  0  0  1  0  0  0  0  0  0
  187.3470  176.6790  145.8620 C   0  0  0  0  0  0  0  0  0  0  0  0
  184.2050  178.8200  145.8630 C   0  0  0  0  0  2  0  0  0  0  0  0
  186.3710  178.0400  144.1310 C   0  0  0  0  0  0  0  0  0  0  0  0
  188.2660  176.1920  144.9800 C   0  0  0  0  0  0  0  0  0  0  0  0
  189.1710  174.5280  147.8970 N   0  0  0  0  0  1  0  0  0  0  0  0
  189.0820  175.3200  145.5950 N   0  0  0  0  0  2  0  0  0  0  0  0
  185.4370  178.1900  146.5060 C   0  0  0  0  0  2  0  0  0  0  0  0
  186.3710  177.6020  145.4830 C   0  0  0  0  0  0  0  0  0  0  0  0
  189.3150  176.0280  142.6920 C   0  0  2  0  0  3  0  0  0  0  0  0
  191.7540  174.4120  143.3180 C   0  0  0  0  0  2  0  0  0  0  0  0
  190.8070  177.9040  142.6960 O   0  0  0  0  0  0  0  0  0  0  0  0
  190.6750  176.6550  142.8200 C   0  0  0  0  0  0  0  0  0  0  0  0
  193.1500  176.3890  143.2870 C   0  0  0  0  0  2  0  0  0  0  0  0
  191.8180  175.8460  143.1210 N   0  0  0  0  0  0  0  0  0  0  0  0
  193.1430  173.9990  143.7670 C   0  0  0  0  0  2  0  0  0  0  0  0
  194.0540  175.1920  143.5150 C   0  0  0  0  0  2  0  0  0  0  0  0
  188.8130  175.9170  141.2500 C   0  0  0  0  0  2  0  0  0  0  0  0
  188.4150  174.4960  140.8670 C   0  0  0  0  0  2  0  0  0  0  0  0
  188.5310  173.5700  142.0640 C   0  0  0  0  0  2  0  0  0  0  0  0
  189.1960  172.2630  141.6650 C   0  0  0  0  0  2  0  0  0  0  0  0
  190.8260  170.7870  142.7310 O   0  0  0  0  0  0  0  0  0  0  0  0
  189.7210  171.5970  142.8430 N   0  0  0  0  0  0  0  0  0  0  0  0
  189.2830  171.8930  143.9720 O   0  0  0  0  0  0  0  0  0  0  0  0
  1  4  2  0  0  0  0
  1 10  1  0  0  0  0
  2  7  1  1  0  0  0
  2 10  1  0  0  0  0
  2  6  1  0  0  0  0
  4 11  1  0  0  0  0
  5  3  2  0  0  0  0
  5 12  1  0  0  0  0
  6  9  1  0  0  0  0
  8  3  1  0  0  0  0
  9 14  1  0  0  0  0
 10 15  2  0  0  0  0
 11 13  1  0  0  0  0
 11  8  2  0  0  0  0
 13  5  1  0  0  0  0
 15  8  1  0  0  0  0
 15 14  1  0  0  0  0
 16 24  1  6  0  0  0
 16 19  1  0  0  0  0
 16  4  1  0  0  0  0
 17 22  1  0  0  0  0
 18 19  2  0  0  0  0
 19 21  1  0  0  0  0
 20 23  1  0  0  0  0
 21 20  1  0  0  0  0
 21 17  1  0  0  0  0
 23 22  1  0  0  0  0
 25 24  1  0  0  0  0
 25 26  1  0  0  0  0
 27 26  1  0  0  0  0
 27 29  1  0  0  0  0
 28 29  2  0  0  0  0
 29 30  2  0  0  0  0
M  END
>  <MODEL>
6

>  <REMARK>
 VINA RESULT:      -6.8      2.725      4.746
  Name = 
  7 active torsions:
  status: ('A' for Active; 'I' for Inactive)
    1  A    between atoms: C_4  and  C_13
    2  A    between atoms: C_7  and  N_15
    3  A    between atoms: C_7  and  C_16
    4  A    between atoms: C_8  and  C_13
    5  A    between atoms: C_13  and  C_27
    6  A    between atoms: C_16  and  C_30
    7  A    between atoms: C_27  and  C_30
                            x       y       z     vdW  Elec       q    Type
                         _______ _______ _______ _____ _____    ______ ____

>  <TORSDO>
F 7

$$$$
=
 OpenBabel11052417153D

 30 33  0  0  1  0  0  0  0  0999 V2000
  188.0160  176.2940  144.5910 C   0  0  0  0  0  3  0  0  0  0  0  0
  187.2230  176.8060  146.9200 C   0  0  2  0  0  3  0  0  0  0  0  0
  184.7900  177.9870  142.7130 N   0  0  0  0  0  0  0  0  0  0  0  0
  187.8930  176.3400  143.1870 C   0  0  0  0  0  0  0  0  0  0  0  0
  185.2310  177.7470  141.4510 C   0  0  0  0  0  0  0  0  0  0  0  0
  185.9220  177.0310  147.6950 C   0  0  0  0  0  2  0  0  0  0  0  0
  188.2600  177.8400  147.3260 C   0  0  0  0  0  1  0  0  0  0  0  0
  185.7790  177.4750  143.4620 C   0  0  0  0  0  0  0  0  0  0  0  0
  185.1630  178.2310  147.1360 C   0  0  0  0  0  2  0  0  0  0  0  0
  187.0140  176.8330  145.4280 C   0  0  0  0  0  0  0  0  0  0  0  0
  186.7530  176.9520  142.6630 C   0  0  0  0  0  0  0  0  0  0  0  0
  184.4890  178.1280  140.2990 N   0  0  0  0  0  1  0  0  0  0  0  0
  186.4280  177.1140  141.3700 N   0  0  0  0  0  2  0  0  0  0  0  0
  184.7280  177.9450  145.7030 C   0  0  0  0  0  2  0  0  0  0  0  0
  185.8680  177.4460  144.8550 C   0  0  0  0  0  0  0  0  0  0  0  0
  188.9580  175.7890  142.2790 C   0  0  2  0  0  3  0  0  0  0  0  0
  188.5260  174.7540  139.5050 C   0  0  0  0  0  2  0  0  0  0  0  0
  188.8150  173.4900  142.9390 O   0  0  0  0  0  0  0  0  0  0  0  0
  188.8000  174.3220  141.9910 C   0  0  0  0  0  0  0  0  0  0  0  0
  188.4060  172.4740  140.3060 C   0  0  0  0  0  2  0  0  0  0  0  0
  188.5940  173.8680  140.6480 N   0  0  0  0  0  0  0  0  0  0  0  0
  188.1410  173.8760  138.3300 C   0  0  0  0  0  2  0  0  0  0  0  0
  188.3020  172.4350  138.7920 C   0  0  0  0  0  2  0  0  0  0  0  0
  190.3790  176.1970  142.6760 C   0  0  0  0  0  2  0  0  0  0  0  0
  191.4320  175.1850  142.2380 C   0  0  0  0  0  2  0  0  0  0  0  0
  192.3030  174.7810  143.4140 C   0  0  0  0  0  2  0  0  0  0  0  0
  191.6510  175.1880  144.7250 C   0  0  0  0  0  2  0  0  0  0  0  0
  193.1600  177.0840  145.0410 O   0  0  0  0  0  0  0  0  0  0  0  0
  192.5970  175.9320  145.5360 N   0  0  0  0  0  0  0  0  0  0  0  0
  192.7660  175.6260  146.7330 O   0  0  0  0  0  0  0  0  0  0  0  0
  1 10  1  0  0  0  0
  2  7  1  6  0  0  0
  2  6  1  0  0  0  0
  3  8  1  0  0  0  0
  4  1  2  0  0  0  0
  5  3  2  0  0  0  0
  8 15  1  0  0  0  0
  9  6  1  0  0  0  0
 10  2  1  0  0  0  0
 11  4  1  0  0  0  0
 11  8  2  0  0  0  0
 12  5  1  0  0  0  0
 13  5  1  0  0  0  0
 13 11  1  0  0  0  0
 14  9  1  0  0  0  0
 15 10  2  0  0  0  0
 15 14  1  0  0  0  0
 16 24  1  1  0  0  0
 16  4  1  0  0  0  0
 17 21  1  0  0  0  0
 19 16  1  0  0  0  0
 19 18  2  0  0  0  0
 20 21  1  0  0  0  0
 21 19  1  0  0  0  0
 22 23  1  0  0  0  0
 22 17  1  0  0  0  0
 23 20  1  0  0  0  0
 25 24  1  0  0  0  0
 25 26  1  0  0  0  0
 26 27  1  0  0  0  0
 27 29  1  0  0  0  0
 28 29  2  0  0  0  0
 29 30  2  0  0  0  0
M  END
>  <MODEL>
7

>  <REMARK>
 VINA RESULT:      -6.7      1.883      2.254
  Name = 
  7 active torsions:
  status: ('A' for Active; 'I' for Inactive)
    1  A    between atoms: C_4  and  C_13
    2  A    between atoms: C_7  and  N_15
    3  A    between atoms: C_7  and  C_16
    4  A    between atoms: C_8  and  C_13
    5  A    between atoms: C_13  and  C_27
    6  A    between atoms: C_16  and  C_30
    7  A    between atoms: C_27  and  C_30
                            x       y       z     vdW  Elec       q    Type
                         _______ _______ _______ _____ _____    ______ ____

>  <TORSDO>
F 7

$$$$
=
 OpenBabel11052417153D

 30 33  0  0  1  0  0  0  0  0999 V2000
  187.8770  177.1300  145.1130 C   0  0  0  0  0  3  0  0  0  0  0  0
  186.7230  177.5430  147.3060 C   0  0  2  0  0  3  0  0  0  0  0  0
  184.7400  178.3860  142.7920 N   0  0  0  0  0  0  0  0  0  0  0  0
  187.9370  177.1550  143.7040 C   0  0  0  0  0  0  0  0  0  0  0  0
  185.3720  178.2000  141.6050 C   0  0  0  0  0  0  0  0  0  0  0  0
  185.3120  177.6010  147.8990 C   0  0  0  0  0  2  0  0  0  0  0  0
  187.5560  178.7050  147.8240 C   0  0  0  0  0  1  0  0  0  0  0  0
  185.6780  178.0080  143.6760 C   0  0  0  0  0  0  0  0  0  0  0  0
  184.4870  178.6910  147.2210 C   0  0  0  0  0  2  0  0  0  0  0  0
  186.7120  177.5380  145.7990 C   0  0  0  0  0  0  0  0  0  0  0  0
  186.8090  177.6130  143.0220 C   0  0  0  0  0  0  0  0  0  0  0  0
  184.7470  178.4790  140.3570 N   0  0  0  0  0  1  0  0  0  0  0  0
  186.6400  177.7270  141.6950 N   0  0  0  0  0  2  0  0  0  0  0  0
  184.2870  178.3470  145.7480 C   0  0  0  0  0  2  0  0  0  0  0  0
  185.5830  177.9960  145.0680 C   0  0  0  0  0  0  0  0  0  0  0  0
  189.1750  176.7430  142.9560 C   0  0  2  0  0  3  0  0  0  0  0  0
  189.6180  174.2420  144.5370 C   0  0  0  0  0  2  0  0  0  0  0  0
  188.8270  175.2650  141.1020 O   0  0  0  0  0  0  0  0  0  0  0  0
  189.0730  175.3780  142.3340 C   0  0  0  0  0  0  0  0  0  0  0  0
  189.2400  172.8640  142.5840 C   0  0  0  0  0  2  0  0  0  0  0  0
  189.2930  174.2050  143.1260 N   0  0  0  0  0  0  0  0  0  0  0  0
  189.9190  172.8060  144.9240 C   0  0  0  0  0  2  0  0  0  0  0  0
  189.4520  171.9360  143.7650 C   0  0  0  0  0  2  0  0  0  0  0  0
  190.4730  176.9790  143.7330 C   0  0  0  0  0  2  0  0  0  0  0  0
  191.7180  176.8440  142.8640 C   0  0  0  0  0  2  0  0  0  0  0  0
  192.7680  176.0030  143.5670 C   0  0  0  0  0  2  0  0  0  0  0  0
  193.3060  176.7320  144.7870 C   0  0  0  0  0  2  0  0  0  0  0  0
  194.7020  175.7660  146.5450 O   0  0  0  0  0  0  0  0  0  0  0  0
  193.5010  175.7930  145.8770 N   0  0  0  0  0  0  0  0  0  0  0  0
  192.5340  175.1400  146.3160 O   0  0  0  0  0  0  0  0  0  0  0  0
  1 10  1  0  0  0  0
  2  7  1  6  0  0  0
  2  6  1  0  0  0  0
  3  8  1  0  0  0  0
  4  1  2  0  0  0  0
  5 13  1  0  0  0  0
  5  3  2  0  0  0  0
  8 15  1  0  0  0  0
  9  6  1  0  0  0  0
 10  2  1  0  0  0  0
 11  8  2  0  0  0  0
 11  4  1  0  0  0  0
 12  5  1  0  0  0  0
 13 11  1  0  0  0  0
 14  9  1  0  0  0  0
 15 14  1  0  0  0  0
 15 10  2  0  0  0  0
 16  4  1  0  0  0  0
 16 24  1  1  0  0  0
 17 22  1  0  0  0  0
 18 19  2  0  0  0  0
 19 16  1  0  0  0  0
 19 21  1  0  0  0  0
 20 21  1  0  0  0  0
 20 23  1  0  0  0  0
 21 17  1  0  0  0  0
 23 22  1  0  0  0  0
 25 26  1  0  0  0  0
 25 24  1  0  0  0  0
 26 27  1  0  0  0  0
 27 29  1  0  0  0  0
 29 30  2  0  0  0  0
 29 28  2  0  0  0  0
M  END
>  <MODEL>
8

>  <REMARK>
 VINA RESULT:      -6.6      1.462      1.822
  Name = 
  7 active torsions:
  status: ('A' for Active; 'I' for Inactive)
    1  A    between atoms: C_4  and  C_13
    2  A    between atoms: C_7  and  N_15
    3  A    between atoms: C_7  and  C_16
    4  A    between atoms: C_8  and  C_13
    5  A    between atoms: C_13  and  C_27
    6  A    between atoms: C_16  and  C_30
    7  A    between atoms: C_27  and  C_30
                            x       y       z     vdW  Elec       q    Type
                         _______ _______ _______ _____ _____    ______ ____

>  <TORSDO>
F 7

$$$$
=
 OpenBabel11052417153D

 30 33  0  0  1  0  0  0  0  0999 V2000
  191.7500  176.6290  144.7880 C   0  0  0  0  0  3  0  0  0  0  0  0
  194.2110  176.6850  145.2920 C   0  0  2  0  0  3  0  0  0  0  0  0
  191.7320  172.7680  143.4150 N   0  0  0  0  0  0  0  0  0  0  0  0
  190.5740  175.9840  144.3540 C   0  0  0  0  0  0  0  0  0  0  0  0
  190.3960  172.7190  143.1760 C   0  0  0  0  0  0  0  0  0  0  0  0
  195.5190  176.0330  144.8340 C   0  0  0  0  0  2  0  0  0  0  0  0
  194.1650  176.7560  146.8100 C   0  0  0  0  0  1  0  0  0  0  0  0
  191.8910  174.0140  143.8890 C   0  0  0  0  0  0  0  0  0  0  0  0
  195.4740  174.5240  145.0530 C   0  0  0  0  0  2  0  0  0  0  0  0
  192.9960  175.9660  144.7640 C   0  0  0  0  0  0  0  0  0  0  0  0
  190.6910  174.6630  143.9170 C   0  0  0  0  0  0  0  0  0  0  0  0
  189.7570  171.5600  142.6550 N   0  0  0  0  0  1  0  0  0  0  0  0
  189.7170  173.8560  143.4670 N   0  0  0  0  0  2  0  0  0  0  0  0
  194.3920  173.9060  144.1730 C   0  0  0  0  0  2  0  0  0  0  0  0
  193.0740  174.6220  144.3100 C   0  0  0  0  0  0  0  0  0  0  0  0
  189.2350  176.6670  144.3900 C   0  0  2  0  0  3  0  0  0  0  0  0
  186.4850  176.9100  143.2360 C   0  0  0  0  0  2  0  0  0  0  0  0
  189.8980  178.0940  142.5830 O   0  0  0  0  0  0  0  0  0  0  0  0
  188.9530  177.4990  143.1710 C   0  0  0  0  0  0  0  0  0  0  0  0
  187.2870  178.3480  141.4630 C   0  0  0  0  0  2  0  0  0  0  0  0
  187.6220  177.5890  142.6490 N   0  0  0  0  0  0  0  0  0  0  0  0
  185.3290  177.1500  142.2830 C   0  0  0  0  0  2  0  0  0  0  0  0
  185.7810  178.2360  141.3170 C   0  0  0  0  0  2  0  0  0  0  0  0
  188.9410  177.3800  145.7120 C   0  0  0  0  0  2  0  0  0  0  0  0
  188.0350  176.5720  146.6350 C   0  0  0  0  0  2  0  0  0  0  0  0
  186.9770  177.4660  147.2570 C   0  0  0  0  0  2  0  0  0  0  0  0
  185.6330  177.2510  146.5830 C   0  0  0  0  0  2  0  0  0  0  0  0
  183.7750  178.7780  146.1500 O   0  0  0  0  0  0  0  0  0  0  0  0
  185.1220  178.5140  146.0840 N   0  0  0  0  0  0  0  0  0  0  0  0
  185.9160  179.4210  145.7590 O   0  0  0  0  0  0  0  0  0  0  0  0
  2  7  1  1  0  0  0
  3  8  1  0  0  0  0
  4 16  1  0  0  0  0
  4  1  2  0  0  0  0
  5  3  2  0  0  0  0
  5 13  1  0  0  0  0
  6  9  1  0  0  0  0
  6  2  1  0  0  0  0
  8 11  2  0  0  0  0
  8 15  1  0  0  0  0
 10  1  1  0  0  0  0
 10  2  1  0  0  0  0
 11  4  1  0  0  0  0
 12  5  1  0  0  0  0
 13 11  1  0  0  0  0
 14 15  1  0  0  0  0
 14  9  1  0  0  0  0
 15 10  2  0  0  0  0
 16 24  1  1  0  0  0
 18 19  2  0  0  0  0
 19 16  1  0  0  0  0
 20 21  1  0  0  0  0
 21 19  1  0  0  0  0
 21 17  1  0  0  0  0
 22 17  1  0  0  0  0
 23 20  1  0  0  0  0
 23 22  1  0  0  0  0
 24 25  1  0  0  0  0
 25 26  1  0  0  0  0
 27 26  1  0  0  0  0
 29 28  2  0  0  0  0
 29 27  1  0  0  0  0
 30 29  2  0  0  0  0
M  END
>  <MODEL>
9

>  <REMARK>
 VINA RESULT:      -6.5      2.615      7.256
  Name = 
  7 active torsions:
  status: ('A' for Active; 'I' for Inactive)
    1  A    between atoms: C_4  and  C_13
    2  A    between atoms: C_7  and  N_15
    3  A    between atoms: C_7  and  C_16
    4  A    between atoms: C_8  and  C_13
    5  A    between atoms: C_13  and  C_27
    6  A    between atoms: C_16  and  C_30
    7  A    between atoms: C_27  and  C_30
                            x       y       z     vdW  Elec       q    Type
                         _______ _______ _______ _____ _____    ______ ____

>  <TORSDO>
F 7

$$$$
