=
 OpenBabel11052420223D

 34 38  0  0  1  0  0  0  0  0999 V2000
  190.6730  174.4950  144.1180 C   0  0  1  0  0  3  0  0  0  0  0  0
  193.1780  171.7150  144.0520 C   0  0  0  0  0  3  0  0  0  0  0  0
  196.1170  173.9290  144.9650 C   0  0  0  0  0  0  0  0  0  0  0  0
  191.1710  171.9800  142.8430 O   0  0  0  0  0  0  0  0  0  0  0  0
  188.7970  174.8030  142.4430 C   0  0  0  0  0  3  0  0  0  0  0  0
  188.2480  173.0590  140.8570 C   0  0  0  0  0  3  0  0  0  0  0  0
  196.8260  175.1440  144.4560 C   0  0  0  0  0  1  0  0  0  0  0  0
  187.9950  174.3180  141.4060 C   0  0  0  0  0  3  0  0  0  0  0  0
  190.1160  172.7670  142.3740 C   0  0  0  0  0  0  0  0  0  0  0  0
  189.8730  174.0410  142.9230 C   0  0  0  0  0  0  0  0  0  0  0  0
  189.3040  172.2840  141.3440 C   0  0  0  0  0  3  0  0  0  0  0  0
  194.3140  172.2150  144.9050 C   0  0  0  0  0  2  0  0  0  0  0  0
  196.7000  173.2530  146.1660 C   0  0  0  0  0  1  0  0  0  0  0  0
  195.0120  173.4490  144.3520 C   0  0  0  0  0  0  0  0  0  0  0  0
  194.4730  174.1380  143.1150 C   0  0  0  0  0  2  0  0  0  0  0  0
  192.1510  172.4900  143.7000 C   0  0  0  0  0  0  0  0  0  0  0  0
  193.1010  174.7960  143.3290 C   0  0  0  0  0  2  0  0  0  0  0  0
  192.1080  173.9360  144.1310 C   0  0  1  0  0  3  0  0  0  0  0  0
  190.6750  175.9480  144.2480 N   0  0  0  0  0  2  0  0  0  0  0  0
  186.7860  176.7490  147.0400 C   0  0  0  0  0  2  0  0  0  0  0  0
  188.3500  177.7320  144.3630 C   0  0  0  0  0  2  0  0  0  0  0  0
  190.2370  176.2660  145.5980 C   0  0  1  0  0  3  0  0  0  0  0  0
  186.2130  177.0000  145.6240 C   0  0  0  0  0  2  0  0  0  0  0  0
  189.1760  177.3570  145.5730 C   0  0  2  0  0  3  0  0  0  0  0  0
  186.9450  178.1270  144.8550 C   0  0  2  0  0  3  0  0  0  0  0  0
  188.7800  175.9030  145.7450 C   0  0  2  0  0  3  0  0  0  0  0  0
  188.0810  175.8980  147.0910 C   0  0  0  0  0  2  0  0  0  0  0  0
  186.1750  178.5100  143.7550 O   0  0  0  0  0  0  0  0  0  0  0  0
  186.8350  177.9790  142.6400 C   0  0  0  0  0  2  0  0  0  0  0  0
  185.8380  177.5320  141.5770 C   0  0  2  0  0  3  0  0  0  0  0  0
  186.4650  177.5620  140.1960 C   0  0  0  0  0  1  0  0  0  0  0  0
  184.6610  178.3800  141.6060 N   0  0  0  0  0  2  0  0  0  0  0  0
  184.0820  178.3170  140.3330 N   0  0  0  0  0  2  0  0  0  0  0  0
  182.7800  177.9960  140.5140 O   0  0  0  0  0  1  0  0  0  0  0  0
  1 18  1  0  0  0  0
  1 19  1  6  0  0  0
  2 12  1  0  0  0  0
  3 13  1  0  0  0  0
  4 16  1  0  0  0  0
  5 10  1  0  0  0  0
  6 11  2  0  0  0  0
  6  8  1  0  0  0  0
  7  3  1  0  0  0  0
  8  5  2  0  0  0  0
  9  4  1  0  0  0  0
  9 10  2  0  0  0  0
 10  1  1  0  0  0  0
 11  9  1  0  0  0  0
 14 12  1  0  0  0  0
 14  3  2  0  0  0  0
 15 17  1  0  0  0  0
 15 14  1  0  0  0  0
 16  2  2  0  0  0  0
 16 18  1  0  0  0  0
 18 17  1  6  0  0  0
 20 27  1  0  0  0  0
 21 25  1  0  0  0  0
 22 19  1  6  0  0  0
 22 26  1  0  0  0  0
 23 20  1  0  0  0  0
 24 21  1  6  0  0  0
 24 22  1  0  0  0  0
 24 26  1  0  0  0  0
 25 28  1  6  0  0  0
 25 23  1  0  0  0  0
 26 27  1  1  0  0  0
 29 28  1  0  0  0  0
 30 31  1  6  0  0  0
 30 32  1  0  0  0  0
 30 29  1  0  0  0  0
 33 34  1  0  0  0  0
 33 32  1  0  0  0  0
M  END
>  <MODEL>
1

>  <REMARK>
 VINA RESULT:      -7.4      0.000      0.000
  Name = 
  7 active torsions:
  status: ('A' for Active; 'I' for Inactive)
    1  A    between atoms: C_1  and  N_9
    2  A    between atoms: C_7  and  N_21
    3  A    between atoms: C_7  and  C_29
    4  A    between atoms: C_8  and  N_9
    5  A    between atoms: N_11  and  N_21
    6  A    between atoms: O_26  and  C_28
    7  A    between atoms: O_26  and  C_29
                            x       y       z     vdW  Elec       q    Type
                         _______ _______ _______ _____ _____    ______ ____

>  <TORSDO>
F 7

$$$$
=
 OpenBabel11052420223D

 34 38  0  0  1  0  0  0  0  0999 V2000
  192.1780  174.1160  144.2600 C   0  0  1  0  0  3  0  0  0  0  0  0
  190.9320  175.3450  147.5670 C   0  0  0  0  0  3  0  0  0  0  0  0
  187.8240  176.9770  146.1370 C   0  0  0  0  0  0  0  0  0  0  0  0
  193.1360  174.9590  146.8230 O   0  0  0  0  0  0  0  0  0  0  0  0
  194.5980  174.1650  143.5070 C   0  0  0  0  0  3  0  0  0  0  0  0
  196.3750  174.6780  145.0680 C   0  0  0  0  0  3  0  0  0  0  0  0
  187.4470  178.0200  145.1330 C   0  0  0  0  0  1  0  0  0  0  0  0
  195.9590  174.3190  143.7840 C   0  0  0  0  0  3  0  0  0  0  0  0
  194.0660  174.7410  145.8030 C   0  0  0  0  0  0  0  0  0  0  0  0
  193.6400  174.3920  144.5080 C   0  0  0  0  0  0  0  0  0  0  0  0
  195.4300  174.8840  146.0760 C   0  0  0  0  0  3  0  0  0  0  0  0
  189.4550  175.5480  147.3580 C   0  0  0  0  0  2  0  0  0  0  0  0
  186.7140  176.3640  146.9320 C   0  0  0  0  0  1  0  0  0  0  0  0
  189.1120  176.6200  146.3340 C   0  0  0  0  0  0  0  0  0  0  0  0
  190.2130  177.2910  145.5370 C   0  0  0  0  0  2  0  0  0  0  0  0
  191.7650  175.0580  146.5660 C   0  0  0  0  0  0  0  0  0  0  0  0
  190.9300  176.3410  144.5630 C   0  0  0  0  0  2  0  0  0  0  0  0
  191.2460  174.9560  145.1530 C   0  0  1  0  0  3  0  0  0  0  0  0
  191.8300  174.2650  142.8510 N   0  0  0  0  0  2  0  0  0  0  0  0
  189.1200  172.2210  139.3810 C   0  0  0  0  0  2  0  0  0  0  0  0
  189.2300  174.6440  141.5480 C   0  0  0  0  0  2  0  0  0  0  0  0
  191.1930  173.0290  142.4260 C   0  0  1  0  0  3  0  0  0  0  0  0
  188.8270  173.7260  139.1640 C   0  0  0  0  0  2  0  0  0  0  0  0
  189.7680  173.2930  141.9630 C   0  0  2  0  0  3  0  0  0  0  0  0
  188.2200  174.4200  140.4070 C   0  0  2  0  0  3  0  0  0  0  0  0
  190.8830  173.1110  140.9520 C   0  0  2  0  0  3  0  0  0  0  0  0
  190.4260  171.9050  140.1540 C   0  0  0  0  0  2  0  0  0  0  0  0
  187.6850  175.6540  140.0320 O   0  0  0  0  0  0  0  0  0  0  0  0
  187.3290  176.2820  141.2320 C   0  0  0  0  0  2  0  0  0  0  0  0
  187.4380  177.7970  141.1090 C   0  0  2  0  0  3  0  0  0  0  0  0
  188.6910  178.3090  141.7940 C   0  0  0  0  0  1  0  0  0  0  0  0
  186.2650  178.4330  141.6780 N   0  0  0  0  0  2  0  0  0  0  0  0
  185.4480  177.4100  142.1750 N   0  0  0  0  0  2  0  0  0  0  0  0
  184.3640  178.0080  142.7200 O   0  0  0  0  0  1  0  0  0  0  0  0
  1 19  1  6  0  0  0
  1 10  1  0  0  0  0
  1 18  1  0  0  0  0
  3 14  2  0  0  0  0
  3 13  1  0  0  0  0
  5  8  2  0  0  0  0
  5 10  1  0  0  0  0
  6 11  2  0  0  0  0
  7  3  1  0  0  0  0
  8  6  1  0  0  0  0
  9 11  1  0  0  0  0
  9  4  1  0  0  0  0
 10  9  2  0  0  0  0
 12  2  1  0  0  0  0
 14 12  1  0  0  0  0
 15 14  1  0  0  0  0
 16  4  1  0  0  0  0
 16  2  2  0  0  0  0
 17 15  1  0  0  0  0
 18 17  1  6  0  0  0
 18 16  1  0  0  0  0
 20 27  1  0  0  0  0
 22 19  1  1  0  0  0
 23 20  1  0  0  0  0
 23 25  1  0  0  0  0
 24 21  1  1  0  0  0
 24 22  1  0  0  0  0
 25 28  1  6  0  0  0
 25 21  1  0  0  0  0
 26 27  1  6  0  0  0
 26 24  1  0  0  0  0
 26 22  1  0  0  0  0
 28 29  1  0  0  0  0
 30 29  1  0  0  0  0
 30 32  1  0  0  0  0
 30 31  1  1  0  0  0
 32 33  1  0  0  0  0
 33 34  1  0  0  0  0
M  END
>  <MODEL>
2

>  <REMARK>
 VINA RESULT:      -7.3      1.922      5.988
  Name = 
  7 active torsions:
  status: ('A' for Active; 'I' for Inactive)
    1  A    between atoms: C_1  and  N_9
    2  A    between atoms: C_7  and  N_21
    3  A    between atoms: C_7  and  C_29
    4  A    between atoms: C_8  and  N_9
    5  A    between atoms: N_11  and  N_21
    6  A    between atoms: O_26  and  C_28
    7  A    between atoms: O_26  and  C_29
                            x       y       z     vdW  Elec       q    Type
                         _______ _______ _______ _____ _____    ______ ____

>  <TORSDO>
F 7

$$$$
=
 OpenBabel11052420223D

 34 38  0  0  1  0  0  0  0  0999 V2000
  191.2250  173.9400  143.5730 C   0  0  1  0  0  3  0  0  0  0  0  0
  193.3950  170.8920  143.4990 C   0  0  0  0  0  3  0  0  0  0  0  0
  196.4650  172.6680  144.8370 C   0  0  0  0  0  0  0  0  0  0  0  0
  191.5550  171.4790  142.1460 O   0  0  0  0  0  0  0  0  0  0  0  0
  189.5630  174.5880  141.7720 C   0  0  0  0  0  3  0  0  0  0  0  0
  188.9750  173.0370  140.0090 C   0  0  0  0  0  3  0  0  0  0  0  0
  197.3520  173.8220  144.4910 C   0  0  0  0  0  1  0  0  0  0  0  0
  188.8140  174.2760  140.6340 C   0  0  0  0  0  3  0  0  0  0  0  0
  190.6440  172.4180  141.6530 C   0  0  0  0  0  0  0  0  0  0  0  0
  190.4960  173.6700  142.2800 C   0  0  0  0  0  0  0  0  0  0  0  0
  189.8850  172.1090  140.5210 C   0  0  0  0  0  3  0  0  0  0  0  0
  194.4940  171.1910  144.4840 C   0  0  0  0  0  2  0  0  0  0  0  0
  196.8510  171.8440  146.0250 C   0  0  0  0  0  1  0  0  0  0  0  0
  195.3760  172.3670  144.0940 C   0  0  0  0  0  0  0  0  0  0  0  0
  195.0390  173.2020  142.8760 C   0  0  0  0  0  2  0  0  0  0  0  0
  192.5000  171.8070  143.1230 C   0  0  0  0  0  0  0  0  0  0  0  0
  193.7350  174.0020  143.0220 C   0  0  0  0  0  2  0  0  0  0  0  0
  192.5800  173.2140  143.6640 C   0  0  1  0  0  3  0  0  0  0  0  0
  191.3790  175.3700  143.8190 N   0  0  0  0  0  2  0  0  0  0  0  0
  187.8080  176.1110  147.0220 C   0  0  0  0  0  2  0  0  0  0  0  0
  189.1570  177.2270  144.2810 C   0  0  0  0  0  2  0  0  0  0  0  0
  191.0830  175.6050  145.2230 C   0  0  1  0  0  3  0  0  0  0  0  0
  187.1170  176.4860  145.6890 C   0  0  0  0  0  2  0  0  0  0  0  0
  190.0750  176.7340  145.3770 C   0  0  2  0  0  3  0  0  0  0  0  0
  187.8230  177.6380  144.9330 C   0  0  2  0  0  3  0  0  0  0  0  0
  189.6320  175.2870  145.4850 C   0  0  2  0  0  3  0  0  0  0  0  0
  189.0630  175.2110  146.8890 C   0  0  0  0  0  2  0  0  0  0  0  0
  186.9720  178.1300  143.9420 O   0  0  0  0  0  0  0  0  0  0  0  0
  185.7120  177.5920  144.2370 C   0  0  0  0  0  2  0  0  0  0  0  0
  184.6630  178.6920  144.3500 C   0  0  2  0  0  3  0  0  0  0  0  0
  185.2800  180.0590  144.1180 C   0  0  0  0  0  1  0  0  0  0  0  0
  184.0300  178.6490  145.6550 N   0  0  0  0  0  2  0  0  0  0  0  0
  184.9540  179.1610  146.5730 N   0  0  0  0  0  2  0  0  0  0  0  0
  184.8860  178.3750  147.6730 O   0  0  0  0  0  1  0  0  0  0  0  0
  1 18  1  0  0  0  0
  1 19  1  6  0  0  0
  2 12  1  0  0  0  0
  3 13  1  0  0  0  0
  4 16  1  0  0  0  0
  5 10  1  0  0  0  0
  6 11  2  0  0  0  0
  6  8  1  0  0  0  0
  7  3  1  0  0  0  0
  8  5  2  0  0  0  0
  9  4  1  0  0  0  0
  9 10  2  0  0  0  0
 10  1  1  0  0  0  0
 11  9  1  0  0  0  0
 14 12  1  0  0  0  0
 14  3  2  0  0  0  0
 15 17  1  0  0  0  0
 15 14  1  0  0  0  0
 16  2  2  0  0  0  0
 16 18  1  0  0  0  0
 18 17  1  6  0  0  0
 21 25  1  0  0  0  0
 22 19  1  6  0  0  0
 22 24  1  0  0  0  0
 22 26  1  0  0  0  0
 23 20  1  0  0  0  0
 24 21  1  6  0  0  0
 24 26  1  0  0  0  0
 25 28  1  6  0  0  0
 25 23  1  0  0  0  0
 26 27  1  1  0  0  0
 27 20  1  0  0  0  0
 28 29  1  0  0  0  0
 29 30  1  0  0  0  0
 30 31  1  1  0  0  0
 30 32  1  0  0  0  0
 32 33  1  0  0  0  0
 33 34  1  0  0  0  0
M  END
>  <MODEL>
3

>  <REMARK>
 VINA RESULT:      -7.0      1.971      2.326
  Name = 
  7 active torsions:
  status: ('A' for Active; 'I' for Inactive)
    1  A    between atoms: C_1  and  N_9
    2  A    between atoms: C_7  and  N_21
    3  A    between atoms: C_7  and  C_29
    4  A    between atoms: C_8  and  N_9
    5  A    between atoms: N_11  and  N_21
    6  A    between atoms: O_26  and  C_28
    7  A    between atoms: O_26  and  C_29
                            x       y       z     vdW  Elec       q    Type
                         _______ _______ _______ _____ _____    ______ ____

>  <TORSDO>
F 7

$$$$
=
 OpenBabel11052420223D

 34 38  0  0  1  0  0  0  0  0999 V2000
  193.1480  174.9650  143.0710 C   0  0  1  0  0  3  0  0  0  0  0  0
  192.5800  175.9870  146.6260 C   0  0  0  0  0  3  0  0  0  0  0  0
  188.8540  176.5350  146.1970 C   0  0  0  0  0  0  0  0  0  0  0  0
  194.4930  176.2190  145.2670 O   0  0  0  0  0  0  0  0  0  0  0  0
  195.1240  175.6740  141.6510 C   0  0  0  0  0  3  0  0  0  0  0  0
  197.0300  176.7880  142.6420 C   0  0  0  0  0  3  0  0  0  0  0  0
  187.9130  177.3530  145.3710 C   0  0  0  0  0  1  0  0  0  0  0  0
  196.3960  176.2390  141.5250 C   0  0  0  0  0  3  0  0  0  0  0  0
  195.1170  176.2170  144.0160 C   0  0  0  0  0  0  0  0  0  0  0  0
  194.4670  175.6750  142.8910 C   0  0  0  0  0  0  0  0  0  0  0  0
  196.3930  176.7720  143.8860 C   0  0  0  0  0  3  0  0  0  0  0  0
  191.1140  175.7320  146.8590 C   0  0  0  0  0  2  0  0  0  0  0  0
  188.2520  175.6760  147.2650 C   0  0  0  0  0  1  0  0  0  0  0  0
  190.1910  176.5870  146.0040 C   0  0  0  0  0  0  0  0  0  0  0  0
  190.7660  177.4980  144.9380 C   0  0  0  0  0  2  0  0  0  0  0  0
  193.1420  175.8930  145.4200 C   0  0  0  0  0  0  0  0  0  0  0  0
  191.4280  176.7400  143.7760 C   0  0  0  0  0  2  0  0  0  0  0  0
  192.3000  175.5500  144.2160 C   0  0  1  0  0  3  0  0  0  0  0  0
  192.3870  174.9120  141.8280 N   0  0  0  0  0  2  0  0  0  0  0  0
  189.0380  172.2490  139.5370 C   0  0  0  0  0  2  0  0  0  0  0  0
  189.4980  174.9270  141.3240 C   0  0  0  0  0  2  0  0  0  0  0  0
  191.7940  173.5880  141.7340 C   0  0  1  0  0  3  0  0  0  0  0  0
  188.5320  173.6870  139.2690 C   0  0  0  0  0  2  0  0  0  0  0  0
  190.2760  173.6830  141.6920 C   0  0  2  0  0  3  0  0  0  0  0  0
  188.2340  174.4850  140.5620 C   0  0  2  0  0  3  0  0  0  0  0  0
  191.0690  173.4600  140.4180 C   0  0  2  0  0  3  0  0  0  0  0  0
  190.5360  172.1320  139.9140 C   0  0  0  0  0  2  0  0  0  0  0  0
  187.4830  175.6180  140.2430 O   0  0  0  0  0  0  0  0  0  0  0  0
  187.2500  176.2620  141.4650 C   0  0  0  0  0  2  0  0  0  0  0  0
  187.3300  177.7760  141.3070 C   0  0  2  0  0  3  0  0  0  0  0  0
  188.5560  178.3310  142.0070 C   0  0  0  0  0  1  0  0  0  0  0  0
  186.1310  178.3990  141.8350 N   0  0  0  0  0  2  0  0  0  0  0  0
  185.3750  177.3840  142.4340 N   0  0  0  0  0  2  0  0  0  0  0  0
  184.8800  177.8970  143.5850 O   0  0  0  0  0  1  0  0  0  0  0  0
  1 19  1  6  0  0  0
  1 18  1  0  0  0  0
  2 12  1  0  0  0  0
  3 13  1  0  0  0  0
  4 16  1  0  0  0  0
  5 10  1  0  0  0  0
  6 11  2  0  0  0  0
  7  3  1  0  0  0  0
  8  5  2  0  0  0  0
  8  6  1  0  0  0  0
  9  4  1  0  0  0  0
 10  1  1  0  0  0  0
 10  9  2  0  0  0  0
 11  9  1  0  0  0  0
 14  3  2  0  0  0  0
 14 12  1  0  0  0  0
 15 14  1  0  0  0  0
 16  2  2  0  0  0  0
 17 15  1  0  0  0  0
 18 17  1  6  0  0  0
 18 16  1  0  0  0  0
 20 27  1  0  0  0  0
 22 19  1  6  0  0  0
 23 20  1  0  0  0  0
 23 25  1  0  0  0  0
 24 21  1  6  0  0  0
 24 22  1  0  0  0  0
 25 28  1  6  0  0  0
 25 21  1  0  0  0  0
 26 27  1  1  0  0  0
 26 24  1  0  0  0  0
 26 22  1  0  0  0  0
 28 29  1  0  0  0  0
 30 29  1  0  0  0  0
 30 32  1  0  0  0  0
 30 31  1  1  0  0  0
 32 33  1  0  0  0  0
 33 34  1  0  0  0  0
M  END
>  <MODEL>
4

>  <REMARK>
 VINA RESULT:      -6.9      2.222      5.901
  Name = 
  7 active torsions:
  status: ('A' for Active; 'I' for Inactive)
    1  A    between atoms: C_1  and  N_9
    2  A    between atoms: C_7  and  N_21
    3  A    between atoms: C_7  and  C_29
    4  A    between atoms: C_8  and  N_9
    5  A    between atoms: N_11  and  N_21
    6  A    between atoms: O_26  and  C_28
    7  A    between atoms: O_26  and  C_29
                            x       y       z     vdW  Elec       q    Type
                         _______ _______ _______ _____ _____    ______ ____

>  <TORSDO>
F 7

$$$$
=
 OpenBabel11052420223D

 34 38  0  0  1  0  0  0  0  0999 V2000
  191.3600  173.1540  143.9880 C   0  0  1  0  0  3  0  0  0  0  0  0
  192.8630  169.7290  143.8760 C   0  0  0  0  0  3  0  0  0  0  0  0
  196.0820  170.7500  145.5970 C   0  0  0  0  0  0  0  0  0  0  0  0
  191.3230  170.7600  142.4170 O   0  0  0  0  0  0  0  0  0  0  0  0
  190.0490  174.2310  142.1040 C   0  0  0  0  0  3  0  0  0  0  0  0
  189.3360  172.9350  140.1880 C   0  0  0  0  0  3  0  0  0  0  0  0
  197.2140  171.7100  145.4140 C   0  0  0  0  0  1  0  0  0  0  0  0
  189.3680  174.1450  140.8870 C   0  0  0  0  0  3  0  0  0  0  0  0
  190.6750  171.8930  141.9190 C   0  0  0  0  0  0  0  0  0  0  0  0
  190.7220  173.1130  142.6210 C   0  0  0  0  0  0  0  0  0  0  0  0
  189.9840  171.8110  140.7070 C   0  0  0  0  0  3  0  0  0  0  0  0
  193.8970  169.7390  144.9700 C   0  0  0  0  0  2  0  0  0  0  0  0
  196.1740  169.8010  146.7510 C   0  0  0  0  0  1  0  0  0  0  0  0
  195.0340  170.7240  144.7450 C   0  0  0  0  0  0  0  0  0  0  0  0
  194.9940  171.6750  143.5660 C   0  0  0  0  0  2  0  0  0  0  0  0
  192.2140  170.8300  143.4930 C   0  0  0  0  0  0  0  0  0  0  0  0
  193.8720  172.7210  143.6590 C   0  0  0  0  0  2  0  0  0  0  0  0
  192.5230  172.1570  144.1400 C   0  0  1  0  0  3  0  0  0  0  0  0
  191.7750  174.5050  144.3510 N   0  0  0  0  0  2  0  0  0  0  0  0
  188.1250  175.7480  147.2990 C   0  0  0  0  0  2  0  0  0  0  0  0
  189.9050  176.7270  144.7580 C   0  0  0  0  0  2  0  0  0  0  0  0
  191.4000  174.7180  145.7390 C   0  0  1  0  0  3  0  0  0  0  0  0
  187.6420  176.3180  145.9430 C   0  0  0  0  0  2  0  0  0  0  0  0
  190.6100  176.0100  145.8880 C   0  0  2  0  0  3  0  0  0  0  0  0
  188.6160  177.3510  145.3270 C   0  0  2  0  0  3  0  0  0  0  0  0
  189.8970  174.6720  145.8610 C   0  0  2  0  0  3  0  0  0  0  0  0
  189.1970  174.6320  147.2050 C   0  0  0  0  0  2  0  0  0  0  0  0
  187.9670  178.0480  144.3070 O   0  0  0  0  0  0  0  0  0  0  0  0
  186.6720  178.2840  144.7870 C   0  0  0  0  0  2  0  0  0  0  0  0
  185.7470  178.7340  143.6620 C   0  0  2  0  0  3  0  0  0  0  0  0
  184.6260  179.6060  144.1950 C   0  0  0  0  0  1  0  0  0  0  0  0
  185.1950  177.5810  142.9750 N   0  0  0  0  0  2  0  0  0  0  0  0
  184.1790  178.0550  142.1370 N   0  0  0  0  0  2  0  0  0  0  0  0
  184.7680  178.3930  140.9660 O   0  0  0  0  0  1  0  0  0  0  0  0
  1 18  1  0  0  0  0
  1 19  1  6  0  0  0
  2 12  1  0  0  0  0
  3 13  1  0  0  0  0
  4 16  1  0  0  0  0
  5 10  1  0  0  0  0
  6 11  2  0  0  0  0
  6  8  1  0  0  0  0
  7  3  1  0  0  0  0
  8  5  2  0  0  0  0
  9  4  1  0  0  0  0
  9 10  2  0  0  0  0
 10  1  1  0  0  0  0
 11  9  1  0  0  0  0
 14 12  1  0  0  0  0
 14  3  2  0  0  0  0
 15 17  1  0  0  0  0
 15 14  1  0  0  0  0
 16  2  2  0  0  0  0
 16 18  1  0  0  0  0
 18 17  1  6  0  0  0
 21 25  1  0  0  0  0
 22 19  1  6  0  0  0
 22 26  1  0  0  0  0
 22 24  1  0  0  0  0
 23 20  1  0  0  0  0
 24 21  1  6  0  0  0
 25 28  1  6  0  0  0
 25 23  1  0  0  0  0
 26 24  1  0  0  0  0
 26 27  1  1  0  0  0
 27 20  1  0  0  0  0
 28 29  1  0  0  0  0
 30 31  1  1  0  0  0
 30 29  1  0  0  0  0
 32 30  1  0  0  0  0
 33 32  1  0  0  0  0
 34 33  1  0  0  0  0
M  END
>  <MODEL>
5

>  <REMARK>
 VINA RESULT:      -6.9      1.670      2.190
  Name = 
  7 active torsions:
  status: ('A' for Active; 'I' for Inactive)
    1  A    between atoms: C_1  and  N_9
    2  A    between atoms: C_7  and  N_21
    3  A    between atoms: C_7  and  C_29
    4  A    between atoms: C_8  and  N_9
    5  A    between atoms: N_11  and  N_21
    6  A    between atoms: O_26  and  C_28
    7  A    between atoms: O_26  and  C_29
                            x       y       z     vdW  Elec       q    Type
                         _______ _______ _______ _____ _____    ______ ____

>  <TORSDO>
F 7

$$$$
=
 OpenBabel11052420223D

 34 38  0  0  1  0  0  0  0  0999 V2000
  189.6390  175.5970  143.3900 C   0  0  1  0  0  3  0  0  0  0  0  0
  187.1030  177.5480  141.4490 C   0  0  0  0  0  3  0  0  0  0  0  0
  185.4360  179.0230  144.5170 C   0  0  0  0  0  0  0  0  0  0  0  0
  188.1890  175.5230  140.9210 O   0  0  0  0  0  0  0  0  0  0  0  0
  190.3770  173.2330  142.8530 C   0  0  0  0  0  3  0  0  0  0  0  0
  189.7530  172.1790  140.7660 C   0  0  0  0  0  3  0  0  0  0  0  0
  184.7490  178.5690  145.7660 C   0  0  0  0  0  1  0  0  0  0  0  0
  190.4360  172.1400  141.9840 C   0  0  0  0  0  3  0  0  0  0  0  0
  188.9420  174.4030  141.2850 C   0  0  0  0  0  0  0  0  0  0  0  0
  189.6170  174.3640  142.5200 C   0  0  0  0  0  0  0  0  0  0  0  0
  189.0120  173.3110  140.4160 C   0  0  0  0  0  3  0  0  0  0  0  0
  186.6700  178.6400  142.3910 C   0  0  0  0  0  2  0  0  0  0  0  0
  185.4800  180.4970  144.2610 C   0  0  0  0  0  1  0  0  0  0  0  0
  185.9720  178.1390  143.6460 C   0  0  0  0  0  0  0  0  0  0  0  0
  185.8740  176.6520  143.9210 C   0  0  0  0  0  2  0  0  0  0  0  0
  187.8910  176.5420  141.8310 C   0  0  0  0  0  0  0  0  0  0  0  0
  187.2320  175.9900  144.2000 C   0  0  0  0  0  2  0  0  0  0  0  0
  188.3620  176.4480  143.2610 C   0  0  1  0  0  3  0  0  0  0  0  0
  189.9150  175.2720  144.7840 N   0  0  0  0  0  2  0  0  0  0  0  0
  194.6070  176.4820  145.0650 C   0  0  0  0  0  2  0  0  0  0  0  0
  192.4450  174.1530  145.7580 C   0  0  0  0  0  2  0  0  0  0  0  0
  190.8490  176.2660  145.2880 C   0  0  1  0  0  3  0  0  0  0  0  0
  194.6910  174.9660  144.7650 C   0  0  0  0  0  2  0  0  0  0  0  0
  192.0320  175.5930  145.9680 C   0  0  2  0  0  3  0  0  0  0  0  0
  193.9830  174.0890  145.8250 C   0  0  2  0  0  3  0  0  0  0  0  0
  192.1610  176.1310  144.5550 C   0  0  2  0  0  3  0  0  0  0  0  0
  193.2670  177.1610  144.6830 C   0  0  0  0  0  2  0  0  0  0  0  0
  194.3840  172.7610  145.6680 O   0  0  0  0  0  0  0  0  0  0  0  0
  193.3780  172.1590  144.9010 C   0  0  0  0  0  2  0  0  0  0  0  0
  193.9220  170.9620  144.1310 C   0  0  2  0  0  3  0  0  0  0  0  0
  192.8340  169.9330  143.8850 C   0  0  0  0  0  1  0  0  0  0  0  0
  195.0230  170.3570  144.8570 N   0  0  0  0  0  2  0  0  0  0  0  0
  194.5270  169.1890  145.4490 N   0  0  0  0  0  2  0  0  0  0  0  0
  194.7290  169.3140  146.7820 O   0  0  0  0  0  1  0  0  0  0  0  0
  1 19  1  1  0  0  0
  2 16  2  0  0  0  0
  2 12  1  0  0  0  0
  3  7  1  0  0  0  0
  4  9  1  0  0  0  0
  4 16  1  0  0  0  0
  6  8  1  0  0  0  0
  8  5  2  0  0  0  0
  9 10  2  0  0  0  0
 10  5  1  0  0  0  0
 10  1  1  0  0  0  0
 11  6  2  0  0  0  0
 11  9  1  0  0  0  0
 12 14  1  0  0  0  0
 13  3  1  0  0  0  0
 14 15  1  0  0  0  0
 14  3  2  0  0  0  0
 15 17  1  0  0  0  0
 16 18  1  0  0  0  0
 18  1  1  0  0  0  0
 18 17  1  1  0  0  0
 21 25  1  0  0  0  0
 22 19  1  6  0  0  0
 22 24  1  0  0  0  0
 23 20  1  0  0  0  0
 23 25  1  0  0  0  0
 24 21  1  6  0  0  0
 25 28  1  6  0  0  0
 26 27  1  1  0  0  0
 26 22  1  0  0  0  0
 26 24  1  0  0  0  0
 27 20  1  0  0  0  0
 29 28  1  0  0  0  0
 30 31  1  1  0  0  0
 30 32  1  0  0  0  0
 30 29  1  0  0  0  0
 32 33  1  0  0  0  0
 33 34  1  0  0  0  0
M  END
>  <MODEL>
6

>  <REMARK>
 VINA RESULT:      -6.8      2.806      8.355
  Name = 
  7 active torsions:
  status: ('A' for Active; 'I' for Inactive)
    1  A    between atoms: C_1  and  N_9
    2  A    between atoms: C_7  and  N_21
    3  A    between atoms: C_7  and  C_29
    4  A    between atoms: C_8  and  N_9
    5  A    between atoms: N_11  and  N_21
    6  A    between atoms: O_26  and  C_28
    7  A    between atoms: O_26  and  C_29
                            x       y       z     vdW  Elec       q    Type
                         _______ _______ _______ _____ _____    ______ ____

>  <TORSDO>
F 7

$$$$
=
 OpenBabel11052420223D

 34 38  0  0  1  0  0  0  0  0999 V2000
  190.1860  175.2010  142.9480 C   0  0  1  0  0  3  0  0  0  0  0  0
  193.2060  174.5000  140.8510 C   0  0  0  0  0  3  0  0  0  0  0  0
  191.6570  171.5380  139.0630 C   0  0  0  0  0  0  0  0  0  0  0  0
  193.0380  175.4570  143.0000 O   0  0  0  0  0  0  0  0  0  0  0  0
  190.2340  175.8450  145.3990 C   0  0  0  0  0  3  0  0  0  0  0  0
  192.3130  176.4370  146.4880 C   0  0  0  0  0  3  0  0  0  0  0  0
  191.0500  170.2080  139.3820 C   0  0  0  0  0  1  0  0  0  0  0  0
  190.9260  176.2760  146.5340 C   0  0  0  0  0  3  0  0  0  0  0  0
  192.3230  175.7280  144.1700 C   0  0  0  0  0  0  0  0  0  0  0  0
  190.9270  175.5510  144.2140 C   0  0  0  0  0  0  0  0  0  0  0  0
  193.0090  176.1680  145.3060 C   0  0  0  0  0  3  0  0  0  0  0  0
  192.6720  173.7260  139.6750 C   0  0  0  0  0  2  0  0  0  0  0  0
  191.8130  171.8870  137.6160 C   0  0  0  0  0  1  0  0  0  0  0  0
  192.0680  172.3780  140.0390 C   0  0  0  0  0  0  0  0  0  0  0  0
  191.9290  171.9730  141.4930 C   0  0  0  0  0  2  0  0  0  0  0  0
  192.4540  174.8020  141.9110 C   0  0  0  0  0  0  0  0  0  0  0  0
  190.9230  172.8330  142.2740 C   0  0  0  0  0  2  0  0  0  0  0  0
  191.0190  174.3400  141.9800 C   0  0  1  0  0  3  0  0  0  0  0  0
  188.8980  174.5780  143.2290 N   0  0  0  0  0  2  0  0  0  0  0  0
  186.4150  178.0260  140.8840 C   0  0  0  0  0  2  0  0  0  0  0  0
  186.7990  176.5560  143.7600 C   0  0  0  0  0  2  0  0  0  0  0  0
  188.0280  174.8400  142.0930 C   0  0  1  0  0  3  0  0  0  0  0  0
  186.6030  178.6690  142.2800 C   0  0  0  0  0  2  0  0  0  0  0  0
  186.8470  175.7030  142.5120 C   0  0  2  0  0  3  0  0  0  0  0  0
  185.9970  177.8290  143.4300 C   0  0  2  0  0  3  0  0  0  0  0  0
  188.0340  176.3190  141.7950 C   0  0  2  0  0  3  0  0  0  0  0  0
  187.4110  176.8910  140.5360 C   0  0  0  0  0  2  0  0  0  0  0  0
  185.9100  178.6160  144.5800 O   0  0  0  0  0  0  0  0  0  0  0  0
  184.5830  178.4960  145.0110 C   0  0  0  0  0  2  0  0  0  0  0  0
  184.5200  178.1270  146.4880 C   0  0  2  0  0  3  0  0  0  0  0  0
  185.2920  179.1250  147.3310 C   0  0  0  0  0  1  0  0  0  0  0  0
  185.0460  176.7910  146.6940 N   0  0  0  0  0  2  0  0  0  0  0  0
  186.0680  176.8970  147.6450 N   0  0  0  0  0  2  0  0  0  0  0  0
  187.1810  176.3750  147.0790 O   0  0  0  0  0  1  0  0  0  0  0  0
  1 19  1  1  0  0  0
  1 10  1  0  0  0  0
  2 16  2  0  0  0  0
  3  7  1  0  0  0  0
  3 14  2  0  0  0  0
  4  9  1  0  0  0  0
  5  8  1  0  0  0  0
  6  8  2  0  0  0  0
  9 10  1  0  0  0  0
  9 11  2  0  0  0  0
 10  5  2  0  0  0  0
 11  6  1  0  0  0  0
 12 14  1  0  0  0  0
 12  2  1  0  0  0  0
 13  3  1  0  0  0  0
 14 15  1  0  0  0  0
 15 17  1  0  0  0  0
 16 18  1  0  0  0  0
 16  4  1  0  0  0  0
 18 17  1  1  0  0  0
 18  1  1  0  0  0  0
 20 23  1  0  0  0  0
 22 24  1  0  0  0  0
 22 19  1  1  0  0  0
 23 25  1  0  0  0  0
 24 21  1  1  0  0  0
 25 21  1  0  0  0  0
 25 28  1  1  0  0  0
 26 27  1  6  0  0  0
 26 22  1  0  0  0  0
 26 24  1  0  0  0  0
 27 20  1  0  0  0  0
 28 29  1  0  0  0  0
 29 30  1  0  0  0  0
 30 32  1  0  0  0  0
 30 31  1  1  0  0  0
 32 33  1  0  0  0  0
 34 33  1  0  0  0  0
M  END
>  <MODEL>
7

>  <REMARK>
 VINA RESULT:      -6.8      2.846      5.326
  Name = 
  7 active torsions:
  status: ('A' for Active; 'I' for Inactive)
    1  A    between atoms: C_1  and  N_9
    2  A    between atoms: C_7  and  N_21
    3  A    between atoms: C_7  and  C_29
    4  A    between atoms: C_8  and  N_9
    5  A    between atoms: N_11  and  N_21
    6  A    between atoms: O_26  and  C_28
    7  A    between atoms: O_26  and  C_29
                            x       y       z     vdW  Elec       q    Type
                         _______ _______ _______ _____ _____    ______ ____

>  <TORSDO>
F 7

$$$$
=
 OpenBabel11052420223D

 34 38  0  0  1  0  0  0  0  0999 V2000
  191.2530  174.9500  144.0620 C   0  0  1  0  0  3  0  0  0  0  0  0
  189.4660  175.7240  147.2580 C   0  0  0  0  0  3  0  0  0  0  0  0
  186.5790  177.5090  145.5710 C   0  0  0  0  0  0  0  0  0  0  0  0
  191.7700  175.4550  146.8330 O   0  0  0  0  0  0  0  0  0  0  0  0
  193.7590  175.1140  143.7190 C   0  0  0  0  0  3  0  0  0  0  0  0
  195.2520  175.4300  145.5970 C   0  0  0  0  0  3  0  0  0  0  0  0
  186.3360  178.6720  144.6630 C   0  0  0  0  0  1  0  0  0  0  0  0
  195.0550  175.2400  144.2270 C   0  0  0  0  0  3  0  0  0  0  0  0
  192.8560  175.3790  145.9550 C   0  0  0  0  0  0  0  0  0  0  0  0
  192.6490  175.2010  144.5740 C   0  0  0  0  0  0  0  0  0  0  0  0
  194.1540  175.4940  146.4590 C   0  0  0  0  0  3  0  0  0  0  0  0
  188.0360  175.9430  146.8430 C   0  0  0  0  0  2  0  0  0  0  0  0
  185.3750  176.7880  146.0920 C   0  0  0  0  0  1  0  0  0  0  0  0
  187.8300  177.1380  145.9240 C   0  0  0  0  0  0  0  0  0  0  0  0
  189.0230  177.9150  145.4060 C   0  0  0  0  0  2  0  0  0  0  0  0
  190.4550  175.5770  146.3740 C   0  0  0  0  0  0  0  0  0  0  0  0
  189.9100  177.1070  144.4460 C   0  0  0  0  0  2  0  0  0  0  0  0
  190.1690  175.6580  144.8950 C   0  0  1  0  0  3  0  0  0  0  0  0
  191.1280  175.2810  142.6470 N   0  0  0  0  0  2  0  0  0  0  0  0
  191.1540  170.7540  140.8950 C   0  0  0  0  0  2  0  0  0  0  0  0
  192.5340  173.6870  140.6260 C   0  0  0  0  0  2  0  0  0  0  0  0
  190.3090  174.2500  142.0280 C   0  0  1  0  0  3  0  0  0  0  0  0
  192.6590  171.1130  140.8590 C   0  0  0  0  0  2  0  0  0  0  0  0
  191.0400  173.6210  140.8510 C   0  0  2  0  0  3  0  0  0  0  0  0
  192.9750  172.3550  139.9900 C   0  0  2  0  0  3  0  0  0  0  0  0
  190.9880  172.9130  142.1910 C   0  0  2  0  0  3  0  0  0  0  0  0
  190.2910  171.6070  141.8590 C   0  0  0  0  0  2  0  0  0  0  0  0
  194.3480  172.4080  139.7420 O   0  0  0  0  0  0  0  0  0  0  0  0
  194.7100  173.7430  139.9600 C   0  0  0  0  0  2  0  0  0  0  0  0
  196.2250  173.8870  140.0610 C   0  0  2  0  0  3  0  0  0  0  0  0
  196.7410  173.3060  141.3630 C   0  0  0  0  0  1  0  0  0  0  0  0
  196.6030  175.2840  139.9550 N   0  0  0  0  0  2  0  0  0  0  0  0
  195.5510  176.0330  140.4940 N   0  0  0  0  0  2  0  0  0  0  0  0
  196.1070  176.9310  141.3410 O   0  0  0  0  0  1  0  0  0  0  0  0
  1 19  1  6  0  0  0
  1 10  1  0  0  0  0
  1 18  1  0  0  0  0
  3 14  2  0  0  0  0
  3 13  1  0  0  0  0
  5  8  2  0  0  0  0
  5 10  1  0  0  0  0
  6 11  2  0  0  0  0
  7  3  1  0  0  0  0
  8  6  1  0  0  0  0
  9 11  1  0  0  0  0
  9  4  1  0  0  0  0
 10  9  2  0  0  0  0
 12  2  1  0  0  0  0
 14 12  1  0  0  0  0
 15 14  1  0  0  0  0
 16  4  1  0  0  0  0
 16  2  2  0  0  0  0
 17 15  1  0  0  0  0
 18 17  1  6  0  0  0
 18 16  1  0  0  0  0
 20 27  1  0  0  0  0
 22 26  1  0  0  0  0
 22 19  1  1  0  0  0
 23 20  1  0  0  0  0
 24 21  1  1  0  0  0
 24 22  1  0  0  0  0
 24 26  1  0  0  0  0
 25 28  1  1  0  0  0
 25 21  1  0  0  0  0
 25 23  1  0  0  0  0
 26 27  1  6  0  0  0
 28 29  1  0  0  0  0
 29 30  1  0  0  0  0
 30 31  1  1  0  0  0
 32 30  1  0  0  0  0
 32 33  1  0  0  0  0
 33 34  1  0  0  0  0
M  END
>  <MODEL>
8

>  <REMARK>
 VINA RESULT:      -6.6      3.543      8.246
  Name = 
  7 active torsions:
  status: ('A' for Active; 'I' for Inactive)
    1  A    between atoms: C_1  and  N_9
    2  A    between atoms: C_7  and  N_21
    3  A    between atoms: C_7  and  C_29
    4  A    between atoms: C_8  and  N_9
    5  A    between atoms: N_11  and  N_21
    6  A    between atoms: O_26  and  C_28
    7  A    between atoms: O_26  and  C_29
                            x       y       z     vdW  Elec       q    Type
                         _______ _______ _______ _____ _____    ______ ____

>  <TORSDO>
F 7

$$$$
=
 OpenBabel11052420223D

 34 38  0  0  1  0  0  0  0  0999 V2000
  189.3450  175.6670  143.2650 C   0  0  1  0  0  3  0  0  0  0  0  0
  186.8040  177.6740  141.3880 C   0  0  0  0  0  3  0  0  0  0  0  0
  185.1470  179.0600  144.5030 C   0  0  0  0  0  0  0  0  0  0  0  0
  187.8880  175.6640  140.7990 O   0  0  0  0  0  0  0  0  0  0  0  0
  190.0810  173.3180  142.6590 C   0  0  0  0  0  3  0  0  0  0  0  0
  189.4500  172.3250  140.5440 C   0  0  0  0  0  3  0  0  0  0  0  0
  184.4630  178.5710  145.7400 C   0  0  0  0  0  1  0  0  0  0  0  0
  190.1360  172.2500  141.7580 C   0  0  0  0  0  3  0  0  0  0  0  0
  188.6410  174.5340  141.1290 C   0  0  0  0  0  0  0  0  0  0  0  0
  189.3200  174.4590  142.3610 C   0  0  0  0  0  0  0  0  0  0  0  0
  188.7080  173.4670  140.2280 C   0  0  0  0  0  3  0  0  0  0  0  0
  186.3750  178.7380  142.3630 C   0  0  0  0  0  2  0  0  0  0  0  0
  185.1910  180.5410  144.2880 C   0  0  0  0  0  1  0  0  0  0  0  0
  185.6800  178.2020  143.6050 C   0  0  0  0  0  0  0  0  0  0  0  0
  185.5810  176.7080  143.8370 C   0  0  0  0  0  2  0  0  0  0  0  0
  187.5940  176.6570  141.7390 C   0  0  0  0  0  0  0  0  0  0  0  0
  186.9400  176.0360  144.0930 C   0  0  0  0  0  2  0  0  0  0  0  0
  188.0680  176.5210  143.1650 C   0  0  1  0  0  3  0  0  0  0  0  0
  189.6240  175.3010  144.6490 N   0  0  0  0  0  2  0  0  0  0  0  0
  194.3170  176.4770  145.0440 C   0  0  0  0  0  2  0  0  0  0  0  0
  192.1250  174.1570  145.6700 C   0  0  0  0  0  2  0  0  0  0  0  0
  190.5540  176.2840  145.1810 C   0  0  1  0  0  3  0  0  0  0  0  0
  194.3980  174.9630  144.7330 C   0  0  0  0  0  2  0  0  0  0  0  0
  191.7170  175.5980  145.8820 C   0  0  2  0  0  3  0  0  0  0  0  0
  193.6600  174.0820  145.7700 C   0  0  2  0  0  3  0  0  0  0  0  0
  191.8800  176.1460  144.4770 C   0  0  2  0  0  3  0  0  0  0  0  0
  192.9900  177.1670  144.6380 C   0  0  0  0  0  2  0  0  0  0  0  0
  194.0560  172.7520  145.6120 O   0  0  0  0  0  0  0  0  0  0  0  0
  193.1980  172.2250  144.6380 C   0  0  0  0  0  2  0  0  0  0  0  0
  193.4810  170.7460  144.4040 C   0  0  2  0  0  3  0  0  0  0  0  0
  194.6820  170.5590  143.4960 C   0  0  0  0  0  1  0  0  0  0  0  0
  192.3170  170.0970  143.8290 N   0  0  0  0  0  2  0  0  0  0  0  0
  192.6260  169.8190  142.4920 N   0  0  0  0  0  2  0  0  0  0  0  0
  191.9080  168.7240  142.1480 O   0  0  0  0  0  1  0  0  0  0  0  0
  1 19  1  1  0  0  0
  2 16  2  0  0  0  0
  2 12  1  0  0  0  0
  3  7  1  0  0  0  0
  4  9  1  0  0  0  0
  4 16  1  0  0  0  0
  6  8  1  0  0  0  0
  8  5  2  0  0  0  0
  9 10  2  0  0  0  0
 10  5  1  0  0  0  0
 10  1  1  0  0  0  0
 11  6  2  0  0  0  0
 11  9  1  0  0  0  0
 12 14  1  0  0  0  0
 13  3  1  0  0  0  0
 14 15  1  0  0  0  0
 14  3  2  0  0  0  0
 15 17  1  0  0  0  0
 16 18  1  0  0  0  0
 18  1  1  0  0  0  0
 18 17  1  1  0  0  0
 21 25  1  0  0  0  0
 22 19  1  6  0  0  0
 22 24  1  0  0  0  0
 23 20  1  0  0  0  0
 23 25  1  0  0  0  0
 24 21  1  6  0  0  0
 25 28  1  6  0  0  0
 26 27  1  1  0  0  0
 26 22  1  0  0  0  0
 26 24  1  0  0  0  0
 27 20  1  0  0  0  0
 29 28  1  0  0  0  0
 30 31  1  6  0  0  0
 30 29  1  0  0  0  0
 32 30  1  0  0  0  0
 33 32  1  0  0  0  0
 34 33  1  0  0  0  0
M  END
>  <MODEL>
9

>  <REMARK>
 VINA RESULT:      -6.6      2.709      8.056
  Name = 
  7 active torsions:
  status: ('A' for Active; 'I' for Inactive)
    1  A    between atoms: C_1  and  N_9
    2  A    between atoms: C_7  and  N_21
    3  A    between atoms: C_7  and  C_29
    4  A    between atoms: C_8  and  N_9
    5  A    between atoms: N_11  and  N_21
    6  A    between atoms: O_26  and  C_28
    7  A    between atoms: O_26  and  C_29
                            x       y       z     vdW  Elec       q    Type
                         _______ _______ _______ _____ _____    ______ ____

>  <TORSDO>
F 7

$$$$
