=
 OpenBabel11052419283D

 55 61  0  0  1  0  0  0  0  0999 V2000
  197.2910  172.9470  141.6460 C   0  0  0  0  0  2  0  0  0  0  0  0
  191.9220  172.0290  143.2920 C   0  0  0  0  0  3  0  0  0  0  0  0
  192.6820  168.8250  145.0360 C   0  0  0  0  0  1  0  0  0  0  0  0
  191.4220  174.9740  142.9740 C   0  0  0  0  0  2  0  0  0  0  0  0
  189.4930  174.1920  141.4380 C   0  0  0  0  0  2  0  0  0  0  0  0
  192.1460  168.6050  141.9040 C   0  0  0  0  0  3  0  0  0  0  0  0
  187.3620  177.3140  143.9540 O   0  0  0  0  0  0  0  0  0  0  0  0
  188.4280  176.1820  145.9640 C   0  0  2  0  0  3  0  0  0  0  0  0
  189.7350  176.9930  145.9360 C   0  0  0  0  0  2  0  0  0  0  0  0
  191.5420  168.1660  140.7300 C   0  0  0  0  0  3  0  0  0  0  0  0
  193.9390  169.5940  140.6270 C   0  0  0  0  0  0  0  0  0  0  0  0
  193.3510  169.1150  139.4460 C   0  0  0  0  0  3  0  0  0  0  0  0
  194.7910  171.0190  142.9720 O   0  0  0  0  0  0  0  0  0  0  0  0
  189.2420  176.1610  142.9580 C   0  0  0  0  0  0  0  0  0  0  0  0
  188.9030  175.5280  141.8300 C   0  0  0  0  0  3  0  0  0  0  0  0
  192.1390  168.4250  139.4970 C   0  0  0  0  0  3  0  0  0  0  0  0
  195.5570  176.1610  142.4140 C   0  0  0  0  0  2  0  0  0  0  0  0
  188.5940  177.4800  143.2570 C   0  0  0  0  0  2  0  0  0  0  0  0
  193.3320  169.3640  141.8610 C   0  0  0  0  0  0  0  0  0  0  0  0
  193.9930  174.7370  141.0580 C   0  0  2  0  0  3  0  0  0  0  0  0
  196.9970  171.5170  142.0540 C   0  0  2  0  0  3  0  0  0  0  0  0
  187.2750  176.8830  145.2830 C   0  0  0  0  0  0  0  0  0  0  0  0
  193.8380  174.4220  139.5860 C   0  0  0  0  0  2  0  0  0  0  0  0
  196.3740  169.0950  140.5060 C   0  0  2  0  0  3  0  0  0  0  0  0
  197.9290  170.5750  141.3080 C   0  0  0  0  0  2  0  0  0  0  0  0
  190.7840  172.6580  142.7650 O   0  0  0  0  0  0  0  0  0  0  0  0
  195.2960  170.1990  140.5930 C   0  0  2  0  0  3  0  0  0  0  0  0
  191.8290  170.8500  143.8840 C   0  0  0  0  0  3  0  0  0  0  0  0
  193.0570  170.1050  144.3110 C   0  0  2  0  0  3  0  0  0  0  0  0
  196.8070  175.3330  142.1360 C   0  0  0  0  0  2  0  0  0  0  0  0
  190.2980  175.5400  143.8530 C   0  0  2  0  0  3  0  0  0  0  0  0
  190.8900  173.8730  142.0230 C   0  0  2  0  0  0  0  0  0  0  0  0
  196.5960  173.9000  142.6010 C   0  0  0  0  0  2  0  0  0  0  0  0
  194.0270  169.8300  143.1340 C   0  0  2  0  0  3  0  0  0  0  0  0
  195.5260  171.1680  141.7700 C   0  0  1  0  0  3  0  0  0  0  0  0
  186.2040  177.0930  145.9080 O   0  0  0  0  0  0  0  0  0  0  0  0
  191.8340  173.6270  140.8280 C   0  0  0  0  0  2  0  0  0  0  0  0
  197.4440  169.2610  141.4250 O   0  0  0  0  0  0  0  0  0  0  0  0
  190.8440  176.4120  145.0280 C   0  0  1  0  0  0  0  0  0  0  0  0
  192.6350  174.8470  140.3940 C   0  0  1  0  0  3  0  0  0  0  0  0
  194.5940  176.1260  141.2330 C   0  0  0  0  0  2  0  0  0  0  0  0
  191.6580  177.5720  144.4740 C   0  0  0  0  0  0  0  0  0  0  0  0
  193.0350  177.4620  144.3210 O   0  0  0  0  0  1  0  0  0  0  0  0
  191.1060  178.6780  144.2050 O   0  0  0  0  0  0  0  0  0  0  0  0
  188.9420  174.5190  147.4630 C   0  0  0  0  0  1  0  0  0  0  0  0
  188.1020  175.6190  147.2200 O   0  0  0  0  0  0  0  0  0  0  0  0
  191.7720  175.5540  145.9100 C   0  0  0  0  0  2  0  0  0  0  0  0
  192.1370  176.2260  147.2210 C   0  0  0  0  0  1  0  0  0  0  0  0
  196.8490  169.0000  139.1840 O   0  0  0  0  0  0  0  0  0  0  0  0
  196.7740  170.2890  138.6360 C   0  0  0  0  0  2  0  0  0  0  0  0
  197.0120  168.7620  136.6800 C   0  0  0  0  0  1  0  0  0  0  0  0
  197.0450  170.2080  137.1400 C   0  0  1  0  0  3  0  0  0  0  0  0
  195.9910  171.0170  136.3910 C   0  0  0  0  0  2  0  0  0  0  0  0
  195.1240  171.8170  137.3450 C   0  0  0  0  0  2  0  0  0  0  0  0
  193.7910  171.7480  136.9390 O   0  0  0  0  0  1  0  0  0  0  0  0
  1 21  1  0  0  0  0
  1 33  1  0  0  0  0
  2 28  2  0  0  0  0
  5 15  1  0  0  0  0
  5 32  1  0  0  0  0
  7 22  1  0  0  0  0
  8 46  1  1  0  0  0
  9  8  1  0  0  0  0
 10  6  2  0  0  0  0
 11 19  2  0  0  0  0
 12 16  2  0  0  0  0
 12 11  1  0  0  0  0
 13 34  1  0  0  0  0
 14 18  1  0  0  0  0
 14 31  1  0  0  0  0
 15 14  2  0  0  0  0
 16 10  1  0  0  0  0
 18  7  1  0  0  0  0
 19  6  1  0  0  0  0
 20 23  1  6  0  0  0
 20 41  1  0  0  0  0
 21 25  1  6  0  0  0
 22 36  2  0  0  0  0
 22  8  1  0  0  0  0
 24 49  1  6  0  0  0
 24 27  1  0  0  0  0
 24 38  1  0  0  0  0
 25 38  1  0  0  0  0
 26  2  1  0  0  0  0
 27 11  1  1  0  0  0
 27 35  1  0  0  0  0
 28 29  1  0  0  0  0
 29  3  1  6  0  0  0
 30 17  1  0  0  0  0
 30 33  1  0  0  0  0
 31  4  1  6  0  0  0
 31 39  1  0  0  0  0
 32 37  1  6  0  0  0
 32 26  1  0  0  0  0
 32  4  1  0  0  0  0
 34 19  1  6  0  0  0
 34 29  1  0  0  0  0
 35 21  1  0  0  0  0
 35 13  1  1  0  0  0
 39 47  1  1  0  0  0
 39  9  1  0  0  0  0
 40 23  1  6  0  0  0
 40 37  1  0  0  0  0
 40 20  1  0  0  0  0
 41 17  1  0  0  0  0
 42 39  1  0  0  0  0
 43 42  1  0  0  0  0
 44 42  2  0  0  0  0
 46 45  1  0  0  0  0
 47 48  1  0  0  0  0
 50 49  1  0  0  0  0
 52 51  1  6  0  0  0
 52 50  1  0  0  0  0
 53 52  1  0  0  0  0
 53 54  1  0  0  0  0
 55 54  1  0  0  0  0
M  END
>  <MODEL>
1

>  <REMARK>
 VINA RESULT:      -5.7      0.000      0.000
  Name = 
  8 active torsions:
  status: ('A' for Active; 'I' for Inactive)
    1  A    between atoms: C_1  and  C_53
    2  A    between atoms: C_6  and  C_53
    3  A    between atoms: C_12  and  O_38
    4  A    between atoms: O_13  and  C_33
    5  A    between atoms: O_13  and  C_48
    6  A    between atoms: C_18  and  C_39
    7  A    between atoms: C_32  and  C_39
    8  A    between atoms: C_32  and  C_48
                            x       y       z     vdW  Elec       q    Type
                         _______ _______ _______ _____ _____    ______ ____

>  <TORSDO>
F 8

$$$$
=
 OpenBabel11052419283D

 55 61  0  0  1  0  0  0  0  0999 V2000
  195.5840  169.0660  142.4170 C   0  0  0  0  0  2  0  0  0  0  0  0
  193.6120  174.1640  140.8380 C   0  0  0  0  0  3  0  0  0  0  0  0
  196.9310  175.8470  141.0270 C   0  0  0  0  0  1  0  0  0  0  0  0
  191.2690  172.7630  139.5820 C   0  0  0  0  0  2  0  0  0  0  0  0
  189.8800  174.3610  141.0670 C   0  0  0  0  0  2  0  0  0  0  0  0
  195.3120  175.6610  143.7640 C   0  0  0  0  0  3  0  0  0  0  0  0
  187.7110  174.7870  137.1010 O   0  0  0  0  0  0  0  0  0  0  0  0
  190.0120  175.0860  136.0630 C   0  0  2  0  0  3  0  0  0  0  0  0
  190.2850  173.5900  135.8350 C   0  0  0  0  0  2  0  0  0  0  0  0
  194.6850  176.1130  144.9210 C   0  0  0  0  0  3  0  0  0  0  0  0
  195.2010  173.3910  144.5750 C   0  0  0  0  0  0  0  0  0  0  0  0
  194.6070  173.8520  145.7600 C   0  0  0  0  0  3  0  0  0  0  0  0
  195.8830  172.4450  141.9500 O   0  0  0  0  0  0  0  0  0  0  0  0
  189.1560  173.7630  138.7510 C   0  0  0  0  0  0  0  0  0  0  0  0
  188.8380  174.1330  139.9950 C   0  0  0  0  0  3  0  0  0  0  0  0
  194.3250  175.2090  145.9200 C   0  0  0  0  0  3  0  0  0  0  0  0
  192.8040  168.7210  139.9510 C   0  0  0  0  0  2  0  0  0  0  0  0
  188.0470  173.5690  137.7600 C   0  0  0  0  0  2  0  0  0  0  0  0
  195.5370  174.2860  143.5600 C   0  0  0  0  0  0  0  0  0  0  0  0
  192.1330  170.4520  141.6450 C   0  0  2  0  0  3  0  0  0  0  0  0
  196.5060  170.2230  142.7460 C   0  0  2  0  0  3  0  0  0  0  0  0
  188.5400  175.4160  136.1650 C   0  0  0  0  0  0  0  0  0  0  0  0
  191.5680  170.4130  143.0480 C   0  0  0  0  0  2  0  0  0  0  0  0
  196.9680  171.7590  145.2120 C   0  0  2  0  0  3  0  0  0  0  0  0
  197.3450  169.8730  143.9650 C   0  0  0  0  0  2  0  0  0  0  0  0
  192.2660  174.5600  140.8430 O   0  0  0  0  0  0  0  0  0  0  0  0
  195.6350  171.9750  144.4610 C   0  0  2  0  0  3  0  0  0  0  0  0
  194.5800  175.0620  140.9060 C   0  0  0  0  0  3  0  0  0  0  0  0
  196.0100  174.6400  141.0540 C   0  0  2  0  0  3  0  0  0  0  0  0
  193.9790  168.1660  140.7490 C   0  0  0  0  0  2  0  0  0  0  0  0
  190.6140  173.5130  138.4140 C   0  0  2  0  0  3  0  0  0  0  0  0
  191.2130  173.5960  140.8870 C   0  0  2  0  0  0  0  0  0  0  0  0
  194.9800  169.2740  141.0400 C   0  0  0  0  0  2  0  0  0  0  0  0
  196.2480  173.7700  142.3150 C   0  0  2  0  0  3  0  0  0  0  0  0
  195.6930  171.5050  142.9930 C   0  0  1  0  0  3  0  0  0  0  0  0
  188.0300  176.2740  135.3990 O   0  0  0  0  0  0  0  0  0  0  0  0
  191.4080  172.7260  142.1460 C   0  0  0  0  0  2  0  0  0  0  0  0
  197.9410  171.0430  144.4640 O   0  0  0  0  0  0  0  0  0  0  0  0
  190.9280  172.8530  137.0340 C   0  0  1  0  0  0  0  0  0  0  0  0
  190.9220  171.2900  142.0020 C   0  0  1  0  0  3  0  0  0  0  0  0
  191.6930  169.2160  140.8710 C   0  0  0  0  0  2  0  0  0  0  0  0
  190.4330  171.4140  137.0240 C   0  0  0  0  0  0  0  0  0  0  0  0
  190.9620  170.4780  137.9050 O   0  0  0  0  0  1  0  0  0  0  0  0
  189.5800  171.0300  136.1740 O   0  0  0  0  0  0  0  0  0  0  0  0
  191.7260  175.2280  134.5410 C   0  0  0  0  0  1  0  0  0  0  0  0
  190.7450  175.9620  135.2280 O   0  0  0  0  0  0  0  0  0  0  0  0
  192.4530  172.8370  136.8120 C   0  0  0  0  0  2  0  0  0  0  0  0
  193.1470  174.0750  137.3510 C   0  0  0  0  0  1  0  0  0  0  0  0
  196.7190  171.1360  146.4500 O   0  0  0  0  0  0  0  0  0  0  0  0
  195.5340  170.4010  146.2990 C   0  0  0  0  0  2  0  0  0  0  0  0
  197.0800  168.8180  147.4470 C   0  0  0  0  0  1  0  0  0  0  0  0
  195.8120  168.9390  146.6210 C   0  0  1  0  0  3  0  0  0  0  0  0
  194.6310  168.3580  147.3930 C   0  0  0  0  0  2  0  0  0  0  0  0
  193.4170  168.1860  146.5000 C   0  0  0  0  0  2  0  0  0  0  0  0
  193.8160  168.1660  145.1630 O   0  0  0  0  0  1  0  0  0  0  0  0
  2 26  1  0  0  0  0
  2 28  2  0  0  0  0
  6 10  1  0  0  0  0
  7 18  1  0  0  0  0
  8 46  1  6  0  0  0
  8 22  1  0  0  0  0
  9  8  1  0  0  0  0
  9 39  1  0  0  0  0
 10 16  2  0  0  0  0
 11 12  2  0  0  0  0
 12 16  1  0  0  0  0
 14 15  2  0  0  0  0
 15  5  1  0  0  0  0
 17 30  1  0  0  0  0
 17 41  1  0  0  0  0
 18 14  1  0  0  0  0
 19  6  2  0  0  0  0
 19 11  1  0  0  0  0
 20 41  1  6  0  0  0
 20 40  1  0  0  0  0
 20 23  1  0  0  0  0
 21  1  1  1  0  0  0
 21 35  1  0  0  0  0
 21 25  1  0  0  0  0
 22  7  1  0  0  0  0
 24 49  1  1  0  0  0
 25 38  1  0  0  0  0
 26 32  1  0  0  0  0
 27 11  1  6  0  0  0
 27 24  1  0  0  0  0
 28 29  1  0  0  0  0
 29  3  1  1  0  0  0
 29 34  1  0  0  0  0
 30 33  1  0  0  0  0
 31 14  1  0  0  0  0
 31  4  1  1  0  0  0
 32  4  1  6  0  0  0
 32  5  1  0  0  0  0
 32 37  1  0  0  0  0
 33  1  1  0  0  0  0
 34 13  1  6  0  0  0
 34 19  1  0  0  0  0
 35 13  1  6  0  0  0
 35 27  1  0  0  0  0
 36 22  2  0  0  0  0
 38 24  1  0  0  0  0
 39 47  1  6  0  0  0
 39 31  1  0  0  0  0
 40 37  1  1  0  0  0
 40 23  1  0  0  0  0
 42 39  1  0  0  0  0
 42 43  1  0  0  0  0
 44 42  2  0  0  0  0
 45 46  1  0  0  0  0
 47 48  1  0  0  0  0
 50 49  1  0  0  0  0
 50 52  1  0  0  0  0
 52 53  1  0  0  0  0
 52 51  1  1  0  0  0
 54 53  1  0  0  0  0
 55 54  1  0  0  0  0
M  END
>  <MODEL>
2

>  <REMARK>
 VINA RESULT:      -5.3      3.303      7.513
  Name = 
  8 active torsions:
  status: ('A' for Active; 'I' for Inactive)
    1  A    between atoms: C_1  and  C_53
    2  A    between atoms: C_6  and  C_53
    3  A    between atoms: C_12  and  O_38
    4  A    between atoms: O_13  and  C_33
    5  A    between atoms: O_13  and  C_48
    6  A    between atoms: C_18  and  C_39
    7  A    between atoms: C_32  and  C_39
    8  A    between atoms: C_32  and  C_48
                            x       y       z     vdW  Elec       q    Type
                         _______ _______ _______ _____ _____    ______ ____

>  <TORSDO>
F 8

$$$$
=
 OpenBabel11052419283D

 55 61  0  0  1  0  0  0  0  0999 V2000
  195.9580  170.0610  142.5840 C   0  0  0  0  0  2  0  0  0  0  0  0
  191.7920  173.5750  140.9520 C   0  0  0  0  0  3  0  0  0  0  0  0
  190.5020  171.3060  138.2930 C   0  0  0  0  0  1  0  0  0  0  0  0
  191.9670  174.8830  143.6520 C   0  0  0  0  0  2  0  0  0  0  0  0
  192.2830  177.0450  142.2690 C   0  0  0  0  0  2  0  0  0  0  0  0
  192.9240  173.1940  137.4500 C   0  0  0  0  0  3  0  0  0  0  0  0
  189.2020  178.4220  145.3080 O   0  0  0  0  0  0  0  0  0  0  0  0
  187.9450  176.2840  144.7560 C   0  0  2  0  0  3  0  0  0  0  0  0
  188.6680  175.3970  145.7840 C   0  0  0  0  0  2  0  0  0  0  0  0
  193.6110  174.1540  136.7120 C   0  0  0  0  0  3  0  0  0  0  0  0
  194.9790  172.5380  138.5320 C   0  0  0  0  0  0  0  0  0  0  0  0
  195.6780  173.4760  137.7570 C   0  0  0  0  0  3  0  0  0  0  0  0
  193.4570  171.0570  140.4680 O   0  0  0  0  0  0  0  0  0  0  0  0
  190.9470  177.0240  144.3820 C   0  0  0  0  0  0  0  0  0  0  0  0
  191.7170  177.6900  143.5150 C   0  0  0  0  0  3  0  0  0  0  0  0
  194.9880  174.3020  136.8680 C   0  0  0  0  0  3  0  0  0  0  0  0
  194.5900  171.9580  145.4920 C   0  0  0  0  0  2  0  0  0  0  0  0
  190.4320  177.7560  145.5850 C   0  0  0  0  0  2  0  0  0  0  0  0
  193.5970  172.4040  138.4020 C   0  0  0  0  0  0  0  0  0  0  0  0
  194.9010  173.5680  143.5880 C   0  0  2  0  0  3  0  0  0  0  0  0
  195.3840  169.7580  141.2140 C   0  0  2  0  0  3  0  0  0  0  0  0
  187.9900  177.7560  145.0990 C   0  0  0  0  0  0  0  0  0  0  0  0
  196.0770  174.3210  143.0050 C   0  0  0  0  0  2  0  0  0  0  0  0
  196.2810  170.4180  138.4920 C   0  0  2  0  0  3  0  0  0  0  0  0
  196.4470  169.0930  140.3540 C   0  0  0  0  0  2  0  0  0  0  0  0
  191.7070  174.9430  141.2550 O   0  0  0  0  0  0  0  0  0  0  0  0
  195.7220  171.5600  139.3690 C   0  0  2  0  0  3  0  0  0  0  0  0
  191.1720  173.0790  139.8950 C   0  0  0  0  0  3  0  0  0  0  0  0
  191.3830  171.6540  139.4800 C   0  0  2  0  0  3  0  0  0  0  0  0
  195.4160  170.8300  144.8820 C   0  0  0  0  0  2  0  0  0  0  0  0
  190.6730  175.5530  144.1330 C   0  0  2  0  0  3  0  0  0  0  0  0
  192.4640  175.5100  142.3250 C   0  0  2  0  0  0  0  0  0  0  0  0
  194.8340  170.4290  143.5350 C   0  0  0  0  0  2  0  0  0  0  0  0
  192.8720  171.3280  139.2000 C   0  0  2  0  0  3  0  0  0  0  0  0
  194.8720  171.0470  140.5480 C   0  0  1  0  0  3  0  0  0  0  0  0
  186.9220  178.4140  145.2030 O   0  0  0  0  0  0  0  0  0  0  0  0
  193.9570  175.2210  142.0650 C   0  0  0  0  0  2  0  0  0  0  0  0
  196.0340  169.1190  139.0110 O   0  0  0  0  0  0  0  0  0  0  0  0
  189.9790  174.7500  145.2800 C   0  0  1  0  0  0  0  0  0  0  0  0
  194.7970  175.0560  143.3240 C   0  0  1  0  0  3  0  0  0  0  0  0
  195.1240  173.3240  145.0760 C   0  0  0  0  0  2  0  0  0  0  0  0
  190.9260  174.6160  146.4630 C   0  0  0  0  0  0  0  0  0  0  0  0
  190.5100  174.9590  147.7450 O   0  0  0  0  0  1  0  0  0  0  0  0
  192.1250  174.2520  146.2930 O   0  0  0  0  0  0  0  0  0  0  0  0
  186.5360  175.9640  142.9700 C   0  0  0  0  0  1  0  0  0  0  0  0
  186.6670  175.8210  144.3610 O   0  0  0  0  0  0  0  0  0  0  0  0
  189.6400  173.3330  144.7750 C   0  0  0  0  0  2  0  0  0  0  0  0
  189.2360  173.3030  143.3120 C   0  0  0  0  0  1  0  0  0  0  0  0
  197.6560  170.6230  138.2670 O   0  0  0  0  0  0  0  0  0  0  0  0
  197.9410  170.0890  137.0020 C   0  0  0  0  0  2  0  0  0  0  0  0
  197.9260  171.9580  135.3520 C   0  0  0  0  0  1  0  0  0  0  0  0
  197.1150  170.8260  135.9550 C   0  0  1  0  0  3  0  0  0  0  0  0
  196.6940  169.8470  134.8640 C   0  0  0  0  0  2  0  0  0  0  0  0
  195.2240  169.4890  134.9770 C   0  0  0  0  0  2  0  0  0  0  0  0
  194.5100  170.5860  135.4610 O   0  0  0  0  0  1  0  0  0  0  0  0
  1 33  1  0  0  0  0
  2 26  1  0  0  0  0
  5 32  1  0  0  0  0
  5 15  1  0  0  0  0
  6 19  1  0  0  0  0
  7 18  1  0  0  0  0
  8 46  1  1  0  0  0
  8 22  1  0  0  0  0
  8  9  1  0  0  0  0
 10 16  1  0  0  0  0
 10  6  2  0  0  0  0
 12 11  1  0  0  0  0
 14 18  1  0  0  0  0
 15 14  2  0  0  0  0
 16 12  2  0  0  0  0
 19 11  2  0  0  0  0
 20 23  1  6  0  0  0
 20 41  1  0  0  0  0
 21 25  1  6  0  0  0
 21  1  1  0  0  0  0
 22 36  2  0  0  0  0
 22  7  1  0  0  0  0
 23 40  1  0  0  0  0
 24 49  1  1  0  0  0
 24 38  1  0  0  0  0
 24 27  1  0  0  0  0
 26 32  1  0  0  0  0
 27 11  1  6  0  0  0
 27 35  1  0  0  0  0
 28  2  2  0  0  0  0
 29  3  1  6  0  0  0
 29 28  1  0  0  0  0
 30 17  1  0  0  0  0
 31  4  1  1  0  0  0
 31 14  1  0  0  0  0
 31 39  1  0  0  0  0
 32 37  1  6  0  0  0
 32  4  1  0  0  0  0
 33 30  1  0  0  0  0
 34 19  1  1  0  0  0
 34 29  1  0  0  0  0
 34 13  1  0  0  0  0
 35 13  1  6  0  0  0
 35 21  1  0  0  0  0
 38 25  1  0  0  0  0
 39 47  1  6  0  0  0
 39  9  1  0  0  0  0
 39 42  1  0  0  0  0
 40 37  1  6  0  0  0
 40 20  1  0  0  0  0
 41 17  1  0  0  0  0
 42 43  1  0  0  0  0
 44 42  2  0  0  0  0
 45 46  1  0  0  0  0
 48 47  1  0  0  0  0
 50 49  1  0  0  0  0
 52 51  1  6  0  0  0
 52 50  1  0  0  0  0
 53 54  1  0  0  0  0
 53 52  1  0  0  0  0
 54 55  1  0  0  0  0
M  END
>  <MODEL>
3

>  <REMARK>
 VINA RESULT:      -5.3      1.991      3.823
  Name = 
  8 active torsions:
  status: ('A' for Active; 'I' for Inactive)
    1  A    between atoms: C_1  and  C_53
    2  A    between atoms: C_6  and  C_53
    3  A    between atoms: C_12  and  O_38
    4  A    between atoms: O_13  and  C_33
    5  A    between atoms: O_13  and  C_48
    6  A    between atoms: C_18  and  C_39
    7  A    between atoms: C_32  and  C_39
    8  A    between atoms: C_32  and  C_48
                            x       y       z     vdW  Elec       q    Type
                         _______ _______ _______ _____ _____    ______ ____

>  <TORSDO>
F 8

$$$$
=
 OpenBabel11052419283D

 55 61  0  0  1  0  0  0  0  0999 V2000
  189.2180  173.2640  144.2860 C   0  0  0  0  0  2  0  0  0  0  0  0
  194.5970  172.6190  142.5490 C   0  0  0  0  0  3  0  0  0  0  0  0
  195.9200  171.8240  145.9400 C   0  0  0  0  0  1  0  0  0  0  0  0
  193.5420  172.1070  139.7820 C   0  0  0  0  0  2  0  0  0  0  0  0
  195.1470  174.0250  139.1230 C   0  0  0  0  0  2  0  0  0  0  0  0
  195.6780  174.9210  145.2370 C   0  0  0  0  0  3  0  0  0  0  0  0
  196.1040  170.9720  135.9020 O   0  0  0  0  0  0  0  0  0  0  0  0
  196.2540  169.2740  137.7880 C   0  0  2  0  0  3  0  0  0  0  0  0
  194.7610  168.9050  137.7950 C   0  0  0  0  0  2  0  0  0  0  0  0
  196.0970  176.2370  145.0570 C   0  0  0  0  0  3  0  0  0  0  0  0
  193.3730  175.6240  145.1110 C   0  0  0  0  0  0  0  0  0  0  0  0
  193.7950  176.9550  144.9720 C   0  0  0  0  0  3  0  0  0  0  0  0
  192.5770  172.8780  144.8290 O   0  0  0  0  0  0  0  0  0  0  0  0
  194.8120  172.0320  137.6520 C   0  0  0  0  0  0  0  0  0  0  0  0
  195.1110  173.3290  137.7810 C   0  0  0  0  0  3  0  0  0  0  0  0
  195.1560  177.2560  144.9180 C   0  0  0  0  0  3  0  0  0  0  0  0
  189.3520  171.7910  140.8600 C   0  0  0  0  0  2  0  0  0  0  0  0
  194.8100  171.4350  136.2760 C   0  0  0  0  0  2  0  0  0  0  0  0
  194.3080  174.5960  145.2220 C   0  0  0  0  0  0  0  0  0  0  0  0
  190.9990  173.6860  140.9590 C   0  0  2  0  0  3  0  0  0  0  0  0
  190.2470  173.3360  145.3970 C   0  0  2  0  0  3  0  0  0  0  0  0
  196.7200  169.8510  136.4700 C   0  0  0  0  0  0  0  0  0  0  0  0
  190.9040  175.1930  140.8540 C   0  0  0  0  0  2  0  0  0  0  0  0
  191.5270  175.5960  146.7790 C   0  0  2  0  0  3  0  0  0  0  0  0
  189.7190  174.2110  146.5230 C   0  0  0  0  0  2  0  0  0  0  0  0
  195.1240  173.0680  141.3280 O   0  0  0  0  0  0  0  0  0  0  0  0
  191.9340  175.3150  145.3150 C   0  0  2  0  0  3  0  0  0  0  0  0
  195.3860  172.4180  143.5910 C   0  0  0  0  0  3  0  0  0  0  0  0
  194.8130  172.0880  144.9350 C   0  0  2  0  0  3  0  0  0  0  0  0
  188.6200  172.1510  142.1490 C   0  0  0  0  0  2  0  0  0  0  0  0
  194.4450  171.2410  138.8940 C   0  0  2  0  0  3  0  0  0  0  0  0
  194.2700  173.3990  140.2330 C   0  0  2  0  0  0  0  0  0  0  0  0
  189.5950  172.1590  143.3160 C   0  0  0  0  0  2  0  0  0  0  0  0
  193.8250  173.1680  145.4460 C   0  0  2  0  0  3  0  0  0  0  0  0
  191.5810  173.8850  144.8600 C   0  0  1  0  0  3  0  0  0  0  0  0
  197.6830  169.3240  135.8540 O   0  0  0  0  0  0  0  0  0  0  0  0
  193.2860  174.4910  140.7020 C   0  0  0  0  0  2  0  0  0  0  0  0
  190.7800  174.5470  147.3800 O   0  0  0  0  0  0  0  0  0  0  0  0
  193.8700  169.8040  138.6840 C   0  0  1  0  0  0  0  0  0  0  0  0
  191.9220  174.4440  140.0270 C   0  0  1  0  0  3  0  0  0  0  0  0
  189.8790  173.0360  140.1560 C   0  0  0  0  0  2  0  0  0  0  0  0
  192.4940  169.8870  138.0420 C   0  0  0  0  0  0  0  0  0  0  0  0
  192.2590  169.3240  136.7930 O   0  0  0  0  0  0  0  0  0  0  0  0
  191.5560  170.5240  138.6040 O   0  0  0  0  0  1  0  0  0  0  0  0
  197.9410  168.8830  139.2960 C   0  0  0  0  0  1  0  0  0  0  0  0
  197.1160  168.2900  138.3260 O   0  0  0  0  0  0  0  0  0  0  0  0
  193.7200  169.1120  140.0530 C   0  0  0  0  0  2  0  0  0  0  0  0
  194.8970  169.3600  140.9780 C   0  0  0  0  0  1  0  0  0  0  0  0
  190.8340  176.8190  146.8520 O   0  0  0  0  0  0  0  0  0  0  0  0
  190.4450  177.1390  145.5430 C   0  0  0  0  0  2  0  0  0  0  0  0
  188.2070  177.1830  144.4460 C   0  0  0  0  0  1  0  0  0  0  0  0
  189.0490  177.7470  145.5760 C   0  0  1  0  0  3  0  0  0  0  0  0
  188.3940  177.4360  146.9180 C   0  0  0  0  0  2  0  0  0  0  0  0
  187.0070  176.8490  146.7350 C   0  0  0  0  0  2  0  0  0  0  0  0
  186.0880  177.5640  147.5050 O   0  0  0  0  0  1  0  0  0  0  0  0
  2 28  2  0  0  0  0
  4 32  1  0  0  0  0
  7 18  1  0  0  0  0
  7 22  1  0  0  0  0
  8  9  1  0  0  0  0
  8 46  1  6  0  0  0
  9 39  1  0  0  0  0
 10  6  2  0  0  0  0
 11 19  2  0  0  0  0
 12 11  1  0  0  0  0
 14 15  2  0  0  0  0
 14 31  1  0  0  0  0
 15  5  1  0  0  0  0
 16 12  2  0  0  0  0
 16 10  1  0  0  0  0
 17 30  1  0  0  0  0
 18 14  1  0  0  0  0
 19  6  1  0  0  0  0
 19 34  1  0  0  0  0
 20 41  1  6  0  0  0
 21  1  1  6  0  0  0
 21 25  1  0  0  0  0
 22  8  1  0  0  0  0
 23 20  1  0  0  0  0
 24 49  1  6  0  0  0
 24 38  1  0  0  0  0
 25 38  1  0  0  0  0
 26  2  1  0  0  0  0
 27 11  1  1  0  0  0
 27 24  1  0  0  0  0
 28 29  1  0  0  0  0
 29 34  1  0  0  0  0
 29  3  1  1  0  0  0
 30 33  1  0  0  0  0
 31  4  1  6  0  0  0
 32  5  1  6  0  0  0
 32 37  1  0  0  0  0
 32 26  1  0  0  0  0
 33  1  1  0  0  0  0
 34 13  1  6  0  0  0
 35 13  1  1  0  0  0
 35 27  1  0  0  0  0
 35 21  1  0  0  0  0
 36 22  2  0  0  0  0
 39 31  1  0  0  0  0
 39 47  1  1  0  0  0
 40 37  1  1  0  0  0
 40 23  1  0  0  0  0
 40 20  1  0  0  0  0
 41 17  1  0  0  0  0
 42 44  1  0  0  0  0
 42 39  1  0  0  0  0
 43 42  2  0  0  0  0
 46 45  1  0  0  0  0
 47 48  1  0  0  0  0
 50 52  1  0  0  0  0
 50 49  1  0  0  0  0
 52 51  1  6  0  0  0
 52 53  1  0  0  0  0
 54 53  1  0  0  0  0
 54 55  1  0  0  0  0
M  END
>  <MODEL>
4

>  <REMARK>
 VINA RESULT:      -4.2      2.092      9.585
  Name = 
  8 active torsions:
  status: ('A' for Active; 'I' for Inactive)
    1  A    between atoms: C_1  and  C_53
    2  A    between atoms: C_6  and  C_53
    3  A    between atoms: C_12  and  O_38
    4  A    between atoms: O_13  and  C_33
    5  A    between atoms: O_13  and  C_48
    6  A    between atoms: C_18  and  C_39
    7  A    between atoms: C_32  and  C_39
    8  A    between atoms: C_32  and  C_48
                            x       y       z     vdW  Elec       q    Type
                         _______ _______ _______ _____ _____    ______ ____

>  <TORSDO>
F 8

$$$$
=
 OpenBabel11052419283D

 55 61  0  0  1  0  0  0  0  0999 V2000
  188.7720  173.7630  140.0870 C   0  0  0  0  0  2  0  0  0  0  0  0
  191.8430  173.3900  144.8630 C   0  0  0  0  0  3  0  0  0  0  0  0
  188.9550  174.0170  147.1320 C   0  0  0  0  0  1  0  0  0  0  0  0
  193.8760  171.8060  143.3180 C   0  0  0  0  0  2  0  0  0  0  0  0
  195.5200  173.6030  144.1910 C   0  0  0  0  0  2  0  0  0  0  0  0
  190.3970  176.6100  145.9730 C   0  0  0  0  0  3  0  0  0  0  0  0
  197.8710  169.8140  145.0440 O   0  0  0  0  0  0  0  0  0  0  0  0
  195.7270  168.9090  146.0650 C   0  0  2  0  0  3  0  0  0  0  0  0
  195.1490  168.3420  144.7570 C   0  0  0  0  0  2  0  0  0  0  0  0
  191.0640  177.8320  145.9990 C   0  0  0  0  0  3  0  0  0  0  0  0
  189.9910  176.8670  143.6080 C   0  0  0  0  0  0  0  0  0  0  0  0
  190.6270  178.1180  143.6430 C   0  0  0  0  0  3  0  0  0  0  0  0
  189.2180  174.1040  143.4650 O   0  0  0  0  0  0  0  0  0  0  0  0
  196.1830  171.2000  144.0040 C   0  0  0  0  0  0  0  0  0  0  0  0
  196.5280  172.4920  143.9980 C   0  0  0  0  0  3  0  0  0  0  0  0
  191.1860  178.5860  144.8330 C   0  0  0  0  0  3  0  0  0  0  0  0
  191.5020  171.2440  139.7310 C   0  0  0  0  0  2  0  0  0  0  0  0
  197.2600  170.1750  143.8090 C   0  0  0  0  0  2  0  0  0  0  0  0
  189.8910  176.0940  144.7640 C   0  0  0  0  0  0  0  0  0  0  0  0
  192.4650  173.2850  140.8360 C   0  0  2  0  0  3  0  0  0  0  0  0
  188.1070  174.3680  141.3080 C   0  0  2  0  0  3  0  0  0  0  0  0
  197.2310  169.0630  146.0360 C   0  0  0  0  0  0  0  0  0  0  0  0
  192.9570  174.6320  140.3510 C   0  0  0  0  0  2  0  0  0  0  0  0
  187.8950  177.1310  142.2940 C   0  0  2  0  0  3  0  0  0  0  0  0
  187.1700  175.4840  140.8750 C   0  0  0  0  0  2  0  0  0  0  0  0
  193.2420  173.4680  144.9460 O   0  0  0  0  0  0  0  0  0  0  0  0
  189.2700  176.4310  142.3850 C   0  0  2  0  0  3  0  0  0  0  0  0
  191.0870  173.6810  145.9080 C   0  0  0  0  0  3  0  0  0  0  0  0
  189.5950  173.7480  145.7820 C   0  0  2  0  0  3  0  0  0  0  0  0
  190.2070  171.9080  139.2730 C   0  0  0  0  0  2  0  0  0  0  0  0
  194.7180  170.8370  144.1580 C   0  0  2  0  0  3  0  0  0  0  0  0
  194.0620  173.2690  143.7950 C   0  0  2  0  0  0  0  0  0  0  0  0
  189.4560  172.4640  140.4730 C   0  0  0  0  0  2  0  0  0  0  0  0
  189.1320  174.7740  144.7160 C   0  0  2  0  0  3  0  0  0  0  0  0
  189.1660  174.8960  142.2920 C   0  0  1  0  0  3  0  0  0  0  0  0
  197.9390  168.5110  146.9170 O   0  0  0  0  0  0  0  0  0  0  0  0
  193.6400  174.2920  142.7200 C   0  0  0  0  0  2  0  0  0  0  0  0
  186.8190  176.2510  141.9990 O   0  0  0  0  0  0  0  0  0  0  0  0
  194.3210  169.3450  143.9200 C   0  0  1  0  0  0  0  0  0  0  0  0
  193.8130  173.8090  141.2860 C   0  0  1  0  0  3  0  0  0  0  0  0
  192.6580  172.2370  139.7470 C   0  0  0  0  0  2  0  0  0  0  0  0
  194.4970  168.9920  142.4510 C   0  0  0  0  0  0  0  0  0  0  0  0
  195.5910  168.2470  142.0270 O   0  0  0  0  0  1  0  0  0  0  0  0
  193.6860  169.4230  141.5810 O   0  0  0  0  0  0  0  0  0  0  0  0
  194.5040  169.2720  147.9760 C   0  0  0  0  0  1  0  0  0  0  0  0
  195.2280  168.3130  147.2470 O   0  0  0  0  0  0  0  0  0  0  0  0
  192.8360  169.1490  144.2850 C   0  0  0  0  0  2  0  0  0  0  0  0
  192.1160  168.1890  143.3560 C   0  0  0  0  0  1  0  0  0  0  0  0
  187.9600  178.1850  141.3630 O   0  0  0  0  0  0  0  0  0  0  0  0
  187.0520  179.1610  141.7950 C   0  0  0  0  0  2  0  0  0  0  0  0
  185.9410  179.3620  144.0180 C   0  0  0  0  0  1  0  0  0  0  0  0
  186.0600  178.5230  142.7590 C   0  0  1  0  0  3  0  0  0  0  0  0
  184.6980  178.4080  142.0800 C   0  0  0  0  0  2  0  0  0  0  0  0
  184.8100  178.5970  140.5790 C   0  0  0  0  0  2  0  0  0  0  0  0
  184.1130  177.5810  139.9240 O   0  0  0  0  0  1  0  0  0  0  0  0
  1 33  1  0  0  0  0
  2 26  1  0  0  0  0
  2 28  2  0  0  0  0
  4 32  1  0  0  0  0
  6 10  1  0  0  0  0
  7 22  1  0  0  0  0
  8 46  1  1  0  0  0
  9  8  1  0  0  0  0
 11 12  2  0  0  0  0
 11 19  1  0  0  0  0
 12 16  1  0  0  0  0
 14 31  1  0  0  0  0
 15 14  2  0  0  0  0
 15  5  1  0  0  0  0
 16 10  2  0  0  0  0
 17 41  1  0  0  0  0
 18 14  1  0  0  0  0
 18  7  1  0  0  0  0
 19  6  2  0  0  0  0
 20 41  1  6  0  0  0
 20 40  1  0  0  0  0
 21  1  1  6  0  0  0
 21 35  1  0  0  0  0
 22  8  1  0  0  0  0
 22 36  2  0  0  0  0
 23 20  1  0  0  0  0
 24 49  1  6  0  0  0
 24 27  1  0  0  0  0
 25 21  1  0  0  0  0
 25 38  1  0  0  0  0
 27 11  1  1  0  0  0
 29 28  1  0  0  0  0
 29  3  1  1  0  0  0
 30 17  1  0  0  0  0
 30 33  1  0  0  0  0
 31  4  1  6  0  0  0
 32 37  1  6  0  0  0
 32  5  1  0  0  0  0
 32 26  1  0  0  0  0
 34 13  1  6  0  0  0
 34 19  1  0  0  0  0
 34 29  1  0  0  0  0
 35 27  1  0  0  0  0
 35 13  1  1  0  0  0
 38 24  1  0  0  0  0
 39 31  1  0  0  0  0
 39 47  1  1  0  0  0
 39  9  1  0  0  0  0
 40 23  1  6  0  0  0
 40 37  1  0  0  0  0
 42 39  1  0  0  0  0
 43 42  1  0  0  0  0
 44 42  2  0  0  0  0
 46 45  1  0  0  0  0
 48 47  1  0  0  0  0
 49 50  1  0  0  0  0
 50 52  1  0  0  0  0
 52 51  1  1  0  0  0
 53 52  1  0  0  0  0
 54 53  1  0  0  0  0
 55 54  1  0  0  0  0
M  END
>  <MODEL>
5

>  <REMARK>
 VINA RESULT:      -3.8      2.690      9.415
  Name = 
  8 active torsions:
  status: ('A' for Active; 'I' for Inactive)
    1  A    between atoms: C_1  and  C_53
    2  A    between atoms: C_6  and  C_53
    3  A    between atoms: C_12  and  O_38
    4  A    between atoms: O_13  and  C_33
    5  A    between atoms: O_13  and  C_48
    6  A    between atoms: C_18  and  C_39
    7  A    between atoms: C_32  and  C_39
    8  A    between atoms: C_32  and  C_48
                            x       y       z     vdW  Elec       q    Type
                         _______ _______ _______ _____ _____    ______ ____

>  <TORSDO>
F 8

$$$$
=
 OpenBabel11052419283D

 55 61  0  0  1  0  0  0  0  0999 V2000
  193.3110  177.3320  143.0830 C   0  0  0  0  0  2  0  0  0  0  0  0
  191.7640  172.6970  140.1680 C   0  0  0  0  0  3  0  0  0  0  0  0
  188.2830  173.8730  139.5500 C   0  0  0  0  0  1  0  0  0  0  0  0
  194.6730  172.1960  139.6070 C   0  0  0  0  0  2  0  0  0  0  0  0
  194.1780  169.8730  140.6320 C   0  0  0  0  0  2  0  0  0  0  0  0
  188.7780  172.4060  142.3340 C   0  0  0  0  0  3  0  0  0  0  0  0
  196.5110  168.6850  136.9230 O   0  0  0  0  0  0  0  0  0  0  0  0
  194.9940  170.2840  135.6570 C   0  0  2  0  0  3  0  0  0  0  0  0
  195.8540  171.5390  135.8830 C   0  0  0  0  0  2  0  0  0  0  0  0
  188.5970  171.4620  143.3410 C   0  0  0  0  0  3  0  0  0  0  0  0
  190.1280  173.7480  143.8160 C   0  0  0  0  0  0  0  0  0  0  0  0
  189.9110  172.8180  144.8440 C   0  0  0  0  0  3  0  0  0  0  0  0
  191.0030  175.3070  141.5670 O   0  0  0  0  0  0  0  0  0  0  0  0
  195.7200  170.1440  138.6830 C   0  0  0  0  0  0  0  0  0  0  0  0
  195.3540  169.4620  139.7740 C   0  0  0  0  0  3  0  0  0  0  0  0
  189.1680  171.6630  144.5970 C   0  0  0  0  0  3  0  0  0  0  0  0
  196.1640  175.9930  141.0840 C   0  0  0  0  0  2  0  0  0  0  0  0
  196.8980  169.6500  137.8970 C   0  0  0  0  0  2  0  0  0  0  0  0
  189.5840  173.5400  142.5490 C   0  0  0  0  0  0  0  0  0  0  0  0
  195.0220  174.0560  142.2060 C   0  0  2  0  0  3  0  0  0  0  0  0
  191.8130  177.1410  142.9590 C   0  0  2  0  0  3  0  0  0  0  0  0
  195.7770  168.9950  135.7720 C   0  0  0  0  0  0  0  0  0  0  0  0
  195.0540  173.4540  143.5940 C   0  0  0  0  0  2  0  0  0  0  0  0
  189.7940  176.0180  144.7800 C   0  0  2  0  0  3  0  0  0  0  0  0
  191.1200  177.7790  144.1530 C   0  0  0  0  0  2  0  0  0  0  0  0
  192.4420  171.4680  140.1610 O   0  0  0  0  0  0  0  0  0  0  0  0
  190.7910  175.0450  144.1110 C   0  0  2  0  0  3  0  0  0  0  0  0
  190.4770  172.7600  139.8740 C   0  0  0  0  0  3  0  0  0  0  0  0
  189.7150  174.0400  140.0270 C   0  0  2  0  0  3  0  0  0  0  0  0
  195.4880  177.0780  141.9150 C   0  0  0  0  0  2  0  0  0  0  0  0
  194.9600  171.4070  138.3220 C   0  0  2  0  0  3  0  0  0  0  0  0
  193.8010  171.3730  140.5880 C   0  0  2  0  0  0  0  0  0  0  0  0
  193.9780  176.9840  141.7640 C   0  0  0  0  0  2  0  0  0  0  0  0
  189.7730  174.6000  141.4720 C   0  0  2  0  0  3  0  0  0  0  0  0
  191.4660  175.6460  142.8620 C   0  0  1  0  0  3  0  0  0  0  0  0
  195.7800  168.1700  134.8230 O   0  0  0  0  0  0  0  0  0  0  0  0
  193.8900  171.9030  142.0350 C   0  0  0  0  0  2  0  0  0  0  0  0
  189.7930  177.3210  144.2130 O   0  0  0  0  0  0  0  0  0  0  0  0
  195.5580  172.3050  137.1940 C   0  0  1  0  0  0  0  0  0  0  0  0
  195.2170  172.5640  142.3840 C   0  0  1  0  0  3  0  0  0  0  0  0
  196.3590  174.7160  141.8930 C   0  0  0  0  0  2  0  0  0  0  0  0
  196.8550  172.9400  137.6720 C   0  0  0  0  0  0  0  0  0  0  0  0
  197.8160  173.3620  136.7600 O   0  0  0  0  0  0  0  0  0  0  0  0
  197.1100  173.0370  138.9070 O   0  0  0  0  0  1  0  0  0  0  0  0
  192.8310  170.6310  134.9660 C   0  0  0  0  0  1  0  0  0  0  0  0
  194.1360  170.3410  134.5340 O   0  0  0  0  0  0  0  0  0  0  0  0
  194.5640  173.4360  136.8630 C   0  0  0  0  0  2  0  0  0  0  0  0
  194.9050  174.1720  135.5800 C   0  0  0  0  0  1  0  0  0  0  0  0
  190.0360  176.0660  146.1660 O   0  0  0  0  0  0  0  0  0  0  0  0
  189.0600  176.9110  146.7150 C   0  0  0  0  0  2  0  0  0  0  0  0
  187.2110  175.6350  147.7950 C   0  0  0  0  0  1  0  0  0  0  0  0
  187.6880  176.2830  146.5080 C   0  0  1  0  0  3  0  0  0  0  0  0
  186.7010  177.3610  146.0710 C   0  0  0  0  0  2  0  0  0  0  0  0
  186.3550  177.2310  144.5990 C   0  0  0  0  0  2  0  0  0  0  0  0
  185.0790  177.7460  144.3690 O   0  0  0  0  0  1  0  0  0  0  0  0
  6 19  2  0  0  0  0
  6 10  1  0  0  0  0
  7 18  1  0  0  0  0
  8 46  1  6  0  0  0
  8 22  1  0  0  0  0
  8  9  1  0  0  0  0
  9 39  1  0  0  0  0
 10 16  2  0  0  0  0
 11 12  2  0  0  0  0
 14 15  2  0  0  0  0
 15  5  1  0  0  0  0
 16 12  1  0  0  0  0
 17 41  1  0  0  0  0
 17 30  1  0  0  0  0
 18 14  1  0  0  0  0
 19 11  1  0  0  0  0
 20 41  1  1  0  0  0
 20 40  1  0  0  0  0
 20 23  1  0  0  0  0
 21  1  1  1  0  0  0
 21 25  1  0  0  0  0
 22  7  1  0  0  0  0
 24 49  1  1  0  0  0
 25 38  1  0  0  0  0
 26  2  1  0  0  0  0
 26 32  1  0  0  0  0
 27 11  1  6  0  0  0
 27 24  1  0  0  0  0
 28 29  1  0  0  0  0
 28  2  2  0  0  0  0
 29  3  1  1  0  0  0
 29 34  1  0  0  0  0
 31 14  1  0  0  0  0
 31  4  1  1  0  0  0
 32  4  1  6  0  0  0
 32  5  1  0  0  0  0
 32 37  1  0  0  0  0
 33 30  1  0  0  0  0
 33  1  1  0  0  0  0
 34 13  1  1  0  0  0
 34 19  1  0  0  0  0
 35 13  1  6  0  0  0
 35 21  1  0  0  0  0
 35 27  1  0  0  0  0
 36 22  2  0  0  0  0
 38 24  1  0  0  0  0
 39 47  1  6  0  0  0
 39 42  1  0  0  0  0
 39 31  1  0  0  0  0
 40 37  1  6  0  0  0
 40 23  1  0  0  0  0
 42 44  1  0  0  0  0
 43 42  2  0  0  0  0
 46 45  1  0  0  0  0
 48 47  1  0  0  0  0
 49 50  1  0  0  0  0
 52 50  1  0  0  0  0
 52 51  1  1  0  0  0
 53 52  1  0  0  0  0
 54 53  1  0  0  0  0
 55 54  1  0  0  0  0
M  END
>  <MODEL>
6

>  <REMARK>
 VINA RESULT:      -3.5      2.134      9.567
  Name = 
  8 active torsions:
  status: ('A' for Active; 'I' for Inactive)
    1  A    between atoms: C_1  and  C_53
    2  A    between atoms: C_6  and  C_53
    3  A    between atoms: C_12  and  O_38
    4  A    between atoms: O_13  and  C_33
    5  A    between atoms: O_13  and  C_48
    6  A    between atoms: C_18  and  C_39
    7  A    between atoms: C_32  and  C_39
    8  A    between atoms: C_32  and  C_48
                            x       y       z     vdW  Elec       q    Type
                         _______ _______ _______ _____ _____    ______ ____

>  <TORSDO>
F 8

$$$$
=
 OpenBabel11052419283D

 55 61  0  0  1  0  0  0  0  0999 V2000
  196.0390  172.9640  144.6820 C   0  0  0  0  0  2  0  0  0  0  0  0
  190.7000  173.5050  142.7900 C   0  0  0  0  0  3  0  0  0  0  0  0
  190.2470  169.8690  142.1140 C   0  0  0  0  0  1  0  0  0  0  0  0
  190.5290  176.0980  144.2990 C   0  0  0  0  0  2  0  0  0  0  0  0
  189.8420  177.0620  142.0000 C   0  0  0  0  0  2  0  0  0  0  0  0
  191.6300  171.5490  139.7890 C   0  0  0  0  0  3  0  0  0  0  0  0
  186.7000  178.9430  144.6830 O   0  0  0  0  0  0  0  0  0  0  0  0
  186.3770  176.6180  145.6570 C   0  0  2  0  0  3  0  0  0  0  0  0
  187.4700  176.7370  146.7330 C   0  0  0  0  0  2  0  0  0  0  0  0
  191.8140  172.0680  138.5100 C   0  0  0  0  0  3  0  0  0  0  0  0
  193.8480  172.2670  140.4130 C   0  0  0  0  0  0  0  0  0  0  0  0
  194.0490  172.7510  139.1110 C   0  0  0  0  0  3  0  0  0  0  0  0
  193.2010  171.7860  143.1710 O   0  0  0  0  0  0  0  0  0  0  0  0
  188.7880  177.8560  144.1220 C   0  0  0  0  0  0  0  0  0  0  0  0
  189.1570  178.1000  142.8600 C   0  0  0  0  0  3  0  0  0  0  0  0
  193.0220  172.6750  138.1700 C   0  0  0  0  0  3  0  0  0  0  0  0
  194.2380  175.6740  146.5100 C   0  0  0  0  0  2  0  0  0  0  0  0
  188.1100  178.9520  144.8900 C   0  0  0  0  0  2  0  0  0  0  0  0
  192.6320  171.6840  140.7690 C   0  0  0  0  0  0  0  0  0  0  0  0
  193.7310  175.9160  144.0610 C   0  0  2  0  0  3  0  0  0  0  0  0
  195.5380  171.7820  143.8760 C   0  0  2  0  0  3  0  0  0  0  0  0
  185.8480  177.9560  145.1920 C   0  0  0  0  0  0  0  0  0  0  0  0
  194.4570  176.5080  142.8720 C   0  0  0  0  0  2  0  0  0  0  0  0
  195.8890  171.0010  141.0620 C   0  0  2  0  0  3  0  0  0  0  0  0
  196.7130  171.0940  143.1990 C   0  0  0  0  0  2  0  0  0  0  0  0
  190.0920  174.7020  142.3820 O   0  0  0  0  0  0  0  0  0  0  0  0
  194.9810  172.2130  141.3720 C   0  0  2  0  0  3  0  0  0  0  0  0
  190.2590  172.3390  142.3500 C   0  0  0  0  0  3  0  0  0  0  0  0
  190.9960  171.0720  142.6590 C   0  0  2  0  0  3  0  0  0  0  0  0
  195.4020  174.7040  146.3360 C   0  0  0  0  0  2  0  0  0  0  0  0
  189.1140  176.5050  144.7300 C   0  0  2  0  0  3  0  0  0  0  0  0
  190.6310  175.9690  142.7580 C   0  0  2  0  0  0  0  0  0  0  0  0
  194.9350  173.4580  145.6000 C   0  0  0  0  0  2  0  0  0  0  0  0
  192.4650  171.1000  142.1660 C   0  0  2  0  0  3  0  0  0  0  0  0
  194.5010  172.2410  142.8360 C   0  0  1  0  0  3  0  0  0  0  0  0
  184.6160  178.2060  145.2560 O   0  0  0  0  0  0  0  0  0  0  0  0
  192.0900  176.0380  142.2610 C   0  0  0  0  0  2  0  0  0  0  0  0
  196.2270  170.2270  142.2060 O   0  0  0  0  0  0  0  0  0  0  0  0
  188.8900  176.3380  146.2670 C   0  0  1  0  0  0  0  0  0  0  0  0
  193.0150  176.8770  143.1330 C   0  0  1  0  0  3  0  0  0  0  0  0
  194.1420  176.6420  145.3360 C   0  0  0  0  0  2  0  0  0  0  0  0
  189.8940  177.1880  147.0310 C   0  0  0  0  0  0  0  0  0  0  0  0
  191.1780  176.7170  147.2770 O   0  0  0  0  0  0  0  0  0  0  0  0
  189.5580  178.3100  147.5090 O   0  0  0  0  0  1  0  0  0  0  0  0
  184.7820  175.9560  147.1720 C   0  0  0  0  0  1  0  0  0  0  0  0
  185.3700  175.6610  145.9300 O   0  0  0  0  0  0  0  0  0  0  0  0
  189.1160  174.8640  146.6570 C   0  0  0  0  0  2  0  0  0  0  0  0
  188.5330  174.5100  148.0130 C   0  0  0  0  0  1  0  0  0  0  0  0
  197.0430  171.4350  140.3820 O   0  0  0  0  0  0  0  0  0  0  0  0
  197.0960  172.8280  140.5290 C   0  0  0  0  0  2  0  0  0  0  0  0
  197.9290  172.4850  138.2050 C   0  0  0  0  0  1  0  0  0  0  0  0
  197.9410  173.4140  139.4050 C   0  0  1  0  0  3  0  0  0  0  0  0
  197.3840  174.7790  139.0130 C   0  0  0  0  0  2  0  0  0  0  0  0
  196.6170  175.4140  140.1570 C   0  0  0  0  0  2  0  0  0  0  0  0
  197.4870  176.1680  140.9450 O   0  0  0  0  0  1  0  0  0  0  0  0
  1 33  1  0  0  0  0
  5 15  1  0  0  0  0
  6 19  1  0  0  0  0
  7 18  1  0  0  0  0
  7 22  1  0  0  0  0
  8 46  1  1  0  0  0
  8  9  1  0  0  0  0
 10  6  2  0  0  0  0
 11 19  2  0  0  0  0
 12 11  1  0  0  0  0
 14 31  1  0  0  0  0
 14 18  1  0  0  0  0
 15 14  2  0  0  0  0
 16 10  1  0  0  0  0
 16 12  2  0  0  0  0
 20 23  1  6  0  0  0
 20 41  1  0  0  0  0
 21 25  1  6  0  0  0
 21  1  1  0  0  0  0
 22 36  2  0  0  0  0
 22  8  1  0  0  0  0
 23 40  1  0  0  0  0
 24 49  1  1  0  0  0
 24 27  1  0  0  0  0
 24 38  1  0  0  0  0
 26 32  1  0  0  0  0
 26  2  1  0  0  0  0
 27 11  1  6  0  0  0
 27 35  1  0  0  0  0
 28 29  1  0  0  0  0
 28  2  2  0  0  0  0
 29  3  1  6  0  0  0
 30 17  1  0  0  0  0
 31  4  1  1  0  0  0
 31 39  1  0  0  0  0
 32  5  1  6  0  0  0
 32  4  1  0  0  0  0
 33 30  1  0  0  0  0
 34 19  1  6  0  0  0
 34 29  1  0  0  0  0
 34 13  1  0  0  0  0
 35 13  1  6  0  0  0
 35 21  1  0  0  0  0
 37 32  1  0  0  0  0
 38 25  1  0  0  0  0
 39 47  1  1  0  0  0
 39  9  1  0  0  0  0
 39 42  1  0  0  0  0
 40 37  1  6  0  0  0
 40 20  1  0  0  0  0
 41 17  1  0  0  0  0
 42 43  2  0  0  0  0
 42 44  1  0  0  0  0
 46 45  1  0  0  0  0
 47 48  1  0  0  0  0
 49 50  1  0  0  0  0
 52 51  1  6  0  0  0
 52 50  1  0  0  0  0
 53 52  1  0  0  0  0
 53 54  1  0  0  0  0
 54 55  1  0  0  0  0
M  END
>  <MODEL>
7

>  <REMARK>
 VINA RESULT:      -3.2      2.227      3.248
  Name = 
  8 active torsions:
  status: ('A' for Active; 'I' for Inactive)
    1  A    between atoms: C_1  and  C_53
    2  A    between atoms: C_6  and  C_53
    3  A    between atoms: C_12  and  O_38
    4  A    between atoms: O_13  and  C_33
    5  A    between atoms: O_13  and  C_48
    6  A    between atoms: C_18  and  C_39
    7  A    between atoms: C_32  and  C_39
    8  A    between atoms: C_32  and  C_48
                            x       y       z     vdW  Elec       q    Type
                         _______ _______ _______ _____ _____    ______ ____

>  <TORSDO>
F 8

$$$$
=
 OpenBabel11052419283D

 55 61  0  0  1  0  0  0  0  0999 V2000
  191.6160  175.4180  146.9710 C   0  0  0  0  0  2  0  0  0  0  0  0
  189.8110  175.6320  141.5800 C   0  0  0  0  0  3  0  0  0  0  0  0
  189.2960  179.3220  141.5760 C   0  0  0  0  0  1  0  0  0  0  0  0
  191.2140  173.0170  141.1070 C   0  0  0  0  0  2  0  0  0  0  0  0
  188.8910  172.2480  140.2700 C   0  0  0  0  0  2  0  0  0  0  0  0
  186.8760  177.5850  142.7030 C   0  0  0  0  0  3  0  0  0  0  0  0
  191.5570  170.6570  136.9560 O   0  0  0  0  0  0  0  0  0  0  0  0
  192.6330  172.9600  136.9420 C   0  0  2  0  0  3  0  0  0  0  0  0
  193.6800  172.6580  138.0280 C   0  0  0  0  0  2  0  0  0  0  0  0
  185.5730  177.1050  142.8020 C   0  0  0  0  0  3  0  0  0  0  0  0
  187.4240  176.5700  144.8220 C   0  0  0  0  0  0  0  0  0  0  0  0
  186.1000  176.1220  144.9410 C   0  0  0  0  0  3  0  0  0  0  0  0
  190.2120  177.0060  144.2810 O   0  0  0  0  0  0  0  0  0  0  0  0
  190.9990  171.4990  139.1560 C   0  0  0  0  0  0  0  0  0  0  0  0
  189.7210  171.2660  139.4730 C   0  0  0  0  0  3  0  0  0  0  0  0
  185.1830  176.3670  143.9180 C   0  0  0  0  0  3  0  0  0  0  0  0
  193.3650  172.8770  144.8720 C   0  0  0  0  0  2  0  0  0  0  0  0
  191.7340  170.4630  138.3570 C   0  0  0  0  0  2  0  0  0  0  0  0
  187.8290  177.2840  143.6950 C   0  0  0  0  0  0  0  0  0  0  0  0
  190.9180  172.8080  144.3020 C   0  0  2  0  0  3  0  0  0  0  0  0
  190.8700  176.6870  146.6110 C   0  0  2  0  0  3  0  0  0  0  0  0
  192.1230  171.7200  136.2430 C   0  0  0  0  0  0  0  0  0  0  0  0
  189.6910  172.1830  144.9300 C   0  0  0  0  0  2  0  0  0  0  0  0
  188.0850  177.5410  147.0160 C   0  0  2  0  0  3  0  0  0  0  0  0
  190.1980  177.2520  147.8530 C   0  0  0  0  0  2  0  0  0  0  0  0
  189.3660  174.5390  140.8200 O   0  0  0  0  0  0  0  0  0  0  0  0
  188.3620  176.4400  145.9680 C   0  0  2  0  0  3  0  0  0  0  0  0
  189.4290  176.8620  141.2810 C   0  0  0  0  0  3  0  0  0  0  0  0
  189.7760  178.0120  142.1760 C   0  0  2  0  0  3  0  0  0  0  0  0
  193.2080  173.7000  146.1460 C   0  0  0  0  0  2  0  0  0  0  0  0
  191.6560  172.7710  139.6580 C   0  0  2  0  0  3  0  0  0  0  0  0
  189.6780  173.1990  141.2010 C   0  0  2  0  0  0  0  0  0  0  0  0
  192.5340  175.0260  145.8280 C   0  0  0  0  0  2  0  0  0  0  0  0
  189.2520  177.8230  143.6230 C   0  0  2  0  0  3  0  0  0  0  0  0
  189.8330  176.4080  145.5090 C   0  0  1  0  0  3  0  0  0  0  0  0
  192.2010  171.6230  134.9910 O   0  0  0  0  0  0  0  0  0  0  0  0
  189.1490  172.9700  142.6330 C   0  0  0  0  0  2  0  0  0  0  0  0
  189.2520  178.2160  147.4650 O   0  0  0  0  0  0  0  0  0  0  0  0
  193.2030  172.8970  139.4800 C   0  0  1  0  0  0  0  0  0  0  0  0
  189.9670  171.9850  143.4580 C   0  0  1  0  0  3  0  0  0  0  0  0
  192.1540  171.9810  144.6370 C   0  0  0  0  0  2  0  0  0  0  0  0
  193.9100  171.8950  140.3800 C   0  0  0  0  0  0  0  0  0  0  0  0
  193.2570  171.3430  141.4760 O   0  0  0  0  0  1  0  0  0  0  0  0
  195.1230  171.5950  140.1840 O   0  0  0  0  0  0  0  0  0  0  0  0
  191.9680  175.0070  136.1410 C   0  0  0  0  0  1  0  0  0  0  0  0
  192.9660  174.0210  136.0680 O   0  0  0  0  0  0  0  0  0  0  0  0
  193.6490  174.3130  139.8950 C   0  0  0  0  0  2  0  0  0  0  0  0
  194.1390  174.3860  141.3300 C   0  0  0  0  0  1  0  0  0  0  0  0
  187.3640  176.9970  148.0960 O   0  0  0  0  0  0  0  0  0  0  0  0
  186.3330  177.9010  148.3880 C   0  0  0  0  0  2  0  0  0  0  0  0
  184.0660  177.7190  147.3680 C   0  0  0  0  0  1  0  0  0  0  0  0
  185.5060  178.1340  147.1300 C   0  0  1  0  0  3  0  0  0  0  0  0
  185.5670  179.6100  146.7510 C   0  0  0  0  0  2  0  0  0  0  0  0
  185.6950  179.7920  145.2510 C   0  0  0  0  0  2  0  0  0  0  0  0
  184.4270  179.7810  144.6660 O   0  0  0  0  0  1  0  0  0  0  0  0
  4 32  1  0  0  0  0
  6 10  2  0  0  0  0
  6 19  1  0  0  0  0
  7 18  1  0  0  0  0
  8 46  1  6  0  0  0
  8  9  1  0  0  0  0
  9 39  1  0  0  0  0
 10 16  1  0  0  0  0
 11 12  1  0  0  0  0
 14 15  2  0  0  0  0
 14 31  1  0  0  0  0
 15  5  1  0  0  0  0
 16 12  2  0  0  0  0
 17 30  1  0  0  0  0
 18 14  1  0  0  0  0
 19 11  2  0  0  0  0
 20 41  1  1  0  0  0
 20 23  1  0  0  0  0
 21  1  1  1  0  0  0
 21 25  1  0  0  0  0
 22  8  1  0  0  0  0
 22  7  1  0  0  0  0
 24 38  1  0  0  0  0
 24 49  1  1  0  0  0
 26 32  1  0  0  0  0
 26  2  1  0  0  0  0
 27 11  1  6  0  0  0
 27 24  1  0  0  0  0
 28  2  2  0  0  0  0
 28 29  1  0  0  0  0
 29  3  1  6  0  0  0
 29 34  1  0  0  0  0
 31  4  1  1  0  0  0
 32  5  1  6  0  0  0
 32 37  1  0  0  0  0
 33 30  1  0  0  0  0
 33  1  1  0  0  0  0
 34 19  1  6  0  0  0
 34 13  1  0  0  0  0
 35 13  1  6  0  0  0
 35 27  1  0  0  0  0
 35 21  1  0  0  0  0
 36 22  2  0  0  0  0
 38 25  1  0  0  0  0
 39 31  1  0  0  0  0
 39 47  1  1  0  0  0
 39 42  1  0  0  0  0
 40 37  1  6  0  0  0
 40 20  1  0  0  0  0
 40 23  1  0  0  0  0
 41 17  1  0  0  0  0
 42 43  1  0  0  0  0
 44 42  2  0  0  0  0
 46 45  1  0  0  0  0
 47 48  1  0  0  0  0
 49 50  1  0  0  0  0
 52 51  1  1  0  0  0
 52 50  1  0  0  0  0
 53 52  1  0  0  0  0
 54 53  1  0  0  0  0
 55 54  1  0  0  0  0
M  END
>  <MODEL>
8

>  <REMARK>
 VINA RESULT:      -3.1      2.545     10.008
  Name = 
  8 active torsions:
  status: ('A' for Active; 'I' for Inactive)
    1  A    between atoms: C_1  and  C_53
    2  A    between atoms: C_6  and  C_53
    3  A    between atoms: C_12  and  O_38
    4  A    between atoms: O_13  and  C_33
    5  A    between atoms: O_13  and  C_48
    6  A    between atoms: C_18  and  C_39
    7  A    between atoms: C_32  and  C_39
    8  A    between atoms: C_32  and  C_48
                            x       y       z     vdW  Elec       q    Type
                         _______ _______ _______ _____ _____    ______ ____

>  <TORSDO>
F 8

$$$$
