=
 OpenBabel11052417213D

 30 32  0  0  1  0  0  0  0  0999 V2000
  188.1070  176.8860  143.8280 C   0  0  0  0  0  0  0  0  0  0  0  0
  187.5610  176.0860  141.5580 C   0  0  0  0  0  2  0  0  0  0  0  0
  191.1570  172.6330  141.6390 C   0  0  0  0  0  2  0  0  0  0  0  0
  192.8980  172.3850  143.3640 C   0  0  0  0  0  2  0  0  0  0  0  0
  189.0760  177.0820  144.8620 N   0  0  0  0  0  2  0  0  0  0  0  0
  191.3900  176.8490  145.9060 C   0  0  2  0  0  3  0  0  0  0  0  0
  191.1880  177.3750  143.2550 S   0  0  0  0  0  0  0  0  0  0  0  0
  194.0630  174.6090  143.1950 C   0  0  1  0  0  0  0  0  0  0  0  0
  194.3170  175.4370  142.1230 C   0  0  0  0  0  0  0  0  0  0  0  0
  190.4980  176.9820  144.6940 C   0  0  0  0  0  0  0  0  0  0  0  0
  192.4210  175.7320  145.7430 C   0  0  0  0  0  2  0  0  0  0  0  0
  188.2190  175.2290  140.4950 C   0  0  0  0  0  2  0  0  0  0  0  0
  194.5930  175.1540  144.5270 C   0  0  1  0  0  3  0  0  0  0  0  0
  186.9060  177.2080  144.0380 O   0  0  0  0  0  0  0  0  0  0  0  0
  190.7050  173.5660  140.7040 O   0  0  0  0  0  0  0  0  0  0  0  0
  188.3410  173.8030  141.0000 C   0  0  0  0  0  2  0  0  0  0  0  0
  188.4790  176.2920  142.6210 O   0  0  0  0  0  0  0  0  0  0  0  0
  192.7080  173.8740  143.1310 C   0  0  1  0  0  3  0  0  0  0  0  0
  194.1080  176.4780  141.4480 O   0  0  0  0  0  0  0  0  0  0  0  0
  195.0470  174.1450  142.3630 O   0  0  0  0  0  0  0  0  0  0  0  0
  194.5000  177.0670  146.1550 C   0  0  0  0  0  1  0  0  0  0  0  0
  189.4660  173.0770  140.2800 C   0  0  0  0  0  2  0  0  0  0  0  0
  192.6120  172.8940  141.9690 C   0  0  2  0  0  3  0  0  0  0  0  0
  193.7150  176.2610  145.1320 C   0  0  2  0  0  3  0  0  0  0  0  0
  194.1700  173.3360  146.0000 O   0  0  0  0  0  0  0  0  0  0  0  0
  196.4390  173.9130  145.8470 C   0  0  0  0  0  1  0  0  0  0  0  0
  195.0020  174.0750  145.4960 C   0  0  0  0  0  0  0  0  0  0  0  0
  190.6230  176.6920  147.2220 C   0  0  0  0  0  2  0  0  0  0  0  0
  189.2260  174.6540  147.4190 C   0  0  0  0  0  1  0  0  0  0  0  0
  190.5870  175.2500  147.7110 C   0  0  0  0  0  2  0  0  0  0  0  0
  1 14  2  0  0  0  0
  1  5  1  0  0  0  0
  2 17  1  0  0  0  0
  6 28  1  1  0  0  0
  7 10  2  0  0  0  0
  8  9  1  6  0  0  0
  8 13  1  0  0  0  0
  9 20  1  0  0  0  0
 10  5  1  0  0  0  0
 10  6  1  0  0  0  0
 11  6  1  0  0  0  0
 12 16  1  0  0  0  0
 12  2  1  0  0  0  0
 13 24  1  0  0  0  0
 13 27  1  1  0  0  0
 15  3  1  0  0  0  0
 17  1  1  0  0  0  0
 18  8  1  0  0  0  0
 18  4  1  1  0  0  0
 19  9  2  0  0  0  0
 20  8  1  0  0  0  0
 22 15  1  0  0  0  0
 22 16  1  0  0  0  0
 23  3  1  1  0  0  0
 23 18  1  0  0  0  0
 23  4  1  0  0  0  0
 24 11  1  0  0  0  0
 24 21  1  1  0  0  0
 27 26  1  0  0  0  0
 27 25  2  0  0  0  0
 28 30  1  0  0  0  0
 29 30  1  0  0  0  0
M  END
>  <MODEL>
1

>  <REMARK>
 VINA RESULT:      -6.9      0.000      0.000
  Name = 
  3 active torsions:
  status: ('A' for Active; 'I' for Inactive)
    1  A    between atoms: C_6  and  C_8
    2  A    between atoms: C_6  and  C_21
    3  A    between atoms: C_15  and  C_26
                            x       y       z     vdW  Elec       q    Type
                         _______ _______ _______ _____ _____    ______ ____

>  <TORSDO>
F 3

$$$$
=
 OpenBabel11052417213D

 30 32  0  0  1  0  0  0  0  0999 V2000
  186.6120  177.0240  141.0790 C   0  0  0  0  0  0  0  0  0  0  0  0
  187.5110  175.5850  139.2860 C   0  0  0  0  0  2  0  0  0  0  0  0
  189.6780  172.4760  142.5260 C   0  0  0  0  0  2  0  0  0  0  0  0
  189.8760  172.8140  144.9580 C   0  0  0  0  0  2  0  0  0  0  0  0
  186.7260  177.5540  142.4040 N   0  0  0  0  0  2  0  0  0  0  0  0
  187.7930  177.7390  144.7110 C   0  0  2  0  0  3  0  0  0  0  0  0
  189.3920  177.4780  142.5390 S   0  0  0  0  0  0  0  0  0  0  0  0
  191.2020  174.9510  145.0410 C   0  0  1  0  0  0  0  0  0  0  0  0
  192.1970  175.4500  144.2260 C   0  0  0  0  0  0  0  0  0  0  0  0
  187.9000  177.4780  143.2270 C   0  0  0  0  0  0  0  0  0  0  0  0
  188.5130  176.6730  145.5370 C   0  0  0  0  0  2  0  0  0  0  0  0
  188.5530  174.4930  139.1580 C   0  0  0  0  0  2  0  0  0  0  0  0
  190.8470  175.8780  146.2090 C   0  0  1  0  0  3  0  0  0  0  0  0
  185.6140  177.3350  140.3740 O   0  0  0  0  0  0  0  0  0  0  0  0
  190.0640  173.0810  141.3280 O   0  0  0  0  0  0  0  0  0  0  0  0
  188.1140  173.2780  139.9540 C   0  0  0  0  0  2  0  0  0  0  0  0
  187.5690  176.1300  140.5960 O   0  0  0  0  0  0  0  0  0  0  0  0
  190.1010  174.1630  144.2990 C   0  0  1  0  0  3  0  0  0  0  0  0
  192.6200  176.2440  143.3470 O   0  0  0  0  0  0  0  0  0  0  0  0
  192.4070  174.3170  145.1920 O   0  0  0  0  0  0  0  0  0  0  0  0
  190.0350  178.1690  146.8490 C   0  0  0  0  0  1  0  0  0  0  0  0
  189.3150  172.4320  140.3420 C   0  0  0  0  0  2  0  0  0  0  0  0
  190.6160  172.8900  143.6420 C   0  0  2  0  0  3  0  0  0  0  0  0
  189.9620  177.0680  145.8040 C   0  0  2  0  0  3  0  0  0  0  0  0
  191.1360  174.9620  148.3850 O   0  0  0  0  0  0  0  0  0  0  0  0
  188.9910  174.6190  147.4990 C   0  0  0  0  0  1  0  0  0  0  0  0
  190.3840  175.1410  147.4390 C   0  0  0  0  0  0  0  0  0  0  0  0
  186.3550  177.9270  145.2030 C   0  0  0  0  0  2  0  0  0  0  0  0
  185.8640  178.1220  147.6240 C   0  0  0  0  0  1  0  0  0  0  0  0
  186.0660  177.1510  146.4810 C   0  0  0  0  0  2  0  0  0  0  0  0
  1  5  1  0  0  0  0
  2 17  1  0  0  0  0
  5 10  1  0  0  0  0
  6 28  1  1  0  0  0
  6 11  1  0  0  0  0
  7 10  2  0  0  0  0
  8  9  1  6  0  0  0
  8 20  1  0  0  0  0
  8 13  1  0  0  0  0
  9 20  1  0  0  0  0
 10  6  1  0  0  0  0
 11 24  1  0  0  0  0
 12  2  1  0  0  0  0
 12 16  1  0  0  0  0
 13 27  1  1  0  0  0
 14  1  2  0  0  0  0
 15  3  1  0  0  0  0
 16 22  1  0  0  0  0
 17  1  1  0  0  0  0
 18  4  1  1  0  0  0
 18  8  1  0  0  0  0
 19  9  2  0  0  0  0
 22 15  1  0  0  0  0
 23  3  1  6  0  0  0
 23 18  1  0  0  0  0
 23  4  1  0  0  0  0
 24 13  1  0  0  0  0
 24 21  1  1  0  0  0
 27 26  1  0  0  0  0
 27 25  2  0  0  0  0
 28 30  1  0  0  0  0
 30 29  1  0  0  0  0
M  END
>  <MODEL>
2

>  <REMARK>
 VINA RESULT:      -6.8      2.309      3.640
  Name = 
  3 active torsions:
  status: ('A' for Active; 'I' for Inactive)
    1  A    between atoms: C_6  and  C_8
    2  A    between atoms: C_6  and  C_21
    3  A    between atoms: C_15  and  C_26
                            x       y       z     vdW  Elec       q    Type
                         _______ _______ _______ _____ _____    ______ ____

>  <TORSDO>
F 3

$$$$
=
 OpenBabel11052417213D

 30 32  0  0  1  0  0  0  0  0999 V2000
  188.5740  175.0660  142.7520 C   0  0  0  0  0  0  0  0  0  0  0  0
  188.5580  174.3680  140.3840 C   0  0  0  0  0  2  0  0  0  0  0  0
  192.6130  171.5190  140.9360 C   0  0  0  0  0  2  0  0  0  0  0  0
  194.0560  171.4120  142.9300 C   0  0  0  0  0  2  0  0  0  0  0  0
  189.3100  175.3300  143.9500 N   0  0  0  0  0  2  0  0  0  0  0  0
  191.4220  175.3800  145.3770 C   0  0  2  0  0  3  0  0  0  0  0  0
  191.5830  176.0710  142.7610 S   0  0  0  0  0  0  0  0  0  0  0  0
  194.8470  173.7970  143.0800 C   0  0  1  0  0  0  0  0  0  0  0  0
  195.1360  174.7340  142.1110 C   0  0  0  0  0  0  0  0  0  0  0  0
  190.7370  175.4650  144.0330 C   0  0  0  0  0  0  0  0  0  0  0  0
  192.6370  174.4520  145.3460 C   0  0  0  0  0  2  0  0  0  0  0  0
  189.5180  173.7070  139.4160 C   0  0  0  0  0  2  0  0  0  0  0  0
  195.0480  174.3140  144.5090 C   0  0  1  0  0  3  0  0  0  0  0  0
  187.3190  175.1800  142.7610 O   0  0  0  0  0  0  0  0  0  0  0  0
  192.1750  172.4400  139.9820 O   0  0  0  0  0  0  0  0  0  0  0  0
  189.7890  172.2830  139.8650 C   0  0  0  0  0  2  0  0  0  0  0  0
  189.2370  174.6320  141.6030 O   0  0  0  0  0  0  0  0  0  0  0  0
  193.6630  172.8670  142.7400 C   0  0  1  0  0  3  0  0  0  0  0  0
  194.8730  175.7790  141.4610 O   0  0  0  0  0  0  0  0  0  0  0  0
  196.0200  173.5570  142.4140 O   0  0  0  0  0  0  0  0  0  0  0  0
  194.3660  176.0580  146.1850 C   0  0  0  0  0  1  0  0  0  0  0  0
  191.1230  171.7990  139.3210 C   0  0  0  0  0  2  0  0  0  0  0  0
  193.9280  171.9770  141.5330 C   0  0  2  0  0  3  0  0  0  0  0  0
  193.9090  175.2210  145.0020 C   0  0  2  0  0  3  0  0  0  0  0  0
  194.6840  172.3580  145.8130 O   0  0  0  0  0  0  0  0  0  0  0  0
  196.8380  173.2570  146.0500 C   0  0  0  0  0  1  0  0  0  0  0  0
  195.4620  173.2400  145.4820 C   0  0  0  0  0  0  0  0  0  0  0  0
  190.4820  175.0040  146.5260 C   0  0  0  0  0  2  0  0  0  0  0  0
  191.2390  176.7920  148.0670 C   0  0  0  0  0  1  0  0  0  0  0  0
  191.0840  175.2960  147.8940 C   0  0  0  0  0  2  0  0  0  0  0  0
  1 14  2  0  0  0  0
  1  5  1  0  0  0  0
  2 17  1  0  0  0  0
  5 10  1  0  0  0  0
  6 28  1  1  0  0  0
  7 10  2  0  0  0  0
  8  9  1  6  0  0  0
  8 13  1  0  0  0  0
  9 20  1  0  0  0  0
 10  6  1  0  0  0  0
 11  6  1  0  0  0  0
 12 16  1  0  0  0  0
 12  2  1  0  0  0  0
 13 24  1  0  0  0  0
 13 27  1  1  0  0  0
 15  3  1  0  0  0  0
 17  1  1  0  0  0  0
 18  4  1  1  0  0  0
 18  8  1  0  0  0  0
 19  9  2  0  0  0  0
 20  8  1  0  0  0  0
 22 16  1  0  0  0  0
 22 15  1  0  0  0  0
 23  3  1  6  0  0  0
 23 18  1  0  0  0  0
 23  4  1  0  0  0  0
 24 11  1  0  0  0  0
 24 21  1  1  0  0  0
 27 25  2  0  0  0  0
 27 26  1  0  0  0  0
 28 30  1  0  0  0  0
 30 29  1  0  0  0  0
M  END
>  <MODEL>
3

>  <REMARK>
 VINA RESULT:      -6.3      1.401      1.714
  Name = 
  3 active torsions:
  status: ('A' for Active; 'I' for Inactive)
    1  A    between atoms: C_6  and  C_8
    2  A    between atoms: C_6  and  C_21
    3  A    between atoms: C_15  and  C_26
                            x       y       z     vdW  Elec       q    Type
                         _______ _______ _______ _____ _____    ______ ____

>  <TORSDO>
F 3

$$$$
=
 OpenBabel11052417213D

 30 32  0  0  1  0  0  0  0  0999 V2000
  188.5260  172.9710  142.0400 C   0  0  0  0  0  0  0  0  0  0  0  0
  187.4340  175.1570  142.3880 C   0  0  0  0  0  2  0  0  0  0  0  0
  191.7770  177.4880  143.1400 C   0  0  0  0  0  2  0  0  0  0  0  0
  193.9820  176.4160  143.3790 C   0  0  0  0  0  2  0  0  0  0  0  0
  189.6200  172.0880  142.3060 N   0  0  0  0  0  2  0  0  0  0  0  0
  191.8910  171.4880  143.2960 C   0  0  2  0  0  3  0  0  0  0  0  0
  190.1840  173.0170  144.7440 S   0  0  0  0  0  0  0  0  0  0  0  0
  193.5990  174.9740  145.4050 C   0  0  1  0  0  0  0  0  0  0  0  0
  192.8350  175.1600  146.5370 C   0  0  0  0  0  0  0  0  0  0  0  0
  190.5980  172.2680  143.3410 C   0  0  0  0  0  0  0  0  0  0  0  0
  193.1090  172.3790  143.5410 C   0  0  0  0  0  2  0  0  0  0  0  0
  187.8160  176.5110  142.9500 C   0  0  0  0  0  2  0  0  0  0  0  0
  194.3490  173.6370  145.3880 C   0  0  1  0  0  3  0  0  0  0  0  0
  187.6130  172.6040  141.2520 O   0  0  0  0  0  0  0  0  0  0  0  0
  190.5260  177.5080  143.7590 O   0  0  0  0  0  0  0  0  0  0  0  0
  188.8730  177.1460  142.0650 C   0  0  0  0  0  2  0  0  0  0  0  0
  188.5010  174.2470  142.6070 O   0  0  0  0  0  0  0  0  0  0  0  0
  192.9790  175.5430  144.1120 C   0  0  1  0  0  3  0  0  0  0  0  0
  191.8280  174.9160  147.2520 O   0  0  0  0  0  0  0  0  0  0  0  0
  194.1250  175.8860  146.2800 O   0  0  0  0  0  0  0  0  0  0  0  0
  194.1090  171.1360  145.4730 C   0  0  0  0  0  1  0  0  0  0  0  0
  189.6870  178.1610  142.8510 C   0  0  0  0  0  2  0  0  0  0  0  0
  192.8390  177.0600  144.1320 C   0  0  2  0  0  3  0  0  0  0  0  0
  193.4610  172.4360  145.0250 C   0  0  2  0  0  3  0  0  0  0  0  0
  195.7110  173.5020  143.4420 O   0  0  0  0  0  0  0  0  0  0  0  0
  196.9120  173.9890  145.3980 C   0  0  0  0  0  1  0  0  0  0  0  0
  195.6610  173.6960  144.6470 C   0  0  0  0  0  0  0  0  0  0  0  0
  192.0700  170.6630  142.0190 C   0  0  0  0  0  2  0  0  0  0  0  0
  192.6910  168.5410  143.1390 C   0  0  0  0  0  1  0  0  0  0  0  0
  193.1490  169.5970  142.1560 C   0  0  0  0  0  2  0  0  0  0  0  0
  1  5  1  0  0  0  0
  1 17  1  0  0  0  0
  2 17  1  0  0  0  0
  2 12  1  0  0  0  0
  3 15  1  0  0  0  0
  4 23  1  0  0  0  0
  5 10  1  0  0  0  0
  6 28  1  6  0  0  0
  6 10  1  0  0  0  0
  6 11  1  0  0  0  0
  8 20  1  1  0  0  0
  8  9  1  0  0  0  0
  9 19  2  0  0  0  0
 10  7  2  0  0  0  0
 11 24  1  0  0  0  0
 13 27  1  6  0  0  0
 13  8  1  0  0  0  0
 14  1  2  0  0  0  0
 16 22  1  0  0  0  0
 16 12  1  0  0  0  0
 18  4  1  6  0  0  0
 18 23  1  0  0  0  0
 18  8  1  0  0  0  0
 20  9  1  0  0  0  0
 22 15  1  0  0  0  0
 23  3  1  6  0  0  0
 24 13  1  0  0  0  0
 24 21  1  6  0  0  0
 25 27  2  0  0  0  0
 27 26  1  0  0  0  0
 28 30  1  0  0  0  0
 30 29  1  0  0  0  0
M  END
>  <MODEL>
4

>  <REMARK>
 VINA RESULT:      -6.1      2.455      4.782
  Name = 
  3 active torsions:
  status: ('A' for Active; 'I' for Inactive)
    1  A    between atoms: C_6  and  C_8
    2  A    between atoms: C_6  and  C_21
    3  A    between atoms: C_15  and  C_26
                            x       y       z     vdW  Elec       q    Type
                         _______ _______ _______ _____ _____    ______ ____

>  <TORSDO>
F 3

$$$$
=
 OpenBabel11052417213D

 30 32  0  0  1  0  0  0  0  0999 V2000
  190.1940  176.9600  146.3800 C   0  0  0  0  0  0  0  0  0  0  0  0
  192.4930  176.7820  147.2600 C   0  0  0  0  0  2  0  0  0  0  0  0
  194.3030  175.1630  142.9050 C   0  0  0  0  0  2  0  0  0  0  0  0
  192.9810  174.5280  140.9260 C   0  0  0  0  0  2  0  0  0  0  0  0
  189.1900  176.5080  145.4660 N   0  0  0  0  0  2  0  0  0  0  0  0
  188.3310  175.1130  143.5120 C   0  0  2  0  0  3  0  0  0  0  0  0
  190.0510  173.9880  145.2800 S   0  0  0  0  0  0  0  0  0  0  0  0
  191.5970  172.6440  141.8550 C   0  0  1  0  0  0  0  0  0  0  0  0
  191.8730  171.6760  142.7970 C   0  0  0  0  0  0  0  0  0  0  0  0
  189.2570  175.3010  144.6920 C   0  0  0  0  0  0  0  0  0  0  0  0
  189.0740  174.6210  142.2700 C   0  0  0  0  0  2  0  0  0  0  0  0
  193.7940  176.1290  146.8410 C   0  0  0  0  0  2  0  0  0  0  0  0
  190.1820  172.5450  141.2740 C   0  0  1  0  0  3  0  0  0  0  0  0
  189.9350  177.9160  147.1590 O   0  0  0  0  0  0  0  0  0  0  0  0
  194.4690  174.7950  144.2420 O   0  0  0  0  0  0  0  0  0  0  0  0
  194.3000  176.7810  145.5670 C   0  0  0  0  0  2  0  0  0  0  0  0
  191.4650  176.3820  146.3670 O   0  0  0  0  0  0  0  0  0  0  0  0
  192.2330  174.0200  142.1450 C   0  0  1  0  0  3  0  0  0  0  0  0
  191.7480  171.1720  143.9430 O   0  0  0  0  0  0  0  0  0  0  0  0
  192.4430  171.6650  141.4060 O   0  0  0  0  0  0  0  0  0  0  0  0
  187.7260  172.5600  141.8110 C   0  0  0  0  0  1  0  0  0  0  0  0
  195.2140  175.8320  144.8100 C   0  0  0  0  0  2  0  0  0  0  0  0
  193.7550  173.9950  142.1110 C   0  0  2  0  0  3  0  0  0  0  0  0
  189.0920  173.0970  142.2070 C   0  0  2  0  0  3  0  0  0  0  0  0
  189.7570  174.1660  139.5860 O   0  0  0  0  0  0  0  0  0  0  0  0
  190.3930  172.0730  138.7390 C   0  0  0  0  0  1  0  0  0  0  0  0
  190.0860  173.0190  139.8460 C   0  0  0  0  0  0  0  0  0  0  0  0
  187.4890  176.3500  143.1860 C   0  0  0  0  0  2  0  0  0  0  0  0
  188.5640  178.2490  142.0130 C   0  0  0  0  0  1  0  0  0  0  0  0
  187.8210  176.9440  141.8240 C   0  0  0  0  0  2  0  0  0  0  0  0
  1 14  2  0  0  0  0
  3 15  1  0  0  0  0
  5  1  1  0  0  0  0
  6 28  1  6  0  0  0
  6 10  1  0  0  0  0
  8 20  1  6  0  0  0
  8 18  1  0  0  0  0
  8  9  1  0  0  0  0
  9 19  2  0  0  0  0
 10  7  2  0  0  0  0
 10  5  1  0  0  0  0
 11  6  1  0  0  0  0
 12  2  1  0  0  0  0
 13 27  1  6  0  0  0
 13  8  1  0  0  0  0
 13 24  1  0  0  0  0
 15 22  1  0  0  0  0
 16 12  1  0  0  0  0
 17  1  1  0  0  0  0
 17  2  1  0  0  0  0
 18  4  1  6  0  0  0
 20  9  1  0  0  0  0
 22 16  1  0  0  0  0
 23  4  1  6  0  0  0
 23 18  1  0  0  0  0
 23  3  1  0  0  0  0
 24 21  1  6  0  0  0
 24 11  1  0  0  0  0
 25 27  2  0  0  0  0
 26 27  1  0  0  0  0
 30 29  1  0  0  0  0
 30 28  1  0  0  0  0
M  END
>  <MODEL>
5

>  <REMARK>
 VINA RESULT:      -6.0      2.064      5.788
  Name = 
  3 active torsions:
  status: ('A' for Active; 'I' for Inactive)
    1  A    between atoms: C_6  and  C_8
    2  A    between atoms: C_6  and  C_21
    3  A    between atoms: C_15  and  C_26
                            x       y       z     vdW  Elec       q    Type
                         _______ _______ _______ _____ _____    ______ ____

>  <TORSDO>
F 3

$$$$
=
 OpenBabel11052417213D

 30 32  0  0  1  0  0  0  0  0999 V2000
  191.1980  171.0350  142.2330 C   0  0  0  0  0  0  0  0  0  0  0  0
  193.1090  169.8410  141.2240 C   0  0  0  0  0  2  0  0  0  0  0  0
  196.4300  172.2540  144.0560 C   0  0  0  0  0  2  0  0  0  0  0  0
  195.9620  174.1620  145.5420 C   0  0  0  0  0  2  0  0  0  0  0  0
  190.6770  172.2070  142.8670 N   0  0  0  0  0  2  0  0  0  0  0  0
  190.8730  174.5200  143.9200 C   0  0  2  0  0  3  0  0  0  0  0  0
  192.3390  173.9480  141.7120 S   0  0  0  0  0  0  0  0  0  0  0  0
  195.0850  175.8500  143.8950 C   0  0  1  0  0  0  0  0  0  0  0  0
  195.4070  176.1080  142.5800 C   0  0  0  0  0  0  0  0  0  0  0  0
  191.3400  173.4780  142.9300 C   0  0  0  0  0  0  0  0  0  0  0  0
  192.0350  175.1380  144.6960 C   0  0  0  0  0  2  0  0  0  0  0  0
  194.6140  170.0030  141.1710 C   0  0  0  0  0  2  0  0  0  0  0  0
  193.9880  176.7680  144.4460 C   0  0  1  0  0  3  0  0  0  0  0  0
  190.4420  170.0420  142.0540 O   0  0  0  0  0  0  0  0  0  0  0  0
  196.3500  171.9060  142.7050 O   0  0  0  0  0  0  0  0  0  0  0  0
  195.1930  169.8160  142.5620 C   0  0  0  0  0  2  0  0  0  0  0  0
  192.5440  170.9740  141.8680 O   0  0  0  0  0  0  0  0  0  0  0  0
  195.1310  174.3580  144.2860 C   0  0  1  0  0  3  0  0  0  0  0  0
  195.1590  176.0710  141.3470 O   0  0  0  0  0  0  0  0  0  0  0  0
  196.2930  176.4750  143.7370 O   0  0  0  0  0  0  0  0  0  0  0  0
  191.6150  177.5480  144.1600 C   0  0  0  0  0  1  0  0  0  0  0  0
  196.5340  170.5200  142.6800 C   0  0  0  0  0  2  0  0  0  0  0  0
  196.5280  173.7580  144.1980 C   0  0  2  0  0  3  0  0  0  0  0  0
  192.5720  176.3800  143.9900 C   0  0  2  0  0  3  0  0  0  0  0  0
  194.8900  177.8920  146.3380 O   0  0  0  0  0  0  0  0  0  0  0  0
  193.3030  176.2540  146.8880 C   0  0  0  0  0  1  0  0  0  0  0  0
  194.1200  177.0400  145.9230 C   0  0  0  0  0  0  0  0  0  0  0  0
  189.7870  174.0200  144.8760 C   0  0  0  0  0  2  0  0  0  0  0  0
  189.3160  174.5420  147.2530 C   0  0  0  0  0  1  0  0  0  0  0  0
  189.3160  175.0970  145.8440 C   0  0  0  0  0  2  0  0  0  0  0  0
  1  5  1  0  0  0  0
  2 17  1  0  0  0  0
  5 10  1  0  0  0  0
  6 11  1  0  0  0  0
  6 28  1  1  0  0  0
  7 10  2  0  0  0  0
  8  9  1  6  0  0  0
  8 18  1  0  0  0  0
  8 13  1  0  0  0  0
  9 20  1  0  0  0  0
 10  6  1  0  0  0  0
 12  2  1  0  0  0  0
 12 16  1  0  0  0  0
 13 27  1  1  0  0  0
 14  1  2  0  0  0  0
 15  3  1  0  0  0  0
 16 22  1  0  0  0  0
 17  1  1  0  0  0  0
 18  4  1  1  0  0  0
 19  9  2  0  0  0  0
 20  8  1  0  0  0  0
 22 15  1  0  0  0  0
 23  3  1  1  0  0  0
 23 18  1  0  0  0  0
 23  4  1  0  0  0  0
 24 21  1  1  0  0  0
 24 13  1  0  0  0  0
 24 11  1  0  0  0  0
 27 25  2  0  0  0  0
 27 26  1  0  0  0  0
 28 30  1  0  0  0  0
 30 29  1  0  0  0  0
M  END
>  <MODEL>
6

>  <REMARK>
 VINA RESULT:      -5.9      3.142      4.886
  Name = 
  3 active torsions:
  status: ('A' for Active; 'I' for Inactive)
    1  A    between atoms: C_6  and  C_8
    2  A    between atoms: C_6  and  C_21
    3  A    between atoms: C_15  and  C_26
                            x       y       z     vdW  Elec       q    Type
                         _______ _______ _______ _____ _____    ______ ____

>  <TORSDO>
F 3

$$$$
=
 OpenBabel11052417213D

 30 32  0  0  1  0  0  0  0  0999 V2000
  193.8970  174.0910  138.9940 C   0  0  0  0  0  0  0  0  0  0  0  0
  192.0020  172.9370  137.9100 C   0  0  0  0  0  2  0  0  0  0  0  0
  188.7660  174.4510  141.3890 C   0  0  0  0  0  2  0  0  0  0  0  0
  189.3250  175.6070  143.4920 C   0  0  0  0  0  2  0  0  0  0  0  0
  194.5150  174.5850  140.1860 N   0  0  0  0  0  2  0  0  0  0  0  0
  194.5920  175.1020  142.6810 C   0  0  2  0  0  3  0  0  0  0  0  0
  193.4670  172.7800  141.8510 S   0  0  0  0  0  0  0  0  0  0  0  0
  190.8020  173.8990  144.6020 C   0  0  1  0  0  0  0  0  0  0  0  0
  190.7810  172.5200  144.5980 C   0  0  0  0  0  0  0  0  0  0  0  0
  194.1160  174.2540  141.5250 C   0  0  0  0  0  0  0  0  0  0  0  0
  193.4540  175.4710  143.6310 C   0  0  0  0  0  2  0  0  0  0  0  0
  190.5930  172.5250  138.2850 C   0  0  0  0  0  2  0  0  0  0  0  0
  191.9400  174.4890  145.4420 C   0  0  1  0  0  3  0  0  0  0  0  0
  194.4610  174.2770  137.8820 O   0  0  0  0  0  0  0  0  0  0  0  0
  189.0190  173.2440  140.7330 O   0  0  0  0  0  0  0  0  0  0  0  0
  189.7470  173.7640  138.5130 C   0  0  0  0  0  2  0  0  0  0  0  0
  192.6540  173.4580  139.0590 O   0  0  0  0  0  0  0  0  0  0  0  0
  190.3920  174.5510  143.2650 C   0  0  1  0  0  3  0  0  0  0  0  0
  191.2360  171.4020  144.2420 O   0  0  0  0  0  0  0  0  0  0  0  0
  189.7900  173.3610  145.3520 O   0  0  0  0  0  0  0  0  0  0  0  0
  194.4320  174.5850  145.7610 C   0  0  0  0  0  1  0  0  0  0  0  0
  188.5730  173.4470  139.4240 C   0  0  0  0  0  2  0  0  0  0  0  0
  188.9440  174.2760  142.8830 C   0  0  2  0  0  3  0  0  0  0  0  0
  193.3100  174.4380  144.7460 C   0  0  2  0  0  3  0  0  0  0  0  0
  191.7040  176.8560  145.4240 O   0  0  0  0  0  0  0  0  0  0  0  0
  191.1330  175.8710  147.4750 C   0  0  0  0  0  1  0  0  0  0  0  0
  191.5990  175.8200  146.0620 C   0  0  0  0  0  0  0  0  0  0  0  0
  195.3670  176.3520  142.2520 C   0  0  0  0  0  2  0  0  0  0  0  0
  197.2920  175.3520  143.4500 C   0  0  0  0  0  1  0  0  0  0  0  0
  196.5570  176.6420  143.1560 C   0  0  0  0  0  2  0  0  0  0  0  0
  1 17  1  0  0  0  0
  1  5  1  0  0  0  0
  2 12  1  0  0  0  0
  2 17  1  0  0  0  0
  5 10  1  0  0  0  0
  6 28  1  6  0  0  0
  6 11  1  0  0  0  0
  8  9  1  6  0  0  0
  8 20  1  0  0  0  0
  8 13  1  0  0  0  0
  9 20  1  0  0  0  0
 10  7  2  0  0  0  0
 10  6  1  0  0  0  0
 11 24  1  0  0  0  0
 12 16  1  0  0  0  0
 13 27  1  6  0  0  0
 14  1  2  0  0  0  0
 15  3  1  0  0  0  0
 16 22  1  0  0  0  0
 18  4  1  1  0  0  0
 18  8  1  0  0  0  0
 19  9  2  0  0  0  0
 22 15  1  0  0  0  0
 23  3  1  6  0  0  0
 23 18  1  0  0  0  0
 23  4  1  0  0  0  0
 24 13  1  0  0  0  0
 24 21  1  1  0  0  0
 25 27  2  0  0  0  0
 27 26  1  0  0  0  0
 28 30  1  0  0  0  0
 30 29  1  0  0  0  0
M  END
>  <MODEL>
7

>  <REMARK>
 VINA RESULT:      -5.9      2.905      5.394
  Name = 
  3 active torsions:
  status: ('A' for Active; 'I' for Inactive)
    1  A    between atoms: C_6  and  C_8
    2  A    between atoms: C_6  and  C_21
    3  A    between atoms: C_15  and  C_26
                            x       y       z     vdW  Elec       q    Type
                         _______ _______ _______ _____ _____    ______ ____

>  <TORSDO>
F 3

$$$$
=
 OpenBabel11052417213D

 30 32  0  0  1  0  0  0  0  0999 V2000
  187.3330  176.8150  141.2330 C   0  0  0  0  0  0  0  0  0  0  0  0
  188.0950  177.7250  143.3980 C   0  0  0  0  0  2  0  0  0  0  0  0
  192.7390  176.0230  142.7630 C   0  0  0  0  0  2  0  0  0  0  0  0
  193.5050  174.5210  140.9670 C   0  0  0  0  0  2  0  0  0  0  0  0
  187.4540  175.8290  140.2040 N   0  0  0  0  0  2  0  0  0  0  0  0
  188.5480  173.8260  139.0690 C   0  0  2  0  0  3  0  0  0  0  0  0
  188.3330  173.8530  141.7700 S   0  0  0  0  0  0  0  0  0  0  0  0
  192.0670  172.4990  141.3850 C   0  0  1  0  0  0  0  0  0  0  0  0
  191.5820  171.9370  142.5470 C   0  0  0  0  0  0  0  0  0  0  0  0
  188.1920  174.6030  140.3150 C   0  0  0  0  0  0  0  0  0  0  0  0
  190.0160  173.4000  139.0550 C   0  0  0  0  0  2  0  0  0  0  0  0
  189.2830  177.5450  144.3200 C   0  0  0  0  0  2  0  0  0  0  0  0
  191.6450  171.7430  140.1190 C   0  0  1  0  0  3  0  0  0  0  0  0
  186.4900  177.7430  141.1030 O   0  0  0  0  0  0  0  0  0  0  0  0
  191.8310  176.0450  143.8240 O   0  0  0  0  0  0  0  0  0  0  0  0
  190.5380  178.0500  143.6320 C   0  0  0  0  0  2  0  0  0  0  0  0
  188.1800  176.7790  142.3420 O   0  0  0  0  0  0  0  0  0  0  0  0
  192.1300  174.0410  141.3950 C   0  0  1  0  0  3  0  0  0  0  0  0
  190.6520  171.6850  143.3560 O   0  0  0  0  0  0  0  0  0  0  0  0
  193.0200  171.8460  142.1200 O   0  0  0  0  0  0  0  0  0  0  0  0
  189.6960  170.9340  138.7550 C   0  0  0  0  0  1  0  0  0  0  0  0
  191.7720  177.3840  144.2180 C   0  0  0  0  0  2  0  0  0  0  0  0
  193.1070  174.5940  142.4240 C   0  0  2  0  0  3  0  0  0  0  0  0
  190.1970  172.0230  139.6880 C   0  0  2  0  0  3  0  0  0  0  0  0
  192.6410  172.7470  138.2070 O   0  0  0  0  0  0  0  0  0  0  0  0
  193.6940  170.7620  138.8810 C   0  0  0  0  0  1  0  0  0  0  0  0
  192.6590  171.8250  139.0070 C   0  0  0  0  0  0  0  0  0  0  0  0
  188.1790  174.5440  137.7670 C   0  0  0  0  0  2  0  0  0  0  0  0
  188.8450  175.1530  135.4590 C   0  0  0  0  0  1  0  0  0  0  0  0
  189.1730  174.2720  136.6460 C   0  0  0  0  0  2  0  0  0  0  0  0
  1 17  1  0  0  0  0
  2 12  1  0  0  0  0
  3 15  1  0  0  0  0
  5 10  1  0  0  0  0
  5  1  1  0  0  0  0
  6 28  1  6  0  0  0
  6 10  1  0  0  0  0
  8 18  1  0  0  0  0
  8 20  1  1  0  0  0
  8  9  1  0  0  0  0
  9 19  2  0  0  0  0
 10  7  2  0  0  0  0
 11  6  1  0  0  0  0
 11 24  1  0  0  0  0
 13 27  1  6  0  0  0
 13  8  1  0  0  0  0
 14  1  2  0  0  0  0
 15 22  1  0  0  0  0
 16 22  1  0  0  0  0
 16 12  1  0  0  0  0
 17  2  1  0  0  0  0
 18  4  1  6  0  0  0
 18 23  1  0  0  0  0
 20  9  1  0  0  0  0
 23  4  1  6  0  0  0
 23  3  1  0  0  0  0
 24 21  1  6  0  0  0
 24 13  1  0  0  0  0
 25 27  2  0  0  0  0
 26 27  1  0  0  0  0
 29 30  1  0  0  0  0
 30 28  1  0  0  0  0
M  END
>  <MODEL>
8

>  <REMARK>
 VINA RESULT:      -5.6      2.797      6.345
  Name = 
  3 active torsions:
  status: ('A' for Active; 'I' for Inactive)
    1  A    between atoms: C_6  and  C_8
    2  A    between atoms: C_6  and  C_21
    3  A    between atoms: C_15  and  C_26
                            x       y       z     vdW  Elec       q    Type
                         _______ _______ _______ _____ _____    ______ ____

>  <TORSDO>
F 3

$$$$
=
 OpenBabel11052417213D

 30 32  0  0  1  0  0  0  0  0999 V2000
  190.5500  172.4060  140.8990 C   0  0  0  0  0  0  0  0  0  0  0  0
  188.2200  173.2200  140.8900 C   0  0  0  0  0  2  0  0  0  0  0  0
  189.4240  177.4510  143.2360 C   0  0  0  0  0  2  0  0  0  0  0  0
  191.6140  177.9930  144.2280 C   0  0  0  0  0  2  0  0  0  0  0  0
  191.8400  172.3800  141.5170 N   0  0  0  0  0  2  0  0  0  0  0  0
  193.5660  173.1060  143.2470 C   0  0  2  0  0  3  0  0  0  0  0  0
  190.9920  172.7570  144.0200 S   0  0  0  0  0  0  0  0  0  0  0  0
  191.8370  176.1560  145.9330 C   0  0  1  0  0  0  0  0  0  0  0  0
  190.9060  175.5070  146.7150 C   0  0  0  0  0  0  0  0  0  0  0  0
  192.1340  172.8490  142.8420 C   0  0  0  0  0  0  0  0  0  0  0  0
  193.7340  174.4560  143.9430 C   0  0  0  0  0  2  0  0  0  0  0  0
  187.4180  174.2970  141.5920 C   0  0  0  0  0  2  0  0  0  0  0  0
  193.2710  175.6580  146.1500 C   0  0  1  0  0  3  0  0  0  0  0  0
  190.3680  171.7760  139.8220 O   0  0  0  0  0  0  0  0  0  0  0  0
  188.3990  176.5110  143.3590 O   0  0  0  0  0  0  0  0  0  0  0  0
  187.9280  175.6630  141.1710 C   0  0  0  0  0  2  0  0  0  0  0  0
  189.5210  173.1680  141.4540 O   0  0  0  0  0  0  0  0  0  0  0  0
  191.3400  176.5280  144.5200 C   0  0  1  0  0  3  0  0  0  0  0  0
  190.2060  174.5030  147.0080 O   0  0  0  0  0  0  0  0  0  0  0  0
  191.3590  176.9180  146.9660 O   0  0  0  0  0  0  0  0  0  0  0  0
  194.7950  173.6610  146.0680 C   0  0  0  0  0  1  0  0  0  0  0  0
  187.6000  176.7030  142.2280 C   0  0  0  0  0  2  0  0  0  0  0  0
  190.2030  177.5410  144.5330 C   0  0  2  0  0  3  0  0  0  0  0  0
  193.5710  174.3210  145.4540 C   0  0  2  0  0  3  0  0  0  0  0  0
  194.5660  177.5400  146.8130 O   0  0  0  0  0  0  0  0  0  0  0  0
  195.0420  176.7900  144.6420 C   0  0  0  0  0  1  0  0  0  0  0  0
  194.3140  176.7250  145.9380 C   0  0  0  0  0  0  0  0  0  0  0  0
  194.5680  172.9600  142.0980 C   0  0  0  0  0  2  0  0  0  0  0  0
  196.9490  173.6460  142.1380 C   0  0  0  0  0  1  0  0  0  0  0  0
  195.5250  174.1410  142.0000 C   0  0  0  0  0  2  0  0  0  0  0  0
  1 17  1  0  0  0  0
  1  5  1  0  0  0  0
  2 17  1  0  0  0  0
  2 12  1  0  0  0  0
  3 15  1  0  0  0  0
  4 23  1  0  0  0  0
  5 10  1  0  0  0  0
  6 28  1  6  0  0  0
  6 11  1  0  0  0  0
  8 13  1  0  0  0  0
  8  9  1  1  0  0  0
  8 20  1  0  0  0  0
  9 20  1  0  0  0  0
  9 19  2  0  0  0  0
 10  6  1  0  0  0  0
 10  7  2  0  0  0  0
 11 24  1  0  0  0  0
 13 27  1  6  0  0  0
 14  1  2  0  0  0  0
 16 12  1  0  0  0  0
 16 22  1  0  0  0  0
 18  4  1  6  0  0  0
 18 23  1  0  0  0  0
 18  8  1  0  0  0  0
 22 15  1  0  0  0  0
 23  3  1  6  0  0  0
 24 21  1  1  0  0  0
 24 13  1  0  0  0  0
 26 27  1  0  0  0  0
 27 25  2  0  0  0  0
 30 28  1  0  0  0  0
 30 29  1  0  0  0  0
M  END
>  <MODEL>
9

>  <REMARK>
 VINA RESULT:      -5.6      2.433      5.130
  Name = 
  3 active torsions:
  status: ('A' for Active; 'I' for Inactive)
    1  A    between atoms: C_6  and  C_8
    2  A    between atoms: C_6  and  C_21
    3  A    between atoms: C_15  and  C_26
                            x       y       z     vdW  Elec       q    Type
                         _______ _______ _______ _____ _____    ______ ____

>  <TORSDO>
F 3

$$$$
