=
 OpenBabel11052420313D

 34 39  0  0  1  0  0  0  0  0999 V2000
  191.0070  174.9050  144.1360 C   0  0  0  0  0  0  0  0  0  0  0  0
  190.6340  176.7080  146.2610 C   0  0  0  0  0  3  0  0  0  0  0  0
  189.7420  175.4310  144.4130 C   0  0  0  0  0  3  0  0  0  0  0  0
  191.9060  176.1970  146.0050 C   0  0  0  0  0  0  0  0  0  0  0  0
  194.2600  176.0830  146.5630 C   0  0  0  0  0  3  0  0  0  0  0  0
  192.9810  176.5880  146.8080 C   0  0  0  0  0  3  0  0  0  0  0  0
  189.5390  176.3320  145.4700 C   0  0  0  0  0  0  0  0  0  0  0  0
  193.4000  174.7910  144.7050 C   0  0  0  0  0  3  0  0  0  0  0  0
  192.1070  175.2880  144.9380 C   0  0  0  0  0  0  0  0  0  0  0  0
  194.4690  175.1860  145.5130 C   0  0  0  0  0  3  0  0  0  0  0  0
  186.5250  177.7060  147.3120 C   0  0  0  0  0  3  0  0  0  0  0  0
  187.2830  177.1040  144.6970 C   0  0  0  0  0  3  0  0  0  0  0  0
  184.2950  178.5170  146.5890 C   0  0  0  0  0  1  0  0  0  0  0  0
  185.6270  177.9290  146.2660 C   0  0  0  0  0  0  0  0  0  0  0  0
  185.9970  177.6090  144.9430 C   0  0  0  0  0  0  0  0  0  0  0  0
  188.1880  176.8790  145.7440 C   0  0  0  0  0  0  0  0  0  0  0  0
  187.7930  177.1820  147.0550 C   0  0  0  0  0  3  0  0  0  0  0  0
  185.5770  177.2020  142.5690 N   0  0  2  0  0  0  0  0  0  0  0  0
  185.4280  178.1250  141.4280 C   0  0  2  0  0  3  0  0  0  0  0  0
  185.0740  177.8740  143.7840 C   0  0  2  0  0  3  0  0  0  0  0  0
  185.7290  178.6710  142.7450 C   0  0  1  0  0  3  0  0  0  0  0  0
  183.9580  178.3090  141.0810 C   0  0  0  0  0  2  0  0  0  0  0  0
  183.6930  177.7160  139.8470 O   0  0  0  0  0  1  0  0  0  0  0  0
  189.8640  173.0630  142.8000 C   0  0  2  0  0  3  0  0  0  0  0  0
  190.0300  172.1990  141.7020 O   0  0  0  0  0  0  0  0  0  0  0  0
  190.0290  172.9990  140.5440 C   0  0  1  0  0  3  0  0  0  0  0  0
  191.3350  173.7860  140.4710 C   0  0  0  0  0  2  0  0  0  0  0  0
  191.4200  174.7110  141.6800 C   0  0  0  0  0  2  0  0  0  0  0  0
  191.1160  173.9510  142.9740 C   0  0  1  0  0  3  0  0  0  0  0  0
  189.4370  171.6200  144.9510 N   0  0  0  0  0  0  0  0  0  0  0  0
  189.6250  172.2570  144.0030 C   0  0  0  0  0  0  0  0  0  0  0  0
  189.9110  172.1850  139.4160 O   0  0  0  0  0  0  0  0  0  0  0  0
  188.5840  172.3310  139.0110 C   0  0  0  0  0  2  0  0  0  0  0  0
  188.3270  173.7740  138.6330 C   0  0  0  0  0  1  0  0  0  0  0  0
  1  3  2  0  0  0  0
  1  9  1  0  0  0  0
  3  7  1  0  0  0  0
  4  2  1  0  0  0  0
  4  6  1  0  0  0  0
  5  6  2  0  0  0  0
  7 16  1  0  0  0  0
  7  2  2  0  0  0  0
  8  9  1  0  0  0  0
  8 10  2  0  0  0  0
  9  4  2  0  0  0  0
 10  5  1  0  0  0  0
 12 15  2  0  0  0  0
 12 16  1  0  0  0  0
 14 13  1  0  0  0  0
 14 11  2  0  0  0  0
 15 14  1  0  0  0  0
 16 17  2  0  0  0  0
 17 11  1  0  0  0  0
 18 21  1  0  0  0  0
 18 20  1  0  0  0  0
 19 18  1  0  0  0  0
 19 21  1  0  0  0  0
 20 15  1  0  0  0  0
 21 20  1  0  0  0  0
 22 19  1  0  0  0  0
 23 22  1  0  0  0  0
 24 29  1  0  0  0  0
 24 31  1  0  0  0  0
 25 24  1  0  0  0  0
 26 25  1  0  0  0  0
 27 26  1  0  0  0  0
 27 28  1  0  0  0  0
 28 29  1  0  0  0  0
 29  1  1  0  0  0  0
 31 30  3  0  0  0  0
 32 26  1  0  0  0  0
 33 32  1  0  0  0  0
 34 33  1  0  0  0  0
M  END
>  <MODEL>
1

>  <REMARK>
 VINA RESULT:      -8.0      0.000      0.000
  Name = 
  7 active torsions:
  status: ('A' for Active; 'I' for Inactive)
    1  A    between atoms: C_1  and  C_34
    2  A    between atoms: C_2  and  C_32
    3  A    between atoms: O_3  and  C_13
    4  A    between atoms: O_3  and  C_25
    5  A    between atoms: C_11  and  C_15
    6  A    between atoms: C_18  and  C_30
    7  A    between atoms: C_26  and  C_28
                            x       y       z     vdW  Elec       q    Type
                         _______ _______ _______ _____ _____    ______ ____

>  <TORSDO>
F 7

$$$$
=
 OpenBabel11052420313D

 34 39  0  0  1  0  0  0  0  0999 V2000
  188.8210  176.9830  144.6620 C   0  0  0  0  0  0  0  0  0  0  0  0
  186.2900  177.1650  143.4520 C   0  0  0  0  0  3  0  0  0  0  0  0
  188.6640  176.7390  143.2940 C   0  0  0  0  0  3  0  0  0  0  0  0
  186.4200  177.4120  144.8180 C   0  0  0  0  0  0  0  0  0  0  0  0
  185.4090  177.9990  146.9380 C   0  0  0  0  0  3  0  0  0  0  0  0
  185.2910  177.7480  145.5690 C   0  0  0  0  0  3  0  0  0  0  0  0
  187.4070  176.8250  142.6750 C   0  0  0  0  0  0  0  0  0  0  0  0
  187.7900  177.5780  146.8170 C   0  0  0  0  0  3  0  0  0  0  0  0
  187.6900  177.3240  145.4390 C   0  0  0  0  0  0  0  0  0  0  0  0
  186.6560  177.9130  147.5620 C   0  0  0  0  0  3  0  0  0  0  0  0
  186.4030  177.2000  139.0400 C   0  0  0  0  0  3  0  0  0  0  0  0
  187.8600  175.4380  140.6370 C   0  0  0  0  0  3  0  0  0  0  0  0
  186.8580  175.8790  136.9890 C   0  0  0  0  0  1  0  0  0  0  0  0
  186.9990  176.0760  138.4600 C   0  0  0  0  0  0  0  0  0  0  0  0
  187.7210  175.1710  139.2660 C   0  0  0  0  0  0  0  0  0  0  0  0
  187.2630  176.5650  141.2220 C   0  0  0  0  0  0  0  0  0  0  0  0
  186.5310  177.4410  140.4080 C   0  0  0  0  0  3  0  0  0  0  0  0
  188.2210  172.7940  139.5420 N   0  0  2  0  0  0  0  0  0  0  0  0
  189.5000  172.0650  139.6330 C   0  0  2  0  0  3  0  0  0  0  0  0
  188.4120  173.9730  138.6740 C   0  0  2  0  0  3  0  0  0  0  0  0
  189.5190  173.5180  139.5170 C   0  0  1  0  0  3  0  0  0  0  0  0
  189.8310  171.4060  138.3020 C   0  0  0  0  0  2  0  0  0  0  0  0
  189.7810  170.0200  138.4440 O   0  0  0  0  0  1  0  0  0  0  0  0
  190.6370  175.4100  145.5060 C   0  0  2  0  0  3  0  0  0  0  0  0
  191.9440  175.3740  146.0280 O   0  0  0  0  0  0  0  0  0  0  0  0
  192.8110  175.7740  144.9940 C   0  0  1  0  0  3  0  0  0  0  0  0
  192.6540  177.2730  144.7520 C   0  0  0  0  0  2  0  0  0  0  0  0
  191.2260  177.5520  144.2990 C   0  0  0  0  0  2  0  0  0  0  0  0
  190.2150  176.8690  145.2250 C   0  0  1  0  0  3  0  0  0  0  0  0
  189.0090  174.2840  147.2310 N   0  0  0  0  0  0  0  0  0  0  0  0
  189.7270  174.7800  146.4700 C   0  0  0  0  0  0  0  0  0  0  0  0
  194.1290  175.4950  145.3580 O   0  0  0  0  0  0  0  0  0  0  0  0
  194.8850  176.4970  144.7500 C   0  0  0  0  0  2  0  0  0  0  0  0
  196.0100  175.8690  143.9550 C   0  0  0  0  0  1  0  0  0  0  0  0
  1 29  1  0  0  0  0
  1  9  1  0  0  0  0
  2  4  1  0  0  0  0
  3  1  2  0  0  0  0
  4  9  2  0  0  0  0
  4  6  1  0  0  0  0
  5 10  1  0  0  0  0
  6  5  2  0  0  0  0
  7  3  1  0  0  0  0
  7  2  2  0  0  0  0
  8 10  2  0  0  0  0
  9  8  1  0  0  0  0
 11 17  1  0  0  0  0
 12 16  1  0  0  0  0
 13 14  1  0  0  0  0
 14 11  2  0  0  0  0
 14 15  1  0  0  0  0
 15 12  2  0  0  0  0
 16  7  1  0  0  0  0
 17 16  2  0  0  0  0
 18 19  1  0  0  0  0
 20 15  1  0  0  0  0
 20 21  1  0  0  0  0
 20 18  1  0  0  0  0
 21 18  1  0  0  0  0
 21 19  1  0  0  0  0
 22 23  1  0  0  0  0
 22 19  1  0  0  0  0
 24 25  1  0  0  0  0
 24 31  1  0  0  0  0
 26 32  1  0  0  0  0
 26 25  1  0  0  0  0
 27 26  1  0  0  0  0
 28 27  1  0  0  0  0
 28 29  1  0  0  0  0
 29 24  1  0  0  0  0
 31 30  3  0  0  0  0
 33 32  1  0  0  0  0
 34 33  1  0  0  0  0
M  END
>  <MODEL>
2

>  <REMARK>
 VINA RESULT:      -7.5      2.750      6.723
  Name = 
  7 active torsions:
  status: ('A' for Active; 'I' for Inactive)
    1  A    between atoms: C_1  and  C_34
    2  A    between atoms: C_2  and  C_32
    3  A    between atoms: O_3  and  C_13
    4  A    between atoms: O_3  and  C_25
    5  A    between atoms: C_11  and  C_15
    6  A    between atoms: C_18  and  C_30
    7  A    between atoms: C_26  and  C_28
                            x       y       z     vdW  Elec       q    Type
                         _______ _______ _______ _____ _____    ______ ____

>  <TORSDO>
F 7

$$$$
=
 OpenBabel11052420313D

 34 39  0  0  1  0  0  0  0  0999 V2000
  189.0280  175.3730  144.0040 C   0  0  0  0  0  0  0  0  0  0  0  0
  190.4450  176.2700  146.2600 C   0  0  0  0  0  3  0  0  0  0  0  0
  190.3790  175.0550  144.1720 C   0  0  0  0  0  3  0  0  0  0  0  0
  189.0990  176.6000  146.1160 C   0  0  0  0  0  0  0  0  0  0  0  0
  187.1200  177.7110  146.9630 C   0  0  0  0  0  3  0  0  0  0  0  0
  188.4690  177.3730  147.0950 C   0  0  0  0  0  3  0  0  0  0  0  0
  191.1010  175.4950  145.2920 C   0  0  0  0  0  0  0  0  0  0  0  0
  187.0180  176.5040  144.8670 C   0  0  0  0  0  3  0  0  0  0  0  0
  188.3730  176.1550  144.9840 C   0  0  0  0  0  0  0  0  0  0  0  0
  186.3950  177.2770  145.8500 C   0  0  0  0  0  3  0  0  0  0  0  0
  194.7770  175.7210  146.1840 C   0  0  0  0  0  3  0  0  0  0  0  0
  193.0140  173.8970  145.0270 C   0  0  0  0  0  3  0  0  0  0  0  0
  196.6920  174.1570  145.9780 C   0  0  0  0  0  1  0  0  0  0  0  0
  195.2520  174.4770  145.7620 C   0  0  0  0  0  0  0  0  0  0  0  0
  194.3690  173.5570  145.1590 C   0  0  0  0  0  0  0  0  0  0  0  0
  192.5330  175.1450  145.4500 C   0  0  0  0  0  0  0  0  0  0  0  0
  193.4310  176.0550  146.0270 C   0  0  0  0  0  3  0  0  0  0  0  0
  193.6740  171.2870  144.5720 N   0  0  2  0  0  0  0  0  0  0  0  0
  194.0210  169.9760  145.1510 C   0  0  2  0  0  3  0  0  0  0  0  0
  194.8320  172.1900  144.7300 C   0  0  2  0  0  3  0  0  0  0  0  0
  194.5650  171.1840  145.7590 C   0  0  1  0  0  3  0  0  0  0  0  0
  195.0650  169.2760  144.2940 C   0  0  0  0  0  2  0  0  0  0  0  0
  194.4640  168.2370  143.5840 O   0  0  0  0  0  1  0  0  0  0  0  0
  188.6910  175.6490  141.4950 C   0  0  2  0  0  3  0  0  0  0  0  0
  188.0240  175.1050  140.3810 O   0  0  0  0  0  0  0  0  0  0  0  0
  188.5930  173.8420  140.1360 C   0  0  1  0  0  3  0  0  0  0  0  0
  188.1490  172.8670  141.2230 C   0  0  0  0  0  2  0  0  0  0  0  0
  188.6660  173.3600  142.5690 C   0  0  0  0  0  2  0  0  0  0  0  0
  188.3460  174.8450  142.7680 C   0  0  1  0  0  3  0  0  0  0  0  0
  187.9820  178.1630  141.7580 N   0  0  0  0  0  0  0  0  0  0  0  0
  188.2950  177.0550  141.6420 C   0  0  0  0  0  0  0  0  0  0  0  0
  188.1730  173.3760  138.8900 O   0  0  0  0  0  0  0  0  0  0  0  0
  189.0740  173.9310  137.9810 C   0  0  0  0  0  2  0  0  0  0  0  0
  190.4680  173.4220  138.2770 C   0  0  0  0  0  1  0  0  0  0  0  0
  1  3  2  0  0  0  0
  1  9  1  0  0  0  0
  3  7  1  0  0  0  0
  4  2  1  0  0  0  0
  4  6  1  0  0  0  0
  5  6  2  0  0  0  0
  7 16  1  0  0  0  0
  7  2  2  0  0  0  0
  8  9  1  0  0  0  0
  8 10  2  0  0  0  0
  9  4  2  0  0  0  0
 10  5  1  0  0  0  0
 12 15  2  0  0  0  0
 12 16  1  0  0  0  0
 14 13  1  0  0  0  0
 14 11  2  0  0  0  0
 15 14  1  0  0  0  0
 16 17  2  0  0  0  0
 17 11  1  0  0  0  0
 18 20  1  0  0  0  0
 18 19  1  0  0  0  0
 18 21  1  0  0  0  0
 19 21  1  0  0  0  0
 20 15  1  0  0  0  0
 20 21  1  0  0  0  0
 22 19  1  0  0  0  0
 23 22  1  0  0  0  0
 24 31  1  0  0  0  0
 24 29  1  0  0  0  0
 25 24  1  0  0  0  0
 26 25  1  0  0  0  0
 26 27  1  0  0  0  0
 27 28  1  0  0  0  0
 28 29  1  0  0  0  0
 29  1  1  0  0  0  0
 31 30  3  0  0  0  0
 32 26  1  0  0  0  0
 33 34  1  0  0  0  0
 33 32  1  0  0  0  0
M  END
>  <MODEL>
3

>  <REMARK>
 VINA RESULT:      -7.3      2.544      7.432
  Name = 
  7 active torsions:
  status: ('A' for Active; 'I' for Inactive)
    1  A    between atoms: C_1  and  C_34
    2  A    between atoms: C_2  and  C_32
    3  A    between atoms: O_3  and  C_13
    4  A    between atoms: O_3  and  C_25
    5  A    between atoms: C_11  and  C_15
    6  A    between atoms: C_18  and  C_30
    7  A    between atoms: C_26  and  C_28
                            x       y       z     vdW  Elec       q    Type
                         _______ _______ _______ _____ _____    ______ ____

>  <TORSDO>
F 7

$$$$
=
 OpenBabel11052420313D

 34 39  0  0  1  0  0  0  0  0999 V2000
  189.5240  175.9570  143.9810 C   0  0  0  0  0  0  0  0  0  0  0  0
  187.4730  175.1900  142.2170 C   0  0  0  0  0  3  0  0  0  0  0  0
  189.7560  174.9990  142.9890 C   0  0  0  0  0  3  0  0  0  0  0  0
  187.2170  176.1470  143.1990 C   0  0  0  0  0  0  0  0  0  0  0  0
  185.6740  177.6750  144.2720 C   0  0  0  0  0  3  0  0  0  0  0  0
  185.9440  176.7150  143.2930 C   0  0  0  0  0  3  0  0  0  0  0  0
  188.7430  174.6050  142.1010 C   0  0  0  0  0  0  0  0  0  0  0  0
  187.9530  177.5080  145.0710 C   0  0  0  0  0  3  0  0  0  0  0  0
  188.2420  176.5420  144.0930 C   0  0  0  0  0  0  0  0  0  0  0  0
  186.6780  178.0710  145.1600 C   0  0  0  0  0  3  0  0  0  0  0  0
  188.5880  172.6770  138.8420 C   0  0  0  0  0  3  0  0  0  0  0  0
  189.9520  172.5720  141.2720 C   0  0  0  0  0  3  0  0  0  0  0  0
  189.7880  170.6910  137.9650 C   0  0  0  0  0  1  0  0  0  0  0  0
  189.5270  171.6660  139.0630 C   0  0  0  0  0  0  0  0  0  0  0  0
  190.2060  171.5960  140.2970 C   0  0  0  0  0  0  0  0  0  0  0  0
  189.0110  173.5890  141.0550 C   0  0  0  0  0  0  0  0  0  0  0  0
  188.3290  173.6280  139.8300 C   0  0  0  0  0  3  0  0  0  0  0  0
  190.8450  169.6870  141.6850 N   0  0  2  0  0  0  0  0  0  0  0  0
  192.0190  169.4500  142.5450 C   0  0  2  0  0  3  0  0  0  0  0  0
  191.2550  170.5480  140.5570 C   0  0  2  0  0  3  0  0  0  0  0  0
  191.8870  170.7320  141.8650 C   0  0  1  0  0  3  0  0  0  0  0  0
  193.0250  168.5550  141.8360 C   0  0  0  0  0  2  0  0  0  0  0  0
  194.0170  168.1660  142.7350 O   0  0  0  0  0  1  0  0  0  0  0  0
  191.0650  175.1750  145.8520 C   0  0  2  0  0  3  0  0  0  0  0  0
  192.1500  175.5700  146.6570 O   0  0  0  0  0  0  0  0  0  0  0  0
  193.2720  175.6720  145.8140 C   0  0  1  0  0  3  0  0  0  0  0  0
  193.1280  176.9060  144.9270 C   0  0  0  0  0  2  0  0  0  0  0  0
  191.8960  176.7370  144.0460 C   0  0  0  0  0  2  0  0  0  0  0  0
  190.6830  176.3110  144.8780 C   0  0  1  0  0  3  0  0  0  0  0  0
  189.0410  174.5580  147.4050 N   0  0  0  0  0  0  0  0  0  0  0  0
  189.9330  174.8300  146.7200 C   0  0  0  0  0  0  0  0  0  0  0  0
  194.4270  175.7870  146.5900 O   0  0  0  0  0  0  0  0  0  0  0  0
  195.3960  175.0650  145.8920 C   0  0  0  0  0  2  0  0  0  0  0  0
  194.8300  173.7220  145.4850 C   0  0  0  0  0  1  0  0  0  0  0  0
  1  9  1  0  0  0  0
  1 29  1  0  0  0  0
  2  4  1  0  0  0  0
  3  1  2  0  0  0  0
  4  6  2  0  0  0  0
  4  9  1  0  0  0  0
  5 10  2  0  0  0  0
  6  5  1  0  0  0  0
  7  2  2  0  0  0  0
  7  3  1  0  0  0  0
  8 10  1  0  0  0  0
  9  8  2  0  0  0  0
 11 14  2  0  0  0  0
 11 17  1  0  0  0  0
 13 14  1  0  0  0  0
 14 15  1  0  0  0  0
 15 20  1  0  0  0  0
 15 12  2  0  0  0  0
 16 12  1  0  0  0  0
 16  7  1  0  0  0  0
 17 16  2  0  0  0  0
 18 21  1  0  0  0  0
 18 19  1  0  0  0  0
 20 18  1  0  0  0  0
 20 21  1  0  0  0  0
 21 19  1  0  0  0  0
 22 19  1  0  0  0  0
 22 23  1  0  0  0  0
 24 25  1  0  0  0  0
 24 31  1  0  0  0  0
 26 32  1  0  0  0  0
 26 25  1  0  0  0  0
 27 26  1  0  0  0  0
 28 29  1  0  0  0  0
 28 27  1  0  0  0  0
 29 24  1  0  0  0  0
 31 30  3  0  0  0  0
 33 32  1  0  0  0  0
 34 33  1  0  0  0  0
M  END
>  <MODEL>
4

>  <REMARK>
 VINA RESULT:      -7.2      3.165      8.013
  Name = 
  7 active torsions:
  status: ('A' for Active; 'I' for Inactive)
    1  A    between atoms: C_1  and  C_34
    2  A    between atoms: C_2  and  C_32
    3  A    between atoms: O_3  and  C_13
    4  A    between atoms: O_3  and  C_25
    5  A    between atoms: C_11  and  C_15
    6  A    between atoms: C_18  and  C_30
    7  A    between atoms: C_26  and  C_28
                            x       y       z     vdW  Elec       q    Type
                         _______ _______ _______ _____ _____    ______ ____

>  <TORSDO>
F 7

$$$$
=
 OpenBabel11052420313D

 34 39  0  0  1  0  0  0  0  0999 V2000
  188.8060  176.3300  145.0830 C   0  0  0  0  0  0  0  0  0  0  0  0
  190.9380  174.5410  145.4800 C   0  0  0  0  0  3  0  0  0  0  0  0
  189.0100  175.2560  144.2110 C   0  0  0  0  0  3  0  0  0  0  0  0
  190.7570  175.6050  146.3630 C   0  0  0  0  0  0  0  0  0  0  0  0
  191.4660  176.8300  148.3280 C   0  0  0  0  0  3  0  0  0  0  0  0
  191.6370  175.7690  147.4360 C   0  0  0  0  0  3  0  0  0  0  0  0
  190.0690  174.3550  144.3950 C   0  0  0  0  0  0  0  0  0  0  0  0
  189.5300  177.5750  147.0800 C   0  0  0  0  0  3  0  0  0  0  0  0
  189.6870  176.5130  146.1740 C   0  0  0  0  0  0  0  0  0  0  0  0
  190.4140  177.7320  148.1500 C   0  0  0  0  0  3  0  0  0  0  0  0
  190.8830  170.9060  143.0500 C   0  0  0  0  0  3  0  0  0  0  0  0
  190.0110  173.3750  142.0890 C   0  0  0  0  0  3  0  0  0  0  0  0
  190.8030  169.8830  140.7910 C   0  0  0  0  0  1  0  0  0  0  0  0
  190.6280  171.0640  141.6850 C   0  0  0  0  0  0  0  0  0  0  0  0
  190.2050  172.3150  141.1900 C   0  0  0  0  0  0  0  0  0  0  0  0
  190.2650  173.2210  143.4600 C   0  0  0  0  0  0  0  0  0  0  0  0
  190.7070  171.9750  143.9290 C   0  0  0  0  0  3  0  0  0  0  0  0
  189.4750  173.9130  139.4890 N   0  0  2  0  0  0  0  0  0  0  0  0
  188.3150  173.9130  138.5780 C   0  0  2  0  0  3  0  0  0  0  0  0
  189.8790  172.5130  139.7340 C   0  0  2  0  0  3  0  0  0  0  0  0
  188.4620  172.8250  139.5360 C   0  0  1  0  0  3  0  0  0  0  0  0
  188.7350  173.4740  137.1830 C   0  0  0  0  0  2  0  0  0  0  0  0
  188.7460  174.5780  136.3310 O   0  0  0  0  0  1  0  0  0  0  0  0
  187.3120  177.3510  143.2910 C   0  0  2  0  0  3  0  0  0  0  0  0
  186.2120  178.2070  143.0940 O   0  0  0  0  0  0  0  0  0  0  0  0
  185.0830  177.5550  143.6230 C   0  0  1  0  0  3  0  0  0  0  0  0
  185.1630  177.5600  145.1480 C   0  0  0  0  0  2  0  0  0  0  0  0
  186.3990  176.7790  145.5780 C   0  0  0  0  0  2  0  0  0  0  0  0
  187.6350  177.2350  144.7970 C   0  0  1  0  0  3  0  0  0  0  0  0
  189.3680  178.3030  141.9660 N   0  0  0  0  0  0  0  0  0  0  0  0
  188.4620  177.8830  142.5500 C   0  0  0  0  0  0  0  0  0  0  0  0
  183.9270  178.2210  143.2150 O   0  0  0  0  0  0  0  0  0  0  0  0
  183.9680  178.1800  141.8200 C   0  0  0  0  0  2  0  0  0  0  0  0
  182.5560  178.1800  141.2740 C   0  0  0  0  0  1  0  0  0  0  0  0
  1  9  1  0  0  0  0
  2  4  1  0  0  0  0
  3  7  1  0  0  0  0
  3  1  2  0  0  0  0
  4  6  1  0  0  0  0
  6  5  2  0  0  0  0
  7  2  2  0  0  0  0
  8 10  2  0  0  0  0
  9  4  2  0  0  0  0
  9  8  1  0  0  0  0
 10  5  1  0  0  0  0
 11 17  1  0  0  0  0
 12 16  1  0  0  0  0
 13 14  1  0  0  0  0
 14 11  2  0  0  0  0
 15 14  1  0  0  0  0
 15 12  2  0  0  0  0
 16 17  2  0  0  0  0
 16  7  1  0  0  0  0
 18 21  1  0  0  0  0
 18 20  1  0  0  0  0
 19 18  1  0  0  0  0
 19 21  1  0  0  0  0
 20 15  1  0  0  0  0
 21 20  1  0  0  0  0
 22 19  1  0  0  0  0
 23 22  1  0  0  0  0
 24 29  1  0  0  0  0
 25 24  1  0  0  0  0
 25 26  1  0  0  0  0
 26 27  1  0  0  0  0
 27 28  1  0  0  0  0
 29  1  1  0  0  0  0
 29 28  1  0  0  0  0
 30 31  3  0  0  0  0
 31 24  1  0  0  0  0
 32 26  1  0  0  0  0
 33 32  1  0  0  0  0
 34 33  1  0  0  0  0
M  END
>  <MODEL>
5

>  <REMARK>
 VINA RESULT:      -7.2      2.331      6.555
  Name = 
  7 active torsions:
  status: ('A' for Active; 'I' for Inactive)
    1  A    between atoms: C_1  and  C_34
    2  A    between atoms: C_2  and  C_32
    3  A    between atoms: O_3  and  C_13
    4  A    between atoms: O_3  and  C_25
    5  A    between atoms: C_11  and  C_15
    6  A    between atoms: C_18  and  C_30
    7  A    between atoms: C_26  and  C_28
                            x       y       z     vdW  Elec       q    Type
                         _______ _______ _______ _____ _____    ______ ____

>  <TORSDO>
F 7

$$$$
=
 OpenBabel11052420313D

 34 39  0  0  1  0  0  0  0  0999 V2000
  190.6270  174.1490  144.6170 C   0  0  0  0  0  0  0  0  0  0  0  0
  190.3800  176.4270  146.2450 C   0  0  0  0  0  3  0  0  0  0  0  0
  189.3790  174.7440  144.8290 C   0  0  0  0  0  3  0  0  0  0  0  0
  191.6350  175.8520  146.0500 C   0  0  0  0  0  0  0  0  0  0  0  0
  194.0190  175.8490  146.4770 C   0  0  0  0  0  3  0  0  0  0  0  0
  192.7560  176.4160  146.6650 C   0  0  0  0  0  3  0  0  0  0  0  0
  189.2390  175.8810  145.6390 C   0  0  0  0  0  0  0  0  0  0  0  0
  193.0500  174.1470  145.0540 C   0  0  0  0  0  3  0  0  0  0  0  0
  191.7730  174.7040  145.2320 C   0  0  0  0  0  0  0  0  0  0  0  0
  194.1660  174.7160  145.6730 C   0  0  0  0  0  3  0  0  0  0  0  0
  186.1350  177.2370  147.3390 C   0  0  0  0  0  3  0  0  0  0  0  0
  187.1450  176.9390  144.7570 C   0  0  0  0  0  3  0  0  0  0  0  0
  184.0640  178.3250  146.5140 C   0  0  0  0  0  1  0  0  0  0  0  0
  185.3800  177.6770  146.2490 C   0  0  0  0  0  0  0  0  0  0  0  0
  185.8770  177.5120  144.9390 C   0  0  0  0  0  0  0  0  0  0  0  0
  187.9070  176.4970  145.8490 C   0  0  0  0  0  0  0  0  0  0  0  0
  187.3860  176.6490  147.1420 C   0  0  0  0  0  3  0  0  0  0  0  0
  185.3980  177.1620  142.5670 N   0  0  2  0  0  0  0  0  0  0  0  0
  185.5790  178.0330  141.3920 C   0  0  2  0  0  3  0  0  0  0  0  0
  185.1130  178.0100  143.7420 C   0  0  2  0  0  3  0  0  0  0  0  0
  186.0120  178.5090  142.6990 C   0  0  1  0  0  3  0  0  0  0  0  0
  184.2550  178.6660  140.9900 C   0  0  0  0  0  2  0  0  0  0  0  0
  183.5890  177.8250  140.0980 O   0  0  0  0  0  1  0  0  0  0  0  0
  190.9830  173.2750  142.2520 C   0  0  2  0  0  3  0  0  0  0  0  0
  191.0060  172.1020  141.4750 O   0  0  0  0  0  0  0  0  0  0  0  0
  192.1260  171.3560  141.8880 C   0  0  1  0  0  3  0  0  0  0  0  0
  191.8590  170.7640  143.2700 C   0  0  0  0  0  2  0  0  0  0  0  0
  191.6630  171.9030  144.2630 C   0  0  0  0  0  2  0  0  0  0  0  0
  190.6670  172.9350  143.7240 C   0  0  1  0  0  3  0  0  0  0  0  0
  189.1800  174.9070  141.2630 N   0  0  0  0  0  0  0  0  0  0  0  0
  189.9750  174.1870  141.6990 C   0  0  0  0  0  0  0  0  0  0  0  0
  192.3610  170.3260  140.9760 O   0  0  0  0  0  0  0  0  0  0  0  0
  191.1750  170.2190  140.2490 C   0  0  0  0  0  2  0  0  0  0  0  0
  190.8180  168.7570  140.0780 C   0  0  0  0  0  1  0  0  0  0  0  0
  1  3  2  0  0  0  0
  1  9  1  0  0  0  0
  3  7  1  0  0  0  0
  4  2  1  0  0  0  0
  4  6  1  0  0  0  0
  5  6  2  0  0  0  0
  7 16  1  0  0  0  0
  7  2  2  0  0  0  0
  8  9  1  0  0  0  0
  8 10  2  0  0  0  0
  9  4  2  0  0  0  0
 10  5  1  0  0  0  0
 12 15  2  0  0  0  0
 12 16  1  0  0  0  0
 14 13  1  0  0  0  0
 14 11  2  0  0  0  0
 15 14  1  0  0  0  0
 16 17  2  0  0  0  0
 17 11  1  0  0  0  0
 18 21  1  0  0  0  0
 18 20  1  0  0  0  0
 19 18  1  0  0  0  0
 19 21  1  0  0  0  0
 20 15  1  0  0  0  0
 21 20  1  0  0  0  0
 22 19  1  0  0  0  0
 23 22  1  0  0  0  0
 24 29  1  0  0  0  0
 25 26  1  0  0  0  0
 25 24  1  0  0  0  0
 26 27  1  0  0  0  0
 27 28  1  0  0  0  0
 29 28  1  0  0  0  0
 29  1  1  0  0  0  0
 30 31  3  0  0  0  0
 31 24  1  0  0  0  0
 32 26  1  0  0  0  0
 33 32  1  0  0  0  0
 34 33  1  0  0  0  0
M  END
>  <MODEL>
6

>  <REMARK>
 VINA RESULT:      -7.0      1.626      2.050
  Name = 
  7 active torsions:
  status: ('A' for Active; 'I' for Inactive)
    1  A    between atoms: C_1  and  C_34
    2  A    between atoms: C_2  and  C_32
    3  A    between atoms: O_3  and  C_13
    4  A    between atoms: O_3  and  C_25
    5  A    between atoms: C_11  and  C_15
    6  A    between atoms: C_18  and  C_30
    7  A    between atoms: C_26  and  C_28
                            x       y       z     vdW  Elec       q    Type
                         _______ _______ _______ _____ _____    ______ ____

>  <TORSDO>
F 7

$$$$
=
 OpenBabel11052420313D

 34 39  0  0  1  0  0  0  0  0999 V2000
  190.6260  174.5090  142.6680 C   0  0  0  0  0  0  0  0  0  0  0  0
  189.0680  174.2600  140.3410 C   0  0  0  0  0  3  0  0  0  0  0  0
  189.5160  175.3350  142.4590 C   0  0  0  0  0  3  0  0  0  0  0  0
  190.1700  173.4260  140.5260 C   0  0  0  0  0  0  0  0  0  0  0  0
  191.5870  171.6320  139.7270 C   0  0  0  0  0  3  0  0  0  0  0  0
  190.4870  172.4740  139.5530 C   0  0  0  0  0  3  0  0  0  0  0  0
  188.7290  175.2230  141.3030 C   0  0  0  0  0  0  0  0  0  0  0  0
  192.0660  172.6860  141.8530 C   0  0  0  0  0  3  0  0  0  0  0  0
  190.9620  173.5410  141.6940 C   0  0  0  0  0  0  0  0  0  0  0  0
  192.3760  171.7380  140.8750 C   0  0  0  0  0  3  0  0  0  0  0  0
  186.0660  177.3330  139.6240 C   0  0  0  0  0  3  0  0  0  0  0  0
  186.8050  176.5570  142.1990 C   0  0  0  0  0  3  0  0  0  0  0  0
  184.1270  178.6340  140.4630 C   0  0  0  0  0  1  0  0  0  0  0  0
  185.3210  177.7780  140.7190 C   0  0  0  0  0  0  0  0  0  0  0  0
  185.7010  177.4050  142.0250 C   0  0  0  0  0  0  0  0  0  0  0  0
  187.5560  176.1070  141.1020 C   0  0  0  0  0  0  0  0  0  0  0  0
  187.1750  176.5080  139.8140 C   0  0  0  0  0  3  0  0  0  0  0  0
  185.5560  178.9690  143.8990 N   0  0  2  0  0  0  0  0  0  0  0  0
  185.4980  178.7500  145.3560 C   0  0  2  0  0  3  0  0  0  0  0  0
  184.9000  177.8290  143.2270 C   0  0  2  0  0  3  0  0  0  0  0  0
  185.6340  177.5990  144.4720 C   0  0  1  0  0  3  0  0  0  0  0  0
  184.0690  178.8880  145.8590 C   0  0  0  0  0  2  0  0  0  0  0  0
  184.0020  178.4800  147.1900 O   0  0  0  0  0  1  0  0  0  0  0  0
  192.1410  176.0620  144.0020 C   0  0  2  0  0  3  0  0  0  0  0  0
  192.8400  176.1840  145.2180 O   0  0  0  0  0  0  0  0  0  0  0  0
  191.8770  176.2950  146.2380 C   0  0  1  0  0  3  0  0  0  0  0  0
  191.2020  174.9420  146.4460 C   0  0  0  0  0  2  0  0  0  0  0  0
  190.4810  174.5490  145.1620 C   0  0  0  0  0  2  0  0  0  0  0  0
  191.3990  174.7080  143.9470 C   0  0  1  0  0  3  0  0  0  0  0  0
  193.8500  176.2720  142.0210 N   0  0  0  0  0  0  0  0  0  0  0  0
  193.0960  176.1790  142.8940 C   0  0  0  0  0  0  0  0  0  0  0  0
  192.4980  176.6950  147.4220 O   0  0  0  0  0  0  0  0  0  0  0  0
  191.4900  176.6410  148.3860 C   0  0  0  0  0  2  0  0  0  0  0  0
  191.5570  177.8780  149.2560 C   0  0  0  0  0  1  0  0  0  0  0  0
  1 29  1  0  0  0  0
  2  4  2  0  0  0  0
  2  7  1  0  0  0  0
  3  1  1  0  0  0  0
  4  9  1  0  0  0  0
  5 10  1  0  0  0  0
  6  5  2  0  0  0  0
  6  4  1  0  0  0  0
  7  3  2  0  0  0  0
  9  8  1  0  0  0  0
  9  1  2  0  0  0  0
 10  8  2  0  0  0  0
 11 17  2  0  0  0  0
 11 14  1  0  0  0  0
 13 14  1  0  0  0  0
 14 15  2  0  0  0  0
 15 12  1  0  0  0  0
 15 20  1  0  0  0  0
 16  7  1  0  0  0  0
 16 12  2  0  0  0  0
 17 16  1  0  0  0  0
 18 21  1  0  0  0  0
 18 19  1  0  0  0  0
 19 22  1  0  0  0  0
 20 18  1  0  0  0  0
 20 21  1  0  0  0  0
 21 19  1  0  0  0  0
 22 23  1  0  0  0  0
 24 25  1  0  0  0  0
 25 26  1  0  0  0  0
 26 27  1  0  0  0  0
 26 32  1  0  0  0  0
 28 27  1  0  0  0  0
 29 24  1  0  0  0  0
 29 28  1  0  0  0  0
 30 31  3  0  0  0  0
 31 24  1  0  0  0  0
 32 33  1  0  0  0  0
 33 34  1  0  0  0  0
M  END
>  <MODEL>
7

>  <REMARK>
 VINA RESULT:      -7.0      2.933      5.998
  Name = 
  7 active torsions:
  status: ('A' for Active; 'I' for Inactive)
    1  A    between atoms: C_1  and  C_34
    2  A    between atoms: C_2  and  C_32
    3  A    between atoms: O_3  and  C_13
    4  A    between atoms: O_3  and  C_25
    5  A    between atoms: C_11  and  C_15
    6  A    between atoms: C_18  and  C_30
    7  A    between atoms: C_26  and  C_28
                            x       y       z     vdW  Elec       q    Type
                         _______ _______ _______ _____ _____    ______ ____

>  <TORSDO>
F 7

$$$$
=
 OpenBabel11052420313D

 34 39  0  0  1  0  0  0  0  0999 V2000
  188.5300  175.7030  143.7130 C   0  0  0  0  0  0  0  0  0  0  0  0
  189.8790  176.4930  146.0490 C   0  0  0  0  0  3  0  0  0  0  0  0
  189.9060  175.4920  143.8500 C   0  0  0  0  0  3  0  0  0  0  0  0
  188.5080  176.7150  145.9370 C   0  0  0  0  0  0  0  0  0  0  0  0
  186.4450  177.5550  146.8870 C   0  0  0  0  0  3  0  0  0  0  0  0
  187.8190  177.3270  146.9870 C   0  0  0  0  0  3  0  0  0  0  0  0
  190.5940  175.8810  145.0090 C   0  0  0  0  0  0  0  0  0  0  0  0
  186.4340  176.5590  144.6810 C   0  0  0  0  0  3  0  0  0  0  0  0
  187.8160  176.3220  144.7650 C   0  0  0  0  0  0  0  0  0  0  0  0
  185.7530  177.1720  145.7350 C   0  0  0  0  0  3  0  0  0  0  0  0
  194.0320  175.3520  146.5130 C   0  0  0  0  0  3  0  0  0  0  0  0
  192.8490  175.4810  143.9910 C   0  0  0  0  0  3  0  0  0  0  0  0
  196.2770  174.9160  145.5510 C   0  0  0  0  0  1  0  0  0  0  0  0
  194.8220  175.1880  145.3720 C   0  0  0  0  0  0  0  0  0  0  0  0
  194.2330  175.2710  144.0930 C   0  0  0  0  0  0  0  0  0  0  0  0
  192.0520  175.6460  145.1340 C   0  0  0  0  0  0  0  0  0  0  0  0
  192.6610  175.5820  146.3960 C   0  0  0  0  0  3  0  0  0  0  0  0
  195.5840  176.3460  142.3610 N   0  0  2  0  0  0  0  0  0  0  0  0
  195.4360  176.3990  140.8950 C   0  0  2  0  0  3  0  0  0  0  0  0
  195.0420  175.0590  142.8420 C   0  0  2  0  0  3  0  0  0  0  0  0
  194.4240  175.7080  141.6840 C   0  0  1  0  0  3  0  0  0  0  0  0
  196.3810  175.4090  140.2290 C   0  0  0  0  0  2  0  0  0  0  0  0
  197.5920  176.0400  139.9470 O   0  0  0  0  0  1  0  0  0  0  0  0
  188.1490  176.1960  141.2440 C   0  0  2  0  0  3  0  0  0  0  0  0
  187.5250  175.7090  140.0800 O   0  0  0  0  0  0  0  0  0  0  0  0
  188.2040  174.5330  139.7100 C   0  0  1  0  0  3  0  0  0  0  0  0
  187.8570  173.4180  140.6940 C   0  0  0  0  0  2  0  0  0  0  0  0
  188.3390  173.8190  142.0830 C   0  0  0  0  0  2  0  0  0  0  0  0
  187.8880  175.2420  142.4290 C   0  0  1  0  0  3  0  0  0  0  0  0
  187.2190  178.5970  141.7570 N   0  0  0  0  0  0  0  0  0  0  0  0
  187.6300  177.5390  141.5310 C   0  0  0  0  0  0  0  0  0  0  0  0
  187.8160  174.1570  138.4240 O   0  0  0  0  0  0  0  0  0  0  0  0
  188.7320  173.1720  138.0510 C   0  0  0  0  0  2  0  0  0  0  0  0
  189.8230  173.7910  137.2030 C   0  0  0  0  0  1  0  0  0  0  0  0
  1  3  2  0  0  0  0
  1  9  1  0  0  0  0
  3  7  1  0  0  0  0
  4  2  1  0  0  0  0
  4  6  1  0  0  0  0
  5  6  2  0  0  0  0
  7 16  1  0  0  0  0
  7  2  2  0  0  0  0
  8  9  1  0  0  0  0
  8 10  2  0  0  0  0
  9  4  2  0  0  0  0
 10  5  1  0  0  0  0
 12 15  2  0  0  0  0
 12 16  1  0  0  0  0
 14 13  1  0  0  0  0
 14 11  2  0  0  0  0
 15 14  1  0  0  0  0
 16 17  2  0  0  0  0
 17 11  1  0  0  0  0
 18 20  1  0  0  0  0
 19 21  1  0  0  0  0
 19 18  1  0  0  0  0
 20 15  1  0  0  0  0
 21 18  1  0  0  0  0
 21 20  1  0  0  0  0
 22 19  1  0  0  0  0
 23 22  1  0  0  0  0
 24 31  1  0  0  0  0
 24 29  1  0  0  0  0
 25 24  1  0  0  0  0
 26 25  1  0  0  0  0
 26 27  1  0  0  0  0
 27 28  1  0  0  0  0
 28 29  1  0  0  0  0
 29  1  1  0  0  0  0
 31 30  3  0  0  0  0
 32 26  1  0  0  0  0
 33 32  1  0  0  0  0
 34 33  1  0  0  0  0
M  END
>  <MODEL>
8

>  <REMARK>
 VINA RESULT:      -6.9      2.926      7.029
  Name = 
  7 active torsions:
  status: ('A' for Active; 'I' for Inactive)
    1  A    between atoms: C_1  and  C_34
    2  A    between atoms: C_2  and  C_32
    3  A    between atoms: O_3  and  C_13
    4  A    between atoms: O_3  and  C_25
    5  A    between atoms: C_11  and  C_15
    6  A    between atoms: C_18  and  C_30
    7  A    between atoms: C_26  and  C_28
                            x       y       z     vdW  Elec       q    Type
                         _______ _______ _______ _____ _____    ______ ____

>  <TORSDO>
F 7

$$$$
=
 OpenBabel11052420313D

 34 39  0  0  1  0  0  0  0  0999 V2000
  188.7720  176.5230  145.3690 C   0  0  0  0  0  0  0  0  0  0  0  0
  190.8930  174.7650  145.9290 C   0  0  0  0  0  3  0  0  0  0  0  0
  188.9830  175.3840  144.5850 C   0  0  0  0  0  3  0  0  0  0  0  0
  190.7040  175.8930  146.7260 C   0  0  0  0  0  0  0  0  0  0  0  0
  191.3920  177.2640  148.6000 C   0  0  0  0  0  3  0  0  0  0  0  0
  191.5710  176.1370  147.7940 C   0  0  0  0  0  3  0  0  0  0  0  0
  190.0370  174.4970  144.8510 C   0  0  0  0  0  0  0  0  0  0  0  0
  189.4750  177.9150  147.2740 C   0  0  0  0  0  3  0  0  0  0  0  0
  189.6390  176.7870  146.4540 C   0  0  0  0  0  0  0  0  0  0  0  0
  190.3460  178.1520  148.3400 C   0  0  0  0  0  3  0  0  0  0  0  0
  189.5730  171.8880  142.1420 C   0  0  0  0  0  3  0  0  0  0  0  0
  191.3050  172.4170  144.2630 C   0  0  0  0  0  3  0  0  0  0  0  0
  190.8200  169.8420  141.4990 C   0  0  0  0  0  1  0  0  0  0  0  0
  190.6340  171.0160  142.3990 C   0  0  0  0  0  0  0  0  0  0  0  0
  191.5020  171.2680  143.4820 C   0  0  0  0  0  0  0  0  0  0  0  0
  190.2410  173.2950  144.0080 C   0  0  0  0  0  0  0  0  0  0  0  0
  189.3750  173.0150  142.9400 C   0  0  0  0  0  3  0  0  0  0  0  0
  193.6150  171.0460  144.6930 N   0  0  2  0  0  0  0  0  0  0  0  0
  194.9920  170.8080  144.2250 C   0  0  2  0  0  3  0  0  0  0  0  0
  192.6810  170.3760  143.7660 C   0  0  2  0  0  3  0  0  0  0  0  0
  193.9240  170.9450  143.2430 C   0  0  1  0  0  3  0  0  0  0  0  0
  195.3750  169.3480  144.4190 C   0  0  0  0  0  2  0  0  0  0  0  0
  196.3070  169.2450  145.4510 O   0  0  0  0  0  1  0  0  0  0  0  0
  187.3170  177.4240  143.4830 C   0  0  2  0  0  3  0  0  0  0  0  0
  186.2220  178.2630  143.2070 O   0  0  0  0  0  0  0  0  0  0  0  0
  185.0810  177.6450  143.7530 C   0  0  1  0  0  3  0  0  0  0  0  0
  185.1280  177.7490  145.2750 C   0  0  0  0  0  2  0  0  0  0  0  0
  186.3540  176.9990  145.7810 C   0  0  0  0  0  2  0  0  0  0  0  0
  187.6070  177.4060  145.0000 C   0  0  1  0  0  3  0  0  0  0  0  0
  189.4030  178.2900  142.1450 N   0  0  0  0  0  0  0  0  0  0  0  0
  188.4830  177.9080  142.7340 C   0  0  0  0  0  0  0  0  0  0  0  0
  183.9340  178.2820  143.2770 O   0  0  0  0  0  0  0  0  0  0  0  0
  184.0740  178.2730  141.8880 C   0  0  0  0  0  2  0  0  0  0  0  0
  182.7040  178.2900  141.2430 C   0  0  0  0  0  1  0  0  0  0  0  0
  1  9  1  0  0  0  0
  2  4  1  0  0  0  0
  3  7  1  0  0  0  0
  3  1  2  0  0  0  0
  4  6  1  0  0  0  0
  6  5  2  0  0  0  0
  7  2  2  0  0  0  0
  8 10  2  0  0  0  0
  9  4  2  0  0  0  0
  9  8  1  0  0  0  0
 10  5  1  0  0  0  0
 11 14  2  0  0  0  0
 11 17  1  0  0  0  0
 13 14  1  0  0  0  0
 14 15  1  0  0  0  0
 15 20  1  0  0  0  0
 15 12  2  0  0  0  0
 16 12  1  0  0  0  0
 16  7  1  0  0  0  0
 17 16  2  0  0  0  0
 19 22  1  0  0  0  0
 19 18  1  0  0  0  0
 20 18  1  0  0  0  0
 21 20  1  0  0  0  0
 21 19  1  0  0  0  0
 21 18  1  0  0  0  0
 22 23  1  0  0  0  0
 24 29  1  0  0  0  0
 25 24  1  0  0  0  0
 25 26  1  0  0  0  0
 26 27  1  0  0  0  0
 27 28  1  0  0  0  0
 29  1  1  0  0  0  0
 29 28  1  0  0  0  0
 30 31  3  0  0  0  0
 31 24  1  0  0  0  0
 32 26  1  0  0  0  0
 33 32  1  0  0  0  0
 34 33  1  0  0  0  0
M  END
>  <MODEL>
9

>  <REMARK>
 VINA RESULT:      -6.8      2.859      7.960
  Name = 
  7 active torsions:
  status: ('A' for Active; 'I' for Inactive)
    1  A    between atoms: C_1  and  C_34
    2  A    between atoms: C_2  and  C_32
    3  A    between atoms: O_3  and  C_13
    4  A    between atoms: O_3  and  C_25
    5  A    between atoms: C_11  and  C_15
    6  A    between atoms: C_18  and  C_30
    7  A    between atoms: C_26  and  C_28
                            x       y       z     vdW  Elec       q    Type
                         _______ _______ _______ _____ _____    ______ ____

>  <TORSDO>
F 7

$$$$
