=
 OpenBabel11052420313D

 34 39  0  0  0  0  0  0  0  0999 V2000
  194.1020  175.2630  142.3980 N   0  0  0  0  0  0  0  0  0  0  0  0
  196.5110  174.0450  139.8230 C   0  0  0  0  0  3  0  0  0  0  0  0
  196.6860  174.2430  142.2350 O   0  0  0  0  0  0  0  0  0  0  0  0
  193.0880  175.9230  144.9520 C   0  0  0  0  0  3  0  0  0  0  0  0
  192.7720  175.7930  142.5300 C   0  0  0  0  0  3  0  0  0  0  0  0
  194.3240  175.4250  144.8930 C   0  0  0  0  0  0  0  0  0  0  0  0
  196.1740  174.1660  145.9630 C   0  0  0  0  0  2  0  0  0  0  0  0
  195.1350  175.2720  146.1430 C   0  0  0  0  0  2  0  0  0  0  0  0
  192.2640  176.1180  143.7300 C   0  0  0  0  0  0  0  0  0  0  0  0
  196.1540  174.5820  143.4870 C   0  0  0  0  0  0  0  0  0  0  0  0
  194.9060  175.0830  143.5790 C   0  0  0  0  0  0  0  0  0  0  0  0
  197.0170  174.4210  144.7110 C   0  0  0  0  0  2  0  0  0  0  0  0
  195.7780  174.1990  138.6420 C   0  0  0  0  0  0  0  0  0  0  0  0
  194.4730  174.7120  138.7030 C   0  0  0  0  0  3  0  0  0  0  0  0
  195.9510  174.3980  141.0540 C   0  0  0  0  0  0  0  0  0  0  0  0
  193.9080  175.0670  139.9300 C   0  0  0  0  0  3  0  0  0  0  0  0
  194.6450  174.9110  141.1130 C   0  0  0  0  0  0  0  0  0  0  0  0
  188.9640  177.8020  142.6440 C   0  0  0  0  0  2  0  0  0  0  0  0
  190.0500  176.1940  144.7700 C   0  0  0  0  0  3  0  0  0  0  0  0
  186.0620  177.7030  145.0960 C   0  0  0  0  0  0  0  0  0  0  0  0
  186.8490  178.0200  143.9800 C   0  0  0  0  0  3  0  0  0  0  0  0
  188.1560  177.5360  143.8790 C   0  0  0  0  0  0  0  0  0  0  0  0
  187.8930  176.3800  145.9960 C   0  0  0  0  0  3  0  0  0  0  0  0
  188.6770  176.7080  144.8880 C   0  0  0  0  0  0  0  0  0  0  0  0
  186.5910  176.8780  146.1010 C   0  0  0  0  0  3  0  0  0  0  0  0
  190.8880  176.6590  143.8310 C   0  0  0  0  0  0  0  0  0  0  0  0
  190.4630  177.8260  142.9640 C   0  0  0  0  0  2  0  0  0  0  0  0
  184.6890  178.2230  145.2030 C   0  0  0  0  0  0  0  0  0  0  0  0
  184.0990  178.2430  146.3160 O   0  0  0  0  0  1  0  0  0  0  0  0
  184.0310  178.7000  144.0750 O   0  0  0  0  0  0  0  0  0  0  0  0
  197.1570  174.6710  136.5330 C   0  0  0  0  0  0  0  0  0  0  0  0
  197.7170  174.1080  135.2770 C   0  0  0  0  0  1  0  0  0  0  0  0
  197.3670  175.8790  136.8150 O   0  0  0  0  0  0  0  0  0  0  0  0
  196.3890  173.8250  137.3990 N   0  0  0  0  0  2  0  0  0  0  0  0
  1  5  1  0  0  0  0
  1 11  1  0  0  0  0
  2 15  1  0  0  0  0
  3 10  1  0  0  0  0
  5  9  2  0  0  0  0
  6  4  2  0  0  0  0
  6  8  1  0  0  0  0
  7  8  1  0  0  0  0
  9 26  1  0  0  0  0
  9  4  1  0  0  0  0
 10 11  2  0  0  0  0
 10 12  1  0  0  0  0
 11  6  1  0  0  0  0
 12  7  1  0  0  0  0
 13 14  1  0  0  0  0
 13  2  2  0  0  0  0
 14 16  2  0  0  0  0
 15 17  2  0  0  0  0
 15  3  1  0  0  0  0
 16 17  1  0  0  0  0
 17  1  1  0  0  0  0
 18 27  1  0  0  0  0
 18 22  1  0  0  0  0
 19 24  1  0  0  0  0
 20 28  1  0  0  0  0
 20 25  1  0  0  0  0
 21 20  2  0  0  0  0
 22 21  1  0  0  0  0
 22 24  2  0  0  0  0
 23 25  2  0  0  0  0
 24 23  1  0  0  0  0
 26 19  2  0  0  0  0
 27 26  1  0  0  0  0
 28 29  1  0  0  0  0
 30 28  2  0  0  0  0
 31 33  2  0  0  0  0
 31 34  1  0  0  0  0
 32 31  1  0  0  0  0
 34 13  1  0  0  0  0
M  END
>  <MODEL>
1

>  <REMARK>
 VINA RESULT:      -8.4      0.000      0.000
  Name = 
  3 active torsions:
  status: ('A' for Active; 'I' for Inactive)
    1  A    between atoms: C_7  and  C_11
    2  A    between atoms: C_18  and  C_30
    3  A    between atoms: C_23  and  N_25
                            x       y       z     vdW  Elec       q    Type
                         _______ _______ _______ _____ _____    ______ ____

>  <TORSDO>
F 3

$$$$
=
 OpenBabel11052420313D

 34 39  0  0  0  0  0  0  0  0999 V2000
  186.7370  177.7940  144.3490 N   0  0  0  0  0  0  0  0  0  0  0  0
  183.4080  178.4270  142.7910 C   0  0  0  0  0  3  0  0  0  0  0  0
  184.1700  178.5720  145.0890 O   0  0  0  0  0  0  0  0  0  0  0  0
  188.7050  177.5980  146.3680 C   0  0  0  0  0  3  0  0  0  0  0  0
  188.0780  177.3950  144.0130 C   0  0  0  0  0  3  0  0  0  0  0  0
  187.4830  177.9820  146.7390 C   0  0  0  0  0  0  0  0  0  0  0  0
  186.0190  179.2360  148.3010 C   0  0  0  0  0  2  0  0  0  0  0  0
  187.1840  178.2540  148.1820 C   0  0  0  0  0  2  0  0  0  0  0  0
  189.0330  177.2910  144.9510 C   0  0  0  0  0  0  0  0  0  0  0  0
  185.1690  178.4640  146.0680 C   0  0  0  0  0  0  0  0  0  0  0  0
  186.4150  178.0810  145.7230 C   0  0  0  0  0  0  0  0  0  0  0  0
  184.8120  178.7350  147.5050 C   0  0  0  0  0  2  0  0  0  0  0  0
  183.6620  178.1590  141.4420 C   0  0  0  0  0  0  0  0  0  0  0  0
  184.9500  177.7650  141.0480 C   0  0  0  0  0  3  0  0  0  0  0  0
  184.4270  178.3040  143.7400 C   0  0  0  0  0  0  0  0  0  0  0  0
  185.9720  177.6400  141.9930 C   0  0  0  0  0  3  0  0  0  0  0  0
  185.7150  177.9090  143.3450 C   0  0  0  0  0  0  0  0  0  0  0  0
  192.1620  176.7810  142.7480 C   0  0  0  0  0  2  0  0  0  0  0  0
  191.3530  176.7490  145.5100 C   0  0  0  0  0  3  0  0  0  0  0  0
  195.3340  175.5860  144.4670 C   0  0  0  0  0  0  0  0  0  0  0  0
  194.4180  175.9450  143.4690 C   0  0  0  0  0  3  0  0  0  0  0  0
  193.1140  176.3140  143.8080 C   0  0  0  0  0  0  0  0  0  0  0  0
  193.6380  176.0060  146.1570 C   0  0  0  0  0  3  0  0  0  0  0  0
  192.7250  176.3500  145.1580 C   0  0  0  0  0  0  0  0  0  0  0  0
  194.9370  175.6230  145.8130 C   0  0  0  0  0  3  0  0  0  0  0  0
  190.4050  176.8800  144.5700 C   0  0  0  0  0  0  0  0  0  0  0  0
  190.7120  176.4810  143.1410 C   0  0  0  0  0  2  0  0  0  0  0  0
  196.7040  175.1890  144.1030 C   0  0  0  0  0  0  0  0  0  0  0  0
  197.2770  174.2450  144.7100 O   0  0  0  0  0  1  0  0  0  0  0  0
  197.3780  175.8510  143.0840 O   0  0  0  0  0  0  0  0  0  0  0  0
  181.1890  178.1530  140.7680 C   0  0  0  0  0  0  0  0  0  0  0  0
  180.2140  178.3330  139.6600 C   0  0  0  0  0  1  0  0  0  0  0  0
  180.7670  177.8790  141.9210 O   0  0  0  0  0  0  0  0  0  0  0  0
  182.5890  178.2970  140.4990 N   0  0  0  0  0  2  0  0  0  0  0  0
  1 11  1  0  0  0  0
  2 15  1  0  0  0  0
  3 10  1  0  0  0  0
  4  6  2  0  0  0  0
  5  1  1  0  0  0  0
  5  9  2  0  0  0  0
  6  8  1  0  0  0  0
  8  7  1  0  0  0  0
  9  4  1  0  0  0  0
 10 12  1  0  0  0  0
 11 10  2  0  0  0  0
 11  6  1  0  0  0  0
 12  7  1  0  0  0  0
 13  2  2  0  0  0  0
 14 13  1  0  0  0  0
 14 16  2  0  0  0  0
 15  3  1  0  0  0  0
 16 17  1  0  0  0  0
 17 15  2  0  0  0  0
 17  1  1  0  0  0  0
 18 27  1  0  0  0  0
 18 22  1  0  0  0  0
 20 25  1  0  0  0  0
 21 22  1  0  0  0  0
 21 20  2  0  0  0  0
 22 24  2  0  0  0  0
 24 19  1  0  0  0  0
 24 23  1  0  0  0  0
 25 23  2  0  0  0  0
 26  9  1  0  0  0  0
 26 19  2  0  0  0  0
 27 26  1  0  0  0  0
 28 20  1  0  0  0  0
 28 29  1  0  0  0  0
 30 28  2  0  0  0  0
 31 33  2  0  0  0  0
 32 31  1  0  0  0  0
 34 31  1  0  0  0  0
 34 13  1  0  0  0  0
M  END
>  <MODEL>
2

>  <REMARK>
 VINA RESULT:      -8.4      3.956     10.552
  Name = 
  3 active torsions:
  status: ('A' for Active; 'I' for Inactive)
    1  A    between atoms: C_7  and  C_11
    2  A    between atoms: C_18  and  C_30
    3  A    between atoms: C_23  and  N_25
                            x       y       z     vdW  Elec       q    Type
                         _______ _______ _______ _____ _____    ______ ____

>  <TORSDO>
F 3

$$$$
=
 OpenBabel11052420313D

 34 39  0  0  0  0  0  0  0  0999 V2000
  186.1310  177.8690  143.7110 N   0  0  0  0  0  0  0  0  0  0  0  0
  182.6580  178.7290  142.6540 C   0  0  0  0  0  3  0  0  0  0  0  0
  183.7220  178.6900  144.8340 O   0  0  0  0  0  0  0  0  0  0  0  0
  188.3360  177.4640  145.4320 C   0  0  0  0  0  3  0  0  0  0  0  0
  187.3960  177.4440  143.1740 C   0  0  0  0  0  3  0  0  0  0  0  0
  187.1920  177.8680  145.9860 C   0  0  0  0  0  0  0  0  0  0  0  0
  186.0040  179.0670  147.8040 C   0  0  0  0  0  2  0  0  0  0  0  0
  187.0960  178.0530  147.4700 C   0  0  0  0  0  2  0  0  0  0  0  0
  188.4600  177.2410  143.9680 C   0  0  0  0  0  0  0  0  0  0  0  0
  184.8340  178.4800  145.6620 C   0  0  0  0  0  0  0  0  0  0  0  0
  186.0060  178.0750  145.1300 C   0  0  0  0  0  0  0  0  0  0  0  0
  184.6810  178.6660  147.1480 C   0  0  0  0  0  2  0  0  0  0  0  0
  182.7210  178.5440  141.2690 C   0  0  0  0  0  0  0  0  0  0  0  0
  183.9270  178.1290  140.6830 C   0  0  0  0  0  3  0  0  0  0  0  0
  183.7860  178.5050  143.4480 C   0  0  0  0  0  0  0  0  0  0  0  0
  185.0570  177.9030  141.4720 C   0  0  0  0  0  3  0  0  0  0  0  0
  184.9920  178.0900  142.8610 C   0  0  0  0  0  0  0  0  0  0  0  0
  192.2750  177.0010  143.4240 C   0  0  0  0  0  2  0  0  0  0  0  0
  189.8390  175.6210  142.7580 C   0  0  0  0  0  3  0  0  0  0  0  0
  193.5370  174.3030  141.0640 C   0  0  0  0  0  0  0  0  0  0  0  0
  193.5050  175.4210  141.9080 C   0  0  0  0  0  3  0  0  0  0  0  0
  192.2950  175.8590  142.4530 C   0  0  0  0  0  0  0  0  0  0  0  0
  191.1370  174.0390  141.3430 C   0  0  0  0  0  3  0  0  0  0  0  0
  191.1080  175.1620  142.1730 C   0  0  0  0  0  0  0  0  0  0  0  0
  192.3470  173.6130  140.7890 C   0  0  0  0  0  3  0  0  0  0  0  0
  189.7500  176.8060  143.3810 C   0  0  0  0  0  0  0  0  0  0  0  0
  190.9380  177.7470  143.3680 C   0  0  0  0  0  2  0  0  0  0  0  0
  194.8140  173.8520  140.4860 C   0  0  0  0  0  0  0  0  0  0  0  0
  195.2760  172.7150  140.7690 O   0  0  0  0  0  1  0  0  0  0  0  0
  195.5210  174.6770  139.6190 O   0  0  0  0  0  0  0  0  0  0  0  0
  180.2150  178.3240  140.7750 C   0  0  0  0  0  0  0  0  0  0  0  0
  179.1080  178.6730  139.8470 C   0  0  0  0  0  1  0  0  0  0  0  0
  179.9690  177.6300  141.7960 O   0  0  0  0  0  0  0  0  0  0  0  0
  181.5410  178.7850  140.4880 N   0  0  0  0  0  2  0  0  0  0  0  0
  1 11  1  0  0  0  0
  2 15  1  0  0  0  0
  3 10  1  0  0  0  0
  4  6  2  0  0  0  0
  5  1  1  0  0  0  0
  5  9  2  0  0  0  0
  6  8  1  0  0  0  0
  8  7  1  0  0  0  0
  9  4  1  0  0  0  0
 10 12  1  0  0  0  0
 11 10  2  0  0  0  0
 11  6  1  0  0  0  0
 12  7  1  0  0  0  0
 13  2  2  0  0  0  0
 14 13  1  0  0  0  0
 14 16  2  0  0  0  0
 15  3  1  0  0  0  0
 16 17  1  0  0  0  0
 17 15  2  0  0  0  0
 17  1  1  0  0  0  0
 19 26  2  0  0  0  0
 20 21  1  0  0  0  0
 21 22  2  0  0  0  0
 22 18  1  0  0  0  0
 23 24  2  0  0  0  0
 24 22  1  0  0  0  0
 24 19  1  0  0  0  0
 25 20  2  0  0  0  0
 25 23  1  0  0  0  0
 26  9  1  0  0  0  0
 27 26  1  0  0  0  0
 27 18  1  0  0  0  0
 28 29  1  0  0  0  0
 28 20  1  0  0  0  0
 30 28  2  0  0  0  0
 31 33  2  0  0  0  0
 32 31  1  0  0  0  0
 34 31  1  0  0  0  0
 34 13  1  0  0  0  0
M  END
>  <MODEL>
3

>  <REMARK>
 VINA RESULT:      -8.2      3.826     10.877
  Name = 
  3 active torsions:
  status: ('A' for Active; 'I' for Inactive)
    1  A    between atoms: C_7  and  C_11
    2  A    between atoms: C_18  and  C_30
    3  A    between atoms: C_23  and  N_25
                            x       y       z     vdW  Elec       q    Type
                         _______ _______ _______ _____ _____    ______ ____

>  <TORSDO>
F 3

$$$$
=
 OpenBabel11052420313D

 34 39  0  0  0  0  0  0  0  0999 V2000
  194.4820  175.0140  142.4180 N   0  0  0  0  0  0  0  0  0  0  0  0
  196.8390  173.9830  139.7160 C   0  0  0  0  0  3  0  0  0  0  0  0
  197.0760  174.0500  142.1300 O   0  0  0  0  0  0  0  0  0  0  0  0
  193.5270  175.5130  145.0310 C   0  0  0  0  0  3  0  0  0  0  0  0
  193.1470  175.5130  142.6140 C   0  0  0  0  0  3  0  0  0  0  0  0
  194.7690  175.0410  144.9120 C   0  0  0  0  0  0  0  0  0  0  0  0
  196.6660  173.7550  145.8610 C   0  0  0  0  0  2  0  0  0  0  0  0
  195.6160  174.8320  146.1300 C   0  0  0  0  0  2  0  0  0  0  0  0
  192.6670  175.7610  143.8440 C   0  0  0  0  0  0  0  0  0  0  0  0
  196.5730  174.3080  143.4140 C   0  0  0  0  0  0  0  0  0  0  0  0
  195.3200  174.7820  143.5660 C   0  0  0  0  0  0  0  0  0  0  0  0
  197.4700  174.0940  144.6030 C   0  0  0  0  0  2  0  0  0  0  0  0
  196.0720  174.1900  138.5650 C   0  0  0  0  0  0  0  0  0  0  0  0
  194.7610  174.6770  138.6890 C   0  0  0  0  0  3  0  0  0  0  0  0
  196.3060  174.2570  140.9800 C   0  0  0  0  0  0  0  0  0  0  0  0
  194.2240  174.9530  139.9490 C   0  0  0  0  0  3  0  0  0  0  0  0
  194.9950  174.7440  141.1020 C   0  0  0  0  0  0  0  0  0  0  0  0
  189.5070  177.0970  145.6150 C   0  0  0  0  0  2  0  0  0  0  0  0
  190.6680  176.8850  142.9900 C   0  0  0  0  0  3  0  0  0  0  0  0
  186.6920  178.3990  143.4180 C   0  0  0  0  0  0  0  0  0  0  0  0
  187.4120  177.9740  144.5430 C   0  0  0  0  0  3  0  0  0  0  0  0
  188.7070  177.4690  144.4020 C   0  0  0  0  0  0  0  0  0  0  0  0
  188.5920  177.8430  142.0080 C   0  0  0  0  0  3  0  0  0  0  0  0
  189.3010  177.4090  143.1300 C   0  0  0  0  0  0  0  0  0  0  0  0
  187.2920  178.3350  142.1510 C   0  0  0  0  0  3  0  0  0  0  0  0
  191.2860  176.2730  144.0110 C   0  0  0  0  0  0  0  0  0  0  0  0
  190.5190  175.9940  145.2880 C   0  0  0  0  0  2  0  0  0  0  0  0
  185.3250  178.9220  143.5710 C   0  0  0  0  0  0  0  0  0  0  0  0
  184.3360  178.2450  143.1820 O   0  0  0  0  0  0  0  0  0  0  0  0
  185.1110  180.1680  144.1480 O   0  0  0  0  0  1  0  0  0  0  0  0
  197.2320  174.8370  136.3730 C   0  0  0  0  0  0  0  0  0  0  0  0
  197.7920  174.3490  135.0860 C   0  0  0  0  0  1  0  0  0  0  0  0
  197.2740  176.0670  136.6380 O   0  0  0  0  0  0  0  0  0  0  0  0
  196.6550  173.8970  137.2880 N   0  0  0  0  0  2  0  0  0  0  0  0
  1  5  1  0  0  0  0
  1 11  1  0  0  0  0
  2 15  1  0  0  0  0
  3 10  1  0  0  0  0
  5  9  2  0  0  0  0
  6  4  2  0  0  0  0
  6  8  1  0  0  0  0
  7  8  1  0  0  0  0
  9 26  1  0  0  0  0
  9  4  1  0  0  0  0
 10 11  2  0  0  0  0
 10 12  1  0  0  0  0
 11  6  1  0  0  0  0
 12  7  1  0  0  0  0
 13 14  1  0  0  0  0
 13  2  2  0  0  0  0
 14 16  2  0  0  0  0
 15 17  2  0  0  0  0
 15  3  1  0  0  0  0
 16 17  1  0  0  0  0
 17  1  1  0  0  0  0
 19 24  1  0  0  0  0
 19 26  2  0  0  0  0
 20 28  1  0  0  0  0
 20 21  1  0  0  0  0
 22 21  2  0  0  0  0
 22 18  1  0  0  0  0
 23 25  1  0  0  0  0
 23 24  2  0  0  0  0
 24 22  1  0  0  0  0
 25 20  2  0  0  0  0
 26 27  1  0  0  0  0
 27 18  1  0  0  0  0
 28 30  1  0  0  0  0
 29 28  2  0  0  0  0
 31 33  2  0  0  0  0
 31 34  1  0  0  0  0
 32 31  1  0  0  0  0
 34 13  1  0  0  0  0
M  END
>  <MODEL>
4

>  <REMARK>
 VINA RESULT:      -8.1      0.976      1.622
  Name = 
  3 active torsions:
  status: ('A' for Active; 'I' for Inactive)
    1  A    between atoms: C_7  and  C_11
    2  A    between atoms: C_18  and  C_30
    3  A    between atoms: C_23  and  N_25
                            x       y       z     vdW  Elec       q    Type
                         _______ _______ _______ _____ _____    ______ ____

>  <TORSDO>
F 3

$$$$
=
 OpenBabel11052420313D

 34 39  0  0  0  0  0  0  0  0999 V2000
  189.5780  175.7530  143.8080 N   0  0  0  0  0  0  0  0  0  0  0  0
  192.3450  173.7020  142.3750 C   0  0  0  0  0  3  0  0  0  0  0  0
  192.1430  174.9050  144.4720 O   0  0  0  0  0  0  0  0  0  0  0  0
  188.1860  177.3680  145.6630 C   0  0  0  0  0  3  0  0  0  0  0  0
  188.2500  176.2140  143.5070 C   0  0  0  0  0  3  0  0  0  0  0  0
  189.4100  176.9610  146.0030 C   0  0  0  0  0  0  0  0  0  0  0  0
  191.0550  176.3730  147.7630 C   0  0  0  0  0  2  0  0  0  0  0  0
  190.0140  177.3930  147.3040 C   0  0  0  0  0  2  0  0  0  0  0  0
  187.5650  176.9850  144.3690 C   0  0  0  0  0  0  0  0  0  0  0  0
  191.4270  175.7080  145.3710 C   0  0  0  0  0  0  0  0  0  0  0  0
  190.1850  176.1310  145.0580 C   0  0  0  0  0  0  0  0  0  0  0  0
  192.0850  176.1250  146.6590 C   0  0  0  0  0  2  0  0  0  0  0  0
  191.8070  173.3040  141.1470 C   0  0  0  0  0  0  0  0  0  0  0  0
  190.5140  173.7220  140.7930 C   0  0  0  0  0  3  0  0  0  0  0  0
  191.6030  174.5080  143.2440 C   0  0  0  0  0  0  0  0  0  0  0  0
  189.7690  174.5270  141.6580 C   0  0  0  0  0  3  0  0  0  0  0  0
  190.3110  174.9250  142.8890 C   0  0  0  0  0  0  0  0  0  0  0  0
  184.1560  178.7580  144.7490 C   0  0  0  0  0  2  0  0  0  0  0  0
  185.8200  177.5360  142.7430 C   0  0  0  0  0  3  0  0  0  0  0  0
  181.8920  178.8660  141.6990 C   0  0  0  0  0  0  0  0  0  0  0  0
  182.3530  178.9890  143.0160 C   0  0  0  0  0  3  0  0  0  0  0  0
  183.6320  178.5450  143.3610 C   0  0  0  0  0  0  0  0  0  0  0  0
  184.0200  177.8790  141.0600 C   0  0  0  0  0  3  0  0  0  0  0  0
  184.4700  177.9930  142.3770 C   0  0  0  0  0  0  0  0  0  0  0  0
  182.7340  178.3120  140.7230 C   0  0  0  0  0  3  0  0  0  0  0  0
  186.1960  177.4410  144.0280 C   0  0  0  0  0  0  0  0  0  0  0  0
  185.1770  177.6780  145.1230 C   0  0  0  0  0  2  0  0  0  0  0  0
  180.5400  179.3270  141.3440 C   0  0  0  0  0  0  0  0  0  0  0  0
  180.3780  180.1950  140.4450 O   0  0  0  0  0  0  0  0  0  0  0  0
  179.4280  178.8080  141.9970 O   0  0  0  0  0  1  0  0  0  0  0  0
  192.4260  171.0750  140.0440 C   0  0  0  0  0  0  0  0  0  0  0  0
  193.3500  170.3770  139.1110 C   0  0  0  0  0  1  0  0  0  0  0  0
  191.5080  170.4220  140.6060 O   0  0  0  0  0  0  0  0  0  0  0  0
  192.6000  172.4770  140.2840 N   0  0  0  0  0  2  0  0  0  0  0  0
  1 11  1  0  0  0  0
  2 15  1  0  0  0  0
  3 10  1  0  0  0  0
  4  6  2  0  0  0  0
  5  1  1  0  0  0  0
  5  9  2  0  0  0  0
  6  8  1  0  0  0  0
  8  7  1  0  0  0  0
  9  4  1  0  0  0  0
 10 12  1  0  0  0  0
 11 10  2  0  0  0  0
 11  6  1  0  0  0  0
 12  7  1  0  0  0  0
 13  2  2  0  0  0  0
 14 13  1  0  0  0  0
 14 16  2  0  0  0  0
 15  3  1  0  0  0  0
 16 17  1  0  0  0  0
 17 15  2  0  0  0  0
 17  1  1  0  0  0  0
 18 27  1  0  0  0  0
 19 26  2  0  0  0  0
 20 21  1  0  0  0  0
 21 22  2  0  0  0  0
 22 18  1  0  0  0  0
 23 24  2  0  0  0  0
 24 19  1  0  0  0  0
 24 22  1  0  0  0  0
 25 23  1  0  0  0  0
 25 20  2  0  0  0  0
 26  9  1  0  0  0  0
 26 27  1  0  0  0  0
 28 20  1  0  0  0  0
 28 30  1  0  0  0  0
 29 28  2  0  0  0  0
 31 34  1  0  0  0  0
 31 33  2  0  0  0  0
 32 31  1  0  0  0  0
 34 13  1  0  0  0  0
M  END
>  <MODEL>
5

>  <REMARK>
 VINA RESULT:      -8.1      3.893      5.520
  Name = 
  3 active torsions:
  status: ('A' for Active; 'I' for Inactive)
    1  A    between atoms: C_7  and  C_11
    2  A    between atoms: C_18  and  C_30
    3  A    between atoms: C_23  and  N_25
                            x       y       z     vdW  Elec       q    Type
                         _______ _______ _______ _____ _____    ______ ____

>  <TORSDO>
F 3

$$$$
=
 OpenBabel11052420313D

 34 39  0  0  0  0  0  0  0  0999 V2000
  185.3570  177.5090  143.2400 N   0  0  0  0  0  0  0  0  0  0  0  0
  182.0560  179.1170  142.5790 C   0  0  0  0  0  3  0  0  0  0  0  0
  183.3540  178.8670  144.6140 O   0  0  0  0  0  0  0  0  0  0  0  0
  187.6180  176.6400  144.6960 C   0  0  0  0  0  3  0  0  0  0  0  0
  186.4170  176.8040  142.5720 C   0  0  0  0  0  3  0  0  0  0  0  0
  186.6720  177.2990  145.3680 C   0  0  0  0  0  0  0  0  0  0  0  0
  186.0230  178.7580  147.2660 C   0  0  0  0  0  2  0  0  0  0  0  0
  186.8110  177.5180  146.8440 C   0  0  0  0  0  2  0  0  0  0  0  0
  187.5020  176.3760  143.2380 C   0  0  0  0  0  0  0  0  0  0  0  0
  184.4880  178.4220  145.3080 C   0  0  0  0  0  0  0  0  0  0  0  0
  185.4630  177.7570  144.6550 C   0  0  0  0  0  0  0  0  0  0  0  0
  184.5710  178.6570  146.7930 C   0  0  0  0  0  2  0  0  0  0  0  0
  181.8990  178.9050  141.2050 C   0  0  0  0  0  0  0  0  0  0  0  0
  182.8970  178.2210  140.4950 C   0  0  0  0  0  3  0  0  0  0  0  0
  183.1980  178.6540  143.2390 C   0  0  0  0  0  0  0  0  0  0  0  0
  184.0410  177.7560  141.1500 C   0  0  0  0  0  3  0  0  0  0  0  0
  184.1960  177.9710  142.5270 C   0  0  0  0  0  0  0  0  0  0  0  0
  190.9350  174.7300  142.5940 C   0  0  0  0  0  2  0  0  0  0  0  0
  188.2700  174.8230  141.5100 C   0  0  0  0  0  3  0  0  0  0  0  0
  191.3270  172.6960  139.4080 C   0  0  0  0  0  0  0  0  0  0  0  0
  191.6270  173.3750  140.5970 C   0  0  0  0  0  3  0  0  0  0  0  0
  190.6310  174.0790  141.2780 C   0  0  0  0  0  0  0  0  0  0  0  0
  189.0090  173.4030  139.6050 C   0  0  0  0  0  3  0  0  0  0  0  0
  189.3160  174.0880  140.7830 C   0  0  0  0  0  0  0  0  0  0  0  0
  190.0110  172.7110  138.9190 C   0  0  0  0  0  3  0  0  0  0  0  0
  188.5770  175.6540  142.5180 C   0  0  0  0  0  0  0  0  0  0  0  0
  190.0310  175.9460  142.8270 C   0  0  0  0  0  2  0  0  0  0  0  0
  192.3820  171.9640  138.6890 C   0  0  0  0  0  0  0  0  0  0  0  0
  192.1350  171.4080  137.5860 O   0  0  0  0  0  0  0  0  0  0  0  0
  193.6630  171.8790  139.2220 O   0  0  0  0  0  1  0  0  0  0  0  0
  179.4260  178.7640  140.5440 C   0  0  0  0  0  0  0  0  0  0  0  0
  178.3050  179.4240  139.8250 C   0  0  0  0  0  1  0  0  0  0  0  0
  179.2270  177.6640  141.1210 O   0  0  0  0  0  0  0  0  0  0  0  0
  180.7130  179.3960  140.5650 N   0  0  0  0  0  2  0  0  0  0  0  0
  1 11  1  0  0  0  0
  2 15  1  0  0  0  0
  3 10  1  0  0  0  0
  4  6  2  0  0  0  0
  5  9  2  0  0  0  0
  5  1  1  0  0  0  0
  6  8  1  0  0  0  0
  8  7  1  0  0  0  0
  9  4  1  0  0  0  0
 10 12  1  0  0  0  0
 11 10  2  0  0  0  0
 11  6  1  0  0  0  0
 12  7  1  0  0  0  0
 13  2  2  0  0  0  0
 14 16  2  0  0  0  0
 14 13  1  0  0  0  0
 15  3  1  0  0  0  0
 16 17  1  0  0  0  0
 17 15  2  0  0  0  0
 17  1  1  0  0  0  0
 18 27  1  0  0  0  0
 19 26  2  0  0  0  0
 20 21  1  0  0  0  0
 21 22  2  0  0  0  0
 22 18  1  0  0  0  0
 23 24  2  0  0  0  0
 24 22  1  0  0  0  0
 24 19  1  0  0  0  0
 25 20  2  0  0  0  0
 25 23  1  0  0  0  0
 26 27  1  0  0  0  0
 26  9  1  0  0  0  0
 28 30  1  0  0  0  0
 28 20  1  0  0  0  0
 29 28  2  0  0  0  0
 31 34  1  0  0  0  0
 31 33  2  0  0  0  0
 32 31  1  0  0  0  0
 34 13  1  0  0  0  0
M  END
>  <MODEL>
6

>  <REMARK>
 VINA RESULT:      -8.1      4.695     11.328
  Name = 
  3 active torsions:
  status: ('A' for Active; 'I' for Inactive)
    1  A    between atoms: C_7  and  C_11
    2  A    between atoms: C_18  and  C_30
    3  A    between atoms: C_23  and  N_25
                            x       y       z     vdW  Elec       q    Type
                         _______ _______ _______ _____ _____    ______ ____

>  <TORSDO>
F 3

$$$$
=
 OpenBabel11052420313D

 34 39  0  0  0  0  0  0  0  0999 V2000
  193.1100  173.6520  143.1170 N   0  0  0  0  0  0  0  0  0  0  0  0
  194.6750  171.7230  140.3340 C   0  0  0  0  0  3  0  0  0  0  0  0
  195.6200  172.7570  142.3160 O   0  0  0  0  0  0  0  0  0  0  0  0
  192.9240  175.1130  145.5290 C   0  0  0  0  0  3  0  0  0  0  0  0
  191.8330  174.1340  143.5710 C   0  0  0  0  0  3  0  0  0  0  0  0
  194.1330  174.6830  145.1650 C   0  0  0  0  0  0  0  0  0  0  0  0
  196.4210  173.9590  145.7920 C   0  0  0  0  0  2  0  0  0  0  0  0
  195.3330  175.0110  146.0000 C   0  0  0  0  0  2  0  0  0  0  0  0
  191.7150  174.8340  144.7120 C   0  0  0  0  0  0  0  0  0  0  0  0
  195.4940  173.4850  143.5070 C   0  0  0  0  0  0  0  0  0  0  0  0
  194.2840  173.9310  143.9030 C   0  0  0  0  0  0  0  0  0  0  0  0
  196.7340  173.8000  144.3020 C   0  0  0  0  0  2  0  0  0  0  0  0
  193.5710  171.4230  139.5300 C   0  0  0  0  0  0  0  0  0  0  0  0
  192.2960  171.8670  139.9170 C   0  0  0  0  0  3  0  0  0  0  0  0
  194.5130  172.4570  141.5130 C   0  0  0  0  0  0  0  0  0  0  0  0
  192.1290  172.6000  141.0940 C   0  0  0  0  0  3  0  0  0  0  0  0
  193.2380  172.9000  141.8980 C   0  0  0  0  0  0  0  0  0  0  0  0
  188.6570  175.3850  147.0040 C   0  0  0  0  0  2  0  0  0  0  0  0
  189.8430  176.4050  144.5880 C   0  0  0  0  0  3  0  0  0  0  0  0
  186.0140  177.8500  145.8280 C   0  0  0  0  0  0  0  0  0  0  0  0
  186.6710  176.8600  146.5710 C   0  0  0  0  0  3  0  0  0  0  0  0
  187.9170  176.3800  146.1600 C   0  0  0  0  0  0  0  0  0  0  0  0
  187.8820  177.9040  144.2730 C   0  0  0  0  0  3  0  0  0  0  0  0
  188.5270  176.9080  145.0100 C   0  0  0  0  0  0  0  0  0  0  0  0
  186.6290  178.3710  144.6790 C   0  0  0  0  0  3  0  0  0  0  0  0
  190.3830  175.3140  145.1510 C   0  0  0  0  0  0  0  0  0  0  0  0
  189.5700  174.5060  146.1420 C   0  0  0  0  0  2  0  0  0  0  0  0
  184.6970  178.3460  146.2610 C   0  0  0  0  0  0  0  0  0  0  0  0
  183.8430  178.7140  145.4110 O   0  0  0  0  0  0  0  0  0  0  0  0
  184.3830  178.4120  147.6130 O   0  0  0  0  0  1  0  0  0  0  0  0
  193.9480  171.1920  137.0050 C   0  0  0  0  0  0  0  0  0  0  0  0
  194.1540  170.2530  135.8720 C   0  0  0  0  0  1  0  0  0  0  0  0
  193.9260  172.4310  136.7840 O   0  0  0  0  0  0  0  0  0  0  0  0
  193.7790  170.6680  138.3280 N   0  0  0  0  0  2  0  0  0  0  0  0
  1  5  1  0  0  0  0
  1 11  1  0  0  0  0
  2 15  1  0  0  0  0
  3 10  1  0  0  0  0
  5  9  2  0  0  0  0
  6  4  2  0  0  0  0
  6  8  1  0  0  0  0
  7  8  1  0  0  0  0
  9 26  1  0  0  0  0
  9  4  1  0  0  0  0
 10 11  2  0  0  0  0
 10 12  1  0  0  0  0
 11  6  1  0  0  0  0
 12  7  1  0  0  0  0
 13 14  1  0  0  0  0
 13  2  2  0  0  0  0
 14 16  2  0  0  0  0
 15 17  2  0  0  0  0
 15  3  1  0  0  0  0
 16 17  1  0  0  0  0
 17  1  1  0  0  0  0
 19 24  1  0  0  0  0
 19 26  2  0  0  0  0
 20 28  1  0  0  0  0
 20 21  1  0  0  0  0
 22 21  2  0  0  0  0
 22 18  1  0  0  0  0
 23 25  1  0  0  0  0
 23 24  2  0  0  0  0
 24 22  1  0  0  0  0
 25 20  2  0  0  0  0
 26 27  1  0  0  0  0
 27 18  1  0  0  0  0
 28 30  1  0  0  0  0
 29 28  2  0  0  0  0
 31 34  1  0  0  0  0
 32 31  1  0  0  0  0
 33 31  2  0  0  0  0
 34 13  1  0  0  0  0
M  END
>  <MODEL>
7

>  <REMARK>
 VINA RESULT:      -7.9      2.298      2.785
  Name = 
  3 active torsions:
  status: ('A' for Active; 'I' for Inactive)
    1  A    between atoms: C_7  and  C_11
    2  A    between atoms: C_18  and  C_30
    3  A    between atoms: C_23  and  N_25
                            x       y       z     vdW  Elec       q    Type
                         _______ _______ _______ _____ _____    ______ ____

>  <TORSDO>
F 3

$$$$
=
 OpenBabel11052420313D

 34 39  0  0  0  0  0  0  0  0999 V2000
  188.8940  175.7100  142.3130 N   0  0  0  0  0  0  0  0  0  0  0  0
  191.2620  173.4840  140.4820 C   0  0  0  0  0  3  0  0  0  0  0  0
  191.5170  174.8020  142.5030 O   0  0  0  0  0  0  0  0  0  0  0  0
  187.9450  177.4710  144.3100 C   0  0  0  0  0  3  0  0  0  0  0  0
  187.5450  176.2050  142.2560 C   0  0  0  0  0  3  0  0  0  0  0  0
  189.2020  177.0370  144.4220 C   0  0  0  0  0  0  0  0  0  0  0  0
  191.1510  176.4810  145.8520 C   0  0  0  0  0  2  0  0  0  0  0  0
  190.0660  177.5130  145.5500 C   0  0  0  0  0  2  0  0  0  0  0  0
  187.0670  177.0450  143.1890 C   0  0  0  0  0  0  0  0  0  0  0  0
  191.0170  175.6770  143.4770 C   0  0  0  0  0  0  0  0  0  0  0  0
  189.7500  176.1300  143.3930 C   0  0  0  0  0  0  0  0  0  0  0  0
  191.9320  176.1360  144.5820 C   0  0  0  0  0  2  0  0  0  0  0  0
  190.4780  173.0430  139.4110 C   0  0  0  0  0  0  0  0  0  0  0  0
  189.1520  173.4900  139.2970 C   0  0  0  0  0  3  0  0  0  0  0  0
  190.7310  174.3620  141.4320 C   0  0  0  0  0  0  0  0  0  0  0  0
  188.6170  174.3680  140.2430 C   0  0  0  0  0  3  0  0  0  0  0  0
  189.4050  174.8080  141.3170 C   0  0  0  0  0  0  0  0  0  0  0  0
  183.8480  178.9520  144.1430 C   0  0  0  0  0  2  0  0  0  0  0  0
  185.0510  177.5860  141.9120 C   0  0  0  0  0  3  0  0  0  0  0  0
  181.0300  179.0070  141.5930 C   0  0  0  0  0  0  0  0  0  0  0  0
  181.7450  179.1710  142.7870 C   0  0  0  0  0  3  0  0  0  0  0  0
  183.0560  178.6970  142.8960 C   0  0  0  0  0  0  0  0  0  0  0  0
  182.9640  177.9200  140.5990 C   0  0  0  0  0  3  0  0  0  0  0  0
  183.6680  178.0740  141.7950 C   0  0  0  0  0  0  0  0  0  0  0  0
  181.6490  178.3830  140.4990 C   0  0  0  0  0  3  0  0  0  0  0  0
  185.6710  177.5340  143.1010 C   0  0  0  0  0  0  0  0  0  0  0  0
  184.8940  177.8530  144.3620 C   0  0  0  0  0  2  0  0  0  0  0  0
  179.6470  179.5000  141.4870 C   0  0  0  0  0  0  0  0  0  0  0  0
  178.7910  179.1890  142.3580 O   0  0  0  0  0  1  0  0  0  0  0  0
  179.2730  180.3150  140.4260 O   0  0  0  0  0  0  0  0  0  0  0  0
  190.5460  170.8650  138.0610 C   0  0  0  0  0  0  0  0  0  0  0  0
  191.2880  170.0640  137.0530 C   0  0  0  0  0  1  0  0  0  0  0  0
  189.4800  170.4070  138.5490 O   0  0  0  0  0  0  0  0  0  0  0  0
  191.0600  172.1430  138.4570 N   0  0  0  0  0  2  0  0  0  0  0  0
  1 11  1  0  0  0  0
  2 15  1  0  0  0  0
  3 10  1  0  0  0  0
  4  6  2  0  0  0  0
  5  1  1  0  0  0  0
  5  9  2  0  0  0  0
  6  8  1  0  0  0  0
  8  7  1  0  0  0  0
  9  4  1  0  0  0  0
 10 12  1  0  0  0  0
 11 10  2  0  0  0  0
 11  6  1  0  0  0  0
 12  7  1  0  0  0  0
 13  2  2  0  0  0  0
 14 13  1  0  0  0  0
 14 16  2  0  0  0  0
 15  3  1  0  0  0  0
 16 17  1  0  0  0  0
 17 15  2  0  0  0  0
 17  1  1  0  0  0  0
 18 27  1  0  0  0  0
 19 26  2  0  0  0  0
 20 21  1  0  0  0  0
 21 22  2  0  0  0  0
 22 18  1  0  0  0  0
 23 24  2  0  0  0  0
 24 19  1  0  0  0  0
 24 22  1  0  0  0  0
 25 23  1  0  0  0  0
 25 20  2  0  0  0  0
 26  9  1  0  0  0  0
 26 27  1  0  0  0  0
 28 20  1  0  0  0  0
 28 29  1  0  0  0  0
 30 28  2  0  0  0  0
 31 34  1  0  0  0  0
 31 33  2  0  0  0  0
 32 31  1  0  0  0  0
 34 13  1  0  0  0  0
M  END
>  <MODEL>
8

>  <REMARK>
 VINA RESULT:      -7.7      4.175      6.020
  Name = 
  3 active torsions:
  status: ('A' for Active; 'I' for Inactive)
    1  A    between atoms: C_7  and  C_11
    2  A    between atoms: C_18  and  C_30
    3  A    between atoms: C_23  and  N_25
                            x       y       z     vdW  Elec       q    Type
                         _______ _______ _______ _____ _____    ______ ____

>  <TORSDO>
F 3

$$$$
=
 OpenBabel11052420313D

 34 39  0  0  0  0  0  0  0  0999 V2000
  192.2130  172.6160  142.7360 N   0  0  0  0  0  0  0  0  0  0  0  0
  195.1350  170.5610  143.8110 C   0  0  0  0  0  3  0  0  0  0  0  0
  194.1230  170.9180  141.6350 O   0  0  0  0  0  0  0  0  0  0  0  0
  190.3030  173.7750  141.0050 C   0  0  0  0  0  3  0  0  0  0  0  0
  191.2080  173.5000  143.2610 C   0  0  0  0  0  3  0  0  0  0  0  0
  191.2180  172.9710  140.4590 C   0  0  0  0  0  0  0  0  0  0  0  0
  192.5830  172.3100  138.4960 C   0  0  0  0  0  2  0  0  0  0  0  0
  191.1850  172.6800  138.9900 C   0  0  0  0  0  2  0  0  0  0  0  0
  190.2860  174.0630  142.4620 C   0  0  0  0  0  0  0  0  0  0  0  0
  193.1610  171.5080  140.8030 C   0  0  0  0  0  0  0  0  0  0  0  0
  192.2260  172.3270  141.3250 C   0  0  0  0  0  0  0  0  0  0  0  0
  193.1640  171.1710  139.3350 C   0  0  0  0  0  2  0  0  0  0  0  0
  195.1720  170.8040  145.1880 C   0  0  0  0  0  0  0  0  0  0  0  0
  194.2170  171.6570  145.7630 C   0  0  0  0  0  3  0  0  0  0  0  0
  194.1580  171.1620  143.0130 C   0  0  0  0  0  0  0  0  0  0  0  0
  193.2370  172.2610  144.9700 C   0  0  0  0  0  3  0  0  0  0  0  0
  193.2030  172.0160  143.5890 C   0  0  0  0  0  0  0  0  0  0  0  0
  186.9830  176.0410  142.7690 C   0  0  0  0  0  2  0  0  0  0  0  0
  189.2270  175.1910  144.3590 C   0  0  0  0  0  3  0  0  0  0  0  0
  186.2920  177.7850  146.0730 C   0  0  0  0  0  0  0  0  0  0  0  0
  186.1830  177.3810  144.7360 C   0  0  0  0  0  3  0  0  0  0  0  0
  187.1480  176.5420  144.1720 C   0  0  0  0  0  0  0  0  0  0  0  0
  188.3250  176.4710  146.2920 C   0  0  0  0  0  3  0  0  0  0  0  0
  188.2200  176.0810  144.9550 C   0  0  0  0  0  0  0  0  0  0  0  0
  187.3660  177.3220  146.8490 C   0  0  0  0  0  3  0  0  0  0  0  0
  189.2650  174.9720  143.0360 C   0  0  0  0  0  0  0  0  0  0  0  0
  188.3450  175.7570  142.1230 C   0  0  0  0  0  2  0  0  0  0  0  0
  185.2780  178.6770  146.6590 C   0  0  0  0  0  0  0  0  0  0  0  0
  185.5670  179.4160  147.6380 O   0  0  0  0  0  1  0  0  0  0  0  0
  183.9900  178.7120  146.1370 O   0  0  0  0  0  0  0  0  0  0  0  0
  196.0130  169.0800  146.8880 C   0  0  0  0  0  0  0  0  0  0  0  0
  197.1910  168.5460  147.6190 C   0  0  0  0  0  1  0  0  0  0  0  0
  194.8800  168.5680  147.0850 O   0  0  0  0  0  0  0  0  0  0  0  0
  196.1910  170.1680  145.9730 N   0  0  0  0  0  2  0  0  0  0  0  0
  1  5  1  0  0  0  0
  1 17  1  0  0  0  0
  2 13  1  0  0  0  0
  3 15  1  0  0  0  0
  4  9  1  0  0  0  0
  6  4  2  0  0  0  0
  6 11  1  0  0  0  0
  7  8  1  0  0  0  0
  7 12  1  0  0  0  0
  8  6  1  0  0  0  0
  9 26  1  0  0  0  0
  9  5  2  0  0  0  0
 10 11  2  0  0  0  0
 10  3  1  0  0  0  0
 11  1  1  0  0  0  0
 12 10  1  0  0  0  0
 13 14  2  0  0  0  0
 13 34  1  0  0  0  0
 15 17  1  0  0  0  0
 15  2  2  0  0  0  0
 16 14  1  0  0  0  0
 17 16  2  0  0  0  0
 18 22  1  0  0  0  0
 19 24  1  0  0  0  0
 20 28  1  0  0  0  0
 20 25  1  0  0  0  0
 21 20  2  0  0  0  0
 22 21  1  0  0  0  0
 22 24  2  0  0  0  0
 23 25  2  0  0  0  0
 24 23  1  0  0  0  0
 26 19  2  0  0  0  0
 27 18  1  0  0  0  0
 27 26  1  0  0  0  0
 28 29  1  0  0  0  0
 30 28  2  0  0  0  0
 31 33  2  0  0  0  0
 31 32  1  0  0  0  0
 34 31  1  0  0  0  0
M  END
>  <MODEL>
9

>  <REMARK>
 VINA RESULT:      -7.7      3.553      5.906
  Name = 
  3 active torsions:
  status: ('A' for Active; 'I' for Inactive)
    1  A    between atoms: C_7  and  C_11
    2  A    between atoms: C_18  and  C_30
    3  A    between atoms: C_23  and  N_25
                            x       y       z     vdW  Elec       q    Type
                         _______ _______ _______ _____ _____    ______ ____

>  <TORSDO>
F 3

$$$$
