=
 OpenBabel11052419353D

 55 60  0  0  1  0  0  0  0  0999 V2000
  193.9840  173.3720  142.2370 C   0  0  2  0  0  3  0  0  0  0  0  0
  188.5710  174.8490  143.3500 C   0  0  0  0  0  2  0  0  0  0  0  0
  188.1430  172.1780  142.3910 O   0  0  0  0  0  1  0  0  0  0  0  0
  189.2800  176.3100  145.2190 C   0  0  1  0  0  3  0  0  0  0  0  0
  189.7900  170.4740  138.2810 C   0  0  0  0  0  2  0  0  0  0  0  0
  190.3660  169.9810  137.0830 O   0  0  0  0  0  0  0  0  0  0  0  0
  192.0430  171.0260  139.1520 C   0  0  2  0  0  3  0  0  0  0  0  0
  192.2870  169.8260  138.4440 O   0  0  0  0  0  0  0  0  0  0  0  0
  188.7400  172.7330  140.1290 C   0  0  0  0  0  2  0  0  0  0  0  0
  191.7860  169.9770  137.1320 C   0  0  0  0  0  2  0  0  0  0  0  0
  195.8670  174.7560  143.1770 C   0  0  0  0  0  2  0  0  0  0  0  0
  190.6260  171.5710  138.9430 C   0  0  2  0  0  3  0  0  0  0  0  0
  193.8740  176.0690  144.8170 C   0  0  0  0  0  0  0  0  0  0  0  0
  192.6060  173.4680  141.6160 C   0  0  0  0  0  2  0  0  0  0  0  0
  193.5400  175.0200  144.0560 C   0  0  0  0  0  3  0  0  0  0  0  0
  194.0480  172.2050  140.0290 C   0  0  2  0  0  3  0  0  0  0  0  0
  189.2320  176.1640  143.7090 C   0  0  0  0  0  2  0  0  0  0  0  0
  193.0980  172.0790  138.8480 C   0  0  0  0  0  2  0  0  0  0  0  0
  189.0790  174.3650  142.0040 C   0  0  0  0  0  2  0  0  0  0  0  0
  188.2120  173.2300  141.4720 C   0  0  2  0  0  3  0  0  0  0  0  0
  196.2620  175.9120  144.1240 C   0  0  0  0  0  2  0  0  0  0  0  0
  190.6590  175.9910  145.7180 C   0  0  0  0  0  3  0  0  0  0  0  0
  194.3690  174.7120  142.8420 C   0  0  2  0  0  3  0  0  0  0  0  0
  190.0380  171.9520  140.2900 C   0  0  0  0  0  2  0  0  0  0  0  0
  193.8360  173.5430  140.7350 C   0  0  2  0  0  3  0  0  0  0  0  0
  191.6770  176.8420  145.5750 C   0  0  0  0  0  3  0  0  0  0  0  0
  193.0510  176.4480  146.0090 C   0  0  0  0  0  2  0  0  0  0  0  0
  195.1040  176.8590  144.4660 C   0  0  0  0  0  2  0  0  0  0  0  0
  196.0840  173.3060  139.0030 C   0  0  0  0  0  2  0  0  0  0  0  0
  197.3900  172.3050  137.4720 C   0  0  2  0  0  3  0  0  0  0  0  0
  195.6490  170.8250  138.5940 C   0  0  0  0  0  2  0  0  0  0  0  0
  196.9930  170.8660  137.8630 C   0  0  0  0  0  2  0  0  0  0  0  0
  196.3130  173.1980  137.6200 O   0  0  0  0  0  0  0  0  0  0  0  0
  195.4960  172.0030  139.5700 C   0  0  2  0  0  3  0  0  0  0  0  0
  197.9410  172.3840  136.0520 C   0  0  2  0  0  3  0  0  0  0  0  0
  197.5170  173.5530  135.4180 O   0  0  0  0  0  1  0  0  0  0  0  0
  197.5280  171.1730  135.2360 C   0  0  0  0  0  1  0  0  0  0  0  0
  188.8840  177.6600  145.6020 N   0  0  0  0  0  2  0  0  0  0  0  0
  187.0590  176.1340  146.7800 O   0  0  0  0  0  0  0  0  0  0  0  0
  187.3670  177.5660  146.4390 S   0  0  0  0  0  0  0  0  0  0  0  0
  187.4780  178.3630  147.7060 O   0  0  0  0  0  0  0  0  0  0  0  0
  186.0760  178.2300  145.4310 C   0  0  0  0  0  0  0  0  0  0  0  0
  185.0280  178.5730  145.9520 O   0  0  0  0  0  0  0  0  0  0  0  0
  185.9450  179.8220  143.5220 C   0  0  0  0  0  1  0  0  0  0  0  0
  186.2290  178.3860  143.9430 C   0  0  2  0  0  3  0  0  0  0  0  0
  183.4330  178.2500  141.9860 C   0  0  0  0  0  0  0  0  0  0  0  0
  185.6170  176.0760  143.7340 O   0  0  0  0  0  1  0  0  0  0  0  0
  181.9720  178.5180  142.0460 C   0  0  0  0  0  1  0  0  0  0  0  0
  186.0260  177.1900  141.6800 C   0  0  1  0  0  3  0  0  0  0  0  0
  184.1110  178.5690  140.8830 C   0  0  0  0  0  3  0  0  0  0  0  0
  185.4650  177.3200  143.1160 C   0  0  2  0  0  0  0  0  0  0  0  0
  185.5920  178.3610  140.8000 C   0  0  0  0  0  2  0  0  0  0  0  0
  184.0650  177.6300  143.0740 O   0  0  0  0  0  0  0  0  0  0  0  0
  187.4200  177.0810  141.6850 O   0  0  0  0  0  0  0  0  0  0  0  0
  187.8500  177.9370  140.6700 C   0  0  0  0  0  1  0  0  0  0  0  0
  1 14  1  1  0  0  0
  1 23  1  0  0  0  0
  2 17  1  0  0  0  0
  4 38  1  6  0  0  0
  4 22  1  0  0  0  0
  6 10  1  0  0  0  0
  6  5  1  0  0  0  0
  7 18  1  6  0  0  0
  8  7  1  0  0  0  0
  9 24  1  0  0  0  0
  9 20  1  0  0  0  0
 10  8  1  0  0  0  0
 11 21  1  0  0  0  0
 12  5  1  1  0  0  0
 12  7  1  0  0  0  0
 12 24  1  0  0  0  0
 13 27  1  0  0  0  0
 15 13  2  0  0  0  0
 16 18  1  6  0  0  0
 16 25  1  0  0  0  0
 17  4  1  0  0  0  0
 19  2  1  0  0  0  0
 20 19  1  0  0  0  0
 20  3  1  1  0  0  0
 21 28  1  0  0  0  0
 23 11  1  1  0  0  0
 23 15  1  0  0  0  0
 25 14  1  1  0  0  0
 25  1  1  0  0  0  0
 26 22  2  0  0  0  0
 26 27  1  0  0  0  0
 28 13  1  0  0  0  0
 29 34  1  0  0  0  0
 30 35  1  6  0  0  0
 30 33  1  0  0  0  0
 30 32  1  0  0  0  0
 32 31  1  0  0  0  0
 33 29  1  0  0  0  0
 34 31  1  6  0  0  0
 34 16  1  0  0  0  0
 35 37  1  6  0  0  0
 36 35  1  0  0  0  0
 38 40  1  0  0  0  0
 40 39  2  0  0  0  0
 40 41  2  0  0  0  0
 42 43  2  0  0  0  0
 42 40  1  0  0  0  0
 45 44  1  6  0  0  0
 45 42  1  0  0  0  0
 46 48  1  0  0  0  0
 46 53  1  0  0  0  0
 49 54  1  1  0  0  0
 49 51  1  0  0  0  0
 50 46  2  0  0  0  0
 51 47  1  1  0  0  0
 51 45  1  0  0  0  0
 52 50  1  0  0  0  0
 52 49  1  0  0  0  0
 53 51  1  0  0  0  0
 55 54  1  0  0  0  0
M  END
>  <MODEL>
1

>  <REMARK>
 VINA RESULT:      -7.7      0.000      0.000
  Name = 
  8 active torsions:
  status: ('A' for Active; 'I' for Inactive)
    1  A    between atoms: C_6  and  C_14
    2  A    between atoms: C_6  and  S_20
    3  A    between atoms: C_8  and  N_22
    4  A    between atoms: C_10  and  C_32
    5  A    between atoms: O_11  and  C_29
    6  A    between atoms: C_14  and  C_38
    7  A    between atoms: S_20  and  N_22
    8  A    between atoms: C_33  and  C_52
                            x       y       z     vdW  Elec       q    Type
                         _______ _______ _______ _____ _____    ______ ____

>  <TORSDO>
F 8

$$$$
=
 OpenBabel11052419353D

 55 60  0  0  1  0  0  0  0  0999 V2000
  186.8560  175.8470  141.0060 C   0  0  2  0  0  3  0  0  0  0  0  0
  191.4970  173.4510  143.3390 C   0  0  0  0  0  2  0  0  0  0  0  0
  189.7960  173.5270  145.6480 O   0  0  0  0  0  1  0  0  0  0  0  0
  192.0790  172.3350  141.2060 C   0  0  1  0  0  3  0  0  0  0  0  0
  187.5440  177.3890  147.2350 C   0  0  0  0  0  2  0  0  0  0  0  0
  186.8280  178.5470  147.6290 O   0  0  0  0  0  0  0  0  0  0  0  0
  186.4530  177.4570  145.0110 C   0  0  2  0  0  3  0  0  0  0  0  0
  185.4090  177.8850  145.8650 O   0  0  0  0  0  0  0  0  0  0  0  0
  189.8840  175.9230  145.8210 C   0  0  0  0  0  2  0  0  0  0  0  0
  185.8890  178.9590  146.6460 C   0  0  0  0  0  2  0  0  0  0  0  0
  186.6320  175.9380  138.4990 C   0  0  0  0  0  2  0  0  0  0  0  0
  187.8010  177.3260  145.7280 C   0  0  2  0  0  3  0  0  0  0  0  0
  188.8860  174.1240  138.3890 C   0  0  0  0  0  0  0  0  0  0  0  0
  187.8520  175.9940  142.1390 C   0  0  0  0  0  2  0  0  0  0  0  0
  188.3370  174.4510  139.5650 C   0  0  0  0  0  3  0  0  0  0  0  0
  185.9970  177.5950  142.5720 C   0  0  2  0  0  3  0  0  0  0  0  0
  192.0420  173.6630  141.9410 C   0  0  0  0  0  2  0  0  0  0  0  0
  186.5600  178.3370  143.7750 C   0  0  0  0  0  2  0  0  0  0  0  0
  190.8370  174.7240  143.8350 C   0  0  0  0  0  2  0  0  0  0  0  0
  190.5680  174.6500  145.3320 C   0  0  2  0  0  3  0  0  0  0  0  0
  187.2160  175.4870  137.1410 C   0  0  0  0  0  2  0  0  0  0  0  0
  190.9170  172.2440  140.2600 C   0  0  0  0  0  3  0  0  0  0  0  0
  187.5940  175.7510  139.6820 C   0  0  2  0  0  3  0  0  0  0  0  0
  188.4370  176.0000  145.3490 C   0  0  0  0  0  2  0  0  0  0  0  0
  187.1240  177.2130  141.6130 C   0  0  2  0  0  3  0  0  0  0  0  0
  190.8920  172.9140  139.1060 C   0  0  0  0  0  3  0  0  0  0  0  0
  189.6800  172.8640  138.2340 C   0  0  0  0  0  2  0  0  0  0  0  0
  188.6820  175.0370  137.2130 C   0  0  0  0  0  2  0  0  0  0  0  0
  183.7210  178.6690  142.8460 C   0  0  0  0  0  2  0  0  0  0  0  0
  182.1490  178.6620  141.2400 C   0  0  2  0  0  3  0  0  0  0  0  0
  184.4560  177.8400  140.5470 C   0  0  0  0  0  2  0  0  0  0  0  0
  183.1360  178.4520  140.0730 C   0  0  0  0  0  2  0  0  0  0  0  0
  182.5710  177.9920  142.4030 O   0  0  0  0  0  0  0  0  0  0  0  0
  184.9050  178.4310  141.8950 C   0  0  2  0  0  3  0  0  0  0  0  0
  180.7310  178.2330  140.8780 C   0  0  2  0  0  3  0  0  0  0  0  0
  180.0980  179.2090  140.1070 O   0  0  0  0  0  1  0  0  0  0  0  0
  179.9110  177.9440  142.1210 C   0  0  0  0  0  1  0  0  0  0  0  0
  193.3440  172.1920  140.4970 N   0  0  0  0  0  2  0  0  0  0  0  0
  193.7430  170.7840  142.7120 O   0  0  0  0  0  0  0  0  0  0  0  0
  194.4730  171.4020  141.5510 S   0  0  0  0  0  0  0  0  0  0  0  0
  195.1680  170.3220  140.7730 O   0  0  0  0  0  0  0  0  0  0  0  0
  195.6630  172.5640  142.1460 C   0  0  0  0  0  0  0  0  0  0  0  0
  196.8510  172.3060  142.0480 O   0  0  0  0  0  0  0  0  0  0  0  0
  195.2940  174.9930  141.7460 C   0  0  0  0  0  1  0  0  0  0  0  0
  195.2560  173.8700  142.7730 C   0  0  2  0  0  3  0  0  0  0  0  0
  194.9090  176.0360  145.3910 C   0  0  0  0  0  0  0  0  0  0  0  0
  197.3660  173.9570  143.9110 O   0  0  0  0  0  1  0  0  0  0  0  0
  194.8190  177.4910  145.6760 C   0  0  0  0  0  1  0  0  0  0  0  0
  195.5320  173.2910  145.2590 C   0  0  1  0  0  3  0  0  0  0  0  0
  194.1390  175.1870  146.0740 C   0  0  0  0  0  3  0  0  0  0  0  0
  196.0020  174.1930  144.0940 C   0  0  2  0  0  0  0  0  0  0  0  0
  194.1620  173.7180  145.7840 C   0  0  0  0  0  2  0  0  0  0  0  0
  195.8290  175.5750  144.4380 O   0  0  0  0  0  0  0  0  0  0  0  0
  195.5050  171.9440  144.8820 O   0  0  0  0  0  0  0  0  0  0  0  0
  196.3050  171.2930  145.8230 C   0  0  0  0  0  1  0  0  0  0  0  0
  1 25  1  0  0  0  0
  1 14  1  1  0  0  0
  2 19  1  0  0  0  0
  4 38  1  6  0  0  0
  4 17  1  0  0  0  0
  5  6  1  0  0  0  0
  7 18  1  6  0  0  0
  7 12  1  0  0  0  0
  7  8  1  0  0  0  0
  8 10  1  0  0  0  0
 10  6  1  0  0  0  0
 12 24  1  1  0  0  0
 12  5  1  0  0  0  0
 13 15  2  0  0  0  0
 15 23  1  0  0  0  0
 16 18  1  1  0  0  0
 17  2  1  0  0  0  0
 19 20  1  0  0  0  0
 20  3  1  6  0  0  0
 20  9  1  0  0  0  0
 21 28  1  0  0  0  0
 21 11  1  0  0  0  0
 22  4  1  0  0  0  0
 23 11  1  6  0  0  0
 23  1  1  0  0  0  0
 24  9  1  0  0  0  0
 25 14  1  1  0  0  0
 25 16  1  0  0  0  0
 26 22  2  0  0  0  0
 27 13  1  0  0  0  0
 27 26  1  0  0  0  0
 28 13  1  0  0  0  0
 30 35  1  6  0  0  0
 30 33  1  0  0  0  0
 32 31  1  0  0  0  0
 32 30  1  0  0  0  0
 33 29  1  0  0  0  0
 34 31  1  6  0  0  0
 34 16  1  0  0  0  0
 34 29  1  0  0  0  0
 35 37  1  1  0  0  0
 36 35  1  0  0  0  0
 38 40  1  0  0  0  0
 40 42  1  0  0  0  0
 40 39  2  0  0  0  0
 41 40  2  0  0  0  0
 42 45  1  0  0  0  0
 43 42  2  0  0  0  0
 45 44  1  6  0  0  0
 45 51  1  0  0  0  0
 46 48  1  0  0  0  0
 46 50  2  0  0  0  0
 49 54  1  6  0  0  0
 49 52  1  0  0  0  0
 51 47  1  6  0  0  0
 51 53  1  0  0  0  0
 51 49  1  0  0  0  0
 52 50  1  0  0  0  0
 53 46  1  0  0  0  0
 54 55  1  0  0  0  0
M  END
>  <MODEL>
2

>  <REMARK>
 VINA RESULT:      -7.2      3.389     11.222
  Name = 
  8 active torsions:
  status: ('A' for Active; 'I' for Inactive)
    1  A    between atoms: C_6  and  C_14
    2  A    between atoms: C_6  and  S_20
    3  A    between atoms: C_8  and  N_22
    4  A    between atoms: C_10  and  C_32
    5  A    between atoms: O_11  and  C_29
    6  A    between atoms: C_14  and  C_38
    7  A    between atoms: S_20  and  N_22
    8  A    between atoms: C_33  and  C_52
                            x       y       z     vdW  Elec       q    Type
                         _______ _______ _______ _____ _____    ______ ____

>  <TORSDO>
F 8

$$$$
=
 OpenBabel11052419353D

 55 60  0  0  1  0  0  0  0  0999 V2000
  187.1270  175.6070  141.8740 C   0  0  2  0  0  3  0  0  0  0  0  0
  191.2650  173.6870  145.3250 C   0  0  0  0  0  2  0  0  0  0  0  0
  189.2080  174.1560  147.2710 O   0  0  0  0  0  1  0  0  0  0  0  0
  192.1640  172.2180  143.5460 C   0  0  1  0  0  3  0  0  0  0  0  0
  186.8150  178.2210  147.7650 C   0  0  0  0  0  2  0  0  0  0  0  0
  186.0700  179.4260  147.8280 O   0  0  0  0  0  0  0  0  0  0  0  0
  186.1070  177.8920  145.4130 C   0  0  2  0  0  3  0  0  0  0  0  0
  184.9470  178.4560  145.9940 O   0  0  0  0  0  0  0  0  0  0  0  0
  189.3210  176.5460  147.0370 C   0  0  0  0  0  2  0  0  0  0  0  0
  185.3160  179.6540  146.6460 C   0  0  0  0  0  2  0  0  0  0  0  0
  187.3220  175.2560  139.3870 C   0  0  0  0  0  2  0  0  0  0  0  0
  187.3150  177.8970  146.3560 C   0  0  2  0  0  3  0  0  0  0  0  0
  189.5200  173.4650  139.9700 C   0  0  0  0  0  0  0  0  0  0  0  0
  187.9260  175.9560  143.1130 C   0  0  0  0  0  2  0  0  0  0  0  0
  188.7930  173.9900  140.9640 C   0  0  0  0  0  3  0  0  0  0  0  0
  186.0620  177.5960  142.9460 C   0  0  2  0  0  3  0  0  0  0  0  0
  192.0370  173.6540  144.0230 C   0  0  0  0  0  2  0  0  0  0  0  0
  186.4360  178.5410  144.0780 C   0  0  0  0  0  2  0  0  0  0  0  0
  190.5610  175.0230  145.4760 C   0  0  0  0  0  2  0  0  0  0  0  0
  190.0470  175.2110  146.8980 C   0  0  2  0  0  3  0  0  0  0  0  0
  188.1100  174.5780  138.2440 C   0  0  0  0  0  2  0  0  0  0  0  0
  191.1720  171.9560  142.4510 C   0  0  0  0  0  3  0  0  0  0  0  0
  188.0710  175.2850  140.7270 C   0  0  2  0  0  3  0  0  0  0  0  0
  187.9740  176.5290  146.3250 C   0  0  0  0  0  2  0  0  0  0  0  0
  187.3220  177.0600  142.2700 C   0  0  2  0  0  3  0  0  0  0  0  0
  191.3530  172.4130  141.2100 C   0  0  0  0  0  3  0  0  0  0  0  0
  190.3000  172.2020  140.1710 C   0  0  0  0  0  2  0  0  0  0  0  0
  189.5340  174.1560  138.6360 C   0  0  0  0  0  2  0  0  0  0  0  0
  183.9520  178.9750  142.7010 C   0  0  0  0  0  2  0  0  0  0  0  0
  182.4370  178.6380  141.0760 C   0  0  2  0  0  3  0  0  0  0  0  0
  184.6250  177.3560  140.8470 C   0  0  0  0  0  2  0  0  0  0  0  0
  183.4160  177.9370  140.1100 C   0  0  0  0  0  2  0  0  0  0  0  0
  182.7310  178.3380  142.4190 O   0  0  0  0  0  0  0  0  0  0  0  0
  185.1160  178.2940  141.9630 C   0  0  2  0  0  3  0  0  0  0  0  0
  180.9830  178.2920  140.7710 C   0  0  2  0  0  3  0  0  0  0  0  0
  180.3420  179.3570  140.1360 O   0  0  0  0  0  1  0  0  0  0  0  0
  180.2330  177.9170  142.0350 C   0  0  0  0  0  1  0  0  0  0  0  0
  193.5250  171.9610  143.0940 N   0  0  0  0  0  2  0  0  0  0  0  0
  193.8150  172.1350  145.7260 O   0  0  0  0  0  0  0  0  0  0  0  0
  194.5130  171.6530  144.4850 S   0  0  0  0  0  0  0  0  0  0  0  0
  194.7350  170.1710  144.5870 O   0  0  0  0  0  0  0  0  0  0  0  0
  196.0690  172.4750  144.3190 C   0  0  0  0  0  0  0  0  0  0  0  0
  196.7530  172.6640  145.3100 O   0  0  0  0  0  0  0  0  0  0  0  0
  197.6370  172.0000  142.4450 C   0  0  0  0  0  1  0  0  0  0  0  0
  196.5780  172.9520  142.9860 C   0  0  2  0  0  3  0  0  0  0  0  0
  197.1150  175.3880  140.6530 C   0  0  0  0  0  0  0  0  0  0  0  0
  197.8610  174.6800  144.0440 O   0  0  0  0  0  1  0  0  0  0  0  0
  197.9390  175.6660  139.4480 C   0  0  0  0  0  1  0  0  0  0  0  0
  195.7860  175.3890  143.1380 C   0  0  1  0  0  3  0  0  0  0  0  0
  195.8420  175.7830  140.6800 C   0  0  0  0  0  3  0  0  0  0  0  0
  196.9990  174.4440  142.9700 C   0  0  2  0  0  0  0  0  0  0  0  0
  194.9630  175.4800  141.8540 C   0  0  0  0  0  2  0  0  0  0  0  0
  197.7010  174.7510  141.7570 O   0  0  0  0  0  0  0  0  0  0  0  0
  194.9740  174.9900  144.2050 O   0  0  0  0  0  0  0  0  0  0  0  0
  194.5780  176.1810  144.8170 C   0  0  0  0  0  1  0  0  0  0  0  0
  1 25  1  0  0  0  0
  1 14  1  1  0  0  0
  2 19  1  0  0  0  0
  4 38  1  6  0  0  0
  4 17  1  0  0  0  0
  5  6  1  0  0  0  0
  7 18  1  6  0  0  0
  7  8  1  0  0  0  0
  7 12  1  0  0  0  0
  8 10  1  0  0  0  0
 10  6  1  0  0  0  0
 12 24  1  1  0  0  0
 12  5  1  0  0  0  0
 13 27  1  0  0  0  0
 13 15  2  0  0  0  0
 16 18  1  1  0  0  0
 17  2  1  0  0  0  0
 19 20  1  0  0  0  0
 20  9  1  0  0  0  0
 20  3  1  6  0  0  0
 21 28  1  0  0  0  0
 21 11  1  0  0  0  0
 22  4  1  0  0  0  0
 23 11  1  6  0  0  0
 23 15  1  0  0  0  0
 23  1  1  0  0  0  0
 24  9  1  0  0  0  0
 25 16  1  0  0  0  0
 25 14  1  1  0  0  0
 26 22  2  0  0  0  0
 27 26  1  0  0  0  0
 28 13  1  0  0  0  0
 30 35  1  6  0  0  0
 30 33  1  0  0  0  0
 32 31  1  0  0  0  0
 32 30  1  0  0  0  0
 33 29  1  0  0  0  0
 34 31  1  6  0  0  0
 34 29  1  0  0  0  0
 34 16  1  0  0  0  0
 35 37  1  1  0  0  0
 36 35  1  0  0  0  0
 38 40  1  0  0  0  0
 40 41  2  0  0  0  0
 40 39  2  0  0  0  0
 42 40  1  0  0  0  0
 42 43  2  0  0  0  0
 45 44  1  1  0  0  0
 45 42  1  0  0  0  0
 46 50  2  0  0  0  0
 46 53  1  0  0  0  0
 48 46  1  0  0  0  0
 49 54  1  1  0  0  0
 50 52  1  0  0  0  0
 51 45  1  0  0  0  0
 51 49  1  0  0  0  0
 51 47  1  1  0  0  0
 52 49  1  0  0  0  0
 53 51  1  0  0  0  0
 54 55  1  0  0  0  0
M  END
>  <MODEL>
3

>  <REMARK>
 VINA RESULT:      -7.1      3.453     11.217
  Name = 
  8 active torsions:
  status: ('A' for Active; 'I' for Inactive)
    1  A    between atoms: C_6  and  C_14
    2  A    between atoms: C_6  and  S_20
    3  A    between atoms: C_8  and  N_22
    4  A    between atoms: C_10  and  C_32
    5  A    between atoms: O_11  and  C_29
    6  A    between atoms: C_14  and  C_38
    7  A    between atoms: S_20  and  N_22
    8  A    between atoms: C_33  and  C_52
                            x       y       z     vdW  Elec       q    Type
                         _______ _______ _______ _____ _____    ______ ____

>  <TORSDO>
F 8

$$$$
=
 OpenBabel11052419353D

 55 60  0  0  1  0  0  0  0  0999 V2000
  193.0460  172.1740  140.2720 C   0  0  2  0  0  3  0  0  0  0  0  0
  190.0940  176.0150  143.3150 C   0  0  0  0  0  2  0  0  0  0  0  0
  192.7620  176.8540  143.9570 O   0  0  0  0  0  1  0  0  0  0  0  0
  188.2460  176.0050  141.6660 C   0  0  1  0  0  3  0  0  0  0  0  0
  196.1800  174.0080  145.6070 C   0  0  0  0  0  2  0  0  0  0  0  0
  197.1940  173.1080  146.0230 O   0  0  0  0  0  0  0  0  0  0  0  0
  195.8640  172.7060  143.5230 C   0  0  2  0  0  3  0  0  0  0  0  0
  197.2630  172.6150  143.7170 O   0  0  0  0  0  0  0  0  0  0  0  0
  193.2260  174.8920  145.2660 C   0  0  0  0  0  2  0  0  0  0  0  0
  197.4970  172.1420  145.0280 C   0  0  0  0  0  2  0  0  0  0  0  0
  191.8710  170.8300  138.4950 C   0  0  0  0  0  2  0  0  0  0  0  0
  195.1330  173.3550  144.7020 C   0  0  2  0  0  3  0  0  0  0  0  0
  189.6380  172.6440  138.8210 C   0  0  0  0  0  0  0  0  0  0  0  0
  192.8800  172.7410  141.6680 C   0  0  0  0  0  2  0  0  0  0  0  0
  190.7900  172.8670  139.4640 C   0  0  0  0  0  3  0  0  0  0  0  0
  194.9250  171.3240  141.6820 C   0  0  2  0  0  3  0  0  0  0  0  0
  188.9230  175.2200  142.7760 C   0  0  0  0  0  2  0  0  0  0  0  0
  195.2620  171.3560  143.1650 C   0  0  0  0  0  2  0  0  0  0  0  0
  191.1400  175.0750  143.8860 C   0  0  0  0  0  2  0  0  0  0  0  0
  192.1660  175.8400  144.7130 C   0  0  2  0  0  3  0  0  0  0  0  0
  190.5680  170.6290  137.6880 C   0  0  0  0  0  2  0  0  0  0  0  0
  188.6590  175.4580  140.3310 C   0  0  0  0  0  3  0  0  0  0  0  0
  191.7000  171.7050  139.7450 C   0  0  2  0  0  3  0  0  0  0  0  0
  194.1620  174.3960  144.1710 C   0  0  0  0  0  2  0  0  0  0  0  0
  193.4110  171.3350  141.4840 C   0  0  2  0  0  3  0  0  0  0  0  0
  188.1710  174.3110  139.8560 C   0  0  0  0  0  3  0  0  0  0  0  0
  188.6740  173.7590  138.5610 C   0  0  0  0  0  2  0  0  0  0  0  0
  189.3280  171.2520  138.3460 C   0  0  0  0  0  2  0  0  0  0  0  0
  196.6490  170.5800  139.9830 C   0  0  0  0  0  2  0  0  0  0  0  0
  196.3290  168.8640  138.5680 C   0  0  2  0  0  3  0  0  0  0  0  0
  194.5860  169.1380  140.4030 C   0  0  0  0  0  2  0  0  0  0  0  0
  195.2550  168.1660  139.4290 C   0  0  0  0  0  2  0  0  0  0  0  0
  196.2470  170.2640  138.6730 O   0  0  0  0  0  0  0  0  0  0  0  0
  195.5990  170.1230  141.0100 C   0  0  2  0  0  3  0  0  0  0  0  0
  196.2510  168.4460  137.1030 C   0  0  2  0  0  3  0  0  0  0  0  0
  197.0800  169.2460  136.3130 O   0  0  0  0  0  1  0  0  0  0  0  0
  194.8250  168.5120  136.5890 C   0  0  0  0  0  1  0  0  0  0  0  0
  186.7990  175.9520  141.8300 N   0  0  0  0  0  2  0  0  0  0  0  0
  187.2760  178.5000  141.2590 O   0  0  0  0  0  0  0  0  0  0  0  0
  186.1710  177.5580  141.6520 S   0  0  0  0  0  0  0  0  0  0  0  0
  185.1280  177.5410  140.5720 O   0  0  0  0  0  0  0  0  0  0  0  0
  185.4430  178.0960  143.1710 C   0  0  0  0  0  0  0  0  0  0  0  0
  184.3020  178.5280  143.1660 O   0  0  0  0  0  0  0  0  0  0  0  0
  187.6530  178.4030  144.2720 C   0  0  0  0  0  1  0  0  0  0  0  0
  186.1890  178.0380  144.4760 C   0  0  2  0  0  3  0  0  0  0  0  0
  187.8950  176.1650  146.7660 C   0  0  0  0  0  0  0  0  0  0  0  0
  185.1920  175.8560  144.4980 O   0  0  0  0  0  1  0  0  0  0  0  0
  189.1900  175.4550  146.9370 C   0  0  0  0  0  1  0  0  0  0  0  0
  185.2010  176.9710  146.5920 C   0  0  1  0  0  3  0  0  0  0  0  0
  187.3760  176.8360  147.7960 C   0  0  0  0  0  3  0  0  0  0  0  0
  185.9670  176.7250  145.2710 C   0  0  2  0  0  0  0  0  0  0  0  0
  186.1000  177.6050  147.6520 C   0  0  0  0  0  2  0  0  0  0  0  0
  187.2230  176.0850  145.5380 O   0  0  0  0  0  0  0  0  0  0  0  0
  184.0670  177.7640  146.3830 O   0  0  0  0  0  0  0  0  0  0  0  0
  184.4400  179.0400  146.8080 C   0  0  0  0  0  1  0  0  0  0  0  0
  1 25  1  0  0  0  0
  1 14  1  1  0  0  0
  2 19  1  0  0  0  0
  4 38  1  1  0  0  0
  4 17  1  0  0  0  0
  5  6  1  0  0  0  0
  7 18  1  1  0  0  0
  7  8  1  0  0  0  0
  7 12  1  0  0  0  0
  8 10  1  0  0  0  0
 10  6  1  0  0  0  0
 12 24  1  6  0  0  0
 12  5  1  0  0  0  0
 13 15  2  0  0  0  0
 15 23  1  0  0  0  0
 16 18  1  1  0  0  0
 17  2  1  0  0  0  0
 19 20  1  0  0  0  0
 20  3  1  6  0  0  0
 20  9  1  0  0  0  0
 21 28  1  0  0  0  0
 21 11  1  0  0  0  0
 22  4  1  0  0  0  0
 23 11  1  6  0  0  0
 23  1  1  0  0  0  0
 24  9  1  0  0  0  0
 25 14  1  1  0  0  0
 25 16  1  0  0  0  0
 26 22  2  0  0  0  0
 27 13  1  0  0  0  0
 27 26  1  0  0  0  0
 28 13  1  0  0  0  0
 30 35  1  6  0  0  0
 30 33  1  0  0  0  0
 30 32  1  0  0  0  0
 31 34  1  0  0  0  0
 32 31  1  0  0  0  0
 33 29  1  0  0  0  0
 34 29  1  6  0  0  0
 34 16  1  0  0  0  0
 35 37  1  6  0  0  0
 36 35  1  0  0  0  0
 39 40  2  0  0  0  0
 40 38  1  0  0  0  0
 40 42  1  0  0  0  0
 41 40  2  0  0  0  0
 42 45  1  0  0  0  0
 43 42  2  0  0  0  0
 45 44  1  6  0  0  0
 45 51  1  0  0  0  0
 46 48  1  0  0  0  0
 46 50  2  0  0  0  0
 49 54  1  6  0  0  0
 49 52  1  0  0  0  0
 51 47  1  6  0  0  0
 51 53  1  0  0  0  0
 51 49  1  0  0  0  0
 52 50  1  0  0  0  0
 53 46  1  0  0  0  0
 54 55  1  0  0  0  0
M  END
>  <MODEL>
4

>  <REMARK>
 VINA RESULT:      -6.9      2.658      5.922
  Name = 
  8 active torsions:
  status: ('A' for Active; 'I' for Inactive)
    1  A    between atoms: C_6  and  C_14
    2  A    between atoms: C_6  and  S_20
    3  A    between atoms: C_8  and  N_22
    4  A    between atoms: C_10  and  C_32
    5  A    between atoms: O_11  and  C_29
    6  A    between atoms: C_14  and  C_38
    7  A    between atoms: S_20  and  N_22
    8  A    between atoms: C_33  and  C_52
                            x       y       z     vdW  Elec       q    Type
                         _______ _______ _______ _____ _____    ______ ____

>  <TORSDO>
F 8

$$$$
=
 OpenBabel11052419353D

 55 60  0  0  1  0  0  0  0  0999 V2000
  191.0980  173.8140  144.8500 C   0  0  2  0  0  3  0  0  0  0  0  0
  187.4380  175.3840  140.7440 C   0  0  0  0  0  2  0  0  0  0  0  0
  187.9050  172.6680  139.9450 O   0  0  0  0  0  1  0  0  0  0  0  0
  186.2740  176.9410  142.2790 C   0  0  1  0  0  3  0  0  0  0  0  0
  192.1840  170.7300  139.2860 C   0  0  0  0  0  2  0  0  0  0  0  0
  193.4820  170.1690  139.1770 O   0  0  0  0  0  0  0  0  0  0  0  0
  192.6240  171.3150  141.6530 C   0  0  2  0  0  3  0  0  0  0  0  0
  193.2960  170.0760  141.5260 O   0  0  0  0  0  0  0  0  0  0  0  0
  190.1760  173.0940  139.2830 C   0  0  0  0  0  2  0  0  0  0  0  0
  194.1690  170.1580  140.4190 C   0  0  0  0  0  2  0  0  0  0  0  0
  191.3300  175.2350  146.9170 C   0  0  0  0  0  2  0  0  0  0  0  0
  192.1020  171.8560  140.3180 C   0  0  2  0  0  3  0  0  0  0  0  0
  188.9680  176.6490  146.0190 C   0  0  0  0  0  0  0  0  0  0  0  0
  190.9260  173.8840  143.3460 C   0  0  0  0  0  2  0  0  0  0  0  0
  189.3950  175.5620  145.3650 C   0  0  0  0  0  3  0  0  0  0  0  0
  192.9620  172.5270  143.7970 C   0  0  2  0  0  3  0  0  0  0  0  0
  187.5360  176.7120  141.4650 C   0  0  0  0  0  2  0  0  0  0  0  0
  193.4800  172.3420  142.3780 C   0  0  0  0  0  2  0  0  0  0  0  0
  188.8270  174.8240  140.4990 C   0  0  0  0  0  2  0  0  0  0  0  0
  188.7800  173.6680  139.5080 C   0  0  2  0  0  3  0  0  0  0  0  0
  190.7800  176.4380  147.7160 C   0  0  0  0  0  2  0  0  0  0  0  0
  186.5400  176.6400  143.7250 C   0  0  0  0  0  3  0  0  0  0  0  0
  190.8450  175.1820  145.4600 C   0  0  2  0  0  3  0  0  0  0  0  0
  190.6660  172.3140  140.4970 C   0  0  0  0  0  2  0  0  0  0  0  0
  192.3160  173.9030  143.9470 C   0  0  2  0  0  3  0  0  0  0  0  0
  187.2280  177.4760  144.5050 C   0  0  0  0  0  3  0  0  0  0  0  0
  187.5430  177.0980  145.9160 C   0  0  0  0  0  2  0  0  0  0  0  0
  189.9400  177.4110  146.8760 C   0  0  0  0  0  2  0  0  0  0  0  0
  195.4570  172.6560  144.2080 C   0  0  0  0  0  2  0  0  0  0  0  0
  196.6100  171.0810  145.3220 C   0  0  2  0  0  3  0  0  0  0  0  0
  194.0740  170.8680  145.3920 C   0  0  0  0  0  2  0  0  0  0  0  0
  195.3910  170.5290  146.0920 C   0  0  0  0  0  2  0  0  0  0  0  0
  196.2550  171.5120  144.0310 O   0  0  0  0  0  0  0  0  0  0  0  0
  194.0890  172.2910  144.8080 C   0  0  2  0  0  3  0  0  0  0  0  0
  197.7450  170.0650  145.2380 C   0  0  2  0  0  3  0  0  0  0  0  0
  197.8290  169.5170  143.9570 O   0  0  0  0  0  1  0  0  0  0  0  0
  197.5680  168.9600  146.2630 C   0  0  0  0  0  1  0  0  0  0  0  0
  185.8110  178.3120  142.1050 N   0  0  0  0  0  2  0  0  0  0  0  0
  184.4580  179.4570  140.1290 O   0  0  0  0  0  0  0  0  0  0  0  0
  184.4150  178.2890  141.0750 S   0  0  0  0  0  0  0  0  0  0  0  0
  184.4330  177.0120  140.2860 O   0  0  0  0  0  0  0  0  0  0  0  0
  182.9420  178.3640  142.0490 C   0  0  0  0  0  0  0  0  0  0  0  0
  183.0200  178.6640  143.2280 O   0  0  0  0  0  0  0  0  0  0  0  0
  181.6750  177.9180  139.9530 C   0  0  0  0  0  1  0  0  0  0  0  0
  181.5880  178.0660  141.4660 C   0  0  2  0  0  3  0  0  0  0  0  0
  179.5130  180.3990  140.0810 C   0  0  0  0  0  0  0  0  0  0  0  0
  180.7510  179.4280  143.2550 O   0  0  0  0  0  1  0  0  0  0  0  0
  179.5600  181.6570  139.2910 C   0  0  0  0  0  1  0  0  0  0  0  0
  179.0840  178.3450  141.9610 C   0  0  1  0  0  3  0  0  0  0  0  0
  178.5700  179.4950  139.8130 C   0  0  0  0  0  3  0  0  0  0  0  0
  180.4710  179.0290  141.9460 C   0  0  2  0  0  0  0  0  0  0  0  0
  178.5170  178.1920  140.5510 C   0  0  0  0  0  2  0  0  0  0  0  0
  180.4340  180.2020  141.1190 O   0  0  0  0  0  0  0  0  0  0  0  0
  179.1370  177.1000  142.5970 O   0  0  0  0  0  0  0  0  0  0  0  0
  177.8050  176.7740  142.8570 C   0  0  0  0  0  1  0  0  0  0  0  0
  1 14  1  6  0  0  0
  1 23  1  0  0  0  0
  2 17  1  0  0  0  0
  4 38  1  1  0  0  0
  4 22  1  0  0  0  0
  6  5  1  0  0  0  0
  6 10  1  0  0  0  0
  7 18  1  6  0  0  0
  8  7  1  0  0  0  0
  9 20  1  0  0  0  0
  9 24  1  0  0  0  0
 10  8  1  0  0  0  0
 11 21  1  0  0  0  0
 12  5  1  6  0  0  0
 12 24  1  0  0  0  0
 12  7  1  0  0  0  0
 13 28  1  0  0  0  0
 15 13  2  0  0  0  0
 16 18  1  6  0  0  0
 16 25  1  0  0  0  0
 16 34  1  0  0  0  0
 17  4  1  0  0  0  0
 19  2  1  0  0  0  0
 20  3  1  1  0  0  0
 20 19  1  0  0  0  0
 22 26  2  0  0  0  0
 23 15  1  1  0  0  0
 23 11  1  0  0  0  0
 25 14  1  6  0  0  0
 25  1  1  0  0  0  0
 26 27  1  0  0  0  0
 27 13  1  0  0  0  0
 28 21  1  0  0  0  0
 30 35  1  6  0  0  0
 30 32  1  0  0  0  0
 31 32  1  0  0  0  0
 33 29  1  0  0  0  0
 33 30  1  0  0  0  0
 34 29  1  6  0  0  0
 34 31  1  0  0  0  0
 35 37  1  1  0  0  0
 36 35  1  0  0  0  0
 39 40  2  0  0  0  0
 40 42  1  0  0  0  0
 40 38  1  0  0  0  0
 41 40  2  0  0  0  0
 42 43  2  0  0  0  0
 45 44  1  6  0  0  0
 45 51  1  0  0  0  0
 45 42  1  0  0  0  0
 46 53  1  0  0  0  0
 48 46  1  0  0  0  0
 49 54  1  6  0  0  0
 50 46  2  0  0  0  0
 50 52  1  0  0  0  0
 51 49  1  0  0  0  0
 51 47  1  1  0  0  0
 52 49  1  0  0  0  0
 53 51  1  0  0  0  0
 54 55  1  0  0  0  0
M  END
>  <MODEL>
5

>  <REMARK>
 VINA RESULT:      -6.8      3.263      5.622
  Name = 
  8 active torsions:
  status: ('A' for Active; 'I' for Inactive)
    1  A    between atoms: C_6  and  C_14
    2  A    between atoms: C_6  and  S_20
    3  A    between atoms: C_8  and  N_22
    4  A    between atoms: C_10  and  C_32
    5  A    between atoms: O_11  and  C_29
    6  A    between atoms: C_14  and  C_38
    7  A    between atoms: S_20  and  N_22
    8  A    between atoms: C_33  and  C_52
                            x       y       z     vdW  Elec       q    Type
                         _______ _______ _______ _____ _____    ______ ____

>  <TORSDO>
F 8

$$$$
=
 OpenBabel11052419353D

 55 60  0  0  1  0  0  0  0  0999 V2000
  189.1860  173.9320  141.5260 C   0  0  2  0  0  3  0  0  0  0  0  0
  194.0150  170.9170  142.0880 C   0  0  0  0  0  2  0  0  0  0  0  0
  193.2040  171.0260  144.8390 O   0  0  0  0  0  1  0  0  0  0  0  0
  193.7120  169.8820  139.8590 C   0  0  1  0  0  3  0  0  0  0  0  0
  192.0950  174.9960  147.1870 C   0  0  0  0  0  2  0  0  0  0  0  0
  191.6970  176.1960  147.8280 O   0  0  0  0  0  0  0  0  0  0  0  0
  190.3410  175.3190  145.4670 C   0  0  2  0  0  3  0  0  0  0  0  0
  189.7020  175.8000  146.6340 O   0  0  0  0  0  0  0  0  0  0  0  0
  193.6340  173.3840  145.0300 C   0  0  0  0  0  2  0  0  0  0  0  0
  190.5410  176.7660  147.2320 C   0  0  0  0  0  2  0  0  0  0  0  0
  188.1510  174.2050  139.2450 C   0  0  0  0  0  2  0  0  0  0  0  0
  191.8250  175.0020  145.6810 C   0  0  2  0  0  3  0  0  0  0  0  0
  190.0020  172.1730  138.3350 C   0  0  0  0  0  0  0  0  0  0  0  0
  190.5130  173.9010  142.2570 C   0  0  0  0  0  2  0  0  0  0  0  0
  189.9220  172.4810  139.6350 C   0  0  0  0  0  3  0  0  0  0  0  0
  189.1170  175.6580  143.3300 C   0  0  2  0  0  3  0  0  0  0  0  0
  194.0830  171.1580  140.5950 C   0  0  0  0  0  2  0  0  0  0  0  0
  190.1340  176.2590  144.2890 C   0  0  0  0  0  2  0  0  0  0  0  0
  193.7170  172.2190  142.8100 C   0  0  0  0  0  2  0  0  0  0  0  0
  193.9560  172.0790  144.3070 C   0  0  2  0  0  3  0  0  0  0  0  0
  188.1890  173.7810  137.7600 C   0  0  0  0  0  2  0  0  0  0  0  0
  192.2990  169.9750  139.3610 C   0  0  0  0  0  3  0  0  0  0  0  0
  189.4220  173.8430  140.0270 C   0  0  2  0  0  3  0  0  0  0  0  0
  192.1330  173.6430  145.0780 C   0  0  0  0  0  2  0  0  0  0  0  0
  189.8040  175.2210  142.0380 C   0  0  2  0  0  3  0  0  0  0  0  0
  191.9720  170.7160  138.3000 C   0  0  0  0  0  3  0  0  0  0  0  0
  190.5410  170.8490  137.8900 C   0  0  0  0  0  2  0  0  0  0  0  0
  189.5290  173.1750  137.3200 C   0  0  0  0  0  2  0  0  0  0  0  0
  188.1070  177.8870  143.9810 C   0  0  0  0  0  2  0  0  0  0  0  0
  185.8990  178.2180  144.2300 C   0  0  2  0  0  3  0  0  0  0  0  0
  186.5860  175.9900  143.2100 C   0  0  0  0  0  2  0  0  0  0  0  0
  185.4740  177.0340  143.3370 C   0  0  0  0  0  2  0  0  0  0  0  0
  187.0800  177.9350  144.9400 O   0  0  0  0  0  0  0  0  0  0  0  0
  187.9710  176.6460  143.0840 C   0  0  2  0  0  3  0  0  0  0  0  0
  184.7950  178.6320  145.1980 C   0  0  2  0  0  3  0  0  0  0  0  0
  184.4470  177.5730  146.0380 O   0  0  0  0  0  1  0  0  0  0  0  0
  183.5690  179.1260  144.4530 C   0  0  0  0  0  1  0  0  0  0  0  0
  194.6410  169.6520  138.7600 N   0  0  0  0  0  2  0  0  0  0  0  0
  196.2250  170.1070  140.8410 O   0  0  0  0  0  0  0  0  0  0  0  0
  196.2550  169.8730  139.3560 S   0  0  0  0  0  0  0  0  0  0  0  0
  197.0390  168.6250  139.0680 O   0  0  0  0  0  0  0  0  0  0  0  0
  197.0150  171.2500  138.5510 C   0  0  0  0  0  0  0  0  0  0  0  0
  197.2160  171.2030  137.3490 O   0  0  0  0  0  0  0  0  0  0  0  0
  197.8540  172.1290  140.7230 C   0  0  0  0  0  1  0  0  0  0  0  0
  197.4270  172.4850  139.3050 C   0  0  2  0  0  3  0  0  0  0  0  0
  196.3260  175.0150  141.3180 C   0  0  0  0  0  0  0  0  0  0  0  0
  195.3360  173.2470  138.4120 O   0  0  0  0  0  1  0  0  0  0  0  0
  195.7120  175.2390  142.6530 C   0  0  0  0  0  1  0  0  0  0  0  0
  197.0140  174.9150  138.5870 C   0  0  1  0  0  3  0  0  0  0  0  0
  197.2610  175.8570  140.8780 C   0  0  0  0  0  3  0  0  0  0  0  0
  196.4010  173.6450  139.2230 C   0  0  2  0  0  0  0  0  0  0  0  0
  197.9400  175.6400  139.5620 C   0  0  0  0  0  2  0  0  0  0  0  0
  195.8830  173.9450  140.5270 O   0  0  0  0  0  0  0  0  0  0  0  0
  197.6970  174.6140  137.4040 O   0  0  0  0  0  0  0  0  0  0  0  0
  197.1800  175.4990  136.4570 C   0  0  0  0  0  1  0  0  0  0  0  0
  1 25  1  0  0  0  0
  1 14  1  1  0  0  0
  2 19  1  0  0  0  0
  4 38  1  6  0  0  0
  4 17  1  0  0  0  0
  5  6  1  0  0  0  0
  7 18  1  6  0  0  0
  7 12  1  0  0  0  0
  7  8  1  0  0  0  0
  8 10  1  0  0  0  0
  9 24  1  0  0  0  0
 10  6  1  0  0  0  0
 12 24  1  1  0  0  0
 12  5  1  0  0  0  0
 13 15  2  0  0  0  0
 15 23  1  0  0  0  0
 16 18  1  1  0  0  0
 17  2  1  0  0  0  0
 19 20  1  0  0  0  0
 20  3  1  1  0  0  0
 20  9  1  0  0  0  0
 21 11  1  0  0  0  0
 22  4  1  0  0  0  0
 23 11  1  6  0  0  0
 23  1  1  0  0  0  0
 25 14  1  1  0  0  0
 25 16  1  0  0  0  0
 26 22  2  0  0  0  0
 27 26  1  0  0  0  0
 27 13  1  0  0  0  0
 28 21  1  0  0  0  0
 28 13  1  0  0  0  0
 29 33  1  0  0  0  0
 30 33  1  0  0  0  0
 30 35  1  1  0  0  0
 31 32  1  0  0  0  0
 32 30  1  0  0  0  0
 34 31  1  1  0  0  0
 34 16  1  0  0  0  0
 34 29  1  0  0  0  0
 35 37  1  6  0  0  0
 35 36  1  0  0  0  0
 38 40  1  0  0  0  0
 40 39  2  0  0  0  0
 41 40  2  0  0  0  0
 42 45  1  0  0  0  0
 42 40  1  0  0  0  0
 43 42  2  0  0  0  0
 45 44  1  1  0  0  0
 46 48  1  0  0  0  0
 49 54  1  6  0  0  0
 49 51  1  0  0  0  0
 49 52  1  0  0  0  0
 50 46  2  0  0  0  0
 51 47  1  6  0  0  0
 51 45  1  0  0  0  0
 51 53  1  0  0  0  0
 52 50  1  0  0  0  0
 53 46  1  0  0  0  0
 55 54  1  0  0  0  0
M  END
>  <MODEL>
6

>  <REMARK>
 VINA RESULT:      -6.6      3.329     11.181
  Name = 
  8 active torsions:
  status: ('A' for Active; 'I' for Inactive)
    1  A    between atoms: C_6  and  C_14
    2  A    between atoms: C_6  and  S_20
    3  A    between atoms: C_8  and  N_22
    4  A    between atoms: C_10  and  C_32
    5  A    between atoms: O_11  and  C_29
    6  A    between atoms: C_14  and  C_38
    7  A    between atoms: S_20  and  N_22
    8  A    between atoms: C_33  and  C_52
                            x       y       z     vdW  Elec       q    Type
                         _______ _______ _______ _____ _____    ______ ____

>  <TORSDO>
F 8

$$$$
=
 OpenBabel11052419353D

 55 60  0  0  1  0  0  0  0  0999 V2000
  190.0650  174.3450  142.3900 C   0  0  2  0  0  3  0  0  0  0  0  0
  195.4710  174.9610  140.6220 C   0  0  0  0  0  2  0  0  0  0  0  0
  195.9410  174.4420  143.4050 O   0  0  0  0  0  1  0  0  0  0  0  0
  194.9190  174.0440  138.3890 C   0  0  1  0  0  3  0  0  0  0  0  0
  193.8860  176.7770  146.9860 C   0  0  0  0  0  2  0  0  0  0  0  0
  193.1910  177.4470  148.0260 O   0  0  0  0  0  0  0  0  0  0  0  0
  191.7350  176.0050  146.0300 C   0  0  2  0  0  3  0  0  0  0  0  0
  191.4790  175.9420  147.4200 O   0  0  0  0  0  0  0  0  0  0  0  0
  195.0200  176.5480  144.1090 C   0  0  0  0  0  2  0  0  0  0  0  0
  191.7940  177.1980  147.9850 C   0  0  0  0  0  2  0  0  0  0  0  0
  188.2360  174.0000  140.6930 C   0  0  0  0  0  2  0  0  0  0  0  0
  193.0740  176.6690  145.6940 C   0  0  2  0  0  3  0  0  0  0  0  0
  190.3370  173.5910  138.7430 C   0  0  0  0  0  0  0  0  0  0  0  0
  191.3420  175.1180  142.6520 C   0  0  0  0  0  2  0  0  0  0  0  0
  190.6360  173.7350  140.0400 C   0  0  0  0  0  3  0  0  0  0  0  0
  189.7900  175.5880  144.5390 C   0  0  2  0  0  3  0  0  0  0  0  0
  194.7790  175.2460  139.3050 C   0  0  0  0  0  2  0  0  0  0  0  0
  190.5840  176.6550  145.2780 C   0  0  0  0  0  2  0  0  0  0  0  0
  194.8240  175.7690  141.7330 C   0  0  0  0  0  2  0  0  0  0  0  0
  195.6860  175.7530  142.9890 C   0  0  2  0  0  3  0  0  0  0  0  0
  187.8940  173.7460  139.2080 C   0  0  0  0  0  2  0  0  0  0  0  0
  193.6410  173.2580  138.3820 C   0  0  0  0  0  3  0  0  0  0  0  0
  189.6770  174.4770  140.9260 C   0  0  2  0  0  3  0  0  0  0  0  0
  193.8080  175.8180  144.6720 C   0  0  0  0  0  2  0  0  0  0  0  0
  190.0060  175.7200  143.0330 C   0  0  2  0  0  3  0  0  0  0  0  0
  192.5600  173.6730  137.7170 C   0  0  0  0  0  3  0  0  0  0  0  0
  191.2820  172.9040  137.8070 C   0  0  0  0  0  2  0  0  0  0  0  0
  189.0240  174.1190  138.2370 C   0  0  0  0  0  2  0  0  0  0  0  0
  187.4860  176.3840  143.8540 C   0  0  0  0  0  2  0  0  0  0  0  0
  186.0210  177.3070  145.2870 C   0  0  2  0  0  3  0  0  0  0  0  0
  188.0970  176.2660  146.3290 C   0  0  0  0  0  2  0  0  0  0  0  0
  186.6400  176.6760  146.5520 C   0  0  0  0  0  2  0  0  0  0  0  0
  187.0030  177.6160  144.3290 O   0  0  0  0  0  0  0  0  0  0  0  0
  188.3110  175.6600  144.9320 C   0  0  2  0  0  3  0  0  0  0  0  0
  185.1970  178.5500  145.6080 C   0  0  2  0  0  3  0  0  0  0  0  0
  185.4990  179.5890  144.7260 O   0  0  0  0  0  1  0  0  0  0  0  0
  185.4250  179.0040  147.0380 C   0  0  0  0  0  1  0  0  0  0  0  0
  195.2740  174.4800  137.0450 N   0  0  0  0  0  2  0  0  0  0  0  0
  197.6630  175.0560  136.0420 O   0  0  0  0  0  0  0  0  0  0  0  0
  196.8910  173.9510  136.7090 S   0  0  0  0  0  0  0  0  0  0  0  0
  197.5530  173.6010  138.0110 O   0  0  0  0  0  0  0  0  0  0  0  0
  196.8590  172.5300  135.6590 C   0  0  0  0  0  0  0  0  0  0  0  0
  196.4400  172.6380  134.5190 O   0  0  0  0  0  0  0  0  0  0  0  0
  197.8660  170.3630  134.9630 C   0  0  0  0  0  1  0  0  0  0  0  0
  197.3320  171.1820  136.1310 C   0  0  2  0  0  3  0  0  0  0  0  0
  194.1600  169.9540  135.8190 C   0  0  0  0  0  0  0  0  0  0  0  0
  196.4870  170.8210  138.3460 O   0  0  0  0  0  1  0  0  0  0  0  0
  192.7830  170.3990  135.4830 C   0  0  0  0  0  1  0  0  0  0  0  0
  196.5090  168.8960  136.9600 C   0  0  1  0  0  3  0  0  0  0  0  0
  194.5930  168.7730  135.3750 C   0  0  0  0  0  3  0  0  0  0  0  0
  196.3070  170.4280  137.0170 C   0  0  2  0  0  0  0  0  0  0  0  0
  195.9900  168.3100  135.6480 C   0  0  0  0  0  2  0  0  0  0  0  0
  194.9680  170.7660  136.6280 O   0  0  0  0  0  0  0  0  0  0  0  0
  197.8520  168.5520  137.1450 O   0  0  0  0  0  0  0  0  0  0  0  0
  197.9410  168.1660  138.4830 C   0  0  0  0  0  1  0  0  0  0  0  0
  1 14  1  6  0  0  0
  1 25  1  0  0  0  0
  2 19  1  0  0  0  0
  4 38  1  6  0  0  0
  4 17  1  0  0  0  0
  5  6  1  0  0  0  0
  7 18  1  6  0  0  0
  7  8  1  0  0  0  0
  8 10  1  0  0  0  0
  9 24  1  0  0  0  0
 10  6  1  0  0  0  0
 11 23  1  0  0  0  0
 12 24  1  6  0  0  0
 12  7  1  0  0  0  0
 12  5  1  0  0  0  0
 13 15  2  0  0  0  0
 16 34  1  0  0  0  0
 16 18  1  1  0  0  0
 17  2  1  0  0  0  0
 19 20  1  0  0  0  0
 20  3  1  1  0  0  0
 20  9  1  0  0  0  0
 21 11  1  0  0  0  0
 22  4  1  0  0  0  0
 23 15  1  6  0  0  0
 23  1  1  0  0  0  0
 25 14  1  1  0  0  0
 25 16  1  0  0  0  0
 26 27  1  0  0  0  0
 26 22  2  0  0  0  0
 27 13  1  0  0  0  0
 28 13  1  0  0  0  0
 28 21  1  0  0  0  0
 29 33  1  0  0  0  0
 30 35  1  1  0  0  0
 30 32  1  0  0  0  0
 31 32  1  0  0  0  0
 33 30  1  0  0  0  0
 34 29  1  6  0  0  0
 34 31  1  0  0  0  0
 35 37  1  1  0  0  0
 36 35  1  0  0  0  0
 39 40  2  0  0  0  0
 40 38  1  0  0  0  0
 40 41  2  0  0  0  0
 42 45  1  0  0  0  0
 42 40  1  0  0  0  0
 43 42  2  0  0  0  0
 45 44  1  6  0  0  0
 45 51  1  0  0  0  0
 46 53  1  0  0  0  0
 48 46  1  0  0  0  0
 49 51  1  0  0  0  0
 49 54  1  6  0  0  0
 50 52  1  0  0  0  0
 50 46  2  0  0  0  0
 51 47  1  1  0  0  0
 52 49  1  0  0  0  0
 53 51  1  0  0  0  0
 54 55  1  0  0  0  0
M  END
>  <MODEL>
7

>  <REMARK>
 VINA RESULT:      -6.5      3.407     11.886
  Name = 
  8 active torsions:
  status: ('A' for Active; 'I' for Inactive)
    1  A    between atoms: C_6  and  C_14
    2  A    between atoms: C_6  and  S_20
    3  A    between atoms: C_8  and  N_22
    4  A    between atoms: C_10  and  C_32
    5  A    between atoms: O_11  and  C_29
    6  A    between atoms: C_14  and  C_38
    7  A    between atoms: S_20  and  N_22
    8  A    between atoms: C_33  and  C_52
                            x       y       z     vdW  Elec       q    Type
                         _______ _______ _______ _____ _____    ______ ____

>  <TORSDO>
F 8

$$$$
=
 OpenBabel11052419353D

 55 60  0  0  1  0  0  0  0  0999 V2000
  189.7600  176.4800  143.4290 C   0  0  2  0  0  3  0  0  0  0  0  0
  192.4160  171.8490  141.3730 C   0  0  0  0  0  2  0  0  0  0  0  0
  191.9000  173.2290  138.9100 O   0  0  0  0  0  1  0  0  0  0  0  0
  193.8110  171.6580  143.4100 C   0  0  1  0  0  3  0  0  0  0  0  0
  187.6580  174.8570  137.5480 C   0  0  0  0  0  2  0  0  0  0  0  0
  186.3890  175.3960  137.2150 O   0  0  0  0  0  0  0  0  0  0  0  0
  187.7000  176.2070  139.6250 C   0  0  2  0  0  3  0  0  0  0  0  0
  187.0660  177.0860  138.7150 O   0  0  0  0  0  0  0  0  0  0  0  0
  189.5250  172.8760  139.0340 C   0  0  0  0  0  2  0  0  0  0  0  0
  185.9780  176.4040  138.1270 C   0  0  0  0  0  2  0  0  0  0  0  0
  189.9090  177.0070  145.8880 C   0  0  0  0  0  2  0  0  0  0  0  0
  187.9090  174.8000  139.0560 C   0  0  2  0  0  3  0  0  0  0  0  0
  191.9730  174.9820  146.0370 C   0  0  0  0  0  0  0  0  0  0  0  0
  189.6100  175.3380  142.4430 C   0  0  0  0  0  2  0  0  0  0  0  0
  191.4620  175.3420  144.8530 C   0  0  0  0  0  3  0  0  0  0  0  0
  187.7690  176.9510  141.9960 C   0  0  2  0  0  3  0  0  0  0  0  0
  192.4170  171.4660  142.8380 C   0  0  0  0  0  2  0  0  0  0  0  0
  186.9740  176.1690  140.9610 C   0  0  0  0  0  2  0  0  0  0  0  0
  191.0290  172.3090  140.9590 C   0  0  0  0  0  2  0  0  0  0  0  0
  190.9140  172.3920  139.4430 C   0  0  2  0  0  3  0  0  0  0  0  0
  190.5660  176.6490  147.2400 C   0  0  0  0  0  2  0  0  0  0  0  0
  193.8660  172.9330  144.1990 C   0  0  0  0  0  3  0  0  0  0  0  0
  190.0800  175.9280  144.8090 C   0  0  2  0  0  3  0  0  0  0  0  0
  189.3320  174.3550  139.3440 C   0  0  0  0  0  2  0  0  0  0  0  0
  188.3780  176.0000  143.0240 C   0  0  2  0  0  3  0  0  0  0  0  0
  193.3240  173.0350  145.4150 C   0  0  0  0  0  3  0  0  0  0  0  0
  193.3260  174.3470  146.1300 C   0  0  0  0  0  2  0  0  0  0  0  0
  191.1730  175.2390  147.2820 C   0  0  0  0  0  2  0  0  0  0  0  0
  187.5940  178.6750  143.8420 C   0  0  0  0  0  2  0  0  0  0  0  0
  185.7170  179.0310  145.0260 C   0  0  2  0  0  3  0  0  0  0  0  0
  185.4860  177.5100  142.9980 C   0  0  0  0  0  2  0  0  0  0  0  0
  184.7620  178.4560  143.9590 C   0  0  0  0  0  2  0  0  0  0  0  0
  186.9450  178.3450  145.0460 O   0  0  0  0  0  0  0  0  0  0  0  0
  186.8890  178.0290  142.6380 C   0  0  2  0  0  3  0  0  0  0  0  0
  185.0940  179.0230  146.4190 C   0  0  2  0  0  3  0  0  0  0  0  0
  186.0760  178.8900  147.4020 O   0  0  0  0  0  1  0  0  0  0  0  0
  184.0720  177.9090  146.5550 C   0  0  0  0  0  1  0  0  0  0  0  0
  194.1730  170.5130  144.2360 N   0  0  0  0  0  2  0  0  0  0  0  0
  196.6620  171.4230  144.0810 O   0  0  0  0  0  0  0  0  0  0  0  0
  195.8510  170.1610  143.9730 S   0  0  0  0  0  0  0  0  0  0  0  0
  196.3000  169.1930  145.0300 O   0  0  0  0  0  0  0  0  0  0  0  0
  196.0770  169.4410  142.3750 C   0  0  0  0  0  0  0  0  0  0  0  0
  196.6090  168.3480  142.2820 O   0  0  0  0  0  0  0  0  0  0  0  0
  194.8050  169.2000  140.2490 C   0  0  0  0  0  1  0  0  0  0  0  0
  195.6320  170.1380  141.1180 C   0  0  2  0  0  3  0  0  0  0  0  0
  196.5560  170.6710  137.8740 C   0  0  0  0  0  0  0  0  0  0  0  0
  197.9370  170.7990  141.1340 O   0  0  0  0  0  1  0  0  0  0  0  0
  196.8930  169.9210  136.6360 C   0  0  0  0  0  1  0  0  0  0  0  0
  196.4590  172.3580  140.1280 C   0  0  1  0  0  3  0  0  0  0  0  0
  195.8360  171.7900  137.7860 C   0  0  0  0  0  3  0  0  0  0  0  0
  196.7750  170.8620  140.3610 C   0  0  2  0  0  0  0  0  0  0  0  0
  195.4330  172.5480  139.0120 C   0  0  0  0  0  2  0  0  0  0  0  0
  197.0350  170.2100  139.1090 O   0  0  0  0  0  0  0  0  0  0  0  0
  196.0140  172.9730  141.3030 O   0  0  0  0  0  0  0  0  0  0  0  0
  195.4430  174.1750  140.8830 C   0  0  0  0  0  1  0  0  0  0  0  0
  1 14  1  6  0  0  0
  1 23  1  0  0  0  0
  2 17  1  0  0  0  0
  4 22  1  0  0  0  0
  4 38  1  1  0  0  0
  6  5  1  0  0  0  0
  6 10  1  0  0  0  0
  7 18  1  1  0  0  0
  8  7  1  0  0  0  0
  9 24  1  0  0  0  0
  9 20  1  0  0  0  0
 10  8  1  0  0  0  0
 11 21  1  0  0  0  0
 12  5  1  6  0  0  0
 12 24  1  0  0  0  0
 12  7  1  0  0  0  0
 13 27  1  0  0  0  0
 13 28  1  0  0  0  0
 15 13  2  0  0  0  0
 16 18  1  6  0  0  0
 16 34  1  0  0  0  0
 16 25  1  0  0  0  0
 17  4  1  0  0  0  0
 19  2  1  0  0  0  0
 20  3  1  1  0  0  0
 20 19  1  0  0  0  0
 21 28  1  0  0  0  0
 22 26  2  0  0  0  0
 23 15  1  6  0  0  0
 23 11  1  0  0  0  0
 25 14  1  6  0  0  0
 25  1  1  0  0  0  0
 26 27  1  0  0  0  0
 29 33  1  0  0  0  0
 30 33  1  0  0  0  0
 30 35  1  1  0  0  0
 31 32  1  0  0  0  0
 32 30  1  0  0  0  0
 34 31  1  1  0  0  0
 34 29  1  0  0  0  0
 35 37  1  6  0  0  0
 35 36  1  0  0  0  0
 40 39  2  0  0  0  0
 40 38  1  0  0  0  0
 40 41  2  0  0  0  0
 42 40  1  0  0  0  0
 43 42  2  0  0  0  0
 45 44  1  6  0  0  0
 45 42  1  0  0  0  0
 46 53  1  0  0  0  0
 48 46  1  0  0  0  0
 49 51  1  0  0  0  0
 49 54  1  1  0  0  0
 50 46  2  0  0  0  0
 50 52  1  0  0  0  0
 51 45  1  0  0  0  0
 51 47  1  1  0  0  0
 52 49  1  0  0  0  0
 53 51  1  0  0  0  0
 55 54  1  0  0  0  0
M  END
>  <MODEL>
8

>  <REMARK>
 VINA RESULT:      -6.5      3.294     10.447
  Name = 
  8 active torsions:
  status: ('A' for Active; 'I' for Inactive)
    1  A    between atoms: C_6  and  C_14
    2  A    between atoms: C_6  and  S_20
    3  A    between atoms: C_8  and  N_22
    4  A    between atoms: C_10  and  C_32
    5  A    between atoms: O_11  and  C_29
    6  A    between atoms: C_14  and  C_38
    7  A    between atoms: S_20  and  N_22
    8  A    between atoms: C_33  and  C_52
                            x       y       z     vdW  Elec       q    Type
                         _______ _______ _______ _____ _____    ______ ____

>  <TORSDO>
F 8

$$$$
=
 OpenBabel11052419353D

 55 60  0  0  1  0  0  0  0  0999 V2000
  194.1570  172.6860  139.7250 C   0  0  2  0  0  3  0  0  0  0  0  0
  190.2420  174.4430  143.5090 C   0  0  0  0  0  2  0  0  0  0  0  0
  188.5410  172.9930  141.7100 O   0  0  0  0  0  1  0  0  0  0  0  0
  191.8880  174.3550  145.3580 C   0  0  1  0  0  3  0  0  0  0  0  0
  188.3790  173.6390  137.0130 C   0  0  0  0  0  2  0  0  0  0  0  0
  188.4190  173.8090  135.6060 O   0  0  0  0  0  0  0  0  0  0  0  0
  190.7880  173.0590  137.0230 C   0  0  2  0  0  3  0  0  0  0  0  0
  190.3470  172.4670  135.8160 O   0  0  0  0  0  0  0  0  0  0  0  0
  188.8010  174.5930  139.9350 C   0  0  0  0  0  2  0  0  0  0  0  0
  189.6790  173.4540  135.0570 C   0  0  0  0  0  2  0  0  0  0  0  0
  196.6010  172.8040  140.3220 C   0  0  0  0  0  2  0  0  0  0  0  0
  189.7190  173.9300  137.6910 C   0  0  2  0  0  3  0  0  0  0  0  0
  195.7510  173.3480  143.0360 C   0  0  0  0  0  0  0  0  0  0  0  0
  192.8440  173.4330  139.8480 C   0  0  0  0  0  2  0  0  0  0  0  0
  194.8520  173.0370  142.0950 C   0  0  0  0  0  3  0  0  0  0  0  0
  193.2400  173.0230  137.4260 C   0  0  2  0  0  3  0  0  0  0  0  0
  191.4530  175.1190  144.1200 C   0  0  0  0  0  2  0  0  0  0  0  0
  192.0900  173.8200  136.8280 C   0  0  0  0  0  2  0  0  0  0  0  0
  190.1920  174.7200  142.0180 C   0  0  0  0  0  2  0  0  0  0  0  0
  188.8380  174.3320  141.4380 C   0  0  2  0  0  3  0  0  0  0  0  0
  197.6390  173.0770  141.4330 C   0  0  0  0  0  2  0  0  0  0  0  0
  193.0800  173.5020  145.0370 C   0  0  0  0  0  3  0  0  0  0  0  0
  195.1880  173.3040  140.6550 C   0  0  2  0  0  3  0  0  0  0  0  0
  189.6560  173.5890  139.1700 C   0  0  0  0  0  2  0  0  0  0  0  0
  193.7660  173.7170  138.6810 C   0  0  2  0  0  3  0  0  0  0  0  0
  194.3020  174.0220  144.8930 C   0  0  0  0  0  3  0  0  0  0  0  0
  195.4450  173.1490  144.4880 C   0  0  0  0  0  2  0  0  0  0  0  0
  197.0880  173.8900  142.6130 C   0  0  0  0  0  2  0  0  0  0  0  0
  194.3800  171.3270  135.9310 C   0  0  0  0  0  2  0  0  0  0  0  0
  196.6000  171.2750  135.5900 C   0  0  2  0  0  3  0  0  0  0  0  0
  195.7090  173.3100  136.8320 C   0  0  0  0  0  2  0  0  0  0  0  0
  196.8380  172.7530  135.9620 C   0  0  0  0  0  2  0  0  0  0  0  0
  195.5680  170.7070  136.3580 O   0  0  0  0  0  0  0  0  0  0  0  0
  194.3320  172.7980  136.3750 C   0  0  2  0  0  3  0  0  0  0  0  0
  197.8690  170.4380  135.7230 C   0  0  2  0  0  3  0  0  0  0  0  0
  197.9390  169.4780  134.7110 O   0  0  0  0  0  1  0  0  0  0  0  0
  197.9410  169.7650  137.0800 C   0  0  0  0  0  1  0  0  0  0  0  0
  192.1850  175.2860  146.4390 N   0  0  0  0  0  2  0  0  0  0  0  0
  189.8660  174.2620  147.2270 O   0  0  0  0  0  0  0  0  0  0  0  0
  190.7650  175.4520  147.4210 S   0  0  0  0  0  0  0  0  0  0  0  0
  191.1910  175.5200  148.8590 O   0  0  0  0  0  0  0  0  0  0  0  0
  189.8990  176.9300  146.9890 C   0  0  0  0  0  0  0  0  0  0  0  0
  190.1210  177.9560  147.6100 O   0  0  0  0  0  0  0  0  0  0  0  0
  189.1480  178.1490  144.9530 C   0  0  0  0  0  1  0  0  0  0  0  0
  188.8890  176.9640  145.8740 C   0  0  2  0  0  3  0  0  0  0  0  0
  186.4220  179.0480  146.9850 C   0  0  0  0  0  0  0  0  0  0  0  0
  187.2530  175.6040  146.9800 O   0  0  0  0  0  1  0  0  0  0  0  0
  186.1530  180.0470  148.0530 C   0  0  0  0  0  1  0  0  0  0  0  0
  186.4210  176.8930  145.1700 C   0  0  1  0  0  3  0  0  0  0  0  0
  185.9670  179.2710  145.7520 C   0  0  0  0  0  3  0  0  0  0  0  0
  187.4190  176.8400  146.3510 C   0  0  2  0  0  0  0  0  0  0  0  0
  186.2570  178.3150  144.6360 C   0  0  0  0  0  2  0  0  0  0  0  0
  187.1150  177.8710  147.3020 O   0  0  0  0  0  0  0  0  0  0  0  0
  186.8080  176.0310  144.1380 O   0  0  0  0  0  0  0  0  0  0  0  0
  186.1000  176.4740  143.0190 C   0  0  0  0  0  1  0  0  0  0  0  0
  1 14  1  1  0  0  0
  1 23  1  0  0  0  0
  2 17  1  0  0  0  0
  4 38  1  1  0  0  0
  6  5  1  0  0  0  0
  7 18  1  6  0  0  0
  7 12  1  0  0  0  0
  8  7  1  0  0  0  0
  9 20  1  0  0  0  0
 10  6  1  0  0  0  0
 10  8  1  0  0  0  0
 11 21  1  0  0  0  0
 12  5  1  6  0  0  0
 12 24  1  0  0  0  0
 13 27  1  0  0  0  0
 15 13  2  0  0  0  0
 16 18  1  6  0  0  0
 16 25  1  0  0  0  0
 17  4  1  0  0  0  0
 19  2  1  0  0  0  0
 20  3  1  6  0  0  0
 20 19  1  0  0  0  0
 21 28  1  0  0  0  0
 22  4  1  0  0  0  0
 23 11  1  6  0  0  0
 23 15  1  0  0  0  0
 24  9  1  0  0  0  0
 25  1  1  0  0  0  0
 25 14  1  1  0  0  0
 26 22  2  0  0  0  0
 27 26  1  0  0  0  0
 28 13  1  0  0  0  0
 29 33  1  0  0  0  0
 30 35  1  1  0  0  0
 30 32  1  0  0  0  0
 30 33  1  0  0  0  0
 32 31  1  0  0  0  0
 34 29  1  1  0  0  0
 34 31  1  0  0  0  0
 34 16  1  0  0  0  0
 35 37  1  1  0  0  0
 36 35  1  0  0  0  0
 38 40  1  0  0  0  0
 39 40  2  0  0  0  0
 40 41  2  0  0  0  0
 42 40  1  0  0  0  0
 42 43  2  0  0  0  0
 45 44  1  1  0  0  0
 45 51  1  0  0  0  0
 45 42  1  0  0  0  0
 46 53  1  0  0  0  0
 46 48  1  0  0  0  0
 49 54  1  6  0  0  0
 49 51  1  0  0  0  0
 50 46  2  0  0  0  0
 51 47  1  1  0  0  0
 51 53  1  0  0  0  0
 52 49  1  0  0  0  0
 52 50  1  0  0  0  0
 55 54  1  0  0  0  0
M  END
>  <MODEL>
9

>  <REMARK>
 VINA RESULT:      -6.2      2.337      3.633
  Name = 
  8 active torsions:
  status: ('A' for Active; 'I' for Inactive)
    1  A    between atoms: C_6  and  C_14
    2  A    between atoms: C_6  and  S_20
    3  A    between atoms: C_8  and  N_22
    4  A    between atoms: C_10  and  C_32
    5  A    between atoms: O_11  and  C_29
    6  A    between atoms: C_14  and  C_38
    7  A    between atoms: S_20  and  N_22
    8  A    between atoms: C_33  and  C_52
                            x       y       z     vdW  Elec       q    Type
                         _______ _______ _______ _____ _____    ______ ____

>  <TORSDO>
F 8

$$$$
