=
 OpenBabel11052417443D

 31 34  0  0  1  0  0  0  0  0999 V2000
  192.2550  174.2460  143.7170 C   0  0  2  0  0  3  0  0  0  0  0  0
  189.5110  175.7020  145.0850 C   0  0  2  0  0  3  0  0  0  0  0  0
  188.8840  174.9730  147.2420 C   0  0  0  0  0  1  0  0  0  0  0  0
  189.7010  175.9410  146.5280 N   0  0  0  0  0  0  0  0  0  0  0  0
  190.7550  176.0800  144.2490 C   0  0  1  0  0  3  0  0  0  0  0  0
  191.0340  177.5770  144.2650 C   0  0  0  0  0  1  0  0  0  0  0  0
  191.9760  175.3500  144.6610 N   0  0  0  0  0  0  0  0  0  0  0  0
  191.0900  175.7180  146.9590 C   0  0  0  0  0  2  0  0  0  0  0  0
  191.8490  174.7790  146.0160 C   0  0  0  0  0  2  0  0  0  0  0  0
  186.4810  177.9890  144.7290 C   0  0  0  0  0  0  0  0  0  0  0  0
  186.5540  176.4780  142.8390 C   0  0  0  0  0  3  0  0  0  0  0  0
  185.7140  179.3070  145.5880 Cl  0  0  0  0  0  0  0  0  0  0  0  0
  187.6370  177.3980  145.2470 C   0  0  0  0  0  3  0  0  0  0  0  0
  187.7100  175.8860  143.3560 C   0  0  0  0  0  3  0  0  0  0  0  0
  188.2530  176.3400  144.5640 C   0  0  0  0  0  0  0  0  0  0  0  0
  185.9380  177.5280  143.5260 C   0  0  0  0  0  3  0  0  0  0  0  0
  193.7660  173.9990  143.4750 C   0  0  2  0  0  3  0  0  0  0  0  0
  195.1710  172.5610  144.9460 C   0  0  0  0  0  3  0  0  0  0  0  0
  194.1740  172.6760  144.0670 C   0  0  0  0  0  3  0  0  0  0  0  0
  194.5400  176.2760  143.3950 O   0  0  0  0  0  0  0  0  0  0  0  0
  195.9400  173.7390  145.3770 C   0  0  0  0  0  0  0  0  0  0  0  0
  197.0210  173.5750  146.3840 C   0  0  0  0  0  1  0  0  0  0  0  0
  194.6740  175.1330  143.9030 C   0  0  0  0  0  0  0  0  0  0  0  0
  195.7000  174.9130  144.8780 N   0  0  0  0  0  0  0  0  0  0  0  0
  191.9660  173.3200  140.3840 O   0  0  0  0  0  0  0  0  0  0  0  0
  191.4620  174.3560  142.3910 C   0  0  1  0  0  3  0  0  0  0  0  0
  190.9660  172.5930  140.9760 N   0  0  0  0  0  0  0  0  0  0  0  0
  192.3630  174.4420  141.1560 C   0  0  0  0  0  2  0  0  0  0  0  0
  190.6620  173.1300  142.1040 C   0  0  0  0  0  0  0  0  0  0  0  0
  188.2690  172.5300  142.1870 C   0  0  0  0  0  1  0  0  0  0  0  0
  189.5630  172.6160  142.9720 C   0  0  0  0  0  2  0  0  0  0  0  0
  1  7  1  6  0  0  0
  2 15  1  6  0  0  0
  2  4  1  0  0  0  0
  4  8  1  0  0  0  0
  4  3  1  0  0  0  0
  5  6  1  1  0  0  0
  5  7  1  0  0  0  0
  5  2  1  0  0  0  0
  7  9  1  0  0  0  0
  9  8  1  0  0  0  0
 10 13  1  0  0  0  0
 10 12  1  0  0  0  0
 11 14  2  0  0  0  0
 11 16  1  0  0  0  0
 14 15  1  0  0  0  0
 15 13  2  0  0  0  0
 16 10  2  0  0  0  0
 17  1  1  1  0  0  0
 17 23  1  0  0  0  0
 17 19  1  0  0  0  0
 18 21  1  0  0  0  0
 19 18  2  0  0  0  0
 20 23  2  0  0  0  0
 21 22  1  0  0  0  0
 23 24  1  0  0  0  0
 24 21  2  0  0  0  0
 25 27  1  0  0  0  0
 25 28  1  0  0  0  0
 26  1  1  1  0  0  0
 27 29  2  0  0  0  0
 28 26  1  0  0  0  0
 29 26  1  0  0  0  0
 29 31  1  0  0  0  0
 30 31  1  0  0  0  0
M  END
>  <MODEL>
1

>  <REMARK>
 VINA RESULT:      -6.9      0.000      0.000
  Name = 
  5 active torsions:
  status: ('A' for Active; 'I' for Inactive)
    1  A    between atoms: C_3  and  C_22
    2  A    between atoms: C_4  and  C_5
    3  A    between atoms: C_4  and  C_12
    4  A    between atoms: C_4  and  N_21
    5  A    between atoms: C_27  and  C_28
                            x       y       z     vdW  Elec       q    Type
                         _______ _______ _______ _____ _____    ______ ____

>  <TORSDO>
F 5

$$$$
=
 OpenBabel11052417443D

 31 34  0  0  1  0  0  0  0  0999 V2000
  192.2040  174.6140  144.0730 C   0  0  2  0  0  3  0  0  0  0  0  0
  189.2860  176.1910  144.7960 C   0  0  2  0  0  3  0  0  0  0  0  0
  188.3100  175.7130  146.8930 C   0  0  0  0  0  1  0  0  0  0  0  0
  189.2410  176.6000  146.2120 N   0  0  0  0  0  0  0  0  0  0  0  0
  190.6530  176.4810  144.1350 C   0  0  1  0  0  3  0  0  0  0  0  0
  190.9380  177.9720  144.0200 C   0  0  0  0  0  1  0  0  0  0  0  0
  191.7840  175.8170  144.8230 N   0  0  0  0  0  0  0  0  0  0  0  0
  190.5390  176.4430  146.8870 C   0  0  0  0  0  2  0  0  0  0  0  0
  191.4340  175.4080  146.1970 C   0  0  0  0  0  2  0  0  0  0  0  0
  186.4140  178.4220  143.6530 C   0  0  0  0  0  0  0  0  0  0  0  0
  186.6990  176.6250  142.0560 C   0  0  0  0  0  3  0  0  0  0  0  0
  185.5790  179.8710  144.1730 Cl  0  0  0  0  0  0  0  0  0  0  0  0
  187.4660  177.9110  144.4170 C   0  0  0  0  0  3  0  0  0  0  0  0
  187.7510  176.1120  142.8200 C   0  0  0  0  0  3  0  0  0  0  0  0
  188.1360  176.7490  144.0060 C   0  0  0  0  0  0  0  0  0  0  0  0
  186.0290  177.7790  142.4730 C   0  0  0  0  0  3  0  0  0  0  0  0
  192.0350  173.2940  144.8680 C   0  0  2  0  0  3  0  0  0  0  0  0
  193.6290  171.3860  144.7070 C   0  0  0  0  0  3  0  0  0  0  0  0
  193.3760  172.6420  145.0770 C   0  0  0  0  0  3  0  0  0  0  0  0
  189.8040  172.6970  144.1920 O   0  0  0  0  0  0  0  0  0  0  0  0
  192.5870  170.5580  144.0780 C   0  0  0  0  0  0  0  0  0  0  0  0
  192.9160  169.1740  143.6480 C   0  0  0  0  0  1  0  0  0  0  0  0
  191.0050  172.3380  144.3050 C   0  0  0  0  0  0  0  0  0  0  0  0
  191.3830  171.0140  143.9100 N   0  0  0  0  0  0  0  0  0  0  0  0
  194.3250  176.3590  141.9510 O   0  0  0  0  0  0  0  0  0  0  0  0
  193.6130  174.7410  143.4460 C   0  0  1  0  0  3  0  0  0  0  0  0
  194.7920  176.7170  143.1890 N   0  0  0  0  0  0  0  0  0  0  0  0
  193.5820  175.1500  141.9700 C   0  0  0  0  0  2  0  0  0  0  0  0
  194.4090  175.8480  144.0550 C   0  0  0  0  0  0  0  0  0  0  0  0
  194.6600  177.3270  146.0150 C   0  0  0  0  0  1  0  0  0  0  0  0
  194.8040  175.9120  145.4920 C   0  0  0  0  0  2  0  0  0  0  0  0
  1  7  1  1  0  0  0
  2 15  1  6  0  0  0
  2  4  1  0  0  0  0
  4  8  1  0  0  0  0
  4  3  1  0  0  0  0
  5  6  1  1  0  0  0
  5  2  1  0  0  0  0
  5  7  1  0  0  0  0
  7  9  1  0  0  0  0
  9  8  1  0  0  0  0
 10 12  1  0  0  0  0
 10 13  1  0  0  0  0
 11 16  1  0  0  0  0
 11 14  2  0  0  0  0
 14 15  1  0  0  0  0
 15 13  2  0  0  0  0
 16 10  2  0  0  0  0
 17  1  1  6  0  0  0
 17 19  1  0  0  0  0
 18 19  2  0  0  0  0
 20 23  2  0  0  0  0
 21 18  1  0  0  0  0
 22 21  1  0  0  0  0
 23 17  1  0  0  0  0
 24 21  2  0  0  0  0
 24 23  1  0  0  0  0
 25 28  1  0  0  0  0
 25 27  1  0  0  0  0
 26 29  1  0  0  0  0
 26  1  1  1  0  0  0
 27 29  2  0  0  0  0
 28 26  1  0  0  0  0
 29 31  1  0  0  0  0
 31 30  1  0  0  0  0
M  END
>  <MODEL>
2

>  <REMARK>
 VINA RESULT:      -6.5      1.795      3.558
  Name = 
  5 active torsions:
  status: ('A' for Active; 'I' for Inactive)
    1  A    between atoms: C_3  and  C_22
    2  A    between atoms: C_4  and  C_5
    3  A    between atoms: C_4  and  C_12
    4  A    between atoms: C_4  and  N_21
    5  A    between atoms: C_27  and  C_28
                            x       y       z     vdW  Elec       q    Type
                         _______ _______ _______ _____ _____    ______ ____

>  <TORSDO>
F 5

$$$$
=
 OpenBabel11052417443D

 31 34  0  0  1  0  0  0  0  0999 V2000
  190.4900  174.7860  143.9570 C   0  0  2  0  0  3  0  0  0  0  0  0
  193.8030  174.8360  144.6960 C   0  0  2  0  0  3  0  0  0  0  0  0
  195.1340  176.3820  143.5070 C   0  0  0  0  0  1  0  0  0  0  0  0
  194.3240  176.2160  144.7030 N   0  0  0  0  0  0  0  0  0  0  0  0
  192.4360  174.7110  145.4070 C   0  0  1  0  0  3  0  0  0  0  0  0
  192.5320  174.9820  146.9020 C   0  0  0  0  0  1  0  0  0  0  0  0
  191.3920  175.5810  144.8180 N   0  0  0  0  0  0  0  0  0  0  0  0
  193.2540  177.2230  144.6290 C   0  0  0  0  0  2  0  0  0  0  0  0
  191.9710  176.6670  144.0040 C   0  0  0  0  0  2  0  0  0  0  0  0
  195.5580  171.5630  145.5550 C   0  0  0  0  0  0  0  0  0  0  0  0
  196.9580  173.4130  146.2480 C   0  0  0  0  0  3  0  0  0  0  0  0
  195.2850  169.8400  145.4080 Cl  0  0  0  0  0  0  0  0  0  0  0  0
  194.5960  172.4640  145.0910 C   0  0  0  0  0  3  0  0  0  0  0  0
  195.9960  174.3140  145.7840 C   0  0  0  0  0  3  0  0  0  0  0  0
  194.8100  173.8450  145.2090 C   0  0  0  0  0  0  0  0  0  0  0  0
  196.7390  172.0360  146.1350 C   0  0  0  0  0  3  0  0  0  0  0  0
  188.9900  174.9350  144.3180 C   0  0  2  0  0  3  0  0  0  0  0  0
  187.5230  176.7110  143.3690 C   0  0  0  0  0  3  0  0  0  0  0  0
  188.2520  175.6080  143.1920 C   0  0  0  0  0  3  0  0  0  0  0  0
  189.1630  175.0600  146.7150 O   0  0  0  0  0  0  0  0  0  0  0  0
  187.3930  177.3260  144.7000 C   0  0  0  0  0  0  0  0  0  0  0  0
  186.6010  178.5750  144.8510 C   0  0  0  0  0  1  0  0  0  0  0  0
  188.7200  175.5830  145.6600 C   0  0  0  0  0  0  0  0  0  0  0  0
  187.9460  176.7860  145.7430 N   0  0  0  0  0  0  0  0  0  0  0  0
  189.5840  171.5340  143.1470 O   0  0  0  0  0  0  0  0  0  0  0  0
  190.9140  173.3020  143.8270 C   0  0  1  0  0  3  0  0  0  0  0  0
  190.3560  171.8970  142.0740 N   0  0  0  0  0  0  0  0  0  0  0  0
  189.8360  172.3230  144.2990 C   0  0  0  0  0  2  0  0  0  0  0  0
  191.1050  172.8880  142.4060 C   0  0  0  0  0  0  0  0  0  0  0  0
  193.4420  172.7690  141.6200 C   0  0  0  0  0  1  0  0  0  0  0  0
  192.1120  173.4830  141.4800 C   0  0  0  0  0  2  0  0  0  0  0  0
  1  7  1  1  0  0  0
  2  4  1  0  0  0  0
  2 15  1  1  0  0  0
  2  5  1  0  0  0  0
  3  4  1  0  0  0  0
  5  6  1  1  0  0  0
  7  5  1  0  0  0  0
  8  4  1  0  0  0  0
  9  8  1  0  0  0  0
  9  7  1  0  0  0  0
 10 16  1  0  0  0  0
 12 10  1  0  0  0  0
 13 15  1  0  0  0  0
 13 10  2  0  0  0  0
 14 11  1  0  0  0  0
 15 14  2  0  0  0  0
 16 11  2  0  0  0  0
 17  1  1  6  0  0  0
 17 23  1  0  0  0  0
 18 21  1  0  0  0  0
 19 18  2  0  0  0  0
 19 17  1  0  0  0  0
 21 22  1  0  0  0  0
 21 24  2  0  0  0  0
 23 24  1  0  0  0  0
 23 20  2  0  0  0  0
 25 28  1  0  0  0  0
 26  1  1  6  0  0  0
 26 28  1  0  0  0  0
 27 29  2  0  0  0  0
 27 25  1  0  0  0  0
 29 26  1  0  0  0  0
 31 30  1  0  0  0  0
 31 29  1  0  0  0  0
M  END
>  <MODEL>
3

>  <REMARK>
 VINA RESULT:      -6.4      3.052      7.017
  Name = 
  5 active torsions:
  status: ('A' for Active; 'I' for Inactive)
    1  A    between atoms: C_3  and  C_22
    2  A    between atoms: C_4  and  C_5
    3  A    between atoms: C_4  and  C_12
    4  A    between atoms: C_4  and  N_21
    5  A    between atoms: C_27  and  C_28
                            x       y       z     vdW  Elec       q    Type
                         _______ _______ _______ _____ _____    ______ ____

>  <TORSDO>
F 5

$$$$
=
 OpenBabel11052417443D

 31 34  0  0  1  0  0  0  0  0999 V2000
  191.4900  174.8490  143.6710 C   0  0  2  0  0  3  0  0  0  0  0  0
  188.8130  176.6120  144.7900 C   0  0  2  0  0  3  0  0  0  0  0  0
  187.8330  175.8880  146.8120 C   0  0  0  0  0  1  0  0  0  0  0  0
  188.8530  176.7630  146.2560 N   0  0  0  0  0  0  0  0  0  0  0  0
  190.1910  176.8490  144.1290 C   0  0  1  0  0  3  0  0  0  0  0  0
  190.6600  178.2910  144.2640 C   0  0  0  0  0  1  0  0  0  0  0  0
  191.2440  175.9400  144.6380 N   0  0  0  0  0  0  0  0  0  0  0  0
  190.1360  176.3320  146.8330 C   0  0  0  0  0  2  0  0  0  0  0  0
  190.8760  175.3370  145.9330 C   0  0  0  0  0  2  0  0  0  0  0  0
  186.3990  178.0960  142.2400 C   0  0  0  0  0  0  0  0  0  0  0  0
  185.9420  179.0620  144.4120 C   0  0  0  0  0  3  0  0  0  0  0  0
  186.0370  177.9650  140.5320 Cl  0  0  0  0  0  0  0  0  0  0  0  0
  187.4300  177.3340  142.7950 C   0  0  0  0  0  3  0  0  0  0  0  0
  186.9730  178.3000  144.9680 C   0  0  0  0  0  3  0  0  0  0  0  0
  187.7250  177.4380  144.1620 C   0  0  0  0  0  0  0  0  0  0  0  0
  185.6550  178.9610  143.0470 C   0  0  0  0  0  3  0  0  0  0  0  0
  190.8670  173.4930  144.0900 C   0  0  2  0  0  3  0  0  0  0  0  0
  191.9150  171.2900  143.5830 C   0  0  0  0  0  3  0  0  0  0  0  0
  191.9460  172.4530  144.2360 C   0  0  0  0  0  3  0  0  0  0  0  0
  188.6840  173.7290  143.1040 O   0  0  0  0  0  0  0  0  0  0  0  0
  190.8000  170.9580  142.6820 C   0  0  0  0  0  0  0  0  0  0  0  0
  190.8180  169.6670  141.9440 C   0  0  0  0  0  1  0  0  0  0  0  0
  189.7200  173.0230  143.2210 C   0  0  0  0  0  0  0  0  0  0  0  0
  189.7950  171.7670  142.5360 N   0  0  0  0  0  0  0  0  0  0  0  0
  194.2960  176.3120  142.2440 O   0  0  0  0  0  0  0  0  0  0  0  0
  192.9780  174.7090  143.2680 C   0  0  1  0  0  3  0  0  0  0  0  0
  194.6090  176.3230  143.5780 N   0  0  0  0  0  0  0  0  0  0  0  0
  193.3020  175.3530  141.9180 C   0  0  0  0  0  2  0  0  0  0  0  0
  193.8880  175.4500  144.1900 C   0  0  0  0  0  0  0  0  0  0  0  0
  194.3810  176.4350  146.3990 C   0  0  0  0  0  1  0  0  0  0  0  0
  194.0290  175.1660  145.6470 C   0  0  0  0  0  2  0  0  0  0  0  0
  1  7  1  1  0  0  0
  2 15  1  6  0  0  0
  2  4  1  0  0  0  0
  4  3  1  0  0  0  0
  4  8  1  0  0  0  0
  5  6  1  1  0  0  0
  5  7  1  0  0  0  0
  5  2  1  0  0  0  0
  7  9  1  0  0  0  0
  9  8  1  0  0  0  0
 10 13  2  0  0  0  0
 10 16  1  0  0  0  0
 11 14  1  0  0  0  0
 12 10  1  0  0  0  0
 13 15  1  0  0  0  0
 15 14  2  0  0  0  0
 16 11  2  0  0  0  0
 17  1  1  6  0  0  0
 17 19  1  0  0  0  0
 18 19  2  0  0  0  0
 20 23  2  0  0  0  0
 21 18  1  0  0  0  0
 22 21  1  0  0  0  0
 23 17  1  0  0  0  0
 24 21  2  0  0  0  0
 24 23  1  0  0  0  0
 25 27  1  0  0  0  0
 26  1  1  1  0  0  0
 26 29  1  0  0  0  0
 27 29  2  0  0  0  0
 28 25  1  0  0  0  0
 28 26  1  0  0  0  0
 29 31  1  0  0  0  0
 31 30  1  0  0  0  0
M  END
>  <MODEL>
4

>  <REMARK>
 VINA RESULT:      -6.2      1.972      4.089
  Name = 
  5 active torsions:
  status: ('A' for Active; 'I' for Inactive)
    1  A    between atoms: C_3  and  C_22
    2  A    between atoms: C_4  and  C_5
    3  A    between atoms: C_4  and  C_12
    4  A    between atoms: C_4  and  N_21
    5  A    between atoms: C_27  and  C_28
                            x       y       z     vdW  Elec       q    Type
                         _______ _______ _______ _____ _____    ______ ____

>  <TORSDO>
F 5

$$$$
=
 OpenBabel11052417443D

 31 34  0  0  1  0  0  0  0  0999 V2000
  191.9770  174.8930  144.1770 C   0  0  2  0  0  3  0  0  0  0  0  0
  190.3130  173.0700  141.8460 C   0  0  2  0  0  3  0  0  0  0  0  0
  190.4040  170.7210  142.0700 C   0  0  0  0  0  1  0  0  0  0  0  0
  189.6510  171.9030  142.4590 N   0  0  0  0  0  0  0  0  0  0  0  0
  190.1400  174.3600  142.6820 C   0  0  1  0  0  3  0  0  0  0  0  0
  188.6930  174.8320  142.7280 C   0  0  0  0  0  1  0  0  0  0  0  0
  190.6590  174.2330  144.0620 N   0  0  0  0  0  0  0  0  0  0  0  0
  189.6730  171.9500  143.9300 C   0  0  0  0  0  2  0  0  0  0  0  0
  190.8110  172.8220  144.4690 C   0  0  0  0  0  2  0  0  0  0  0  0
  190.4750  173.7400  138.0970 C   0  0  0  0  0  0  0  0  0  0  0  0
  188.1920  173.2140  138.7050 C   0  0  0  0  0  3  0  0  0  0  0  0
  191.6630  174.1580  136.8800 Cl  0  0  0  0  0  0  0  0  0  0  0  0
  190.8650  173.5920  139.4300 C   0  0  0  0  0  3  0  0  0  0  0  0
  188.5800  173.0660  140.0390 C   0  0  0  0  0  3  0  0  0  0  0  0
  189.9170  173.2590  140.4090 C   0  0  0  0  0  0  0  0  0  0  0  0
  189.1390  173.5520  137.7330 C   0  0  0  0  0  3  0  0  0  0  0  0
  193.1060  173.9510  144.6670 C   0  0  2  0  0  3  0  0  0  0  0  0
  195.1890  174.7660  145.7640 C   0  0  0  0  0  3  0  0  0  0  0  0
  193.8660  174.6000  145.7940 C   0  0  0  0  0  3  0  0  0  0  0  0
  193.5420  172.7480  142.6300 O   0  0  0  0  0  0  0  0  0  0  0  0
  195.9840  174.3060  144.6140 C   0  0  0  0  0  0  0  0  0  0  0  0
  197.4520  174.5410  144.6020 C   0  0  0  0  0  1  0  0  0  0  0  0
  194.0160  173.4260  143.5770 C   0  0  0  0  0  0  0  0  0  0  0  0
  195.4250  173.6840  143.6210 N   0  0  0  0  0  0  0  0  0  0  0  0
  190.4500  177.9700  144.6800 O   0  0  0  0  0  0  0  0  0  0  0  0
  191.9330  176.2180  144.9770 C   0  0  1  0  0  3  0  0  0  0  0  0
  190.0130  177.2470  145.7600 N   0  0  0  0  0  0  0  0  0  0  0  0
  191.6340  177.4400  144.1050 C   0  0  0  0  0  2  0  0  0  0  0  0
  190.8050  176.2540  145.9550 C   0  0  0  0  0  0  0  0  0  0  0  0
  189.1880  174.9160  147.2550 C   0  0  0  0  0  1  0  0  0  0  0  0
  190.6450  175.3050  147.0950 C   0  0  0  0  0  2  0  0  0  0  0  0
  1  7  1  1  0  0  0
  2 15  1  6  0  0  0
  2  4  1  0  0  0  0
  2  5  1  0  0  0  0
  3  4  1  0  0  0  0
  4  8  1  0  0  0  0
  5  6  1  1  0  0  0
  5  7  1  0  0  0  0
  7  9  1  0  0  0  0
  8  9  1  0  0  0  0
 10 13  1  0  0  0  0
 11 14  2  0  0  0  0
 12 10  1  0  0  0  0
 13 15  2  0  0  0  0
 14 15  1  0  0  0  0
 16 10  2  0  0  0  0
 16 11  1  0  0  0  0
 17  1  1  6  0  0  0
 17 19  1  0  0  0  0
 18 19  2  0  0  0  0
 20 23  2  0  0  0  0
 21 18  1  0  0  0  0
 22 21  1  0  0  0  0
 23 24  1  0  0  0  0
 23 17  1  0  0  0  0
 24 21  2  0  0  0  0
 25 27  1  0  0  0  0
 26  1  1  6  0  0  0
 26 29  1  0  0  0  0
 27 29  2  0  0  0  0
 28 25  1  0  0  0  0
 28 26  1  0  0  0  0
 29 31  1  0  0  0  0
 31 30  1  0  0  0  0
M  END
>  <MODEL>
5

>  <REMARK>
 VINA RESULT:      -6.0      2.975      5.106
  Name = 
  5 active torsions:
  status: ('A' for Active; 'I' for Inactive)
    1  A    between atoms: C_3  and  C_22
    2  A    between atoms: C_4  and  C_5
    3  A    between atoms: C_4  and  C_12
    4  A    between atoms: C_4  and  N_21
    5  A    between atoms: C_27  and  C_28
                            x       y       z     vdW  Elec       q    Type
                         _______ _______ _______ _____ _____    ______ ____

>  <TORSDO>
F 5

$$$$
=
 OpenBabel11052417443D

 31 34  0  0  1  0  0  0  0  0999 V2000
  190.2270  175.3190  144.6000 C   0  0  2  0  0  3  0  0  0  0  0  0
  190.7760  173.3610  141.8810 C   0  0  2  0  0  3  0  0  0  0  0  0
  190.8380  171.0290  142.2460 C   0  0  0  0  0  1  0  0  0  0  0  0
  189.9520  172.1390  141.9330 N   0  0  0  0  0  0  0  0  0  0  0  0
  189.9880  174.6290  142.2840 C   0  0  1  0  0  3  0  0  0  0  0  0
  188.8910  174.9720  141.2860 C   0  0  0  0  0  1  0  0  0  0  0  0
  189.4070  174.5450  143.6430 N   0  0  0  0  0  0  0  0  0  0  0  0
  188.9410  172.1840  143.0010 C   0  0  0  0  0  2  0  0  0  0  0  0
  189.3240  173.1520  144.1250 C   0  0  0  0  0  2  0  0  0  0  0  0
  193.3680  174.2780  139.2400 C   0  0  0  0  0  0  0  0  0  0  0  0
  191.5470  173.0870  138.1770 C   0  0  0  0  0  3  0  0  0  0  0  0
  194.9140  175.0910  139.1340 Cl  0  0  0  0  0  0  0  0  0  0  0  0
  192.7220  174.1660  140.4740 C   0  0  0  0  0  3  0  0  0  0  0  0
  190.9000  172.9750  139.4110 C   0  0  0  0  0  3  0  0  0  0  0  0
  191.4810  173.5180  140.5630 C   0  0  0  0  0  0  0  0  0  0  0  0
  192.7800  173.7400  138.0910 C   0  0  0  0  0  3  0  0  0  0  0  0
  189.4760  176.5140  145.2410 C   0  0  2  0  0  3  0  0  0  0  0  0
  187.6260  176.2450  146.8880 C   0  0  0  0  0  3  0  0  0  0  0  0
  188.9180  176.1150  146.5810 C   0  0  0  0  0  3  0  0  0  0  0  0
  188.7800  177.6700  143.2480 O   0  0  0  0  0  0  0  0  0  0  0  0
  186.6710  176.8070  145.9190 C   0  0  0  0  0  0  0  0  0  0  0  0
  185.2340  176.9040  146.2860 C   0  0  0  0  0  1  0  0  0  0  0  0
  188.4400  177.1670  144.3500 C   0  0  0  0  0  0  0  0  0  0  0  0
  187.0690  177.2330  144.7590 N   0  0  0  0  0  0  0  0  0  0  0  0
  193.1370  177.1650  145.0130 O   0  0  0  0  0  0  0  0  0  0  0  0
  191.6060  175.7330  144.0310 C   0  0  1  0  0  3  0  0  0  0  0  0
  193.5670  175.8860  145.2520 N   0  0  0  0  0  0  0  0  0  0  0  0
  191.9340  177.2110  144.2620 C   0  0  0  0  0  2  0  0  0  0  0  0
  192.7360  175.0540  144.7310 C   0  0  0  0  0  0  0  0  0  0  0  0
  194.0470  173.1850  143.7920 C   0  0  0  0  0  1  0  0  0  0  0  0
  192.9470  173.5780  144.7590 C   0  0  0  0  0  2  0  0  0  0  0  0
  1  7  1  6  0  0  0
  2 15  1  6  0  0  0
  2  4  1  0  0  0  0
  2  5  1  0  0  0  0
  4  3  1  0  0  0  0
  4  8  1  0  0  0  0
  5  6  1  6  0  0  0
  5  7  1  0  0  0  0
  7  9  1  0  0  0  0
  8  9  1  0  0  0  0
 10 13  1  0  0  0  0
 11 14  2  0  0  0  0
 12 10  1  0  0  0  0
 13 15  2  0  0  0  0
 14 15  1  0  0  0  0
 16 11  1  0  0  0  0
 16 10  2  0  0  0  0
 17  1  1  6  0  0  0
 17 19  1  0  0  0  0
 19 18  2  0  0  0  0
 20 23  2  0  0  0  0
 21 22  1  0  0  0  0
 21 18  1  0  0  0  0
 23 24  1  0  0  0  0
 23 17  1  0  0  0  0
 24 21  2  0  0  0  0
 25 27  1  0  0  0  0
 26 28  1  0  0  0  0
 26  1  1  1  0  0  0
 26 29  1  0  0  0  0
 28 25  1  0  0  0  0
 29 31  1  0  0  0  0
 29 27  2  0  0  0  0
 30 31  1  0  0  0  0
M  END
>  <MODEL>
6

>  <REMARK>
 VINA RESULT:      -6.0      3.016      6.744
  Name = 
  5 active torsions:
  status: ('A' for Active; 'I' for Inactive)
    1  A    between atoms: C_3  and  C_22
    2  A    between atoms: C_4  and  C_5
    3  A    between atoms: C_4  and  C_12
    4  A    between atoms: C_4  and  N_21
    5  A    between atoms: C_27  and  C_28
                            x       y       z     vdW  Elec       q    Type
                         _______ _______ _______ _____ _____    ______ ____

>  <TORSDO>
F 5

$$$$
=
 OpenBabel11052417443D

 31 34  0  0  1  0  0  0  0  0999 V2000
  193.1960  174.0800  144.0960 C   0  0  2  0  0  3  0  0  0  0  0  0
  190.2410  175.5060  144.9670 C   0  0  2  0  0  3  0  0  0  0  0  0
  189.5390  175.2170  147.2030 C   0  0  0  0  0  1  0  0  0  0  0  0
  190.3100  176.0820  146.3230 N   0  0  0  0  0  0  0  0  0  0  0  0
  191.5000  175.8170  144.1240 C   0  0  1  0  0  3  0  0  0  0  0  0
  191.6360  177.3000  143.8080 C   0  0  0  0  0  1  0  0  0  0  0  0
  192.7520  175.3310  144.7470 N   0  0  0  0  0  0  0  0  0  0  0  0
  191.6810  176.1090  146.8560 C   0  0  0  0  0  2  0  0  0  0  0  0
  192.5870  175.0680  146.1900 C   0  0  0  0  0  2  0  0  0  0  0  0
  187.0300  177.3060  143.9750 C   0  0  0  0  0  0  0  0  0  0  0  0
  187.4000  175.4580  142.4540 C   0  0  0  0  0  3  0  0  0  0  0  0
  186.0690  178.6740  144.4920 Cl  0  0  0  0  0  0  0  0  0  0  0  0
  188.1980  176.9710  144.6660 C   0  0  0  0  0  3  0  0  0  0  0  0
  188.5680  175.1230  143.1450 C   0  0  0  0  0  3  0  0  0  0  0  0
  188.9690  175.8740  144.2560 C   0  0  0  0  0  0  0  0  0  0  0  0
  186.6300  176.5490  142.8700 C   0  0  0  0  0  3  0  0  0  0  0  0
  193.6770  172.9940  145.0930 C   0  0  2  0  0  3  0  0  0  0  0  0
  196.0730  172.3910  145.4100 C   0  0  0  0  0  3  0  0  0  0  0  0
  195.0880  173.2830  145.5290 C   0  0  0  0  0  3  0  0  0  0  0  0
  192.3460  171.1360  144.3390 O   0  0  0  0  0  0  0  0  0  0  0  0
  195.8200  171.0550  144.8470 C   0  0  0  0  0  0  0  0  0  0  0  0
  196.9500  170.1010  144.6980 C   0  0  0  0  0  1  0  0  0  0  0  0
  193.4950  171.5680  144.6190 C   0  0  0  0  0  0  0  0  0  0  0  0
  194.6230  170.6940  144.4970 N   0  0  0  0  0  0  0  0  0  0  0  0
  193.8080  175.3700  140.9320 O   0  0  0  0  0  0  0  0  0  0  0  0
  194.2110  174.3100  142.9500 C   0  0  1  0  0  3  0  0  0  0  0  0
  194.4470  176.2720  141.7430 N   0  0  0  0  0  0  0  0  0  0  0  0
  193.6050  174.1130  141.5580 C   0  0  0  0  0  2  0  0  0  0  0  0
  194.6810  175.7260  142.8830 C   0  0  0  0  0  0  0  0  0  0  0  0
  196.8180  176.7890  143.5100 C   0  0  0  0  0  1  0  0  0  0  0  0
  195.4230  176.4220  143.9740 C   0  0  0  0  0  2  0  0  0  0  0  0
  1  7  1  1  0  0  0
  2 15  1  6  0  0  0
  2  4  1  0  0  0  0
  4  8  1  0  0  0  0
  4  3  1  0  0  0  0
  5  6  1  1  0  0  0
  5  7  1  0  0  0  0
  5  2  1  0  0  0  0
  7  9  1  0  0  0  0
  9  8  1  0  0  0  0
 10 12  1  0  0  0  0
 10 13  1  0  0  0  0
 11 16  1  0  0  0  0
 11 14  2  0  0  0  0
 14 15  1  0  0  0  0
 15 13  2  0  0  0  0
 16 10  2  0  0  0  0
 17  1  1  6  0  0  0
 17 19  1  0  0  0  0
 18 19  2  0  0  0  0
 20 23  2  0  0  0  0
 21 18  1  0  0  0  0
 22 21  1  0  0  0  0
 23 17  1  0  0  0  0
 24 23  1  0  0  0  0
 24 21  2  0  0  0  0
 25 28  1  0  0  0  0
 25 27  1  0  0  0  0
 26  1  1  1  0  0  0
 27 29  2  0  0  0  0
 28 26  1  0  0  0  0
 29 26  1  0  0  0  0
 29 31  1  0  0  0  0
 30 31  1  0  0  0  0
M  END
>  <MODEL>
7

>  <REMARK>
 VINA RESULT:      -5.7      1.825      3.222
  Name = 
  5 active torsions:
  status: ('A' for Active; 'I' for Inactive)
    1  A    between atoms: C_3  and  C_22
    2  A    between atoms: C_4  and  C_5
    3  A    between atoms: C_4  and  C_12
    4  A    between atoms: C_4  and  N_21
    5  A    between atoms: C_27  and  C_28
                            x       y       z     vdW  Elec       q    Type
                         _______ _______ _______ _____ _____    ______ ____

>  <TORSDO>
F 5

$$$$
=
 OpenBabel11052417443D

 31 34  0  0  1  0  0  0  0  0999 V2000
  189.5000  176.3360  144.3800 C   0  0  2  0  0  3  0  0  0  0  0  0
  192.3950  174.5700  144.2320 C   0  0  2  0  0  3  0  0  0  0  0  0
  194.1310  175.4830  142.9170 C   0  0  0  0  0  1  0  0  0  0  0  0
  193.5650  175.4670  144.2570 N   0  0  0  0  0  0  0  0  0  0  0  0
  191.3110  174.9760  145.2570 C   0  0  1  0  0  3  0  0  0  0  0  0
  191.7790  174.8090  146.6950 C   0  0  0  0  0  1  0  0  0  0  0  0
  190.8130  176.3570  145.0600 N   0  0  0  0  0  0  0  0  0  0  0  0
  193.2040  176.8570  144.5770 C   0  0  0  0  0  2  0  0  0  0  0  0
  191.7410  177.1700  144.2490 C   0  0  0  0  0  2  0  0  0  0  0  0
  194.2760  171.3830  145.1490 C   0  0  0  0  0  0  0  0  0  0  0  0
  192.2780  170.7910  143.9160 C   0  0  0  0  0  3  0  0  0  0  0  0
  195.7310  170.9060  145.9970 Cl  0  0  0  0  0  0  0  0  0  0  0  0
  193.9480  172.7360  145.0330 C   0  0  0  0  0  3  0  0  0  0  0  0
  191.9490  172.1440  143.7990 C   0  0  0  0  0  3  0  0  0  0  0  0
  192.7840  173.1230  144.3510 C   0  0  0  0  0  0  0  0  0  0  0  0
  193.4430  170.4100  144.5900 C   0  0  0  0  0  3  0  0  0  0  0  0
  189.5850  176.5670  142.8500 C   0  0  2  0  0  3  0  0  0  0  0  0
  188.2110  178.2580  141.6420 C   0  0  0  0  0  3  0  0  0  0  0  0
  189.1770  177.9780  142.5180 C   0  0  0  0  0  3  0  0  0  0  0  0
  189.1830  174.3240  142.0780 O   0  0  0  0  0  0  0  0  0  0  0  0
  187.4940  177.1830  140.9370 C   0  0  0  0  0  0  0  0  0  0  0  0
  186.3990  177.5330  139.9950 C   0  0  0  0  0  1  0  0  0  0  0  0
  188.8610  175.5380  142.0080 C   0  0  0  0  0  0  0  0  0  0  0  0
  187.8150  175.9370  141.1150 N   0  0  0  0  0  0  0  0  0  0  0  0
  186.5100  176.5800  146.1270 O   0  0  0  0  0  0  0  0  0  0  0  0
  188.4460  177.2510  145.0510 C   0  0  1  0  0  3  0  0  0  0  0  0
  187.4380  176.8580  147.0970 N   0  0  0  0  0  0  0  0  0  0  0  0
  187.0060  176.7870  144.8140 C   0  0  0  0  0  2  0  0  0  0  0  0
  188.5370  177.2250  146.5410 C   0  0  0  0  0  0  0  0  0  0  0  0
  189.3290  178.6660  148.3820 C   0  0  0  0  0  1  0  0  0  0  0  0
  189.7310  177.6600  147.3220 C   0  0  0  0  0  2  0  0  0  0  0  0
  1  7  1  1  0  0  0
  2  4  1  0  0  0  0
  2 15  1  1  0  0  0
  2  5  1  0  0  0  0
  3  4  1  0  0  0  0
  4  8  1  0  0  0  0
  5  6  1  1  0  0  0
  7  5  1  0  0  0  0
  9  8  1  0  0  0  0
  9  7  1  0  0  0  0
 10 12  1  0  0  0  0
 11 16  1  0  0  0  0
 13 10  1  0  0  0  0
 14 11  2  0  0  0  0
 14 15  1  0  0  0  0
 15 13  2  0  0  0  0
 16 10  2  0  0  0  0
 17  1  1  1  0  0  0
 18 19  2  0  0  0  0
 19 17  1  0  0  0  0
 21 24  2  0  0  0  0
 21 18  1  0  0  0  0
 22 21  1  0  0  0  0
 23 20  2  0  0  0  0
 23 17  1  0  0  0  0
 24 23  1  0  0  0  0
 25 27  1  0  0  0  0
 26  1  1  6  0  0  0
 26 29  1  0  0  0  0
 28 26  1  0  0  0  0
 28 25  1  0  0  0  0
 29 27  2  0  0  0  0
 29 31  1  0  0  0  0
 31 30  1  0  0  0  0
M  END
>  <MODEL>
8

>  <REMARK>
 VINA RESULT:      -5.7      3.497      7.346
  Name = 
  5 active torsions:
  status: ('A' for Active; 'I' for Inactive)
    1  A    between atoms: C_3  and  C_22
    2  A    between atoms: C_4  and  C_5
    3  A    between atoms: C_4  and  C_12
    4  A    between atoms: C_4  and  N_21
    5  A    between atoms: C_27  and  C_28
                            x       y       z     vdW  Elec       q    Type
                         _______ _______ _______ _____ _____    ______ ____

>  <TORSDO>
F 5

$$$$
=
 OpenBabel11052417443D

 31 34  0  0  1  0  0  0  0  0999 V2000
  190.2810  175.6730  143.2930 C   0  0  2  0  0  3  0  0  0  0  0  0
  190.4020  173.1110  141.0700 C   0  0  2  0  0  3  0  0  0  0  0  0
  190.7180  170.9460  141.9590 C   0  0  0  0  0  1  0  0  0  0  0  0
  189.7040  171.9220  141.5930 N   0  0  0  0  0  0  0  0  0  0  0  0
  189.6190  174.4200  141.3210 C   0  0  1  0  0  3  0  0  0  0  0  0
  188.3150  174.4770  140.5380 C   0  0  0  0  0  1  0  0  0  0  0  0
  189.3420  174.6660  142.7550 N   0  0  0  0  0  0  0  0  0  0  0  0
  188.9370  172.2090  142.8150 C   0  0  0  0  0  2  0  0  0  0  0  0
  189.4690  173.4360  143.5620 C   0  0  0  0  0  2  0  0  0  0  0  0
  190.5180  171.9260  137.4480 C   0  0  0  0  0  0  0  0  0  0  0  0
  192.2100  173.6270  137.7750 C   0  0  0  0  0  3  0  0  0  0  0  0
  189.6910  170.7910  136.4030 Cl  0  0  0  0  0  0  0  0  0  0  0  0
  190.1410  172.0420  138.7890 C   0  0  0  0  0  3  0  0  0  0  0  0
  191.8340  173.7430  139.1160 C   0  0  0  0  0  3  0  0  0  0  0  0
  190.8030  172.9480  139.6300 C   0  0  0  0  0  0  0  0  0  0  0  0
  191.5530  172.7170  136.9410 C   0  0  0  0  0  3  0  0  0  0  0  0
  191.1140  175.1680  144.4990 C   0  0  2  0  0  3  0  0  0  0  0  0
  192.0130  176.6730  146.2690 C   0  0  0  0  0  3  0  0  0  0  0  0
  190.9660  176.1140  145.6610 C   0  0  0  0  0  3  0  0  0  0  0  0
  192.8470  173.9810  143.3250 O   0  0  0  0  0  0  0  0  0  0  0  0
  193.3870  176.3780  145.8330 C   0  0  0  0  0  0  0  0  0  0  0  0
  194.5270  177.0480  146.5130 C   0  0  0  0  0  1  0  0  0  0  0  0
  192.5610  174.8520  144.1870 C   0  0  0  0  0  0  0  0  0  0  0  0
  193.6180  175.5300  144.8780 N   0  0  0  0  0  0  0  0  0  0  0  0
  188.3330  178.2900  142.1080 O   0  0  0  0  0  0  0  0  0  0  0  0
  189.6180  177.0430  143.5750 C   0  0  1  0  0  3  0  0  0  0  0  0
  187.4700  177.6450  142.9550 N   0  0  0  0  0  0  0  0  0  0  0  0
  189.6950  178.0070  142.3880 C   0  0  0  0  0  2  0  0  0  0  0  0
  188.1440  176.9290  143.7840 C   0  0  0  0  0  0  0  0  0  0  0  0
  187.3650  177.0040  146.1250 C   0  0  0  0  0  1  0  0  0  0  0  0
  187.5040  176.1470  144.8810 C   0  0  0  0  0  2  0  0  0  0  0  0
  1  7  1  1  0  0  0
  2 15  1  6  0  0  0
  2  5  1  0  0  0  0
  2  4  1  0  0  0  0
  4  3  1  0  0  0  0
  4  8  1  0  0  0  0
  5  6  1  6  0  0  0
  5  7  1  0  0  0  0
  7  9  1  0  0  0  0
  8  9  1  0  0  0  0
 10 13  1  0  0  0  0
 11 14  2  0  0  0  0
 12 10  1  0  0  0  0
 13 15  2  0  0  0  0
 14 15  1  0  0  0  0
 16 10  2  0  0  0  0
 16 11  1  0  0  0  0
 17  1  1  6  0  0  0
 17 19  1  0  0  0  0
 19 18  2  0  0  0  0
 20 23  2  0  0  0  0
 21 18  1  0  0  0  0
 21 22  1  0  0  0  0
 23 17  1  0  0  0  0
 23 24  1  0  0  0  0
 24 21  2  0  0  0  0
 25 28  1  0  0  0  0
 25 27  1  0  0  0  0
 26  1  1  6  0  0  0
 26 29  1  0  0  0  0
 27 29  2  0  0  0  0
 28 26  1  0  0  0  0
 29 31  1  0  0  0  0
 31 30  1  0  0  0  0
M  END
>  <MODEL>
9

>  <REMARK>
 VINA RESULT:      -5.7      3.541      6.036
  Name = 
  5 active torsions:
  status: ('A' for Active; 'I' for Inactive)
    1  A    between atoms: C_3  and  C_22
    2  A    between atoms: C_4  and  C_5
    3  A    between atoms: C_4  and  C_12
    4  A    between atoms: C_4  and  N_21
    5  A    between atoms: C_27  and  C_28
                            x       y       z     vdW  Elec       q    Type
                         _______ _______ _______ _____ _____    ______ ____

>  <TORSDO>
F 5

$$$$
