=
 OpenBabel11052419133D

 32 36  0  0  1  0  0  0  0  0999 V2000
  188.8990  175.3950  142.1790 C   0  0  2  0  0  3  0  0  0  0  0  0
  191.2540  175.3850  143.1410 C   0  0  1  0  0  3  0  0  0  0  0  0
  187.5270  174.7150  142.2150 C   0  0  0  0  0  2  0  0  0  0  0  0
  189.9010  174.6340  143.0660 C   0  0  2  0  0  3  0  0  0  0  0  0
  192.2160  174.9380  142.0360 C   0  0  0  0  0  2  0  0  0  0  0  0
  191.0670  176.9140  143.1150 C   0  0  1  0  0  3  0  0  0  0  0  0
  192.9600  173.6420  142.3870 C   0  0  2  0  0  3  0  0  0  0  0  0
  190.0130  173.1680  142.5860 C   0  0  1  0  0  3  0  0  0  0  0  0
  190.9760  172.3010  143.4030 C   0  0  0  0  0  2  0  0  0  0  0  0
  188.6370  172.5040  142.5920 C   0  0  0  0  0  2  0  0  0  0  0  0
  189.7710  177.2540  143.5380 O   0  0  0  0  0  0  0  0  0  0  0  0
  193.1030  172.7570  141.1630 C   0  0  0  0  0  1  0  0  0  0  0  0
  188.9050  176.9210  142.4770 C   0  0  2  0  0  3  0  0  0  0  0  0
  192.3910  172.8680  143.5880 C   0  0  0  0  0  2  0  0  0  0  0  0
  187.6550  173.2790  141.7200 C   0  0  0  0  0  2  0  0  0  0  0  0
  185.2940  178.2150  141.7070 C   0  0  0  0  0  0  0  0  0  0  0  0
  184.4320  178.3190  140.6230 O   0  0  0  0  0  1  0  0  0  0  0  0
  187.5530  177.5510  142.6700 C   0  0  0  0  0  0  0  0  0  0  0  0
  184.8300  178.4170  142.9420 C   0  0  0  0  0  3  0  0  0  0  0  0
  187.0660  177.7410  143.9030 C   0  0  0  0  0  3  0  0  0  0  0  0
  186.7060  177.8530  141.5000 C   0  0  0  0  0  0  0  0  0  0  0  0
  187.1690  177.7570  140.3330 O   0  0  0  0  0  0  0  0  0  0  0  0
  185.7280  178.3890  144.1560 C   0  0  2  0  0  3  0  0  0  0  0  0
  185.6460  176.7370  145.9760 C   0  0  0  0  0  2  0  0  0  0  0  0
  185.0510  177.7250  145.3100 C   0  0  0  0  0  3  0  0  0  0  0  0
  192.0790  177.5960  144.0260 C   0  0  0  0  0  2  0  0  0  0  0  0
  191.7260  176.4120  146.2900 C   0  0  0  0  0  3  0  0  0  0  0  0
  193.6210  175.4180  146.4860 O   0  0  0  0  0  0  0  0  0  0  0  0
  193.6620  176.0580  145.3490 C   0  0  0  0  0  0  0  0  0  0  0  0
  194.6480  176.0640  144.5660 O   0  0  0  0  0  0  0  0  0  0  0  0
  192.4710  176.7130  145.1650 C   0  0  0  0  0  0  0  0  0  0  0  0
  192.4770  175.6270  147.0410 O   0  0  0  0  0  0  0  0  0  0  0  0
  1  3  1  1  0  0  0
  1 13  1  0  0  0  0
  1  4  1  0  0  0  0
  2  5  1  6  0  0  0
  4  2  1  0  0  0  0
  5  7  1  0  0  0  0
  6  2  1  0  0  0  0
  6 11  1  0  0  0  0
  6 26  1  0  0  0  0
  7 14  1  0  0  0  0
  8 10  1  0  0  0  0
  8  4  1  0  0  0  0
  8  9  1  0  0  0  0
  9 14  1  0  0  0  0
 12  7  1  0  0  0  0
 13 18  1  0  0  0  0
 13 11  1  0  0  0  0
 15  3  1  0  0  0  0
 15 10  1  0  0  0  0
 16 19  2  0  0  0  0
 17 16  1  0  0  0  0
 18 20  2  0  0  0  0
 19 23  1  0  0  0  0
 20 23  1  0  0  0  0
 21 16  1  0  0  0  0
 21 18  1  0  0  0  0
 22 21  2  0  0  0  0
 23 25  1  0  0  0  0
 25 24  2  0  0  0  0
 26 31  1  0  0  0  0
 27 32  1  0  0  0  0
 28 32  1  0  0  0  0
 29 28  1  0  0  0  0
 30 29  2  0  0  0  0
 31 29  1  0  0  0  0
 31 27  2  0  0  0  0
M  END
>  <MODEL>
1

>  <REMARK>
 VINA RESULT:      -7.9      0.000      0.000
  Name = 
  4 active torsions:
  status: ('A' for Active; 'I' for Inactive)
    1  A    between atoms: C_10  and  C_32
    2  A    between atoms: C_15  and  C_26
    3  A    between atoms: C_16  and  C_27
    4  A    between atoms: C_28  and  C_32
                            x       y       z     vdW  Elec       q    Type
                         _______ _______ _______ _____ _____    ______ ____

>  <TORSDO>
F 4

$$$$
=
 OpenBabel11052419133D

 32 36  0  0  1  0  0  0  0  0999 V2000
  190.1170  176.6190  144.8040 C   0  0  2  0  0  3  0  0  0  0  0  0
  191.2250  174.3370  144.6210 C   0  0  1  0  0  3  0  0  0  0  0  0
  189.8650  177.9520  144.0900 C   0  0  0  0  0  2  0  0  0  0  0  0
  191.0670  175.7370  143.9740 C   0  0  2  0  0  3  0  0  0  0  0  0
  192.3920  174.2960  145.6120 C   0  0  0  0  0  2  0  0  0  0  0  0
  189.9230  173.8620  145.2920 C   0  0  1  0  0  3  0  0  0  0  0  0
  193.7480  174.0880  144.9220 C   0  0  2  0  0  3  0  0  0  0  0  0
  192.4000  176.4830  143.7400 C   0  0  1  0  0  3  0  0  0  0  0  0
  193.4300  175.7070  142.9110 C   0  0  0  0  0  2  0  0  0  0  0  0
  192.1420  177.8260  143.0590 C   0  0  0  0  0  2  0  0  0  0  0  0
  188.8170  174.5300  144.7390 O   0  0  0  0  0  0  0  0  0  0  0  0
  194.8240  174.9220  145.5930 C   0  0  0  0  0  1  0  0  0  0  0  0
  188.8470  175.8420  145.2510 C   0  0  2  0  0  3  0  0  0  0  0  0
  193.7410  174.2840  143.3970 C   0  0  0  0  0  2  0  0  0  0  0  0
  191.1880  178.6810  143.8870 C   0  0  0  0  0  2  0  0  0  0  0  0
  185.8620  178.3340  145.6820 C   0  0  0  0  0  0  0  0  0  0  0  0
  185.4530  179.3310  146.5580 O   0  0  0  0  0  1  0  0  0  0  0  0
  187.5380  176.5420  145.0100 C   0  0  0  0  0  0  0  0  0  0  0  0
  185.2440  178.1920  144.5080 C   0  0  0  0  0  3  0  0  0  0  0  0
  186.9160  176.4250  143.8300 C   0  0  0  0  0  3  0  0  0  0  0  0
  186.9910  177.4560  146.0320 C   0  0  0  0  0  0  0  0  0  0  0  0
  187.5140  177.5240  147.1760 O   0  0  0  0  0  0  0  0  0  0  0  0
  185.5910  177.0840  143.5420 C   0  0  2  0  0  3  0  0  0  0  0  0
  186.5800  178.2680  141.6270 C   0  0  0  0  0  2  0  0  0  0  0  0
  185.5630  177.5740  142.1310 C   0  0  0  0  0  3  0  0  0  0  0  0
  189.7380  172.3620  145.1070 C   0  0  0  0  0  2  0  0  0  0  0  0
  189.2800  172.0560  142.5870 C   0  0  0  0  0  3  0  0  0  0  0  0
  191.1010  171.0780  141.9970 O   0  0  0  0  0  0  0  0  0  0  0  0
  191.2090  171.3070  143.2780 C   0  0  0  0  0  0  0  0  0  0  0  0
  192.2040  170.9880  143.9800 O   0  0  0  0  0  0  0  0  0  0  0  0
  190.0720  171.9380  143.7150 C   0  0  0  0  0  0  0  0  0  0  0  0
  189.9610  171.5210  141.5900 O   0  0  0  0  0  0  0  0  0  0  0  0
  1  3  1  6  0  0  0
  1 13  1  0  0  0  0
  2  6  1  0  0  0  0
  2  5  1  1  0  0  0
  4  2  1  0  0  0  0
  4  1  1  0  0  0  0
  7 12  1  0  0  0  0
  7  5  1  0  0  0  0
  8  4  1  0  0  0  0
  9 14  1  0  0  0  0
  9  8  1  0  0  0  0
 10  8  1  0  0  0  0
 10 15  1  0  0  0  0
 11 13  1  0  0  0  0
 11  6  1  0  0  0  0
 14  7  1  0  0  0  0
 15  3  1  0  0  0  0
 16 21  1  0  0  0  0
 16 17  1  0  0  0  0
 18 13  1  0  0  0  0
 18 21  1  0  0  0  0
 19 16  2  0  0  0  0
 20 18  2  0  0  0  0
 21 22  2  0  0  0  0
 23 20  1  0  0  0  0
 23 19  1  0  0  0  0
 24 25  2  0  0  0  0
 25 23  1  0  0  0  0
 26  6  1  0  0  0  0
 27 31  2  0  0  0  0
 28 29  1  0  0  0  0
 29 31  1  0  0  0  0
 29 30  2  0  0  0  0
 31 26  1  0  0  0  0
 32 28  1  0  0  0  0
 32 27  1  0  0  0  0
M  END
>  <MODEL>
2

>  <REMARK>
 VINA RESULT:      -7.7      2.687      4.603
  Name = 
  4 active torsions:
  status: ('A' for Active; 'I' for Inactive)
    1  A    between atoms: C_10  and  C_32
    2  A    between atoms: C_15  and  C_26
    3  A    between atoms: C_16  and  C_27
    4  A    between atoms: C_28  and  C_32
                            x       y       z     vdW  Elec       q    Type
                         _______ _______ _______ _____ _____    ______ ____

>  <TORSDO>
F 4

$$$$
=
 OpenBabel11052419133D

 32 36  0  0  1  0  0  0  0  0999 V2000
  189.6470  177.3120  145.1360 C   0  0  2  0  0  3  0  0  0  0  0  0
  187.8260  176.9330  143.4010 C   0  0  1  0  0  3  0  0  0  0  0  0
  190.0440  177.1110  146.6020 C   0  0  0  0  0  2  0  0  0  0  0  0
  188.1940  176.8570  144.9040 C   0  0  2  0  0  3  0  0  0  0  0  0
  187.2350  178.2970  143.0280 C   0  0  0  0  0  2  0  0  0  0  0  0
  189.0230  176.5910  142.4950 C   0  0  1  0  0  3  0  0  0  0  0  0
  185.7410  178.4070  143.3610 C   0  0  2  0  0  3  0  0  0  0  0  0
  187.2460  177.6500  145.8330 C   0  0  1  0  0  3  0  0  0  0  0  0
  185.7660  177.2750  145.7030 C   0  0  0  0  0  2  0  0  0  0  0  0
  187.6650  177.4730  147.2920 C   0  0  0  0  0  2  0  0  0  0  0  0
  189.9650  175.8230  143.2010 O   0  0  0  0  0  0  0  0  0  0  0  0
  185.4090  179.7910  143.8880 C   0  0  0  0  0  1  0  0  0  0  0  0
  190.6180  176.7060  144.0830 C   0  0  2  0  0  3  0  0  0  0  0  0
  185.1940  177.3000  144.2790 C   0  0  0  0  0  2  0  0  0  0  0  0
  189.1110  177.9150  147.4990 C   0  0  0  0  0  2  0  0  0  0  0  0
  193.1870  173.9920  145.2410 C   0  0  0  0  0  0  0  0  0  0  0  0
  193.2640  172.6100  145.3580 O   0  0  0  0  0  1  0  0  0  0  0  0
  191.8700  176.0820  144.6380 C   0  0  0  0  0  0  0  0  0  0  0  0
  194.2940  174.7270  145.3580 C   0  0  0  0  0  3  0  0  0  0  0  0
  192.9940  176.8030  144.7430 C   0  0  0  0  0  3  0  0  0  0  0  0
  191.8970  174.6420  144.9580 C   0  0  0  0  0  0  0  0  0  0  0  0
  190.8370  173.9630  144.9420 O   0  0  0  0  0  0  0  0  0  0  0  0
  194.2700  176.2370  145.3120 C   0  0  2  0  0  3  0  0  0  0  0  0
  195.7830  176.2680  143.3740 C   0  0  0  0  0  2  0  0  0  0  0  0
  195.4440  176.7710  144.5600 C   0  0  0  0  0  3  0  0  0  0  0  0
  188.5660  175.8100  141.2700 C   0  0  0  0  0  2  0  0  0  0  0  0
  187.8120  173.4930  142.1140 C   0  0  0  0  0  3  0  0  0  0  0  0
  189.5060  172.3130  141.5130 O   0  0  0  0  0  0  0  0  0  0  0  0
  189.7570  173.5340  141.1250 C   0  0  0  0  0  0  0  0  0  0  0  0
  190.8060  173.8930  140.5290 O   0  0  0  0  0  0  0  0  0  0  0  0
  188.7040  174.3380  141.4790 C   0  0  0  0  0  0  0  0  0  0  0  0
  188.3560  172.2890  142.0960 O   0  0  0  0  0  0  0  0  0  0  0  0
  1  3  1  1  0  0  0
  2  5  1  6  0  0  0
  2  4  1  0  0  0  0
  3 15  1  0  0  0  0
  4  1  1  0  0  0  0
  4  8  1  0  0  0  0
  5  7  1  0  0  0  0
  6 11  1  0  0  0  0
  6  2  1  0  0  0  0
  7 12  1  0  0  0  0
  7 14  1  0  0  0  0
  8 10  1  0  0  0  0
  9  8  1  0  0  0  0
 10 15  1  0  0  0  0
 11 13  1  0  0  0  0
 13 18  1  0  0  0  0
 13  1  1  0  0  0  0
 14  9  1  0  0  0  0
 16 19  2  0  0  0  0
 16 17  1  0  0  0  0
 18 20  2  0  0  0  0
 18 21  1  0  0  0  0
 20 23  1  0  0  0  0
 21 16  1  0  0  0  0
 22 21  2  0  0  0  0
 23 19  1  0  0  0  0
 24 25  2  0  0  0  0
 25 23  1  0  0  0  0
 26 31  1  0  0  0  0
 26  6  1  0  0  0  0
 28 32  1  0  0  0  0
 29 31  1  0  0  0  0
 29 28  1  0  0  0  0
 30 29  2  0  0  0  0
 31 27  2  0  0  0  0
 32 27  1  0  0  0  0
M  END
>  <MODEL>
3

>  <REMARK>
 VINA RESULT:      -7.6      2.318      7.187
  Name = 
  4 active torsions:
  status: ('A' for Active; 'I' for Inactive)
    1  A    between atoms: C_10  and  C_32
    2  A    between atoms: C_15  and  C_26
    3  A    between atoms: C_16  and  C_27
    4  A    between atoms: C_28  and  C_32
                            x       y       z     vdW  Elec       q    Type
                         _______ _______ _______ _____ _____    ______ ____

>  <TORSDO>
F 4

$$$$
=
 OpenBabel11052419133D

 32 36  0  0  1  0  0  0  0  0999 V2000
  188.7180  176.1200  144.0610 C   0  0  2  0  0  3  0  0  0  0  0  0
  186.7500  177.2170  145.2410 C   0  0  1  0  0  3  0  0  0  0  0  0
  189.9840  176.3730  143.2350 C   0  0  0  0  0  2  0  0  0  0  0  0
  187.9590  177.4390  144.2980 C   0  0  2  0  0  3  0  0  0  0  0  0
  185.4770  176.8700  144.4630 C   0  0  0  0  0  2  0  0  0  0  0  0
  187.0420  176.1500  146.3130 C   0  0  1  0  0  3  0  0  0  0  0  0
  184.7660  178.1110  143.9060 C   0  0  2  0  0  3  0  0  0  0  0  0
  187.5970  178.0830  142.9410 C   0  0  1  0  0  3  0  0  0  0  0  0
  186.8460  179.4150  143.0460 C   0  0  0  0  0  2  0  0  0  0  0  0
  188.8590  178.3030  142.1060 C   0  0  0  0  0  2  0  0  0  0  0  0
  188.4280  176.0160  146.5030 O   0  0  0  0  0  0  0  0  0  0  0  0
  184.2050  177.8330  142.5240 C   0  0  0  0  0  1  0  0  0  0  0  0
  188.9200  175.3230  145.3800 C   0  0  2  0  0  3  0  0  0  0  0  0
  185.5950  179.4060  143.9360 C   0  0  0  0  0  2  0  0  0  0  0  0
  189.6040  176.9890  141.8930 C   0  0  0  0  0  2  0  0  0  0  0  0
  192.1940  173.2060  145.0460 C   0  0  0  0  0  0  0  0  0  0  0  0
  192.6630  172.1180  144.3210 O   0  0  0  0  0  1  0  0  0  0  0  0
  190.3160  174.8200  145.6280 C   0  0  0  0  0  0  0  0  0  0  0  0
  193.0490  173.9540  145.7440 C   0  0  0  0  0  3  0  0  0  0  0  0
  191.1920  175.5690  146.3100 C   0  0  0  0  0  3  0  0  0  0  0  0
  190.7620  173.5520  145.0200 C   0  0  0  0  0  0  0  0  0  0  0  0
  189.9390  172.7940  144.4430 O   0  0  0  0  0  0  0  0  0  0  0  0
  192.5950  175.1060  146.6090 C   0  0  2  0  0  3  0  0  0  0  0  0
  193.8500  176.7930  145.3330 C   0  0  0  0  0  2  0  0  0  0  0  0
  193.5430  176.2570  146.5120 C   0  0  0  0  0  3  0  0  0  0  0  0
  186.3950  176.5250  147.6390 C   0  0  0  0  0  2  0  0  0  0  0  0
  187.4850  178.7440  148.3750 C   0  0  0  0  0  3  0  0  0  0  0  0
  185.8520  180.0940  148.0160 O   0  0  0  0  0  0  0  0  0  0  0  0
  185.4290  178.9100  147.6640 C   0  0  0  0  0  0  0  0  0  0  0  0
  184.2780  178.6660  147.2170 O   0  0  0  0  0  0  0  0  0  0  0  0
  186.4350  178.0010  147.8670 C   0  0  0  0  0  0  0  0  0  0  0  0
  187.0660  179.9950  148.4350 O   0  0  0  0  0  0  0  0  0  0  0  0
  1  3  1  1  0  0  0
  1  4  1  0  0  0  0
  1 13  1  0  0  0  0
  2  5  1  6  0  0  0
  2  6  1  0  0  0  0
  4  2  1  0  0  0  0
  6 11  1  0  0  0  0
  6 26  1  0  0  0  0
  7 14  1  0  0  0  0
  7  5  1  0  0  0  0
  8  9  1  0  0  0  0
  8  4  1  0  0  0  0
  9 14  1  0  0  0  0
 10  8  1  0  0  0  0
 12  7  1  0  0  0  0
 13 18  1  0  0  0  0
 13 11  1  0  0  0  0
 15 10  1  0  0  0  0
 15  3  1  0  0  0  0
 16 19  2  0  0  0  0
 17 16  1  0  0  0  0
 18 20  2  0  0  0  0
 19 23  1  0  0  0  0
 20 23  1  0  0  0  0
 21 16  1  0  0  0  0
 21 18  1  0  0  0  0
 22 21  2  0  0  0  0
 24 25  2  0  0  0  0
 25 23  1  0  0  0  0
 26 31  1  0  0  0  0
 27 32  1  0  0  0  0
 28 32  1  0  0  0  0
 29 31  1  0  0  0  0
 29 28  1  0  0  0  0
 30 29  2  0  0  0  0
 31 27  2  0  0  0  0
M  END
>  <MODEL>
4

>  <REMARK>
 VINA RESULT:      -7.3      2.861      7.302
  Name = 
  4 active torsions:
  status: ('A' for Active; 'I' for Inactive)
    1  A    between atoms: C_10  and  C_32
    2  A    between atoms: C_15  and  C_26
    3  A    between atoms: C_16  and  C_27
    4  A    between atoms: C_28  and  C_32
                            x       y       z     vdW  Elec       q    Type
                         _______ _______ _______ _____ _____    ______ ____

>  <TORSDO>
F 4

$$$$
=
 OpenBabel11052419133D

 32 36  0  0  1  0  0  0  0  0999 V2000
  189.6550  174.9840  142.9580 C   0  0  2  0  0  3  0  0  0  0  0  0
  191.8060  174.1170  144.0030 C   0  0  1  0  0  3  0  0  0  0  0  0
  188.1860  174.6640  142.6650 C   0  0  0  0  0  2  0  0  0  0  0  0
  190.3570  173.7640  143.5820 C   0  0  2  0  0  3  0  0  0  0  0  0
  192.8080  173.8510  142.8740 C   0  0  0  0  0  2  0  0  0  0  0  0
  191.9240  175.5680  144.5050 C   0  0  1  0  0  3  0  0  0  0  0  0
  193.2310  172.3770  142.7930 C   0  0  2  0  0  3  0  0  0  0  0  0
  190.2490  172.5550  142.6240 C   0  0  1  0  0  3  0  0  0  0  0  0
  190.9030  171.2700  143.1430 C   0  0  0  0  0  2  0  0  0  0  0  0
  188.7840  172.2600  142.3080 C   0  0  0  0  0  2  0  0  0  0  0  0
  190.6720  176.0380  144.9370 O   0  0  0  0  0  0  0  0  0  0  0  0
  193.3680  171.9380  141.3470 C   0  0  0  0  0  1  0  0  0  0  0  0
  189.9140  176.2820  143.7740 C   0  0  2  0  0  3  0  0  0  0  0  0
  192.3610  171.4030  143.6050 C   0  0  0  0  0  2  0  0  0  0  0  0
  188.1010  173.4840  141.7050 C   0  0  0  0  0  2  0  0  0  0  0  0
  186.7040  178.4630  143.2770 C   0  0  0  0  0  0  0  0  0  0  0  0
  185.9820  179.0330  142.2370 O   0  0  0  0  0  1  0  0  0  0  0  0
  188.6960  177.1050  144.0900 C   0  0  0  0  0  0  0  0  0  0  0  0
  186.1770  178.4170  144.5010 C   0  0  0  0  0  3  0  0  0  0  0  0
  188.1440  177.0540  145.3090 C   0  0  0  0  0  3  0  0  0  0  0  0
  188.0340  177.8820  143.0250 C   0  0  0  0  0  0  0  0  0  0  0  0
  188.5760  178.0090  141.8950 O   0  0  0  0  0  0  0  0  0  0  0  0
  186.9370  177.8750  145.6890 C   0  0  2  0  0  3  0  0  0  0  0  0
  184.7400  177.3480  146.6600 C   0  0  0  0  0  2  0  0  0  0  0  0
  186.0420  177.0820  146.5830 C   0  0  0  0  0  3  0  0  0  0  0  0
  192.9120  175.6600  145.6600 C   0  0  0  0  0  2  0  0  0  0  0  0
  194.9030  176.8180  144.4990 C   0  0  0  0  0  3  0  0  0  0  0  0
  196.3800  175.2660  144.6650 O   0  0  0  0  0  0  0  0  0  0  0  0
  195.3020  174.8050  145.2380 C   0  0  0  0  0  0  0  0  0  0  0  0
  195.2020  173.6640  145.7610 O   0  0  0  0  0  0  0  0  0  0  0  0
  194.3190  175.7580  145.1680 C   0  0  0  0  0  0  0  0  0  0  0  0
  196.1440  176.4560  144.2290 O   0  0  0  0  0  0  0  0  0  0  0  0
  1  3  1  1  0  0  0
  1  4  1  0  0  0  0
  1 13  1  0  0  0  0
  2  5  1  6  0  0  0
  2  6  1  0  0  0  0
  4  2  1  0  0  0  0
  6 11  1  0  0  0  0
  6 26  1  0  0  0  0
  7  5  1  0  0  0  0
  7 14  1  0  0  0  0
  8  9  1  0  0  0  0
  8  4  1  0  0  0  0
  9 14  1  0  0  0  0
 10  8  1  0  0  0  0
 12  7  1  0  0  0  0
 13 18  1  0  0  0  0
 13 11  1  0  0  0  0
 15 10  1  0  0  0  0
 15  3  1  0  0  0  0
 16 19  2  0  0  0  0
 17 16  1  0  0  0  0
 18 20  2  0  0  0  0
 19 23  1  0  0  0  0
 20 23  1  0  0  0  0
 21 16  1  0  0  0  0
 21 18  1  0  0  0  0
 22 21  2  0  0  0  0
 23 25  1  0  0  0  0
 25 24  2  0  0  0  0
 27 31  2  0  0  0  0
 28 29  1  0  0  0  0
 29 30  2  0  0  0  0
 31 29  1  0  0  0  0
 31 26  1  0  0  0  0
 32 27  1  0  0  0  0
 32 28  1  0  0  0  0
M  END
>  <MODEL>
5

>  <REMARK>
 VINA RESULT:      -7.3      1.492      2.054
  Name = 
  4 active torsions:
  status: ('A' for Active; 'I' for Inactive)
    1  A    between atoms: C_10  and  C_32
    2  A    between atoms: C_15  and  C_26
    3  A    between atoms: C_16  and  C_27
    4  A    between atoms: C_28  and  C_32
                            x       y       z     vdW  Elec       q    Type
                         _______ _______ _______ _____ _____    ______ ____

>  <TORSDO>
F 4

$$$$
=
 OpenBabel11052419133D

 32 36  0  0  1  0  0  0  0  0999 V2000
  189.6740  176.8890  144.5820 C   0  0  2  0  0  3  0  0  0  0  0  0
  187.6160  176.7190  143.0970 C   0  0  1  0  0  3  0  0  0  0  0  0
  190.2440  176.5940  145.9730 C   0  0  0  0  0  2  0  0  0  0  0  0
  188.1730  176.5490  144.5330 C   0  0  2  0  0  3  0  0  0  0  0  0
  187.0870  178.1370  142.8560 C   0  0  0  0  0  2  0  0  0  0  0  0
  188.6530  176.3350  142.0260 C   0  0  1  0  0  3  0  0  0  0  0  0
  185.6620  178.3370  143.3920 C   0  0  2  0  0  3  0  0  0  0  0  0
  187.4190  177.3640  145.6090 C   0  0  1  0  0  3  0  0  0  0  0  0
  185.9100  177.1020  145.6670 C   0  0  0  0  0  2  0  0  0  0  0  0
  188.0120  177.0920  146.9900 C   0  0  0  0  0  2  0  0  0  0  0  0
  189.6180  175.4710  142.5700 O   0  0  0  0  0  0  0  0  0  0  0  0
  185.5090  179.7160  144.0070 C   0  0  0  0  0  1  0  0  0  0  0  0
  190.4480  176.2640  143.3870 C   0  0  2  0  0  3  0  0  0  0  0  0
  185.1580  177.2320  144.3350 C   0  0  0  0  0  2  0  0  0  0  0  0
  189.5020  177.4210  147.0160 C   0  0  0  0  0  2  0  0  0  0  0  0
  193.9890  175.5210  144.8760 C   0  0  0  0  0  0  0  0  0  0  0  0
  194.9970  176.1920  145.5560 O   0  0  0  0  0  1  0  0  0  0  0  0
  191.7110  175.5290  143.7450 C   0  0  0  0  0  0  0  0  0  0  0  0
  194.0260  174.1900  144.7860 C   0  0  0  0  0  3  0  0  0  0  0  0
  191.7560  174.1920  143.6790 C   0  0  0  0  0  3  0  0  0  0  0  0
  192.8680  176.2690  144.2830 C   0  0  0  0  0  0  0  0  0  0  0  0
  192.8790  177.5290  144.2820 O   0  0  0  0  0  0  0  0  0  0  0  0
  193.0000  173.4050  144.0020 C   0  0  2  0  0  3  0  0  0  0  0  0
  193.0950  170.9650  144.2910 C   0  0  0  0  0  2  0  0  0  0  0  0
  192.6350  172.1420  144.7090 C   0  0  0  0  0  3  0  0  0  0  0  0
  187.9810  175.6450  140.8470 C   0  0  0  0  0  2  0  0  0  0  0  0
  189.5830  174.0360  139.6240 C   0  0  0  0  0  3  0  0  0  0  0  0
  189.0560  172.1880  140.5860 O   0  0  0  0  0  0  0  0  0  0  0  0
  188.3110  173.1090  141.1340 C   0  0  0  0  0  0  0  0  0  0  0  0
  187.4610  172.8970  142.0380 O   0  0  0  0  0  0  0  0  0  0  0  0
  188.6060  174.3190  140.5610 C   0  0  0  0  0  0  0  0  0  0  0  0
  189.8080  172.7370  139.6950 O   0  0  0  0  0  0  0  0  0  0  0  0
  1  3  1  1  0  0  0
  2  5  1  6  0  0  0
  2  4  1  0  0  0  0
  3 15  1  0  0  0  0
  4  1  1  0  0  0  0
  4  8  1  0  0  0  0
  5  7  1  0  0  0  0
  6 11  1  0  0  0  0
  6  2  1  0  0  0  0
  7 12  1  0  0  0  0
  7 14  1  0  0  0  0
  8  9  1  0  0  0  0
  8 10  1  0  0  0  0
 10 15  1  0  0  0  0
 11 13  1  0  0  0  0
 13 18  1  0  0  0  0
 13  1  1  0  0  0  0
 14  9  1  0  0  0  0
 16 17  1  0  0  0  0
 18 21  1  0  0  0  0
 19 16  2  0  0  0  0
 20 18  2  0  0  0  0
 20 23  1  0  0  0  0
 21 16  1  0  0  0  0
 22 21  2  0  0  0  0
 23 25  1  0  0  0  0
 23 19  1  0  0  0  0
 24 25  2  0  0  0  0
 26  6  1  0  0  0  0
 27 32  1  0  0  0  0
 27 31  2  0  0  0  0
 28 29  1  0  0  0  0
 29 30  2  0  0  0  0
 31 26  1  0  0  0  0
 31 29  1  0  0  0  0
 32 28  1  0  0  0  0
M  END
>  <MODEL>
6

>  <REMARK>
 VINA RESULT:      -7.3      2.293      7.259
  Name = 
  4 active torsions:
  status: ('A' for Active; 'I' for Inactive)
    1  A    between atoms: C_10  and  C_32
    2  A    between atoms: C_15  and  C_26
    3  A    between atoms: C_16  and  C_27
    4  A    between atoms: C_28  and  C_32
                            x       y       z     vdW  Elec       q    Type
                         _______ _______ _______ _____ _____    ______ ____

>  <TORSDO>
F 4

$$$$
=
 OpenBabel11052419133D

 32 36  0  0  1  0  0  0  0  0999 V2000
  189.3080  176.3560  143.7440 C   0  0  2  0  0  3  0  0  0  0  0  0
  190.0040  174.1840  142.6190 C   0  0  1  0  0  3  0  0  0  0  0  0
  189.5190  177.8730  143.7810 C   0  0  0  0  0  2  0  0  0  0  0  0
  190.2950  175.6990  142.7630 C   0  0  2  0  0  3  0  0  0  0  0  0
  190.7920  173.3540  143.6370 C   0  0  0  0  0  2  0  0  0  0  0  0
  188.4990  173.8750  142.7110 C   0  0  1  0  0  3  0  0  0  0  0  0
  192.2350  173.0810  143.1890 C   0  0  2  0  0  3  0  0  0  0  0  0
  191.7460  176.0320  143.1820 C   0  0  1  0  0  3  0  0  0  0  0  0
  192.8250  175.4410  142.2690 C   0  0  0  0  0  2  0  0  0  0  0  0
  191.9430  177.5460  143.2500 C   0  0  0  0  0  2  0  0  0  0  0  0
  187.7450  175.0170  142.3930 O   0  0  0  0  0  0  0  0  0  0  0  0
  193.1870  173.1580  144.3690 C   0  0  0  0  0  1  0  0  0  0  0  0
  187.8470  175.8830  143.5000 C   0  0  2  0  0  3  0  0  0  0  0  0
  192.7230  173.9320  142.0050 C   0  0  0  0  0  2  0  0  0  0  0  0
  190.9470  178.1800  144.2160 C   0  0  0  0  0  2  0  0  0  0  0  0
  185.1200  178.2900  142.0580 C   0  0  0  0  0  0  0  0  0  0  0  0
  184.5160  178.5710  140.8400 O   0  0  0  0  0  1  0  0  0  0  0  0
  186.8140  176.9740  143.4250 C   0  0  0  0  0  0  0  0  0  0  0  0
  184.6020  178.7850  143.1830 C   0  0  0  0  0  3  0  0  0  0  0  0
  186.2700  177.4670  144.5460 C   0  0  0  0  0  3  0  0  0  0  0  0
  186.3100  177.4230  142.1130 C   0  0  0  0  0  0  0  0  0  0  0  0
  186.8580  177.0330  141.0490 O   0  0  0  0  0  0  0  0  0  0  0  0
  185.2500  178.5760  144.5320 C   0  0  2  0  0  3  0  0  0  0  0  0
  184.5640  178.2880  146.8760 C   0  0  0  0  0  2  0  0  0  0  0  0
  184.2230  178.3370  145.5900 C   0  0  0  0  0  3  0  0  0  0  0  0
  188.1200  172.7510  141.7560 C   0  0  0  0  0  2  0  0  0  0  0  0
  190.0670  171.8750  140.3090 C   0  0  0  0  0  3  0  0  0  0  0  0
  189.9490  173.2510  138.6610 O   0  0  0  0  0  0  0  0  0  0  0  0
  188.9880  173.5810  139.4800 C   0  0  0  0  0  0  0  0  0  0  0  0
  188.1850  174.5330  139.2940 O   0  0  0  0  0  0  0  0  0  0  0  0
  189.0090  172.7310  140.5560 C   0  0  0  0  0  0  0  0  0  0  0  0
  190.5850  172.2420  139.1500 O   0  0  0  0  0  0  0  0  0  0  0  0
  1  3  1  6  0  0  0
  2  6  1  0  0  0  0
  2  4  1  0  0  0  0
  2  5  1  1  0  0  0
  3 15  1  0  0  0  0
  4  8  1  0  0  0  0
  4  1  1  0  0  0  0
  7  5  1  0  0  0  0
  7 12  1  0  0  0  0
  8 10  1  0  0  0  0
  9  8  1  0  0  0  0
 10 15  1  0  0  0  0
 11  6  1  0  0  0  0
 11 13  1  0  0  0  0
 13  1  1  0  0  0  0
 14  9  1  0  0  0  0
 14  7  1  0  0  0  0
 16 21  1  0  0  0  0
 16 19  2  0  0  0  0
 17 16  1  0  0  0  0
 18 13  1  0  0  0  0
 18 20  2  0  0  0  0
 19 23  1  0  0  0  0
 21 18  1  0  0  0  0
 22 21  2  0  0  0  0
 23 20  1  0  0  0  0
 23 25  1  0  0  0  0
 25 24  2  0  0  0  0
 26  6  1  0  0  0  0
 27 31  2  0  0  0  0
 28 32  1  0  0  0  0
 28 29  1  0  0  0  0
 29 31  1  0  0  0  0
 30 29  2  0  0  0  0
 31 26  1  0  0  0  0
 32 27  1  0  0  0  0
M  END
>  <MODEL>
7

>  <REMARK>
 VINA RESULT:      -7.2      2.540      4.456
  Name = 
  4 active torsions:
  status: ('A' for Active; 'I' for Inactive)
    1  A    between atoms: C_10  and  C_32
    2  A    between atoms: C_15  and  C_26
    3  A    between atoms: C_16  and  C_27
    4  A    between atoms: C_28  and  C_32
                            x       y       z     vdW  Elec       q    Type
                         _______ _______ _______ _____ _____    ______ ____

>  <TORSDO>
F 4

$$$$
=
 OpenBabel11052419133D

 32 36  0  0  1  0  0  0  0  0999 V2000
  190.6660  175.2970  144.8650 C   0  0  2  0  0  3  0  0  0  0  0  0
  191.0650  173.2250  143.4450 C   0  0  1  0  0  3  0  0  0  0  0  0
  191.0820  176.7520  145.1040 C   0  0  0  0  0  2  0  0  0  0  0  0
  191.5590  174.6530  143.7880 C   0  0  2  0  0  3  0  0  0  0  0  0
  191.7290  172.1650  144.3290 C   0  0  0  0  0  2  0  0  0  0  0  0
  189.5310  173.1120  143.5160 C   0  0  1  0  0  3  0  0  0  0  0  0
  193.1230  171.7620  143.8260 C   0  0  2  0  0  3  0  0  0  0  0  0
  193.0390  174.7260  144.2270 C   0  0  1  0  0  3  0  0  0  0  0  0
  194.0320  174.1240  143.2260 C   0  0  0  0  0  2  0  0  0  0  0  0
  193.4400  176.1750  144.4970 C   0  0  0  0  0  2  0  0  0  0  0  0
  188.9410  174.3790  143.3680 O   0  0  0  0  0  0  0  0  0  0  0  0
  194.0710  171.5480  144.9910 C   0  0  0  0  0  1  0  0  0  0  0  0
  189.1560  175.0640  144.5800 C   0  0  2  0  0  3  0  0  0  0  0  0
  193.7260  172.6930  142.7610 C   0  0  0  0  0  2  0  0  0  0  0  0
  192.5370  176.8010  145.5550 C   0  0  0  0  0  2  0  0  0  0  0  0
  187.0350  178.1700  143.5030 C   0  0  0  0  0  0  0  0  0  0  0  0
  186.7110  178.8600  142.3420 O   0  0  0  0  0  1  0  0  0  0  0  0
  188.2810  176.2840  144.6700 C   0  0  0  0  0  0  0  0  0  0  0  0
  186.3670  178.4210  144.6300 C   0  0  0  0  0  3  0  0  0  0  0  0
  187.5890  176.5390  145.7880 C   0  0  0  0  0  3  0  0  0  0  0  0
  188.0910  177.1430  143.4850 C   0  0  0  0  0  0  0  0  0  0  0  0
  188.7880  176.9710  142.4510 O   0  0  0  0  0  0  0  0  0  0  0  0
  186.7170  177.7590  145.9420 C   0  0  2  0  0  3  0  0  0  0  0  0
  184.4040  178.1850  146.6620 C   0  0  0  0  0  2  0  0  0  0  0  0
  185.4860  177.4110  146.7130 C   0  0  0  0  0  3  0  0  0  0  0  0
  189.0060  172.1910  142.4230 C   0  0  0  0  0  2  0  0  0  0  0  0
  189.3860  173.5180  140.2440 C   0  0  0  0  0  3  0  0  0  0  0  0
  190.9080  172.3020  139.3340 O   0  0  0  0  0  0  0  0  0  0  0  0
  190.6270  171.7370  140.4770 C   0  0  0  0  0  0  0  0  0  0  0  0
  191.1660  170.6840  140.9060 O   0  0  0  0  0  0  0  0  0  0  0  0
  189.6590  172.4740  141.1110 C   0  0  0  0  0  0  0  0  0  0  0  0
  190.1750  173.3540  139.1980 O   0  0  0  0  0  0  0  0  0  0  0  0
  1  3  1  6  0  0  0
  2  6  1  0  0  0  0
  2  4  1  0  0  0  0
  2  5  1  1  0  0  0
  3 15  1  0  0  0  0
  4  8  1  0  0  0  0
  4  1  1  0  0  0  0
  7  5  1  0  0  0  0
  7 12  1  0  0  0  0
  8 10  1  0  0  0  0
  9  8  1  0  0  0  0
 10 15  1  0  0  0  0
 11  6  1  0  0  0  0
 11 13  1  0  0  0  0
 13 18  1  0  0  0  0
 13  1  1  0  0  0  0
 14  9  1  0  0  0  0
 14  7  1  0  0  0  0
 16 19  2  0  0  0  0
 17 16  1  0  0  0  0
 18 20  2  0  0  0  0
 19 23  1  0  0  0  0
 20 23  1  0  0  0  0
 21 16  1  0  0  0  0
 21 18  1  0  0  0  0
 22 21  2  0  0  0  0
 23 25  1  0  0  0  0
 24 25  2  0  0  0  0
 26  6  1  0  0  0  0
 27 31  2  0  0  0  0
 28 29  1  0  0  0  0
 29 30  2  0  0  0  0
 29 31  1  0  0  0  0
 31 26  1  0  0  0  0
 32 28  1  0  0  0  0
 32 27  1  0  0  0  0
M  END
>  <MODEL>
8

>  <REMARK>
 VINA RESULT:      -7.2      2.513      4.577
  Name = 
  4 active torsions:
  status: ('A' for Active; 'I' for Inactive)
    1  A    between atoms: C_10  and  C_32
    2  A    between atoms: C_15  and  C_26
    3  A    between atoms: C_16  and  C_27
    4  A    between atoms: C_28  and  C_32
                            x       y       z     vdW  Elec       q    Type
                         _______ _______ _______ _____ _____    ______ ____

>  <TORSDO>
F 4

$$$$
=
 OpenBabel11052419133D

 32 36  0  0  1  0  0  0  0  0999 V2000
  187.5380  176.2620  143.3330 C   0  0  2  0  0  3  0  0  0  0  0  0
  187.4640  176.8540  145.8060 C   0  0  1  0  0  3  0  0  0  0  0  0
  187.6750  176.8220  141.9140 C   0  0  0  0  0  2  0  0  0  0  0  0
  187.4700  177.4080  144.3590 C   0  0  2  0  0  3  0  0  0  0  0  0
  186.0400  176.5990  146.3120 C   0  0  0  0  0  2  0  0  0  0  0  0
  188.3250  175.5840  145.9410 C   0  0  1  0  0  3  0  0  0  0  0  0
  185.3620  177.8730  146.8380 C   0  0  2  0  0  3  0  0  0  0  0  0
  186.2780  178.3350  144.0280 C   0  0  1  0  0  3  0  0  0  0  0  0
  186.1130  179.5270  144.9760 C   0  0  0  0  0  2  0  0  0  0  0  0
  186.4010  178.8650  142.6000 C   0  0  0  0  0  2  0  0  0  0  0  0
  189.2800  175.5310  144.9110 O   0  0  0  0  0  0  0  0  0  0  0  0
  183.8950  177.8980  146.4510 C   0  0  0  0  0  1  0  0  0  0  0  0
  188.5810  175.1830  143.7380 C   0  0  2  0  0  3  0  0  0  0  0  0
  186.0710  179.1880  146.4730 C   0  0  0  0  0  2  0  0  0  0  0  0
  186.4810  177.7160  141.5990 C   0  0  0  0  0  2  0  0  0  0  0  0
  191.8630  174.8380  141.6360 C   0  0  0  0  0  0  0  0  0  0  0  0
  193.1590  175.3380  141.6350 O   0  0  0  0  0  1  0  0  0  0  0  0
  189.5330  174.7600  142.6520 C   0  0  0  0  0  0  0  0  0  0  0  0
  191.5550  173.8000  140.8570 C   0  0  0  0  0  3  0  0  0  0  0  0
  189.2450  173.7080  141.8750 C   0  0  0  0  0  3  0  0  0  0  0  0
  190.8410  175.4290  142.5160 C   0  0  0  0  0  0  0  0  0  0  0  0
  191.1010  176.4670  143.1800 O   0  0  0  0  0  0  0  0  0  0  0  0
  190.1490  173.2540  140.7570 C   0  0  2  0  0  3  0  0  0  0  0  0
  190.5300  171.0260  141.7270 C   0  0  0  0  0  2  0  0  0  0  0  0
  190.1570  171.7620  140.6820 C   0  0  0  0  0  3  0  0  0  0  0  0
  189.0440  175.5610  147.2830 C   0  0  0  0  0  2  0  0  0  0  0  0
  191.3930  174.9230  146.4300 C   0  0  0  0  0  3  0  0  0  0  0  0
  192.5450  176.5190  147.2950 O   0  0  0  0  0  0  0  0  0  0  0  0
  191.3060  176.7330  147.6460 C   0  0  0  0  0  0  0  0  0  0  0  0
  190.9210  177.6960  148.3590 O   0  0  0  0  0  0  0  0  0  0  0  0
  190.5160  175.7440  147.1170 C   0  0  0  0  0  0  0  0  0  0  0  0
  192.5950  175.4500  146.5760 O   0  0  0  0  0  0  0  0  0  0  0  0
  1  3  1  6  0  0  0
  1 13  1  0  0  0  0
  1  4  1  0  0  0  0
  2  6  1  0  0  0  0
  2  5  1  6  0  0  0
  4  2  1  0  0  0  0
  5  7  1  0  0  0  0
  6 26  1  0  0  0  0
  8  4  1  0  0  0  0
  8  9  1  0  0  0  0
  9 14  1  0  0  0  0
 10  8  1  0  0  0  0
 11  6  1  0  0  0  0
 12  7  1  0  0  0  0
 13 11  1  0  0  0  0
 14  7  1  0  0  0  0
 15  3  1  0  0  0  0
 15 10  1  0  0  0  0
 16 21  1  0  0  0  0
 17 16  1  0  0  0  0
 18 13  1  0  0  0  0
 19 16  2  0  0  0  0
 20 18  2  0  0  0  0
 21 18  1  0  0  0  0
 21 22  2  0  0  0  0
 23 19  1  0  0  0  0
 23 20  1  0  0  0  0
 25 23  1  0  0  0  0
 25 24  2  0  0  0  0
 27 32  1  0  0  0  0
 27 31  2  0  0  0  0
 28 29  1  0  0  0  0
 29 30  2  0  0  0  0
 31 26  1  0  0  0  0
 31 29  1  0  0  0  0
 32 28  1  0  0  0  0
M  END
>  <MODEL>
9

>  <REMARK>
 VINA RESULT:      -7.1      2.214      6.218
  Name = 
  4 active torsions:
  status: ('A' for Active; 'I' for Inactive)
    1  A    between atoms: C_10  and  C_32
    2  A    between atoms: C_15  and  C_26
    3  A    between atoms: C_16  and  C_27
    4  A    between atoms: C_28  and  C_32
                            x       y       z     vdW  Elec       q    Type
                         _______ _______ _______ _____ _____    ______ ____

>  <TORSDO>
F 4

$$$$
