=
 OpenBabel11052421383D

 32 37  0  0  1  0  0  0  0  0999 V2000
  185.3640  178.8360  143.5760 C   0  0  1  0  0  3  0  0  0  0  0  0
  189.1310  175.3030  143.2710 C   0  0  0  0  0  0  0  0  0  0  0  0
  192.0120  176.2820  147.0750 C   0  0  0  0  0  3  0  0  0  0  0  0
  192.8240  175.1960  146.7450 C   0  0  0  0  0  3  0  0  0  0  0  0
  189.6490  173.3310  141.8220 C   0  0  0  0  0  0  0  0  0  0  0  0
  190.5060  172.2570  141.5710 C   0  0  0  0  0  0  0  0  0  0  0  0
  187.4170  176.9620  142.6350 C   0  0  2  0  0  3  0  0  0  0  0  0
  188.5770  177.1730  144.7570 N   0  0  0  0  0  2  0  0  0  0  0  0
  192.4130  170.8390  141.9870 C   0  0  1  0  0  3  0  0  0  0  0  0
  186.7250  178.7150  144.2740 C   0  0  0  0  0  2  0  0  0  0  0  0
  190.8900  176.5760  146.2980 C   0  0  0  0  0  3  0  0  0  0  0  0
  189.4410  176.0810  144.4070 C   0  0  0  0  0  0  0  0  0  0  0  0
  190.5690  175.7880  145.1830 C   0  0  0  0  0  0  0  0  0  0  0  0
  191.0690  173.8820  143.7390 C   0  0  0  0  0  0  0  0  0  0  0  0
  191.5900  170.0790  140.5290 S   0  0  0  0  0  0  0  0  0  0  0  0
  185.4540  178.4010  142.1050 C   0  0  0  0  0  2  0  0  0  0  0  0
  187.2770  177.3020  144.1140 C   0  0  1  0  0  3  0  0  0  0  0  0
  190.3400  171.3300  140.5150 N   0  0  0  0  0  2  0  0  0  0  0  0
  186.0510  177.0000  141.9650 C   0  0  0  0  0  2  0  0  0  0  0  0
  192.5130  174.4010  145.6390 C   0  0  0  0  0  3  0  0  0  0  0  0
  191.3870  174.6860  144.8480 C   0  0  0  0  0  0  0  0  0  0  0  0
  191.8610  172.8150  143.4320 N   0  0  0  0  0  0  0  0  0  0  0  0
  188.0230  175.6790  142.4950 O   0  0  0  0  0  0  0  0  0  0  0  0
  188.2710  173.5420  140.7370 Cl  0  0  0  0  0  0  0  0  0  0  0  0
  193.8110  171.2790  141.5980 C   0  0  0  0  0  1  0  0  0  0  0  0
  189.9260  174.1790  142.9340 C   0  0  0  0  0  0  0  0  0  0  0  0
  191.5930  172.0210  142.3690 C   0  0  0  0  0  0  0  0  0  0  0  0
  184.4060  178.0720  144.2490 O   0  0  0  0  0  0  0  0  0  0  0  0
  184.1050  178.8050  145.3990 C   0  0  0  0  0  2  0  0  0  0  0  0
  184.5110  178.0340  146.6020 C   0  0  0  0  0  0  0  0  0  0  0  0
  184.7580  176.6710  146.5030 O   0  0  0  0  0  0  0  0  0  0  0  0
  184.6700  178.6230  147.7030 O   0  0  0  0  0  1  0  0  0  0  0  0
  1 28  1  1  0  0  0
  1 10  1  0  0  0  0
  2 12  1  0  0  0  0
  4  3  1  0  0  0  0
  5 26  1  0  0  0  0
  6  5  2  0  0  0  0
  6 27  1  0  0  0  0
  7 19  1  1  0  0  0
  7 17  1  0  0  0  0
  9 25  1  6  0  0  0
  9 27  1  0  0  0  0
 11  3  2  0  0  0  0
 12  8  1  0  0  0  0
 12 13  2  0  0  0  0
 13 11  1  0  0  0  0
 14 21  2  0  0  0  0
 15  9  1  0  0  0  0
 16  1  1  0  0  0  0
 17 10  1  6  0  0  0
 17  8  1  0  0  0  0
 18 15  1  0  0  0  0
 18  6  1  0  0  0  0
 19 16  1  0  0  0  0
 20  4  2  0  0  0  0
 21 13  1  0  0  0  0
 21 20  1  0  0  0  0
 22 14  1  0  0  0  0
 23  7  1  0  0  0  0
 23  2  1  0  0  0  0
 24  5  1  0  0  0  0
 26  2  2  0  0  0  0
 26 14  1  0  0  0  0
 27 22  2  0  0  0  0
 28 29  1  0  0  0  0
 29 30  1  0  0  0  0
 30 32  1  0  0  0  0
 31 30  2  0  0  0  0
M  END
>  <MODEL>
1

>  <REMARK>
 VINA RESULT:      -7.9      0.000      0.000
  Name = 
  3 active torsions:
  status: ('A' for Active; 'I' for Inactive)
    1  A    between atoms: C_1  and  C_10
    2  A    between atoms: C_2  and  O_24
    3  A    between atoms: C_10  and  O_24
                            x       y       z     vdW  Elec       q    Type
                         _______ _______ _______ _____ _____    ______ ____

>  <TORSDO>
F 3

$$$$
=
 OpenBabel11052421383D

 32 37  0  0  1  0  0  0  0  0999 V2000
  195.5250  175.2030  145.0550 C   0  0  1  0  0  3  0  0  0  0  0  0
  190.4530  176.1450  144.6770 C   0  0  0  0  0  0  0  0  0  0  0  0
  189.1470  174.0490  140.4780 C   0  0  0  0  0  3  0  0  0  0  0  0
  187.8200  174.4170  140.7020 C   0  0  0  0  0  3  0  0  0  0  0  0
  188.7000  177.2120  146.1070 C   0  0  0  0  0  0  0  0  0  0  0  0
  187.3480  177.5300  146.2580 C   0  0  0  0  0  0  0  0  0  0  0  0
  192.8590  176.4230  145.1560 C   0  0  2  0  0  3  0  0  0  0  0  0
  192.1460  175.0080  143.3160 N   0  0  0  0  0  2  0  0  0  0  0  0
  185.0270  177.5770  145.6010 C   0  0  1  0  0  3  0  0  0  0  0  0
  194.5350  175.0710  143.8910 C   0  0  0  0  0  2  0  0  0  0  0  0
  190.1310  174.3810  141.4120 C   0  0  0  0  0  3  0  0  0  0  0  0
  190.7830  175.4150  143.5160 C   0  0  0  0  0  0  0  0  0  0  0  0
  189.7980  175.0860  142.5780 C   0  0  0  0  0  0  0  0  0  0  0  0
  188.1070  176.1560  143.9790 C   0  0  0  0  0  0  0  0  0  0  0  0
  185.0520  178.4040  147.2440 S   0  0  0  0  0  0  0  0  0  0  0  0
  195.2400  176.4610  145.8880 C   0  0  0  0  0  2  0  0  0  0  0  0
  193.1010  175.1160  144.4090 C   0  0  1  0  0  3  0  0  0  0  0  0
  186.8060  178.2120  147.3730 N   0  0  0  0  0  2  0  0  0  0  0  0
  193.7850  176.5090  146.3600 C   0  0  0  0  0  2  0  0  0  0  0  0
  187.4750  175.1170  141.8600 C   0  0  0  0  0  3  0  0  0  0  0  0
  188.4540  175.4580  142.8090 C   0  0  0  0  0  0  0  0  0  0  0  0
  186.8040  176.5010  144.1950 N   0  0  0  0  0  0  0  0  0  0  0  0
  191.4910  176.4990  145.5530 O   0  0  0  0  0  0  0  0  0  0  0  0
  189.8000  177.7040  147.3980 Cl  0  0  0  0  0  0  0  0  0  0  0  0
  184.5310  178.5570  144.5560 C   0  0  0  0  0  1  0  0  0  0  0  0
  189.1070  176.5060  144.9370 C   0  0  0  0  0  0  0  0  0  0  0  0
  186.4290  177.1790  145.3050 C   0  0  0  0  0  0  0  0  0  0  0  0
  195.4740  174.0640  145.8660 O   0  0  0  0  0  0  0  0  0  0  0  0
  196.8090  173.7510  146.1300 C   0  0  0  0  0  2  0  0  0  0  0  0
  197.1470  172.4450  145.5070 C   0  0  0  0  0  0  0  0  0  0  0  0
  196.7800  171.2610  146.1340 O   0  0  0  0  0  1  0  0  0  0  0  0
  197.7300  172.4110  144.3920 O   0  0  0  0  0  0  0  0  0  0  0  0
  1 28  1  1  0  0  0
  1 16  1  0  0  0  0
  2 26  1  0  0  0  0
  2 23  1  0  0  0  0
  3  4  2  0  0  0  0
  3 11  1  0  0  0  0
  4 20  1  0  0  0  0
  5  6  1  0  0  0  0
  5 24  1  0  0  0  0
  6 18  1  0  0  0  0
  7 23  1  0  0  0  0
  7 19  1  1  0  0  0
  8 12  1  0  0  0  0
  8 17  1  0  0  0  0
  9 25  1  6  0  0  0
  9 15  1  0  0  0  0
 10  1  1  0  0  0  0
 11 13  2  0  0  0  0
 12  2  2  0  0  0  0
 13 21  1  0  0  0  0
 13 12  1  0  0  0  0
 14 22  2  0  0  0  0
 14 26  1  0  0  0  0
 15 18  1  0  0  0  0
 16 19  1  0  0  0  0
 17 10  1  6  0  0  0
 17  7  1  0  0  0  0
 20 21  2  0  0  0  0
 21 14  1  0  0  0  0
 22 27  1  0  0  0  0
 26  5  2  0  0  0  0
 27  9  1  0  0  0  0
 27  6  2  0  0  0  0
 28 29  1  0  0  0  0
 30 29  1  0  0  0  0
 30 31  1  0  0  0  0
 32 30  2  0  0  0  0
M  END
>  <MODEL>
2

>  <REMARK>
 VINA RESULT:      -7.8      4.556      8.738
  Name = 
  3 active torsions:
  status: ('A' for Active; 'I' for Inactive)
    1  A    between atoms: C_1  and  C_10
    2  A    between atoms: C_2  and  O_24
    3  A    between atoms: C_10  and  O_24
                            x       y       z     vdW  Elec       q    Type
                         _______ _______ _______ _____ _____    ______ ____

>  <TORSDO>
F 3

$$$$
=
 OpenBabel11052421383D

 32 37  0  0  1  0  0  0  0  0999 V2000
  186.0120  178.1350  144.0220 C   0  0  1  0  0  3  0  0  0  0  0  0
  189.7850  174.6000  143.8350 C   0  0  0  0  0  0  0  0  0  0  0  0
  193.3350  176.4790  146.5900 C   0  0  0  0  0  3  0  0  0  0  0  0
  194.1080  175.3360  146.3810 C   0  0  0  0  0  3  0  0  0  0  0  0
  190.0790  172.3200  142.8500 C   0  0  0  0  0  0  0  0  0  0  0  0
  190.9120  171.2070  142.7040 C   0  0  0  0  0  0  0  0  0  0  0  0
  187.9080  176.0620  143.1750 C   0  0  2  0  0  3  0  0  0  0  0  0
  189.4660  176.7910  144.8880 N   0  0  0  0  0  2  0  0  0  0  0  0
  192.9220  169.9210  143.0550 C   0  0  1  0  0  3  0  0  0  0  0  0
  187.4910  178.1800  144.4300 C   0  0  0  0  0  2  0  0  0  0  0  0
  192.0670  176.5790  146.0150 C   0  0  0  0  0  3  0  0  0  0  0  0
  190.2850  175.6360  144.6510 C   0  0  0  0  0  0  0  0  0  0  0  0
  191.5590  175.5370  145.2240 C   0  0  0  0  0  0  0  0  0  0  0  0
  191.8350  173.3230  144.2300 C   0  0  0  0  0  0  0  0  0  0  0  0
  191.8530  168.8250  142.0370 S   0  0  0  0  0  0  0  0  0  0  0  0
  185.8190  177.3410  142.7220 C   0  0  0  0  0  2  0  0  0  0  0  0
  188.0580  176.7670  144.5180 C   0  0  1  0  0  3  0  0  0  0  0  0
  190.5740  170.0460  141.9710 N   0  0  0  0  0  2  0  0  0  0  0  0
  186.4340  175.9430  142.8150 C   0  0  0  0  0  2  0  0  0  0  0  0
  193.6120  174.2900  145.5980 C   0  0  0  0  0  3  0  0  0  0  0  0
  192.3380  174.3770  145.0130 C   0  0  0  0  0  0  0  0  0  0  0  0
  192.5930  172.2040  144.0430 N   0  0  0  0  0  0  0  0  0  0  0  0
  188.5270  174.7780  143.2380 O   0  0  0  0  0  0  0  0  0  0  0  0
  188.5020  172.2640  142.0570 Cl  0  0  0  0  0  0  0  0  0  0  0  0
  194.1920  170.2330  142.2870 C   0  0  0  0  0  1  0  0  0  0  0  0
  190.5410  173.4190  143.6320 C   0  0  0  0  0  0  0  0  0  0  0  0
  192.1480  171.1690  143.2920 C   0  0  0  0  0  0  0  0  0  0  0  0
  185.2440  177.5770  145.0490 O   0  0  0  0  0  0  0  0  0  0  0  0
  184.8620  178.6610  145.8420 C   0  0  0  0  0  2  0  0  0  0  0  0
  185.5580  178.5890  147.1530 C   0  0  0  0  0  0  0  0  0  0  0  0
  185.9030  177.3550  147.6890 O   0  0  0  0  0  0  0  0  0  0  0  0
  185.8710  179.6460  147.7590 O   0  0  0  0  0  1  0  0  0  0  0  0
  1 10  1  0  0  0  0
  1 28  1  1  0  0  0
  2 12  1  0  0  0  0
  4  3  1  0  0  0  0
  5 26  1  0  0  0  0
  6  5  2  0  0  0  0
  6 27  1  0  0  0  0
  7 19  1  1  0  0  0
  7 23  1  0  0  0  0
  7 17  1  0  0  0  0
  9 25  1  6  0  0  0
  9 27  1  0  0  0  0
 11  3  2  0  0  0  0
 12  8  1  0  0  0  0
 12 13  2  0  0  0  0
 13 11  1  0  0  0  0
 14 21  2  0  0  0  0
 15  9  1  0  0  0  0
 16 19  1  0  0  0  0
 16  1  1  0  0  0  0
 17 10  1  6  0  0  0
 17  8  1  0  0  0  0
 18 15  1  0  0  0  0
 18  6  1  0  0  0  0
 20  4  2  0  0  0  0
 21 13  1  0  0  0  0
 21 20  1  0  0  0  0
 22 14  1  0  0  0  0
 23  2  1  0  0  0  0
 24  5  1  0  0  0  0
 26  2  2  0  0  0  0
 26 14  1  0  0  0  0
 27 22  2  0  0  0  0
 28 29  1  0  0  0  0
 29 30  1  0  0  0  0
 30 31  2  0  0  0  0
 30 32  1  0  0  0  0
M  END
>  <MODEL>
3

>  <REMARK>
 VINA RESULT:      -7.8      1.263      1.333
  Name = 
  3 active torsions:
  status: ('A' for Active; 'I' for Inactive)
    1  A    between atoms: C_1  and  C_10
    2  A    between atoms: C_2  and  O_24
    3  A    between atoms: C_10  and  O_24
                            x       y       z     vdW  Elec       q    Type
                         _______ _______ _______ _____ _____    ______ ____

>  <TORSDO>
F 3

$$$$
=
 OpenBabel11052421383D

 32 37  0  0  1  0  0  0  0  0999 V2000
  185.7720  177.3960  146.1030 C   0  0  1  0  0  3  0  0  0  0  0  0
  190.2110  175.4860  144.2580 C   0  0  0  0  0  0  0  0  0  0  0  0
  189.0640  173.8430  139.8180 C   0  0  0  0  0  3  0  0  0  0  0  0
  190.3940  173.4780  139.6050 C   0  0  0  0  0  3  0  0  0  0  0  0
  192.5880  175.3680  145.0280 C   0  0  0  0  0  0  0  0  0  0  0  0
  193.8970  174.9840  144.7270 C   0  0  0  0  0  0  0  0  0  0  0  0
  188.3800  176.0860  145.8010 C   0  0  2  0  0  3  0  0  0  0  0  0
  187.9040  175.6880  143.4540 N   0  0  0  0  0  2  0  0  0  0  0  0
  195.6380  174.0510  143.3410 C   0  0  1  0  0  3  0  0  0  0  0  0
  186.0890  176.5010  144.8980 C   0  0  0  0  0  2  0  0  0  0  0  0
  188.6880  174.4380  141.0240 C   0  0  0  0  0  3  0  0  0  0  0  0
  189.2620  175.2730  143.2370 C   0  0  0  0  0  0  0  0  0  0  0  0
  189.6380  174.6720  142.0300 C   0  0  0  0  0  0  0  0  0  0  0  0
  191.9480  174.5450  142.8130 C   0  0  0  0  0  0  0  0  0  0  0  0
  196.5110  174.5940  144.8660 S   0  0  0  0  0  0  0  0  0  0  0  0
  186.6370  177.0220  147.3150 C   0  0  0  0  0  2  0  0  0  0  0  0
  187.5810  176.5440  144.5860 C   0  0  1  0  0  3  0  0  0  0  0  0
  195.0020  175.1590  145.5940 N   0  0  0  0  0  2  0  0  0  0  0  0
  188.1280  177.0270  146.9700 C   0  0  0  0  0  2  0  0  0  0  0  0
  191.3500  173.7080  140.5970 C   0  0  0  0  0  3  0  0  0  0  0  0
  190.9860  174.3060  141.8160 C   0  0  0  0  0  0  0  0  0  0  0  0
  193.2480  174.1950  142.5900 N   0  0  0  0  0  0  0  0  0  0  0  0
  189.7660  176.0370  145.4700 O   0  0  0  0  0  0  0  0  0  0  0  0
  192.3020  176.1160  146.6020 Cl  0  0  0  0  0  0  0  0  0  0  0  0
  195.7910  172.5500  143.1860 C   0  0  0  0  0  1  0  0  0  0  0  0
  191.5720  175.1470  144.0530 C   0  0  0  0  0  0  0  0  0  0  0  0
  194.2040  174.4020  143.5260 C   0  0  0  0  0  0  0  0  0  0  0  0
  185.9610  178.7410  145.7710 O   0  0  0  0  0  0  0  0  0  0  0  0
  184.6970  179.1970  145.3870 C   0  0  0  0  0  2  0  0  0  0  0  0
  184.5930  179.1880  143.9040 C   0  0  0  0  0  0  0  0  0  0  0  0
  185.6900  179.5440  143.1290 O   0  0  0  0  0  0  0  0  0  0  0  0
  183.5250  178.8210  143.3500 O   0  0  0  0  0  1  0  0  0  0  0  0
  1 28  1  6  0  0  0
  1 16  1  0  0  0  0
  2 23  1  0  0  0  0
  3 11  1  0  0  0  0
  4  3  2  0  0  0  0
  4 20  1  0  0  0  0
  5 24  1  0  0  0  0
  6  5  1  0  0  0  0
  6 18  1  0  0  0  0
  7 19  1  1  0  0  0
  8 17  1  0  0  0  0
  9 25  1  1  0  0  0
  9 27  1  0  0  0  0
  9 15  1  0  0  0  0
 10  1  1  0  0  0  0
 11 13  2  0  0  0  0
 12  8  1  0  0  0  0
 12  2  2  0  0  0  0
 13 12  1  0  0  0  0
 14 26  1  0  0  0  0
 15 18  1  0  0  0  0
 17 10  1  1  0  0  0
 17  7  1  0  0  0  0
 19 16  1  0  0  0  0
 20 21  2  0  0  0  0
 21 13  1  0  0  0  0
 21 14  1  0  0  0  0
 22 14  2  0  0  0  0
 22 27  1  0  0  0  0
 23  7  1  0  0  0  0
 26  2  1  0  0  0  0
 26  5  2  0  0  0  0
 27  6  2  0  0  0  0
 29 28  1  0  0  0  0
 30 29  1  0  0  0  0
 31 30  2  0  0  0  0
 32 30  1  0  0  0  0
M  END
>  <MODEL>
4

>  <REMARK>
 VINA RESULT:      -7.7      2.831      4.563
  Name = 
  3 active torsions:
  status: ('A' for Active; 'I' for Inactive)
    1  A    between atoms: C_1  and  C_10
    2  A    between atoms: C_2  and  O_24
    3  A    between atoms: C_10  and  O_24
                            x       y       z     vdW  Elec       q    Type
                         _______ _______ _______ _____ _____    ______ ____

>  <TORSDO>
F 3

$$$$
=
 OpenBabel11052421383D

 32 37  0  0  1  0  0  0  0  0999 V2000
  185.7900  178.3850  141.7000 C   0  0  1  0  0  3  0  0  0  0  0  0
  189.7290  175.6560  143.6490 C   0  0  0  0  0  0  0  0  0  0  0  0
  190.4330  177.5530  148.0800 C   0  0  0  0  0  3  0  0  0  0  0  0
  191.4440  176.6210  148.3220 C   0  0  0  0  0  3  0  0  0  0  0  0
  191.1020  173.6940  142.9270 C   0  0  0  0  0  0  0  0  0  0  0  0
  192.1160  172.7910  143.2570 C   0  0  0  0  0  0  0  0  0  0  0  0
  188.2770  176.8720  142.0650 C   0  0  2  0  0  3  0  0  0  0  0  0
  188.3200  177.5150  144.4060 N   0  0  0  0  0  2  0  0  0  0  0  0
  193.8040  171.8270  144.6850 C   0  0  1  0  0  3  0  0  0  0  0  0
  186.6950  178.6050  142.9190 C   0  0  0  0  0  2  0  0  0  0  0  0
  189.7510  177.5410  146.8620 C   0  0  0  0  0  3  0  0  0  0  0  0
  189.3870  176.5860  144.6530 C   0  0  0  0  0  0  0  0  0  0  0  0
  190.0740  176.6000  145.8730 C   0  0  0  0  0  0  0  0  0  0  0  0
  191.4210  174.7000  145.1360 C   0  0  0  0  0  0  0  0  0  0  0  0
  193.8350  170.7800  143.1740 S   0  0  0  0  0  0  0  0  0  0  0  0
  186.5880  177.8360  140.5080 C   0  0  0  0  0  2  0  0  0  0  0  0
  187.4440  177.3210  143.2600 C   0  0  1  0  0  3  0  0  0  0  0  0
  192.5690  171.7520  142.4110 N   0  0  0  0  0  2  0  0  0  0  0  0
  187.3670  176.5730  140.8830 C   0  0  0  0  0  2  0  0  0  0  0  0
  191.7730  175.6770  147.3470 C   0  0  0  0  0  3  0  0  0  0  0  0
  191.0950  175.6540  146.1160 C   0  0  0  0  0  0  0  0  0  0  0  0
  192.4020  173.7850  145.3880 N   0  0  0  0  0  0  0  0  0  0  0  0
  189.0480  175.7270  142.4230 O   0  0  0  0  0  0  0  0  0  0  0  0
  190.3440  173.5210  141.3420 Cl  0  0  0  0  0  0  0  0  0  0  0  0
  195.1550  172.4950  144.8570 C   0  0  0  0  0  1  0  0  0  0  0  0
  190.7340  174.6850  143.8840 C   0  0  0  0  0  0  0  0  0  0  0  0
  192.7500  172.8540  144.4690 C   0  0  0  0  0  0  0  0  0  0  0  0
  184.7440  177.5160  142.0240 O   0  0  0  0  0  0  0  0  0  0  0  0
  183.6800  178.3500  142.3760 C   0  0  0  0  0  2  0  0  0  0  0  0
  182.6220  178.2760  141.3350 C   0  0  0  0  0  0  0  0  0  0  0  0
  181.3190  178.6450  141.6410 O   0  0  0  0  0  1  0  0  0  0  0  0
  182.9150  177.9170  140.1640 O   0  0  0  0  0  0  0  0  0  0  0  0
  1 28  1  1  0  0  0
  1 10  1  0  0  0  0
  2 26  2  0  0  0  0
  2 12  1  0  0  0  0
  3  4  1  0  0  0  0
  5  6  2  0  0  0  0
  5 26  1  0  0  0  0
  6 27  1  0  0  0  0
  7 19  1  6  0  0  0
  7 23  1  0  0  0  0
  7 17  1  0  0  0  0
  8 12  1  0  0  0  0
  9 25  1  6  0  0  0
 11  3  2  0  0  0  0
 12 13  2  0  0  0  0
 13 21  1  0  0  0  0
 13 11  1  0  0  0  0
 14 22  1  0  0  0  0
 14 21  2  0  0  0  0
 15  9  1  0  0  0  0
 16 19  1  0  0  0  0
 16  1  1  0  0  0  0
 17 10  1  6  0  0  0
 17  8  1  0  0  0  0
 18 15  1  0  0  0  0
 18  6  1  0  0  0  0
 20  4  2  0  0  0  0
 21 20  1  0  0  0  0
 23  2  1  0  0  0  0
 24  5  1  0  0  0  0
 26 14  1  0  0  0  0
 27  9  1  0  0  0  0
 27 22  2  0  0  0  0
 28 29  1  0  0  0  0
 30 31  1  0  0  0  0
 30 29  1  0  0  0  0
 32 30  2  0  0  0  0
M  END
>  <MODEL>
5

>  <REMARK>
 VINA RESULT:      -7.6      2.218      2.859
  Name = 
  3 active torsions:
  status: ('A' for Active; 'I' for Inactive)
    1  A    between atoms: C_1  and  C_10
    2  A    between atoms: C_2  and  O_24
    3  A    between atoms: C_10  and  O_24
                            x       y       z     vdW  Elec       q    Type
                         _______ _______ _______ _____ _____    ______ ____

>  <TORSDO>
F 3

$$$$
=
 OpenBabel11052421383D

 32 37  0  0  1  0  0  0  0  0999 V2000
  192.1330  172.8310  140.0290 C   0  0  1  0  0  3  0  0  0  0  0  0
  189.3810  175.6190  143.4080 C   0  0  0  0  0  0  0  0  0  0  0  0
  192.2520  175.9340  147.3310 C   0  0  0  0  0  3  0  0  0  0  0  0
  191.3000  176.7320  147.9680 C   0  0  0  0  0  3  0  0  0  0  0  0
  187.1890  176.8230  143.3980 C   0  0  0  0  0  0  0  0  0  0  0  0
  186.2980  177.6360  144.1040 C   0  0  0  0  0  0  0  0  0  0  0  0
  189.9780  174.0040  141.6390 C   0  0  2  0  0  3  0  0  0  0  0  0
  191.5770  174.5270  143.3900 N   0  0  0  0  0  2  0  0  0  0  0  0
  185.5480  178.9280  145.9980 C   0  0  1  0  0  3  0  0  0  0  0  0
  192.3000  173.0900  141.5320 C   0  0  0  0  0  2  0  0  0  0  0  0
  192.0150  175.4640  146.0380 C   0  0  0  0  0  3  0  0  0  0  0  0
  190.5890  175.3170  144.0710 C   0  0  0  0  0  0  0  0  0  0  0  0
  190.8240  175.7850  145.3690 C   0  0  0  0  0  0  0  0  0  0  0  0
  188.6670  176.9310  145.3470 C   0  0  0  0  0  0  0  0  0  0  0  0
  184.2140  179.1350  144.7490 S   0  0  0  0  0  0  0  0  0  0  0  0
  190.6530  172.6530  139.6580 C   0  0  0  0  0  2  0  0  0  0  0  0
  191.4430  174.2760  141.9620 C   0  0  1  0  0  3  0  0  0  0  0  0
  185.0580  178.0930  143.5970 N   0  0  0  0  0  2  0  0  0  0  0  0
  189.8040  173.8320  140.1370 C   0  0  0  0  0  2  0  0  0  0  0  0
  190.1120  177.0610  147.3130 C   0  0  0  0  0  3  0  0  0  0  0  0
  189.8600  176.5950  146.0110 C   0  0  0  0  0  0  0  0  0  0  0  0
  187.7480  177.7220  145.9740 N   0  0  0  0  0  0  0  0  0  0  0  0
  189.1740  175.0740  142.1310 O   0  0  0  0  0  0  0  0  0  0  0  0
  186.7250  176.3330  141.7670 Cl  0  0  0  0  0  0  0  0  0  0  0  0
  184.9790  178.2490  147.2290 C   0  0  0  0  0  1  0  0  0  0  0  0
  188.4130  176.4490  144.0260 C   0  0  0  0  0  0  0  0  0  0  0  0
  186.5850  178.0640  145.3720 C   0  0  0  0  0  0  0  0  0  0  0  0
  192.6950  173.8780  139.2920 O   0  0  0  0  0  0  0  0  0  0  0  0
  194.0720  173.6480  139.3350 C   0  0  0  0  0  2  0  0  0  0  0  0
  194.7900  174.9450  139.4420 C   0  0  0  0  0  0  0  0  0  0  0  0
  194.5750  175.7700  140.5380 O   0  0  0  0  0  1  0  0  0  0  0  0
  195.6230  175.2790  138.5590 O   0  0  0  0  0  0  0  0  0  0  0  0
  1 28  1  6  0  0  0
  1 10  1  0  0  0  0
  2 26  2  0  0  0  0
  2 12  1  0  0  0  0
  3  4  1  0  0  0  0
  5 26  1  0  0  0  0
  5  6  2  0  0  0  0
  6 27  1  0  0  0  0
  7 19  1  6  0  0  0
  7 17  1  0  0  0  0
  7 23  1  0  0  0  0
  8 12  1  0  0  0  0
  9 25  1  1  0  0  0
 11  3  2  0  0  0  0
 12 13  2  0  0  0  0
 13 21  1  0  0  0  0
 13 11  1  0  0  0  0
 14 22  1  0  0  0  0
 14 21  2  0  0  0  0
 15  9  1  0  0  0  0
 16  1  1  0  0  0  0
 16 19  1  0  0  0  0
 17 10  1  1  0  0  0
 17  8  1  0  0  0  0
 18  6  1  0  0  0  0
 18 15  1  0  0  0  0
 20  4  2  0  0  0  0
 21 20  1  0  0  0  0
 23  2  1  0  0  0  0
 24  5  1  0  0  0  0
 26 14  1  0  0  0  0
 27 22  2  0  0  0  0
 27  9  1  0  0  0  0
 28 29  1  0  0  0  0
 29 30  1  0  0  0  0
 30 31  1  0  0  0  0
 32 30  2  0  0  0  0
M  END
>  <MODEL>
6

>  <REMARK>
 VINA RESULT:      -7.6      3.574      7.707
  Name = 
  3 active torsions:
  status: ('A' for Active; 'I' for Inactive)
    1  A    between atoms: C_1  and  C_10
    2  A    between atoms: C_2  and  O_24
    3  A    between atoms: C_10  and  O_24
                            x       y       z     vdW  Elec       q    Type
                         _______ _______ _______ _____ _____    ______ ____

>  <TORSDO>
F 3

$$$$
=
 OpenBabel11052421383D

 32 37  0  0  1  0  0  0  0  0999 V2000
  191.2810  172.7220  139.6030 C   0  0  1  0  0  3  0  0  0  0  0  0
  189.1830  175.4670  143.4530 C   0  0  0  0  0  0  0  0  0  0  0  0
  192.6620  175.6210  146.8580 C   0  0  0  0  0  3  0  0  0  0  0  0
  191.8460  176.4180  147.6620 C   0  0  0  0  0  3  0  0  0  0  0  0
  187.0460  176.7110  143.8320 C   0  0  0  0  0  0  0  0  0  0  0  0
  186.3010  177.5210  144.6930 C   0  0  0  0  0  0  0  0  0  0  0  0
  189.4460  173.8900  141.5720 C   0  0  2  0  0  3  0  0  0  0  0  0
  191.3200  174.3350  143.0490 N   0  0  0  0  0  2  0  0  0  0  0  0
  185.9010  178.7740  146.7150 C   0  0  1  0  0  3  0  0  0  0  0  0
  191.6970  172.9370  141.0640 C   0  0  0  0  0  2  0  0  0  0  0  0
  192.2070  175.1910  145.6100 C   0  0  0  0  0  3  0  0  0  0  0  0
  190.4760  175.1250  143.9010 C   0  0  0  0  0  0  0  0  0  0  0  0
  190.9310  175.5520  145.1540 C   0  0  0  0  0  0  0  0  0  0  0  0
  188.8250  176.7390  145.5130 C   0  0  0  0  0  0  0  0  0  0  0  0
  184.3860  179.0400  145.7070 S   0  0  0  0  0  0  0  0  0  0  0  0
  189.7570  172.5820  139.4750 C   0  0  0  0  0  2  0  0  0  0  0  0
  190.9500  174.1260  141.6570 C   0  0  1  0  0  3  0  0  0  0  0  0
  185.0070  178.0140  144.4070 N   0  0  0  0  0  2  0  0  0  0  0  0
  189.0250  173.7630  140.1150 C   0  0  0  0  0  2  0  0  0  0  0  0
  190.5750  176.7880  147.2180 C   0  0  0  0  0  3  0  0  0  0  0  0
  190.1030  176.3620  145.9640 C   0  0  0  0  0  0  0  0  0  0  0  0
  188.0400  177.5290  146.3010 N   0  0  0  0  0  0  0  0  0  0  0  0
  188.7570  174.9610  142.2140 O   0  0  0  0  0  0  0  0  0  0  0  0
  186.3110  176.2740  142.2870 Cl  0  0  0  0  0  0  0  0  0  0  0  0
  185.5250  178.0720  148.0060 C   0  0  0  0  0  1  0  0  0  0  0  0
  188.3480  176.2980  144.2410 C   0  0  0  0  0  0  0  0  0  0  0  0
  186.8020  177.9090  145.9070 C   0  0  0  0  0  0  0  0  0  0  0  0
  191.7390  173.7780  138.8090 O   0  0  0  0  0  0  0  0  0  0  0  0
  191.6400  173.3090  137.4970 C   0  0  0  0  0  2  0  0  0  0  0  0
  191.1370  174.3960  136.6160 C   0  0  0  0  0  0  0  0  0  0  0  0
  189.7780  174.5000  136.3490 O   0  0  0  0  0  1  0  0  0  0  0  0
  191.9370  175.2450  136.1440 O   0  0  0  0  0  0  0  0  0  0  0  0
  1 28  1  6  0  0  0
  1 10  1  0  0  0  0
  2 12  2  0  0  0  0
  2 26  1  0  0  0  0
  3  4  1  0  0  0  0
  5 26  2  0  0  0  0
  5  6  1  0  0  0  0
  6 27  2  0  0  0  0
  7 19  1  6  0  0  0
  7 17  1  0  0  0  0
  7 23  1  0  0  0  0
  8 12  1  0  0  0  0
  9 25  1  1  0  0  0
 11  3  2  0  0  0  0
 12 13  1  0  0  0  0
 13 11  1  0  0  0  0
 13 21  2  0  0  0  0
 14 21  1  0  0  0  0
 14 22  2  0  0  0  0
 15  9  1  0  0  0  0
 16  1  1  0  0  0  0
 16 19  1  0  0  0  0
 17 10  1  1  0  0  0
 17  8  1  0  0  0  0
 18  6  1  0  0  0  0
 18 15  1  0  0  0  0
 20  4  2  0  0  0  0
 21 20  1  0  0  0  0
 23  2  1  0  0  0  0
 24  5  1  0  0  0  0
 26 14  1  0  0  0  0
 27 22  1  0  0  0  0
 27  9  1  0  0  0  0
 29 28  1  0  0  0  0
 30 29  1  0  0  0  0
 31 30  1  0  0  0  0
 32 30  2  0  0  0  0
M  END
>  <MODEL>
7

>  <REMARK>
 VINA RESULT:      -7.6      3.571      7.567
  Name = 
  3 active torsions:
  status: ('A' for Active; 'I' for Inactive)
    1  A    between atoms: C_1  and  C_10
    2  A    between atoms: C_2  and  O_24
    3  A    between atoms: C_10  and  O_24
                            x       y       z     vdW  Elec       q    Type
                         _______ _______ _______ _____ _____    ______ ____

>  <TORSDO>
F 3

$$$$
=
 OpenBabel11052421383D

 32 37  0  0  1  0  0  0  0  0999 V2000
  185.8380  177.1710  143.9920 C   0  0  1  0  0  3  0  0  0  0  0  0
  190.5570  175.4470  142.7600 C   0  0  0  0  0  0  0  0  0  0  0  0
  189.7550  172.1050  139.3070 C   0  0  0  0  0  3  0  0  0  0  0  0
  191.1300  171.9040  139.1770 C   0  0  0  0  0  3  0  0  0  0  0  0
  192.9100  176.0070  143.3950 C   0  0  0  0  0  0  0  0  0  0  0  0
  194.2690  175.7530  143.1910 C   0  0  0  0  0  0  0  0  0  0  0  0
  188.6320  176.2780  144.0630 C   0  0  2  0  0  3  0  0  0  0  0  0
  188.2580  174.9620  142.0570 N   0  0  0  0  0  2  0  0  0  0  0  0
  196.1580  174.6610  142.1610 C   0  0  1  0  0  3  0  0  0  0  0  0
  186.3150  175.9550  143.1890 C   0  0  0  0  0  2  0  0  0  0  0  0
  189.2700  173.0390  140.2250 C   0  0  0  0  0  3  0  0  0  0  0  0
  189.6690  174.7190  141.9400 C   0  0  0  0  0  0  0  0  0  0  0  0
  190.1550  173.7800  141.0230 C   0  0  0  0  0  0  0  0  0  0  0  0
  192.4440  174.3250  141.6780 C   0  0  0  0  0  0  0  0  0  0  0  0
  196.9090  175.8660  143.3290 S   0  0  0  0  0  0  0  0  0  0  0  0
  186.7390  177.4200  145.2110 C   0  0  0  0  0  2  0  0  0  0  0  0
  187.7830  176.1160  142.8070 C   0  0  1  0  0  3  0  0  0  0  0  0
  195.3180  176.4120  143.8730 N   0  0  0  0  0  2  0  0  0  0  0  0
  188.2110  177.5340  144.8120 C   0  0  0  0  0  2  0  0  0  0  0  0
  192.0210  172.6380  139.9630 C   0  0  0  0  0  3  0  0  0  0  0  0
  191.5470  173.5810  140.8910 C   0  0  0  0  0  0  0  0  0  0  0  0
  193.7870  174.1300  141.5330 N   0  0  0  0  0  0  0  0  0  0  0  0
  190.0110  176.3320  143.7030 O   0  0  0  0  0  0  0  0  0  0  0  0
  192.4840  177.2320  144.5920 Cl  0  0  0  0  0  0  0  0  0  0  0  0
  196.5620  173.2560  142.5640 C   0  0  0  0  0  1  0  0  0  0  0  0
  191.9580  175.2780  142.6250 C   0  0  0  0  0  0  0  0  0  0  0  0
  194.6830  174.8220  142.2760 C   0  0  0  0  0  0  0  0  0  0  0  0
  185.8030  178.3070  143.1770 O   0  0  0  0  0  0  0  0  0  0  0  0
  184.5380  178.2840  142.5840 C   0  0  0  0  0  2  0  0  0  0  0  0
  184.6820  178.2960  141.1040 C   0  0  0  0  0  0  0  0  0  0  0  0
  185.9450  178.2520  140.5280 O   0  0  0  0  0  1  0  0  0  0  0  0
  183.6580  178.3070  140.3720 O   0  0  0  0  0  0  0  0  0  0  0  0
  1 28  1  6  0  0  0
  1 16  1  0  0  0  0
  2 23  1  0  0  0  0
  3 11  1  0  0  0  0
  4  3  2  0  0  0  0
  4 20  1  0  0  0  0
  5 24  1  0  0  0  0
  6  5  1  0  0  0  0
  6 18  1  0  0  0  0
  7 19  1  6  0  0  0
  8 17  1  0  0  0  0
  9 27  1  0  0  0  0
  9 25  1  1  0  0  0
  9 15  1  0  0  0  0
 10  1  1  0  0  0  0
 11 13  2  0  0  0  0
 12  8  1  0  0  0  0
 12  2  2  0  0  0  0
 13 12  1  0  0  0  0
 14 26  1  0  0  0  0
 15 18  1  0  0  0  0
 17 10  1  1  0  0  0
 17  7  1  0  0  0  0
 19 16  1  0  0  0  0
 20 21  2  0  0  0  0
 21 13  1  0  0  0  0
 21 14  1  0  0  0  0
 22 14  2  0  0  0  0
 22 27  1  0  0  0  0
 23  7  1  0  0  0  0
 26  2  1  0  0  0  0
 26  5  2  0  0  0  0
 27  6  2  0  0  0  0
 29 28  1  0  0  0  0
 30 29  1  0  0  0  0
 31 30  1  0  0  0  0
 32 30  2  0  0  0  0
M  END
>  <MODEL>
8

>  <REMARK>
 VINA RESULT:      -7.5      3.136      4.987
  Name = 
  3 active torsions:
  status: ('A' for Active; 'I' for Inactive)
    1  A    between atoms: C_1  and  C_10
    2  A    between atoms: C_2  and  O_24
    3  A    between atoms: C_10  and  O_24
                            x       y       z     vdW  Elec       q    Type
                         _______ _______ _______ _____ _____    ______ ____

>  <TORSDO>
F 3

$$$$
=
 OpenBabel11052421383D

 32 37  0  0  1  0  0  0  0  0999 V2000
  183.9680  178.7610  141.6020 C   0  0  1  0  0  3  0  0  0  0  0  0
  187.9660  175.5910  142.4560 C   0  0  0  0  0  0  0  0  0  0  0  0
  188.7090  175.8570  147.2630 C   0  0  0  0  0  3  0  0  0  0  0  0
  189.7340  174.9160  147.1610 C   0  0  0  0  0  3  0  0  0  0  0  0
  189.3520  174.0190  141.0910 C   0  0  0  0  0  0  0  0  0  0  0  0
  190.3810  173.0740  141.0810 C   0  0  0  0  0  0  0  0  0  0  0  0
  186.4780  177.2550  141.4010 C   0  0  2  0  0  3  0  0  0  0  0  0
  186.5460  177.0530  143.8200 N   0  0  0  0  0  2  0  0  0  0  0  0
  192.1000  171.7040  142.0750 C   0  0  1  0  0  3  0  0  0  0  0  0
  184.8870  178.5620  142.8140 C   0  0  0  0  0  2  0  0  0  0  0  0
  188.0110  176.2550  146.1220 C   0  0  0  0  0  3  0  0  0  0  0  0
  187.6270  176.1130  143.7220 C   0  0  0  0  0  0  0  0  0  0  0  0
  188.3310  175.7170  144.8660 C   0  0  0  0  0  0  0  0  0  0  0  0
  189.6900  174.2080  143.5080 C   0  0  0  0  0  0  0  0  0  0  0  0
  192.1220  171.2420  140.2950 S   0  0  0  0  0  0  0  0  0  0  0  0
  184.7560  178.6680  140.2870 C   0  0  0  0  0  2  0  0  0  0  0  0
  185.6560  177.2510  142.6850 C   0  0  1  0  0  3  0  0  0  0  0  0
  190.8340  172.3970  139.9240 N   0  0  0  0  0  2  0  0  0  0  0  0
  185.5550  177.3660  140.1960 C   0  0  0  0  0  2  0  0  0  0  0  0
  190.0610  174.3700  145.9180 C   0  0  0  0  0  3  0  0  0  0  0  0
  189.3660  174.7620  144.7600 C   0  0  0  0  0  0  0  0  0  0  0  0
  190.6850  173.2780  143.4210 N   0  0  0  0  0  0  0  0  0  0  0  0
  187.2670  176.0680  141.3360 O   0  0  0  0  0  0  0  0  0  0  0  0
  188.5740  174.3900  139.5500 Cl  0  0  0  0  0  0  0  0  0  0  0  0
  193.4450  172.2930  142.4540 C   0  0  0  0  0  1  0  0  0  0  0  0
  188.9850  174.6140  142.3340 C   0  0  0  0  0  0  0  0  0  0  0  0
  191.0310  172.7260  142.2350 C   0  0  0  0  0  0  0  0  0  0  0  0
  182.9370  177.8170  141.6160 O   0  0  0  0  0  0  0  0  0  0  0  0
  182.1420  178.1360  140.5130 C   0  0  0  0  0  2  0  0  0  0  0  0
  180.8300  178.6570  140.9780 C   0  0  0  0  0  0  0  0  0  0  0  0
  180.4390  179.9480  140.6480 O   0  0  0  0  0  0  0  0  0  0  0  0
  180.0560  177.9160  141.6380 O   0  0  0  0  0  1  0  0  0  0  0  0
  1 28  1  6  0  0  0
  1 10  1  0  0  0  0
  2 12  1  0  0  0  0
  4  3  1  0  0  0  0
  5 26  1  0  0  0  0
  6  5  2  0  0  0  0
  6 27  1  0  0  0  0
  7 19  1  6  0  0  0
  7 17  1  0  0  0  0
  9 27  1  0  0  0  0
  9 25  1  6  0  0  0
 11  3  2  0  0  0  0
 12  8  1  0  0  0  0
 12 13  2  0  0  0  0
 13 11  1  0  0  0  0
 14 21  2  0  0  0  0
 15  9  1  0  0  0  0
 16  1  1  0  0  0  0
 17 10  1  1  0  0  0
 17  8  1  0  0  0  0
 18 15  1  0  0  0  0
 18  6  1  0  0  0  0
 19 16  1  0  0  0  0
 20  4  2  0  0  0  0
 21 13  1  0  0  0  0
 21 20  1  0  0  0  0
 22 14  1  0  0  0  0
 23  7  1  0  0  0  0
 23  2  1  0  0  0  0
 24  5  1  0  0  0  0
 26  2  2  0  0  0  0
 26 14  1  0  0  0  0
 27 22  2  0  0  0  0
 29 30  1  0  0  0  0
 29 28  1  0  0  0  0
 30 32  1  0  0  0  0
 31 30  2  0  0  0  0
M  END
>  <MODEL>
9

>  <REMARK>
 VINA RESULT:      -7.4      2.302      3.087
  Name = 
  3 active torsions:
  status: ('A' for Active; 'I' for Inactive)
    1  A    between atoms: C_1  and  C_10
    2  A    between atoms: C_2  and  O_24
    3  A    between atoms: C_10  and  O_24
                            x       y       z     vdW  Elec       q    Type
                         _______ _______ _______ _____ _____    ______ ____

>  <TORSDO>
F 3

$$$$
