=
 OpenBabel11052418183D

 28 29  0  0  1  0  0  0  0  0999 V2000
  186.7610  178.4810  141.9740 C   0  0  0  0  0  2  0  0  0  0  0  0
  184.4460  178.2360  143.8410 C   0  0  0  0  0  1  0  0  0  0  0  0
  185.8710  178.0600  144.3490 C   0  0  0  0  0  0  0  0  0  0  0  0
  187.7190  175.5970  140.8130 C   0  0  0  0  0  3  0  0  0  0  0  0
  186.3870  179.4160  144.8320 C   0  0  0  0  0  1  0  0  0  0  0  0
  187.2760  176.6800  145.9750 C   0  0  0  0  0  2  0  0  0  0  0  0
  188.1170  176.1370  144.8200 C   0  0  1  0  0  3  0  0  0  0  0  0
  185.8670  177.0240  145.5000 C   0  0  1  0  0  3  0  0  0  0  0  0
  189.3540  174.2440  141.9950 C   0  0  0  0  0  1  0  0  0  0  0  0
  188.1680  177.1390  143.6570 C   0  0  1  0  0  3  0  0  0  0  0  0
  186.8960  176.8080  140.4730 C   0  0  0  0  0  2  0  0  0  0  0  0
  188.9710  176.6300  142.5850 O   0  0  0  0  0  0  0  0  0  0  0  0
  188.6240  175.5230  141.7970 C   0  0  0  0  0  0  0  0  0  0  0  0
  187.5240  177.9850  140.9010 O   0  0  0  0  0  0  0  0  0  0  0  0
  186.7510  177.5300  143.1930 C   0  0  2  0  0  3  0  0  0  0  0  0
  185.5580  177.5470  147.9220 O   0  0  0  0  0  1  0  0  0  0  0  0
  184.9940  177.4010  146.6620 C   0  0  0  0  0  0  0  0  0  0  0  0
  183.7550  177.5720  146.5100 O   0  0  0  0  0  0  0  0  0  0  0  0
  189.5260  175.7360  145.2850 C   0  0  2  0  0  3  0  0  0  0  0  0
  189.9810  173.5760  145.4960 C   0  0  0  0  0  1  0  0  0  0  0  0
  189.4650  174.6720  146.1910 O   0  0  0  0  0  0  0  0  0  0  0  0
  190.3310  176.9080  145.8570 C   0  0  2  0  0  3  0  0  0  0  0  0
  191.7820  176.7940  145.4150 C   0  0  0  0  0  2  0  0  0  0  0  0
  191.9800  177.4520  144.0630 C   0  0  0  0  0  2  0  0  0  0  0  0
  192.4000  176.4070  143.0520 C   0  0  0  0  0  1  0  0  0  0  0  0
  190.2420  176.9310  147.2750 O   0  0  0  0  0  0  0  0  0  0  0  0
  191.3790  176.7910  148.0630 C   0  0  0  0  0  3  0  0  0  0  0  0
  191.5690  177.5640  149.0360 O   0  0  0  0  0  0  0  0  0  0  0  0
  2  3  1  0  0  0  0
  3  5  1  0  0  0  0
  3  8  1  0  0  0  0
  4 13  2  0  0  0  0
  7 19  1  1  0  0  0
  7  6  1  0  0  0  0
  8  6  1  0  0  0  0
  8 17  1  1  0  0  0
 10 12  1  6  0  0  0
 10  7  1  0  0  0  0
 11  4  1  0  0  0  0
 11 14  1  0  0  0  0
 13  9  1  0  0  0  0
 13 12  1  0  0  0  0
 14  1  1  0  0  0  0
 15  1  1  6  0  0  0
 15 10  1  0  0  0  0
 15  3  1  0  0  0  0
 17 16  1  0  0  0  0
 18 17  2  0  0  0  0
 19 22  1  0  0  0  0
 19 21  1  1  0  0  0
 20 21  1  0  0  0  0
 22 23  1  1  0  0  0
 22 26  1  0  0  0  0
 24 23  1  0  0  0  0
 25 24  1  0  0  0  0
 26 27  1  0  0  0  0
 27 28  2  0  0  0  0
M  END
>  <MODEL>
1

>  <REMARK>
 VINA RESULT:      -6.1      0.000      0.000
  Name = 
  8 active torsions:
  status: ('A' for Active; 'I' for Inactive)
    1  A    between atoms: C_9  and  C_12
    2  A    between atoms: C_9  and  C_13
    3  A    between atoms: C_9  and  O_14
    4  A    between atoms: C_10  and  C_13
    5  A    between atoms: C_11  and  C_22
    6  A    between atoms: C_12  and  C_15
    7  A    between atoms: C_13  and  O_24
    8  A    between atoms: O_14  and  C_18
                            x       y       z     vdW  Elec       q    Type
                         _______ _______ _______ _____ _____    ______ ____

>  <TORSDO>
F 8

$$$$
=
 OpenBabel11052418183D

 28 29  0  0  1  0  0  0  0  0999 V2000
  189.7630  172.1970  143.7230 C   0  0  0  0  0  2  0  0  0  0  0  0
  192.0360  173.6960  144.9450 C   0  0  0  0  0  1  0  0  0  0  0  0
  190.6990  174.3840  144.6990 C   0  0  0  0  0  0  0  0  0  0  0  0
  189.6050  172.6080  140.5000 C   0  0  0  0  0  3  0  0  0  0  0  0
  189.8410  174.2430  145.9570 C   0  0  0  0  0  1  0  0  0  0  0  0
  189.6790  176.6070  143.9650 C   0  0  0  0  0  2  0  0  0  0  0  0
  189.0250  175.9330  142.7610 C   0  0  1  0  0  3  0  0  0  0  0  0
  190.9570  175.8730  144.3660 C   0  0  1  0  0  3  0  0  0  0  0  0
  188.3620  174.4530  139.5250 C   0  0  0  0  0  1  0  0  0  0  0  0
  188.7310  174.4540  143.0490 C   0  0  1  0  0  3  0  0  0  0  0  0
  190.0890  171.6590  141.5620 C   0  0  0  0  0  2  0  0  0  0  0  0
  188.1030  173.8330  141.9200 O   0  0  0  0  0  0  0  0  0  0  0  0
  188.7370  173.6090  140.6900 C   0  0  0  0  0  0  0  0  0  0  0  0
  189.1700  171.5650  142.6160 O   0  0  0  0  0  0  0  0  0  0  0  0
  190.0040  173.7070  143.4950 C   0  0  2  0  0  3  0  0  0  0  0  0
  193.0240  176.9480  145.2650 O   0  0  0  0  0  0  0  0  0  0  0  0
  191.6850  176.6270  145.4410 C   0  0  0  0  0  0  0  0  0  0  0  0
  191.0990  176.9570  146.5060 O   0  0  0  0  0  1  0  0  0  0  0  0
  187.7630  176.6840  142.3070 C   0  0  2  0  0  3  0  0  0  0  0  0
  186.9080  177.2880  140.3530 C   0  0  0  0  0  1  0  0  0  0  0  0
  188.0270  177.4580  141.1710 O   0  0  0  0  0  0  0  0  0  0  0  0
  187.1290  177.5280  143.4190 C   0  0  2  0  0  3  0  0  0  0  0  0
  186.0430  176.7220  144.1150 C   0  0  0  0  0  2  0  0  0  0  0  0
  186.3350  176.6030  145.5980 C   0  0  0  0  0  2  0  0  0  0  0  0
  185.0950  176.9670  146.3860 C   0  0  0  0  0  1  0  0  0  0  0  0
  186.5940  178.7340  142.8890 O   0  0  0  0  0  0  0  0  0  0  0  0
  185.4130  179.2690  143.3900 C   0  0  0  0  0  3  0  0  0  0  0  0
  185.4530  180.2070  144.2260 O   0  0  0  0  0  0  0  0  0  0  0  0
  3  2  1  0  0  0  0
  3  5  1  0  0  0  0
  4 13  2  0  0  0  0
  4 11  1  0  0  0  0
  6  8  1  0  0  0  0
  7 19  1  1  0  0  0
  7 10  1  0  0  0  0
  7  6  1  0  0  0  0
  8  3  1  0  0  0  0
  8 17  1  1  0  0  0
  9 13  1  0  0  0  0
 10 12  1  6  0  0  0
 10 15  1  0  0  0  0
 11 14  1  0  0  0  0
 13 12  1  0  0  0  0
 14  1  1  0  0  0  0
 15  1  1  1  0  0  0
 15  3  1  0  0  0  0
 16 17  2  0  0  0  0
 17 18  1  0  0  0  0
 19 21  1  6  0  0  0
 19 22  1  0  0  0  0
 20 21  1  0  0  0  0
 22 23  1  6  0  0  0
 23 24  1  0  0  0  0
 24 25  1  0  0  0  0
 26 27  1  0  0  0  0
 26 22  1  0  0  0  0
 27 28  2  0  0  0  0
M  END
>  <MODEL>
2

>  <REMARK>
 VINA RESULT:      -6.0      2.021      5.924
  Name = 
  8 active torsions:
  status: ('A' for Active; 'I' for Inactive)
    1  A    between atoms: C_9  and  C_12
    2  A    between atoms: C_9  and  C_13
    3  A    between atoms: C_9  and  O_14
    4  A    between atoms: C_10  and  C_13
    5  A    between atoms: C_11  and  C_22
    6  A    between atoms: C_12  and  C_15
    7  A    between atoms: C_13  and  O_24
    8  A    between atoms: O_14  and  C_18
                            x       y       z     vdW  Elec       q    Type
                         _______ _______ _______ _____ _____    ______ ____

>  <TORSDO>
F 8

$$$$
=
 OpenBabel11052418183D

 28 29  0  0  1  0  0  0  0  0999 V2000
  193.2670  175.6680  143.3000 C   0  0  0  0  0  2  0  0  0  0  0  0
  192.3240  172.9600  142.4740 C   0  0  0  0  0  1  0  0  0  0  0  0
  191.3260  174.0280  142.9040 C   0  0  0  0  0  0  0  0  0  0  0  0
  193.6340  175.9160  146.5220 C   0  0  0  0  0  3  0  0  0  0  0  0
  190.8710  174.7960  141.6620 C   0  0  0  0  0  1  0  0  0  0  0  0
  189.1460  174.3500  144.1940 C   0  0  0  0  0  2  0  0  0  0  0  0
  189.8500  175.2650  145.1950 C   0  0  1  0  0  3  0  0  0  0  0  0
  190.1290  173.3410  143.6040 C   0  0  1  0  0  3  0  0  0  0  0  0
  191.7880  176.5840  147.9520 C   0  0  0  0  0  1  0  0  0  0  0  0
  191.0380  175.9860  144.5420 C   0  0  1  0  0  3  0  0  0  0  0  0
  194.3950  175.6790  145.2480 C   0  0  0  0  0  2  0  0  0  0  0  0
  191.6820  176.8550  145.4820 O   0  0  0  0  0  0  0  0  0  0  0  0
  192.3940  176.4110  146.6060 C   0  0  0  0  0  0  0  0  0  0  0  0
  193.9280  176.5050  144.2170 O   0  0  0  0  0  0  0  0  0  0  0  0
  192.0190  174.9830  143.9030 C   0  0  2  0  0  3  0  0  0  0  0  0
  188.2260  172.7030  142.1180 O   0  0  0  0  0  0  0  0  0  0  0  0
  189.4080  172.3400  142.7480 C   0  0  0  0  0  0  0  0  0  0  0  0
  189.8560  171.1710  142.6060 O   0  0  0  0  0  1  0  0  0  0  0  0
  188.8700  176.2580  145.8410 C   0  0  2  0  0  3  0  0  0  0  0  0
  189.0860  174.5730  147.2660 C   0  0  0  0  0  1  0  0  0  0  0  0
  188.5210  175.8420  147.1310 O   0  0  0  0  0  0  0  0  0  0  0  0
  187.6250  176.5220  144.9860 C   0  0  2  0  0  3  0  0  0  0  0  0
  187.7800  177.8460  144.2540 C   0  0  0  0  0  2  0  0  0  0  0  0
  187.7770  177.6280  142.7530 C   0  0  0  0  0  2  0  0  0  0  0  0
  189.1230  178.0200  142.1840 C   0  0  0  0  0  1  0  0  0  0  0  0
  186.4560  176.5330  145.7950 O   0  0  0  0  0  0  0  0  0  0  0  0
  185.7540  177.7120  146.0150 C   0  0  0  0  0  3  0  0  0  0  0  0
  184.4960  177.7060  146.0090 O   0  0  0  0  0  0  0  0  0  0  0  0
  1 14  1  0  0  0  0
  2  3  1  0  0  0  0
  3  8  1  0  0  0  0
  3 15  1  0  0  0  0
  4 13  2  0  0  0  0
  5  3  1  0  0  0  0
  6  7  1  0  0  0  0
  7 19  1  6  0  0  0
  8 17  1  6  0  0  0
  8  6  1  0  0  0  0
 10  7  1  0  0  0  0
 10 12  1  1  0  0  0
 11  4  1  0  0  0  0
 12 13  1  0  0  0  0
 13  9  1  0  0  0  0
 14 11  1  0  0  0  0
 15  1  1  6  0  0  0
 15 10  1  0  0  0  0
 16 17  2  0  0  0  0
 18 17  1  0  0  0  0
 19 21  1  1  0  0  0
 21 20  1  0  0  0  0
 22 23  1  1  0  0  0
 22 26  1  0  0  0  0
 22 19  1  0  0  0  0
 24 23  1  0  0  0  0
 25 24  1  0  0  0  0
 26 27  1  0  0  0  0
 28 27  2  0  0  0  0
M  END
>  <MODEL>
3

>  <REMARK>
 VINA RESULT:      -5.8      2.273      6.103
  Name = 
  8 active torsions:
  status: ('A' for Active; 'I' for Inactive)
    1  A    between atoms: C_9  and  C_12
    2  A    between atoms: C_9  and  C_13
    3  A    between atoms: C_9  and  O_14
    4  A    between atoms: C_10  and  C_13
    5  A    between atoms: C_11  and  C_22
    6  A    between atoms: C_12  and  C_15
    7  A    between atoms: C_13  and  O_24
    8  A    between atoms: O_14  and  C_18
                            x       y       z     vdW  Elec       q    Type
                         _______ _______ _______ _____ _____    ______ ____

>  <TORSDO>
F 8

$$$$
=
 OpenBabel11052418183D

 28 29  0  0  1  0  0  0  0  0999 V2000
  188.1040  175.8520  141.7820 C   0  0  0  0  0  2  0  0  0  0  0  0
  185.5960  176.8380  143.0660 C   0  0  0  0  0  1  0  0  0  0  0  0
  186.9320  176.9450  143.7920 C   0  0  0  0  0  0  0  0  0  0  0  0
  188.8290  172.8080  142.6680 C   0  0  0  0  0  3  0  0  0  0  0  0
  187.5510  178.3060  143.4720 C   0  0  0  0  0  1  0  0  0  0  0  0
  187.9910  176.7420  146.1070 C   0  0  0  0  0  2  0  0  0  0  0  0
  188.8750  175.5940  145.6240 C   0  0  1  0  0  3  0  0  0  0  0  0
  186.6880  176.7890  145.3130 C   0  0  1  0  0  3  0  0  0  0  0  0
  190.1640  172.3570  144.6460 C   0  0  0  0  0  1  0  0  0  0  0  0
  189.1630  175.7140  144.1210 C   0  0  1  0  0  3  0  0  0  0  0  0
  188.1940  173.6130  141.5690 C   0  0  0  0  0  2  0  0  0  0  0  0
  190.0060  174.6430  143.6800 O   0  0  0  0  0  0  0  0  0  0  0  0
  189.6140  173.2970  143.6360 C   0  0  0  0  0  0  0  0  0  0  0  0
  188.9090  174.7930  141.3260 O   0  0  0  0  0  0  0  0  0  0  0  0
  187.8560  175.8050  143.3070 C   0  0  2  0  0  3  0  0  0  0  0  0
  186.1280  179.1450  145.9260 O   0  0  0  0  0  0  0  0  0  0  0  0
  185.7510  177.8090  145.8930 C   0  0  0  0  0  0  0  0  0  0  0  0
  184.6340  177.4650  146.3640 O   0  0  0  0  0  1  0  0  0  0  0  0
  190.1720  175.4950  146.4440 C   0  0  2  0  0  3  0  0  0  0  0  0
  188.6960  174.2580  147.5410 C   0  0  0  0  0  1  0  0  0  0  0  0
  189.9320  174.8910  147.6830 O   0  0  0  0  0  0  0  0  0  0  0  0
  190.8860  176.8410  146.6100 C   0  0  2  0  0  3  0  0  0  0  0  0
  192.3820  176.6540  146.4050 C   0  0  0  0  0  2  0  0  0  0  0  0
  192.7100  176.5740  144.9270 C   0  0  0  0  0  2  0  0  0  0  0  0
  193.4700  175.2950  144.6490 C   0  0  0  0  0  1  0  0  0  0  0  0
  190.6240  177.3910  147.8950 O   0  0  0  0  0  0  0  0  0  0  0  0
  191.6480  177.5630  148.8180 C   0  0  0  0  0  3  0  0  0  0  0  0
  191.4970  178.3500  149.7870 O   0  0  0  0  0  0  0  0  0  0  0  0
  2  3  1  0  0  0  0
  3  8  1  0  0  0  0
  4 13  2  0  0  0  0
  5  3  1  0  0  0  0
  7  6  1  0  0  0  0
  7 19  1  1  0  0  0
  8 17  1  1  0  0  0
  8  6  1  0  0  0  0
 10 12  1  6  0  0  0
 10  7  1  0  0  0  0
 11  4  1  0  0  0  0
 13 12  1  0  0  0  0
 13  9  1  0  0  0  0
 14 11  1  0  0  0  0
 14  1  1  0  0  0  0
 15  1  1  6  0  0  0
 15  3  1  0  0  0  0
 15 10  1  0  0  0  0
 17 16  2  0  0  0  0
 17 18  1  0  0  0  0
 19 22  1  0  0  0  0
 19 21  1  1  0  0  0
 20 21  1  0  0  0  0
 22 23  1  1  0  0  0
 22 26  1  0  0  0  0
 24 23  1  0  0  0  0
 25 24  1  0  0  0  0
 26 27  1  0  0  0  0
 27 28  2  0  0  0  0
M  END
>  <MODEL>
4

>  <REMARK>
 VINA RESULT:      -5.8      1.522      2.126
  Name = 
  8 active torsions:
  status: ('A' for Active; 'I' for Inactive)
    1  A    between atoms: C_9  and  C_12
    2  A    between atoms: C_9  and  C_13
    3  A    between atoms: C_9  and  O_14
    4  A    between atoms: C_10  and  C_13
    5  A    between atoms: C_11  and  C_22
    6  A    between atoms: C_12  and  C_15
    7  A    between atoms: C_13  and  O_24
    8  A    between atoms: O_14  and  C_18
                            x       y       z     vdW  Elec       q    Type
                         _______ _______ _______ _____ _____    ______ ____

>  <TORSDO>
F 8

$$$$
=
 OpenBabel11052418183D

 28 29  0  0  1  0  0  0  0  0999 V2000
  188.1940  175.5700  140.9760 C   0  0  0  0  0  2  0  0  0  0  0  0
  185.7230  176.9180  141.9690 C   0  0  0  0  0  1  0  0  0  0  0  0
  187.0120  176.9710  142.7790 C   0  0  0  0  0  0  0  0  0  0  0  0
  188.5420  172.5770  142.2020 C   0  0  0  0  0  3  0  0  0  0  0  0
  187.7880  178.2250  142.3780 C   0  0  0  0  0  1  0  0  0  0  0  0
  187.8910  176.9050  145.1760 C   0  0  0  0  0  2  0  0  0  0  0  0
  188.6820  175.6340  144.8730 C   0  0  1  0  0  3  0  0  0  0  0  0
  186.6550  176.9960  144.2850 C   0  0  1  0  0  3  0  0  0  0  0  0
  189.6920  172.2050  144.3090 C   0  0  0  0  0  1  0  0  0  0  0  0
  189.0780  175.5710  143.3910 C   0  0  1  0  0  3  0  0  0  0  0  0
  188.0660  173.3220  140.9860 C   0  0  0  0  0  2  0  0  0  0  0  0
  189.8340  174.3840  143.1190 O   0  0  0  0  0  0  0  0  0  0  0  0
  189.3080  173.0850  143.1740 C   0  0  0  0  0  0  0  0  0  0  0  0
  188.9140  174.3970  140.6850 O   0  0  0  0  0  0  0  0  0  0  0  0
  187.8440  175.7030  142.4760 C   0  0  2  0  0  3  0  0  0  0  0  0
  184.4110  178.0330  144.6430 O   0  0  0  0  0  0  0  0  0  0  0  0
  185.7930  178.1550  144.6930 C   0  0  0  0  0  0  0  0  0  0  0  0
  186.3080  179.2430  145.0650 O   0  0  0  0  0  1  0  0  0  0  0  0
  189.9060  175.4950  145.7930 C   0  0  2  0  0  3  0  0  0  0  0  0
  189.1070  174.5410  147.6270 C   0  0  0  0  0  1  0  0  0  0  0  0
  189.5600  175.7610  147.1230 O   0  0  0  0  0  0  0  0  0  0  0  0
  191.0980  176.3500  145.3480 C   0  0  2  0  0  3  0  0  0  0  0  0
  192.1770  176.3190  146.4190 C   0  0  0  0  0  2  0  0  0  0  0  0
  193.5130  175.9300  145.8160 C   0  0  0  0  0  2  0  0  0  0  0  0
  194.3730  177.1660  145.6590 C   0  0  0  0  0  1  0  0  0  0  0  0
  190.6870  177.6870  145.0920 O   0  0  0  0  0  0  0  0  0  0  0  0
  191.1600  178.3780  143.9830 C   0  0  0  0  0  3  0  0  0  0  0  0
  191.7860  177.7650  143.0800 O   0  0  0  0  0  0  0  0  0  0  0  0
  2  3  1  0  0  0  0
  3  8  1  0  0  0  0
  4 13  2  0  0  0  0
  5  3  1  0  0  0  0
  7  6  1  0  0  0  0
  7 19  1  1  0  0  0
  8 17  1  1  0  0  0
  8  6  1  0  0  0  0
 10 12  1  1  0  0  0
 10  7  1  0  0  0  0
 11  4  1  0  0  0  0
 12 13  1  0  0  0  0
 13  9  1  0  0  0  0
 14  1  1  0  0  0  0
 14 11  1  0  0  0  0
 15  1  1  6  0  0  0
 15  3  1  0  0  0  0
 15 10  1  0  0  0  0
 16 17  2  0  0  0  0
 17 18  1  0  0  0  0
 19 21  1  1  0  0  0
 21 20  1  0  0  0  0
 22 19  1  0  0  0  0
 22 23  1  1  0  0  0
 24 23  1  0  0  0  0
 25 24  1  0  0  0  0
 26 22  1  0  0  0  0
 27 26  1  0  0  0  0
 28 27  2  0  0  0  0
M  END
>  <MODEL>
5

>  <REMARK>
 VINA RESULT:      -5.7      1.824      2.858
  Name = 
  8 active torsions:
  status: ('A' for Active; 'I' for Inactive)
    1  A    between atoms: C_9  and  C_12
    2  A    between atoms: C_9  and  C_13
    3  A    between atoms: C_9  and  O_14
    4  A    between atoms: C_10  and  C_13
    5  A    between atoms: C_11  and  C_22
    6  A    between atoms: C_12  and  C_15
    7  A    between atoms: C_13  and  O_24
    8  A    between atoms: O_14  and  C_18
                            x       y       z     vdW  Elec       q    Type
                         _______ _______ _______ _____ _____    ______ ____

>  <TORSDO>
F 8

$$$$
=
 OpenBabel11052418183D

 28 29  0  0  1  0  0  0  0  0999 V2000
  189.1110  172.3710  142.1540 C   0  0  0  0  0  2  0  0  0  0  0  0
  192.0750  172.0230  142.2140 C   0  0  0  0  0  1  0  0  0  0  0  0
  191.3790  172.9060  143.2410 C   0  0  0  0  0  0  0  0  0  0  0  0
  188.2160  175.0310  140.5100 C   0  0  0  0  0  3  0  0  0  0  0  0
  191.0430  172.0550  144.4670 C   0  0  0  0  0  1  0  0  0  0  0  0
  191.6490  175.0900  144.5370 C   0  0  0  0  0  2  0  0  0  0  0  0
  190.3900  175.6570  143.8840 C   0  0  1  0  0  3  0  0  0  0  0  0
  192.3220  174.0740  143.6170 C   0  0  1  0  0  3  0  0  0  0  0  0
  188.0250  177.1870  141.6120 C   0  0  0  0  0  1  0  0  0  0  0  0
  189.4110  174.5360  143.5090 C   0  0  1  0  0  3  0  0  0  0  0  0
  188.3720  173.5420  140.3790 C   0  0  0  0  0  2  0  0  0  0  0  0
  188.2250  175.0770  142.9130 O   0  0  0  0  0  0  0  0  0  0  0  0
  188.1910  175.7110  141.6620 C   0  0  0  0  0  0  0  0  0  0  0  0
  187.9530  172.8830  141.5420 O   0  0  0  0  0  0  0  0  0  0  0  0
  190.0870  173.4780  142.6140 C   0  0  2  0  0  3  0  0  0  0  0  0
  193.7590  173.4090  145.5480 O   0  0  0  0  0  1  0  0  0  0  0  0
  193.6430  173.6400  144.1840 C   0  0  0  0  0  0  0  0  0  0  0  0
  194.6490  173.4980  143.4400 O   0  0  0  0  0  0  0  0  0  0  0  0
  189.7220  176.7200  144.7710 C   0  0  2  0  0  3  0  0  0  0  0  0
  190.7540  178.1600  143.4390 C   0  0  0  0  0  1  0  0  0  0  0  0
  190.4720  177.9010  144.7810 O   0  0  0  0  0  0  0  0  0  0  0  0
  189.4400  176.2290  146.1960 C   0  0  2  0  0  3  0  0  0  0  0  0
  187.9400  176.2390  146.4510 C   0  0  0  0  0  2  0  0  0  0  0  0
  187.2400  177.1590  145.4710 C   0  0  0  0  0  2  0  0  0  0  0  0
  186.2750  178.0520  146.2210 C   0  0  0  0  0  1  0  0  0  0  0  0
  190.1140  177.0410  147.1480 O   0  0  0  0  0  0  0  0  0  0  0  0
  191.1360  176.5200  147.9320 C   0  0  0  0  0  3  0  0  0  0  0  0
  191.2330  175.2770  148.0950 O   0  0  0  0  0  0  0  0  0  0  0  0
  2  3  1  0  0  0  0
  3  8  1  0  0  0  0
  3  5  1  0  0  0  0
  4 13  2  0  0  0  0
  7  6  1  0  0  0  0
  7 19  1  1  0  0  0
  8 17  1  1  0  0  0
  8  6  1  0  0  0  0
  9 13  1  0  0  0  0
 10 12  1  6  0  0  0
 10  7  1  0  0  0  0
 11  4  1  0  0  0  0
 11 14  1  0  0  0  0
 13 12  1  0  0  0  0
 14  1  1  0  0  0  0
 15  1  1  1  0  0  0
 15  3  1  0  0  0  0
 15 10  1  0  0  0  0
 17 16  1  0  0  0  0
 18 17  2  0  0  0  0
 19 21  1  1  0  0  0
 19 22  1  0  0  0  0
 20 21  1  0  0  0  0
 22 23  1  1  0  0  0
 22 26  1  0  0  0  0
 24 25  1  0  0  0  0
 24 23  1  0  0  0  0
 26 27  1  0  0  0  0
 27 28  2  0  0  0  0
M  END
>  <MODEL>
6

>  <REMARK>
 VINA RESULT:      -5.6      2.370      5.731
  Name = 
  8 active torsions:
  status: ('A' for Active; 'I' for Inactive)
    1  A    between atoms: C_9  and  C_12
    2  A    between atoms: C_9  and  C_13
    3  A    between atoms: C_9  and  O_14
    4  A    between atoms: C_10  and  C_13
    5  A    between atoms: C_11  and  C_22
    6  A    between atoms: C_12  and  C_15
    7  A    between atoms: C_13  and  O_24
    8  A    between atoms: O_14  and  C_18
                            x       y       z     vdW  Elec       q    Type
                         _______ _______ _______ _____ _____    ______ ____

>  <TORSDO>
F 8

$$$$
=
 OpenBabel11052418183D

 28 29  0  0  1  0  0  0  0  0999 V2000
  191.6300  171.9900  144.1400 C   0  0  0  0  0  2  0  0  0  0  0  0
  194.2740  173.2000  143.4690 C   0  0  0  0  0  1  0  0  0  0  0  0
  193.2420  173.9890  144.2660 C   0  0  0  0  0  0  0  0  0  0  0  0
  189.3280  172.7850  141.9840 C   0  0  0  0  0  3  0  0  0  0  0  0
  193.4930  173.7510  145.7550 C   0  0  0  0  0  1  0  0  0  0  0  0
  192.2860  176.3390  144.5580 C   0  0  0  0  0  2  0  0  0  0  0  0
  190.9020  175.8500  144.1360 C   0  0  1  0  0  3  0  0  0  0  0  0
  193.3780  175.4890  143.9110 C   0  0  1  0  0  3  0  0  0  0  0  0
  187.9990  174.8010  142.2460 C   0  0  0  0  0  1  0  0  0  0  0  0
  190.7100  174.3670  144.4840 C   0  0  1  0  0  3  0  0  0  0  0  0
  190.2910  171.6920  142.3550 C   0  0  0  0  0  2  0  0  0  0  0  0
  189.4040  173.9210  144.1000 O   0  0  0  0  0  0  0  0  0  0  0  0
  188.9690  173.8050  142.7720 C   0  0  0  0  0  0  0  0  0  0  0  0
  190.3610  171.5280  143.7450 O   0  0  0  0  0  0  0  0  0  0  0  0
  191.8290  173.5000  143.8730 C   0  0  2  0  0  3  0  0  0  0  0  0
  195.0050  176.6020  145.4450 O   0  0  0  0  0  1  0  0  0  0  0  0
  194.7340  176.0680  144.1930 C   0  0  0  0  0  0  0  0  0  0  0  0
  195.6250  176.0880  143.3010 O   0  0  0  0  0  0  0  0  0  0  0  0
  189.7860  176.7210  144.7350 C   0  0  2  0  0  3  0  0  0  0  0  0
  189.6770  178.2550  143.1390 C   0  0  0  0  0  1  0  0  0  0  0  0
  190.0230  178.0760  144.4790 O   0  0  0  0  0  0  0  0  0  0  0  0
  189.5600  176.4700  146.2310 C   0  0  2  0  0  3  0  0  0  0  0  0
  188.1330  176.8450  146.6010 C   0  0  0  0  0  2  0  0  0  0  0  0
  187.1840  176.5150  145.4650 C   0  0  0  0  0  2  0  0  0  0  0  0
  185.7610  176.7820  145.9040 C   0  0  0  0  0  1  0  0  0  0  0  0
  190.4890  177.2120  147.0090 O   0  0  0  0  0  0  0  0  0  0  0  0
  191.2630  176.5880  147.9800 C   0  0  0  0  0  3  0  0  0  0  0  0
  191.1920  175.3420  148.1360 O   0  0  0  0  0  0  0  0  0  0  0  0
  2  3  1  0  0  0  0
  3  5  1  0  0  0  0
  4 11  1  0  0  0  0
  4 13  2  0  0  0  0
  7 10  1  0  0  0  0
  7  6  1  0  0  0  0
  7 19  1  1  0  0  0
  8 17  1  1  0  0  0
  8  3  1  0  0  0  0
  8  6  1  0  0  0  0
  9 13  1  0  0  0  0
 10 12  1  6  0  0  0
 11 14  1  0  0  0  0
 13 12  1  0  0  0  0
 14  1  1  0  0  0  0
 15  1  1  1  0  0  0
 15  3  1  0  0  0  0
 15 10  1  0  0  0  0
 17 16  1  0  0  0  0
 18 17  2  0  0  0  0
 19 21  1  1  0  0  0
 19 22  1  0  0  0  0
 20 21  1  0  0  0  0
 22 23  1  1  0  0  0
 22 26  1  0  0  0  0
 24 25  1  0  0  0  0
 24 23  1  0  0  0  0
 26 27  1  0  0  0  0
 27 28  2  0  0  0  0
M  END
>  <MODEL>
7

>  <REMARK>
 VINA RESULT:      -5.6      2.580      6.336
  Name = 
  8 active torsions:
  status: ('A' for Active; 'I' for Inactive)
    1  A    between atoms: C_9  and  C_12
    2  A    between atoms: C_9  and  C_13
    3  A    between atoms: C_9  and  O_14
    4  A    between atoms: C_10  and  C_13
    5  A    between atoms: C_11  and  C_22
    6  A    between atoms: C_12  and  C_15
    7  A    between atoms: C_13  and  O_24
    8  A    between atoms: O_14  and  C_18
                            x       y       z     vdW  Elec       q    Type
                         _______ _______ _______ _____ _____    ______ ____

>  <TORSDO>
F 8

$$$$
=
 OpenBabel11052418183D

 28 29  0  0  1  0  0  0  0  0999 V2000
  188.1670  175.5350  147.3490 C   0  0  0  0  0  2  0  0  0  0  0  0
  186.5170  178.0010  147.6690 C   0  0  0  0  0  1  0  0  0  0  0  0
  186.7010  177.3660  146.2970 C   0  0  0  0  0  0  0  0  0  0  0  0
  191.2380  176.2070  146.5140 C   0  0  0  0  0  3  0  0  0  0  0  0
  185.5570  176.3790  146.0610 C   0  0  0  0  0  1  0  0  0  0  0  0
  187.0220  177.9500  143.8310 C   0  0  0  0  0  2  0  0  0  0  0  0
  188.3800  177.2500  143.8220 C   0  0  1  0  0  3  0  0  0  0  0  0
  186.7010  178.4830  145.2250 C   0  0  1  0  0  3  0  0  0  0  0  0
  191.8880  176.4370  144.1850 C   0  0  0  0  0  1  0  0  0  0  0  0
  188.4250  176.1180  144.8580 C   0  0  1  0  0  3  0  0  0  0  0  0
  190.3670  175.8670  147.6910 C   0  0  0  0  0  2  0  0  0  0  0  0
  189.6960  175.4560  144.8310 O   0  0  0  0  0  0  0  0  0  0  0  0
  190.9020  176.0510  145.2280 C   0  0  0  0  0  0  0  0  0  0  0  0
  189.4180  174.8920  147.3550 O   0  0  0  0  0  0  0  0  0  0  0  0
  188.0610  176.6320  146.2650 C   0  0  2  0  0  3  0  0  0  0  0  0
  184.4600  179.0860  146.1480 O   0  0  0  0  0  1  0  0  0  0  0  0
  185.4480  179.3100  145.1990 C   0  0  0  0  0  0  0  0  0  0  0  0
  185.2770  180.1940  144.3170 O   0  0  0  0  0  0  0  0  0  0  0  0
  188.7490  176.7480  142.4170 C   0  0  2  0  0  3  0  0  0  0  0  0
  190.1360  178.4750  142.5020 C   0  0  0  0  0  1  0  0  0  0  0  0
  189.2800  177.7850  141.6420 O   0  0  0  0  0  0  0  0  0  0  0  0
  187.5850  176.0560  141.6970 C   0  0  2  0  0  3  0  0  0  0  0  0
  187.8410  174.5570  141.6380 C   0  0  0  0  0  2  0  0  0  0  0  0
  189.3300  174.2720  141.6220 C   0  0  0  0  0  2  0  0  0  0  0  0
  189.6040  172.9870  142.3740 C   0  0  0  0  0  1  0  0  0  0  0  0
  187.4200  176.5860  140.3890 O   0  0  0  0  0  0  0  0  0  0  0  0
  186.2200  177.1730  140.0050 C   0  0  0  0  0  3  0  0  0  0  0  0
  185.8860  178.2890  140.4790 O   0  0  0  0  0  0  0  0  0  0  0  0
  1 14  1  0  0  0  0
  3  2  1  0  0  0  0
  4 11  1  0  0  0  0
  5  3  1  0  0  0  0
  6  8  1  0  0  0  0
  7 19  1  6  0  0  0
  7  6  1  0  0  0  0
  7 10  1  0  0  0  0
  8 17  1  6  0  0  0
  8  3  1  0  0  0  0
  9 13  1  0  0  0  0
 10 12  1  1  0  0  0
 10 15  1  0  0  0  0
 12 13  1  0  0  0  0
 13  4  2  0  0  0  0
 14 11  1  0  0  0  0
 15  3  1  0  0  0  0
 15  1  1  1  0  0  0
 17 16  1  0  0  0  0
 18 17  2  0  0  0  0
 19 21  1  6  0  0  0
 21 20  1  0  0  0  0
 22 23  1  6  0  0  0
 22 19  1  0  0  0  0
 24 23  1  0  0  0  0
 24 25  1  0  0  0  0
 26 22  1  0  0  0  0
 27 26  1  0  0  0  0
 27 28  2  0  0  0  0
M  END
>  <MODEL>
8

>  <REMARK>
 VINA RESULT:      -5.5      1.569      5.220
  Name = 
  8 active torsions:
  status: ('A' for Active; 'I' for Inactive)
    1  A    between atoms: C_9  and  C_12
    2  A    between atoms: C_9  and  C_13
    3  A    between atoms: C_9  and  O_14
    4  A    between atoms: C_10  and  C_13
    5  A    between atoms: C_11  and  C_22
    6  A    between atoms: C_12  and  C_15
    7  A    between atoms: C_13  and  O_24
    8  A    between atoms: O_14  and  C_18
                            x       y       z     vdW  Elec       q    Type
                         _______ _______ _______ _____ _____    ______ ____

>  <TORSDO>
F 8

$$$$
=
 OpenBabel11052418183D

 28 29  0  0  1  0  0  0  0  0999 V2000
  192.6410  172.0790  144.1690 C   0  0  0  0  0  2  0  0  0  0  0  0
  195.1140  173.7440  144.0220 C   0  0  0  0  0  1  0  0  0  0  0  0
  193.8020  174.3480  144.5080 C   0  0  0  0  0  0  0  0  0  0  0  0
  190.8030  172.3640  141.5000 C   0  0  0  0  0  3  0  0  0  0  0  0
  193.7360  174.2060  146.0290 C   0  0  0  0  0  1  0  0  0  0  0  0
  192.4060  176.4840  144.4090 C   0  0  0  0  0  2  0  0  0  0  0  0
  191.2670  175.7320  143.7230 C   0  0  1  0  0  3  0  0  0  0  0  0
  193.7510  175.8360  144.0860 C   0  0  1  0  0  3  0  0  0  0  0  0
  189.1170  174.1010  141.3120 C   0  0  0  0  0  1  0  0  0  0  0  0
  191.2630  174.2500  144.1260 C   0  0  1  0  0  3  0  0  0  0  0  0
  191.8300  171.4820  142.1550 C   0  0  0  0  0  2  0  0  0  0  0  0
  190.1820  173.5560  143.4920 O   0  0  0  0  0  0  0  0  0  0  0  0
  190.0970  173.3220  142.1120 C   0  0  0  0  0  0  0  0  0  0  0  0
  191.6020  171.3760  143.5340 O   0  0  0  0  0  0  0  0  0  0  0  0
  192.6290  173.5910  143.8450 C   0  0  2  0  0  3  0  0  0  0  0  0
  196.0290  176.8330  143.8610 O   0  0  0  0  0  0  0  0  0  0  0  0
  194.8800  176.6670  144.6220 C   0  0  0  0  0  0  0  0  0  0  0  0
  194.8040  177.2020  145.7600 O   0  0  0  0  0  1  0  0  0  0  0  0
  189.9070  176.3960  143.9930 C   0  0  2  0  0  3  0  0  0  0  0  0
  188.8220  177.4780  142.3920 C   0  0  0  0  0  1  0  0  0  0  0  0
  189.8240  177.6360  143.3510 O   0  0  0  0  0  0  0  0  0  0  0  0
  189.5800  176.5190  145.4860 C   0  0  2  0  0  3  0  0  0  0  0  0
  188.8000  175.2950  145.9410 C   0  0  0  0  0  2  0  0  0  0  0  0
  189.3250  174.7940  147.2720 C   0  0  0  0  0  2  0  0  0  0  0  0
  190.6430  175.4700  147.5800 C   0  0  0  0  0  1  0  0  0  0  0  0
  188.8380  177.7060  145.7390 O   0  0  0  0  0  0  0  0  0  0  0  0
  187.4590  177.6610  145.9060 C   0  0  0  0  0  3  0  0  0  0  0  0
  186.7090  178.2820  145.1100 O   0  0  0  0  0  0  0  0  0  0  0  0
  2  3  1  0  0  0  0
  3  5  1  0  0  0  0
  4 13  2  0  0  0  0
  4 11  1  0  0  0  0
  7 19  1  1  0  0  0
  7 10  1  0  0  0  0
  7  6  1  0  0  0  0
  8  6  1  0  0  0  0
  8  3  1  0  0  0  0
  8 17  1  1  0  0  0
  9 13  1  0  0  0  0
 10 12  1  6  0  0  0
 11 14  1  0  0  0  0
 13 12  1  0  0  0  0
 14  1  1  0  0  0  0
 15 10  1  0  0  0  0
 15  1  1  1  0  0  0
 15  3  1  0  0  0  0
 16 17  2  0  0  0  0
 17 18  1  0  0  0  0
 19 21  1  1  0  0  0
 19 22  1  0  0  0  0
 20 21  1  0  0  0  0
 22 26  1  0  0  0  0
 22 23  1  6  0  0  0
 23 24  1  0  0  0  0
 24 25  1  0  0  0  0
 26 27  1  0  0  0  0
 28 27  2  0  0  0  0
M  END
>  <MODEL>
9

>  <REMARK>
 VINA RESULT:      -5.5      2.834      6.639
  Name = 
  8 active torsions:
  status: ('A' for Active; 'I' for Inactive)
    1  A    between atoms: C_9  and  C_12
    2  A    between atoms: C_9  and  C_13
    3  A    between atoms: C_9  and  O_14
    4  A    between atoms: C_10  and  C_13
    5  A    between atoms: C_11  and  C_22
    6  A    between atoms: C_12  and  C_15
    7  A    between atoms: C_13  and  O_24
    8  A    between atoms: O_14  and  C_18
                            x       y       z     vdW  Elec       q    Type
                         _______ _______ _______ _____ _____    ______ ____

>  <TORSDO>
F 8

$$$$
