=
 OpenBabel11052418583D

 34 39  0  0  1  0  0  0  0  0999 V2000
  191.4940  176.4150  146.4010 C   0  0  0  0  0  0  0  0  0  0  0  0
  192.3230  174.5070  145.1170 C   0  0  0  0  0  0  0  0  0  0  0  0
  190.0770  175.6620  144.5390 C   0  0  0  0  0  0  0  0  0  0  0  0
  188.6100  175.0830  142.6770 C   0  0  0  0  0  0  0  0  0  0  0  0
  193.8810  175.6430  146.5130 C   0  0  0  0  0  3  0  0  0  0  0  0
  193.6470  174.7530  145.5980 N   0  0  0  0  0  0  0  0  0  0  0  0
  191.0100  174.5440  142.4560 C   0  0  0  0  0  3  0  0  0  0  0  0
  191.2820  175.5480  145.3090 C   0  0  0  0  0  0  0  0  0  0  0  0
  190.8330  174.0910  141.2190 C   0  0  0  0  0  3  0  0  0  0  0  0
  188.3200  174.3420  141.4000 C   0  0  0  0  0  3  0  0  0  0  0  0
  192.7680  176.3840  147.2030 C   0  0  0  0  0  2  0  0  0  0  0  0
  189.0220  176.4760  145.0520 C   0  0  1  0  0  3  0  0  0  0  0  0
  190.4680  177.2360  146.8510 C   0  0  0  0  0  3  0  0  0  0  0  0
  192.0440  173.3740  144.6450 O   0  0  0  0  0  0  0  0  0  0  0  0
  187.6030  175.7710  143.2620 N   0  0  0  0  0  0  0  0  0  0  0  0
  187.7640  176.4970  144.3970 C   0  0  0  0  0  0  0  0  0  0  0  0
  189.5290  174.0620  140.6270 N   0  0  0  0  0  0  0  0  0  0  0  0
  189.8860  175.0520  143.2680 C   0  0  0  0  0  0  0  0  0  0  0  0
  189.2430  177.2450  146.2010 C   0  0  0  0  0  3  0  0  0  0  0  0
  185.2400  179.2900  144.8050 C   0  0  0  0  0  0  0  0  0  0  0  0
  184.4280  178.8010  145.8300 C   0  0  0  0  0  3  0  0  0  0  0  0
  186.5870  177.2640  144.8880 C   0  0  0  0  0  0  0  0  0  0  0  0
  184.6950  177.5510  146.3940 C   0  0  0  0  0  3  0  0  0  0  0  0
  186.3160  178.5290  144.3420 C   0  0  0  0  0  3  0  0  0  0  0  0
  185.7710  176.7910  145.9280 C   0  0  0  0  0  3  0  0  0  0  0  0
  184.9880  180.5060  144.2630 F   0  0  0  0  0  0  0  0  0  0  0  0
  189.3850  173.6650  139.2370 C   0  0  0  0  0  2  0  0  0  0  0  0
  190.7620  172.5850  138.7420 S   0  0  0  0  0  0  0  0  0  0  0  0
  190.4410  170.5190  141.5880 N   0  0  0  0  0  1  0  0  0  0  0  0
  190.8860  170.4470  140.2080 C   0  0  2  0  0  3  0  0  0  0  0  0
  190.5720  169.0560  138.3150 C   0  0  0  0  0  2  0  0  0  0  0  0
  189.6910  170.2800  138.1950 C   0  0  0  0  0  2  0  0  0  0  0  0
  189.9380  171.1450  139.3460 N   0  0  0  0  0  0  0  0  0  0  0  0
  190.9460  169.0050  139.7670 C   0  0  0  0  0  2  0  0  0  0  0  0
  1 13  1  0  0  0  0
  1 11  1  0  0  0  0
  2  8  1  0  0  0  0
  2  6  1  0  0  0  0
  3 12  1  0  0  0  0
  3  8  1  0  0  0  0
  4 15  1  0  0  0  0
  4 18  1  0  0  0  0
  5 11  1  0  0  0  0
  6  5  2  0  0  0  0
  7 18  1  0  0  0  0
  8  1  2  0  0  0  0
  9  7  2  0  0  0  0
 10  4  2  0  0  0  0
 12 19  1  1  0  0  0
 14  2  2  0  0  0  0
 15 16  2  0  0  0  0
 16 22  1  0  0  0  0
 16 12  1  0  0  0  0
 17  9  1  0  0  0  0
 17 10  1  0  0  0  0
 18  3  2  0  0  0  0
 19 13  2  0  0  0  0
 20 21  1  0  0  0  0
 21 23  2  0  0  0  0
 22 25  2  0  0  0  0
 24 20  2  0  0  0  0
 24 22  1  0  0  0  0
 25 23  1  0  0  0  0
 26 20  1  0  0  0  0
 27 17  1  0  0  0  0
 28 27  1  0  0  0  0
 28 33  1  0  0  0  0
 30 29  1  1  0  0  0
 31 34  1  0  0  0  0
 32 31  1  0  0  0  0
 32 33  1  0  0  0  0
 33 30  1  0  0  0  0
 34 30  1  0  0  0  0
M  END
>  <MODEL>
1

>  <REMARK>
 VINA RESULT:      -8.7      0.000      0.000
  Name = 
  4 active torsions:
  status: ('A' for Active; 'I' for Inactive)
    1  A    between atoms: C_3  and  S_13
    2  A    between atoms: C_3  and  N_29
    3  A    between atoms: C_12  and  C_28
    4  A    between atoms: S_13  and  N_33
                            x       y       z     vdW  Elec       q    Type
                         _______ _______ _______ _____ _____    ______ ____

>  <TORSDO>
F 4

$$$$
=
 OpenBabel11052418583D

 34 39  0  0  1  0  0  0  0  0999 V2000
  191.5670  176.1670  146.0030 C   0  0  0  0  0  0  0  0  0  0  0  0
  192.1740  174.0560  144.9280 C   0  0  0  0  0  0  0  0  0  0  0  0
  189.9820  175.3040  144.3340 C   0  0  0  0  0  0  0  0  0  0  0  0
  188.3590  174.6170  142.6450 C   0  0  0  0  0  0  0  0  0  0  0  0
  193.8960  175.2300  146.0790 C   0  0  0  0  0  3  0  0  0  0  0  0
  193.5400  174.2550  145.2990 N   0  0  0  0  0  0  0  0  0  0  0  0
  190.6960  173.8680  142.3620 C   0  0  0  0  0  3  0  0  0  0  0  0
  191.2230  175.1920  145.0430 C   0  0  0  0  0  0  0  0  0  0  0  0
  190.4070  173.2810  141.2050 C   0  0  0  0  0  3  0  0  0  0  0  0
  187.9350  173.7500  141.4920 C   0  0  0  0  0  3  0  0  0  0  0  0
  192.8850  176.1350  146.7290 C   0  0  0  0  0  2  0  0  0  0  0  0
  189.0230  176.2560  144.7960 C   0  0  1  0  0  3  0  0  0  0  0  0
  190.6330  177.1160  146.4000 C   0  0  0  0  0  3  0  0  0  0  0  0
  191.7840  172.8990  144.6210 O   0  0  0  0  0  0  0  0  0  0  0  0
  187.4440  175.4490  143.1930 N   0  0  0  0  0  0  0  0  0  0  0  0
  187.7300  176.2940  144.2160 C   0  0  0  0  0  0  0  0  0  0  0  0
  189.0680  173.2820  140.6950 N   0  0  0  0  0  0  0  0  0  0  0  0
  189.6660  174.5590  143.1640 C   0  0  0  0  0  0  0  0  0  0  0  0
  189.3720  177.1410  145.8230 C   0  0  0  0  0  3  0  0  0  0  0  0
  185.5830  179.3950  144.5630 C   0  0  0  0  0  0  0  0  0  0  0  0
  184.6700  179.0070  145.5450 C   0  0  0  0  0  3  0  0  0  0  0  0
  186.6450  177.2060  144.6690 C   0  0  0  0  0  0  0  0  0  0  0  0
  184.7440  177.7270  146.0990 C   0  0  0  0  0  3  0  0  0  0  0  0
  186.5680  178.5020  144.1330 C   0  0  0  0  0  3  0  0  0  0  0  0
  185.7290  176.8350  145.6670 C   0  0  0  0  0  3  0  0  0  0  0  0
  185.5180  180.6390  144.0300 F   0  0  0  0  0  0  0  0  0  0  0  0
  188.8060  172.7300  139.3770 C   0  0  0  0  0  2  0  0  0  0  0  0
  188.4220  174.0620  138.1990 S   0  0  0  0  0  0  0  0  0  0  0  0
  190.2170  175.0970  135.3400 N   0  0  0  0  0  1  0  0  0  0  0  0
  189.4040  173.9850  135.7980 C   0  0  2  0  0  3  0  0  0  0  0  0
  189.5020  171.6180  135.8460 C   0  0  0  0  0  2  0  0  0  0  0  0
  189.8980  172.1690  137.1980 C   0  0  0  0  0  2  0  0  0  0  0  0
  189.7810  173.6250  137.1600 N   0  0  0  0  0  0  0  0  0  0  0  0
  189.6360  172.7860  134.9140 C   0  0  0  0  0  2  0  0  0  0  0  0
  1 13  1  0  0  0  0
  1 11  1  0  0  0  0
  2  8  1  0  0  0  0
  2  6  1  0  0  0  0
  3 12  1  0  0  0  0
  3  8  1  0  0  0  0
  4 18  1  0  0  0  0
  4 15  1  0  0  0  0
  5 11  1  0  0  0  0
  6  5  2  0  0  0  0
  7 18  1  0  0  0  0
  8  1  2  0  0  0  0
  9  7  2  0  0  0  0
 10  4  2  0  0  0  0
 12 19  1  1  0  0  0
 14  2  2  0  0  0  0
 15 16  2  0  0  0  0
 16 22  1  0  0  0  0
 16 12  1  0  0  0  0
 17  9  1  0  0  0  0
 17 10  1  0  0  0  0
 18  3  2  0  0  0  0
 19 13  2  0  0  0  0
 20 21  1  0  0  0  0
 21 23  2  0  0  0  0
 22 25  2  0  0  0  0
 24 20  2  0  0  0  0
 24 22  1  0  0  0  0
 25 23  1  0  0  0  0
 26 20  1  0  0  0  0
 27 17  1  0  0  0  0
 28 27  1  0  0  0  0
 30 29  1  6  0  0  0
 30 33  1  0  0  0  0
 31 32  1  0  0  0  0
 33 32  1  0  0  0  0
 33 28  1  0  0  0  0
 34 30  1  0  0  0  0
 34 31  1  0  0  0  0
M  END
>  <MODEL>
2

>  <REMARK>
 VINA RESULT:      -8.5      1.697      2.299
  Name = 
  4 active torsions:
  status: ('A' for Active; 'I' for Inactive)
    1  A    between atoms: C_3  and  S_13
    2  A    between atoms: C_3  and  N_29
    3  A    between atoms: C_12  and  C_28
    4  A    between atoms: S_13  and  N_33
                            x       y       z     vdW  Elec       q    Type
                         _______ _______ _______ _____ _____    ______ ____

>  <TORSDO>
F 4

$$$$
=
 OpenBabel11052418583D

 34 39  0  0  1  0  0  0  0  0999 V2000
  191.5780  176.3110  146.1510 C   0  0  0  0  0  0  0  0  0  0  0  0
  192.3160  174.3620  144.8720 C   0  0  0  0  0  0  0  0  0  0  0  0
  190.0880  175.5720  144.3410 C   0  0  0  0  0  0  0  0  0  0  0  0
  188.5520  175.0090  142.5290 C   0  0  0  0  0  0  0  0  0  0  0  0
  193.9450  175.4730  146.2060 C   0  0  0  0  0  3  0  0  0  0  0  0
  193.6590  174.5770  145.3120 N   0  0  0  0  0  0  0  0  0  0  0  0
  190.9290  174.4000  142.2490 C   0  0  0  0  0  3  0  0  0  0  0  0
  191.3100  175.4350  145.0780 C   0  0  0  0  0  0  0  0  0  0  0  0
  190.7040  173.9340  141.0240 C   0  0  0  0  0  3  0  0  0  0  0  0
  188.2050  174.2590  141.2730 C   0  0  0  0  0  3  0  0  0  0  0  0
  192.8720  176.2550  146.9170 C   0  0  0  0  0  2  0  0  0  0  0  0
  189.0710  176.4240  144.8710 C   0  0  1  0  0  3  0  0  0  0  0  0
  190.5880  177.1670  146.6180 C   0  0  0  0  0  3  0  0  0  0  0  0
  191.9920  173.2310  144.4250 O   0  0  0  0  0  0  0  0  0  0  0  0
  187.5820  175.7340  143.1330 N   0  0  0  0  0  0  0  0  0  0  0  0
  187.7960  176.4710  144.2520 C   0  0  0  0  0  0  0  0  0  0  0  0
  189.3830  173.9340  140.4700 N   0  0  0  0  0  0  0  0  0  0  0  0
  189.8430  174.9510  143.0850 C   0  0  0  0  0  0  0  0  0  0  0  0
  189.3460  177.2020  146.0020 C   0  0  0  0  0  3  0  0  0  0  0  0
  185.3890  179.3570  144.7200 C   0  0  0  0  0  0  0  0  0  0  0  0
  184.5690  178.8870  145.7480 C   0  0  0  0  0  3  0  0  0  0  0  0
  186.6550  177.2770  144.7650 C   0  0  0  0  0  0  0  0  0  0  0  0
  184.7920  177.6220  146.2950 C   0  0  0  0  0  3  0  0  0  0  0  0
  186.4290  178.5590  144.2360 C   0  0  0  0  0  3  0  0  0  0  0  0
  185.8320  176.8250  145.8090 C   0  0  0  0  0  3  0  0  0  0  0  0
  185.1790  180.5880  144.1940 F   0  0  0  0  0  0  0  0  0  0  0  0
  189.1870  173.5220  139.0910 C   0  0  0  0  0  2  0  0  0  0  0  0
  190.7300  172.8380  138.4120 S   0  0  0  0  0  0  0  0  0  0  0  0
  190.1550  169.3630  138.6670 N   0  0  0  0  0  1  0  0  0  0  0  0
  190.7420  170.3270  137.7540 C   0  0  2  0  0  3  0  0  0  0  0  0
  190.6550  170.8660  135.4480 C   0  0  0  0  0  2  0  0  0  0  0  0
  189.7670  171.8140  136.2240 C   0  0  0  0  0  2  0  0  0  0  0  0
  189.8760  171.4960  137.6450 N   0  0  0  0  0  0  0  0  0  0  0  0
  190.8760  169.7140  136.3830 C   0  0  0  0  0  2  0  0  0  0  0  0
  1 13  1  0  0  0  0
  1 11  1  0  0  0  0
  2  8  1  0  0  0  0
  2  6  1  0  0  0  0
  3 12  1  0  0  0  0
  3  8  1  0  0  0  0
  4 18  1  0  0  0  0
  4 15  1  0  0  0  0
  5 11  1  0  0  0  0
  6  5  2  0  0  0  0
  7 18  1  0  0  0  0
  8  1  2  0  0  0  0
  9  7  2  0  0  0  0
 10  4  2  0  0  0  0
 12 19  1  1  0  0  0
 14  2  2  0  0  0  0
 15 16  2  0  0  0  0
 16 22  1  0  0  0  0
 16 12  1  0  0  0  0
 17  9  1  0  0  0  0
 17 10  1  0  0  0  0
 18  3  2  0  0  0  0
 19 13  2  0  0  0  0
 20 21  1  0  0  0  0
 21 23  2  0  0  0  0
 22 25  2  0  0  0  0
 24 20  2  0  0  0  0
 24 22  1  0  0  0  0
 25 23  1  0  0  0  0
 26 20  1  0  0  0  0
 27 17  1  0  0  0  0
 28 27  1  0  0  0  0
 30 29  1  1  0  0  0
 31 32  1  0  0  0  0
 31 34  1  0  0  0  0
 32 33  1  0  0  0  0
 33 30  1  0  0  0  0
 33 28  1  0  0  0  0
 34 30  1  0  0  0  0
M  END
>  <MODEL>
3

>  <REMARK>
 VINA RESULT:      -8.4      0.936      1.218
  Name = 
  4 active torsions:
  status: ('A' for Active; 'I' for Inactive)
    1  A    between atoms: C_3  and  S_13
    2  A    between atoms: C_3  and  N_29
    3  A    between atoms: C_12  and  C_28
    4  A    between atoms: S_13  and  N_33
                            x       y       z     vdW  Elec       q    Type
                         _______ _______ _______ _____ _____    ______ ____

>  <TORSDO>
F 4

$$$$
=
 OpenBabel11052418583D

 34 39  0  0  1  0  0  0  0  0999 V2000
  191.4310  176.4020  146.1130 C   0  0  0  0  0  0  0  0  0  0  0  0
  192.1660  174.3730  144.9620 C   0  0  0  0  0  0  0  0  0  0  0  0
  190.0210  175.6400  144.2490 C   0  0  0  0  0  0  0  0  0  0  0  0
  188.5730  175.0540  142.3740 C   0  0  0  0  0  0  0  0  0  0  0  0
  193.7570  175.4810  146.3450 C   0  0  0  0  0  3  0  0  0  0  0  0
  193.4890  174.5580  145.4720 N   0  0  0  0  0  0  0  0  0  0  0  0
  190.9370  174.3470  142.2620 C   0  0  0  0  0  3  0  0  0  0  0  0
  191.1920  175.4900  145.0630 C   0  0  0  0  0  0  0  0  0  0  0  0
  190.7650  173.8370  141.0460 C   0  0  0  0  0  3  0  0  0  0  0  0
  188.2710  174.2640  141.1310 C   0  0  0  0  0  3  0  0  0  0  0  0
  192.6760  176.3320  146.9560 C   0  0  0  0  0  2  0  0  0  0  0  0
  189.0100  176.5500  144.6820 C   0  0  1  0  0  3  0  0  0  0  0  0
  190.4500  177.3130  146.4830 C   0  0  0  0  0  3  0  0  0  0  0  0
  191.8250  173.2360  144.5440 O   0  0  0  0  0  0  0  0  0  0  0  0
  187.5990  175.8400  142.8870 N   0  0  0  0  0  0  0  0  0  0  0  0
  187.7760  176.6160  143.9860 C   0  0  0  0  0  0  0  0  0  0  0  0
  189.4800  173.8610  140.4150 N   0  0  0  0  0  0  0  0  0  0  0  0
  189.8260  174.9730  143.0080 C   0  0  0  0  0  0  0  0  0  0  0  0
  189.2490  177.3660  145.7940 C   0  0  0  0  0  3  0  0  0  0  0  0
  184.7230  177.8610  145.8500 C   0  0  0  0  0  0  0  0  0  0  0  0
  184.4260  179.0410  145.1660 C   0  0  0  0  0  3  0  0  0  0  0  0
  186.6400  177.4860  144.3960 C   0  0  0  0  0  0  0  0  0  0  0  0
  185.2230  179.4440  144.0930 C   0  0  0  0  0  3  0  0  0  0  0  0
  185.8190  177.0850  145.4630 C   0  0  0  0  0  3  0  0  0  0  0  0
  186.3200  178.6680  143.7080 C   0  0  0  0  0  3  0  0  0  0  0  0
  183.9460  177.4640  146.8870 F   0  0  0  0  0  0  0  0  0  0  0  0
  189.3490  173.3960  139.0440 C   0  0  0  0  0  2  0  0  0  0  0  0
  190.9640  173.4380  138.2060 S   0  0  0  0  0  0  0  0  0  0  0  0
  193.1240  170.7530  137.4350 N   0  0  0  0  0  1  0  0  0  0  0  0
  191.8820  171.3460  136.9750 C   0  0  2  0  0  3  0  0  0  0  0  0
  189.6920  170.6480  136.3970 C   0  0  0  0  0  2  0  0  0  0  0  0
  189.6910  171.2070  137.8030 C   0  0  0  0  0  2  0  0  0  0  0  0
  191.0380  171.6760  138.1180 N   0  0  0  0  0  0  0  0  0  0  0  0
  191.1360  170.3590  136.1110 C   0  0  0  0  0  2  0  0  0  0  0  0
  1 13  1  0  0  0  0
  1 11  1  0  0  0  0
  2  8  1  0  0  0  0
  2  6  1  0  0  0  0
  3 12  1  0  0  0  0
  3  8  1  0  0  0  0
  4 15  1  0  0  0  0
  4 18  1  0  0  0  0
  5 11  1  0  0  0  0
  6  5  2  0  0  0  0
  7 18  1  0  0  0  0
  8  1  2  0  0  0  0
  9  7  2  0  0  0  0
 10  4  2  0  0  0  0
 12 19  1  1  0  0  0
 14  2  2  0  0  0  0
 15 16  2  0  0  0  0
 16 22  1  0  0  0  0
 16 12  1  0  0  0  0
 17  9  1  0  0  0  0
 17 10  1  0  0  0  0
 18  3  2  0  0  0  0
 19 13  2  0  0  0  0
 20 26  1  0  0  0  0
 21 20  2  0  0  0  0
 22 24  2  0  0  0  0
 23 21  1  0  0  0  0
 24 20  1  0  0  0  0
 25 23  2  0  0  0  0
 25 22  1  0  0  0  0
 27 17  1  0  0  0  0
 28 27  1  0  0  0  0
 30 29  1  1  0  0  0
 30 33  1  0  0  0  0
 31 32  1  0  0  0  0
 32 33  1  0  0  0  0
 33 28  1  0  0  0  0
 34 31  1  0  0  0  0
 34 30  1  0  0  0  0
M  END
>  <MODEL>
4

>  <REMARK>
 VINA RESULT:      -8.2      1.372      1.791
  Name = 
  4 active torsions:
  status: ('A' for Active; 'I' for Inactive)
    1  A    between atoms: C_3  and  S_13
    2  A    between atoms: C_3  and  N_29
    3  A    between atoms: C_12  and  C_28
    4  A    between atoms: S_13  and  N_33
                            x       y       z     vdW  Elec       q    Type
                         _______ _______ _______ _____ _____    ______ ____

>  <TORSDO>
F 4

$$$$
=
 OpenBabel11052418583D

 34 39  0  0  1  0  0  0  0  0999 V2000
  185.4090  177.6900  144.9580 C   0  0  0  0  0  0  0  0  0  0  0  0
  186.8150  176.9790  146.8280 C   0  0  0  0  0  0  0  0  0  0  0  0
  187.6190  176.7880  144.3730 C   0  0  0  0  0  0  0  0  0  0  0  0
  189.8100  175.9960  143.6440 C   0  0  0  0  0  0  0  0  0  0  0  0
  184.9580  178.3820  147.3300 C   0  0  0  0  0  3  0  0  0  0  0  0
  186.0430  177.7860  147.7210 N   0  0  0  0  0  0  0  0  0  0  0  0
  189.6360  176.9650  145.9090 C   0  0  0  0  0  3  0  0  0  0  0  0
  186.6560  177.1710  145.3640 C   0  0  0  0  0  0  0  0  0  0  0  0
  190.9430  176.8290  146.1090 C   0  0  0  0  0  3  0  0  0  0  0  0
  191.2270  175.5800  143.9240 C   0  0  0  0  0  3  0  0  0  0  0  0
  184.3860  178.1670  145.9550 C   0  0  0  0  0  2  0  0  0  0  0  0
  187.1940  176.7100  143.0120 C   0  0  1  0  0  3  0  0  0  0  0  0
  185.0370  177.6500  143.6200 C   0  0  0  0  0  3  0  0  0  0  0  0
  187.5240  176.0510  147.2990 O   0  0  0  0  0  0  0  0  0  0  0  0
  189.3270  175.8270  142.3920 N   0  0  0  0  0  0  0  0  0  0  0  0
  188.0730  176.1950  142.0260 C   0  0  0  0  0  0  0  0  0  0  0  0
  191.7790  176.2330  145.1100 N   0  0  0  0  0  0  0  0  0  0  0  0
  188.9890  176.5290  144.6550 C   0  0  0  0  0  0  0  0  0  0  0  0
  185.9070  177.1430  142.6670 C   0  0  0  0  0  3  0  0  0  0  0  0
  187.8180  174.6800  138.5640 C   0  0  0  0  0  0  0  0  0  0  0  0
  187.1050  175.6590  137.8700 C   0  0  0  0  0  3  0  0  0  0  0  0
  187.7010  176.0180  140.5960 C   0  0  0  0  0  0  0  0  0  0  0  0
  186.6960  176.8210  138.5280 C   0  0  0  0  0  3  0  0  0  0  0  0
  188.1190  174.8610  139.9160 C   0  0  0  0  0  3  0  0  0  0  0  0
  186.9970  177.0000  139.8810 C   0  0  0  0  0  3  0  0  0  0  0  0
  188.2220  173.5550  137.9260 F   0  0  0  0  0  0  0  0  0  0  0  0
  193.2180  176.1990  145.3120 C   0  0  0  0  0  2  0  0  0  0  0  0
  194.0750  176.0330  143.7150 S   0  0  0  0  0  0  0  0  0  0  0  0
  197.5380  176.1300  143.0290 N   0  0  0  0  0  1  0  0  0  0  0  0
  196.5500  175.2540  143.6320 C   0  0  2  0  0  3  0  0  0  0  0  0
  196.2810  173.9840  145.6150 C   0  0  0  0  0  2  0  0  0  0  0  0
  195.5230  175.2870  145.7420 C   0  0  0  0  0  2  0  0  0  0  0  0
  195.6610  176.0290  144.4910 N   0  0  0  0  0  0  0  0  0  0  0  0
  197.2390  174.2180  144.4840 C   0  0  0  0  0  2  0  0  0  0  0  0
  1  8  2  0  0  0  0
  1 11  1  0  0  0  0
  2 14  2  0  0  0  0
  2  6  1  0  0  0  0
  3 18  2  0  0  0  0
  3  8  1  0  0  0  0
  4 10  2  0  0  0  0
  4 18  1  0  0  0  0
  5  6  2  0  0  0  0
  7  9  2  0  0  0  0
  8  2  1  0  0  0  0
 10 17  1  0  0  0  0
 11  5  1  0  0  0  0
 12 19  1  1  0  0  0
 12  3  1  0  0  0  0
 13  1  1  0  0  0  0
 15  4  1  0  0  0  0
 16 15  2  0  0  0  0
 16 12  1  0  0  0  0
 17 27  1  0  0  0  0
 17  9  1  0  0  0  0
 18  7  1  0  0  0  0
 19 13  2  0  0  0  0
 20 24  1  0  0  0  0
 21 23  1  0  0  0  0
 21 20  2  0  0  0  0
 22 16  1  0  0  0  0
 23 25  2  0  0  0  0
 24 22  2  0  0  0  0
 25 22  1  0  0  0  0
 26 20  1  0  0  0  0
 28 33  1  0  0  0  0
 28 27  1  0  0  0  0
 30 29  1  1  0  0  0
 30 34  1  0  0  0  0
 30 33  1  0  0  0  0
 31 32  1  0  0  0  0
 33 32  1  0  0  0  0
 34 31  1  0  0  0  0
M  END
>  <MODEL>
5

>  <REMARK>
 VINA RESULT:      -8.1      3.574      6.923
  Name = 
  4 active torsions:
  status: ('A' for Active; 'I' for Inactive)
    1  A    between atoms: C_3  and  S_13
    2  A    between atoms: C_3  and  N_29
    3  A    between atoms: C_12  and  C_28
    4  A    between atoms: S_13  and  N_33
                            x       y       z     vdW  Elec       q    Type
                         _______ _______ _______ _____ _____    ______ ____

>  <TORSDO>
F 4

$$$$
=
 OpenBabel11052418583D

 34 39  0  0  1  0  0  0  0  0999 V2000
  185.6980  177.5450  144.1890 C   0  0  0  0  0  0  0  0  0  0  0  0
  186.5710  177.4320  146.4700 C   0  0  0  0  0  0  0  0  0  0  0  0
  187.8280  176.3520  144.4790 C   0  0  0  0  0  0  0  0  0  0  0  0
  189.9830  175.2130  144.5990 C   0  0  0  0  0  0  0  0  0  0  0  0
  184.8740  179.0420  146.0280 C   0  0  0  0  0  3  0  0  0  0  0  0
  185.7570  178.5480  146.8410 N   0  0  0  0  0  0  0  0  0  0  0  0
  189.4880  176.9150  146.3180 C   0  0  0  0  0  3  0  0  0  0  0  0
  186.7470  177.1160  145.0290 C   0  0  0  0  0  0  0  0  0  0  0  0
  190.6930  176.7700  146.8630 C   0  0  0  0  0  3  0  0  0  0  0  0
  191.2380  174.8270  145.3330 C   0  0  0  0  0  3  0  0  0  0  0  0
  184.5730  178.4030  144.6990 C   0  0  0  0  0  2  0  0  0  0  0  0
  187.6850  175.8360  143.1550 C   0  0  1  0  0  3  0  0  0  0  0  0
  185.6090  177.0690  142.8860 C   0  0  0  0  0  3  0  0  0  0  0  0
  187.0260  176.6800  147.3710 O   0  0  0  0  0  0  0  0  0  0  0  0
  189.7500  174.6540  143.3890 N   0  0  0  0  0  0  0  0  0  0  0  0
  188.6650  174.9550  142.6310 C   0  0  0  0  0  0  0  0  0  0  0  0
  191.6220  175.8120  146.3430 N   0  0  0  0  0  0  0  0  0  0  0  0
  189.0580  176.1160  145.1530 C   0  0  0  0  0  0  0  0  0  0  0  0
  186.5740  176.2070  142.3880 C   0  0  0  0  0  3  0  0  0  0  0  0
  188.0620  174.5240  138.9180 C   0  0  0  0  0  0  0  0  0  0  0  0
  188.3020  173.1600  138.7400 C   0  0  0  0  0  3  0  0  0  0  0  0
  188.5740  174.3190  141.2890 C   0  0  0  0  0  0  0  0  0  0  0  0
  188.6690  172.3690  139.8320 C   0  0  0  0  0  3  0  0  0  0  0  0
  188.1910  175.0980  140.1850 C   0  0  0  0  0  3  0  0  0  0  0  0
  188.7990  172.9460  141.0990 C   0  0  0  0  0  3  0  0  0  0  0  0
  187.6990  175.2910  137.8610 F   0  0  0  0  0  0  0  0  0  0  0  0
  192.9680  175.7540  146.8880 C   0  0  0  0  0  2  0  0  0  0  0  0
  194.0770  176.8460  145.9460 S   0  0  0  0  0  0  0  0  0  0  0  0
  196.1590  173.9990  145.7620 N   0  0  0  0  0  1  0  0  0  0  0  0
  195.9850  175.2910  145.1230 C   0  0  2  0  0  3  0  0  0  0  0  0
  195.8470  176.1790  142.9300 C   0  0  0  0  0  2  0  0  0  0  0  0
  194.4560  176.0330  143.5050 C   0  0  0  0  0  2  0  0  0  0  0  0
  194.5690  175.5320  144.8730 N   0  0  0  0  0  0  0  0  0  0  0  0
  196.7040  175.3030  143.7970 C   0  0  0  0  0  2  0  0  0  0  0  0
  1 11  1  0  0  0  0
  1  8  2  0  0  0  0
  2  6  1  0  0  0  0
  2 14  2  0  0  0  0
  3  8  1  0  0  0  0
  3 18  2  0  0  0  0
  4 18  1  0  0  0  0
  4 10  2  0  0  0  0
  5  6  2  0  0  0  0
  7  9  2  0  0  0  0
  8  2  1  0  0  0  0
 10 17  1  0  0  0  0
 11  5  1  0  0  0  0
 12 19  1  1  0  0  0
 12  3  1  0  0  0  0
 13  1  1  0  0  0  0
 15  4  1  0  0  0  0
 16 12  1  0  0  0  0
 16 15  2  0  0  0  0
 17  9  1  0  0  0  0
 17 27  1  0  0  0  0
 18  7  1  0  0  0  0
 19 13  2  0  0  0  0
 20 24  1  0  0  0  0
 21 20  2  0  0  0  0
 21 23  1  0  0  0  0
 22 16  1  0  0  0  0
 23 25  2  0  0  0  0
 24 22  2  0  0  0  0
 25 22  1  0  0  0  0
 26 20  1  0  0  0  0
 28 27  1  0  0  0  0
 30 29  1  6  0  0  0
 31 32  1  0  0  0  0
 31 34  1  0  0  0  0
 32 33  1  0  0  0  0
 33 30  1  0  0  0  0
 33 28  1  0  0  0  0
 34 30  1  0  0  0  0
M  END
>  <MODEL>
6

>  <REMARK>
 VINA RESULT:      -7.9      3.172      7.044
  Name = 
  4 active torsions:
  status: ('A' for Active; 'I' for Inactive)
    1  A    between atoms: C_3  and  S_13
    2  A    between atoms: C_3  and  N_29
    3  A    between atoms: C_12  and  C_28
    4  A    between atoms: S_13  and  N_33
                            x       y       z     vdW  Elec       q    Type
                         _______ _______ _______ _____ _____    ______ ____

>  <TORSDO>
F 4

$$$$
=
 OpenBabel11052418583D

 34 39  0  0  1  0  0  0  0  0999 V2000
  185.7520  177.5530  144.0930 C   0  0  0  0  0  0  0  0  0  0  0  0
  186.5930  177.4370  146.3860 C   0  0  0  0  0  0  0  0  0  0  0  0
  187.8800  176.3650  144.4090 C   0  0  0  0  0  0  0  0  0  0  0  0
  190.0370  175.2330  144.5560 C   0  0  0  0  0  0  0  0  0  0  0  0
  184.8970  179.0440  145.9240 C   0  0  0  0  0  3  0  0  0  0  0  0
  185.7700  178.5500  146.7480 N   0  0  0  0  0  0  0  0  0  0  0  0
  189.5140  176.9290  146.2730 C   0  0  0  0  0  3  0  0  0  0  0  0
  186.7890  177.1250  144.9470 C   0  0  0  0  0  0  0  0  0  0  0  0
  190.7110  176.7860  146.8330 C   0  0  0  0  0  3  0  0  0  0  0  0
  191.2820  174.8480  145.3060 C   0  0  0  0  0  3  0  0  0  0  0  0
  184.6160  178.4070  144.5900 C   0  0  0  0  0  2  0  0  0  0  0  0
  187.7570  175.8530  143.0820 C   0  0  1  0  0  3  0  0  0  0  0  0
  185.6810  177.0800  142.7880 C   0  0  0  0  0  3  0  0  0  0  0  0
  187.0370  176.6840  147.2910 O   0  0  0  0  0  0  0  0  0  0  0  0
  189.8220  174.6760  143.3420 N   0  0  0  0  0  0  0  0  0  0  0  0
  188.7470  174.9760  142.5690 C   0  0  0  0  0  0  0  0  0  0  0  0
  191.6500  175.8310  146.3240 N   0  0  0  0  0  0  0  0  0  0  0  0
  189.1020  176.1320  145.0990 C   0  0  0  0  0  0  0  0  0  0  0  0
  186.6560  176.2230  142.3010 C   0  0  0  0  0  3  0  0  0  0  0  0
  189.1490  172.4280  139.7970 C   0  0  0  0  0  0  0  0  0  0  0  0
  188.6500  173.1200  138.6920 C   0  0  0  0  0  3  0  0  0  0  0  0
  188.6760  174.3430  141.2250 C   0  0  0  0  0  0  0  0  0  0  0  0
  188.1740  174.4230  138.8430 C   0  0  0  0  0  3  0  0  0  0  0  0
  189.1670  173.0380  141.0540 C   0  0  0  0  0  3  0  0  0  0  0  0
  188.1910  175.0320  140.1010 C   0  0  0  0  0  3  0  0  0  0  0  0
  189.6190  171.1650  139.6510 F   0  0  0  0  0  0  0  0  0  0  0  0
  192.9880  175.7760  146.8870 C   0  0  0  0  0  2  0  0  0  0  0  0
  194.1240  176.8180  145.9190 S   0  0  0  0  0  0  0  0  0  0  0  0
  196.3190  174.0570  145.7540 N   0  0  0  0  0  1  0  0  0  0  0  0
  196.0410  175.2980  145.0530 C   0  0  2  0  0  3  0  0  0  0  0  0
  195.7080  176.0410  142.8280 C   0  0  0  0  0  2  0  0  0  0  0  0
  194.3690  175.8710  143.5100 C   0  0  0  0  0  2  0  0  0  0  0  0
  194.6000  175.4620  144.8930 N   0  0  0  0  0  0  0  0  0  0  0  0
  196.6630  175.2580  143.6800 C   0  0  0  0  0  2  0  0  0  0  0  0
  1 11  1  0  0  0  0
  1  8  2  0  0  0  0
  2  6  1  0  0  0  0
  2 14  2  0  0  0  0
  3  8  1  0  0  0  0
  3 18  2  0  0  0  0
  4 18  1  0  0  0  0
  4 10  2  0  0  0  0
  5  6  2  0  0  0  0
  7  9  2  0  0  0  0
  8  2  1  0  0  0  0
 10 17  1  0  0  0  0
 11  5  1  0  0  0  0
 12 19  1  1  0  0  0
 12  3  1  0  0  0  0
 13  1  1  0  0  0  0
 15  4  1  0  0  0  0
 16 12  1  0  0  0  0
 16 15  2  0  0  0  0
 17  9  1  0  0  0  0
 17 27  1  0  0  0  0
 18  7  1  0  0  0  0
 19 13  2  0  0  0  0
 20 24  1  0  0  0  0
 21 23  1  0  0  0  0
 21 20  2  0  0  0  0
 22 16  1  0  0  0  0
 23 25  2  0  0  0  0
 24 22  2  0  0  0  0
 25 22  1  0  0  0  0
 26 20  1  0  0  0  0
 28 27  1  0  0  0  0
 30 29  1  6  0  0  0
 31 32  1  0  0  0  0
 31 34  1  0  0  0  0
 32 33  1  0  0  0  0
 33 30  1  0  0  0  0
 33 28  1  0  0  0  0
 34 30  1  0  0  0  0
M  END
>  <MODEL>
7

>  <REMARK>
 VINA RESULT:      -7.9      3.377      7.204
  Name = 
  4 active torsions:
  status: ('A' for Active; 'I' for Inactive)
    1  A    between atoms: C_3  and  S_13
    2  A    between atoms: C_3  and  N_29
    3  A    between atoms: C_12  and  C_28
    4  A    between atoms: S_13  and  N_33
                            x       y       z     vdW  Elec       q    Type
                         _______ _______ _______ _____ _____    ______ ____

>  <TORSDO>
F 4

$$$$
=
 OpenBabel11052418583D

 34 39  0  0  1  0  0  0  0  0999 V2000
  187.6940  177.1830  146.1560 C   0  0  0  0  0  0  0  0  0  0  0  0
  186.4030  177.1140  144.0800 C   0  0  0  0  0  0  0  0  0  0  0  0
  188.7690  176.0710  144.2460 C   0  0  0  0  0  0  0  0  0  0  0  0
  189.9280  174.8660  142.4670 C   0  0  0  0  0  0  0  0  0  0  0  0
  185.2220  177.6220  146.0840 C   0  0  0  0  0  3  0  0  0  0  0  0
  185.1990  177.3430  144.8160 N   0  0  0  0  0  0  0  0  0  0  0  0
  187.4590  174.9000  142.4110 C   0  0  0  0  0  3  0  0  0  0  0  0
  187.6380  176.7420  144.8170 C   0  0  1  0  0  3  0  0  0  0  0  0
  187.4350  174.1120  141.3400 C   0  0  0  0  0  3  0  0  0  0  0  0
  189.9560  174.2050  141.1170 C   0  0  0  0  0  3  0  0  0  0  0  0
  186.5140  177.8340  146.8260 C   0  0  0  0  0  2  0  0  0  0  0  0
  190.0020  176.0920  144.9660 C   0  0  0  0  0  0  0  0  0  0  0  0
  188.8950  177.1460  146.8550 C   0  0  0  0  0  3  0  0  0  0  0  0
  186.4170  177.3400  142.8420 O   0  0  0  0  0  0  0  0  0  0  0  0
  191.0960  175.0150  143.1330 N   0  0  0  0  0  0  0  0  0  0  0  0
  191.1780  175.5700  144.3690 C   0  0  0  0  0  0  0  0  0  0  0  0
  188.6520  173.6710  140.7270 N   0  0  0  0  0  0  0  0  0  0  0  0
  188.7270  175.3400  143.0260 C   0  0  0  0  0  0  0  0  0  0  0  0
  190.0360  176.6330  146.2570 C   0  0  0  0  0  3  0  0  0  0  0  0
  194.5320  176.8540  145.5710 C   0  0  0  0  0  0  0  0  0  0  0  0
  195.0950  175.7100  146.1390 C   0  0  0  0  0  3  0  0  0  0  0  0
  192.5190  175.6020  145.0130 C   0  0  0  0  0  0  0  0  0  0  0  0
  194.3810  174.5090  146.1390 C   0  0  0  0  0  3  0  0  0  0  0  0
  193.2550  176.7990  145.0060 C   0  0  0  0  0  3  0  0  0  0  0  0
  193.1030  174.4560  145.5750 C   0  0  0  0  0  3  0  0  0  0  0  0
  195.2250  178.0180  145.5620 F   0  0  0  0  0  0  0  0  0  0  0  0
  188.5940  172.7230  139.6270 C   0  0  0  0  0  2  0  0  0  0  0  0
  188.5660  173.6040  138.0350 S   0  0  0  0  0  0  0  0  0  0  0  0
  190.8500  173.4410  135.3460 N   0  0  0  0  0  1  0  0  0  0  0  0
  189.8620  172.6140  136.0160 C   0  0  2  0  0  3  0  0  0  0  0  0
  189.6920  170.4230  136.9010 C   0  0  0  0  0  2  0  0  0  0  0  0
  189.9510  171.4030  138.0230 C   0  0  0  0  0  2  0  0  0  0  0  0
  190.0020  172.7510  137.4610 N   0  0  0  0  0  0  0  0  0  0  0  0
  190.0840  171.1660  135.6580 C   0  0  0  0  0  2  0  0  0  0  0  0
  1 11  1  0  0  0  0
  1 13  2  0  0  0  0
  2  6  1  0  0  0  0
  3  8  1  0  0  0  0
  3 12  1  0  0  0  0
  4 18  1  0  0  0  0
  4 15  1  0  0  0  0
  5 11  1  0  0  0  0
  6  5  2  0  0  0  0
  7 18  1  0  0  0  0
  8  2  1  6  0  0  0
  8  1  1  0  0  0  0
  9  7  2  0  0  0  0
 10  4  2  0  0  0  0
 12 19  2  0  0  0  0
 14  2  2  0  0  0  0
 15 16  2  0  0  0  0
 16 12  1  0  0  0  0
 16 22  1  0  0  0  0
 17 10  1  0  0  0  0
 17  9  1  0  0  0  0
 18  3  2  0  0  0  0
 19 13  1  0  0  0  0
 20 21  1  0  0  0  0
 22 25  2  0  0  0  0
 23 21  2  0  0  0  0
 24 22  1  0  0  0  0
 24 20  2  0  0  0  0
 25 23  1  0  0  0  0
 26 20  1  0  0  0  0
 27 17  1  0  0  0  0
 28 27  1  0  0  0  0
 30 29  1  6  0  0  0
 30 33  1  0  0  0  0
 31 32  1  0  0  0  0
 33 32  1  0  0  0  0
 33 28  1  0  0  0  0
 34 30  1  0  0  0  0
 34 31  1  0  0  0  0
M  END
>  <MODEL>
8

>  <REMARK>
 VINA RESULT:      -7.6      2.804      5.637
  Name = 
  4 active torsions:
  status: ('A' for Active; 'I' for Inactive)
    1  A    between atoms: C_3  and  S_13
    2  A    between atoms: C_3  and  N_29
    3  A    between atoms: C_12  and  C_28
    4  A    between atoms: S_13  and  N_33
                            x       y       z     vdW  Elec       q    Type
                         _______ _______ _______ _____ _____    ______ ____

>  <TORSDO>
F 4

$$$$
=
 OpenBabel11052418583D

 34 39  0  0  1  0  0  0  0  0999 V2000
  191.4160  172.1850  140.0400 C   0  0  0  0  0  0  0  0  0  0  0  0
  188.9980  172.5450  140.0080 C   0  0  0  0  0  0  0  0  0  0  0  0
  190.5710  174.0040  141.4610 C   0  0  0  0  0  0  0  0  0  0  0  0
  189.8900  175.8910  142.8510 C   0  0  0  0  0  0  0  0  0  0  0  0
  189.9310  171.2390  138.2500 C   0  0  0  0  0  3  0  0  0  0  0  0
  188.9070  171.8510  138.7610 N   0  0  0  0  0  0  0  0  0  0  0  0
  188.4650  175.3190  140.9160 C   0  0  0  0  0  3  0  0  0  0  0  0
  190.3350  172.9620  140.5050 C   0  0  1  0  0  3  0  0  0  0  0  0
  187.6610  176.3510  141.1550 C   0  0  0  0  0  3  0  0  0  0  0  0
  188.8700  176.8960  143.3120 C   0  0  0  0  0  3  0  0  0  0  0  0
  191.2370  171.1230  138.9890 C   0  0  0  0  0  2  0  0  0  0  0  0
  191.8470  174.0590  142.0990 C   0  0  0  0  0  0  0  0  0  0  0  0
  192.6640  172.2930  140.6440 C   0  0  0  0  0  3  0  0  0  0  0  0
  187.9610  172.6870  140.7070 O   0  0  0  0  0  0  0  0  0  0  0  0
  191.0710  175.8280  143.5070 N   0  0  0  0  0  0  0  0  0  0  0  0
  192.0700  174.9800  143.1540 C   0  0  0  0  0  0  0  0  0  0  0  0
  187.8840  177.2100  142.2790 N   0  0  0  0  0  0  0  0  0  0  0  0
  189.6270  175.0200  141.7780 C   0  0  0  0  0  0  0  0  0  0  0  0
  192.8660  173.1980  141.6740 C   0  0  0  0  0  3  0  0  0  0  0  0
  195.5110  176.1320  144.2380 C   0  0  0  0  0  0  0  0  0  0  0  0
  195.8030  175.2400  145.2720 C   0  0  0  0  0  3  0  0  0  0  0  0
  193.3420  175.0700  143.9200 C   0  0  0  0  0  0  0  0  0  0  0  0
  194.8770  174.2580  145.6280 C   0  0  0  0  0  3  0  0  0  0  0  0
  194.2910  176.0430  143.5620 C   0  0  0  0  0  3  0  0  0  0  0  0
  193.6570  174.1710  144.9520 C   0  0  0  0  0  3  0  0  0  0  0  0
  196.4120  177.0810  143.8860 F   0  0  0  0  0  0  0  0  0  0  0  0
  187.0560  178.3910  142.4500 C   0  0  0  0  0  2  0  0  0  0  0  0
  185.4130  177.9240  143.0770 S   0  0  0  0  0  0  0  0  0  0  0  0
  186.8720  176.4700  145.9450 N   0  0  0  0  0  1  0  0  0  0  0  0
  185.6160  177.0580  145.5150 C   0  0  2  0  0  3  0  0  0  0  0  0
  184.0590  178.6710  146.2830 C   0  0  0  0  0  2  0  0  0  0  0  0
  184.9600  179.2940  145.2400 C   0  0  0  0  0  2  0  0  0  0  0  0
  185.8760  178.2700  144.7450 N   0  0  0  0  0  0  0  0  0  0  0  0
  184.7920  177.4370  146.7200 C   0  0  0  0  0  2  0  0  0  0  0  0
  1  8  1  0  0  0  0
  1 13  2  0  0  0  0
  2 14  2  0  0  0  0
  3 18  2  0  0  0  0
  3 12  1  0  0  0  0
  4 10  2  0  0  0  0
  4 15  1  0  0  0  0
  5  6  2  0  0  0  0
  5 11  1  0  0  0  0
  6  2  1  0  0  0  0
  7  9  2  0  0  0  0
  7 18  1  0  0  0  0
  8  2  1  1  0  0  0
  8  3  1  0  0  0  0
  9 17  1  0  0  0  0
 11  1  1  0  0  0  0
 12 16  1  0  0  0  0
 13 19  1  0  0  0  0
 16 15  2  0  0  0  0
 16 22  1  0  0  0  0
 17 27  1  0  0  0  0
 17 10  1  0  0  0  0
 18  4  1  0  0  0  0
 19 12  2  0  0  0  0
 20 21  1  0  0  0  0
 21 23  2  0  0  0  0
 22 25  2  0  0  0  0
 24 22  1  0  0  0  0
 24 20  2  0  0  0  0
 25 23  1  0  0  0  0
 26 20  1  0  0  0  0
 27 28  1  0  0  0  0
 28 33  1  0  0  0  0
 30 29  1  1  0  0  0
 30 34  1  0  0  0  0
 31 34  1  0  0  0  0
 32 31  1  0  0  0  0
 33 32  1  0  0  0  0
 33 30  1  0  0  0  0
M  END
>  <MODEL>
9

>  <REMARK>
 VINA RESULT:      -7.5      3.347      8.183
  Name = 
  4 active torsions:
  status: ('A' for Active; 'I' for Inactive)
    1  A    between atoms: C_3  and  S_13
    2  A    between atoms: C_3  and  N_29
    3  A    between atoms: C_12  and  C_28
    4  A    between atoms: S_13  and  N_33
                            x       y       z     vdW  Elec       q    Type
                         _______ _______ _______ _____ _____    ______ ____

>  <TORSDO>
F 4

$$$$
