=
 OpenBabel11052419213D

 32 33  0  0  1  0  0  0  0  0999 V2000
  190.0790  176.4140  142.1520 O   0  0  0  0  0  0  0  0  0  0  0  0
  188.7350  176.0320  142.3460 C   0  0  2  0  0  3  0  0  0  0  0  0
  187.9720  177.0890  143.1470 C   0  0  1  0  0  3  0  0  0  0  0  0
  186.8890  178.0610  142.0310 S   0  0  0  0  0  0  0  0  0  0  0  0
  185.7270  177.5700  147.4080 C   0  0  0  0  0  2  0  0  0  0  0  0
  187.1700  176.4850  144.2610 C   0  0  0  0  0  3  0  0  0  0  0  0
  185.3700  179.4430  145.6830 C   0  0  0  0  0  2  0  0  0  0  0  0
  186.3510  178.7540  144.7380 C   0  0  2  0  0  3  0  0  0  0  0  0
  185.9120  178.9850  143.2940 C   0  0  0  0  0  2  0  0  0  0  0  0
  186.4240  177.2760  145.0330 C   0  0  0  0  0  0  0  0  0  0  0  0
  185.6790  179.0860  147.1390 C   0  0  0  0  0  2  0  0  0  0  0  0
  185.6190  176.6940  146.1540 C   0  0  0  0  0  2  0  0  0  0  0  0
  188.6590  174.7660  142.9480 O   0  0  0  0  0  0  0  0  0  0  0  0
  188.4420  173.8770  141.8920 C   0  0  1  0  0  3  0  0  0  0  0  0
  188.2530  174.6260  140.6610 N   0  0  0  0  0  1  0  0  0  0  0  0
  189.6500  171.9340  142.8740 C   0  0  0  0  0  1  0  0  0  0  0  0
  189.6420  172.9550  141.7530 C   0  0  0  0  0  2  0  0  0  0  0  0
  190.7460  176.0100  143.2240 O   0  0  0  0  0  0  0  0  0  0  0  0
  192.0000  175.5500  142.7820 C   0  0  1  0  0  3  0  0  0  0  0  0
  192.9200  176.6010  142.6810 O   0  0  0  0  0  1  0  0  0  0  0  0
  192.5250  174.4190  143.6290 C   0  0  0  0  0  0  0  0  0  0  0  0
  193.3030  173.6050  143.1570 O   0  0  0  0  0  0  0  0  0  0  0  0
  192.0950  174.2710  145.0620 C   0  0  0  0  0  2  0  0  0  0  0  0
  192.4470  175.4690  145.9470 C   0  0  1  0  0  3  0  0  0  0  0  0
  191.4730  175.6300  147.1120 C   0  0  0  0  0  2  0  0  0  0  0  0
  190.0620  175.8920  146.6090 C   0  0  0  0  0  3  0  0  0  0  0  0
  189.6500  177.3000  146.9870 C   0  0  0  0  0  1  0  0  0  0  0  0
  189.0810  174.9110  147.2230 C   0  0  0  0  0  1  0  0  0  0  0  0
  193.8900  175.4040  146.4350 C   0  0  0  0  0  2  0  0  0  0  0  0
  194.6440  177.6200  145.9810 O   0  0  0  0  0  0  0  0  0  0  0  0
  195.6280  175.9580  144.6900 N   0  0  0  0  0  1  0  0  0  0  0  0
  194.7370  176.3940  145.7100 C   0  0  0  0  0  0  0  0  0  0  0  0
  1 18  1  0  0  0  0
  2  1  1  1  0  0  0
  2 13  1  0  0  0  0
  3  2  1  6  0  0  0
  3  6  1  0  0  0  0
  4  3  1  0  0  0  0
  4  9  1  0  0  0  0
  6 10  2  0  0  0  0
  7 11  1  0  0  0  0
  8  9  1  6  0  0  0
  8 10  1  0  0  0  0
  8  7  1  0  0  0  0
 10 12  1  0  0  0  0
 11  5  1  0  0  0  0
 12  5  1  0  0  0  0
 14 15  1  6  0  0  0
 14 13  1  0  0  0  0
 17 14  1  0  0  0  0
 17 16  1  0  0  0  0
 19 20  1  1  0  0  0
 19 18  1  0  0  0  0
 19 21  1  0  0  0  0
 21 23  1  0  0  0  0
 22 21  2  0  0  0  0
 24 23  1  1  0  0  0
 24 29  1  0  0  0  0
 24 25  1  0  0  0  0
 26 27  1  0  0  0  0
 26 25  1  0  0  0  0
 26 28  1  0  0  0  0
 31 32  1  0  0  0  0
 32 30  2  0  0  0  0
 32 29  1  0  0  0  0
M  END
>  <MODEL>
1

>  <REMARK>
 VINA RESULT:      -6.3      0.000      0.000
  Name = 
  14 active torsions:
  status: ('A' for Active; 'I' for Inactive)
    1  A    between atoms: O_1  and  C_5
    2  A    between atoms: O_1  and  O_30
    3  A    between atoms: C_2  and  C_5
    4  A    between atoms: C_3  and  C_8
    5  A    between atoms: C_3  and  C_20
    6  A    between atoms: C_4  and  C_24
    7  A    between atoms: C_4  and  O_30
    8  A    between atoms: C_5  and  O_14
    9  A    between atoms: C_13  and  O_14
   10  A    between atoms: C_13  and  C_29
   11  A    between atoms: C_15  and  C_20
   12  A    between atoms: C_15  and  C_26
   13  A    between atoms: C_16  and  C_20
   14  A    between atoms: C_16  and  C_24
                            x       y       z     vdW  Elec       q    Type
                         _______ _______ _______ _____ _____    ______ ____

>  <TORSDO>
F 14

$$$$
=
 OpenBabel11052419213D

 32 33  0  0  1  0  0  0  0  0999 V2000
  187.7320  175.0930  142.6370 O   0  0  0  0  0  0  0  0  0  0  0  0
  188.6980  174.1480  142.2310 C   0  0  2  0  0  3  0  0  0  0  0  0
  189.7880  173.9840  143.2920 C   0  0  1  0  0  3  0  0  0  0  0  0
  190.3230  172.2320  143.3750 S   0  0  0  0  0  0  0  0  0  0  0  0
  193.6890  176.3150  144.9550 C   0  0  0  0  0  2  0  0  0  0  0  0
  190.9630  174.8800  143.0400 C   0  0  0  0  0  3  0  0  0  0  0  0
  193.3540  173.8910  145.7450 C   0  0  0  0  0  2  0  0  0  0  0  0
  192.0250  173.8360  144.9960 C   0  0  2  0  0  3  0  0  0  0  0  0
  191.8000  172.4230  144.4640 C   0  0  0  0  0  2  0  0  0  0  0  0
  192.0120  174.8310  143.8620 C   0  0  0  0  0  0  0  0  0  0  0  0
  193.6940  175.3300  146.1400 C   0  0  0  0  0  2  0  0  0  0  0  0
  193.1940  175.7200  143.6310 C   0  0  0  0  0  2  0  0  0  0  0  0
  189.2350  174.4910  140.9800 O   0  0  0  0  0  0  0  0  0  0  0  0
  188.5920  173.6500  140.0680 C   0  0  1  0  0  3  0  0  0  0  0  0
  188.2280  174.4110  138.8850 N   0  0  0  0  0  1  0  0  0  0  0  0
  190.9110  173.0570  139.3830 C   0  0  0  0  0  1  0  0  0  0  0  0
  189.5260  172.5160  139.6810 C   0  0  0  0  0  2  0  0  0  0  0  0
  188.3200  176.2800  142.5890 O   0  0  0  0  0  0  0  0  0  0  0  0
  187.3430  177.2100  142.1880 C   0  0  1  0  0  3  0  0  0  0  0  0
  186.7900  176.8630  140.9500 O   0  0  0  0  0  1  0  0  0  0  0  0
  186.2850  177.4160  143.2420 C   0  0  0  0  0  0  0  0  0  0  0  0
  185.1060  177.2440  142.9730 O   0  0  0  0  0  0  0  0  0  0  0  0
  186.6610  177.8430  144.6330 C   0  0  0  0  0  2  0  0  0  0  0  0
  186.4850  176.7500  145.6910 C   0  0  1  0  0  3  0  0  0  0  0  0
  187.6270  176.7400  146.7040 C   0  0  0  0  0  2  0  0  0  0  0  0
  188.8400  176.0080  146.1500 C   0  0  0  0  0  3  0  0  0  0  0  0
  189.1540  174.8190  147.0340 C   0  0  0  0  0  1  0  0  0  0  0  0
  190.0490  176.9240  146.1110 C   0  0  0  0  0  1  0  0  0  0  0  0
  185.1300  176.8490  146.3820 C   0  0  0  0  0  2  0  0  0  0  0  0
  185.2470  178.9380  147.5260 O   0  0  0  0  0  0  0  0  0  0  0  0
  183.7830  178.8790  145.7240 N   0  0  0  0  0  1  0  0  0  0  0  0
  184.7430  178.2750  146.5820 C   0  0  0  0  0  0  0  0  0  0  0  0
  2 13  1  6  0  0  0
  2  1  1  0  0  0  0
  3  2  1  6  0  0  0
  3  4  1  0  0  0  0
  4  9  1  0  0  0  0
  5 11  1  0  0  0  0
  6  3  1  0  0  0  0
  6 10  2  0  0  0  0
  7 11  1  0  0  0  0
  8  9  1  6  0  0  0
  8  7  1  0  0  0  0
 10  8  1  0  0  0  0
 12 10  1  0  0  0  0
 12  5  1  0  0  0  0
 14 15  1  6  0  0  0
 14 13  1  0  0  0  0
 16 17  1  0  0  0  0
 17 14  1  0  0  0  0
 18  1  1  0  0  0  0
 19 20  1  6  0  0  0
 19 18  1  0  0  0  0
 19 21  1  0  0  0  0
 21 23  1  0  0  0  0
 22 21  2  0  0  0  0
 24 23  1  6  0  0  0
 24 29  1  0  0  0  0
 24 25  1  0  0  0  0
 26 25  1  0  0  0  0
 26 27  1  0  0  0  0
 28 26  1  0  0  0  0
 29 32  1  0  0  0  0
 31 32  1  0  0  0  0
 32 30  2  0  0  0  0
M  END
>  <MODEL>
2

>  <REMARK>
 VINA RESULT:      -6.0      2.991      6.471
  Name = 
  14 active torsions:
  status: ('A' for Active; 'I' for Inactive)
    1  A    between atoms: O_1  and  C_5
    2  A    between atoms: O_1  and  O_30
    3  A    between atoms: C_2  and  C_5
    4  A    between atoms: C_3  and  C_8
    5  A    between atoms: C_3  and  C_20
    6  A    between atoms: C_4  and  C_24
    7  A    between atoms: C_4  and  O_30
    8  A    between atoms: C_5  and  O_14
    9  A    between atoms: C_13  and  O_14
   10  A    between atoms: C_13  and  C_29
   11  A    between atoms: C_15  and  C_20
   12  A    between atoms: C_15  and  C_26
   13  A    between atoms: C_16  and  C_20
   14  A    between atoms: C_16  and  C_24
                            x       y       z     vdW  Elec       q    Type
                         _______ _______ _______ _____ _____    ______ ____

>  <TORSDO>
F 14

$$$$
=
 OpenBabel11052419213D

 32 33  0  0  1  0  0  0  0  0999 V2000
  189.5430  177.5050  142.1540 O   0  0  0  0  0  0  0  0  0  0  0  0
  188.3190  176.8050  142.1750 C   0  0  2  0  0  3  0  0  0  0  0  0
  187.3020  177.5030  143.0810 C   0  0  1  0  0  3  0  0  0  0  0  0
  185.6770  177.6030  142.2370 S   0  0  0  0  0  0  0  0  0  0  0  0
  186.0320  177.6690  147.7480 C   0  0  0  0  0  2  0  0  0  0  0  0
  187.1630  176.8180  144.4080 C   0  0  0  0  0  3  0  0  0  0  0  0
  184.4310  178.7710  146.0640 C   0  0  0  0  0  2  0  0  0  0  0  0
  185.4150  178.4640  144.9370 C   0  0  2  0  0  3  0  0  0  0  0  0
  184.6410  178.1740  143.6530 C   0  0  0  0  0  2  0  0  0  0  0  0
  186.2890  177.2890  145.2980 C   0  0  0  0  0  0  0  0  0  0  0  0
  185.1630  178.8940  147.4030 C   0  0  0  0  0  2  0  0  0  0  0  0
  186.1370  176.6230  146.6310 C   0  0  0  0  0  2  0  0  0  0  0  0
  188.5170  175.4660  142.5480 O   0  0  0  0  0  0  0  0  0  0  0  0
  187.9070  174.7170  141.5390 C   0  0  1  0  0  3  0  0  0  0  0  0
  187.9880  175.4430  140.2820 N   0  0  0  0  0  1  0  0  0  0  0  0
  188.3160  172.7630  140.0510 C   0  0  0  0  0  1  0  0  0  0  0  0
  188.6150  173.3790  141.4050 C   0  0  0  0  0  2  0  0  0  0  0  0
  190.4490  176.7010  142.6950 O   0  0  0  0  0  0  0  0  0  0  0  0
  191.4820  177.5170  143.1920 C   0  0  1  0  0  3  0  0  0  0  0  0
  190.9840  178.4920  144.0640 O   0  0  0  0  0  1  0  0  0  0  0  0
  192.5940  176.7140  143.8170 C   0  0  0  0  0  0  0  0  0  0  0  0
  193.4790  176.2400  143.1210 O   0  0  0  0  0  0  0  0  0  0  0  0
  192.6280  176.4760  145.3000 C   0  0  0  0  0  2  0  0  0  0  0  0
  191.6350  175.4170  145.7870 C   0  0  1  0  0  3  0  0  0  0  0  0
  191.9950  174.0200  145.2900 C   0  0  0  0  0  2  0  0  0  0  0  0
  191.0420  173.5690  144.1930 C   0  0  0  0  0  3  0  0  0  0  0  0
  190.0650  172.5620  144.7630 C   0  0  0  0  0  1  0  0  0  0  0  0
  191.8030  172.9230  143.0510 C   0  0  0  0  0  1  0  0  0  0  0  0
  191.4810  175.4450  147.3030 C   0  0  0  0  0  2  0  0  0  0  0  0
  191.4810  177.3850  148.6890 O   0  0  0  0  0  0  0  0  0  0  0  0
  189.7500  177.2750  147.1440 N   0  0  0  0  0  1  0  0  0  0  0  0
  190.9250  176.7540  147.7530 C   0  0  0  0  0  0  0  0  0  0  0  0
  1 18  1  0  0  0  0
  2  1  1  1  0  0  0
  2 13  1  0  0  0  0
  3  2  1  6  0  0  0
  3  6  1  0  0  0  0
  4  3  1  0  0  0  0
  4  9  1  0  0  0  0
  6 10  2  0  0  0  0
  7 11  1  0  0  0  0
  8  9  1  6  0  0  0
  8 10  1  0  0  0  0
  8  7  1  0  0  0  0
 10 12  1  0  0  0  0
 11  5  1  0  0  0  0
 12  5  1  0  0  0  0
 14 15  1  6  0  0  0
 14 13  1  0  0  0  0
 16 17  1  0  0  0  0
 17 14  1  0  0  0  0
 18 19  1  0  0  0  0
 19 21  1  0  0  0  0
 19 20  1  1  0  0  0
 21 23  1  0  0  0  0
 22 21  2  0  0  0  0
 23 24  1  0  0  0  0
 24 25  1  1  0  0  0
 24 29  1  0  0  0  0
 26 27  1  0  0  0  0
 26 25  1  0  0  0  0
 28 26  1  0  0  0  0
 29 32  1  0  0  0  0
 31 32  1  0  0  0  0
 32 30  2  0  0  0  0
M  END
>  <MODEL>
3

>  <REMARK>
 VINA RESULT:      -5.9      1.832      2.608
  Name = 
  14 active torsions:
  status: ('A' for Active; 'I' for Inactive)
    1  A    between atoms: O_1  and  C_5
    2  A    between atoms: O_1  and  O_30
    3  A    between atoms: C_2  and  C_5
    4  A    between atoms: C_3  and  C_8
    5  A    between atoms: C_3  and  C_20
    6  A    between atoms: C_4  and  C_24
    7  A    between atoms: C_4  and  O_30
    8  A    between atoms: C_5  and  O_14
    9  A    between atoms: C_13  and  O_14
   10  A    between atoms: C_13  and  C_29
   11  A    between atoms: C_15  and  C_20
   12  A    between atoms: C_15  and  C_26
   13  A    between atoms: C_16  and  C_20
   14  A    between atoms: C_16  and  C_24
                            x       y       z     vdW  Elec       q    Type
                         _______ _______ _______ _____ _____    ______ ____

>  <TORSDO>
F 14

$$$$
=
 OpenBabel11052419213D

 32 33  0  0  1  0  0  0  0  0999 V2000
  189.7290  175.4590  143.0870 O   0  0  0  0  0  0  0  0  0  0  0  0
  188.6530  175.9850  142.3420 C   0  0  2  0  0  3  0  0  0  0  0  0
  187.9130  177.0670  143.1320 C   0  0  1  0  0  3  0  0  0  0  0  0
  186.8930  178.0840  141.9980 S   0  0  0  0  0  0  0  0  0  0  0  0
  185.5940  177.6130  147.3450 C   0  0  0  0  0  2  0  0  0  0  0  0
  187.0640  176.4880  144.2250 C   0  0  0  0  0  3  0  0  0  0  0  0
  185.3470  179.5070  145.6230 C   0  0  0  0  0  2  0  0  0  0  0  0
  186.3210  178.7850  144.6960 C   0  0  2  0  0  3  0  0  0  0  0  0
  185.9240  179.0390  143.2440 C   0  0  0  0  0  2  0  0  0  0  0  0
  186.3310  177.3040  144.9840 C   0  0  0  0  0  0  0  0  0  0  0  0
  185.6090  179.1310  147.0840 C   0  0  0  0  0  2  0  0  0  0  0  0
  185.4800  176.7480  146.0840 C   0  0  0  0  0  2  0  0  0  0  0  0
  187.7890  174.9610  141.9250 O   0  0  0  0  0  0  0  0  0  0  0  0
  188.6050  174.0550  141.2420 C   0  0  1  0  0  3  0  0  0  0  0  0
  188.2280  172.6990  141.6050 N   0  0  0  0  0  1  0  0  0  0  0  0
  188.4140  172.9090  139.0400 C   0  0  0  0  0  1  0  0  0  0  0  0
  188.4370  174.2520  139.7450 C   0  0  0  0  0  2  0  0  0  0  0  0
  190.7680  176.2520  142.8650 O   0  0  0  0  0  0  0  0  0  0  0  0
  191.9010  175.4270  142.7460 C   0  0  1  0  0  3  0  0  0  0  0  0
  192.0170  174.9070  141.4510 O   0  0  0  0  0  1  0  0  0  0  0  0
  193.1620  176.1210  143.1910 C   0  0  0  0  0  0  0  0  0  0  0  0
  194.1220  176.1960  142.4410 O   0  0  0  0  0  0  0  0  0  0  0  0
  193.2620  176.7240  144.5640 C   0  0  0  0  0  2  0  0  0  0  0  0
  193.3130  175.6940  145.6970 C   0  0  1  0  0  3  0  0  0  0  0  0
  194.7330  175.4780  146.2140 C   0  0  0  0  0  2  0  0  0  0  0  0
  195.4170  174.3410  145.4700 C   0  0  0  0  0  3  0  0  0  0  0  0
  194.4720  173.1600  145.3840 C   0  0  0  0  0  1  0  0  0  0  0  0
  196.6800  173.9090  146.1900 C   0  0  0  0  0  1  0  0  0  0  0  0
  192.3580  176.0550  146.8290 C   0  0  0  0  0  2  0  0  0  0  0  0
  190.5720  174.6070  146.1990 O   0  0  0  0  0  0  0  0  0  0  0  0
  190.0280  176.8630  146.2920 N   0  0  0  0  0  1  0  0  0  0  0  0
  190.9460  175.7850  146.4340 C   0  0  0  0  0  0  0  0  0  0  0  0
  2 13  1  1  0  0  0
  2  1  1  0  0  0  0
  3  2  1  6  0  0  0
  3  6  1  0  0  0  0
  4  3  1  0  0  0  0
  4  9  1  0  0  0  0
  6 10  2  0  0  0  0
  7 11  1  0  0  0  0
  8  9  1  6  0  0  0
  8 10  1  0  0  0  0
  8  7  1  0  0  0  0
 10 12  1  0  0  0  0
 11  5  1  0  0  0  0
 12  5  1  0  0  0  0
 14 15  1  6  0  0  0
 14 13  1  0  0  0  0
 16 17  1  0  0  0  0
 17 14  1  0  0  0  0
 18  1  1  0  0  0  0
 19 20  1  6  0  0  0
 19 18  1  0  0  0  0
 19 21  1  0  0  0  0
 21 23  1  0  0  0  0
 22 21  2  0  0  0  0
 24 23  1  6  0  0  0
 24 25  1  0  0  0  0
 24 29  1  0  0  0  0
 26 28  1  0  0  0  0
 26 25  1  0  0  0  0
 27 26  1  0  0  0  0
 30 32  2  0  0  0  0
 31 32  1  0  0  0  0
 32 29  1  0  0  0  0
M  END
>  <MODEL>
4

>  <REMARK>
 VINA RESULT:      -5.9      1.807      2.978
  Name = 
  14 active torsions:
  status: ('A' for Active; 'I' for Inactive)
    1  A    between atoms: O_1  and  C_5
    2  A    between atoms: O_1  and  O_30
    3  A    between atoms: C_2  and  C_5
    4  A    between atoms: C_3  and  C_8
    5  A    between atoms: C_3  and  C_20
    6  A    between atoms: C_4  and  C_24
    7  A    between atoms: C_4  and  O_30
    8  A    between atoms: C_5  and  O_14
    9  A    between atoms: C_13  and  O_14
   10  A    between atoms: C_13  and  C_29
   11  A    between atoms: C_15  and  C_20
   12  A    between atoms: C_15  and  C_26
   13  A    between atoms: C_16  and  C_20
   14  A    between atoms: C_16  and  C_24
                            x       y       z     vdW  Elec       q    Type
                         _______ _______ _______ _____ _____    ______ ____

>  <TORSDO>
F 14

$$$$
=
 OpenBabel11052419213D

 32 33  0  0  1  0  0  0  0  0999 V2000
  189.9480  176.9490  142.4690 O   0  0  0  0  0  0  0  0  0  0  0  0
  188.6990  176.2960  142.5270 C   0  0  2  0  0  3  0  0  0  0  0  0
  187.6740  177.1340  143.2940 C   0  0  1  0  0  3  0  0  0  0  0  0
  186.0870  177.1770  142.3770 S   0  0  0  0  0  0  0  0  0  0  0  0
  186.2380  177.9330  147.8460 C   0  0  0  0  0  2  0  0  0  0  0  0
  187.4610  176.6290  144.6900 C   0  0  0  0  0  3  0  0  0  0  0  0
  184.7420  178.8600  145.9710 C   0  0  0  0  0  2  0  0  0  0  0  0
  185.7550  178.3830  144.9340 C   0  0  2  0  0  3  0  0  0  0  0  0
  185.0200  177.9550  143.6650 C   0  0  0  0  0  2  0  0  0  0  0  0
  186.5720  177.2370  145.4760 C   0  0  0  0  0  0  0  0  0  0  0  0
  185.4270  179.1300  147.3130 C   0  0  0  0  0  2  0  0  0  0  0  0
  186.3470  176.7510  146.8750 C   0  0  0  0  0  2  0  0  0  0  0  0
  188.8350  175.0100  143.0720 O   0  0  0  0  0  0  0  0  0  0  0  0
  188.2200  174.1600  142.1500 C   0  0  1  0  0  3  0  0  0  0  0  0
  188.4650  174.6500  140.8030 N   0  0  0  0  0  1  0  0  0  0  0  0
  189.4420  172.5990  143.6560 C   0  0  0  0  0  1  0  0  0  0  0  0
  188.7870  172.7580  142.2970 C   0  0  0  0  0  2  0  0  0  0  0  0
  190.8050  176.1880  143.1360 O   0  0  0  0  0  0  0  0  0  0  0  0
  191.6510  177.0500  143.8570 C   0  0  1  0  0  3  0  0  0  0  0  0
  191.3820  178.3910  143.5580 O   0  0  0  0  0  1  0  0  0  0  0  0
  191.6100  176.7820  145.3400 C   0  0  0  0  0  0  0  0  0  0  0  0
  190.5560  176.8620  145.9510 O   0  0  0  0  0  0  0  0  0  0  0  0
  192.8620  176.4220  146.0880 C   0  0  0  0  0  2  0  0  0  0  0  0
  193.6360  175.2480  145.4830 C   0  0  1  0  0  3  0  0  0  0  0  0
  195.0910  175.2190  145.9430 C   0  0  0  0  0  2  0  0  0  0  0  0
  196.0400  175.3760  144.7640 C   0  0  0  0  0  3  0  0  0  0  0  0
  195.2950  176.0000  143.6030 C   0  0  0  0  0  1  0  0  0  0  0  0
  196.5870  174.0290  144.3310 C   0  0  0  0  0  1  0  0  0  0  0  0
  192.9430  173.9170  145.7510 C   0  0  0  0  0  2  0  0  0  0  0  0
  193.5450  171.8070  144.8180 O   0  0  0  0  0  0  0  0  0  0  0  0
  192.8980  173.4200  143.2770 N   0  0  0  0  0  1  0  0  0  0  0  0
  193.1390  172.9800  144.6080 C   0  0  0  0  0  0  0  0  0  0  0  0
  1 18  1  0  0  0  0
  2  1  1  1  0  0  0
  2 13  1  0  0  0  0
  3  2  1  6  0  0  0
  3  6  1  0  0  0  0
  4  3  1  0  0  0  0
  4  9  1  0  0  0  0
  6 10  2  0  0  0  0
  7 11  1  0  0  0  0
  8  9  1  6  0  0  0
  8 10  1  0  0  0  0
  8  7  1  0  0  0  0
 10 12  1  0  0  0  0
 11  5  1  0  0  0  0
 12  5  1  0  0  0  0
 14 15  1  6  0  0  0
 14 17  1  0  0  0  0
 14 13  1  0  0  0  0
 17 16  1  0  0  0  0
 18 19  1  0  0  0  0
 19 20  1  1  0  0  0
 19 21  1  0  0  0  0
 21 22  2  0  0  0  0
 21 23  1  0  0  0  0
 24 29  1  1  0  0  0
 24 25  1  0  0  0  0
 24 23  1  0  0  0  0
 26 25  1  0  0  0  0
 27 26  1  0  0  0  0
 28 26  1  0  0  0  0
 31 32  1  0  0  0  0
 32 30  2  0  0  0  0
 32 29  1  0  0  0  0
M  END
>  <MODEL>
5

>  <REMARK>
 VINA RESULT:      -5.8      1.699      3.058
  Name = 
  14 active torsions:
  status: ('A' for Active; 'I' for Inactive)
    1  A    between atoms: O_1  and  C_5
    2  A    between atoms: O_1  and  O_30
    3  A    between atoms: C_2  and  C_5
    4  A    between atoms: C_3  and  C_8
    5  A    between atoms: C_3  and  C_20
    6  A    between atoms: C_4  and  C_24
    7  A    between atoms: C_4  and  O_30
    8  A    between atoms: C_5  and  O_14
    9  A    between atoms: C_13  and  O_14
   10  A    between atoms: C_13  and  C_29
   11  A    between atoms: C_15  and  C_20
   12  A    between atoms: C_15  and  C_26
   13  A    between atoms: C_16  and  C_20
   14  A    between atoms: C_16  and  C_24
                            x       y       z     vdW  Elec       q    Type
                         _______ _______ _______ _____ _____    ______ ____

>  <TORSDO>
F 14

$$$$
=
 OpenBabel11052419213D

 32 33  0  0  1  0  0  0  0  0999 V2000
  188.8480  177.6950  146.0050 O   0  0  0  0  0  0  0  0  0  0  0  0
  187.5620  177.2510  145.6370 C   0  0  2  0  0  3  0  0  0  0  0  0
  187.5870  176.5670  144.2680 C   0  0  1  0  0  3  0  0  0  0  0  0
  187.7950  177.8200  142.9450 S   0  0  0  0  0  0  0  0  0  0  0  0
  189.3580  172.5800  142.1740 C   0  0  0  0  0  2  0  0  0  0  0  0
  188.6590  175.5240  144.1760 C   0  0  0  0  0  3  0  0  0  0  0  0
  188.4090  174.3920  140.6160 C   0  0  0  0  0  2  0  0  0  0  0  0
  187.9810  175.2070  141.8330 C   0  0  2  0  0  3  0  0  0  0  0  0
  188.0990  176.6960  141.5150 C   0  0  0  0  0  2  0  0  0  0  0  0
  188.8290  174.8600  143.0310 C   0  0  0  0  0  0  0  0  0  0  0  0
  188.4700  172.9010  140.9570 C   0  0  0  0  0  2  0  0  0  0  0  0
  189.8910  173.8100  142.9190 C   0  0  0  0  0  2  0  0  0  0  0  0
  186.6390  178.3070  145.6760 O   0  0  0  0  0  0  0  0  0  0  0  0
  185.8850  178.0860  146.8310 C   0  0  1  0  0  3  0  0  0  0  0  0
  185.9680  179.2540  147.6920 N   0  0  0  0  0  1  0  0  0  0  0  0
  183.9860  178.8400  145.4080 C   0  0  0  0  0  1  0  0  0  0  0  0
  184.4370  177.8330  146.4480 C   0  0  0  0  0  2  0  0  0  0  0  0
  189.0740  177.2320  147.2270 O   0  0  0  0  0  0  0  0  0  0  0  0
  190.4620  177.0260  147.3410 C   0  0  1  0  0  3  0  0  0  0  0  0
  190.9710  177.6310  148.4970 O   0  0  0  0  0  1  0  0  0  0  0  0
  190.8320  175.5670  147.2560 C   0  0  0  0  0  0  0  0  0  0  0  0
  189.9650  174.7090  147.2950 O   0  0  0  0  0  0  0  0  0  0  0  0
  192.2690  175.1470  147.1300 C   0  0  0  0  0  2  0  0  0  0  0  0
  193.0400  175.8800  146.0290 C   0  0  1  0  0  3  0  0  0  0  0  0
  194.5480  175.8510  146.2650 C   0  0  0  0  0  2  0  0  0  0  0  0
  195.2440  174.9750  145.2340 C   0  0  0  0  0  3  0  0  0  0  0  0
  196.1510  173.9910  145.9450 C   0  0  0  0  0  1  0  0  0  0  0  0
  196.0780  175.8170  144.2880 C   0  0  0  0  0  1  0  0  0  0  0  0
  192.6840  175.3520  144.6440 C   0  0  0  0  0  2  0  0  0  0  0  0
  191.6630  177.4300  144.0780 O   0  0  0  0  0  0  0  0  0  0  0  0
  192.9260  176.4580  142.3890 N   0  0  0  0  0  1  0  0  0  0  0  0
  192.3960  176.4760  143.7090 C   0  0  0  0  0  0  0  0  0  0  0  0
  1 18  1  0  0  0  0
  2 13  1  6  0  0  0
  2  1  1  0  0  0  0
  3  2  1  1  0  0  0
  4  3  1  0  0  0  0
  5 12  1  0  0  0  0
  6  3  1  0  0  0  0
  7 11  1  0  0  0  0
  8  7  1  6  0  0  0
  8 10  1  0  0  0  0
  9  8  1  0  0  0  0
  9  4  1  0  0  0  0
 10  6  2  0  0  0  0
 11  5  1  0  0  0  0
 12 10  1  0  0  0  0
 13 14  1  0  0  0  0
 14 15  1  1  0  0  0
 16 17  1  0  0  0  0
 17 14  1  0  0  0  0
 18 19  1  0  0  0  0
 19 20  1  1  0  0  0
 21 22  2  0  0  0  0
 21 19  1  0  0  0  0
 23 21  1  0  0  0  0
 24 29  1  6  0  0  0
 24 25  1  0  0  0  0
 24 23  1  0  0  0  0
 26 27  1  0  0  0  0
 26 25  1  0  0  0  0
 28 26  1  0  0  0  0
 31 32  1  0  0  0  0
 32 30  2  0  0  0  0
 32 29  1  0  0  0  0
M  END
>  <MODEL>
6

>  <REMARK>
 VINA RESULT:      -5.7      2.705      5.519
  Name = 
  14 active torsions:
  status: ('A' for Active; 'I' for Inactive)
    1  A    between atoms: O_1  and  C_5
    2  A    between atoms: O_1  and  O_30
    3  A    between atoms: C_2  and  C_5
    4  A    between atoms: C_3  and  C_8
    5  A    between atoms: C_3  and  C_20
    6  A    between atoms: C_4  and  C_24
    7  A    between atoms: C_4  and  O_30
    8  A    between atoms: C_5  and  O_14
    9  A    between atoms: C_13  and  O_14
   10  A    between atoms: C_13  and  C_29
   11  A    between atoms: C_15  and  C_20
   12  A    between atoms: C_15  and  C_26
   13  A    between atoms: C_16  and  C_20
   14  A    between atoms: C_16  and  C_24
                            x       y       z     vdW  Elec       q    Type
                         _______ _______ _______ _____ _____    ______ ____

>  <TORSDO>
F 14

$$$$
=
 OpenBabel11052419213D

 32 33  0  0  1  0  0  0  0  0999 V2000
  191.1370  177.1990  144.6180 O   0  0  0  0  0  0  0  0  0  0  0  0
  190.2260  176.8390  143.6040 C   0  0  2  0  0  3  0  0  0  0  0  0
  188.9080  177.6040  143.7500 C   0  0  1  0  0  3  0  0  0  0  0  0
  188.2250  177.9980  142.0940 S   0  0  0  0  0  0  0  0  0  0  0  0
  184.9340  177.6000  146.5110 C   0  0  0  0  0  2  0  0  0  0  0  0
  187.9030  176.8490  144.5670 C   0  0  0  0  0  3  0  0  0  0  0  0
  184.8740  179.0410  144.3820 C   0  0  0  0  0  2  0  0  0  0  0  0
  186.3310  178.6830  144.1050 C   0  0  2  0  0  3  0  0  0  0  0  0
  186.5570  178.6030  142.5970 C   0  0  0  0  0  2  0  0  0  0  0  0
  186.6910  177.3720  144.7580 C   0  0  0  0  0  0  0  0  0  0  0  0
  184.5710  178.9580  145.8810 C   0  0  0  0  0  2  0  0  0  0  0  0
  185.6730  176.6370  145.5740 C   0  0  0  0  0  2  0  0  0  0  0  0
  190.0230  175.4500  143.5870 O   0  0  0  0  0  0  0  0  0  0  0  0
  190.1920  175.0770  142.2510 C   0  0  1  0  0  3  0  0  0  0  0  0
  191.6010  174.8290  141.9940 N   0  0  0  0  0  1  0  0  0  0  0  0
  187.9070  174.1350  141.9490 C   0  0  0  0  0  1  0  0  0  0  0  0
  189.3900  173.8170  141.9730 C   0  0  0  0  0  2  0  0  0  0  0  0
  191.5330  176.0700  145.1910 O   0  0  0  0  0  0  0  0  0  0  0  0
  192.4450  176.4180  146.2040 C   0  0  1  0  0  3  0  0  0  0  0  0
  192.4610  175.4590  147.2240 O   0  0  0  0  0  1  0  0  0  0  0  0
  193.8250  176.6900  145.6610 C   0  0  0  0  0  0  0  0  0  0  0  0
  194.5200  177.5630  146.1550 O   0  0  0  0  0  0  0  0  0  0  0  0
  194.3620  175.8980  144.5020 C   0  0  0  0  0  2  0  0  0  0  0  0
  195.7660  175.3300  144.7300 C   0  0  1  0  0  3  0  0  0  0  0  0
  195.7940  174.3020  145.8580 C   0  0  0  0  0  2  0  0  0  0  0  0
  195.7050  172.8860  145.3080 C   0  0  0  0  0  3  0  0  0  0  0  0
  194.3350  172.3170  145.6120 C   0  0  0  0  0  1  0  0  0  0  0  0
  196.7580  171.9960  145.9390 C   0  0  0  0  0  1  0  0  0  0  0  0
  196.3590  174.7630  143.4460 C   0  0  0  0  0  2  0  0  0  0  0  0
  196.7580  175.7290  141.3040 O   0  0  0  0  0  0  0  0  0  0  0  0
  197.3880  177.0430  143.1130 N   0  0  0  0  0  1  0  0  0  0  0  0
  196.8300  175.8600  142.5530 C   0  0  0  0  0  0  0  0  0  0  0  0
  1 18  1  0  0  0  0
  2 13  1  1  0  0  0
  2  1  1  0  0  0  0
  3  2  1  6  0  0  0
  3  6  1  0  0  0  0
  4  9  1  0  0  0  0
  4  3  1  0  0  0  0
  6 10  2  0  0  0  0
  7 11  1  0  0  0  0
  8  9  1  6  0  0  0
  8  7  1  0  0  0  0
  8 10  1  0  0  0  0
 10 12  1  0  0  0  0
 11  5  1  0  0  0  0
 12  5  1  0  0  0  0
 14 15  1  1  0  0  0
 14 13  1  0  0  0  0
 16 17  1  0  0  0  0
 17 14  1  0  0  0  0
 18 19  1  0  0  0  0
 19 20  1  1  0  0  0
 21 22  2  0  0  0  0
 21 19  1  0  0  0  0
 23 24  1  0  0  0  0
 23 21  1  0  0  0  0
 24 29  1  6  0  0  0
 24 25  1  0  0  0  0
 26 27  1  0  0  0  0
 26 25  1  0  0  0  0
 26 28  1  0  0  0  0
 30 32  2  0  0  0  0
 32 31  1  0  0  0  0
 32 29  1  0  0  0  0
M  END
>  <MODEL>
7

>  <REMARK>
 VINA RESULT:      -5.7      2.190      3.539
  Name = 
  14 active torsions:
  status: ('A' for Active; 'I' for Inactive)
    1  A    between atoms: O_1  and  C_5
    2  A    between atoms: O_1  and  O_30
    3  A    between atoms: C_2  and  C_5
    4  A    between atoms: C_3  and  C_8
    5  A    between atoms: C_3  and  C_20
    6  A    between atoms: C_4  and  C_24
    7  A    between atoms: C_4  and  O_30
    8  A    between atoms: C_5  and  O_14
    9  A    between atoms: C_13  and  O_14
   10  A    between atoms: C_13  and  C_29
   11  A    between atoms: C_15  and  C_20
   12  A    between atoms: C_15  and  C_26
   13  A    between atoms: C_16  and  C_20
   14  A    between atoms: C_16  and  C_24
                            x       y       z     vdW  Elec       q    Type
                         _______ _______ _______ _____ _____    ______ ____

>  <TORSDO>
F 14

$$$$
=
 OpenBabel11052419213D

 32 33  0  0  1  0  0  0  0  0999 V2000
  190.3180  175.4870  145.4990 O   0  0  0  0  0  0  0  0  0  0  0  0
  189.3860  175.7590  144.4770 C   0  0  2  0  0  3  0  0  0  0  0  0
  188.0390  176.1920  145.0610 C   0  0  1  0  0  3  0  0  0  0  0  0
  188.0840  176.0800  146.8910 S   0  0  0  0  0  0  0  0  0  0  0  0
  184.6140  179.5340  144.3340 C   0  0  0  0  0  2  0  0  0  0  0  0
  187.6540  177.5760  144.6290 C   0  0  0  0  0  3  0  0  0  0  0  0
  184.4760  178.1760  146.5140 C   0  0  0  0  0  2  0  0  0  0  0  0
  185.6700  177.3390  146.0630 C   0  0  2  0  0  3  0  0  0  0  0  0
  186.5000  176.9410  147.2810 C   0  0  0  0  0  2  0  0  0  0  0  0
  186.5190  178.1090  145.0810 C   0  0  0  0  0  0  0  0  0  0  0  0
  183.7220  178.7390  145.3060 C   0  0  0  0  0  2  0  0  0  0  0  0
  186.1130  179.4880  144.6590 C   0  0  0  0  0  2  0  0  0  0  0  0
  189.2510  174.6560  143.6190 O   0  0  0  0  0  0  0  0  0  0  0  0
  189.4500  175.1700  142.3350 C   0  0  1  0  0  3  0  0  0  0  0  0
  190.5460  174.4600  141.6960 N   0  0  0  0  0  1  0  0  0  0  0  0
  187.6200  176.3510  141.1300 C   0  0  0  0  0  1  0  0  0  0  0  0
  188.1810  174.9970  141.5180 C   0  0  0  0  0  2  0  0  0  0  0  0
  191.3590  176.2790  145.2820 O   0  0  0  0  0  0  0  0  0  0  0  0
  192.2210  176.1400  146.3860 C   0  0  1  0  0  3  0  0  0  0  0  0
  191.5930  175.4630  147.4380 O   0  0  0  0  0  1  0  0  0  0  0  0
  193.5350  175.5050  146.0080 C   0  0  0  0  0  0  0  0  0  0  0  0
  194.5890  176.0220  146.3440 O   0  0  0  0  0  0  0  0  0  0  0  0
  193.5690  174.2330  145.2090 C   0  0  0  0  0  2  0  0  0  0  0  0
  194.6470  174.2060  144.1220 C   0  0  1  0  0  3  0  0  0  0  0  0
  195.5710  172.9980  144.2570 C   0  0  0  0  0  2  0  0  0  0  0  0
  196.9600  173.4220  144.7090 C   0  0  0  0  0  3  0  0  0  0  0  0
  197.0090  173.4400  146.2220 C   0  0  0  0  0  1  0  0  0  0  0  0
  197.2960  174.8070  144.1890 C   0  0  0  0  0  1  0  0  0  0  0  0
  194.0410  174.2890  142.7250 C   0  0  0  0  0  2  0  0  0  0  0  0
  193.1660  176.4960  142.5060 O   0  0  0  0  0  0  0  0  0  0  0  0
  195.1530  176.1030  141.3690 N   0  0  0  0  0  1  0  0  0  0  0  0
  194.0860  175.6880  142.2130 C   0  0  0  0  0  0  0  0  0  0  0  0
  2 13  1  1  0  0  0
  2  1  1  0  0  0  0
  3  2  1  6  0  0  0
  3  4  1  0  0  0  0
  4  9  1  0  0  0  0
  5 12  1  0  0  0  0
  5 11  1  0  0  0  0
  6  3  1  0  0  0  0
  6 10  2  0  0  0  0
  8  7  1  1  0  0  0
  8  9  1  0  0  0  0
 10  8  1  0  0  0  0
 11  7  1  0  0  0  0
 12 10  1  0  0  0  0
 14 15  1  6  0  0  0
 14 13  1  0  0  0  0
 16 17  1  0  0  0  0
 17 14  1  0  0  0  0
 18  1  1  0  0  0  0
 18 19  1  0  0  0  0
 19 20  1  1  0  0  0
 21 22  2  0  0  0  0
 21 19  1  0  0  0  0
 23 21  1  0  0  0  0
 24 29  1  6  0  0  0
 24 25  1  0  0  0  0
 24 23  1  0  0  0  0
 25 26  1  0  0  0  0
 26 27  1  0  0  0  0
 28 26  1  0  0  0  0
 31 32  1  0  0  0  0
 32 30  2  0  0  0  0
 32 29  1  0  0  0  0
M  END
>  <MODEL>
8

>  <REMARK>
 VINA RESULT:      -5.6      2.295      4.060
  Name = 
  14 active torsions:
  status: ('A' for Active; 'I' for Inactive)
    1  A    between atoms: O_1  and  C_5
    2  A    between atoms: O_1  and  O_30
    3  A    between atoms: C_2  and  C_5
    4  A    between atoms: C_3  and  C_8
    5  A    between atoms: C_3  and  C_20
    6  A    between atoms: C_4  and  C_24
    7  A    between atoms: C_4  and  O_30
    8  A    between atoms: C_5  and  O_14
    9  A    between atoms: C_13  and  O_14
   10  A    between atoms: C_13  and  C_29
   11  A    between atoms: C_15  and  C_20
   12  A    between atoms: C_15  and  C_26
   13  A    between atoms: C_16  and  C_20
   14  A    between atoms: C_16  and  C_24
                            x       y       z     vdW  Elec       q    Type
                         _______ _______ _______ _____ _____    ______ ____

>  <TORSDO>
F 14

$$$$
=
 OpenBabel11052419213D

 32 33  0  0  1  0  0  0  0  0999 V2000
  187.6570  177.6040  143.6350 O   0  0  0  0  0  0  0  0  0  0  0  0
  187.6000  177.9280  145.0060 C   0  0  2  0  0  3  0  0  0  0  0  0
  188.8370  177.4120  145.7450 C   0  0  1  0  0  3  0  0  0  0  0  0
  188.4020  175.9330  146.7380 S   0  0  0  0  0  0  0  0  0  0  0  0
  193.5750  176.7720  144.9950 C   0  0  0  0  0  2  0  0  0  0  0  0
  189.9670  177.1020  144.8100 C   0  0  0  0  0  3  0  0  0  0  0  0
  192.5690  175.6850  147.0970 C   0  0  0  0  0  2  0  0  0  0  0  0
  191.2210  176.3240  146.7770 C   0  0  2  0  0  3  0  0  0  0  0  0
  190.0980  175.3900  147.2220 C   0  0  0  0  0  2  0  0  0  0  0  0
  191.1060  176.6130  145.3000 C   0  0  0  0  0  0  0  0  0  0  0  0
  193.7150  176.5120  146.5070 C   0  0  0  0  0  2  0  0  0  0  0  0
  192.2490  176.3010  144.3840 C   0  0  0  0  0  2  0  0  0  0  0  0
  186.4120  177.4510  145.5810 O   0  0  0  0  0  0  0  0  0  0  0  0
  185.7550  178.5910  146.0500 C   0  0  1  0  0  3  0  0  0  0  0  0
  184.4840  178.7340  145.3570 N   0  0  0  0  0  1  0  0  0  0  0  0
  186.6750  179.0520  148.3170 C   0  0  0  0  0  1  0  0  0  0  0  0
  185.5130  178.4580  147.5430 C   0  0  0  0  0  2  0  0  0  0  0  0
  186.9070  176.5220  143.4690 O   0  0  0  0  0  0  0  0  0  0  0  0
  187.0740  176.1040  142.1360 C   0  0  1  0  0  3  0  0  0  0  0  0
  187.1580  177.1980  141.2670 O   0  0  0  0  0  1  0  0  0  0  0  0
  188.2410  175.1630  141.9750 C   0  0  0  0  0  0  0  0  0  0  0  0
  189.3700  175.6020  141.8230 O   0  0  0  0  0  0  0  0  0  0  0  0
  188.0340  173.6750  141.9910 C   0  0  0  0  0  2  0  0  0  0  0  0
  189.2840  172.8650  141.6380 C   0  0  1  0  0  3  0  0  0  0  0  0
  189.5370  171.7330  142.6310 C   0  0  0  0  0  2  0  0  0  0  0  0
  190.6290  172.1090  143.6200 C   0  0  0  0  0  3  0  0  0  0  0  0
  190.0120  172.8410  144.7930 C   0  0  0  0  0  1  0  0  0  0  0  0
  191.6610  173.0080  142.9660 C   0  0  0  0  0  1  0  0  0  0  0  0
  189.2330  172.3470  140.2050 C   0  0  0  0  0  2  0  0  0  0  0  0
  190.8150  173.6220  138.9580 O   0  0  0  0  0  0  0  0  0  0  0  0
  191.4940  171.4690  139.5070 N   0  0  0  0  0  1  0  0  0  0  0  0
  190.5500  172.5330  139.5300 C   0  0  0  0  0  0  0  0  0  0  0  0
  2  1  1  6  0  0  0
  2 13  1  0  0  0  0
  3  2  1  6  0  0  0
  3  4  1  0  0  0  0
  4  9  1  0  0  0  0
  5 11  1  0  0  0  0
  6 10  2  0  0  0  0
  6  3  1  0  0  0  0
  8  7  1  6  0  0  0
  8  9  1  0  0  0  0
 10  8  1  0  0  0  0
 11  7  1  0  0  0  0
 12  5  1  0  0  0  0
 12 10  1  0  0  0  0
 13 14  1  0  0  0  0
 14 15  1  6  0  0  0
 14 17  1  0  0  0  0
 17 16  1  0  0  0  0
 18  1  1  0  0  0  0
 19 20  1  6  0  0  0
 19 18  1  0  0  0  0
 21 23  1  0  0  0  0
 21 19  1  0  0  0  0
 22 21  2  0  0  0  0
 24 29  1  6  0  0  0
 24 23  1  0  0  0  0
 24 25  1  0  0  0  0
 25 26  1  0  0  0  0
 26 27  1  0  0  0  0
 28 26  1  0  0  0  0
 30 32  2  0  0  0  0
 31 32  1  0  0  0  0
 32 29  1  0  0  0  0
M  END
>  <MODEL>
9

>  <REMARK>
 VINA RESULT:      -5.5      2.804      6.357
  Name = 
  14 active torsions:
  status: ('A' for Active; 'I' for Inactive)
    1  A    between atoms: O_1  and  C_5
    2  A    between atoms: O_1  and  O_30
    3  A    between atoms: C_2  and  C_5
    4  A    between atoms: C_3  and  C_8
    5  A    between atoms: C_3  and  C_20
    6  A    between atoms: C_4  and  C_24
    7  A    between atoms: C_4  and  O_30
    8  A    between atoms: C_5  and  O_14
    9  A    between atoms: C_13  and  O_14
   10  A    between atoms: C_13  and  C_29
   11  A    between atoms: C_15  and  C_20
   12  A    between atoms: C_15  and  C_26
   13  A    between atoms: C_16  and  C_20
   14  A    between atoms: C_16  and  C_24
                            x       y       z     vdW  Elec       q    Type
                         _______ _______ _______ _____ _____    ______ ____

>  <TORSDO>
F 14

$$$$
