=
 OpenBabel11052421253D

 32 37  0  0  0  0  0  0  0  0999 V2000
  192.9010  176.3410  146.9210 C   0  0  0  0  0  3  0  0  0  0  0  0
  188.5880  177.2320  144.4210 C   0  0  0  0  0  0  0  0  0  0  0  0
  185.4010  178.2290  147.9960 C   0  0  0  0  0  3  0  0  0  0  0  0
  184.3920  178.4150  147.0520 C   0  0  0  0  0  3  0  0  0  0  0  0
  187.8200  177.2700  142.0470 C   0  0  0  0  0  0  0  0  0  0  0  0
  186.7650  177.4710  141.1650 C   0  0  0  0  0  0  0  0  0  0  0  0
  190.9030  176.7070  144.9990 C   0  0  0  0  0  0  0  0  0  0  0  0
  189.3120  177.2030  146.7560 C   0  0  0  0  0  3  0  0  0  0  0  0
  184.7170  177.9280  140.5250 N   0  0  0  0  0  0  0  0  0  0  0  0
  191.6060  176.6810  147.3230 C   0  0  0  0  0  3  0  0  0  0  0  0
  186.6880  177.8910  147.5820 C   0  0  0  0  0  3  0  0  0  0  0  0
  188.2930  177.3910  145.8020 C   0  0  0  0  0  0  0  0  0  0  0  0
  186.9910  177.7320  146.2160 C   0  0  0  0  0  0  0  0  0  0  0  0
  186.2460  177.7680  143.8830 C   0  0  0  0  0  0  0  0  0  0  0  0
  185.4230  177.6880  139.4270 N   0  0  0  0  0  0  0  0  0  0  0  0
  193.2030  176.1830  145.5590 C   0  0  0  0  0  0  0  0  0  0  0  0
  190.6050  176.8650  146.3660 C   0  0  0  0  0  0  0  0  0  0  0  0
  186.7020  177.4000  139.7840 C   0  0  0  0  0  3  0  0  0  0  0  0
  192.1990  176.3670  144.6020 C   0  0  0  0  0  3  0  0  0  0  0  0
  184.6740  178.2620  145.6950 C   0  0  0  0  0  3  0  0  0  0  0  0
  185.9670  177.9200  145.2570 C   0  0  0  0  0  0  0  0  0  0  0  0
  185.2150  177.9580  142.9340 C   0  0  0  0  0  3  0  0  0  0  0  0
  189.9020  176.8890  144.0480 C   0  0  0  0  0  3  0  0  0  0  0  0
  189.0380  176.9430  141.5440 F   0  0  0  0  0  0  0  0  0  0  0  0
  183.3050  178.2710  140.5280 C   0  0  0  0  0  1  0  0  0  0  0  0
  187.5710  177.4180  143.4470 C   0  0  0  0  0  0  0  0  0  0  0  0
  185.5200  177.8000  141.5900 C   0  0  0  0  0  0  0  0  0  0  0  0
  194.5210  175.8360  145.1280 N   0  0  0  0  0  2  0  0  0  0  0  0
  194.9590  175.9600  143.7460 C   0  0  0  0  0  2  0  0  0  0  0  0
  196.4440  176.0190  143.6970 C   0  0  0  0  0  0  0  0  0  0  0  0
  197.1960  174.9360  144.1320 O   0  0  0  0  0  1  0  0  0  0  0  0
  197.0180  177.0360  143.2290 O   0  0  0  0  0  0  0  0  0  0  0  0
  1 10  1  0  0  0  0
  2 12  1  0  0  0  0
  4  3  2  0  0  0  0
  5 26  1  0  0  0  0
  6 27  1  0  0  0  0
  6  5  2  0  0  0  0
  7 17  1  0  0  0  0
  9 25  1  0  0  0  0
  9 27  1  0  0  0  0
 11  3  1  0  0  0  0
 12 13  1  0  0  0  0
 12  8  2  0  0  0  0
 13 11  2  0  0  0  0
 14 21  1  0  0  0  0
 15 18  2  0  0  0  0
 15  9  1  0  0  0  0
 16  1  2  0  0  0  0
 17  8  1  0  0  0  0
 17 10  2  0  0  0  0
 18  6  1  0  0  0  0
 19  7  2  0  0  0  0
 19 16  1  0  0  0  0
 20  4  1  0  0  0  0
 21 20  2  0  0  0  0
 21 13  1  0  0  0  0
 22 14  1  0  0  0  0
 23  2  2  0  0  0  0
 23  7  1  0  0  0  0
 24  5  1  0  0  0  0
 26 14  2  0  0  0  0
 26  2  1  0  0  0  0
 27 22  2  0  0  0  0
 28 16  1  0  0  0  0
 29 28  1  0  0  0  0
 30 29  1  0  0  0  0
 30 31  1  0  0  0  0
 32 30  2  0  0  0  0
M  END
>  <MODEL>
1

>  <REMARK>
 VINA RESULT:     -10.0      0.000      0.000
  Name = 
  3 active torsions:
  status: ('A' for Active; 'I' for Inactive)
    1  A    between atoms: C_1  and  C_10
    2  A    between atoms: C_10  and  N_24
    3  A    between atoms: C_19  and  N_24
                            x       y       z     vdW  Elec       q    Type
                         _______ _______ _______ _____ _____    ______ ____

>  <TORSDO>
F 3

$$$$
=
 OpenBabel11052421253D

 32 37  0  0  0  0  0  0  0  0999 V2000
  192.3840  175.0350  147.1600 C   0  0  0  0  0  3  0  0  0  0  0  0
  188.3820  176.6100  144.4880 C   0  0  0  0  0  0  0  0  0  0  0  0
  185.2650  178.1480  147.9310 C   0  0  0  0  0  3  0  0  0  0  0  0
  184.3400  178.4910  146.9470 C   0  0  0  0  0  3  0  0  0  0  0  0
  187.7260  176.7580  142.0850 C   0  0  0  0  0  0  0  0  0  0  0  0
  186.7540  177.1250  141.1610 C   0  0  0  0  0  0  0  0  0  0  0  0
  190.5530  175.7130  145.1590 C   0  0  0  0  0  0  0  0  0  0  0  0
  188.9980  176.4780  146.8500 C   0  0  0  0  0  3  0  0  0  0  0  0
  184.8370  177.9100  140.4390 N   0  0  0  0  0  0  0  0  0  0  0  0
  191.1490  175.5880  147.5090 C   0  0  0  0  0  3  0  0  0  0  0  0
  186.4940  177.5980  147.5690 C   0  0  0  0  0  3  0  0  0  0  0  0
  188.0630  176.8260  145.8560 C   0  0  0  0  0  0  0  0  0  0  0  0
  186.8200  177.3810  146.2160 C   0  0  0  0  0  0  0  0  0  0  0  0
  186.1840  177.5230  143.8560 C   0  0  0  0  0  0  0  0  0  0  0  0
  185.5370  177.5490  139.3710 N   0  0  0  0  0  0  0  0  0  0  0  0
  192.7100  174.8190  145.8110 C   0  0  0  0  0  0  0  0  0  0  0  0
  190.2310  175.9280  146.5130 C   0  0  0  0  0  0  0  0  0  0  0  0
  186.7350  177.0550  139.7780 C   0  0  0  0  0  3  0  0  0  0  0  0
  191.7890  175.1600  144.8150 C   0  0  0  0  0  3  0  0  0  0  0  0
  184.6450  178.2840  145.6020 C   0  0  0  0  0  3  0  0  0  0  0  0
  185.8810  177.7300  145.2170 C   0  0  0  0  0  0  0  0  0  0  0  0
  185.2370  177.8740  142.8650 C   0  0  0  0  0  3  0  0  0  0  0  0
  189.6340  176.0520  144.1680 C   0  0  0  0  0  3  0  0  0  0  0  0
  188.8920  176.2300  141.6320 F   0  0  0  0  0  0  0  0  0  0  0  0
  183.5030  178.4830  140.3850 C   0  0  0  0  0  1  0  0  0  0  0  0
  187.4490  176.9550  143.4740 C   0  0  0  0  0  0  0  0  0  0  0  0
  185.5650  177.6590  141.5350 C   0  0  0  0  0  0  0  0  0  0  0  0
  193.9680  174.2550  145.4340 N   0  0  0  0  0  2  0  0  0  0  0  0
  194.1050  173.2620  144.3790 C   0  0  0  0  0  2  0  0  0  0  0  0
  193.6550  171.9370  144.8810 C   0  0  0  0  0  0  0  0  0  0  0  0
  194.3390  171.3200  145.9210 O   0  0  0  0  0  1  0  0  0  0  0  0
  192.6340  171.3900  144.3890 O   0  0  0  0  0  0  0  0  0  0  0  0
  1 10  1  0  0  0  0
  2 12  1  0  0  0  0
  4  3  2  0  0  0  0
  5 26  1  0  0  0  0
  6 27  1  0  0  0  0
  6  5  2  0  0  0  0
  7 17  1  0  0  0  0
  9 27  1  0  0  0  0
 11  3  1  0  0  0  0
 12 13  1  0  0  0  0
 12  8  2  0  0  0  0
 13 11  2  0  0  0  0
 14 21  1  0  0  0  0
 15 18  2  0  0  0  0
 15  9  1  0  0  0  0
 16  1  2  0  0  0  0
 17  8  1  0  0  0  0
 17 10  2  0  0  0  0
 18  6  1  0  0  0  0
 19  7  2  0  0  0  0
 19 16  1  0  0  0  0
 20  4  1  0  0  0  0
 21 20  2  0  0  0  0
 21 13  1  0  0  0  0
 22 14  1  0  0  0  0
 23  2  2  0  0  0  0
 23  7  1  0  0  0  0
 24  5  1  0  0  0  0
 25  9  1  0  0  0  0
 26 14  2  0  0  0  0
 26  2  1  0  0  0  0
 27 22  2  0  0  0  0
 28 16  1  0  0  0  0
 29 30  1  0  0  0  0
 29 28  1  0  0  0  0
 30 31  1  0  0  0  0
 32 30  2  0  0  0  0
M  END
>  <MODEL>
2

>  <REMARK>
 VINA RESULT:      -9.3      1.854      1.997
  Name = 
  3 active torsions:
  status: ('A' for Active; 'I' for Inactive)
    1  A    between atoms: C_1  and  C_10
    2  A    between atoms: C_10  and  N_24
    3  A    between atoms: C_19  and  N_24
                            x       y       z     vdW  Elec       q    Type
                         _______ _______ _______ _____ _____    ______ ____

>  <TORSDO>
F 3

$$$$
=
 OpenBabel11052421253D

 32 37  0  0  0  0  0  0  0  0999 V2000
  184.4080  179.3630  144.6900 C   0  0  0  0  0  3  0  0  0  0  0  0
  188.0870  175.9650  143.9440 C   0  0  0  0  0  0  0  0  0  0  0  0
  191.1000  176.7220  147.7240 C   0  0  0  0  0  3  0  0  0  0  0  0
  191.9410  175.7110  147.2620 C   0  0  0  0  0  3  0  0  0  0  0  0
  188.6380  174.1970  142.2720 C   0  0  0  0  0  0  0  0  0  0  0  0
  189.5240  173.2030  141.8730 C   0  0  0  0  0  0  0  0  0  0  0  0
  186.0710  177.3280  143.7350 C   0  0  0  0  0  0  0  0  0  0  0  0
  187.5730  177.6890  145.5990 C   0  0  0  0  0  3  0  0  0  0  0  0
  191.3010  171.9190  141.9560 N   0  0  0  0  0  0  0  0  0  0  0  0
  185.5750  179.0370  145.3870 C   0  0  0  0  0  3  0  0  0  0  0  0
  189.9390  177.0370  147.0190 C   0  0  0  0  0  3  0  0  0  0  0  0
  188.4230  176.6670  145.1330 C   0  0  0  0  0  0  0  0  0  0  0  0
  189.5970  176.3460  145.8410 C   0  0  0  0  0  0  0  0  0  0  0  0
  190.1300  174.6130  144.1950 C   0  0  0  0  0  0  0  0  0  0  0  0
  190.6170  171.5670  140.8750 N   0  0  0  0  0  0  0  0  0  0  0  0
  184.0670  178.6740  143.5150 C   0  0  0  0  0  0  0  0  0  0  0  0
  186.4080  178.0210  144.9130 C   0  0  0  0  0  0  0  0  0  0  0  0
  189.5040  172.3430  140.7890 C   0  0  0  0  0  3  0  0  0  0  0  0
  184.9030  177.6570  143.0420 C   0  0  0  0  0  3  0  0  0  0  0  0
  191.6190  175.0160  146.0970 C   0  0  0  0  0  3  0  0  0  0  0  0
  190.4510  175.3190  145.3720 C   0  0  0  0  0  0  0  0  0  0  0  0
  190.9910  173.5890  143.7350 C   0  0  0  0  0  3  0  0  0  0  0  0
  186.9050  176.3160  143.2650 C   0  0  0  0  0  3  0  0  0  0  0  0
  187.5330  174.4280  141.5170 F   0  0  0  0  0  0  0  0  0  0  0  0
  192.5490  171.3020  142.3680 C   0  0  0  0  0  1  0  0  0  0  0  0
  188.9340  174.9320  143.4620 C   0  0  0  0  0  0  0  0  0  0  0  0
  190.6480  172.9130  142.5740 C   0  0  0  0  0  0  0  0  0  0  0  0
  182.8780  178.9920  142.7880 N   0  0  0  0  0  2  0  0  0  0  0  0
  182.4790  178.2910  141.5780 C   0  0  0  0  0  2  0  0  0  0  0  0
  181.0620  178.6090  141.2600 C   0  0  0  0  0  0  0  0  0  0  0  0
  180.7550  179.7390  140.5130 O   0  0  0  0  0  0  0  0  0  0  0  0
  180.1440  177.8370  141.6380 O   0  0  0  0  0  1  0  0  0  0  0  0
  1 10  1  0  0  0  0
  2 12  1  0  0  0  0
  4  3  1  0  0  0  0
  5 26  1  0  0  0  0
  6  5  2  0  0  0  0
  6 27  1  0  0  0  0
  7 17  1  0  0  0  0
  9 25  1  0  0  0  0
  9 27  1  0  0  0  0
 11  3  2  0  0  0  0
 12  8  2  0  0  0  0
 12 13  1  0  0  0  0
 13 11  1  0  0  0  0
 14 21  1  0  0  0  0
 15  9  1  0  0  0  0
 16  1  2  0  0  0  0
 17 10  2  0  0  0  0
 17  8  1  0  0  0  0
 18 15  2  0  0  0  0
 18  6  1  0  0  0  0
 19 16  1  0  0  0  0
 19  7  2  0  0  0  0
 20  4  2  0  0  0  0
 21 13  2  0  0  0  0
 21 20  1  0  0  0  0
 22 14  1  0  0  0  0
 23  7  1  0  0  0  0
 23  2  2  0  0  0  0
 24  5  1  0  0  0  0
 26  2  1  0  0  0  0
 26 14  2  0  0  0  0
 27 22  2  0  0  0  0
 28 16  1  0  0  0  0
 29 28  1  0  0  0  0
 30 29  1  0  0  0  0
 30 32  1  0  0  0  0
 31 30  2  0  0  0  0
M  END
>  <MODEL>
3

>  <REMARK>
 VINA RESULT:      -8.8      5.085      8.321
  Name = 
  3 active torsions:
  status: ('A' for Active; 'I' for Inactive)
    1  A    between atoms: C_1  and  C_10
    2  A    between atoms: C_10  and  N_24
    3  A    between atoms: C_19  and  N_24
                            x       y       z     vdW  Elec       q    Type
                         _______ _______ _______ _____ _____    ______ ____

>  <TORSDO>
F 3

$$$$
=
 OpenBabel11052421253D

 32 37  0  0  0  0  0  0  0  0999 V2000
  186.7240  177.8440  147.2510 C   0  0  0  0  0  3  0  0  0  0  0  0
  190.0900  175.6470  144.1710 C   0  0  0  0  0  0  0  0  0  0  0  0
  194.3270  176.2130  146.5490 C   0  0  0  0  0  3  0  0  0  0  0  0
  194.9990  175.5540  145.5210 C   0  0  0  0  0  3  0  0  0  0  0  0
  190.0660  174.4770  141.9670 C   0  0  0  0  0  0  0  0  0  0  0  0
  190.8030  173.8300  140.9810 C   0  0  0  0  0  0  0  0  0  0  0  0
  188.0370  176.5170  145.1690 C   0  0  0  0  0  0  0  0  0  0  0  0
  190.1430  176.7880  146.3320 C   0  0  0  0  0  3  0  0  0  0  0  0
  192.5780  173.0080  139.9880 N   0  0  0  0  0  0  0  0  0  0  0  0
  188.1070  177.6490  147.3160 C   0  0  0  0  0  3  0  0  0  0  0  0
  192.9480  176.4000  146.4720 C   0  0  0  0  0  3  0  0  0  0  0  0
  190.8210  176.1220  145.2930 C   0  0  0  0  0  0  0  0  0  0  0  0
  192.2140  175.9320  145.3660 C   0  0  0  0  0  0  0  0  0  0  0  0
  192.1830  174.7840  143.2020 C   0  0  0  0  0  0  0  0  0  0  0  0
  191.5400  172.7590  139.1990 N   0  0  0  0  0  0  0  0  0  0  0  0
  185.9920  177.3770  146.1470 C   0  0  0  0  0  0  0  0  0  0  0  0
  188.7660  176.9870  146.2770 C   0  0  0  0  0  0  0  0  0  0  0  0
  190.4180  173.2550  139.7830 C   0  0  0  0  0  3  0  0  0  0  0  0
  186.6550  176.7140  145.1080 C   0  0  0  0  0  3  0  0  0  0  0  0
  194.2880  175.0830  144.4160 C   0  0  0  0  0  3  0  0  0  0  0  0
  192.8950  175.2630  144.3200 C   0  0  0  0  0  0  0  0  0  0  0  0
  192.8740  174.1170  142.1640 C   0  0  0  0  0  3  0  0  0  0  0  0
  188.6980  175.8580  144.1350 C   0  0  0  0  0  3  0  0  0  0  0  0
  188.7260  174.6090  141.8000 F   0  0  0  0  0  0  0  0  0  0  0  0
  193.9450  172.6200  139.6860 C   0  0  0  0  0  1  0  0  0  0  0  0
  190.7600  174.9730  143.1150 C   0  0  0  0  0  0  0  0  0  0  0  0
  192.1450  173.6590  141.0770 C   0  0  0  0  0  0  0  0  0  0  0  0
  184.5780  177.5660  146.0630 N   0  0  0  0  0  2  0  0  0  0  0  0
  183.9700  178.8410  145.7140 C   0  0  0  0  0  2  0  0  0  0  0  0
  184.3640  179.2200  144.3320 C   0  0  0  0  0  0  0  0  0  0  0  0
  185.3370  180.1900  144.1290 O   0  0  0  0  0  1  0  0  0  0  0  0
  183.8420  178.6380  143.3460 O   0  0  0  0  0  0  0  0  0  0  0  0
  1 10  1  0  0  0  0
  2 12  1  0  0  0  0
  4  3  2  0  0  0  0
  5 26  1  0  0  0  0
  6 27  1  0  0  0  0
  6  5  2  0  0  0  0
  7 17  1  0  0  0  0
  9 27  1  0  0  0  0
 11  3  1  0  0  0  0
 12 13  1  0  0  0  0
 12  8  2  0  0  0  0
 13 11  2  0  0  0  0
 14 21  1  0  0  0  0
 15 18  2  0  0  0  0
 15  9  1  0  0  0  0
 16  1  2  0  0  0  0
 17  8  1  0  0  0  0
 17 10  2  0  0  0  0
 18  6  1  0  0  0  0
 19  7  2  0  0  0  0
 19 16  1  0  0  0  0
 20  4  1  0  0  0  0
 21 20  2  0  0  0  0
 21 13  1  0  0  0  0
 22 14  1  0  0  0  0
 23  2  2  0  0  0  0
 23  7  1  0  0  0  0
 24  5  1  0  0  0  0
 25  9  1  0  0  0  0
 26 14  2  0  0  0  0
 26  2  1  0  0  0  0
 27 22  2  0  0  0  0
 28 16  1  0  0  0  0
 29 28  1  0  0  0  0
 30 29  1  0  0  0  0
 31 30  1  0  0  0  0
 32 30  2  0  0  0  0
M  END
>  <MODEL>
4

>  <REMARK>
 VINA RESULT:      -8.5      4.339      7.737
  Name = 
  3 active torsions:
  status: ('A' for Active; 'I' for Inactive)
    1  A    between atoms: C_1  and  C_10
    2  A    between atoms: C_10  and  N_24
    3  A    between atoms: C_19  and  N_24
                            x       y       z     vdW  Elec       q    Type
                         _______ _______ _______ _____ _____    ______ ____

>  <TORSDO>
F 3

$$$$
=
 OpenBabel11052421253D

 32 37  0  0  0  0  0  0  0  0999 V2000
  190.5500  172.7010  139.2900 C   0  0  0  0  0  3  0  0  0  0  0  0
  188.6070  175.4160  143.0970 C   0  0  0  0  0  0  0  0  0  0  0  0
  191.9900  175.0110  146.6080 C   0  0  0  0  0  3  0  0  0  0  0  0
  191.2170  175.8060  147.4520 C   0  0  0  0  0  3  0  0  0  0  0  0
  186.5480  176.7580  143.5270 C   0  0  0  0  0  0  0  0  0  0  0  0
  185.8320  177.5430  144.4240 C   0  0  0  0  0  0  0  0  0  0  0  0
  188.9720  174.2990  140.9560 C   0  0  0  0  0  0  0  0  0  0  0  0
  190.6360  174.1090  142.7040 C   0  0  0  0  0  3  0  0  0  0  0  0
  185.3960  178.5880  146.3030 N   0  0  0  0  0  0  0  0  0  0  0  0
  190.9910  173.0040  140.5810 C   0  0  0  0  0  3  0  0  0  0  0  0
  191.5390  174.7170  145.3220 C   0  0  0  0  0  3  0  0  0  0  0  0
  189.8540  174.9120  143.5570 C   0  0  0  0  0  0  0  0  0  0  0  0
  190.3060  175.2120  144.8570 C   0  0  0  0  0  0  0  0  0  0  0  0
  188.2810  176.5270  145.2710 C   0  0  0  0  0  0  0  0  0  0  0  0
  184.3750  178.8150  145.4850 N   0  0  0  0  0  0  0  0  0  0  0  0
  189.3200  173.1950  138.8260 C   0  0  0  0  0  0  0  0  0  0  0  0
  190.2050  173.8020  141.4160 C   0  0  0  0  0  0  0  0  0  0  0  0
  184.6100  178.1810  144.3070 C   0  0  0  0  0  3  0  0  0  0  0  0
  188.5350  173.9940  139.6640 C   0  0  0  0  0  3  0  0  0  0  0  0
  189.9930  176.3050  147.0090 C   0  0  0  0  0  3  0  0  0  0  0  0
  189.5200  176.0190  145.7140 C   0  0  0  0  0  0  0  0  0  0  0  0
  187.5040  177.3320  146.1360 C   0  0  0  0  0  3  0  0  0  0  0  0
  188.1900  175.0940  141.7920 C   0  0  0  0  0  3  0  0  0  0  0  0
  186.0230  176.5290  142.2970 F   0  0  0  0  0  0  0  0  0  0  0  0
  185.4910  179.1130  147.6540 C   0  0  0  0  0  1  0  0  0  0  0  0
  187.8080  176.2280  143.9460 C   0  0  0  0  0  0  0  0  0  0  0  0
  186.2910  177.8170  145.6710 C   0  0  0  0  0  0  0  0  0  0  0  0
  188.8520  172.8970  137.5090 N   0  0  0  0  0  2  0  0  0  0  0  0
  189.6290  173.1760  136.3110 C   0  0  0  0  0  2  0  0  0  0  0  0
  189.5320  174.6220  135.9790 C   0  0  0  0  0  0  0  0  0  0  0  0
  188.3110  175.2770  136.0820 O   0  0  0  0  0  1  0  0  0  0  0  0
  190.5610  175.2610  135.6400 O   0  0  0  0  0  0  0  0  0  0  0  0
  1 10  1  0  0  0  0
  2 12  1  0  0  0  0
  2 26  1  0  0  0  0
  3  4  1  0  0  0  0
  5 26  2  0  0  0  0
  5  6  1  0  0  0  0
  6 27  2  0  0  0  0
  7 17  1  0  0  0  0
  7 23  1  0  0  0  0
  8 12  2  0  0  0  0
  9 25  1  0  0  0  0
 10 17  2  0  0  0  0
 11  3  2  0  0  0  0
 12 13  1  0  0  0  0
 13 11  1  0  0  0  0
 13 21  2  0  0  0  0
 14 21  1  0  0  0  0
 14 22  2  0  0  0  0
 15  9  1  0  0  0  0
 16  1  2  0  0  0  0
 16 19  1  0  0  0  0
 17  8  1  0  0  0  0
 18  6  1  0  0  0  0
 18 15  2  0  0  0  0
 19  7  2  0  0  0  0
 20  4  2  0  0  0  0
 21 20  1  0  0  0  0
 23  2  2  0  0  0  0
 24  5  1  0  0  0  0
 26 14  1  0  0  0  0
 27 22  1  0  0  0  0
 27  9  1  0  0  0  0
 28 16  1  0  0  0  0
 29 28  1  0  0  0  0
 30 31  1  0  0  0  0
 30 29  1  0  0  0  0
 32 30  2  0  0  0  0
M  END
>  <MODEL>
5

>  <REMARK>
 VINA RESULT:      -8.4      4.283      6.502
  Name = 
  3 active torsions:
  status: ('A' for Active; 'I' for Inactive)
    1  A    between atoms: C_1  and  C_10
    2  A    between atoms: C_10  and  N_24
    3  A    between atoms: C_19  and  N_24
                            x       y       z     vdW  Elec       q    Type
                         _______ _______ _______ _____ _____    ______ ____

>  <TORSDO>
F 3

$$$$
=
 OpenBabel11052421253D

 32 37  0  0  0  0  0  0  0  0999 V2000
  192.5790  175.4550  144.2280 C   0  0  0  0  0  3  0  0  0  0  0  0
  187.8200  177.0680  143.6030 C   0  0  0  0  0  0  0  0  0  0  0  0
  186.4400  178.2850  148.1360 C   0  0  0  0  0  3  0  0  0  0  0  0
  185.1860  178.6610  147.6590 C   0  0  0  0  0  3  0  0  0  0  0  0
  186.2120  177.3460  141.7150 C   0  0  0  0  0  0  0  0  0  0  0  0
  184.9410  177.7400  141.3130 C   0  0  0  0  0  0  0  0  0  0  0  0
  190.0730  176.1990  143.2350 C   0  0  0  0  0  0  0  0  0  0  0  0
  189.3730  176.8070  145.4720 C   0  0  0  0  0  3  0  0  0  0  0  0
  182.8960  178.5080  141.5210 N   0  0  0  0  0  0  0  0  0  0  0  0
  191.6040  175.9450  145.1020 C   0  0  0  0  0  3  0  0  0  0  0  0
  187.4030  177.7990  147.2540 C   0  0  0  0  0  3  0  0  0  0  0  0
  188.1060  177.1870  144.9900 C   0  0  0  0  0  0  0  0  0  0  0  0
  187.1300  177.6780  145.8780 C   0  0  0  0  0  0  0  0  0  0  0  0
  185.5580  177.9490  144.0190 C   0  0  0  0  0  0  0  0  0  0  0  0
  183.0810  178.2370  140.2350 N   0  0  0  0  0  0  0  0  0  0  0  0
  192.3060  175.3350  142.8560 C   0  0  0  0  0  0  0  0  0  0  0  0
  190.3510  176.3180  144.6100 C   0  0  0  0  0  0  0  0  0  0  0  0
  184.3410  177.7570  140.0660 C   0  0  0  0  0  3  0  0  0  0  0  0
  191.0500  175.7090  142.3650 C   0  0  0  0  0  3  0  0  0  0  0  0
  184.8960  178.5490  146.2990 C   0  0  0  0  0  3  0  0  0  0  0  0
  185.8560  178.0590  145.3930 C   0  0  0  0  0  0  0  0  0  0  0  0
  184.2810  178.3320  143.5460 C   0  0  0  0  0  3  0  0  0  0  0  0
  188.8210  176.5710  142.7480 C   0  0  0  0  0  3  0  0  0  0  0  0
  187.0790  176.8860  140.7780 F   0  0  0  0  0  0  0  0  0  0  0  0
  181.6620  179.0410  142.0730 C   0  0  0  0  0  1  0  0  0  0  0  0
  186.5450  177.4470  143.1020 C   0  0  0  0  0  0  0  0  0  0  0  0
  184.0180  178.2110  142.1900 C   0  0  0  0  0  0  0  0  0  0  0  0
  193.2890  174.8370  141.9460 N   0  0  0  0  0  2  0  0  0  0  0  0
  193.7030  173.4420  141.9160 C   0  0  0  0  0  2  0  0  0  0  0  0
  195.1240  173.3530  141.4850 C   0  0  0  0  0  0  0  0  0  0  0  0
  195.5860  174.1540  140.4490 O   0  0  0  0  0  0  0  0  0  0  0  0
  195.9160  172.5790  142.0820 O   0  0  0  0  0  1  0  0  0  0  0  0
  1 10  1  0  0  0  0
  2 12  1  0  0  0  0
  4  3  1  0  0  0  0
  5 26  1  0  0  0  0
  6  5  2  0  0  0  0
  6 27  1  0  0  0  0
  7 17  1  0  0  0  0
  9 25  1  0  0  0  0
  9 27  1  0  0  0  0
 11  3  2  0  0  0  0
 12  8  2  0  0  0  0
 12 13  1  0  0  0  0
 13 11  1  0  0  0  0
 14 21  1  0  0  0  0
 15  9  1  0  0  0  0
 16  1  2  0  0  0  0
 17 10  2  0  0  0  0
 17  8  1  0  0  0  0
 18 15  2  0  0  0  0
 18  6  1  0  0  0  0
 19 16  1  0  0  0  0
 19  7  2  0  0  0  0
 20  4  2  0  0  0  0
 21 13  2  0  0  0  0
 21 20  1  0  0  0  0
 22 14  1  0  0  0  0
 23  7  1  0  0  0  0
 23  2  2  0  0  0  0
 24  5  1  0  0  0  0
 26  2  1  0  0  0  0
 26 14  2  0  0  0  0
 27 22  2  0  0  0  0
 28 16  1  0  0  0  0
 29 28  1  0  0  0  0
 30 29  1  0  0  0  0
 30 32  1  0  0  0  0
 31 30  2  0  0  0  0
M  END
>  <MODEL>
6

>  <REMARK>
 VINA RESULT:      -8.1      1.851      2.255
  Name = 
  3 active torsions:
  status: ('A' for Active; 'I' for Inactive)
    1  A    between atoms: C_1  and  C_10
    2  A    between atoms: C_10  and  N_24
    3  A    between atoms: C_19  and  N_24
                            x       y       z     vdW  Elec       q    Type
                         _______ _______ _______ _____ _____    ______ ____

>  <TORSDO>
F 3

$$$$
=
 OpenBabel11052421253D

 32 37  0  0  0  0  0  0  0  0999 V2000
  185.2600  177.6630  143.2170 C   0  0  0  0  0  3  0  0  0  0  0  0
  189.9600  175.8040  143.5150 C   0  0  0  0  0  0  0  0  0  0  0  0
  190.2750  172.9070  139.5850 C   0  0  0  0  0  3  0  0  0  0  0  0
  191.5840  172.5730  139.9290 C   0  0  0  0  0  3  0  0  0  0  0  0
  191.9210  176.0150  145.0440 C   0  0  0  0  0  0  0  0  0  0  0  0
  193.2290  175.6360  145.3230 C   0  0  0  0  0  0  0  0  0  0  0  0
  187.8830  177.0170  143.9390 C   0  0  0  0  0  0  0  0  0  0  0  0
  188.0560  175.5790  141.9990 C   0  0  0  0  0  3  0  0  0  0  0  0
  195.1420  174.5990  145.0460 N   0  0  0  0  0  0  0  0  0  0  0  0
  186.0000  176.7810  142.4240 C   0  0  0  0  0  3  0  0  0  0  0  0
  189.5480  173.7880  140.3840 C   0  0  0  0  0  3  0  0  0  0  0  0
  189.3780  175.2410  142.3470 C   0  0  0  0  0  0  0  0  0  0  0  0
  190.1160  174.3520  141.5430 C   0  0  0  0  0  0  0  0  0  0  0  0
  192.0360  174.5640  143.0480 C   0  0  0  0  0  0  0  0  0  0  0  0
  195.2510  175.3270  146.1500 N   0  0  0  0  0  0  0  0  0  0  0  0
  185.8260  178.2250  144.3730 C   0  0  0  0  0  0  0  0  0  0  0  0
  187.3100  176.4560  142.7820 C   0  0  0  0  0  0  0  0  0  0  0  0
  194.0810  175.9860  146.3570 C   0  0  0  0  0  3  0  0  0  0  0  0
  187.1390  177.8970  144.7290 C   0  0  0  0  0  3  0  0  0  0  0  0
  192.1630  173.1220  141.0730 C   0  0  0  0  0  3  0  0  0  0  0  0
  191.4450  174.0130  141.8930 C   0  0  0  0  0  0  0  0  0  0  0  0
  193.3650  174.2180  143.3890 C   0  0  0  0  0  3  0  0  0  0  0  0
  189.1900  176.6890  144.2930 C   0  0  0  0  0  3  0  0  0  0  0  0
  191.2980  176.8800  145.8840 F   0  0  0  0  0  0  0  0  0  0  0  0
  196.2030  173.7600  144.5140 C   0  0  0  0  0  1  0  0  0  0  0  0
  191.2930  175.4730  143.8790 C   0  0  0  0  0  0  0  0  0  0  0  0
  193.9180  174.7770  144.5310 C   0  0  0  0  0  0  0  0  0  0  0  0
  185.0860  179.1290  145.1960 N   0  0  0  0  0  2  0  0  0  0  0  0
  184.4720  178.7310  146.4540 C   0  0  0  0  0  2  0  0  0  0  0  0
  185.5040  178.6950  147.5230 C   0  0  0  0  0  0  0  0  0  0  0  0
  185.8930  177.4800  148.0730 O   0  0  0  0  0  1  0  0  0  0  0  0
  186.0510  179.7620  147.9060 O   0  0  0  0  0  0  0  0  0  0  0  0
  1 16  1  0  0  0  0
  2 26  1  0  0  0  0
  2 23  1  0  0  0  0
  3  4  2  0  0  0  0
  3 11  1  0  0  0  0
  4 20  1  0  0  0  0
  5  6  1  0  0  0  0
  5 24  1  0  0  0  0
  6 18  1  0  0  0  0
  7 23  2  0  0  0  0
  7 19  1  0  0  0  0
  8 12  1  0  0  0  0
  8 17  2  0  0  0  0
  9 15  1  0  0  0  0
 10 17  1  0  0  0  0
 10  1  2  0  0  0  0
 11 13  2  0  0  0  0
 12  2  2  0  0  0  0
 13 21  1  0  0  0  0
 13 12  1  0  0  0  0
 14 22  2  0  0  0  0
 14 26  1  0  0  0  0
 15 18  2  0  0  0  0
 16 19  2  0  0  0  0
 16 28  1  0  0  0  0
 17  7  1  0  0  0  0
 20 21  2  0  0  0  0
 21 14  1  0  0  0  0
 22 27  1  0  0  0  0
 25  9  1  0  0  0  0
 26  5  2  0  0  0  0
 27  9  1  0  0  0  0
 27  6  2  0  0  0  0
 28 29  1  0  0  0  0
 29 30  1  0  0  0  0
 30 32  2  0  0  0  0
 30 31  1  0  0  0  0
M  END
>  <MODEL>
7

>  <REMARK>
 VINA RESULT:      -8.1      4.053      8.735
  Name = 
  3 active torsions:
  status: ('A' for Active; 'I' for Inactive)
    1  A    between atoms: C_1  and  C_10
    2  A    between atoms: C_10  and  N_24
    3  A    between atoms: C_19  and  N_24
                            x       y       z     vdW  Elec       q    Type
                         _______ _______ _______ _____ _____    ______ ____

>  <TORSDO>
F 3

$$$$
=
 OpenBabel11052421253D

 32 37  0  0  0  0  0  0  0  0999 V2000
  186.2820  178.4120  144.0470 C   0  0  0  0  0  3  0  0  0  0  0  0
  189.7510  174.7250  143.9200 C   0  0  0  0  0  0  0  0  0  0  0  0
  193.3500  176.4690  146.7370 C   0  0  0  0  0  3  0  0  0  0  0  0
  194.0930  175.3110  146.5150 C   0  0  0  0  0  3  0  0  0  0  0  0
  189.9990  172.4780  142.8630 C   0  0  0  0  0  0  0  0  0  0  0  0
  190.7960  171.3530  142.6870 C   0  0  0  0  0  0  0  0  0  0  0  0
  187.7430  176.0740  143.5790 C   0  0  0  0  0  0  0  0  0  0  0  0
  189.5340  176.9220  144.9700 C   0  0  0  0  0  3  0  0  0  0  0  0
  192.5480  170.0530  142.9200 N   0  0  0  0  0  0  0  0  0  0  0  0
  187.5440  178.2550  144.6280 C   0  0  0  0  0  3  0  0  0  0  0  0
  192.0930  176.6130  146.1520 C   0  0  0  0  0  3  0  0  0  0  0  0
  190.2840  175.7510  144.7450 C   0  0  0  0  0  0  0  0  0  0  0  0
  191.5550  175.6020  145.3340 C   0  0  0  0  0  0  0  0  0  0  0  0
  191.7910  173.3970  144.2920 C   0  0  0  0  0  0  0  0  0  0  0  0
  191.6920  169.4150  142.1330 N   0  0  0  0  0  0  0  0  0  0  0  0
  185.7450  177.4030  143.2310 C   0  0  0  0  0  0  0  0  0  0  0  0
  188.2770  177.0880  144.3970 C   0  0  0  0  0  0  0  0  0  0  0  0
  190.5900  170.1910  141.9640 C   0  0  0  0  0  3  0  0  0  0  0  0
  186.4810  176.2360  143.0010 C   0  0  0  0  0  3  0  0  0  0  0  0
  193.5760  174.2980  145.7070 C   0  0  0  0  0  3  0  0  0  0  0  0
  192.3080  174.4250  145.1070 C   0  0  0  0  0  0  0  0  0  0  0  0
  192.5530  172.2260  144.0730 C   0  0  0  0  0  3  0  0  0  0  0  0
  188.4770  174.9120  143.3500 C   0  0  0  0  0  3  0  0  0  0  0  0
  188.7890  172.5230  142.2510 F   0  0  0  0  0  0  0  0  0  0  0  0
  193.8400  169.5230  143.3200 C   0  0  0  0  0  1  0  0  0  0  0  0
  190.4950  173.5380  143.6850 C   0  0  0  0  0  0  0  0  0  0  0  0
  192.0170  171.2340  143.2660 C   0  0  0  0  0  0  0  0  0  0  0  0
  184.4570  177.5450  142.6290 N   0  0  0  0  0  2  0  0  0  0  0  0
  184.2370  178.2940  141.4010 C   0  0  0  0  0  2  0  0  0  0  0  0
  182.8060  178.1970  141.0080 C   0  0  0  0  0  0  0  0  0  0  0  0
  181.8280  178.7910  141.7950 O   0  0  0  0  0  1  0  0  0  0  0  0
  182.4840  177.6070  139.9440 O   0  0  0  0  0  0  0  0  0  0  0  0
  1 10  1  0  0  0  0
  2 12  1  0  0  0  0
  4  3  1  0  0  0  0
  5 26  1  0  0  0  0
  6  5  2  0  0  0  0
  6 27  1  0  0  0  0
  7 17  1  0  0  0  0
  9 27  1  0  0  0  0
  9 25  1  0  0  0  0
 11  3  2  0  0  0  0
 12  8  2  0  0  0  0
 12 13  1  0  0  0  0
 13 11  1  0  0  0  0
 14 21  1  0  0  0  0
 15  9  1  0  0  0  0
 16  1  2  0  0  0  0
 17 10  2  0  0  0  0
 17  8  1  0  0  0  0
 18 15  2  0  0  0  0
 18  6  1  0  0  0  0
 19 16  1  0  0  0  0
 19  7  2  0  0  0  0
 20  4  2  0  0  0  0
 21 13  2  0  0  0  0
 21 20  1  0  0  0  0
 22 14  1  0  0  0  0
 23  7  1  0  0  0  0
 23  2  2  0  0  0  0
 24  5  1  0  0  0  0
 26  2  1  0  0  0  0
 26 14  2  0  0  0  0
 27 22  2  0  0  0  0
 28 16  1  0  0  0  0
 29 28  1  0  0  0  0
 30 29  1  0  0  0  0
 30 31  1  0  0  0  0
 32 30  2  0  0  0  0
M  END
>  <MODEL>
8

>  <REMARK>
 VINA RESULT:      -7.7      5.090      8.632
  Name = 
  3 active torsions:
  status: ('A' for Active; 'I' for Inactive)
    1  A    between atoms: C_1  and  C_10
    2  A    between atoms: C_10  and  N_24
    3  A    between atoms: C_19  and  N_24
                            x       y       z     vdW  Elec       q    Type
                         _______ _______ _______ _____ _____    ______ ____

>  <TORSDO>
F 3

$$$$
=
 OpenBabel11052421253D

 32 37  0  0  0  0  0  0  0  0999 V2000
  187.9540  176.9510  146.6850 C   0  0  0  0  0  3  0  0  0  0  0  0
  189.2770  174.3860  142.5240 C   0  0  0  0  0  0  0  0  0  0  0  0
  192.4720  171.0850  144.2060 C   0  0  0  0  0  3  0  0  0  0  0  0
  192.6340  170.5780  142.9180 C   0  0  0  0  0  3  0  0  0  0  0  0
  188.7240  174.4290  140.0910 C   0  0  0  0  0  0  0  0  0  0  0  0
  188.9370  173.8720  138.8360 C   0  0  0  0  0  0  0  0  0  0  0  0
  188.2540  175.9600  144.0870 C   0  0  0  0  0  0  0  0  0  0  0  0
  189.8370  174.3190  144.9030 C   0  0  0  0  0  3  0  0  0  0  0  0
  189.7890  172.5120  137.3400 N   0  0  0  0  0  0  0  0  0  0  0  0
  188.8220  175.8820  146.4470 C   0  0  0  0  0  3  0  0  0  0  0  0
  191.6020  172.1510  144.4300 C   0  0  0  0  0  3  0  0  0  0  0  0
  190.0010  173.8070  143.6010 C   0  0  0  0  0  0  0  0  0  0  0  0
  190.8790  172.7310  143.3700 C   0  0  0  0  0  0  0  0  0  0  0  0
  190.3300  172.7800  140.9830 C   0  0  0  0  0  0  0  0  0  0  0  0
  188.9560  173.3220  136.6990 N   0  0  0  0  0  0  0  0  0  0  0  0
  187.2320  177.5290  145.6280 C   0  0  0  0  0  0  0  0  0  0  0  0
  188.9750  175.3840  145.1500 C   0  0  0  0  0  0  0  0  0  0  0  0
  188.4060  174.1830  137.5960 C   0  0  0  0  0  3  0  0  0  0  0  0
  187.3870  177.0290  144.3300 C   0  0  0  0  0  3  0  0  0  0  0  0
  191.9260  171.1390  141.8550 C   0  0  0  0  0  3  0  0  0  0  0  0
  191.0440  172.2170  142.0610 C   0  0  0  0  0  0  0  0  0  0  0  0
  190.5030  172.2580  139.6800 C   0  0  0  0  0  3  0  0  0  0  0  0
  188.4100  175.4620  142.7960 C   0  0  0  0  0  3  0  0  0  0  0  0
  187.8560  175.4660  140.2060 F   0  0  0  0  0  0  0  0  0  0  0  0
  190.5580  171.4590  136.6990 C   0  0  0  0  0  1  0  0  0  0  0  0
  189.4320  173.8800  141.2060 C   0  0  0  0  0  0  0  0  0  0  0  0
  189.7880  172.8330  138.6400 C   0  0  0  0  0  0  0  0  0  0  0  0
  186.3390  178.6220  145.8510 N   0  0  0  0  0  2  0  0  0  0  0  0
  185.7140  179.3660  144.7680 C   0  0  0  0  0  2  0  0  0  0  0  0
  184.2970  178.9380  144.6230 C   0  0  0  0  0  0  0  0  0  0  0  0
  183.8200  178.5220  143.3860 O   0  0  0  0  0  0  0  0  0  0  0  0
  183.5390  178.9180  145.6270 O   0  0  0  0  0  1  0  0  0  0  0  0
  2 23  2  0  0  0  0
  2 12  1  0  0  0  0
  3 11  1  0  0  0  0
  4  3  2  0  0  0  0
  5 24  1  0  0  0  0
  5 26  1  0  0  0  0
  6  5  2  0  0  0  0
  7 19  2  0  0  0  0
  7 17  1  0  0  0  0
  8 17  1  0  0  0  0
  9 27  1  0  0  0  0
 10  1  1  0  0  0  0
 12  8  2  0  0  0  0
 13 12  1  0  0  0  0
 13 11  2  0  0  0  0
 14 26  2  0  0  0  0
 14 21  1  0  0  0  0
 15  9  1  0  0  0  0
 15 18  2  0  0  0  0
 16 28  1  0  0  0  0
 16  1  2  0  0  0  0
 17 10  2  0  0  0  0
 18  6  1  0  0  0  0
 19 16  1  0  0  0  0
 20 21  2  0  0  0  0
 20  4  1  0  0  0  0
 21 13  1  0  0  0  0
 22 14  1  0  0  0  0
 23  7  1  0  0  0  0
 25  9  1  0  0  0  0
 26  2  1  0  0  0  0
 27  6  1  0  0  0  0
 27 22  2  0  0  0  0
 29 28  1  0  0  0  0
 30 29  1  0  0  0  0
 30 32  1  0  0  0  0
 31 30  2  0  0  0  0
M  END
>  <MODEL>
9

>  <REMARK>
 VINA RESULT:      -7.6      5.348      7.723
  Name = 
  3 active torsions:
  status: ('A' for Active; 'I' for Inactive)
    1  A    between atoms: C_1  and  C_10
    2  A    between atoms: C_10  and  N_24
    3  A    between atoms: C_19  and  N_24
                            x       y       z     vdW  Elec       q    Type
                         _______ _______ _______ _____ _____    ______ ____

>  <TORSDO>
F 3

$$$$
