=
 OpenBabel11052419553D

 37 43  0  0  1  0  0  0  0  0999 V2000
  191.1820  173.0550  141.0780 C   0  0  1  0  0  0  0  0  0  0  0  0
  194.7260  173.3880  141.4220 C   0  0  0  0  0  0  0  0  0  0  0  0
  193.2570  174.7920  144.5300 C   0  0  1  0  0  3  0  0  0  0  0  0
  190.0420  172.3350  140.3310 C   0  0  1  0  0  3  0  0  0  0  0  0
  189.8480  173.6520  145.0400 C   0  0  0  0  0  2  0  0  0  0  0  0
  195.9860  174.2330  143.3810 C   0  0  0  0  0  3  0  0  0  0  0  0
  191.7380  174.9990  144.6970 C   0  0  2  0  0  3  0  0  0  0  0  0
  188.4290  173.0880  142.0860 C   0  0  0  0  0  0  0  0  0  0  0  0
  193.6610  175.0600  143.0980 C   0  0  0  0  0  2  0  0  0  0  0  0
  191.4240  174.9230  146.1650 C   0  0  2  0  0  3  0  0  0  0  0  0
  196.3050  174.9410  144.6390 C   0  0  0  0  0  3  0  0  0  0  0  0
  188.6470  172.8880  140.6250 C   0  0  0  0  0  2  0  0  0  0  0  0
  192.5870  172.5880  140.6720 C   0  0  1  0  0  3  0  0  0  0  0  0
  194.9800  171.9070  141.7590 C   0  0  0  0  0  1  0  0  0  0  0  0
  193.4760  176.0520  146.8020 C   0  0  0  0  0  2  0  0  0  0  0  0
  195.4940  175.6040  145.4720 C   0  0  0  0  0  3  0  0  0  0  0  0
  193.4830  173.6750  140.7820 O   0  0  0  0  0  0  0  0  0  0  0  0
  188.7180  174.4310  142.6740 C   0  0  0  0  0  2  0  0  0  0  0  0
  190.8690  174.0100  144.0310 N   0  0  2  0  0  0  0  0  0  0  0  0
  194.0160  175.8540  145.3670 C   0  0  1  0  0  3  0  0  0  0  0  0
  191.0350  174.5150  141.5690 C   0  0  0  0  0  2  0  0  0  0  0  0
  194.8330  174.2210  142.6900 C   0  0  0  0  0  0  0  0  0  0  0  0
  189.9580  174.5990  146.2250 C   0  0  1  0  0  3  0  0  0  0  0  0
  195.8270  173.8120  140.4620 C   0  0  0  0  0  1  0  0  0  0  0  0
  190.2330  174.6830  142.8730 C   0  0  1  0  0  3  0  0  0  0  0  0
  188.0770  172.1600  142.7950 O   0  0  0  0  0  0  0  0  0  0  0  0
  191.9750  172.1650  142.0070 C   0  0  0  0  0  2  0  0  0  0  0  0
  191.9540  176.1510  146.8650 C   0  0  0  0  0  2  0  0  0  0  0  0
  189.2080  176.7400  145.0500 C   0  0  0  0  0  3  0  0  0  0  0  0
  189.0250  175.7760  146.0570 C   0  0  0  0  0  0  0  0  0  0  0  0
  187.8830  175.8460  146.8640 C   0  0  0  0  0  3  0  0  0  0  0  0
  185.8480  176.9360  147.4650 F   0  0  0  0  0  0  0  0  0  0  0  0
  187.1440  177.8270  145.6800 C   0  0  0  0  0  3  0  0  0  0  0  0
  186.9470  176.8700  146.6770 C   0  0  0  0  0  0  0  0  0  0  0  0
  188.2770  177.7640  144.8660 C   0  0  0  0  0  3  0  0  0  0  0  0
  190.0360  173.5670  138.2610 O   0  0  0  0  0  1  0  0  0  0  0  0
  190.2660  172.3050  138.8210 C   0  0  0  0  0  2  0  0  0  0  0  0
  1 21  1  1  0  0  0
  1 27  1  0  0  0  0
  2 14  1  0  0  0  0
  2 22  1  0  0  0  0
  3  9  1  6  0  0  0
  3  7  1  0  0  0  0
  3 20  1  0  0  0  0
  4 37  1  6  0  0  0
  4 12  1  0  0  0  0
  4  1  1  0  0  0  0
  5 23  1  0  0  0  0
  6 11  1  0  0  0  0
  7 10  1  0  0  0  0
  8 18  1  0  0  0  0
  8 26  2  0  0  0  0
 10 23  1  0  0  0  0
 10 28  1  0  0  0  0
 11 16  2  0  0  0  0
 12  8  1  0  0  0  0
 13 17  1  0  0  0  0
 13  1  1  0  0  0  0
 13 27  1  0  0  0  0
 15 28  1  0  0  0  0
 17  2  1  0  0  0  0
 18 25  1  0  0  0  0
 19  7  1  0  0  0  0
 19  5  1  0  0  0  0
 20 16  1  0  0  0  0
 20 15  1  0  0  0  0
 21 25  1  0  0  0  0
 22  9  1  0  0  0  0
 22  6  2  0  0  0  0
 24  2  1  0  0  0  0
 25 19  1  0  0  0  0
 29 30  1  0  0  0  0
 30 23  1  0  0  0  0
 30 31  2  0  0  0  0
 33 34  2  0  0  0  0
 34 31  1  0  0  0  0
 34 32  1  0  0  0  0
 35 29  2  0  0  0  0
 35 33  1  0  0  0  0
 36 37  1  0  0  0  0
M  END
>  <MODEL>
1

>  <REMARK>
 VINA RESULT:      -8.7      0.000      0.000
  Name = 
  2 active torsions:
  status: ('A' for Active; 'I' for Inactive)
    1  A    between atoms: C_5  and  C_23
    2  A    between atoms: C_6  and  C_31
                            x       y       z     vdW  Elec       q    Type
                         _______ _______ _______ _____ _____    ______ ____

>  <TORSDO>
F 2

$$$$
=
 OpenBabel11052419553D

 37 43  0  0  1  0  0  0  0  0999 V2000
  194.2820  174.0470  144.2780 C   0  0  1  0  0  0  0  0  0  0  0  0
  193.7790  171.7750  141.5630 C   0  0  0  0  0  0  0  0  0  0  0  0
  190.7290  173.8870  141.7110 C   0  0  1  0  0  3  0  0  0  0  0  0
  195.3210  174.6980  145.2130 C   0  0  1  0  0  3  0  0  0  0  0  0
  191.3090  176.9590  143.5570 C   0  0  0  0  0  2  0  0  0  0  0  0
  191.8710  171.6970  139.9840 C   0  0  0  0  0  3  0  0  0  0  0  0
  190.4750  174.8780  142.8640 C   0  0  2  0  0  3  0  0  0  0  0  0
  193.6340  176.4210  145.8720 C   0  0  0  0  0  0  0  0  0  0  0  0
  191.4310  172.6540  142.2340 C   0  0  0  0  0  2  0  0  0  0  0  0
  189.6010  175.9820  142.3350 C   0  0  2  0  0  3  0  0  0  0  0  0
  190.5220  171.8890  139.4110 C   0  0  0  0  0  3  0  0  0  0  0  0
  194.7170  175.5170  146.3550 C   0  0  0  0  0  2  0  0  0  0  0  0
  194.8900  173.1140  143.2220 C   0  0  1  0  0  3  0  0  0  0  0  0
  194.7050  172.5150  140.5800 C   0  0  0  0  0  1  0  0  0  0  0  0
  188.3100  174.4750  140.9370 C   0  0  0  0  0  2  0  0  0  0  0  0
  189.4870  172.5910  139.8870 C   0  0  0  0  0  3  0  0  0  0  0  0
  193.9740  172.0740  142.9450 O   0  0  0  0  0  0  0  0  0  0  0  0
  192.2220  175.9360  145.9240 C   0  0  0  0  0  2  0  0  0  0  0  0
  191.6680  175.5280  143.4390 N   0  0  2  0  0  0  0  0  0  0  0  0
  189.3720  173.3750  141.1630 C   0  0  1  0  0  3  0  0  0  0  0  0
  192.8450  173.7330  144.7580 C   0  0  0  0  0  2  0  0  0  0  0  0
  192.3290  172.0510  141.1980 C   0  0  0  0  0  0  0  0  0  0  0  0
  189.8230  177.1290  143.2790 C   0  0  1  0  0  3  0  0  0  0  0  0
  194.0560  170.2900  141.3880 C   0  0  0  0  0  1  0  0  0  0  0  0
  191.8900  174.9420  144.7840 C   0  0  1  0  0  3  0  0  0  0  0  0
  193.9020  177.5110  145.3940 O   0  0  0  0  0  0  0  0  0  0  0  0
  194.3700  174.5000  142.8390 C   0  0  0  0  0  2  0  0  0  0  0  0
  188.2040  175.4590  142.1010 C   0  0  0  0  0  2  0  0  0  0  0  0
  189.5730  177.4820  145.7970 C   0  0  0  0  0  3  0  0  0  0  0  0
  189.0290  177.0780  144.5640 C   0  0  0  0  0  0  0  0  0  0  0  0
  187.6780  176.7170  144.5030 C   0  0  0  0  0  3  0  0  0  0  0  0
  185.5820  176.3900  145.5940 F   0  0  0  0  0  0  0  0  0  0  0  0
  187.4380  177.1410  146.8780 C   0  0  0  0  0  3  0  0  0  0  0  0
  186.8860  176.7470  145.6580 C   0  0  0  0  0  0  0  0  0  0  0  0
  188.7840  177.5080  146.9490 C   0  0  0  0  0  3  0  0  0  0  0  0
  197.6180  174.0140  145.4460 O   0  0  0  0  0  1  0  0  0  0  0  0
  196.3030  173.6790  145.7860 C   0  0  0  0  0  2  0  0  0  0  0  0
  1 27  1  6  0  0  0
  1 21  1  0  0  0  0
  1  4  1  0  0  0  0
  2 17  1  0  0  0  0
  3  9  1  1  0  0  0
  3  7  1  0  0  0  0
  4 37  1  1  0  0  0
  4 12  1  0  0  0  0
  6 22  2  0  0  0  0
  7 19  1  0  0  0  0
  8 18  1  0  0  0  0
  8 12  1  0  0  0  0
 10  7  1  0  0  0  0
 10 23  1  0  0  0  0
 11 16  2  0  0  0  0
 11  6  1  0  0  0  0
 13  1  1  0  0  0  0
 14  2  1  0  0  0  0
 15 20  1  0  0  0  0
 15 28  1  0  0  0  0
 16 20  1  0  0  0  0
 17 13  1  0  0  0  0
 19  5  1  0  0  0  0
 19 25  1  0  0  0  0
 20  3  1  0  0  0  0
 21 25  1  0  0  0  0
 22  2  1  0  0  0  0
 22  9  1  0  0  0  0
 23  5  1  0  0  0  0
 23 30  1  0  0  0  0
 24  2  1  0  0  0  0
 25 18  1  0  0  0  0
 26  8  2  0  0  0  0
 27 13  1  0  0  0  0
 28 10  1  0  0  0  0
 29 35  1  0  0  0  0
 30 29  2  0  0  0  0
 31 30  1  0  0  0  0
 31 34  2  0  0  0  0
 32 34  1  0  0  0  0
 33 35  2  0  0  0  0
 34 33  1  0  0  0  0
 36 37  1  0  0  0  0
M  END
>  <MODEL>
2

>  <REMARK>
 VINA RESULT:      -8.3      1.931      5.250
  Name = 
  2 active torsions:
  status: ('A' for Active; 'I' for Inactive)
    1  A    between atoms: C_5  and  C_23
    2  A    between atoms: C_6  and  C_31
                            x       y       z     vdW  Elec       q    Type
                         _______ _______ _______ _____ _____    ______ ____

>  <TORSDO>
F 2

$$$$
=
 OpenBabel11052419553D

 37 43  0  0  1  0  0  0  0  0999 V2000
  191.1720  173.3120  140.7940 C   0  0  1  0  0  0  0  0  0  0  0  0
  194.5290  174.2420  139.9830 C   0  0  0  0  0  0  0  0  0  0  0  0
  193.9750  175.3490  143.4830 C   0  0  1  0  0  3  0  0  0  0  0  0
  189.9770  172.4140  140.4160 C   0  0  1  0  0  3  0  0  0  0  0  0
  191.1560  173.6400  145.0050 C   0  0  0  0  0  2  0  0  0  0  0  0
  196.2180  175.2740  141.4730 C   0  0  0  0  0  3  0  0  0  0  0  0
  192.5860  175.2930  144.1500 C   0  0  2  0  0  3  0  0  0  0  0  0
  188.9430  172.8680  142.6460 C   0  0  0  0  0  0  0  0  0  0  0  0
  193.8310  175.6940  142.0180 C   0  0  0  0  0  2  0  0  0  0  0  0
  192.7950  175.1520  145.6320 C   0  0  2  0  0  3  0  0  0  0  0  0
  196.8210  176.0150  142.6000 C   0  0  0  0  0  3  0  0  0  0  0  0
  188.6910  172.7200  141.1840 C   0  0  0  0  0  2  0  0  0  0  0  0
  192.4170  173.0950  139.9220 C   0  0  1  0  0  3  0  0  0  0  0  0
  195.1110  172.8230  140.1220 C   0  0  0  0  0  1  0  0  0  0  0  0
  194.7360  176.6090  145.6350 C   0  0  0  0  0  2  0  0  0  0  0  0
  196.2400  176.5230  143.6930 C   0  0  0  0  0  3  0  0  0  0  0  0
  193.1150  174.3180  139.8040 O   0  0  0  0  0  0  0  0  0  0  0  0
  189.1950  174.2350  143.1920 C   0  0  0  0  0  2  0  0  0  0  0  0
  191.7130  174.1750  143.7420 N   0  0  2  0  0  0  0  0  0  0  0  0
  194.7910  176.5180  144.0930 C   0  0  1  0  0  3  0  0  0  0  0  0
  190.9680  174.7210  141.3990 C   0  0  0  0  0  2  0  0  0  0  0  0
  194.9190  175.0710  141.1970 C   0  0  0  0  0  0  0  0  0  0  0  0
  191.5030  174.5830  146.1460 C   0  0  1  0  0  3  0  0  0  0  0  0
  195.1650  174.8550  138.7450 C   0  0  0  0  0  1  0  0  0  0  0  0
  190.6290  174.7400  142.9010 C   0  0  1  0  0  3  0  0  0  0  0  0
  188.9980  171.8870  143.3690 O   0  0  0  0  0  0  0  0  0  0  0  0
  192.3600  172.5630  141.3540 C   0  0  0  0  0  2  0  0  0  0  0  0
  193.3250  176.4470  146.1980 C   0  0  0  0  0  2  0  0  0  0  0  0
  190.4600  176.9000  145.8740 C   0  0  0  0  0  3  0  0  0  0  0  0
  190.3930  175.5850  146.3690 C   0  0  0  0  0  0  0  0  0  0  0  0
  189.2180  175.1550  146.9960 C   0  0  0  0  0  3  0  0  0  0  0  0
  187.0010  175.6080  147.7520 F   0  0  0  0  0  0  0  0  0  0  0  0
  188.2140  177.3340  146.6510 C   0  0  0  0  0  3  0  0  0  0  0  0
  188.1320  176.0280  147.1380 C   0  0  0  0  0  0  0  0  0  0  0  0
  189.3800  177.7720  146.0190 C   0  0  0  0  0  3  0  0  0  0  0  0
  188.4660  173.0670  138.6570 O   0  0  0  0  0  1  0  0  0  0  0  0
  189.6880  172.4360  138.9170 C   0  0  0  0  0  2  0  0  0  0  0  0
  1 27  1  1  0  0  0
  1 21  1  0  0  0  0
  2 14  1  0  0  0  0
  2 22  1  0  0  0  0
  3  9  1  6  0  0  0
  3 20  1  0  0  0  0
  3  7  1  0  0  0  0
  4 37  1  6  0  0  0
  4  1  1  0  0  0  0
  4 12  1  0  0  0  0
  5 23  1  0  0  0  0
  6 11  1  0  0  0  0
  7 10  1  0  0  0  0
  8 18  1  0  0  0  0
  8 26  2  0  0  0  0
 10 23  1  0  0  0  0
 10 28  1  0  0  0  0
 11 16  2  0  0  0  0
 12  8  1  0  0  0  0
 13  1  1  0  0  0  0
 13 27  1  0  0  0  0
 15 28  1  0  0  0  0
 16 20  1  0  0  0  0
 17 13  1  0  0  0  0
 17  2  1  0  0  0  0
 19  7  1  0  0  0  0
 19  5  1  0  0  0  0
 20 15  1  0  0  0  0
 21 25  1  0  0  0  0
 22  6  2  0  0  0  0
 22  9  1  0  0  0  0
 23 30  1  0  0  0  0
 24  2  1  0  0  0  0
 25 18  1  0  0  0  0
 25 19  1  0  0  0  0
 29 35  2  0  0  0  0
 29 30  1  0  0  0  0
 30 31  2  0  0  0  0
 31 34  1  0  0  0  0
 33 34  2  0  0  0  0
 34 32  1  0  0  0  0
 35 33  1  0  0  0  0
 36 37  1  0  0  0  0
M  END
>  <MODEL>
3

>  <REMARK>
 VINA RESULT:      -8.1      1.218      1.426
  Name = 
  2 active torsions:
  status: ('A' for Active; 'I' for Inactive)
    1  A    between atoms: C_5  and  C_23
    2  A    between atoms: C_6  and  C_31
                            x       y       z     vdW  Elec       q    Type
                         _______ _______ _______ _____ _____    ______ ____

>  <TORSDO>
F 2

$$$$
=
 OpenBabel11052419553D

 37 43  0  0  1  0  0  0  0  0999 V2000
  189.3650  174.3640  141.5450 C   0  0  1  0  0  0  0  0  0  0  0  0
  187.3830  176.4220  143.6970 C   0  0  0  0  0  0  0  0  0  0  0  0
  190.7110  176.1480  145.3200 C   0  0  1  0  0  3  0  0  0  0  0  0
  189.5130  173.7890  140.1230 C   0  0  1  0  0  3  0  0  0  0  0  0
  193.2730  175.1020  142.9680 C   0  0  0  0  0  2  0  0  0  0  0  0
  188.0950  177.5730  145.7720 C   0  0  0  0  0  3  0  0  0  0  0  0
  191.8020  175.1930  144.7950 C   0  0  2  0  0  3  0  0  0  0  0  0
  191.8890  173.1940  140.6220 C   0  0  0  0  0  0  0  0  0  0  0  0
  189.3460  175.5220  145.1380 C   0  0  0  0  0  2  0  0  0  0  0  0
  193.1370  175.7650  145.1830 C   0  0  2  0  0  3  0  0  0  0  0  0
  188.8630  177.9150  146.9880 C   0  0  0  0  0  3  0  0  0  0  0  0
  190.6220  172.7460  139.9770 C   0  0  0  0  0  2  0  0  0  0  0  0
  188.1620  175.3030  141.7170 C   0  0  1  0  0  3  0  0  0  0  0  0
  187.4890  177.6880  142.8270 C   0  0  0  0  0  1  0  0  0  0  0  0
  192.3230  176.5650  147.3250 C   0  0  0  0  0  2  0  0  0  0  0  0
  190.0180  177.4090  147.4360 C   0  0  0  0  0  3  0  0  0  0  0  0
  187.6750  175.1890  143.0390 O   0  0  0  0  0  0  0  0  0  0  0  0
  192.1550  172.7870  142.0340 C   0  0  0  0  0  2  0  0  0  0  0  0
  191.8420  174.9910  143.3340 N   0  0  2  0  0  0  0  0  0  0  0  0
  190.8730  176.3200  146.8530 C   0  0  1  0  0  3  0  0  0  0  0  0
  189.8310  173.5750  142.7920 C   0  0  0  0  0  2  0  0  0  0  0  0
  188.2920  176.5620  144.9080 C   0  0  0  0  0  0  0  0  0  0  0  0
  194.1140  175.1310  144.2340 C   0  0  1  0  0  3  0  0  0  0  0  0
  185.9410  176.3390  144.1720 C   0  0  0  0  0  1  0  0  0  0  0  0
  191.3470  173.6200  143.0590 C   0  0  1  0  0  3  0  0  0  0  0  0
  192.6640  173.9250  140.0270 O   0  0  0  0  0  0  0  0  0  0  0  0
  189.5840  175.8570  141.6380 C   0  0  0  0  0  2  0  0  0  0  0  0
  193.3370  175.6270  146.6730 C   0  0  0  0  0  2  0  0  0  0  0  0
  193.7840  172.8750  145.3880 C   0  0  0  0  0  3  0  0  0  0  0  0
  194.5710  173.7380  144.6040 C   0  0  0  0  0  0  0  0  0  0  0  0
  195.7680  173.2590  144.0590 C   0  0  0  0  0  3  0  0  0  0  0  0
  197.3410  171.4870  143.7800 F   0  0  0  0  0  0  0  0  0  0  0  0
  195.3940  171.0980  145.0910 C   0  0  0  0  0  3  0  0  0  0  0  0
  196.1780  171.9430  144.3040 C   0  0  0  0  0  0  0  0  0  0  0  0
  194.1960  171.5640  145.6360 C   0  0  0  0  0  3  0  0  0  0  0  0
  188.1910  173.2140  138.1930 O   0  0  0  0  0  1  0  0  0  0  0  0
  188.2030  173.2110  139.5920 C   0  0  0  0  0  2  0  0  0  0  0  0
  1 27  1  6  0  0  0
  1 13  1  0  0  0  0
  1 21  1  0  0  0  0
  2 24  1  0  0  0  0
  2 22  1  0  0  0  0
  3  9  1  1  0  0  0
  3 20  1  0  0  0  0
  4 37  1  1  0  0  0
  4  1  1  0  0  0  0
  5 19  1  0  0  0  0
  5 23  1  0  0  0  0
  6 11  1  0  0  0  0
  7 10  1  0  0  0  0
  7  3  1  0  0  0  0
  8 18  1  0  0  0  0
 10 28  1  0  0  0  0
 11 16  2  0  0  0  0
 12  4  1  0  0  0  0
 12  8  1  0  0  0  0
 13 17  1  0  0  0  0
 14  2  1  0  0  0  0
 17  2  1  0  0  0  0
 18 25  1  0  0  0  0
 19  7  1  0  0  0  0
 20 15  1  0  0  0  0
 20 16  1  0  0  0  0
 21 25  1  0  0  0  0
 22  9  1  0  0  0  0
 22  6  2  0  0  0  0
 23 30  1  0  0  0  0
 23 10  1  0  0  0  0
 25 19  1  0  0  0  0
 26  8  2  0  0  0  0
 27 13  1  0  0  0  0
 28 15  1  0  0  0  0
 29 35  1  0  0  0  0
 30 29  2  0  0  0  0
 31 34  2  0  0  0  0
 31 30  1  0  0  0  0
 32 34  1  0  0  0  0
 33 35  2  0  0  0  0
 34 33  1  0  0  0  0
 36 37  1  0  0  0  0
M  END
>  <MODEL>
4

>  <REMARK>
 VINA RESULT:      -8.1      2.759      6.186
  Name = 
  2 active torsions:
  status: ('A' for Active; 'I' for Inactive)
    1  A    between atoms: C_5  and  C_23
    2  A    between atoms: C_6  and  C_31
                            x       y       z     vdW  Elec       q    Type
                         _______ _______ _______ _____ _____    ______ ____

>  <TORSDO>
F 2

$$$$
=
 OpenBabel11052419553D

 37 43  0  0  1  0  0  0  0  0999 V2000
  190.8590  173.4850  142.8940 C   0  0  1  0  0  0  0  0  0  0  0  0
  190.2240  172.7170  139.4590 C   0  0  0  0  0  0  0  0  0  0  0  0
  188.1830  175.7200  140.2330 C   0  0  1  0  0  3  0  0  0  0  0  0
  191.8150  173.2760  144.0850 C   0  0  1  0  0  3  0  0  0  0  0  0
  189.3740  177.4260  143.2090 C   0  0  0  0  0  2  0  0  0  0  0  0
  188.8360  173.9930  137.8520 C   0  0  0  0  0  3  0  0  0  0  0  0
  188.0380  176.2640  141.6690 C   0  0  2  0  0  3  0  0  0  0  0  0
  190.7500  175.2040  145.2650 C   0  0  0  0  0  0  0  0  0  0  0  0
  188.2570  174.2100  140.2580 C   0  0  0  0  0  2  0  0  0  0  0  0
  187.7640  177.7390  141.5740 C   0  0  2  0  0  3  0  0  0  0  0  0
  187.8160  174.9160  137.3110 C   0  0  0  0  0  3  0  0  0  0  0  0
  191.2960  173.8250  145.4150 C   0  0  0  0  0  2  0  0  0  0  0  0
  191.3220  172.8080  141.5950 C   0  0  1  0  0  3  0  0  0  0  0  0
  191.5540  173.2880  138.9330 C   0  0  0  0  0  1  0  0  0  0  0  0
  186.3820  177.4930  139.5930 C   0  0  0  0  0  2  0  0  0  0  0  0
  187.0190  175.7760  137.9540 C   0  0  0  0  0  3  0  0  0  0  0  0
  190.1870  172.4120  140.8530 O   0  0  0  0  0  0  0  0  0  0  0  0
  189.2870  175.3710  145.0120 C   0  0  0  0  0  2  0  0  0  0  0  0
  189.2160  176.1130  142.5440 N   0  0  2  0  0  0  0  0  0  0  0  0
  186.8980  176.0460  139.4280 C   0  0  1  0  0  3  0  0  0  0  0  0
  189.3360  173.6580  143.0980 C   0  0  0  0  0  2  0  0  0  0  0  0
  189.0950  173.6820  139.1340 C   0  0  0  0  0  0  0  0  0  0  0  0
  188.1550  178.2870  142.9170 C   0  0  1  0  0  3  0  0  0  0  0  0
  189.9850  171.4120  138.7150 C   0  0  0  0  0  1  0  0  0  0  0  0
  188.8970  175.0650  143.5450 C   0  0  1  0  0  3  0  0  0  0  0  0
  191.4920  176.1730  145.2940 O   0  0  0  0  0  0  0  0  0  0  0  0
  191.4350  174.3220  141.7750 C   0  0  0  0  0  2  0  0  0  0  0  0
  186.3680  177.9660  141.0460 C   0  0  0  0  0  2  0  0  0  0  0  0
  185.7410  178.1020  143.7330 C   0  0  0  0  0  3  0  0  0  0  0  0
  187.1200  178.1350  144.0080 C   0  0  0  0  0  0  0  0  0  0  0  0
  187.5560  177.9150  145.3200 C   0  0  0  0  0  3  0  0  0  0  0  0
  187.0580  177.4730  147.6100 F   0  0  0  0  0  0  0  0  0  0  0  0
  185.2630  177.6570  146.0600 C   0  0  0  0  0  3  0  0  0  0  0  0
  186.6300  177.6780  146.3420 C   0  0  0  0  0  0  0  0  0  0  0  0
  184.8160  177.8700  144.7540 C   0  0  0  0  0  3  0  0  0  0  0  0
  193.4220  171.7030  144.9490 O   0  0  0  0  0  1  0  0  0  0  0  0
  192.2080  171.8110  144.2630 C   0  0  0  0  0  2  0  0  0  0  0  0
  1 27  1  6  0  0  0
  1 21  1  0  0  0  0
  1  4  1  0  0  0  0
  2 17  1  0  0  0  0
  3  9  1  1  0  0  0
  3  7  1  0  0  0  0
  4 37  1  1  0  0  0
  4 12  1  0  0  0  0
  6 22  2  0  0  0  0
  7 19  1  0  0  0  0
  8 26  2  0  0  0  0
  8 12  1  0  0  0  0
 10  7  1  0  0  0  0
 10 23  1  0  0  0  0
 11  6  1  0  0  0  0
 11 16  2  0  0  0  0
 13 27  1  0  0  0  0
 13  1  1  0  0  0  0
 14  2  1  0  0  0  0
 15 28  1  0  0  0  0
 16 20  1  0  0  0  0
 17 13  1  0  0  0  0
 18  8  1  0  0  0  0
 19  5  1  0  0  0  0
 19 25  1  0  0  0  0
 20 15  1  0  0  0  0
 20  3  1  0  0  0  0
 21 25  1  0  0  0  0
 22  2  1  0  0  0  0
 22  9  1  0  0  0  0
 23  5  1  0  0  0  0
 23 30  1  0  0  0  0
 24  2  1  0  0  0  0
 25 18  1  0  0  0  0
 28 10  1  0  0  0  0
 29 30  2  0  0  0  0
 29 35  1  0  0  0  0
 30 31  1  0  0  0  0
 31 34  2  0  0  0  0
 33 34  1  0  0  0  0
 34 32  1  0  0  0  0
 35 33  2  0  0  0  0
 37 36  1  0  0  0  0
M  END
>  <MODEL>
5

>  <REMARK>
 VINA RESULT:      -7.9      2.574      5.750
  Name = 
  2 active torsions:
  status: ('A' for Active; 'I' for Inactive)
    1  A    between atoms: C_5  and  C_23
    2  A    between atoms: C_6  and  C_31
                            x       y       z     vdW  Elec       q    Type
                         _______ _______ _______ _____ _____    ______ ____

>  <TORSDO>
F 2

$$$$
=
 OpenBabel11052419553D

 37 43  0  0  1  0  0  0  0  0999 V2000
  193.6310  172.7300  143.7740 C   0  0  1  0  0  0  0  0  0  0  0  0
  192.8530  175.6690  145.6560 C   0  0  0  0  0  0  0  0  0  0  0  0
  190.1560  175.3270  143.1280 C   0  0  1  0  0  3  0  0  0  0  0  0
  194.4360  171.4160  143.7480 C   0  0  1  0  0  3  0  0  0  0  0  0
  189.9810  171.9530  141.7960 C   0  0  0  0  0  2  0  0  0  0  0  0
  190.8540  177.1180  145.4490 C   0  0  0  0  0  3  0  0  0  0  0  0
  190.2210  174.2790  141.9990 C   0  0  2  0  0  3  0  0  0  0  0  0
  193.0140  170.5930  141.8650 C   0  0  0  0  0  0  0  0  0  0  0  0
  191.5420  175.8540  143.4240 C   0  0  0  0  0  2  0  0  0  0  0  0
  188.8090  173.9420  141.6050 C   0  0  2  0  0  3  0  0  0  0  0  0
  189.6550  177.7730  144.8850 C   0  0  0  0  0  3  0  0  0  0  0  0
  194.4000  170.6790  142.4080 C   0  0  0  0  0  2  0  0  0  0  0  0
  193.7880  173.5330  145.0730 C   0  0  1  0  0  3  0  0  0  0  0  0
  192.3160  174.9160  146.8880 C   0  0  0  0  0  1  0  0  0  0  0  0
  188.0370  176.2240  141.9030 C   0  0  0  0  0  2  0  0  0  0  0  0
  189.0220  177.5410  143.7300 C   0  0  0  0  0  3  0  0  0  0  0  0
  193.6840  174.9110  144.7780 O   0  0  0  0  0  0  0  0  0  0  0  0
  192.5520  171.6480  140.9140 C   0  0  0  0  0  2  0  0  0  0  0  0
  190.8780  173.0010  142.3330 N   0  0  2  0  0  0  0  0  0  0  0  0
  189.3530  176.5600  142.6400 C   0  0  1  0  0  3  0  0  0  0  0  0
  193.3370  173.5260  142.4800 C   0  0  0  0  0  2  0  0  0  0  0  0
  191.6880  176.2410  144.8640 C   0  0  0  0  0  0  0  0  0  0  0  0
  188.9100  172.6020  140.9330 C   0  0  1  0  0  3  0  0  0  0  0  0
  193.6990  176.8190  146.1830 C   0  0  0  0  0  1  0  0  0  0  0  0
  192.1820  172.9730  141.6260 C   0  0  1  0  0  3  0  0  0  0  0  0
  192.2570  169.7100  142.2330 O   0  0  0  0  0  0  0  0  0  0  0  0
  192.5070  172.7500  144.7840 C   0  0  0  0  0  2  0  0  0  0  0  0
  188.1910  175.1080  140.8720 C   0  0  0  0  0  2  0  0  0  0  0  0
  189.8580  173.7910  138.8800 C   0  0  0  0  0  3  0  0  0  0  0  0
  189.3370  172.6320  139.4830 C   0  0  0  0  0  0  0  0  0  0  0  0
  189.3120  171.4380  138.7530 C   0  0  0  0  0  3  0  0  0  0  0  0
  189.7520  170.2500  136.7320 F   0  0  0  0  0  0  0  0  0  0  0  0
  190.2920  172.5640  136.8430 C   0  0  0  0  0  3  0  0  0  0  0  0
  189.7860  171.4060  137.4360 C   0  0  0  0  0  0  0  0  0  0  0  0
  190.3270  173.7590  137.5650 C   0  0  0  0  0  3  0  0  0  0  0  0
  196.1660  170.9050  145.3460 O   0  0  0  0  0  1  0  0  0  0  0  0
  195.8890  171.6180  144.1740 C   0  0  0  0  0  2  0  0  0  0  0  0
  1 21  1  6  0  0  0
  1 27  1  0  0  0  0
  1 13  1  0  0  0  0
  2 24  1  0  0  0  0
  2 14  1  0  0  0  0
  3  9  1  6  0  0  0
  4  1  1  0  0  0  0
  4 37  1  6  0  0  0
  5 19  1  0  0  0  0
  7 19  1  0  0  0  0
  7  3  1  0  0  0  0
  8 26  2  0  0  0  0
  8 12  1  0  0  0  0
  9 22  1  0  0  0  0
 10  7  1  0  0  0  0
 11  6  1  0  0  0  0
 12  4  1  0  0  0  0
 15 20  1  0  0  0  0
 16 11  2  0  0  0  0
 17 13  1  0  0  0  0
 17  2  1  0  0  0  0
 18 25  1  0  0  0  0
 18  8  1  0  0  0  0
 20  3  1  0  0  0  0
 20 16  1  0  0  0  0
 22  6  2  0  0  0  0
 22  2  1  0  0  0  0
 23 10  1  0  0  0  0
 23  5  1  0  0  0  0
 25 19  1  0  0  0  0
 25 21  1  0  0  0  0
 27 13  1  0  0  0  0
 28 10  1  0  0  0  0
 28 15  1  0  0  0  0
 29 30  1  0  0  0  0
 30 23  1  0  0  0  0
 31 30  2  0  0  0  0
 32 34  1  0  0  0  0
 33 34  2  0  0  0  0
 33 35  1  0  0  0  0
 34 31  1  0  0  0  0
 35 29  2  0  0  0  0
 37 36  1  0  0  0  0
M  END
>  <MODEL>
6

>  <REMARK>
 VINA RESULT:      -7.6      3.154      6.517
  Name = 
  2 active torsions:
  status: ('A' for Active; 'I' for Inactive)
    1  A    between atoms: C_5  and  C_23
    2  A    between atoms: C_6  and  C_31
                            x       y       z     vdW  Elec       q    Type
                         _______ _______ _______ _____ _____    ______ ____

>  <TORSDO>
F 2

$$$$
=
 OpenBabel11052419553D

 37 43  0  0  1  0  0  0  0  0999 V2000
  189.3670  177.2040  145.9930 C   0  0  1  0  0  0  0  0  0  0  0  0
  187.3420  177.1230  143.0460 C   0  0  0  0  0  0  0  0  0  0  0  0
  190.0760  174.6750  142.4800 C   0  0  1  0  0  3  0  0  0  0  0  0
  189.4280  177.6040  147.4800 C   0  0  1  0  0  3  0  0  0  0  0  0
  191.6520  173.6740  145.5940 C   0  0  0  0  0  2  0  0  0  0  0  0
  187.5910  175.6400  141.0760 C   0  0  0  0  0  3  0  0  0  0  0  0
  191.2690  174.5420  143.4470 C   0  0  2  0  0  3  0  0  0  0  0  0
  191.4620  176.1810  147.7700 C   0  0  0  0  0  0  0  0  0  0  0  0
  189.6450  176.1220  142.3880 C   0  0  0  0  0  2  0  0  0  0  0  0
  191.7860  173.1340  143.3460 C   0  0  2  0  0  3  0  0  0  0  0  0
  188.1910  174.7310  140.0780 C   0  0  0  0  0  3  0  0  0  0  0  0
  190.8160  177.4810  148.1110 C   0  0  0  0  0  2  0  0  0  0  0  0
  188.0060  177.4640  145.3310 C   0  0  1  0  0  3  0  0  0  0  0  0
  186.2090  176.2870  143.6700 C   0  0  0  0  0  1  0  0  0  0  0  0
  191.3840  173.0130  140.9550 C   0  0  0  0  0  2  0  0  0  0  0  0
  189.4030  174.1630  140.0640 C   0  0  0  0  0  3  0  0  0  0  0  0
  188.2100  177.7800  143.9690 O   0  0  0  0  0  0  0  0  0  0  0  0
  192.3670  176.1230  146.5830 C   0  0  0  0  0  2  0  0  0  0  0  0
  190.9800  174.7800  144.8740 N   0  0  2  0  0  0  0  0  0  0  0  0
  190.5320  174.3000  141.0460 C   0  0  1  0  0  3  0  0  0  0  0  0
  190.6190  177.2630  145.0850 C   0  0  0  0  0  2  0  0  0  0  0  0
  188.1740  176.2410  142.1270 C   0  0  0  0  0  0  0  0  0  0  0  0
  192.5420  172.9120  144.6250 C   0  0  1  0  0  3  0  0  0  0  0  0
  186.6760  178.2080  142.2140 C   0  0  0  0  0  1  0  0  0  0  0  0
  191.5920  176.0800  145.2430 C   0  0  1  0  0  3  0  0  0  0  0  0
  191.2130  175.1760  148.4150 O   0  0  0  0  0  0  0  0  0  0  0  0
  188.4420  176.0450  145.6980 C   0  0  0  0  0  2  0  0  0  0  0  0
  192.4780  172.9380  142.0180 C   0  0  0  0  0  2  0  0  0  0  0  0
  194.3440  174.5570  143.8650 C   0  0  0  0  0  3  0  0  0  0  0  0
  193.9520  173.4580  144.6510 C   0  0  0  0  0  0  0  0  0  0  0  0
  194.8630  172.9170  145.5650 C   0  0  0  0  0  3  0  0  0  0  0  0
  197.0290  172.9240  146.5650 F   0  0  0  0  0  0  0  0  0  0  0  0
  196.5310  174.5410  144.8920 C   0  0  0  0  0  3  0  0  0  0  0  0
  196.1500  173.4560  145.6840 C   0  0  0  0  0  0  0  0  0  0  0  0
  195.6290  175.0920  143.9800 C   0  0  0  0  0  3  0  0  0  0  0  0
  187.6790  178.9610  148.4310 O   0  0  0  0  0  1  0  0  0  0  0  0
  188.8850  179.0110  147.7240 C   0  0  0  0  0  2  0  0  0  0  0  0
  1 21  1  6  0  0  0
  1  4  1  0  0  0  0
  2 14  1  0  0  0  0
  2 17  1  0  0  0  0
  3  9  1  6  0  0  0
  3  7  1  0  0  0  0
  4 37  1  6  0  0  0
  4 12  1  0  0  0  0
  6 22  2  0  0  0  0
  7 19  1  0  0  0  0
  8 12  1  0  0  0  0
  8 26  2  0  0  0  0
 10  7  1  0  0  0  0
 10 23  1  0  0  0  0
 11  6  1  0  0  0  0
 13 27  1  0  0  0  0
 13  1  1  0  0  0  0
 15 20  1  0  0  0  0
 15 28  1  0  0  0  0
 16 11  2  0  0  0  0
 16 20  1  0  0  0  0
 17 13  1  0  0  0  0
 18  8  1  0  0  0  0
 19 25  1  0  0  0  0
 19  5  1  0  0  0  0
 20  3  1  0  0  0  0
 21 25  1  0  0  0  0
 22  9  1  0  0  0  0
 22  2  1  0  0  0  0
 23 30  1  0  0  0  0
 23  5  1  0  0  0  0
 24  2  1  0  0  0  0
 25 18  1  0  0  0  0
 27  1  1  0  0  0  0
 28 10  1  0  0  0  0
 29 35  2  0  0  0  0
 29 30  1  0  0  0  0
 30 31  2  0  0  0  0
 31 34  1  0  0  0  0
 33 34  2  0  0  0  0
 34 32  1  0  0  0  0
 35 33  1  0  0  0  0
 37 36  1  0  0  0  0
M  END
>  <MODEL>
7

>  <REMARK>
 VINA RESULT:      -7.6      3.278      7.452
  Name = 
  2 active torsions:
  status: ('A' for Active; 'I' for Inactive)
    1  A    between atoms: C_5  and  C_23
    2  A    between atoms: C_6  and  C_31
                            x       y       z     vdW  Elec       q    Type
                         _______ _______ _______ _____ _____    ______ ____

>  <TORSDO>
F 2

$$$$
=
 OpenBabel11052419553D

 37 43  0  0  1  0  0  0  0  0999 V2000
  188.1590  175.6530  142.3990 C   0  0  1  0  0  0  0  0  0  0  0  0
  188.8290  173.7190  139.4670 C   0  0  0  0  0  0  0  0  0  0  0  0
  191.6600  173.0850  141.7830 C   0  0  1  0  0  3  0  0  0  0  0  0
  187.0790  176.3990  143.2090 C   0  0  1  0  0  3  0  0  0  0  0  0
  190.8190  173.9560  145.2060 C   0  0  0  0  0  2  0  0  0  0  0  0
  190.7050  172.1470  139.0830 C   0  0  0  0  0  3  0  0  0  0  0  0
  191.8390  173.8760  143.0940 C   0  0  2  0  0  3  0  0  0  0  0  0
  188.6020  176.4330  145.1900 C   0  0  0  0  0  0  0  0  0  0  0  0
  191.0930  173.9850  140.7090 C   0  0  0  0  0  2  0  0  0  0  0  0
  192.5910  173.0010  144.0580 C   0  0  2  0  0  3  0  0  0  0  0  0
  192.0180  171.4790  139.2100 C   0  0  0  0  0  3  0  0  0  0  0  0
  187.6220  177.2140  144.3830 C   0  0  0  0  0  2  0  0  0  0  0  0
  187.6250  174.9530  141.1410 C   0  0  1  0  0  3  0  0  0  0  0  0
  187.8170  172.6050  139.7920 C   0  0  0  0  0  1  0  0  0  0  0  0
  193.9960  172.0570  142.3190 C   0  0  0  0  0  2  0  0  0  0  0  0
  192.9880  171.6740  140.1100 C   0  0  0  0  0  3  0  0  0  0  0  0
  188.6320  174.9560  140.1500 O   0  0  0  0  0  0  0  0  0  0  0  0
  190.0550  176.5600  144.8680 C   0  0  0  0  0  2  0  0  0  0  0  0
  190.5990  174.2870  143.7800 N   0  0  2  0  0  0  0  0  0  0  0  0
  193.0510  172.6510  141.2500 C   0  0  1  0  0  3  0  0  0  0  0  0
  189.6290  176.1350  142.3710 C   0  0  0  0  0  2  0  0  0  0  0  0
  190.2380  173.2190  139.7450 C   0  0  0  0  0  0  0  0  0  0  0  0
  192.2760  173.5690  145.4130 C   0  0  1  0  0  3  0  0  0  0  0  0
  188.6960  174.0090  137.9800 C   0  0  0  0  0  1  0  0  0  0  0  0
  190.4610  175.7540  143.6100 C   0  0  1  0  0  3  0  0  0  0  0  0
  188.2200  175.6650  146.0580 O   0  0  0  0  0  0  0  0  0  0  0  0
  187.9990  174.1500  142.3870 C   0  0  0  0  0  2  0  0  0  0  0  0
  194.0270  172.8670  143.6140 C   0  0  0  0  0  2  0  0  0  0  0  0
  194.2580  175.1560  145.1290 C   0  0  0  0  0  3  0  0  0  0  0  0
  193.0950  174.7720  145.8210 C   0  0  0  0  0  0  0  0  0  0  0  0
  192.6200  175.5870  146.8550 C   0  0  0  0  0  3  0  0  0  0  0  0
  192.8410  177.5410  148.2060 F   0  0  0  0  0  0  0  0  0  0  0  0
  194.4600  177.1270  146.5130 C   0  0  0  0  0  3  0  0  0  0  0  0
  193.3020  176.7600  147.2010 C   0  0  0  0  0  0  0  0  0  0  0  0
  194.9410  176.3240  145.4760 C   0  0  0  0  0  3  0  0  0  0  0  0
  186.8310  178.5330  142.1190 O   0  0  0  0  0  1  0  0  0  0  0  0
  186.2120  177.2960  142.3280 C   0  0  0  0  0  2  0  0  0  0  0  0
  1 21  1  6  0  0  0
  1  4  1  0  0  0  0
  2 22  1  0  0  0  0
  2 14  1  0  0  0  0
  2 17  1  0  0  0  0
  3  9  1  6  0  0  0
  3  7  1  0  0  0  0
  4 37  1  6  0  0  0
  4 12  1  0  0  0  0
  5 23  1  0  0  0  0
  6 11  1  0  0  0  0
  6 22  2  0  0  0  0
  7 19  1  0  0  0  0
  7 10  1  0  0  0  0
  8 26  2  0  0  0  0
 10 23  1  0  0  0  0
 11 16  2  0  0  0  0
 12  8  1  0  0  0  0
 13 27  1  0  0  0  0
 13  1  1  0  0  0  0
 15 28  1  0  0  0  0
 16 20  1  0  0  0  0
 17 13  1  0  0  0  0
 18  8  1  0  0  0  0
 19  5  1  0  0  0  0
 20  3  1  0  0  0  0
 20 15  1  0  0  0  0
 21 25  1  0  0  0  0
 22  9  1  0  0  0  0
 23 30  1  0  0  0  0
 24  2  1  0  0  0  0
 25 19  1  0  0  0  0
 25 18  1  0  0  0  0
 27  1  1  0  0  0  0
 28 10  1  0  0  0  0
 29 35  2  0  0  0  0
 29 30  1  0  0  0  0
 30 31  2  0  0  0  0
 31 34  1  0  0  0  0
 33 34  2  0  0  0  0
 34 32  1  0  0  0  0
 35 33  1  0  0  0  0
 36 37  1  0  0  0  0
M  END
>  <MODEL>
8

>  <REMARK>
 VINA RESULT:      -7.6      2.290      5.373
  Name = 
  2 active torsions:
  status: ('A' for Active; 'I' for Inactive)
    1  A    between atoms: C_5  and  C_23
    2  A    between atoms: C_6  and  C_31
                            x       y       z     vdW  Elec       q    Type
                         _______ _______ _______ _____ _____    ______ ____

>  <TORSDO>
F 2

$$$$
=
 OpenBabel11052419553D

 37 43  0  0  1  0  0  0  0  0999 V2000
  189.6160  175.2270  143.4390 C   0  0  1  0  0  0  0  0  0  0  0  0
  192.1710  176.0900  145.7880 C   0  0  0  0  0  0  0  0  0  0  0  0
  193.5770  173.3610  143.6990 C   0  0  1  0  0  3  0  0  0  0  0  0
  188.3140  175.6870  142.7540 C   0  0  1  0  0  3  0  0  0  0  0  0
  191.7670  172.9900  140.5740 C   0  0  0  0  0  2  0  0  0  0  0  0
  194.4730  175.1840  145.9250 C   0  0  0  0  0  3  0  0  0  0  0  0
  192.7190  172.5850  142.6800 C   0  0  2  0  0  3  0  0  0  0  0  0
  188.6020  173.9010  141.0290 C   0  0  0  0  0  0  0  0  0  0  0  0
  192.7450  173.7150  144.9120 C   0  0  0  0  0  2  0  0  0  0  0  0
  193.6350  172.0830  141.5990 C   0  0  2  0  0  3  0  0  0  0  0  0
  195.6330  174.2830  145.7610 C   0  0  0  0  0  3  0  0  0  0  0  0
  187.6310  174.6100  141.9100 C   0  0  0  0  0  2  0  0  0  0  0  0
  190.2200  176.2660  144.3950 C   0  0  1  0  0  3  0  0  0  0  0  0
  192.6030  177.3800  145.0670 C   0  0  0  0  0  1  0  0  0  0  0  0
  195.4410  171.6220  143.1540 C   0  0  0  0  0  2  0  0  0  0  0  0
  195.7380  173.1510  145.0560 C   0  0  0  0  0  3  0  0  0  0  0  0
  190.8770  175.5930  145.4500 O   0  0  0  0  0  0  0  0  0  0  0  0
  189.2270  172.6380  141.5250 C   0  0  0  0  0  2  0  0  0  0  0  0
  191.6570  173.3540  142.0050 N   0  0  2  0  0  0  0  0  0  0  0  0
  194.6990  172.4360  144.2380 C   0  0  1  0  0  3  0  0  0  0  0  0
  189.8840  173.7360  143.7530 C   0  0  0  0  0  2  0  0  0  0  0  0
  193.2010  174.9990  145.5350 C   0  0  0  0  0  0  0  0  0  0  0  0
  192.7340  171.8260  140.4250 C   0  0  1  0  0  3  0  0  0  0  0  0
  192.1490  176.4090  147.2750 C   0  0  0  0  0  1  0  0  0  0  0  0
  190.3570  172.8950  142.5530 C   0  0  1  0  0  3  0  0  0  0  0  0
  188.9200  174.3730  139.9500 O   0  0  0  0  0  0  0  0  0  0  0  0
  190.8450  176.0040  143.0250 C   0  0  0  0  0  2  0  0  0  0  0  0
  194.5020  170.9720  142.1400 C   0  0  0  0  0  2  0  0  0  0  0  0
  191.7870  169.7870  141.6380 C   0  0  0  0  0  3  0  0  0  0  0  0
  191.9930  170.5090  140.4490 C   0  0  0  0  0  0  0  0  0  0  0  0
  191.4040  170.0500  139.2650 C   0  0  0  0  0  3  0  0  0  0  0  0
  190.0700  168.4400  138.1170 F   0  0  0  0  0  0  0  0  0  0  0  0
  190.4410  168.1680  140.4510 C   0  0  0  0  0  3  0  0  0  0  0  0
  190.6320  168.8820  139.2660 C   0  0  0  0  0  0  0  0  0  0  0  0
  191.0210  168.6190  141.6390 C   0  0  0  0  0  3  0  0  0  0  0  0
  186.0260  176.2980  143.1930 O   0  0  0  0  0  1  0  0  0  0  0  0
  187.3090  176.2630  143.7490 C   0  0  0  0  0  2  0  0  0  0  0  0
  1 27  1  6  0  0  0
  1 21  1  0  0  0  0
  1 13  1  0  0  0  0
  2 24  1  0  0  0  0
  3 20  1  0  0  0  0
  3  9  1  1  0  0  0
  4  1  1  0  0  0  0
  4 37  1  1  0  0  0
  5 19  1  0  0  0  0
  7  3  1  0  0  0  0
  8 18  1  0  0  0  0
  8 12  1  0  0  0  0
  9 22  1  0  0  0  0
 10 28  1  0  0  0  0
 10  7  1  0  0  0  0
 11  6  1  0  0  0  0
 12  4  1  0  0  0  0
 13 17  1  0  0  0  0
 14  2  1  0  0  0  0
 15 20  1  0  0  0  0
 16 11  2  0  0  0  0
 17  2  1  0  0  0  0
 18 25  1  0  0  0  0
 19 25  1  0  0  0  0
 19  7  1  0  0  0  0
 20 16  1  0  0  0  0
 22  2  1  0  0  0  0
 22  6  2  0  0  0  0
 23 30  1  0  0  0  0
 23  5  1  0  0  0  0
 23 10  1  0  0  0  0
 25 21  1  0  0  0  0
 26  8  2  0  0  0  0
 27 13  1  0  0  0  0
 28 15  1  0  0  0  0
 29 35  1  0  0  0  0
 30 29  2  0  0  0  0
 31 34  2  0  0  0  0
 31 30  1  0  0  0  0
 32 34  1  0  0  0  0
 33 35  2  0  0  0  0
 34 33  1  0  0  0  0
 36 37  1  0  0  0  0
M  END
>  <MODEL>
9

>  <REMARK>
 VINA RESULT:      -7.3      3.061      6.243
  Name = 
  2 active torsions:
  status: ('A' for Active; 'I' for Inactive)
    1  A    between atoms: C_5  and  C_23
    2  A    between atoms: C_6  and  C_31
                            x       y       z     vdW  Elec       q    Type
                         _______ _______ _______ _____ _____    ______ ____

>  <TORSDO>
F 2

$$$$
