=
 OpenBabel11052421023D

 43 47  0  0  1  0  0  0  0  0999 V2000
  189.1420  173.8940  138.2250 C   0  0  0  0  0  0  0  0  0  0  0  0
  192.5490  172.6690  141.7600 C   0  0  0  0  0  0  0  0  0  0  0  0
  191.3760  173.3590  144.1880 C   0  0  0  0  0  0  0  0  0  0  0  0
  191.1200  173.1070  139.3810 C   0  0  0  0  0  0  0  0  0  0  0  0
  188.5670  174.2590  139.4460 C   0  0  0  0  0  3  0  0  0  0  0  0
  188.4460  174.1040  137.0430 O   0  0  0  0  0  1  0  0  0  0  0  0
  190.5430  173.4710  140.6210 C   0  0  0  0  0  0  0  0  0  0  0  0
  190.4150  173.3200  138.1920 C   0  0  0  0  0  3  0  0  0  0  0  0
  189.2620  174.0490  140.6400 C   0  0  0  0  0  3  0  0  0  0  0  0
  190.7140  173.5760  143.0200 N   0  0  0  0  0  0  0  0  0  0  0  0
  191.2560  173.2480  141.8140 C   0  0  0  0  0  0  0  0  0  0  0  0
  193.1010  172.3160  140.5220 C   0  0  0  0  0  3  0  0  0  0  0  0
  193.2490  172.4540  142.9610 C   0  0  0  0  0  0  0  0  0  0  0  0
  192.6540  172.8010  144.1760 C   0  0  0  0  0  3  0  0  0  0  0  0
  192.3910  172.5330  139.3400 C   0  0  0  0  0  3  0  0  0  0  0  0
  190.7470  173.7390  145.4800 C   0  0  0  0  0  2  0  0  0  0  0  0
  191.3680  175.0280  146.0080 C   0  0  0  0  0  2  0  0  0  0  0  0
  189.2840  174.9180  147.3800 C   0  0  0  0  0  1  0  0  0  0  0  0
  190.4330  175.8110  146.9310 C   0  0  0  0  0  0  0  0  0  0  0  0
  191.2060  176.3020  148.1490 C   0  0  0  0  0  1  0  0  0  0  0  0
  189.8900  176.9990  146.1300 C   0  0  0  0  0  2  0  0  0  0  0  0
  189.6710  176.7060  144.6480 C   0  0  2  0  0  3  0  0  0  0  0  0
  188.1220  178.1460  142.4840 C   0  0  0  0  0  2  0  0  0  0  0  0
  187.4760  177.6980  143.8150 C   0  0  2  0  0  3  0  0  0  0  0  0
  190.2540  177.8580  143.8200 C   0  0  0  0  0  2  0  0  0  0  0  0
  188.1830  176.4470  144.3660 C   0  0  1  0  0  3  0  0  0  0  0  0
  188.0500  175.3860  143.4860 F   0  0  0  0  0  0  0  0  0  0  0  0
  189.6340  177.8960  142.4230 C   0  0  0  0  0  2  0  0  0  0  0  0
  186.0250  177.4860  143.6660 N   0  0  0  0  0  0  0  0  0  0  0  0
  185.3500  178.3270  145.9060 C   0  0  0  0  0  2  0  0  0  0  0  0
  185.3030  179.8010  144.2070 C   0  0  0  0  0  2  0  0  0  0  0  0
  184.5780  179.3420  145.3190 O   0  0  0  0  0  0  0  0  0  0  0  0
  185.3720  178.7010  143.1410 C   0  0  0  0  0  2  0  0  0  0  0  0
  185.4230  177.1210  144.9630 C   0  0  0  0  0  2  0  0  0  0  0  0
  194.8900  171.7280  142.9930 S   0  0  0  0  0  0  0  0  0  0  0  0
  195.6430  173.2280  143.7040 C   0  0  1  0  0  3  0  0  0  0  0  0
  196.7650  172.8540  144.6560 C   0  0  0  0  0  1  0  0  0  0  0  0
  196.1150  174.1940  142.6150 C   0  0  0  0  0  2  0  0  0  0  0  0
  195.7790  175.6540  142.9170 C   0  0  2  0  0  3  0  0  0  0  0  0
  196.8230  176.2630  143.6200 O   0  0  0  0  0  1  0  0  0  0  0  0
  194.5620  176.6850  144.8900 C   0  0  0  0  0  1  0  0  0  0  0  0
  193.3490  176.2140  142.7770 C   0  0  0  0  0  1  0  0  0  0  0  0
  194.4650  175.7520  143.6920 C   0  0  0  0  0  3  0  0  0  0  0  0
  1  5  1  0  0  0  0
  2 11  1  0  0  0  0
  2 13  1  0  0  0  0
  3 16  1  0  0  0  0
  4  7  1  0  0  0  0
  5  9  2  0  0  0  0
  6  1  1  0  0  0  0
  7  9  1  0  0  0  0
  7 11  2  0  0  0  0
  8  1  2  0  0  0  0
  8  4  1  0  0  0  0
 10  3  2  0  0  0  0
 11 10  1  0  0  0  0
 12  2  2  0  0  0  0
 13 35  1  0  0  0  0
 13 14  2  0  0  0  0
 14  3  1  0  0  0  0
 15  4  2  0  0  0  0
 15 12  1  0  0  0  0
 16 17  1  0  0  0  0
 17 19  1  0  0  0  0
 19 18  1  0  0  0  0
 19 20  1  0  0  0  0
 21 19  1  0  0  0  0
 22 21  1  1  0  0  0
 24 23  1  6  0  0  0
 24 26  1  0  0  0  0
 25 22  1  0  0  0  0
 26 27  1  6  0  0  0
 26 22  1  0  0  0  0
 28 23  1  0  0  0  0
 28 25  1  0  0  0  0
 29 24  1  0  0  0  0
 29 34  1  0  0  0  0
 31 32  1  0  0  0  0
 32 30  1  0  0  0  0
 33 29  1  0  0  0  0
 33 31  1  0  0  0  0
 34 30  1  0  0  0  0
 35 36  1  0  0  0  0
 36 37  1  6  0  0  0
 38 39  1  0  0  0  0
 38 36  1  0  0  0  0
 39 40  1  1  0  0  0
 39 43  1  0  0  0  0
 42 43  1  0  0  0  0
 43 41  1  0  0  0  0
M  END
>  <MODEL>
1

>  <REMARK>
 VINA RESULT:      -7.2      0.000      0.000
  Name = 
  11 active torsions:
  status: ('A' for Active; 'I' for Inactive)
    1  A    between atoms: C_1  and  C_9
    2  A    between atoms: C_1  and  S_35
    3  A    between atoms: C_2  and  C_6
    4  A    between atoms: C_2  and  C_13
    5  A    between atoms: C_3  and  C_4
    6  A    between atoms: C_3  and  C_12
    7  A    between atoms: C_6  and  C_12
    8  A    between atoms: C_9  and  C_32
    9  A    between atoms: N_11  and  C_14
   10  A    between atoms: C_32  and  C_37
   11  A    between atoms: C_34  and  S_35
                            x       y       z     vdW  Elec       q    Type
                         _______ _______ _______ _____ _____    ______ ____

>  <TORSDO>
F 11

$$$$
=
 OpenBabel11052421023D

 43 47  0  0  1  0  0  0  0  0999 V2000
  190.6110  171.3360  140.6870 C   0  0  0  0  0  0  0  0  0  0  0  0
  188.7250  175.8340  142.0370 C   0  0  0  0  0  0  0  0  0  0  0  0
  190.3850  176.7510  144.0730 C   0  0  0  0  0  0  0  0  0  0  0  0
  189.2690  173.3470  140.8480 C   0  0  0  0  0  0  0  0  0  0  0  0
  191.4290  171.7920  141.7240 C   0  0  0  0  0  3  0  0  0  0  0  0
  190.8700  170.1100  140.0900 O   0  0  0  0  0  1  0  0  0  0  0  0
  190.0950  173.8160  141.8980 C   0  0  0  0  0  0  0  0  0  0  0  0
  189.5340  172.1110  140.2480 C   0  0  0  0  0  3  0  0  0  0  0  0
  191.1740  173.0270  142.3280 C   0  0  0  0  0  3  0  0  0  0  0  0
  190.6160  175.5430  143.4920 N   0  0  0  0  0  0  0  0  0  0  0  0
  189.8250  175.0640  142.4900 C   0  0  0  0  0  0  0  0  0  0  0  0
  187.9210  175.3500  140.9960 C   0  0  0  0  0  3  0  0  0  0  0  0
  188.4680  177.0770  142.6420 C   0  0  0  0  0  0  0  0  0  0  0  0
  189.3070  177.5320  143.6610 C   0  0  0  0  0  3  0  0  0  0  0  0
  188.1910  174.1150  140.4050 C   0  0  0  0  0  3  0  0  0  0  0  0
  191.2710  177.2300  145.1670 C   0  0  0  0  0  2  0  0  0  0  0  0
  192.7070  176.7800  144.9150 C   0  0  0  0  0  2  0  0  0  0  0  0
  194.2390  176.7670  146.8870 C   0  0  0  0  0  1  0  0  0  0  0  0
  193.2780  175.9320  146.0510 C   0  0  0  0  0  0  0  0  0  0  0  0
  192.1440  175.4210  146.9310 C   0  0  0  0  0  1  0  0  0  0  0  0
  194.0270  174.7570  145.4120 C   0  0  0  0  0  2  0  0  0  0  0  0
  195.5470  174.8880  145.4510 C   0  0  2  0  0  3  0  0  0  0  0  0
  197.7660  173.4210  144.0090 C   0  0  0  0  0  2  0  0  0  0  0  0
  196.6890  172.6910  144.8440 C   0  0  2  0  0  3  0  0  0  0  0  0
  196.0510  175.2830  144.0580 C   0  0  0  0  0  2  0  0  0  0  0  0
  196.1840  173.5940  145.9830 C   0  0  1  0  0  3  0  0  0  0  0  0
  197.2160  173.9040  146.8530 F   0  0  0  0  0  0  0  0  0  0  0  0
  197.5280  174.9320  143.8890 C   0  0  0  0  0  2  0  0  0  0  0  0
  197.1830  171.3980  145.3490 N   0  0  0  0  0  0  0  0  0  0  0  0
  195.0260  170.1660  145.2280 C   0  0  0  0  0  2  0  0  0  0  0  0
  196.4010  169.9930  143.4550 C   0  0  0  0  0  2  0  0  0  0  0  0
  195.5730  169.2510  144.3140 O   0  0  0  0  0  0  0  0  0  0  0  0
  197.6070  170.5310  144.2330 C   0  0  0  0  0  2  0  0  0  0  0  0
  196.1330  170.7180  146.1330 C   0  0  0  0  0  2  0  0  0  0  0  0
  187.0980  178.1210  142.1350 S   0  0  0  0  0  0  0  0  0  0  0  0
  186.4670  178.2800  143.8380 C   0  0  1  0  0  3  0  0  0  0  0  0
  185.6810  179.5700  143.9900 C   0  0  0  0  0  1  0  0  0  0  0  0
  185.6440  177.0570  144.2500 C   0  0  0  0  0  2  0  0  0  0  0  0
  185.6720  176.7930  145.7560 C   0  0  2  0  0  3  0  0  0  0  0  0
  184.5430  177.3430  146.3710 O   0  0  0  0  0  1  0  0  0  0  0  0
  186.6870  178.2900  147.5340 C   0  0  0  0  0  1  0  0  0  0  0  0
  187.8450  176.2080  146.8380 C   0  0  0  0  0  1  0  0  0  0  0  0
  186.9560  177.3440  146.3730 C   0  0  0  0  0  3  0  0  0  0  0  0
  1  5  1  0  0  0  0
  2 11  1  0  0  0  0
  2 13  1  0  0  0  0
  3 16  1  0  0  0  0
  4  7  1  0  0  0  0
  5  9  2  0  0  0  0
  6  1  1  0  0  0  0
  7  9  1  0  0  0  0
  7 11  2  0  0  0  0
  8  1  2  0  0  0  0
  8  4  1  0  0  0  0
 10  3  2  0  0  0  0
 11 10  1  0  0  0  0
 12  2  2  0  0  0  0
 13 14  2  0  0  0  0
 14  3  1  0  0  0  0
 15  4  2  0  0  0  0
 15 12  1  0  0  0  0
 17 16  1  0  0  0  0
 17 19  1  0  0  0  0
 19 18  1  0  0  0  0
 19 20  1  0  0  0  0
 21 19  1  0  0  0  0
 22 21  1  6  0  0  0
 22 26  1  0  0  0  0
 24 23  1  1  0  0  0
 24 29  1  0  0  0  0
 24 26  1  0  0  0  0
 25 22  1  0  0  0  0
 26 27  1  1  0  0  0
 28 23  1  0  0  0  0
 28 25  1  0  0  0  0
 29 34  1  0  0  0  0
 30 34  1  0  0  0  0
 31 33  1  0  0  0  0
 31 32  1  0  0  0  0
 32 30  1  0  0  0  0
 33 29  1  0  0  0  0
 35 13  1  0  0  0  0
 35 36  1  0  0  0  0
 36 37  1  6  0  0  0
 36 38  1  0  0  0  0
 38 39  1  0  0  0  0
 39 40  1  1  0  0  0
 39 43  1  0  0  0  0
 43 42  1  0  0  0  0
 43 41  1  0  0  0  0
M  END
>  <MODEL>
2

>  <REMARK>
 VINA RESULT:      -7.1      3.259      8.359
  Name = 
  11 active torsions:
  status: ('A' for Active; 'I' for Inactive)
    1  A    between atoms: C_1  and  C_9
    2  A    between atoms: C_1  and  S_35
    3  A    between atoms: C_2  and  C_6
    4  A    between atoms: C_2  and  C_13
    5  A    between atoms: C_3  and  C_4
    6  A    between atoms: C_3  and  C_12
    7  A    between atoms: C_6  and  C_12
    8  A    between atoms: C_9  and  C_32
    9  A    between atoms: N_11  and  C_14
   10  A    between atoms: C_32  and  C_37
   11  A    between atoms: C_34  and  S_35
                            x       y       z     vdW  Elec       q    Type
                         _______ _______ _______ _____ _____    ______ ____

>  <TORSDO>
F 11

$$$$
=
 OpenBabel11052421023D

 43 47  0  0  1  0  0  0  0  0999 V2000
  185.1330  177.9910  146.4340 C   0  0  0  0  0  0  0  0  0  0  0  0
  188.4300  175.4510  143.5550 C   0  0  0  0  0  0  0  0  0  0  0  0
  190.5690  174.8540  145.2310 C   0  0  0  0  0  0  0  0  0  0  0  0
  186.2380  176.8700  144.5920 C   0  0  0  0  0  0  0  0  0  0  0  0
  186.2210  177.7070  147.2660 C   0  0  0  0  0  3  0  0  0  0  0  0
  184.0440  178.6900  146.9350 O   0  0  0  0  0  1  0  0  0  0  0  0
  187.3410  176.5760  145.4290 C   0  0  0  0  0  0  0  0  0  0  0  0
  185.1410  177.5730  145.1000 C   0  0  0  0  0  3  0  0  0  0  0  0
  187.3200  177.0030  146.7670 C   0  0  0  0  0  3  0  0  0  0  0  0
  189.5030  175.5540  145.7030 N   0  0  0  0  0  0  0  0  0  0  0  0
  188.4370  175.8620  144.9110 C   0  0  0  0  0  0  0  0  0  0  0  0
  187.3270  175.7520  142.7440 C   0  0  0  0  0  3  0  0  0  0  0  0
  189.5340  174.7400  143.0520 C   0  0  0  0  0  0  0  0  0  0  0  0
  190.6030  174.4420  143.9000 C   0  0  0  0  0  3  0  0  0  0  0  0
  186.2380  176.4560  143.2590 C   0  0  0  0  0  3  0  0  0  0  0  0
  191.7130  174.5470  146.1300 C   0  0  0  0  0  2  0  0  0  0  0  0
  192.3900  175.8380  146.5790 C   0  0  0  0  0  2  0  0  0  0  0  0
  193.1040  177.0220  144.4990 C   0  0  0  0  0  1  0  0  0  0  0  0
  193.5830  176.2250  145.7050 C   0  0  0  0  0  0  0  0  0  0  0  0
  194.5640  177.0620  146.5160 C   0  0  0  0  0  1  0  0  0  0  0  0
  194.2500  174.9250  145.2400 C   0  0  0  0  0  2  0  0  0  0  0  0
  195.7690  174.9140  145.3870 C   0  0  2  0  0  3  0  0  0  0  0  0
  197.9410  173.2750  144.0650 C   0  0  0  0  0  2  0  0  0  0  0  0
  196.7460  172.6320  144.8050 C   0  0  2  0  0  3  0  0  0  0  0  0
  196.4040  175.2870  144.0420 C   0  0  0  0  0  2  0  0  0  0  0  0
  196.2450  173.5570  145.9290 C   0  0  1  0  0  3  0  0  0  0  0  0
  197.2370  173.7530  146.8750 F   0  0  0  0  0  0  0  0  0  0  0  0
  197.8520  174.8030  143.9670 C   0  0  0  0  0  2  0  0  0  0  0  0
  197.0820  171.2890  145.3100 N   0  0  0  0  0  0  0  0  0  0  0  0
  194.8240  170.2790  145.0520 C   0  0  0  0  0  2  0  0  0  0  0  0
  196.2700  169.9960  143.3510 C   0  0  0  0  0  2  0  0  0  0  0  0
  195.3270  169.3280  144.1500 O   0  0  0  0  0  0  0  0  0  0  0  0
  197.4790  170.4010  144.2010 C   0  0  0  0  0  2  0  0  0  0  0  0
  195.9300  170.7060  146.0240 C   0  0  0  0  0  2  0  0  0  0  0  0
  189.6150  174.1800  141.3490 S   0  0  0  0  0  0  0  0  0  0  0  0
  190.6920  172.7690  141.7650 C   0  0  1  0  0  3  0  0  0  0  0  0
  189.9180  171.4660  141.6600 C   0  0  0  0  0  1  0  0  0  0  0  0
  191.9580  172.7530  140.9060 C   0  0  0  0  0  2  0  0  0  0  0  0
  192.5030  174.1500  140.6120 C   0  0  2  0  0  3  0  0  0  0  0  0
  192.8330  174.2740  139.2590 O   0  0  0  0  0  1  0  0  0  0  0  0
  194.4560  173.1950  141.9200 C   0  0  0  0  0  1  0  0  0  0  0  0
  194.6610  175.3960  140.7910 C   0  0  0  0  0  1  0  0  0  0  0  0
  193.7090  174.4530  141.5000 C   0  0  0  0  0  3  0  0  0  0  0  0
  1  6  1  0  0  0  0
  1  5  1  0  0  0  0
  2 11  1  0  0  0  0
  3 10  1  0  0  0  0
  3 16  1  0  0  0  0
  4  8  1  0  0  0  0
  4  7  2  0  0  0  0
  7  9  1  0  0  0  0
  8  1  2  0  0  0  0
  9  5  2  0  0  0  0
 11  7  1  0  0  0  0
 11 10  2  0  0  0  0
 12 15  2  0  0  0  0
 12  2  1  0  0  0  0
 13  2  2  0  0  0  0
 13 14  1  0  0  0  0
 14  3  2  0  0  0  0
 15  4  1  0  0  0  0
 16 17  1  0  0  0  0
 18 19  1  0  0  0  0
 19 20  1  0  0  0  0
 19 17  1  0  0  0  0
 21 19  1  0  0  0  0
 22 21  1  6  0  0  0
 22 26  1  0  0  0  0
 24 23  1  1  0  0  0
 24 29  1  0  0  0  0
 24 26  1  0  0  0  0
 25 22  1  0  0  0  0
 26 27  1  1  0  0  0
 28 25  1  0  0  0  0
 28 23  1  0  0  0  0
 29 34  1  0  0  0  0
 30 34  1  0  0  0  0
 31 32  1  0  0  0  0
 31 33  1  0  0  0  0
 32 30  1  0  0  0  0
 33 29  1  0  0  0  0
 35 36  1  0  0  0  0
 35 13  1  0  0  0  0
 36 37  1  6  0  0  0
 38 36  1  0  0  0  0
 39 40  1  6  0  0  0
 39 38  1  0  0  0  0
 39 43  1  0  0  0  0
 42 43  1  0  0  0  0
 43 41  1  0  0  0  0
M  END
>  <MODEL>
3

>  <REMARK>
 VINA RESULT:      -6.9      3.034      8.066
  Name = 
  11 active torsions:
  status: ('A' for Active; 'I' for Inactive)
    1  A    between atoms: C_1  and  C_9
    2  A    between atoms: C_1  and  S_35
    3  A    between atoms: C_2  and  C_6
    4  A    between atoms: C_2  and  C_13
    5  A    between atoms: C_3  and  C_4
    6  A    between atoms: C_3  and  C_12
    7  A    between atoms: C_6  and  C_12
    8  A    between atoms: C_9  and  C_32
    9  A    between atoms: N_11  and  C_14
   10  A    between atoms: C_32  and  C_37
   11  A    between atoms: C_34  and  S_35
                            x       y       z     vdW  Elec       q    Type
                         _______ _______ _______ _____ _____    ______ ____

>  <TORSDO>
F 11

$$$$
=
 OpenBabel11052421023D

 43 47  0  0  1  0  0  0  0  0999 V2000
  184.2500  178.4230  143.7800 C   0  0  0  0  0  0  0  0  0  0  0  0
  188.2620  175.8800  145.5250 C   0  0  0  0  0  0  0  0  0  0  0  0
  189.3510  174.6040  143.3040 C   0  0  0  0  0  0  0  0  0  0  0  0
  185.9780  177.4830  145.1940 C   0  0  0  0  0  0  0  0  0  0  0  0
  184.7890  177.7630  142.6730 C   0  0  0  0  0  3  0  0  0  0  0  0
  183.1230  179.2190  143.6300 O   0  0  0  0  0  1  0  0  0  0  0  0
  186.5310  176.8130  144.0760 C   0  0  0  0  0  0  0  0  0  0  0  0
  184.8430  178.2840  145.0380 C   0  0  0  0  0  3  0  0  0  0  0  0
  185.9250  176.9610  142.8180 C   0  0  0  0  0  3  0  0  0  0  0  0
  188.2370  175.3720  143.1760 N   0  0  0  0  0  0  0  0  0  0  0  0
  187.6780  176.0140  144.2410 C   0  0  0  0  0  0  0  0  0  0  0  0
  187.6980  176.5520  146.6180 C   0  0  0  0  0  3  0  0  0  0  0  0
  189.4060  175.0750  145.6720 C   0  0  0  0  0  0  0  0  0  0  0  0
  189.9490  174.4400  144.5530 C   0  0  0  0  0  3  0  0  0  0  0  0
  186.5640  177.3480  146.4530 C   0  0  0  0  0  3  0  0  0  0  0  0
  189.9220  173.9190  142.1150 C   0  0  0  0  0  2  0  0  0  0  0  0
  189.9970  172.4150  142.3610 C   0  0  0  0  0  2  0  0  0  0  0  0
  191.3780  170.3370  142.2540 C   0  0  0  0  0  1  0  0  0  0  0  0
  191.2420  171.7690  141.7520 C   0  0  0  0  0  0  0  0  0  0  0  0
  191.1300  171.7710  140.2330 C   0  0  0  0  0  1  0  0  0  0  0  0
  192.4520  172.5970  142.1990 C   0  0  0  0  0  2  0  0  0  0  0  0
  193.3210  171.9160  143.2520 C   0  0  2  0  0  3  0  0  0  0  0  0
  195.3990  172.9680  145.1840 C   0  0  0  0  0  2  0  0  0  0  0  0
  195.4800  173.2090  143.6590 C   0  0  2  0  0  3  0  0  0  0  0  0
  192.9750  172.4870  144.6330 C   0  0  0  0  0  2  0  0  0  0  0  0
  194.8090  172.0560  142.8920 C   0  0  1  0  0  3  0  0  0  0  0  0
  195.4650  170.8620  143.1390 F   0  0  0  0  0  0  0  0  0  0  0  0
  194.1150  172.2550  145.6240 C   0  0  0  0  0  2  0  0  0  0  0  0
  196.8700  173.4240  143.2190 N   0  0  0  0  0  0  0  0  0  0  0  0
  196.3840  175.0730  141.4230 C   0  0  0  0  0  2  0  0  0  0  0  0
  196.9050  175.8970  143.4510 C   0  0  0  0  0  2  0  0  0  0  0  0
  197.1550  176.0480  142.0780 O   0  0  0  0  0  0  0  0  0  0  0  0
  197.4750  174.5600  143.9400 C   0  0  0  0  0  2  0  0  0  0  0  0
  196.9160  173.6770  141.7660 C   0  0  0  0  0  2  0  0  0  0  0  0
  190.2140  174.8460  147.2580 S   0  0  0  0  0  0  0  0  0  0  0  0
  191.4340  176.1610  146.9330 C   0  0  1  0  0  3  0  0  0  0  0  0
  191.4710  177.1430  148.0910 C   0  0  0  0  0  1  0  0  0  0  0  0
  192.8180  175.5840  146.6280 C   0  0  0  0  0  2  0  0  0  0  0  0
  193.4870  176.2330  145.4160 C   0  0  2  0  0  3  0  0  0  0  0  0
  194.0140  177.4820  145.7570 O   0  0  0  0  0  1  0  0  0  0  0  0
  191.8790  177.7390  144.1590 C   0  0  0  0  0  1  0  0  0  0  0  0
  193.1780  176.0040  142.9480 C   0  0  0  0  0  1  0  0  0  0  0  0
  192.4980  176.3520  144.2580 C   0  0  0  0  0  3  0  0  0  0  0  0
  1  8  1  0  0  0  0
  2 13  1  0  0  0  0
  2 12  1  0  0  0  0
  3 14  1  0  0  0  0
  4 15  1  0  0  0  0
  5  9  1  0  0  0  0
  5  1  2  0  0  0  0
  6  1  1  0  0  0  0
  7 11  1  0  0  0  0
  7  4  1  0  0  0  0
  8  4  2  0  0  0  0
  9  7  2  0  0  0  0
 10  3  2  0  0  0  0
 10 11  1  0  0  0  0
 11  2  2  0  0  0  0
 13 35  1  0  0  0  0
 14 13  2  0  0  0  0
 15 12  2  0  0  0  0
 16 17  1  0  0  0  0
 16  3  1  0  0  0  0
 19 21  1  0  0  0  0
 19 18  1  0  0  0  0
 19 17  1  0  0  0  0
 20 19  1  0  0  0  0
 22 21  1  6  0  0  0
 22 25  1  0  0  0  0
 23 28  1  0  0  0  0
 24 29  1  6  0  0  0
 24 23  1  0  0  0  0
 25 28  1  0  0  0  0
 26 27  1  1  0  0  0
 26 22  1  0  0  0  0
 26 24  1  0  0  0  0
 29 33  1  0  0  0  0
 30 34  1  0  0  0  0
 30 32  1  0  0  0  0
 31 33  1  0  0  0  0
 32 31  1  0  0  0  0
 34 29  1  0  0  0  0
 36 35  1  0  0  0  0
 36 37  1  1  0  0  0
 38 36  1  0  0  0  0
 39 40  1  1  0  0  0
 39 38  1  0  0  0  0
 41 43  1  0  0  0  0
 42 43  1  0  0  0  0
 43 39  1  0  0  0  0
M  END
>  <MODEL>
4

>  <REMARK>
 VINA RESULT:      -6.9      2.853      7.811
  Name = 
  11 active torsions:
  status: ('A' for Active; 'I' for Inactive)
    1  A    between atoms: C_1  and  C_9
    2  A    between atoms: C_1  and  S_35
    3  A    between atoms: C_2  and  C_6
    4  A    between atoms: C_2  and  C_13
    5  A    between atoms: C_3  and  C_4
    6  A    between atoms: C_3  and  C_12
    7  A    between atoms: C_6  and  C_12
    8  A    between atoms: C_9  and  C_32
    9  A    between atoms: N_11  and  C_14
   10  A    between atoms: C_32  and  C_37
   11  A    between atoms: C_34  and  S_35
                            x       y       z     vdW  Elec       q    Type
                         _______ _______ _______ _____ _____    ______ ____

>  <TORSDO>
F 11

$$$$
=
 OpenBabel11052421023D

 43 47  0  0  1  0  0  0  0  0999 V2000
  184.0530  178.5950  143.6750 C   0  0  0  0  0  0  0  0  0  0  0  0
  188.0570  176.0850  145.4870 C   0  0  0  0  0  0  0  0  0  0  0  0
  189.4790  175.2450  143.2470 C   0  0  0  0  0  0  0  0  0  0  0  0
  185.6940  177.5640  145.1290 C   0  0  0  0  0  0  0  0  0  0  0  0
  184.7610  178.1520  142.5540 C   0  0  0  0  0  3  0  0  0  0  0  0
  182.8860  179.3270  143.5120 O   0  0  0  0  0  1  0  0  0  0  0  0
  186.4170  177.1140  143.9970 C   0  0  0  0  0  0  0  0  0  0  0  0
  184.5190  178.3020  144.9600 C   0  0  0  0  0  3  0  0  0  0  0  0
  185.9380  177.4150  142.7120 C   0  0  0  0  0  3  0  0  0  0  0  0
  188.3240  175.9480  143.1030 N   0  0  0  0  0  0  0  0  0  0  0  0
  187.6030  176.3770  144.1770 C   0  0  0  0  0  0  0  0  0  0  0  0
  187.3260  176.5400  146.5930 C   0  0  0  0  0  3  0  0  0  0  0  0
  189.2420  175.3460  145.6490 C   0  0  0  0  0  0  0  0  0  0  0  0
  189.9520  174.9300  144.5200 C   0  0  0  0  0  3  0  0  0  0  0  0
  186.1530  177.2750  146.4150 C   0  0  0  0  0  3  0  0  0  0  0  0
  190.2280  174.7930  142.0460 C   0  0  0  0  0  2  0  0  0  0  0  0
  191.1090  173.5970  142.3960 C   0  0  0  0  0  2  0  0  0  0  0  0
  192.5190  171.7000  141.5890 C   0  0  0  0  0  1  0  0  0  0  0  0
  191.7610  172.9540  141.1710 C   0  0  0  0  0  0  0  0  0  0  0  0
  190.6890  172.5890  140.1510 C   0  0  0  0  0  1  0  0  0  0  0  0
  192.7330  173.9800  140.5790 C   0  0  0  0  0  2  0  0  0  0  0  0
  193.8600  174.3900  141.5220 C   0  0  2  0  0  3  0  0  0  0  0  0
  196.3400  176.0800  141.1360 C   0  0  0  0  0  2  0  0  0  0  0  0
  196.0200  174.8550  140.2490 C   0  0  2  0  0  3  0  0  0  0  0  0
  193.8680  175.9170  141.6590 C   0  0  0  0  0  2  0  0  0  0  0  0
  195.2010  173.8160  141.0370 C   0  0  1  0  0  3  0  0  0  0  0  0
  195.9270  173.3430  142.1170 F   0  0  0  0  0  0  0  0  0  0  0  0
  195.2300  176.4170  142.1390 C   0  0  0  0  0  2  0  0  0  0  0  0
  197.2440  174.2670  139.6760 N   0  0  0  0  0  0  0  0  0  0  0  0
  196.2340  173.4220  137.5670 C   0  0  0  0  0  2  0  0  0  0  0  0
  197.1860  175.4600  137.4980 C   0  0  0  0  0  2  0  0  0  0  0  0
  197.0820  174.2430  136.8050 O   0  0  0  0  0  0  0  0  0  0  0  0
  197.9380  175.2450  138.8170 C   0  0  0  0  0  2  0  0  0  0  0  0
  196.9160  173.0610  138.8910 C   0  0  0  0  0  2  0  0  0  0  0  0
  189.8940  174.9270  147.2680 S   0  0  0  0  0  0  0  0  0  0  0  0
  191.3050  176.0680  147.0990 C   0  0  1  0  0  3  0  0  0  0  0  0
  191.3310  177.0500  148.2580 C   0  0  0  0  0  1  0  0  0  0  0  0
  192.6290  175.3130  146.9590 C   0  0  0  0  0  2  0  0  0  0  0  0
  193.5510  175.9060  145.8950 C   0  0  2  0  0  3  0  0  0  0  0  0
  192.8220  176.6880  144.9940 O   0  0  0  0  0  1  0  0  0  0  0  0
  195.7020  174.5690  145.7460 C   0  0  0  0  0  1  0  0  0  0  0  0
  193.5250  173.5040  145.2100 C   0  0  0  0  0  1  0  0  0  0  0  0
  194.3130  174.7980  145.1680 C   0  0  0  0  0  3  0  0  0  0  0  0
  1  8  1  0  0  0  0
  2 13  1  0  0  0  0
  2 12  1  0  0  0  0
  3 14  1  0  0  0  0
  4 15  1  0  0  0  0
  5  9  1  0  0  0  0
  5  1  2  0  0  0  0
  6  1  1  0  0  0  0
  7 11  1  0  0  0  0
  7  4  1  0  0  0  0
  8  4  2  0  0  0  0
  9  7  2  0  0  0  0
 10  3  2  0  0  0  0
 10 11  1  0  0  0  0
 11  2  2  0  0  0  0
 13 35  1  0  0  0  0
 14 13  2  0  0  0  0
 15 12  2  0  0  0  0
 16 17  1  0  0  0  0
 16  3  1  0  0  0  0
 19 18  1  0  0  0  0
 19 17  1  0  0  0  0
 20 19  1  0  0  0  0
 21 19  1  0  0  0  0
 22 21  1  6  0  0  0
 22 25  1  0  0  0  0
 23 28  1  0  0  0  0
 24 29  1  1  0  0  0
 24 26  1  0  0  0  0
 24 23  1  0  0  0  0
 25 28  1  0  0  0  0
 26 22  1  0  0  0  0
 26 27  1  1  0  0  0
 30 34  1  0  0  0  0
 31 33  1  0  0  0  0
 32 31  1  0  0  0  0
 32 30  1  0  0  0  0
 33 29  1  0  0  0  0
 34 29  1  0  0  0  0
 36 35  1  0  0  0  0
 36 37  1  1  0  0  0
 38 36  1  0  0  0  0
 39 40  1  6  0  0  0
 39 38  1  0  0  0  0
 43 42  1  0  0  0  0
 43 41  1  0  0  0  0
 43 39  1  0  0  0  0
M  END
>  <MODEL>
5

>  <REMARK>
 VINA RESULT:      -6.6      3.114      8.198
  Name = 
  11 active torsions:
  status: ('A' for Active; 'I' for Inactive)
    1  A    between atoms: C_1  and  C_9
    2  A    between atoms: C_1  and  S_35
    3  A    between atoms: C_2  and  C_6
    4  A    between atoms: C_2  and  C_13
    5  A    between atoms: C_3  and  C_4
    6  A    between atoms: C_3  and  C_12
    7  A    between atoms: C_6  and  C_12
    8  A    between atoms: C_9  and  C_32
    9  A    between atoms: N_11  and  C_14
   10  A    between atoms: C_32  and  C_37
   11  A    between atoms: C_34  and  S_35
                            x       y       z     vdW  Elec       q    Type
                         _______ _______ _______ _____ _____    ______ ____

>  <TORSDO>
F 11

$$$$
=
 OpenBabel11052421023D

 43 47  0  0  1  0  0  0  0  0999 V2000
  196.9170  173.5690  136.4930 C   0  0  0  0  0  0  0  0  0  0  0  0
  195.6220  175.2770  141.0780 C   0  0  0  0  0  0  0  0  0  0  0  0
  192.8920  174.7830  141.3070 C   0  0  0  0  0  0  0  0  0  0  0  0
  196.9500  174.5310  138.7170 C   0  0  0  0  0  0  0  0  0  0  0  0
  195.5420  173.3430  136.6060 C   0  0  0  0  0  3  0  0  0  0  0  0
  197.5850  173.2050  135.3330 O   0  0  0  0  0  1  0  0  0  0  0  0
  195.5580  174.3030  138.8390 C   0  0  0  0  0  0  0  0  0  0  0  0
  197.6200  174.1620  137.5460 C   0  0  0  0  0  3  0  0  0  0  0  0
  194.8640  173.7080  137.7730 C   0  0  0  0  0  3  0  0  0  0  0  0
  193.5570  174.4480  140.1690 N   0  0  0  0  0  0  0  0  0  0  0  0
  194.8930  174.6720  140.0230 C   0  0  0  0  0  0  0  0  0  0  0  0
  196.9990  175.4930  140.9360 C   0  0  0  0  0  3  0  0  0  0  0  0
  194.9410  175.6420  142.2540 C   0  0  0  0  0  0  0  0  0  0  0  0
  193.5720  175.3890  142.3630 C   0  0  0  0  0  3  0  0  0  0  0  0
  197.6590  175.1230  139.7630 C   0  0  0  0  0  3  0  0  0  0  0  0
  191.4330  174.5240  141.4180 C   0  0  0  0  0  2  0  0  0  0  0  0
  191.0520  174.2840  142.8760 C   0  0  0  0  0  2  0  0  0  0  0  0
  189.3750  172.8310  141.7290 C   0  0  0  0  0  1  0  0  0  0  0  0
  189.7300  173.5310  143.0340 C   0  0  0  0  0  0  0  0  0  0  0  0
  189.8570  172.5010  144.1500 C   0  0  0  0  0  1  0  0  0  0  0  0
  188.6540  174.5640  143.3820 C   0  0  0  0  0  2  0  0  0  0  0  0
  189.1690  175.7590  144.1800 C   0  0  2  0  0  3  0  0  0  0  0  0
  187.7740  177.8580  145.8540 C   0  0  0  0  0  2  0  0  0  0  0  0
  187.3970  177.5810  144.3800 C   0  0  2  0  0  3  0  0  0  0  0  0
  188.8200  175.5610  145.6600 C   0  0  0  0  0  2  0  0  0  0  0  0
  188.6190  177.0710  143.5960 C   0  0  1  0  0  3  0  0  0  0  0  0
  189.6180  178.0290  143.5750 F   0  0  0  0  0  0  0  0  0  0  0  0
  188.8290  176.8930  146.4080 C   0  0  0  0  0  2  0  0  0  0  0  0
  186.7950  178.7670  143.7440 N   0  0  0  0  0  0  0  0  0  0  0  0
  185.0520  177.5730  142.4330 C   0  0  0  0  0  2  0  0  0  0  0  0
  184.4500  178.3570  144.4540 C   0  0  0  0  0  2  0  0  0  0  0  0
  184.0350  178.2590  143.1160 O   0  0  0  0  0  0  0  0  0  0  0  0
  185.6720  179.2780  144.5540 C   0  0  0  0  0  2  0  0  0  0  0  0
  186.3180  178.4350  142.3880 C   0  0  0  0  0  2  0  0  0  0  0  0
  195.7790  176.4130  143.6410 S   0  0  0  0  0  0  0  0  0  0  0  0
  195.6740  174.9070  144.6630 C   0  0  1  0  0  3  0  0  0  0  0  0
  197.0550  174.3100  144.8650 C   0  0  0  0  0  1  0  0  0  0  0  0
  194.9660  175.1750  145.9930 C   0  0  0  0  0  2  0  0  0  0  0  0
  194.0530  176.4010  145.9520 C   0  0  2  0  0  3  0  0  0  0  0  0
  194.4990  177.3750  146.8500 O   0  0  0  0  0  1  0  0  0  0  0  0
  192.3760  174.5050  146.1160 C   0  0  0  0  0  1  0  0  0  0  0  0
  192.2110  176.4590  147.6380 C   0  0  0  0  0  1  0  0  0  0  0  0
  192.6080  176.0030  146.2480 C   0  0  0  0  0  3  0  0  0  0  0  0
  1  5  2  0  0  0  0
  1  8  1  0  0  0  0
  2 13  1  0  0  0  0
  3 16  1  0  0  0  0
  3 14  1  0  0  0  0
  4  7  1  0  0  0  0
  4 15  1  0  0  0  0
  5  9  1  0  0  0  0
  6  1  1  0  0  0  0
  7 11  1  0  0  0  0
  8  4  2  0  0  0  0
  9  7  2  0  0  0  0
 10  3  2  0  0  0  0
 11 10  1  0  0  0  0
 11  2  2  0  0  0  0
 12  2  1  0  0  0  0
 13 14  2  0  0  0  0
 13 35  1  0  0  0  0
 15 12  2  0  0  0  0
 16 17  1  0  0  0  0
 17 19  1  0  0  0  0
 18 19  1  0  0  0  0
 19 21  1  0  0  0  0
 19 20  1  0  0  0  0
 22 21  1  6  0  0  0
 22 25  1  0  0  0  0
 23 28  1  0  0  0  0
 24 29  1  6  0  0  0
 24 23  1  0  0  0  0
 25 28  1  0  0  0  0
 26 27  1  1  0  0  0
 26 22  1  0  0  0  0
 26 24  1  0  0  0  0
 29 33  1  0  0  0  0
 30 32  1  0  0  0  0
 31 33  1  0  0  0  0
 32 31  1  0  0  0  0
 34 30  1  0  0  0  0
 34 29  1  0  0  0  0
 35 36  1  0  0  0  0
 36 37  1  1  0  0  0
 36 38  1  0  0  0  0
 39 38  1  0  0  0  0
 39 43  1  0  0  0  0
 39 40  1  1  0  0  0
 41 43  1  0  0  0  0
 43 42  1  0  0  0  0
M  END
>  <MODEL>
6

>  <REMARK>
 VINA RESULT:      -6.5      2.874      4.459
  Name = 
  11 active torsions:
  status: ('A' for Active; 'I' for Inactive)
    1  A    between atoms: C_1  and  C_9
    2  A    between atoms: C_1  and  S_35
    3  A    between atoms: C_2  and  C_6
    4  A    between atoms: C_2  and  C_13
    5  A    between atoms: C_3  and  C_4
    6  A    between atoms: C_3  and  C_12
    7  A    between atoms: C_6  and  C_12
    8  A    between atoms: C_9  and  C_32
    9  A    between atoms: N_11  and  C_14
   10  A    between atoms: C_32  and  C_37
   11  A    between atoms: C_34  and  S_35
                            x       y       z     vdW  Elec       q    Type
                         _______ _______ _______ _____ _____    ______ ____

>  <TORSDO>
F 11

$$$$
=
 OpenBabel11052421023D

 43 47  0  0  1  0  0  0  0  0999 V2000
  184.0800  178.6460  143.9060 C   0  0  0  0  0  0  0  0  0  0  0  0
  188.0920  176.0640  145.5950 C   0  0  0  0  0  0  0  0  0  0  0  0
  189.3230  175.0390  143.3190 C   0  0  0  0  0  0  0  0  0  0  0  0
  185.7730  177.6250  145.3060 C   0  0  0  0  0  0  0  0  0  0  0  0
  184.6910  178.1100  142.7690 C   0  0  0  0  0  3  0  0  0  0  0  0
  182.9350  179.4190  143.7770 O   0  0  0  0  0  1  0  0  0  0  0  0
  186.3980  177.0810  144.1580 C   0  0  0  0  0  0  0  0  0  0  0  0
  184.6200  178.4040  145.1730 C   0  0  0  0  0  3  0  0  0  0  0  0
  185.8450  177.3310  142.8920 C   0  0  0  0  0  3  0  0  0  0  0  0
  188.1900  175.7830  143.2100 N   0  0  0  0  0  0  0  0  0  0  0  0
  187.5620  176.3030  144.3020 C   0  0  0  0  0  0  0  0  0  0  0  0
  187.4570  176.6120  146.7180 C   0  0  0  0  0  3  0  0  0  0  0  0
  189.2550  175.2830  145.7210 C   0  0  0  0  0  0  0  0  0  0  0  0
  189.8680  174.7730  144.5740 C   0  0  0  0  0  3  0  0  0  0  0  0
  186.3060  177.3870  146.5740 C   0  0  0  0  0  3  0  0  0  0  0  0
  189.9690  174.4870  142.0990 C   0  0  0  0  0  2  0  0  0  0  0  0
  191.3370  173.9080  142.4470 C   0  0  0  0  0  2  0  0  0  0  0  0
  192.8270  171.9050  142.5260 C   0  0  0  0  0  1  0  0  0  0  0  0
  191.4920  172.4440  142.0290 C   0  0  0  0  0  0  0  0  0  0  0  0
  190.3540  171.6200  142.6180 C   0  0  0  0  0  1  0  0  0  0  0  0
  191.4470  172.3990  140.4980 C   0  0  0  0  0  2  0  0  0  0  0  0
  190.3490  171.5020  139.9320 C   0  0  2  0  0  3  0  0  0  0  0  0
  189.8350  170.3960  137.1630 C   0  0  0  0  0  2  0  0  0  0  0  0
  190.0080  171.9070  137.4380 C   0  0  2  0  0  3  0  0  0  0  0  0
  190.9810  170.2050  139.4130 C   0  0  0  0  0  2  0  0  0  0  0  0
  189.5410  172.2550  138.8630 C   0  0  1  0  0  3  0  0  0  0  0  0
  188.1930  171.9770  139.0130 F   0  0  0  0  0  0  0  0  0  0  0  0
  190.0670  169.5180  138.3990 C   0  0  0  0  0  2  0  0  0  0  0  0
  189.3210  172.7240  136.4220 N   0  0  0  0  0  0  0  0  0  0  0  0
  191.0120  174.5400  136.2750 C   0  0  0  0  0  2  0  0  0  0  0  0
  191.1920  172.8560  134.7930 C   0  0  0  0  0  2  0  0  0  0  0  0
  191.2360  174.2540  134.9180 O   0  0  0  0  0  0  0  0  0  0  0  0
  189.7690  172.3530  135.0660 C   0  0  0  0  0  2  0  0  0  0  0  0
  189.5780  174.1580  136.6550 C   0  0  0  0  0  2  0  0  0  0  0  0
  189.9980  174.9260  147.3150 S   0  0  0  0  0  0  0  0  0  0  0  0
  191.2400  176.2480  147.1380 C   0  0  1  0  0  3  0  0  0  0  0  0
  191.2140  177.1620  148.3510 C   0  0  0  0  0  1  0  0  0  0  0  0
  192.6370  175.6790  146.8800 C   0  0  0  0  0  2  0  0  0  0  0  0
  193.2940  176.2470  145.6220 C   0  0  2  0  0  3  0  0  0  0  0  0
  192.4390  177.1500  144.9850 O   0  0  0  0  0  1  0  0  0  0  0  0
  194.8540  175.5120  143.7600 C   0  0  0  0  0  1  0  0  0  0  0  0
  194.0820  173.8810  145.4660 C   0  0  0  0  0  1  0  0  0  0  0  0
  193.7030  175.1180  144.6760 C   0  0  0  0  0  3  0  0  0  0  0  0
  1  8  1  0  0  0  0
  2 13  1  0  0  0  0
  2 12  1  0  0  0  0
  3 14  1  0  0  0  0
  4 15  1  0  0  0  0
  5  9  1  0  0  0  0
  5  1  2  0  0  0  0
  6  1  1  0  0  0  0
  7 11  1  0  0  0  0
  7  4  1  0  0  0  0
  8  4  2  0  0  0  0
  9  7  2  0  0  0  0
 10  3  2  0  0  0  0
 10 11  1  0  0  0  0
 11  2  2  0  0  0  0
 13 35  1  0  0  0  0
 14 13  2  0  0  0  0
 15 12  2  0  0  0  0
 16 17  1  0  0  0  0
 16  3  1  0  0  0  0
 19 17  1  0  0  0  0
 19 18  1  0  0  0  0
 19 20  1  0  0  0  0
 21 19  1  0  0  0  0
 22 21  1  6  0  0  0
 23 24  1  0  0  0  0
 23 28  1  0  0  0  0
 24 29  1  6  0  0  0
 24 26  1  0  0  0  0
 25 22  1  0  0  0  0
 26 27  1  6  0  0  0
 26 22  1  0  0  0  0
 28 25  1  0  0  0  0
 29 34  1  0  0  0  0
 30 34  1  0  0  0  0
 31 32  1  0  0  0  0
 31 33  1  0  0  0  0
 32 30  1  0  0  0  0
 33 29  1  0  0  0  0
 36 35  1  0  0  0  0
 36 37  1  1  0  0  0
 38 36  1  0  0  0  0
 39 40  1  6  0  0  0
 39 38  1  0  0  0  0
 41 43  1  0  0  0  0
 43 42  1  0  0  0  0
 43 39  1  0  0  0  0
M  END
>  <MODEL>
7

>  <REMARK>
 VINA RESULT:      -6.4      2.658      7.700
  Name = 
  11 active torsions:
  status: ('A' for Active; 'I' for Inactive)
    1  A    between atoms: C_1  and  C_9
    2  A    between atoms: C_1  and  S_35
    3  A    between atoms: C_2  and  C_6
    4  A    between atoms: C_2  and  C_13
    5  A    between atoms: C_3  and  C_4
    6  A    between atoms: C_3  and  C_12
    7  A    between atoms: C_6  and  C_12
    8  A    between atoms: C_9  and  C_32
    9  A    between atoms: N_11  and  C_14
   10  A    between atoms: C_32  and  C_37
   11  A    between atoms: C_34  and  S_35
                            x       y       z     vdW  Elec       q    Type
                         _______ _______ _______ _____ _____    ______ ____

>  <TORSDO>
F 11

$$$$
=
 OpenBabel11052421023D

 43 47  0  0  1  0  0  0  0  0999 V2000
  196.6620  168.9740  147.1930 C   0  0  0  0  0  0  0  0  0  0  0  0
  195.2640  172.1390  143.5000 C   0  0  0  0  0  0  0  0  0  0  0  0
  192.4860  172.2480  143.6310 C   0  0  0  0  0  0  0  0  0  0  0  0
  196.6550  170.5260  145.3320 C   0  0  0  0  0  0  0  0  0  0  0  0
  195.2660  169.0170  147.2400 C   0  0  0  0  0  3  0  0  0  0  0  0
  197.3610  168.1830  148.0930 O   0  0  0  0  0  1  0  0  0  0  0  0
  195.2410  170.5750  145.3760 C   0  0  0  0  0  0  0  0  0  0  0  0
  197.3560  169.7280  146.2410 C   0  0  0  0  0  3  0  0  0  0  0  0
  194.5570  169.8130  146.3360 C   0  0  0  0  0  3  0  0  0  0  0  0
  193.1840  171.4620  144.4940 N   0  0  0  0  0  0  0  0  0  0  0  0
  194.5440  171.3870  144.4610 C   0  0  0  0  0  0  0  0  0  0  0  0
  196.6640  172.0760  143.4740 C   0  0  0  0  0  3  0  0  0  0  0  0
  194.5520  172.9430  142.5910 C   0  0  0  0  0  0  0  0  0  0  0  0
  193.1580  172.9950  142.6650 C   0  0  0  0  0  3  0  0  0  0  0  0
  197.3550  171.2750  144.3850 C   0  0  0  0  0  3  0  0  0  0  0  0
  191.0020  172.2930  143.7010 C   0  0  0  0  0  2  0  0  0  0  0  0
  190.5140  173.7330  143.5700 C   0  0  0  0  0  2  0  0  0  0  0  0
  189.8130  174.3890  141.2640 C   0  0  0  0  0  1  0  0  0  0  0  0
  189.3290  173.8790  142.6140 C   0  0  0  0  0  0  0  0  0  0  0  0
  188.6430  172.5300  142.4370 C   0  0  0  0  0  1  0  0  0  0  0  0
  188.3610  174.8910  143.2390 C   0  0  0  0  0  2  0  0  0  0  0  0
  189.0080  175.8320  144.2500 C   0  0  2  0  0  3  0  0  0  0  0  0
  187.8940  177.4220  146.5710 C   0  0  0  0  0  2  0  0  0  0  0  0
  187.3380  177.5430  145.1340 C   0  0  2  0  0  3  0  0  0  0  0  0
  188.8290  175.2530  145.6590 C   0  0  0  0  0  2  0  0  0  0  0  0
  188.4400  177.2530  144.1010 C   0  0  1  0  0  3  0  0  0  0  0  0
  189.4630  178.1800  144.2080 F   0  0  0  0  0  0  0  0  0  0  0  0
  188.9730  176.3420  146.7220 C   0  0  0  0  0  2  0  0  0  0  0  0
  186.7070  178.8560  144.9080 N   0  0  0  0  0  0  0  0  0  0  0  0
  184.8690  178.0740  143.4280 C   0  0  0  0  0  2  0  0  0  0  0  0
  184.4100  178.2380  145.6240 C   0  0  0  0  0  2  0  0  0  0  0  0
  183.9060  178.5250  144.3450 O   0  0  0  0  0  0  0  0  0  0  0  0
  185.6460  179.1020  145.9030 C   0  0  0  0  0  2  0  0  0  0  0  0
  186.1380  178.9250  143.5480 C   0  0  0  0  0  2  0  0  0  0  0  0
  195.3770  173.9300  141.3390 S   0  0  0  0  0  0  0  0  0  0  0  0
  195.7170  175.2920  142.5020 C   0  0  1  0  0  3  0  0  0  0  0  0
  196.8150  176.1880  141.9570 C   0  0  0  0  0  1  0  0  0  0  0  0
  194.4480  176.0790  142.8360 C   0  0  0  0  0  2  0  0  0  0  0  0
  194.3370  176.4430  144.3170 C   0  0  2  0  0  3  0  0  0  0  0  0
  195.4740  177.1370  144.7380 O   0  0  0  0  0  1  0  0  0  0  0  0
  195.2700  174.9120  146.1120 C   0  0  0  0  0  1  0  0  0  0  0  0
  192.8250  175.3070  145.9490 C   0  0  0  0  0  1  0  0  0  0  0  0
  194.1140  175.1890  145.1610 C   0  0  0  0  0  3  0  0  0  0  0  0
  1  5  1  0  0  0  0
  1  6  1  0  0  0  0
  2 11  1  0  0  0  0
  3 16  1  0  0  0  0
  3 10  1  0  0  0  0
  4  7  2  0  0  0  0
  4  8  1  0  0  0  0
  7  9  1  0  0  0  0
  8  1  2  0  0  0  0
  9  5  2  0  0  0  0
 11 10  2  0  0  0  0
 11  7  1  0  0  0  0
 12  2  1  0  0  0  0
 12 15  2  0  0  0  0
 13 14  1  0  0  0  0
 13  2  2  0  0  0  0
 14  3  2  0  0  0  0
 15  4  1  0  0  0  0
 17 16  1  0  0  0  0
 18 19  1  0  0  0  0
 19 21  1  0  0  0  0
 19 17  1  0  0  0  0
 20 19  1  0  0  0  0
 22 21  1  6  0  0  0
 22 25  1  0  0  0  0
 23 28  1  0  0  0  0
 24 29  1  6  0  0  0
 24 23  1  0  0  0  0
 25 28  1  0  0  0  0
 26 27  1  1  0  0  0
 26 22  1  0  0  0  0
 26 24  1  0  0  0  0
 29 33  1  0  0  0  0
 30 34  1  0  0  0  0
 30 32  1  0  0  0  0
 31 33  1  0  0  0  0
 32 31  1  0  0  0  0
 34 29  1  0  0  0  0
 35 36  1  0  0  0  0
 35 13  1  0  0  0  0
 36 37  1  6  0  0  0
 36 38  1  0  0  0  0
 38 39  1  0  0  0  0
 39 40  1  1  0  0  0
 39 43  1  0  0  0  0
 43 42  1  0  0  0  0
 43 41  1  0  0  0  0
M  END
>  <MODEL>
8

>  <REMARK>
 VINA RESULT:      -6.4      2.535      5.482
  Name = 
  11 active torsions:
  status: ('A' for Active; 'I' for Inactive)
    1  A    between atoms: C_1  and  C_9
    2  A    between atoms: C_1  and  S_35
    3  A    between atoms: C_2  and  C_6
    4  A    between atoms: C_2  and  C_13
    5  A    between atoms: C_3  and  C_4
    6  A    between atoms: C_3  and  C_12
    7  A    between atoms: C_6  and  C_12
    8  A    between atoms: C_9  and  C_32
    9  A    between atoms: N_11  and  C_14
   10  A    between atoms: C_32  and  C_37
   11  A    between atoms: C_34  and  S_35
                            x       y       z     vdW  Elec       q    Type
                         _______ _______ _______ _____ _____    ______ ____

>  <TORSDO>
F 11

$$$$
=
 OpenBabel11052421023D

 43 47  0  0  1  0  0  0  0  0999 V2000
  196.3270  169.2380  146.4930 C   0  0  0  0  0  0  0  0  0  0  0  0
  194.5210  173.3820  144.2180 C   0  0  0  0  0  0  0  0  0  0  0  0
  192.2130  172.5550  142.9000 C   0  0  0  0  0  0  0  0  0  0  0  0
  195.9950  171.5020  145.6960 C   0  0  0  0  0  0  0  0  0  0  0  0
  195.1790  168.8240  145.8120 C   0  0  0  0  0  3  0  0  0  0  0  0
  197.0640  168.3190  147.2280 O   0  0  0  0  0  1  0  0  0  0  0  0
  194.8300  171.0900  145.0050 C   0  0  0  0  0  0  0  0  0  0  0  0
  196.7350  170.5740  146.4360 C   0  0  0  0  0  3  0  0  0  0  0  0
  194.4320  169.7450  145.0710 C   0  0  0  0  0  3  0  0  0  0  0  0
  192.9550  171.6630  143.6090 N   0  0  0  0  0  0  0  0  0  0  0  0
  194.0890  172.0330  144.2690 C   0  0  0  0  0  0  0  0  0  0  0  0
  195.6770  173.7670  144.9090 C   0  0  0  0  0  3  0  0  0  0  0  0
  193.7690  174.3100  143.4750 C   0  0  0  0  0  0  0  0  0  0  0  0
  192.6110  173.8890  142.8180 C   0  0  0  0  0  3  0  0  0  0  0  0
  196.4090  172.8330  145.6440 C   0  0  0  0  0  3  0  0  0  0  0  0
  190.9860  172.1040  142.1920 C   0  0  0  0  0  2  0  0  0  0  0  0
  189.7460  172.4820  142.9960 C   0  0  0  0  0  2  0  0  0  0  0  0
  189.4170  173.7960  140.8980 C   0  0  0  0  0  1  0  0  0  0  0  0
  188.8060  173.4230  142.2420 C   0  0  0  0  0  0  0  0  0  0  0  0
  187.4620  172.7380  142.0220 C   0  0  0  0  0  1  0  0  0  0  0  0
  188.6290  174.6780  143.1030 C   0  0  0  0  0  2  0  0  0  0  0  0
  187.9050  175.8220  142.3980 C   0  0  2  0  0  3  0  0  0  0  0  0
  187.2250  178.6460  143.2470 C   0  0  0  0  0  2  0  0  0  0  0  0
  186.8100  177.4050  144.0710 C   0  0  2  0  0  3  0  0  0  0  0  0
  188.8690  177.0040  142.2420 C   0  0  0  0  0  2  0  0  0  0  0  0
  186.6150  176.1860  143.1520 C   0  0  1  0  0  3  0  0  0  0  0  0
  185.5940  176.4190  142.2460 F   0  0  0  0  0  0  0  0  0  0  0  0
  188.1060  178.3120  142.0370 C   0  0  0  0  0  2  0  0  0  0  0  0
  185.6130  177.6730  144.8860 N   0  0  0  0  0  0  0  0  0  0  0  0
  186.3870  176.5510  146.9660 C   0  0  0  0  0  2  0  0  0  0  0  0
  186.7620  178.7630  146.8000 C   0  0  0  0  0  2  0  0  0  0  0  0
  186.3120  177.7610  147.6740 O   0  0  0  0  0  0  0  0  0  0  0  0
  185.7690  178.9290  145.6430 C   0  0  0  0  0  2  0  0  0  0  0  0
  185.3670  176.5580  145.8210 C   0  0  0  0  0  2  0  0  0  0  0  0
  194.2380  176.0380  143.3520 S   0  0  0  0  0  0  0  0  0  0  0  0
  193.4660  176.4590  144.9490 C   0  0  1  0  0  3  0  0  0  0  0  0
  194.4700  177.1490  145.8550 C   0  0  0  0  0  1  0  0  0  0  0  0
  192.1970  177.2940  144.7590 C   0  0  0  0  0  2  0  0  0  0  0  0
  190.9340  176.5920  145.2590 C   0  0  2  0  0  3  0  0  0  0  0  0
  190.0380  177.5200  145.7980 O   0  0  0  0  0  1  0  0  0  0  0  0
  191.1880  176.0120  147.7150 C   0  0  0  0  0  1  0  0  0  0  0  0
  190.3950  174.3030  146.1000 C   0  0  0  0  0  1  0  0  0  0  0  0
  191.2890  175.5140  146.2810 C   0  0  0  0  0  3  0  0  0  0  0  0
  1  6  1  0  0  0  0
  2 11  1  0  0  0  0
  2 12  1  0  0  0  0
  3 10  1  0  0  0  0
  4  8  2  0  0  0  0
  5  1  2  0  0  0  0
  7  9  2  0  0  0  0
  7  4  1  0  0  0  0
  8  1  1  0  0  0  0
  9  5  1  0  0  0  0
 10 11  2  0  0  0  0
 11  7  1  0  0  0  0
 12 15  2  0  0  0  0
 13  2  2  0  0  0  0
 14  3  2  0  0  0  0
 14 13  1  0  0  0  0
 15  4  1  0  0  0  0
 16  3  1  0  0  0  0
 16 17  1  0  0  0  0
 18 19  1  0  0  0  0
 19 17  1  0  0  0  0
 19 21  1  0  0  0  0
 20 19  1  0  0  0  0
 22 21  1  1  0  0  0
 22 26  1  0  0  0  0
 24 23  1  6  0  0  0
 24 29  1  0  0  0  0
 25 22  1  0  0  0  0
 26 27  1  6  0  0  0
 26 24  1  0  0  0  0
 28 25  1  0  0  0  0
 28 23  1  0  0  0  0
 29 33  1  0  0  0  0
 29 34  1  0  0  0  0
 30 32  1  0  0  0  0
 31 32  1  0  0  0  0
 33 31  1  0  0  0  0
 34 30  1  0  0  0  0
 35 13  1  0  0  0  0
 35 36  1  0  0  0  0
 36 37  1  1  0  0  0
 38 36  1  0  0  0  0
 38 39  1  0  0  0  0
 39 40  1  1  0  0  0
 39 43  1  0  0  0  0
 42 43  1  0  0  0  0
 43 41  1  0  0  0  0
M  END
>  <MODEL>
9

>  <REMARK>
 VINA RESULT:      -6.4      2.616      5.648
  Name = 
  11 active torsions:
  status: ('A' for Active; 'I' for Inactive)
    1  A    between atoms: C_1  and  C_9
    2  A    between atoms: C_1  and  S_35
    3  A    between atoms: C_2  and  C_6
    4  A    between atoms: C_2  and  C_13
    5  A    between atoms: C_3  and  C_4
    6  A    between atoms: C_3  and  C_12
    7  A    between atoms: C_6  and  C_12
    8  A    between atoms: C_9  and  C_32
    9  A    between atoms: N_11  and  C_14
   10  A    between atoms: C_32  and  C_37
   11  A    between atoms: C_34  and  S_35
                            x       y       z     vdW  Elec       q    Type
                         _______ _______ _______ _____ _____    ______ ____

>  <TORSDO>
F 11

$$$$
