=
 OpenBabel11052421283D

 32 37  0  0  1  0  0  0  0  0999 V2000
  190.9640  171.7580  142.7560 C   0  0  0  0  0  0  0  0  0  0  0  0
  190.7840  174.1040  145.6400 C   0  0  0  0  0  2  0  0  0  0  0  0
  188.5820  177.4140  142.8010 C   0  0  0  0  0  2  0  0  0  0  0  0
  185.5600  177.4310  147.9300 C   0  0  0  0  0  2  0  0  0  0  0  0
  184.4310  177.5140  146.8980 C   0  0  0  0  0  2  0  0  0  0  0  0
  190.8140  176.5330  143.6440 C   0  0  0  0  0  0  0  0  0  0  0  0
  189.6720  177.3800  145.7400 C   0  0  0  0  0  2  0  0  0  0  0  0
  190.7590  172.1280  144.0750 C   0  0  0  0  0  3  0  0  0  0  0  0
  191.3920  175.4930  145.8210 C   0  0  0  0  0  2  0  0  0  0  0  0
  186.8110  176.8060  147.3040 C   0  0  0  0  0  2  0  0  0  0  0  0
  188.3040  177.1930  145.1200 C   0  0  1  0  0  3  0  0  0  0  0  0
  187.1290  177.4610  145.9920 C   0  0  0  0  0  0  0  0  0  0  0  0
  186.7780  178.3810  143.9780 N   0  0  0  0  0  0  0  0  0  0  0  0
  191.4360  173.0800  141.8380 S   0  0  0  0  0  0  0  0  0  0  0  0
  191.3760  174.1730  143.1130 C   0  0  0  0  0  0  0  0  0  0  0  0
  190.7970  170.4410  142.2490 N   0  0  0  0  0  1  0  0  0  0  0  0
  190.6480  176.5040  144.9970 C   0  0  0  0  0  0  0  0  0  0  0  0
  191.7940  175.6040  142.9890 C   0  0  0  0  0  2  0  0  0  0  0  0
  191.0100  173.4910  144.2850 C   0  0  0  0  0  0  0  0  0  0  0  0
  184.8420  178.4000  145.7170 C   0  0  0  0  0  2  0  0  0  0  0  0
  186.2210  178.0450  145.2380 C   0  0  0  0  0  0  0  0  0  0  0  0
  190.1050  177.5020  142.7230 C   0  0  0  0  0  2  0  0  0  0  0  0
  188.1590  178.1190  143.9980 N   0  0  2  0  0  0  0  0  0  0  0  0
  186.1760  179.3410  143.0570 C   0  0  0  0  0  2  0  0  0  0  0  0
  186.3300  178.1990  140.9030 C   0  0  0  0  0  3  0  0  0  0  0  0
  185.7400  177.4860  139.7650 C   0  0  0  0  0  0  0  0  0  0  0  0
  184.0910  178.4350  141.8310 C   0  0  0  0  0  0  0  0  0  0  0  0
  183.4480  178.0150  140.5410 C   0  0  0  0  0  2  0  0  0  0  0  0
  184.3570  177.2920  139.7050 O   0  0  0  0  0  0  0  0  0  0  0  0
  186.4810  177.0150  138.8640 O   0  0  0  0  0  0  0  0  0  0  0  0
  183.3680  178.6690  142.8350 O   0  0  0  0  0  0  0  0  0  0  0  0
  185.5530  178.6350  141.8950 C   0  0  0  0  0  0  0  0  0  0  0  0
  1  8  2  0  0  0  0
  2  9  1  0  0  0  0
  5  4  1  0  0  0  0
  6 17  2  0  0  0  0
  8 19  1  0  0  0  0
 10  4  1  0  0  0  0
 11  7  1  1  0  0  0
 11 12  1  0  0  0  0
 12 10  1  0  0  0  0
 13 23  1  0  0  0  0
 13 21  1  0  0  0  0
 14  1  1  0  0  0  0
 14 15  1  0  0  0  0
 15 19  2  0  0  0  0
 16  1  1  0  0  0  0
 17  7  1  0  0  0  0
 17  9  1  0  0  0  0
 18 15  1  0  0  0  0
 18  6  1  0  0  0  0
 19  2  1  0  0  0  0
 20  5  1  0  0  0  0
 21 20  1  0  0  0  0
 21 12  2  0  0  0  0
 22  3  1  0  0  0  0
 22  6  1  0  0  0  0
 23  3  1  6  0  0  0
 23 11  1  0  0  0  0
 24 13  1  0  0  0  0
 25 32  2  0  0  0  0
 26 25  1  0  0  0  0
 27 32  1  0  0  0  0
 27 31  2  0  0  0  0
 28 27  1  0  0  0  0
 29 26  1  0  0  0  0
 29 28  1  0  0  0  0
 30 26  2  0  0  0  0
 32 24  1  0  0  0  0
M  END
>  <MODEL>
1

>  <REMARK>
 VINA RESULT:      -8.5      0.000      0.000
  Name = 
  2 active torsions:
  status: ('A' for Active; 'I' for Inactive)
    1  A    between atoms: N_16  and  C_27
    2  A    between atoms: C_27  and  C_32
                            x       y       z     vdW  Elec       q    Type
                         _______ _______ _______ _____ _____    ______ ____

>  <TORSDO>
F 2

$$$$
=
 OpenBabel11052421283D

 32 37  0  0  1  0  0  0  0  0999 V2000
  196.9160  175.4250  142.6010 C   0  0  0  0  0  0  0  0  0  0  0  0
  194.2950  173.5040  144.4170 C   0  0  0  0  0  2  0  0  0  0  0  0
  191.1920  177.2370  143.8730 C   0  0  0  0  0  2  0  0  0  0  0  0
  188.0480  172.3390  142.6220 C   0  0  0  0  0  2  0  0  0  0  0  0
  187.5700  173.3070  141.5370 C   0  0  0  0  0  2  0  0  0  0  0  0
  192.9860  176.2060  145.3510 C   0  0  0  0  0  0  0  0  0  0  0  0
  191.1220  174.4910  145.3840 C   0  0  0  0  0  2  0  0  0  0  0  0
  196.1750  174.3040  142.9410 C   0  0  0  0  0  3  0  0  0  0  0  0
  193.5640  173.8220  145.7190 C   0  0  0  0  0  2  0  0  0  0  0  0
  189.4340  172.7490  143.1310 C   0  0  0  0  0  2  0  0  0  0  0  0
  190.5990  174.9750  144.0490 C   0  0  1  0  0  3  0  0  0  0  0  0
  189.4660  174.2130  143.4570 C   0  0  0  0  0  0  0  0  0  0  0  0
  189.0730  176.4100  143.2380 N   0  0  0  0  0  0  0  0  0  0  0  0
  196.4350  176.7490  143.5110 S   0  0  0  0  0  0  0  0  0  0  0  0
  195.2460  175.9200  144.3600 C   0  0  0  0  0  0  0  0  0  0  0  0
  197.9410  175.4500  141.6170 N   0  0  0  0  0  1  0  0  0  0  0  0
  192.5630  174.9190  145.5060 C   0  0  0  0  0  0  0  0  0  0  0  0
  194.4460  176.5330  145.4670 C   0  0  0  0  0  2  0  0  0  0  0  0
  195.2420  174.5760  143.9500 C   0  0  0  0  0  0  0  0  0  0  0  0
  187.4490  174.7300  142.0950 C   0  0  0  0  0  2  0  0  0  0  0  0
  188.6690  175.0960  142.8890 C   0  0  0  0  0  0  0  0  0  0  0  0
  192.0620  177.3810  145.1200 C   0  0  0  0  0  2  0  0  0  0  0  0
  190.0980  176.3390  144.1990 N   0  0  2  0  0  0  0  0  0  0  0  0
  188.2210  177.5860  143.0880 C   0  0  0  0  0  2  0  0  0  0  0  0
  187.4190  176.9840  145.3150 C   0  0  0  0  0  3  0  0  0  0  0  0
  186.4310  177.0340  146.3980 C   0  0  0  0  0  0  0  0  0  0  0  0
  185.9290  178.3740  143.9810 C   0  0  0  0  0  0  0  0  0  0  0  0
  184.7850  178.1620  144.9310 C   0  0  0  0  0  2  0  0  0  0  0  0
  185.2370  177.7390  146.2200 O   0  0  0  0  0  0  0  0  0  0  0  0
  186.6770  176.4790  147.5000 O   0  0  0  0  0  0  0  0  0  0  0  0
  185.7790  179.1400  142.9940 O   0  0  0  0  0  0  0  0  0  0  0  0
  187.1920  177.6320  144.1720 C   0  0  0  0  0  0  0  0  0  0  0  0
  1  8  2  0  0  0  0
  1 14  1  0  0  0  0
  2  9  1  0  0  0  0
  3 22  1  0  0  0  0
  4 10  1  0  0  0  0
  5 20  1  0  0  0  0
  5  4  1  0  0  0  0
  6 18  1  0  0  0  0
  6 17  2  0  0  0  0
  7 17  1  0  0  0  0
  8 19  1  0  0  0  0
 10 12  1  0  0  0  0
 11 23  1  0  0  0  0
 11  7  1  1  0  0  0
 12 11  1  0  0  0  0
 13 23  1  0  0  0  0
 14 15  1  0  0  0  0
 15 18  1  0  0  0  0
 16  1  1  0  0  0  0
 17  9  1  0  0  0  0
 19 15  2  0  0  0  0
 19  2  1  0  0  0  0
 20 21  1  0  0  0  0
 21 13  1  0  0  0  0
 21 12  2  0  0  0  0
 22  6  1  0  0  0  0
 23  3  1  6  0  0  0
 24 13  1  0  0  0  0
 24 32  1  0  0  0  0
 25 26  1  0  0  0  0
 26 30  2  0  0  0  0
 27 32  1  0  0  0  0
 27 28  1  0  0  0  0
 28 29  1  0  0  0  0
 29 26  1  0  0  0  0
 31 27  2  0  0  0  0
 32 25  2  0  0  0  0
M  END
>  <MODEL>
2

>  <REMARK>
 VINA RESULT:      -8.2      3.331      5.052
  Name = 
  2 active torsions:
  status: ('A' for Active; 'I' for Inactive)
    1  A    between atoms: N_16  and  C_27
    2  A    between atoms: C_27  and  C_32
                            x       y       z     vdW  Elec       q    Type
                         _______ _______ _______ _____ _____    ______ ____

>  <TORSDO>
F 2

$$$$
=
 OpenBabel11052421283D

 32 37  0  0  1  0  0  0  0  0999 V2000
  182.9660  178.2910  142.0290 C   0  0  0  0  0  0  0  0  0  0  0  0
  186.3870  177.7570  140.6610 C   0  0  0  0  0  2  0  0  0  0  0  0
  187.9260  176.3500  145.0790 C   0  0  0  0  0  2  0  0  0  0  0  0
  190.2790  172.4540  141.2420 C   0  0  0  0  0  2  0  0  0  0  0  0
  189.8420  171.5410  142.3910 C   0  0  0  0  0  2  0  0  0  0  0  0
  187.5950  178.3230  143.5080 C   0  0  0  0  0  0  0  0  0  0  0  0
  189.3000  176.8820  142.3120 C   0  0  0  0  0  2  0  0  0  0  0  0
  183.9070  177.8760  141.1000 C   0  0  0  0  0  3  0  0  0  0  0  0
  187.7110  178.4190  141.0320 C   0  0  0  0  0  2  0  0  0  0  0  0
  189.4620  173.7510  141.2490 C   0  0  0  0  0  2  0  0  0  0  0  0
  188.8130  175.6400  143.0270 C   0  0  1  0  0  3  0  0  0  0  0  0
  189.4320  174.3480  142.6260 C   0  0  0  0  0  0  0  0  0  0  0  0
  189.2900  174.4360  144.8620 N   0  0  0  0  0  0  0  0  0  0  0  0
  183.7130  179.0150  143.3440 S   0  0  0  0  0  0  0  0  0  0  0  0
  185.2740  178.8020  142.7620 C   0  0  0  0  0  0  0  0  0  0  0  0
  181.5610  178.1250  141.8870 N   0  0  0  0  0  1  0  0  0  0  0  0
  188.2000  177.9120  142.3570 C   0  0  0  0  0  0  0  0  0  0  0  0
  186.4900  179.3370  143.4520 C   0  0  0  0  0  2  0  0  0  0  0  0
  185.2140  178.1810  141.5030 C   0  0  0  0  0  0  0  0  0  0  0  0
  190.0790  172.2230  143.7440 C   0  0  0  0  0  2  0  0  0  0  0  0
  189.5730  173.6360  143.7250 C   0  0  0  0  0  0  0  0  0  0  0  0
  188.0010  177.8650  144.8920 C   0  0  0  0  0  2  0  0  0  0  0  0
  189.1000  175.7680  144.4540 N   0  0  2  0  0  0  0  0  0  0  0  0
  189.6910  174.0820  146.2200 C   0  0  0  0  0  2  0  0  0  0  0  0
  190.4970  175.9030  147.6350 C   0  0  0  0  0  3  0  0  0  0  0  0
  191.5520  176.7900  148.1360 C   0  0  0  0  0  0  0  0  0  0  0  0
  192.1410  174.8990  146.1440 C   0  0  0  0  0  0  0  0  0  0  0  0
  193.1290  176.0000  146.3970 C   0  0  0  0  0  2  0  0  0  0  0  0
  192.8450  176.7010  147.6110 O   0  0  0  0  0  0  0  0  0  0  0  0
  191.3040  177.6020  149.0650 O   0  0  0  0  0  0  0  0  0  0  0  0
  192.4670  173.9320  145.4070 O   0  0  0  0  0  0  0  0  0  0  0  0
  190.7760  174.9920  146.7030 C   0  0  0  0  0  0  0  0  0  0  0  0
  1 14  1  0  0  0  0
  2  9  1  0  0  0  0
  2 19  1  0  0  0  0
  4 10  1  0  0  0  0
  4  5  1  0  0  0  0
  5 20  1  0  0  0  0
  6 22  1  0  0  0  0
  7 17  1  0  0  0  0
  8 19  1  0  0  0  0
  8  1  2  0  0  0  0
  9 17  1  0  0  0  0
 10 12  1  0  0  0  0
 11  7  1  6  0  0  0
 11 23  1  0  0  0  0
 12 11  1  0  0  0  0
 12 21  2  0  0  0  0
 13 24  1  0  0  0  0
 15 14  1  0  0  0  0
 15 18  1  0  0  0  0
 16  1  1  0  0  0  0
 17  6  2  0  0  0  0
 18  6  1  0  0  0  0
 19 15  2  0  0  0  0
 21 20  1  0  0  0  0
 21 13  1  0  0  0  0
 22  3  1  0  0  0  0
 23 13  1  0  0  0  0
 23  3  1  1  0  0  0
 24 32  1  0  0  0  0
 25 26  1  0  0  0  0
 26 30  2  0  0  0  0
 27 28  1  0  0  0  0
 27 32  1  0  0  0  0
 28 29  1  0  0  0  0
 29 26  1  0  0  0  0
 31 27  2  0  0  0  0
 32 25  2  0  0  0  0
M  END
>  <MODEL>
3

>  <REMARK>
 VINA RESULT:      -8.1      4.076      7.994
  Name = 
  2 active torsions:
  status: ('A' for Active; 'I' for Inactive)
    1  A    between atoms: N_16  and  C_27
    2  A    between atoms: C_27  and  C_32
                            x       y       z     vdW  Elec       q    Type
                         _______ _______ _______ _____ _____    ______ ____

>  <TORSDO>
F 2

$$$$
=
 OpenBabel11052421283D

 32 37  0  0  1  0  0  0  0  0999 V2000
  191.1310  174.2860  136.3700 C   0  0  0  0  0  0  0  0  0  0  0  0
  188.2840  173.5920  138.6660 C   0  0  0  0  0  2  0  0  0  0  0  0
  190.7030  175.7640  142.3120 C   0  0  0  0  0  2  0  0  0  0  0  0
  185.1090  177.7670  142.6780 C   0  0  0  0  0  2  0  0  0  0  0  0
  185.9190  179.0390  142.9440 C   0  0  0  0  0  2  0  0  0  0  0  0
  190.2740  173.5700  141.1000 C   0  0  0  0  0  0  0  0  0  0  0  0
  188.0130  174.1740  142.0660 C   0  0  0  0  0  2  0  0  0  0  0  0
  189.7990  174.1910  136.7430 C   0  0  0  0  0  3  0  0  0  0  0  0
  188.2300  172.7650  139.9470 C   0  0  0  0  0  2  0  0  0  0  0  0
  185.9470  176.7550  141.8880 C   0  0  0  0  0  2  0  0  0  0  0  0
  188.3710  175.6440  142.0930 C   0  0  1  0  0  3  0  0  0  0  0  0
  187.3010  176.5890  142.5130 C   0  0  0  0  0  0  0  0  0  0  0  0
  189.2260  177.1620  143.5100 N   0  0  0  0  0  0  0  0  0  0  0  0
  192.1320  173.8000  137.6260 S   0  0  0  0  0  0  0  0  0  0  0  0
  190.8770  173.4660  138.6920 C   0  0  0  0  0  0  0  0  0  0  0  0
  191.5860  174.7340  135.1010 N   0  0  0  0  0  1  0  0  0  0  0  0
  188.9130  173.4890  141.0700 C   0  0  0  0  0  0  0  0  0  0  0  0
  191.0890  172.8720  140.0490 C   0  0  0  0  0  2  0  0  0  0  0  0
  189.6520  173.7090  138.0500 C   0  0  0  0  0  0  0  0  0  0  0  0
  187.1630  178.7250  143.7810 C   0  0  0  0  0  2  0  0  0  0  0  0
  187.8820  177.5230  143.2370 C   0  0  0  0  0  0  0  0  0  0  0  0
  191.0590  174.2840  142.1770 C   0  0  0  0  0  2  0  0  0  0  0  0
  189.4560  175.8530  143.0490 N   0  0  2  0  0  0  0  0  0  0  0  0
  190.0310  177.7730  144.5640 C   0  0  0  0  0  2  0  0  0  0  0  0
  189.3980  176.1250  146.2520 C   0  0  0  0  0  3  0  0  0  0  0  0
  189.7180  175.1190  147.2700 C   0  0  0  0  0  0  0  0  0  0  0  0
  191.7880  176.4900  145.9560 C   0  0  0  0  0  0  0  0  0  0  0  0
  192.1190  175.7240  147.2040 C   0  0  0  0  0  2  0  0  0  0  0  0
  191.0530  174.8540  147.5920 O   0  0  0  0  0  0  0  0  0  0  0  0
  188.7950  174.4670  147.8230 O   0  0  0  0  0  0  0  0  0  0  0  0
  192.7200  176.9410  145.2400 O   0  0  0  0  0  0  0  0  0  0  0  0
  190.3770  176.7660  145.6140 C   0  0  0  0  0  0  0  0  0  0  0  0
  1  8  2  0  0  0  0
  1 14  1  0  0  0  0
  2  9  1  0  0  0  0
  4  5  1  0  0  0  0
  5 20  1  0  0  0  0
  6 22  1  0  0  0  0
  8 19  1  0  0  0  0
  9 17  1  0  0  0  0
 10 12  1  0  0  0  0
 10  4  1  0  0  0  0
 11  7  1  1  0  0  0
 11 12  1  0  0  0  0
 11 23  1  0  0  0  0
 12 21  2  0  0  0  0
 13 24  1  0  0  0  0
 14 15  1  0  0  0  0
 15 18  1  0  0  0  0
 16  1  1  0  0  0  0
 17  6  2  0  0  0  0
 17  7  1  0  0  0  0
 18  6  1  0  0  0  0
 19  2  1  0  0  0  0
 19 15  2  0  0  0  0
 21 13  1  0  0  0  0
 21 20  1  0  0  0  0
 22  3  1  0  0  0  0
 23  3  1  6  0  0  0
 23 13  1  0  0  0  0
 24 32  1  0  0  0  0
 25 26  1  0  0  0  0
 26 29  1  0  0  0  0
 26 30  2  0  0  0  0
 27 28  1  0  0  0  0
 28 29  1  0  0  0  0
 31 27  2  0  0  0  0
 32 27  1  0  0  0  0
 32 25  2  0  0  0  0
M  END
>  <MODEL>
4

>  <REMARK>
 VINA RESULT:      -8.1      4.256      6.347
  Name = 
  2 active torsions:
  status: ('A' for Active; 'I' for Inactive)
    1  A    between atoms: N_16  and  C_27
    2  A    between atoms: C_27  and  C_32
                            x       y       z     vdW  Elec       q    Type
                         _______ _______ _______ _____ _____    ______ ____

>  <TORSDO>
F 2

$$$$
=
 OpenBabel11052421283D

 32 37  0  0  1  0  0  0  0  0999 V2000
  188.6600  173.8990  138.3810 C   0  0  0  0  0  0  0  0  0  0  0  0
  189.0120  172.2910  141.7200 C   0  0  0  0  0  2  0  0  0  0  0  0
  193.1160  174.8240  142.4990 C   0  0  0  0  0  2  0  0  0  0  0  0
  190.0390  175.1460  147.5840 C   0  0  0  0  0  2  0  0  0  0  0  0
  190.5690  176.5760  147.4450 C   0  0  0  0  0  2  0  0  0  0  0  0
  192.1280  172.6770  141.5580 C   0  0  0  0  0  0  0  0  0  0  0  0
  191.5770  172.5600  144.0270 C   0  0  0  0  0  2  0  0  0  0  0  0
  188.2250  173.4110  139.6030 C   0  0  0  0  0  3  0  0  0  0  0  0
  190.1240  171.4040  142.2740 C   0  0  0  0  0  2  0  0  0  0  0  0
  189.9780  174.4630  146.2140 C   0  0  0  0  0  2  0  0  0  0  0  0
  191.6360  174.0670  144.1540 C   0  0  1  0  0  3  0  0  0  0  0  0
  191.2710  174.6450  145.4750 C   0  0  0  0  0  0  0  0  0  0  0  0
  193.1080  175.6720  144.7020 N   0  0  0  0  0  0  0  0  0  0  0  0
  190.3060  173.6370  138.1920 S   0  0  0  0  0  0  0  0  0  0  0  0
  190.5100  172.8980  139.6870 C   0  0  0  0  0  0  0  0  0  0  0  0
  187.8280  174.5360  137.4210 N   0  0  0  0  0  1  0  0  0  0  0  0
  191.3470  172.2190  142.5770 C   0  0  0  0  0  0  0  0  0  0  0  0
  191.8060  172.3040  140.1410 C   0  0  0  0  0  2  0  0  0  0  0  0
  189.2670  172.8260  140.3360 C   0  0  0  0  0  0  0  0  0  0  0  0
  191.9920  176.5720  146.8730 C   0  0  0  0  0  2  0  0  0  0  0  0
  192.0870  175.6580  145.6860 C   0  0  0  0  0  0  0  0  0  0  0  0
  193.3730  173.5150  141.7530 C   0  0  0  0  0  2  0  0  0  0  0  0
  193.0060  174.5130  143.9130 N   0  0  2  0  0  0  0  0  0  0  0  0
  194.3550  176.4190  144.8410 C   0  0  0  0  0  2  0  0  0  0  0  0
  195.6790  174.5630  145.7190 C   0  0  0  0  0  3  0  0  0  0  0  0
  196.8140  173.6350  145.6630 C   0  0  0  0  0  0  0  0  0  0  0  0
  196.5290  175.6210  143.6970 C   0  0  0  0  0  0  0  0  0  0  0  0
  197.8480  174.9130  143.8110 C   0  0  0  0  0  2  0  0  0  0  0  0
  197.7580  173.7500  144.6380 O   0  0  0  0  0  0  0  0  0  0  0  0
  196.9150  172.7120  146.5120 O   0  0  0  0  0  0  0  0  0  0  0  0
  196.3090  176.3640  142.7050 O   0  0  0  0  0  0  0  0  0  0  0  0
  195.5300  175.4960  144.7780 C   0  0  0  0  0  0  0  0  0  0  0  0
  1  8  2  0  0  0  0
  2  9  1  0  0  0  0
  5  4  1  0  0  0  0
  6 22  1  0  0  0  0
  6 17  2  0  0  0  0
  8 19  1  0  0  0  0
  9 17  1  0  0  0  0
 10  4  1  0  0  0  0
 11  7  1  1  0  0  0
 11 12  1  0  0  0  0
 12 21  2  0  0  0  0
 12 10  1  0  0  0  0
 13 24  1  0  0  0  0
 13 21  1  0  0  0  0
 14  1  1  0  0  0  0
 14 15  1  0  0  0  0
 15 18  1  0  0  0  0
 15 19  2  0  0  0  0
 16  1  1  0  0  0  0
 17  7  1  0  0  0  0
 18  6  1  0  0  0  0
 19  2  1  0  0  0  0
 20  5  1  0  0  0  0
 21 20  1  0  0  0  0
 22  3  1  0  0  0  0
 23  3  1  6  0  0  0
 23 11  1  0  0  0  0
 23 13  1  0  0  0  0
 26 25  1  0  0  0  0
 26 30  2  0  0  0  0
 27 28  1  0  0  0  0
 27 32  1  0  0  0  0
 28 29  1  0  0  0  0
 29 26  1  0  0  0  0
 31 27  2  0  0  0  0
 32 24  1  0  0  0  0
 32 25  2  0  0  0  0
M  END
>  <MODEL>
5

>  <REMARK>
 VINA RESULT:      -7.8      5.619      8.151
  Name = 
  2 active torsions:
  status: ('A' for Active; 'I' for Inactive)
    1  A    between atoms: N_16  and  C_27
    2  A    between atoms: C_27  and  C_32
                            x       y       z     vdW  Elec       q    Type
                         _______ _______ _______ _____ _____    ______ ____

>  <TORSDO>
F 2

$$$$
=
 OpenBabel11052421283D

 32 37  0  0  1  0  0  0  0  0999 V2000
  185.8450  177.0610  146.1250 C   0  0  0  0  0  0  0  0  0  0  0  0
  187.6350  176.4750  142.9140 C   0  0  0  0  0  2  0  0  0  0  0  0
  191.5050  174.8090  145.3840 C   0  0  0  0  0  2  0  0  0  0  0  0
  190.7350  171.0210  140.8570 C   0  0  0  0  0  2  0  0  0  0  0  0
  191.0580  170.0700  142.0130 C   0  0  0  0  0  2  0  0  0  0  0  0
  190.3810  176.8640  144.3940 C   0  0  0  0  0  0  0  0  0  0  0  0
  190.8870  175.4240  142.3730 C   0  0  0  0  0  2  0  0  0  0  0  0
  185.9780  176.6590  144.8050 C   0  0  0  0  0  3  0  0  0  0  0  0
  188.9370  177.0730  142.3880 C   0  0  0  0  0  2  0  0  0  0  0  0
  190.1750  172.3430  141.3920 C   0  0  0  0  0  2  0  0  0  0  0  0
  190.8810  174.1670  143.2160 C   0  0  1  0  0  3  0  0  0  0  0  0
  191.0420  172.8750  142.4960 C   0  0  0  0  0  0  0  0  0  0  0  0
  192.3280  172.8620  144.3330 N   0  0  0  0  0  0  0  0  0  0  0  0
  187.2880  177.6970  146.6980 S   0  0  0  0  0  0  0  0  0  0  0  0
  188.1320  177.4570  145.2660 C   0  0  0  0  0  0  0  0  0  0  0  0
  184.6510  176.9510  146.8880 N   0  0  0  0  0  1  0  0  0  0  0  0
  190.1140  176.4880  143.1110 C   0  0  0  0  0  0  0  0  0  0  0  0
  189.5410  177.9170  145.0560 C   0  0  0  0  0  2  0  0  0  0  0  0
  187.2670  176.9000  144.3100 C   0  0  0  0  0  0  0  0  0  0  0  0
  192.1230  170.6780  142.9320 C   0  0  0  0  0  2  0  0  0  0  0  0
  191.7960  172.1070  143.2560 C   0  0  0  0  0  0  0  0  0  0  0  0
  191.5330  176.3270  145.2140 C   0  0  0  0  0  2  0  0  0  0  0  0
  192.0010  174.2170  144.1530 N   0  0  2  0  0  0  0  0  0  0  0  0
  193.4670  172.4300  145.1380 C   0  0  0  0  0  2  0  0  0  0  0  0
  195.3060  172.4450  143.5320 C   0  0  0  0  0  3  0  0  0  0  0  0
  196.5430  173.0050  142.9770 C   0  0  0  0  0  0  0  0  0  0  0  0
  195.3750  174.1670  145.2530 C   0  0  0  0  0  0  0  0  0  0  0  0
  196.7880  174.5370  144.9080 C   0  0  0  0  0  2  0  0  0  0  0  0
  197.1440  174.1080  143.5910 O   0  0  0  0  0  0  0  0  0  0  0  0
  197.0390  172.5200  141.9280 O   0  0  0  0  0  0  0  0  0  0  0  0
  194.7630  174.8180  146.1400 O   0  0  0  0  0  0  0  0  0  0  0  0
  194.7390  173.0030  144.6010 C   0  0  0  0  0  0  0  0  0  0  0  0
  1 14  1  0  0  0  0
  1 16  1  0  0  0  0
  2 19  1  0  0  0  0
  4 10  1  0  0  0  0
  4  5  1  0  0  0  0
  5 20  1  0  0  0  0
  6 18  1  0  0  0  0
  6 22  1  0  0  0  0
  7 17  1  0  0  0  0
  8  1  2  0  0  0  0
  9  2  1  0  0  0  0
  9 17  1  0  0  0  0
 10 12  1  0  0  0  0
 11  7  1  6  0  0  0
 11 23  1  0  0  0  0
 12 11  1  0  0  0  0
 12 21  2  0  0  0  0
 13 24  1  0  0  0  0
 15 14  1  0  0  0  0
 17  6  2  0  0  0  0
 18 15  1  0  0  0  0
 19  8  1  0  0  0  0
 19 15  2  0  0  0  0
 20 21  1  0  0  0  0
 21 13  1  0  0  0  0
 22  3  1  0  0  0  0
 23 13  1  0  0  0  0
 23  3  1  1  0  0  0
 25 32  2  0  0  0  0
 26 25  1  0  0  0  0
 26 29  1  0  0  0  0
 27 31  2  0  0  0  0
 28 27  1  0  0  0  0
 29 28  1  0  0  0  0
 30 26  2  0  0  0  0
 32 24  1  0  0  0  0
 32 27  1  0  0  0  0
M  END
>  <MODEL>
6

>  <REMARK>
 VINA RESULT:      -7.7      4.563      8.735
  Name = 
  2 active torsions:
  status: ('A' for Active; 'I' for Inactive)
    1  A    between atoms: N_16  and  C_27
    2  A    between atoms: C_27  and  C_32
                            x       y       z     vdW  Elec       q    Type
                         _______ _______ _______ _____ _____    ______ ____

>  <TORSDO>
F 2

$$$$
=
 OpenBabel11052421283D

 32 37  0  0  1  0  0  0  0  0999 V2000
  191.9220  173.7480  136.4730 C   0  0  0  0  0  0  0  0  0  0  0  0
  188.7820  173.7450  138.4720 C   0  0  0  0  0  2  0  0  0  0  0  0
  191.3950  173.2080  142.5640 C   0  0  0  0  0  2  0  0  0  0  0  0
  187.2870  177.3320  143.8100 C   0  0  0  0  0  2  0  0  0  0  0  0
  188.5340  177.9160  144.4800 C   0  0  0  0  0  2  0  0  0  0  0  0
  190.2020  172.0010  140.6690 C   0  0  0  0  0  0  0  0  0  0  0  0
  188.3390  173.2310  141.8650 C   0  0  0  0  0  2  0  0  0  0  0  0
  190.6510  174.1650  136.8330 C   0  0  0  0  0  3  0  0  0  0  0  0
  188.1910  172.6680  139.3780 C   0  0  0  0  0  2  0  0  0  0  0  0
  187.6850  176.3710  142.6840 C   0  0  0  0  0  2  0  0  0  0  0  0
  189.3070  174.2640  142.3980 C   0  0  1  0  0  3  0  0  0  0  0  0
  188.7240  175.4000  143.1620 C   0  0  0  0  0  0  0  0  0  0  0  0
  190.5470  174.6490  144.2300 N   0  0  0  0  0  0  0  0  0  0  0  0
  192.4210  172.4700  137.4390 S   0  0  0  0  0  0  0  0  0  0  0  0
  191.0170  172.4280  138.3620 C   0  0  0  0  0  0  0  0  0  0  0  0
  192.6970  174.3220  135.4290 N   0  0  0  0  0  1  0  0  0  0  0  0
  188.9660  172.5760  140.6600 C   0  0  0  0  0  0  0  0  0  0  0  0
  190.7550  171.3950  139.4120 C   0  0  0  0  0  2  0  0  0  0  0  0
  190.1280  173.4080  137.8900 C   0  0  0  0  0  0  0  0  0  0  0  0
  189.3810  176.8030  145.1090 C   0  0  0  0  0  2  0  0  0  0  0  0
  189.5560  175.6600  144.1500 C   0  0  0  0  0  0  0  0  0  0  0  0
  191.0690  171.8700  141.9020 C   0  0  0  0  0  2  0  0  0  0  0  0
  190.2300  173.6180  143.3280 N   0  0  2  0  0  0  0  0  0  0  0  0
  191.3890  174.4320  145.4040 C   0  0  0  0  0  2  0  0  0  0  0  0
  193.3890  175.3220  144.3210 C   0  0  0  0  0  3  0  0  0  0  0  0
  194.5460  176.2220  144.2670 C   0  0  0  0  0  0  0  0  0  0  0  0
  192.8570  176.2460  146.5110 C   0  0  0  0  0  0  0  0  0  0  0  0
  194.1950  176.9180  146.6180 C   0  0  0  0  0  2  0  0  0  0  0  0
  194.8120  177.0810  145.3380 O   0  0  0  0  0  0  0  0  0  0  0  0
  195.2740  176.2510  143.2410 O   0  0  0  0  0  0  0  0  0  0  0  0
  192.0050  176.4150  147.4220 O   0  0  0  0  0  0  0  0  0  0  0  0
  192.5750  175.3420  145.3770 C   0  0  0  0  0  0  0  0  0  0  0  0
  1  8  2  0  0  0  0
  1 14  1  0  0  0  0
  2  9  1  0  0  0  0
  4  5  1  0  0  0  0
  5 20  1  0  0  0  0
  6 22  1  0  0  0  0
  8 19  1  0  0  0  0
  9 17  1  0  0  0  0
 10 12  1  0  0  0  0
 10  4  1  0  0  0  0
 11  7  1  1  0  0  0
 11 12  1  0  0  0  0
 11 23  1  0  0  0  0
 12 21  2  0  0  0  0
 13 24  1  0  0  0  0
 14 15  1  0  0  0  0
 15 18  1  0  0  0  0
 16  1  1  0  0  0  0
 17  6  2  0  0  0  0
 17  7  1  0  0  0  0
 18  6  1  0  0  0  0
 19 15  2  0  0  0  0
 19  2  1  0  0  0  0
 21 13  1  0  0  0  0
 21 20  1  0  0  0  0
 22  3  1  0  0  0  0
 23  3  1  6  0  0  0
 23 13  1  0  0  0  0
 25 32  2  0  0  0  0
 26 25  1  0  0  0  0
 26 29  1  0  0  0  0
 27 28  1  0  0  0  0
 27 31  2  0  0  0  0
 29 28  1  0  0  0  0
 30 26  2  0  0  0  0
 32 24  1  0  0  0  0
 32 27  1  0  0  0  0
M  END
>  <MODEL>
7

>  <REMARK>
 VINA RESULT:      -7.7      4.628      7.174
  Name = 
  2 active torsions:
  status: ('A' for Active; 'I' for Inactive)
    1  A    between atoms: N_16  and  C_27
    2  A    between atoms: C_27  and  C_32
                            x       y       z     vdW  Elec       q    Type
                         _______ _______ _______ _____ _____    ______ ____

>  <TORSDO>
F 2

$$$$
=
 OpenBabel11052421283D

 32 37  0  0  1  0  0  0  0  0999 V2000
  195.8810  170.0170  143.7410 C   0  0  0  0  0  0  0  0  0  0  0  0
  196.0930  173.1360  145.7630 C   0  0  0  0  0  2  0  0  0  0  0  0
  193.1220  175.3790  142.6000 C   0  0  0  0  0  2  0  0  0  0  0  0
  191.1820  176.9360  148.0080 C   0  0  0  0  0  2  0  0  0  0  0  0
  189.8690  176.6820  147.2630 C   0  0  0  0  0  2  0  0  0  0  0  0
  195.5380  174.8310  143.1740 C   0  0  0  0  0  0  0  0  0  0  0  0
  194.7710  176.2670  145.1140 C   0  0  0  0  0  2  0  0  0  0  0  0
  195.9140  170.7730  144.9020 C   0  0  0  0  0  3  0  0  0  0  0  0
  196.6150  174.5200  145.3870 C   0  0  0  0  0  2  0  0  0  0  0  0
  192.3300  176.1650  147.3470 C   0  0  0  0  0  2  0  0  0  0  0  0
  193.3270  175.8800  144.8820 C   0  0  1  0  0  3  0  0  0  0  0  0
  192.3300  176.3880  145.8630 C   0  0  0  0  0  0  0  0  0  0  0  0
  191.5170  176.6370  143.7890 N   0  0  0  0  0  0  0  0  0  0  0  0
  196.0580  170.9980  142.3920 S   0  0  0  0  0  0  0  0  0  0  0  0
  196.1660  172.4290  143.2650 C   0  0  0  0  0  0  0  0  0  0  0  0
  195.7200  168.6050  143.6990 N   0  0  0  0  0  1  0  0  0  0  0  0
  195.6470  175.2180  144.4770 C   0  0  0  0  0  0  0  0  0  0  0  0
  196.4390  173.7580  142.6340 C   0  0  0  0  0  2  0  0  0  0  0  0
  196.0940  172.1370  144.6370 C   0  0  0  0  0  0  0  0  0  0  0  0
  189.9680  177.1660  145.8120 C   0  0  0  0  0  2  0  0  0  0  0  0
  191.2480  176.6990  145.1800 C   0  0  0  0  0  0  0  0  0  0  0  0
  194.5880  175.4580  142.1780 C   0  0  0  0  0  2  0  0  0  0  0  0
  192.8910  176.4130  143.5930 N   0  0  2  0  0  0  0  0  0  0  0  0
  190.6720  177.2580  142.7730 C   0  0  0  0  0  2  0  0  0  0  0  0
  189.5310  175.1420  142.3410 C   0  0  0  0  0  3  0  0  0  0  0  0
  188.3240  174.3320  142.1480 C   0  0  0  0  0  0  0  0  0  0  0  0
  188.1020  177.1010  142.5680 C   0  0  0  0  0  0  0  0  0  0  0  0
  186.9040  176.3590  142.0500 C   0  0  0  0  0  2  0  0  0  0  0  0
  187.0660  174.9430  142.1620 O   0  0  0  0  0  0  0  0  0  0  0  0
  188.4170  173.0850  142.0120 O   0  0  0  0  0  0  0  0  0  0  0  0
  187.9730  178.2920  142.9550 O   0  0  0  0  0  0  0  0  0  0  0  0
  189.4300  176.4530  142.5580 C   0  0  0  0  0  0  0  0  0  0  0  0
  1  8  2  0  0  0  0
  5  4  1  0  0  0  0
  6 17  2  0  0  0  0
  9  2  1  0  0  0  0
 10  4  1  0  0  0  0
 11  7  1  1  0  0  0
 11 12  1  0  0  0  0
 12 10  1  0  0  0  0
 13 21  1  0  0  0  0
 14 15  1  0  0  0  0
 14  1  1  0  0  0  0
 15 19  2  0  0  0  0
 16  1  1  0  0  0  0
 17  7  1  0  0  0  0
 17  9  1  0  0  0  0
 18  6  1  0  0  0  0
 18 15  1  0  0  0  0
 19  8  1  0  0  0  0
 19  2  1  0  0  0  0
 20  5  1  0  0  0  0
 21 20  1  0  0  0  0
 21 12  2  0  0  0  0
 22  3  1  0  0  0  0
 22  6  1  0  0  0  0
 23  3  1  6  0  0  0
 23 13  1  0  0  0  0
 23 11  1  0  0  0  0
 24 13  1  0  0  0  0
 25 32  2  0  0  0  0
 26 29  1  0  0  0  0
 26 25  1  0  0  0  0
 27 31  2  0  0  0  0
 28 29  1  0  0  0  0
 28 27  1  0  0  0  0
 30 26  2  0  0  0  0
 32 27  1  0  0  0  0
 32 24  1  0  0  0  0
M  END
>  <MODEL>
8

>  <REMARK>
 VINA RESULT:      -7.6      3.747      5.083
  Name = 
  2 active torsions:
  status: ('A' for Active; 'I' for Inactive)
    1  A    between atoms: N_16  and  C_27
    2  A    between atoms: C_27  and  C_32
                            x       y       z     vdW  Elec       q    Type
                         _______ _______ _______ _____ _____    ______ ____

>  <TORSDO>
F 2

$$$$
=
 OpenBabel11052421283D

 32 37  0  0  1  0  0  0  0  0999 V2000
  186.0130  177.2690  145.9310 C   0  0  0  0  0  0  0  0  0  0  0  0
  188.3400  177.3950  143.0290 C   0  0  0  0  0  2  0  0  0  0  0  0
  191.2330  174.1220  145.2150 C   0  0  0  0  0  2  0  0  0  0  0  0
  190.8500  172.3850  139.5350 C   0  0  0  0  0  2  0  0  0  0  0  0
  190.7450  171.0520  140.2800 C   0  0  0  0  0  2  0  0  0  0  0  0
  190.7190  176.5960  144.9230 C   0  0  0  0  0  0  0  0  0  0  0  0
  191.4060  175.8470  142.6040 C   0  0  0  0  0  2  0  0  0  0  0  0
  186.3640  177.3170  144.5910 C   0  0  0  0  0  3  0  0  0  0  0  0
  189.8080  177.8080  142.9600 C   0  0  0  0  0  2  0  0  0  0  0  0
  190.4170  173.5420  140.4430 C   0  0  0  0  0  2  0  0  0  0  0  0
  191.0030  174.4190  142.9010 C   0  0  1  0  0  3  0  0  0  0  0  0
  191.0970  173.4470  141.7780 C   0  0  0  0  0  0  0  0  0  0  0  0
  191.9250  172.5090  143.6380 N   0  0  0  0  0  0  0  0  0  0  0  0
  187.3800  177.3110  146.9020 S   0  0  0  0  0  0  0  0  0  0  0  0
  188.4670  177.3760  145.6220 C   0  0  0  0  0  0  0  0  0  0  0  0
  184.6790  177.1940  146.4160 N   0  0  0  0  0  1  0  0  0  0  0  0
  190.6810  176.7500  143.5690 C   0  0  0  0  0  0  0  0  0  0  0  0
  189.9440  177.5310  145.8050 C   0  0  0  0  0  2  0  0  0  0  0  0
  187.7510  177.3970  144.4140 C   0  0  0  0  0  0  0  0  0  0  0  0
  191.6680  171.0420  141.5040 C   0  0  0  0  0  2  0  0  0  0  0  0
  191.5240  172.3120  142.2920 C   0  0  0  0  0  0  0  0  0  0  0  0
  191.5540  175.5560  145.6370 C   0  0  0  0  0  2  0  0  0  0  0  0
  191.8800  173.8820  143.9380 N   0  0  2  0  0  0  0  0  0  0  0  0
  192.7690  171.5730  144.3760 C   0  0  0  0  0  2  0  0  0  0  0  0
  194.6130  172.8920  145.2830 C   0  0  0  0  0  3  0  0  0  0  0  0
  196.0130  173.3320  145.2980 C   0  0  0  0  0  0  0  0  0  0  0  0
  195.1300  171.5320  143.3290 C   0  0  0  0  0  0  0  0  0  0  0  0
  196.4520  172.2160  143.1310 C   0  0  0  0  0  2  0  0  0  0  0  0
  196.9000  172.8630  144.3240 O   0  0  0  0  0  0  0  0  0  0  0  0
  196.4230  174.0960  146.2090 O   0  0  0  0  0  0  0  0  0  0  0  0
  194.8060  170.5790  142.5740 O   0  0  0  0  0  0  0  0  0  0  0  0
  194.1940  172.0250  144.3610 C   0  0  0  0  0  0  0  0  0  0  0  0
  1 16  1  0  0  0  0
  1 14  1  0  0  0  0
  2 19  1  0  0  0  0
  3 22  1  0  0  0  0
  4  5  1  0  0  0  0
  4 10  1  0  0  0  0
  5 20  1  0  0  0  0
  6 22  1  0  0  0  0
  6 18  1  0  0  0  0
  7 17  1  0  0  0  0
  8  1  2  0  0  0  0
  9  2  1  0  0  0  0
  9 17  1  0  0  0  0
 10 12  1  0  0  0  0
 11  7  1  6  0  0  0
 11 23  1  0  0  0  0
 12 21  2  0  0  0  0
 12 11  1  0  0  0  0
 13 23  1  0  0  0  0
 13 24  1  0  0  0  0
 15 18  1  0  0  0  0
 15 14  1  0  0  0  0
 17  6  2  0  0  0  0
 19  8  1  0  0  0  0
 19 15  2  0  0  0  0
 20 21  1  0  0  0  0
 21 13  1  0  0  0  0
 23  3  1  1  0  0  0
 25 26  1  0  0  0  0
 26 30  2  0  0  0  0
 27 32  1  0  0  0  0
 28 27  1  0  0  0  0
 28 29  1  0  0  0  0
 29 26  1  0  0  0  0
 31 27  2  0  0  0  0
 32 24  1  0  0  0  0
 32 25  2  0  0  0  0
M  END
>  <MODEL>
9

>  <REMARK>
 VINA RESULT:      -7.6      4.633      8.912
  Name = 
  2 active torsions:
  status: ('A' for Active; 'I' for Inactive)
    1  A    between atoms: N_16  and  C_27
    2  A    between atoms: C_27  and  C_32
                            x       y       z     vdW  Elec       q    Type
                         _______ _______ _______ _____ _____    ______ ____

>  <TORSDO>
F 2

$$$$
