=
 OpenBabel11052417323D

 25 29  0  0  0  0  0  0  0  0999 V2000
  185.6870  178.0270  143.7550 C   0  0  0  0  0  0  0  0  0  0  0  0
  186.4900  177.8660  144.9040 C   0  0  0  0  0  0  0  0  0  0  0  0
  183.8200  178.8170  145.1130 C   0  0  0  0  0  3  0  0  0  0  0  0
  186.0200  177.7690  142.4090 C   0  0  0  0  0  0  0  0  0  0  0  0
  186.3080  177.3820  139.6550 C   0  0  0  0  0  3  0  0  0  0  0  0
  184.6080  178.6620  146.2570 C   0  0  0  0  0  3  0  0  0  0  0  0
  184.9720  178.0440  141.5320 C   0  0  0  0  0  0  0  0  0  0  0  0
  185.0890  177.8600  140.1560 C   0  0  0  0  0  3  0  0  0  0  0  0
  186.7490  178.0430  147.3750 C   0  0  0  0  0  0  0  0  0  0  0  0
  186.2720  178.3040  148.5120 O   0  0  0  0  0  0  0  0  0  0  0  0
  187.9010  177.3340  144.7970 C   0  0  0  0  0  2  0  0  0  0  0  0
  187.3760  177.1020  140.5250 C   0  0  0  0  0  3  0  0  0  0  0  0
  184.3790  178.4970  143.8810 C   0  0  0  0  0  0  0  0  0  0  0  0
  183.6270  178.6010  142.3760 S   0  0  0  0  0  0  0  0  0  0  0  0
  188.1400  177.6000  147.2630 C   0  0  0  0  0  3  0  0  0  0  0  0
  187.2370  177.2950  141.9090 C   0  0  0  0  0  3  0  0  0  0  0  0
  188.6970  177.2830  146.0870 C   0  0  0  0  0  0  0  0  0  0  0  0
  185.9320  178.1900  146.1620 C   0  0  0  0  0  0  0  0  0  0  0  0
  192.2150  176.5870  144.8320 C   0  0  0  0  0  0  0  0  0  0  0  0
  190.1140  176.8450  146.0370 C   0  0  0  0  0  0  0  0  0  0  0  0
  190.8810  177.0030  144.8700 C   0  0  0  0  0  3  0  0  0  0  0  0
  192.9600  176.7490  143.6720 O   0  0  0  0  0  1  0  0  0  0  0  0
  190.7140  176.2600  147.1650 C   0  0  0  0  0  3  0  0  0  0  0  0
  192.7980  176.0070  145.9610 C   0  0  0  0  0  3  0  0  0  0  0  0
  192.0480  175.8440  147.1280 C   0  0  0  0  0  3  0  0  0  0  0  0
  1 13  1  0  0  0  0
  1  2  2  0  0  0  0
  2 18  1  0  0  0  0
  3  6  1  0  0  0  0
  4  1  1  0  0  0  0
  5  8  2  0  0  0  0
  5 12  1  0  0  0  0
  7 14  1  0  0  0  0
  7  4  2  0  0  0  0
  8  7  1  0  0  0  0
  9 10  2  0  0  0  0
 11  2  1  0  0  0  0
 11 17  1  0  0  0  0
 12 16  2  0  0  0  0
 13  3  2  0  0  0  0
 14 13  1  0  0  0  0
 15  9  1  0  0  0  0
 16  4  1  0  0  0  0
 17 15  2  0  0  0  0
 18  6  2  0  0  0  0
 18  9  1  0  0  0  0
 19 21  2  0  0  0  0
 19 24  1  0  0  0  0
 20 17  1  0  0  0  0
 20 23  2  0  0  0  0
 21 20  1  0  0  0  0
 22 19  1  0  0  0  0
 24 25  2  0  0  0  0
 25 23  1  0  0  0  0
M  END
>  <MODEL>
1

>  <REMARK>
 VINA RESULT:      -8.8      0.000      0.000
  Name = 
  1 active torsions:
  status: ('A' for Active; 'I' for Inactive)
    1  A    between atoms: C_6  and  C_23
                            x       y       z     vdW  Elec       q    Type
                         _______ _______ _______ _____ _____    ______ ____

>  <TORSDO>
F 1

$$$$
=
 OpenBabel11052417323D

 25 29  0  0  0  0  0  0  0  0999 V2000
  190.5920  174.4600  144.3700 C   0  0  0  0  0  0  0  0  0  0  0  0
  190.0780  175.4140  145.2740 C   0  0  0  0  0  0  0  0  0  0  0  0
  192.6910  174.3460  145.6100 C   0  0  0  0  0  3  0  0  0  0  0  0
  189.9710  173.9080  143.2310 C   0  0  0  0  0  0  0  0  0  0  0  0
  189.0760  172.6000  140.9270 C   0  0  0  0  0  3  0  0  0  0  0  0
  192.1900  175.2900  146.5120 C   0  0  0  0  0  3  0  0  0  0  0  0
  190.7810  172.9880  142.5670 C   0  0  0  0  0  0  0  0  0  0  0  0
  190.3600  172.3220  141.4180 C   0  0  0  0  0  3  0  0  0  0  0  0
  190.3830  176.8090  147.3160 C   0  0  0  0  0  0  0  0  0  0  0  0
  191.0970  177.2090  148.2730 O   0  0  0  0  0  0  0  0  0  0  0  0
  188.7000  176.0040  145.0810 C   0  0  0  0  0  2  0  0  0  0  0  0
  188.2450  173.5230  141.5850 C   0  0  0  0  0  3  0  0  0  0  0  0
  191.8780  173.9490  144.5550 C   0  0  0  0  0  0  0  0  0  0  0  0
  192.2630  172.8340  143.3510 S   0  0  0  0  0  0  0  0  0  0  0  0
  189.0200  177.3220  147.1710 C   0  0  0  0  0  3  0  0  0  0  0  0
  188.6890  174.1830  142.7420 C   0  0  0  0  0  3  0  0  0  0  0  0
  188.2210  176.9560  146.1600 C   0  0  0  0  0  0  0  0  0  0  0  0
  190.8960  175.8250  146.3520 C   0  0  0  0  0  0  0  0  0  0  0  0
  184.8760  178.0970  144.7640 C   0  0  0  0  0  0  0  0  0  0  0  0
  186.8460  177.5080  146.0700 C   0  0  0  0  0  0  0  0  0  0  0  0
  186.1710  177.5750  144.8390 C   0  0  0  0  0  3  0  0  0  0  0  0
  184.2230  178.1570  143.5410 O   0  0  0  0  0  1  0  0  0  0  0  0
  186.1940  177.9750  147.2240 C   0  0  0  0  0  3  0  0  0  0  0  0
  184.2410  178.5580  145.9190 C   0  0  0  0  0  3  0  0  0  0  0  0
  184.9000  178.4970  147.1490 C   0  0  0  0  0  3  0  0  0  0  0  0
  1 13  1  0  0  0  0
  1  2  2  0  0  0  0
  2 18  1  0  0  0  0
  3  6  1  0  0  0  0
  4  1  1  0  0  0  0
  5  8  2  0  0  0  0
  5 12  1  0  0  0  0
  7  4  2  0  0  0  0
  7 14  1  0  0  0  0
  8  7  1  0  0  0  0
  9 10  2  0  0  0  0
 11  2  1  0  0  0  0
 11 17  1  0  0  0  0
 12 16  2  0  0  0  0
 13  3  2  0  0  0  0
 14 13  1  0  0  0  0
 15  9  1  0  0  0  0
 16  4  1  0  0  0  0
 17 15  2  0  0  0  0
 18  6  2  0  0  0  0
 18  9  1  0  0  0  0
 19 21  2  0  0  0  0
 19 24  1  0  0  0  0
 20 17  1  0  0  0  0
 20 23  2  0  0  0  0
 21 20  1  0  0  0  0
 22 19  1  0  0  0  0
 24 25  2  0  0  0  0
 25 23  1  0  0  0  0
M  END
>  <MODEL>
2

>  <REMARK>
 VINA RESULT:      -8.2      3.509      6.399
  Name = 
  1 active torsions:
  status: ('A' for Active; 'I' for Inactive)
    1  A    between atoms: C_6  and  C_23
                            x       y       z     vdW  Elec       q    Type
                         _______ _______ _______ _____ _____    ______ ____

>  <TORSDO>
F 1

$$$$
=
 OpenBabel11052417323D

 25 29  0  0  0  0  0  0  0  0999 V2000
  190.5720  174.4630  143.4630 C   0  0  0  0  0  0  0  0  0  0  0  0
  190.0570  175.1830  144.5620 C   0  0  0  0  0  0  0  0  0  0  0  0
  192.5320  173.7990  144.7570 C   0  0  0  0  0  3  0  0  0  0  0  0
  190.0150  174.3080  142.1770 C   0  0  0  0  0  0  0  0  0  0  0  0
  189.2330  173.7750  139.5460 C   0  0  0  0  0  3  0  0  0  0  0  0
  192.0290  174.5090  145.8510 C   0  0  0  0  0  3  0  0  0  0  0  0
  190.8060  173.5240  141.3380 C   0  0  0  0  0  0  0  0  0  0  0  0
  190.4390  173.2430  140.0230 C   0  0  0  0  0  3  0  0  0  0  0  0
  190.2860  175.9320  146.9270 C   0  0  0  0  0  0  0  0  0  0  0  0
  190.9390  175.9810  148.0030 O   0  0  0  0  0  0  0  0  0  0  0  0
  188.7560  175.9430  144.4510 C   0  0  0  0  0  2  0  0  0  0  0  0
  188.4230  174.5660  140.3790 C   0  0  0  0  0  3  0  0  0  0  0  0
  191.7900  173.7900  143.5820 C   0  0  0  0  0  0  0  0  0  0  0  0
  192.1910  173.0100  142.1420 S   0  0  0  0  0  0  0  0  0  0  0  0
  188.9880  176.6040  146.8420 C   0  0  0  0  0  3  0  0  0  0  0  0
  188.8110  174.8370  141.7010 C   0  0  0  0  0  3  0  0  0  0  0  0
  188.2590  176.6110  145.7180 C   0  0  0  0  0  0  0  0  0  0  0  0
  190.8040  175.1990  145.7630 C   0  0  0  0  0  0  0  0  0  0  0  0
  185.4990  179.0790  144.8670 C   0  0  0  0  0  0  0  0  0  0  0  0
  186.9480  177.3050  145.6960 C   0  0  0  0  0  0  0  0  0  0  0  0
  186.7370  178.4320  144.8810 C   0  0  0  0  0  3  0  0  0  0  0  0
  185.3070  180.1910  144.0580 O   0  0  0  0  0  1  0  0  0  0  0  0
  185.8890  176.8450  146.4960 C   0  0  0  0  0  3  0  0  0  0  0  0
  184.4560  178.6110  145.6680 C   0  0  0  0  0  3  0  0  0  0  0  0
  184.6500  177.4920  146.4820 C   0  0  0  0  0  3  0  0  0  0  0  0
  1 13  1  0  0  0  0
  1  2  2  0  0  0  0
  2 18  1  0  0  0  0
  3  6  1  0  0  0  0
  4  1  1  0  0  0  0
  5  8  2  0  0  0  0
  5 12  1  0  0  0  0
  7 14  1  0  0  0  0
  7  4  2  0  0  0  0
  8  7  1  0  0  0  0
  9 10  2  0  0  0  0
 11  2  1  0  0  0  0
 11 17  1  0  0  0  0
 12 16  2  0  0  0  0
 13  3  2  0  0  0  0
 14 13  1  0  0  0  0
 15  9  1  0  0  0  0
 16  4  1  0  0  0  0
 17 15  2  0  0  0  0
 18  6  2  0  0  0  0
 18  9  1  0  0  0  0
 19 21  2  0  0  0  0
 19 24  1  0  0  0  0
 20 17  1  0  0  0  0
 20 23  2  0  0  0  0
 21 20  1  0  0  0  0
 22 19  1  0  0  0  0
 24 25  2  0  0  0  0
 25 23  1  0  0  0  0
M  END
>  <MODEL>
3

>  <REMARK>
 VINA RESULT:      -8.1      3.433      6.245
  Name = 
  1 active torsions:
  status: ('A' for Active; 'I' for Inactive)
    1  A    between atoms: C_6  and  C_23
                            x       y       z     vdW  Elec       q    Type
                         _______ _______ _______ _____ _____    ______ ____

>  <TORSDO>
F 1

$$$$
=
 OpenBabel11052417323D

 25 29  0  0  0  0  0  0  0  0999 V2000
  190.9390  174.1750  144.3860 C   0  0  0  0  0  0  0  0  0  0  0  0
  190.4640  175.2130  145.2150 C   0  0  0  0  0  0  0  0  0  0  0  0
  192.9250  173.9070  145.7790 C   0  0  0  0  0  3  0  0  0  0  0  0
  190.3440  173.6370  143.2270 C   0  0  0  0  0  0  0  0  0  0  0  0
  189.4810  172.3250  140.9130 C   0  0  0  0  0  3  0  0  0  0  0  0
  192.4630  174.9340  146.6070 C   0  0  0  0  0  3  0  0  0  0  0  0
  191.1000  172.6130  142.6570 C   0  0  0  0  0  0  0  0  0  0  0  0
  190.6930  171.9430  141.5060 C   0  0  0  0  0  3  0  0  0  0  0  0
  190.7690  176.6590  147.2220 C   0  0  0  0  0  0  0  0  0  0  0  0
  191.4530  177.0280  148.2130 O   0  0  0  0  0  0  0  0  0  0  0  0
  189.1700  175.9280  144.9010 C   0  0  0  0  0  2  0  0  0  0  0  0
  188.7050  173.3540  141.4740 C   0  0  0  0  0  3  0  0  0  0  0  0
  192.1500  173.5470  144.6830 C   0  0  0  0  0  0  0  0  0  0  0  0
  192.5010  172.3470  143.5510 S   0  0  0  0  0  0  0  0  0  0  0  0
  189.4780  177.2980  146.9590 C   0  0  0  0  0  3  0  0  0  0  0  0
  189.1340  174.0160  142.6360 C   0  0  0  0  0  3  0  0  0  0  0  0
  188.7180  176.9690  145.9070 C   0  0  0  0  0  0  0  0  0  0  0  0
  191.2440  175.5880  146.3340 C   0  0  0  0  0  0  0  0  0  0  0  0
  185.2740  178.4430  146.5450 C   0  0  0  0  0  0  0  0  0  0  0  0
  187.4160  177.6490  145.6980 C   0  0  0  0  0  0  0  0  0  0  0  0
  186.4990  177.8010  146.7520 C   0  0  0  0  0  3  0  0  0  0  0  0
  184.3790  178.5840  147.5970 O   0  0  0  0  0  1  0  0  0  0  0  0
  187.0770  178.1550  144.4310 C   0  0  0  0  0  3  0  0  0  0  0  0
  184.9510  178.9400  145.2810 C   0  0  0  0  0  3  0  0  0  0  0  0
  185.8530  178.7970  144.2240 C   0  0  0  0  0  3  0  0  0  0  0  0
  1 13  1  0  0  0  0
  1  2  2  0  0  0  0
  2 18  1  0  0  0  0
  3  6  1  0  0  0  0
  4  1  1  0  0  0  0
  5 12  2  0  0  0  0
  5  8  1  0  0  0  0
  7  4  1  0  0  0  0
  7 14  1  0  0  0  0
  8  7  2  0  0  0  0
  9 10  2  0  0  0  0
 11  2  1  0  0  0  0
 11 17  1  0  0  0  0
 12 16  1  0  0  0  0
 13  3  2  0  0  0  0
 14 13  1  0  0  0  0
 15  9  1  0  0  0  0
 16  4  2  0  0  0  0
 17 15  2  0  0  0  0
 18  6  2  0  0  0  0
 18  9  1  0  0  0  0
 19 21  1  0  0  0  0
 19 22  1  0  0  0  0
 20 17  1  0  0  0  0
 20 21  2  0  0  0  0
 23 20  1  0  0  0  0
 24 19  2  0  0  0  0
 25 23  2  0  0  0  0
 25 24  1  0  0  0  0
M  END
>  <MODEL>
4

>  <REMARK>
 VINA RESULT:      -8.0      3.536      6.669
  Name = 
  1 active torsions:
  status: ('A' for Active; 'I' for Inactive)
    1  A    between atoms: C_6  and  C_23
                            x       y       z     vdW  Elec       q    Type
                         _______ _______ _______ _____ _____    ______ ____

>  <TORSDO>
F 1

$$$$
=
 OpenBabel11052417323D

 25 29  0  0  0  0  0  0  0  0999 V2000
  188.0400  176.2840  144.8760 C   0  0  0  0  0  0  0  0  0  0  0  0
  188.7130  175.2710  144.1610 C   0  0  0  0  0  0  0  0  0  0  0  0
  188.8940  175.4200  146.9930 C   0  0  0  0  0  3  0  0  0  0  0  0
  187.2220  177.3170  144.3740 C   0  0  0  0  0  0  0  0  0  0  0  0
  185.5600  179.4800  143.7620 C   0  0  0  0  0  3  0  0  0  0  0  0
  189.5650  174.4140  146.2930 C   0  0  0  0  0  3  0  0  0  0  0  0
  186.7170  178.1420  145.3790 C   0  0  0  0  0  0  0  0  0  0  0  0
  185.8870  179.2260  145.1010 C   0  0  0  0  0  3  0  0  0  0  0  0
  190.2010  173.2730  144.1680 C   0  0  0  0  0  0  0  0  0  0  0  0
  190.8750  172.4100  144.7920 O   0  0  0  0  0  0  0  0  0  0  0  0
  188.5950  175.1730  142.6570 C   0  0  0  0  0  2  0  0  0  0  0  0
  186.0620  178.6600  142.7360 C   0  0  0  0  0  3  0  0  0  0  0  0
  188.1430  176.3380  146.2670 C   0  0  0  0  0  0  0  0  0  0  0  0
  187.2530  177.6280  146.8890 S   0  0  0  0  0  0  0  0  0  0  0  0
  190.1480  173.2260  142.7060 C   0  0  0  0  0  3  0  0  0  0  0  0
  186.8970  177.5730  143.0380 C   0  0  0  0  0  3  0  0  0  0  0  0
  189.4290  174.0970  141.9880 C   0  0  0  0  0  0  0  0  0  0  0  0
  189.4800  174.3320  144.8880 C   0  0  0  0  0  0  0  0  0  0  0  0
  188.3580  174.4370  138.3580 C   0  0  0  0  0  0  0  0  0  0  0  0
  189.4190  174.0010  140.5070 C   0  0  0  0  0  0  0  0  0  0  0  0
  188.3590  174.5340  139.7520 C   0  0  0  0  0  3  0  0  0  0  0  0
  187.3040  174.9680  137.6270 O   0  0  0  0  0  1  0  0  0  0  0  0
  190.4770  173.3690  139.8320 C   0  0  0  0  0  3  0  0  0  0  0  0
  189.4170  173.8070  137.7010 C   0  0  0  0  0  3  0  0  0  0  0  0
  190.4770  173.2730  138.4370 C   0  0  0  0  0  3  0  0  0  0  0  0
  1 13  1  0  0  0  0
  2  1  2  0  0  0  0
  2 18  1  0  0  0  0
  4  1  1  0  0  0  0
  4  7  1  0  0  0  0
  5  8  1  0  0  0  0
  6  3  1  0  0  0  0
  7 14  1  0  0  0  0
  8  7  2  0  0  0  0
  9 10  2  0  0  0  0
  9 18  1  0  0  0  0
 11  2  1  0  0  0  0
 12 16  1  0  0  0  0
 12  5  2  0  0  0  0
 13 14  1  0  0  0  0
 13  3  2  0  0  0  0
 15  9  1  0  0  0  0
 16  4  2  0  0  0  0
 17 11  1  0  0  0  0
 17 15  2  0  0  0  0
 18  6  2  0  0  0  0
 19 21  1  0  0  0  0
 20 17  1  0  0  0  0
 21 20  2  0  0  0  0
 22 19  1  0  0  0  0
 23 20  1  0  0  0  0
 24 19  2  0  0  0  0
 24 25  1  0  0  0  0
 25 23  2  0  0  0  0
M  END
>  <MODEL>
5

>  <REMARK>
 VINA RESULT:      -8.0      3.633      6.048
  Name = 
  1 active torsions:
  status: ('A' for Active; 'I' for Inactive)
    1  A    between atoms: C_6  and  C_23
                            x       y       z     vdW  Elec       q    Type
                         _______ _______ _______ _____ _____    ______ ____

>  <TORSDO>
F 1

$$$$
=
 OpenBabel11052417323D

 25 29  0  0  0  0  0  0  0  0999 V2000
  186.1760  177.4900  143.6710 C   0  0  0  0  0  0  0  0  0  0  0  0
  186.9280  176.6430  142.8300 C   0  0  0  0  0  0  0  0  0  0  0  0
  185.1490  178.5740  141.7410 C   0  0  0  0  0  3  0  0  0  0  0  0
  186.1640  177.5400  145.0800 C   0  0  0  0  0  0  0  0  0  0  0  0
  185.8690  177.9340  147.8330 C   0  0  0  0  0  3  0  0  0  0  0  0
  185.8890  177.7380  140.8990 C   0  0  0  0  0  3  0  0  0  0  0  0
  185.2940  178.5100  145.5780 C   0  0  0  0  0  0  0  0  0  0  0  0
  185.1280  178.7260  146.9440 C   0  0  0  0  0  3  0  0  0  0  0  0
  187.5360  175.9020  140.5300 C   0  0  0  0  0  0  0  0  0  0  0  0
  187.4350  176.0150  139.2790 O   0  0  0  0  0  0  0  0  0  0  0  0
  187.8950  175.6340  143.4070 C   0  0  0  0  0  2  0  0  0  0  0  0
  186.7500  176.9510  147.3480 C   0  0  0  0  0  3  0  0  0  0  0  0
  185.3080  178.4300  143.1140 C   0  0  0  0  0  0  0  0  0  0  0  0
  184.5280  179.3190  144.3170 S   0  0  0  0  0  0  0  0  0  0  0  0
  188.4150  174.8750  141.0910 C   0  0  0  0  0  3  0  0  0  0  0  0
  186.9010  176.7490  145.9670 C   0  0  0  0  0  3  0  0  0  0  0  0
  188.5850  174.7220  142.4110 C   0  0  0  0  0  0  0  0  0  0  0  0
  186.7740  176.7790  141.4310 C   0  0  0  0  0  0  0  0  0  0  0  0
  190.4600  171.4330  142.7340 C   0  0  0  0  0  0  0  0  0  0  0  0
  189.4860  173.6580  142.9190 C   0  0  0  0  0  0  0  0  0  0  0  0
  189.6100  172.4300  142.2470 C   0  0  0  0  0  3  0  0  0  0  0  0
  190.5720  170.2260  142.0580 O   0  0  0  0  0  1  0  0  0  0  0  0
  190.2330  173.8630  144.0920 C   0  0  0  0  0  3  0  0  0  0  0  0
  191.1960  171.6510  143.9000 C   0  0  0  0  0  3  0  0  0  0  0  0
  191.0840  172.8670  144.5780 C   0  0  0  0  0  3  0  0  0  0  0  0
  1  4  1  0  0  0  0
  2 11  1  0  0  0  0
  2  1  1  0  0  0  0
  3 13  1  0  0  0  0
  4  7  2  0  0  0  0
  4 16  1  0  0  0  0
  6 18  1  0  0  0  0
  6  3  2  0  0  0  0
  7  8  1  0  0  0  0
  8  5  2  0  0  0  0
  9 15  1  0  0  0  0
  9 18  1  0  0  0  0
 10  9  2  0  0  0  0
 12  5  1  0  0  0  0
 13  1  2  0  0  0  0
 13 14  1  0  0  0  0
 14  7  1  0  0  0  0
 15 17  2  0  0  0  0
 16 12  2  0  0  0  0
 17 20  1  0  0  0  0
 17 11  1  0  0  0  0
 18  2  2  0  0  0  0
 19 24  1  0  0  0  0
 20 23  2  0  0  0  0
 21 19  2  0  0  0  0
 21 20  1  0  0  0  0
 22 19  1  0  0  0  0
 23 25  1  0  0  0  0
 24 25  2  0  0  0  0
M  END
>  <MODEL>
6

>  <REMARK>
 VINA RESULT:      -7.9      3.292      5.257
  Name = 
  1 active torsions:
  status: ('A' for Active; 'I' for Inactive)
    1  A    between atoms: C_6  and  C_23
                            x       y       z     vdW  Elec       q    Type
                         _______ _______ _______ _____ _____    ______ ____

>  <TORSDO>
F 1

$$$$
=
 OpenBabel11052417323D

 25 29  0  0  0  0  0  0  0  0999 V2000
  186.0130  177.4440  143.7900 C   0  0  0  0  0  0  0  0  0  0  0  0
  186.8570  176.6650  142.9700 C   0  0  0  0  0  0  0  0  0  0  0  0
  184.9310  178.4190  141.8320 C   0  0  0  0  0  3  0  0  0  0  0  0
  185.9670  177.5020  145.1980 C   0  0  0  0  0  0  0  0  0  0  0  0
  185.5800  177.8810  147.9410 C   0  0  0  0  0  3  0  0  0  0  0  0
  185.7630  177.6510  141.0110 C   0  0  0  0  0  3  0  0  0  0  0  0
  185.0020  178.3890  145.6710 C   0  0  0  0  0  0  0  0  0  0  0  0
  184.7890  178.5970  147.0320 C   0  0  0  0  0  3  0  0  0  0  0  0
  187.5780  175.9720  140.6890 C   0  0  0  0  0  0  0  0  0  0  0  0
  187.4930  176.0680  139.4350 O   0  0  0  0  0  0  0  0  0  0  0  0
  187.9000  175.7530  143.5740 C   0  0  0  0  0  2  0  0  0  0  0  0
  186.5580  176.9810  147.4820 C   0  0  0  0  0  3  0  0  0  0  0  0
  185.0740  178.2990  143.2090 C   0  0  0  0  0  0  0  0  0  0  0  0
  184.1920  179.1180  144.3890 S   0  0  0  0  0  0  0  0  0  0  0  0
  188.5350  175.0320  141.2750 C   0  0  0  0  0  3  0  0  0  0  0  0
  186.7560  176.7860  146.1060 C   0  0  0  0  0  3  0  0  0  0  0  0
  188.6910  174.9030  142.5990 C   0  0  0  0  0  0  0  0  0  0  0  0
  186.7200  176.7790  141.5670 C   0  0  0  0  0  0  0  0  0  0  0  0
  191.5910  173.4020  144.5430 C   0  0  0  0  0  0  0  0  0  0  0  0
  189.6750  173.9290  143.1330 C   0  0  0  0  0  0  0  0  0  0  0  0
  190.6680  174.3270  144.0460 C   0  0  0  0  0  3  0  0  0  0  0  0
  192.5650  173.8100  145.4430 O   0  0  0  0  0  1  0  0  0  0  0  0
  189.6300  172.5830  142.7300 C   0  0  0  0  0  3  0  0  0  0  0  0
  191.5330  172.0680  144.1330 C   0  0  0  0  0  3  0  0  0  0  0  0
  190.5520  171.6590  143.2280 C   0  0  0  0  0  3  0  0  0  0  0  0
  1  4  1  0  0  0  0
  2 11  1  0  0  0  0
  2  1  1  0  0  0  0
  3 13  1  0  0  0  0
  4  7  2  0  0  0  0
  4 16  1  0  0  0  0
  6 18  1  0  0  0  0
  6  3  2  0  0  0  0
  7  8  1  0  0  0  0
  8  5  2  0  0  0  0
  9 15  1  0  0  0  0
  9 18  1  0  0  0  0
 10  9  2  0  0  0  0
 12  5  1  0  0  0  0
 13  1  2  0  0  0  0
 13 14  1  0  0  0  0
 14  7  1  0  0  0  0
 15 17  2  0  0  0  0
 16 12  2  0  0  0  0
 17 20  1  0  0  0  0
 17 11  1  0  0  0  0
 18  2  2  0  0  0  0
 19 22  1  0  0  0  0
 20 21  1  0  0  0  0
 21 19  2  0  0  0  0
 23 20  2  0  0  0  0
 23 25  1  0  0  0  0
 24 19  1  0  0  0  0
 25 24  2  0  0  0  0
M  END
>  <MODEL>
7

>  <REMARK>
 VINA RESULT:      -7.8      2.860      5.009
  Name = 
  1 active torsions:
  status: ('A' for Active; 'I' for Inactive)
    1  A    between atoms: C_6  and  C_23
                            x       y       z     vdW  Elec       q    Type
                         _______ _______ _______ _____ _____    ______ ____

>  <TORSDO>
F 1

$$$$
=
 OpenBabel11052417323D

 25 29  0  0  0  0  0  0  0  0999 V2000
  191.6600  176.6070  145.3170 C   0  0  0  0  0  0  0  0  0  0  0  0
  190.2940  176.9580  145.2810 C   0  0  0  0  0  0  0  0  0  0  0  0
  191.6500  176.6340  147.7580 C   0  0  0  0  0  3  0  0  0  0  0  0
  192.5360  176.3750  144.2360 C   0  0  0  0  0  0  0  0  0  0  0  0
  194.5500  175.8430  142.3720 C   0  0  0  0  0  3  0  0  0  0  0  0
  190.2950  176.9800  147.7310 C   0  0  0  0  0  3  0  0  0  0  0  0
  193.8270  176.0480  144.6480 C   0  0  0  0  0  0  0  0  0  0  0  0
  194.8490  175.7780  143.7410 C   0  0  0  0  0  3  0  0  0  0  0  0
  188.1900  177.4980  146.5000 C   0  0  0  0  0  0  0  0  0  0  0  0
  187.5650  177.6900  147.5770 O   0  0  0  0  0  0  0  0  0  0  0  0
  189.5780  177.1580  143.9640 C   0  0  0  0  0  2  0  0  0  0  0  0
  193.2530  176.1700  141.9390 C   0  0  0  0  0  3  0  0  0  0  0  0
  192.3060  176.4530  146.5460 C   0  0  0  0  0  0  0  0  0  0  0  0
  193.9250  176.0370  146.3280 S   0  0  0  0  0  0  0  0  0  0  0  0
  187.4790  177.6160  145.2260 C   0  0  0  0  0  3  0  0  0  0  0  0
  192.2380  176.4380  142.8710 C   0  0  0  0  0  3  0  0  0  0  0  0
  188.0930  177.4500  144.0470 C   0  0  0  0  0  0  0  0  0  0  0  0
  189.6160  177.1430  146.5080 C   0  0  0  0  0  0  0  0  0  0  0  0
  185.2110  177.9430  141.6200 C   0  0  0  0  0  0  0  0  0  0  0  0
  187.3170  177.5780  142.7880 C   0  0  0  0  0  0  0  0  0  0  0  0
  185.9330  177.8250  142.8110 C   0  0  0  0  0  3  0  0  0  0  0  0
  183.8450  178.1860  141.6590 O   0  0  0  0  0  1  0  0  0  0  0  0
  187.9590  177.4510  141.5450 C   0  0  0  0  0  3  0  0  0  0  0  0
  185.8620  177.8140  140.3920 C   0  0  0  0  0  3  0  0  0  0  0  0
  187.2370  177.5700  140.3540 C   0  0  0  0  0  3  0  0  0  0  0  0
  1 13  1  0  0  0  0
  2  1  2  0  0  0  0
  2 18  1  0  0  0  0
  4  7  1  0  0  0  0
  4  1  1  0  0  0  0
  5  8  1  0  0  0  0
  6  3  1  0  0  0  0
  7 14  1  0  0  0  0
  8  7  2  0  0  0  0
  9 18  1  0  0  0  0
  9 10  2  0  0  0  0
 11 17  1  0  0  0  0
 11  2  1  0  0  0  0
 12  5  2  0  0  0  0
 12 16  1  0  0  0  0
 13  3  2  0  0  0  0
 14 13  1  0  0  0  0
 15  9  1  0  0  0  0
 16  4  2  0  0  0  0
 17 15  2  0  0  0  0
 18  6  2  0  0  0  0
 19 22  1  0  0  0  0
 19 21  1  0  0  0  0
 20 21  2  0  0  0  0
 20 17  1  0  0  0  0
 23 20  1  0  0  0  0
 24 19  2  0  0  0  0
 25 24  1  0  0  0  0
 25 23  2  0  0  0  0
M  END
>  <MODEL>
8

>  <REMARK>
 VINA RESULT:      -7.8      3.053      6.898
  Name = 
  1 active torsions:
  status: ('A' for Active; 'I' for Inactive)
    1  A    between atoms: C_6  and  C_23
                            x       y       z     vdW  Elec       q    Type
                         _______ _______ _______ _____ _____    ______ ____

>  <TORSDO>
F 1

$$$$
=
 OpenBabel11052417323D

 25 29  0  0  0  0  0  0  0  0999 V2000
  187.4450  177.6110  144.2340 C   0  0  0  0  0  0  0  0  0  0  0  0
  188.7130  177.2140  144.7110 C   0  0  0  0  0  0  0  0  0  0  0  0
  186.6660  178.0230  146.5100 C   0  0  0  0  0  3  0  0  0  0  0  0
  186.9890  177.6740  142.9010 C   0  0  0  0  0  0  0  0  0  0  0  0
  185.7390  177.9290  140.4140 C   0  0  0  0  0  3  0  0  0  0  0  0
  187.9200  177.6330  146.9920 C   0  0  0  0  0  3  0  0  0  0  0  0
  185.6690  178.1130  142.8030 C   0  0  0  0  0  0  0  0  0  0  0  0
  185.0230  178.2490  141.5760 C   0  0  0  0  0  3  0  0  0  0  0  0
  190.2540  176.8330  146.6300 C   0  0  0  0  0  0  0  0  0  0  0  0
  190.4780  176.8160  147.8700 O   0  0  0  0  0  0  0  0  0  0  0  0
  189.7920  176.7570  143.7570 C   0  0  0  0  0  2  0  0  0  0  0  0
  187.0710  177.4860  140.4950 C   0  0  0  0  0  3  0  0  0  0  0  0
  186.4550  178.0050  145.1370 C   0  0  0  0  0  0  0  0  0  0  0  0
  185.0370  178.4290  144.3300 S   0  0  0  0  0  0  0  0  0  0  0  0
  191.3230  176.4630  145.7010 C   0  0  0  0  0  3  0  0  0  0  0  0
  187.7030  177.3570  141.7410 C   0  0  0  0  0  3  0  0  0  0  0  0
  191.1390  176.4350  144.3750 C   0  0  0  0  0  0  0  0  0  0  0  0
  188.9390  177.2300  146.1060 C   0  0  0  0  0  0  0  0  0  0  0  0
  194.6470  176.0010  142.9780 C   0  0  0  0  0  0  0  0  0  0  0  0
  192.2640  176.0570  143.4830 C   0  0  0  0  0  0  0  0  0  0  0  0
  193.5940  176.3600  143.8250 C   0  0  0  0  0  3  0  0  0  0  0  0
  195.9540  176.3080  143.3290 O   0  0  0  0  0  1  0  0  0  0  0  0
  192.0140  175.3870  142.2740 C   0  0  0  0  0  3  0  0  0  0  0  0
  194.3830  175.3350  141.7790 C   0  0  0  0  0  3  0  0  0  0  0  0
  193.0670  175.0270  141.4270 C   0  0  0  0  0  3  0  0  0  0  0  0
  1  2  2  0  0  0  0
  1 13  1  0  0  0  0
  2 18  1  0  0  0  0
  3  6  1  0  0  0  0
  4  1  1  0  0  0  0
  5 12  2  0  0  0  0
  5  8  1  0  0  0  0
  7  4  1  0  0  0  0
  7 14  1  0  0  0  0
  8  7  2  0  0  0  0
  9 10  2  0  0  0  0
 11 17  1  0  0  0  0
 11  2  1  0  0  0  0
 12 16  1  0  0  0  0
 13  3  2  0  0  0  0
 14 13  1  0  0  0  0
 15  9  1  0  0  0  0
 16  4  2  0  0  0  0
 17 15  2  0  0  0  0
 18  9  1  0  0  0  0
 18  6  2  0  0  0  0
 19 22  1  0  0  0  0
 19 21  1  0  0  0  0
 20 21  2  0  0  0  0
 20 17  1  0  0  0  0
 23 20  1  0  0  0  0
 24 19  2  0  0  0  0
 25 24  1  0  0  0  0
 25 23  2  0  0  0  0
M  END
>  <MODEL>
9

>  <REMARK>
 VINA RESULT:      -7.7      1.981      3.130
  Name = 
  1 active torsions:
  status: ('A' for Active; 'I' for Inactive)
    1  A    between atoms: C_6  and  C_23
                            x       y       z     vdW  Elec       q    Type
                         _______ _______ _______ _____ _____    ______ ____

>  <TORSDO>
F 1

$$$$
