=
 OpenBabel11052417563D

 31 37  0  0  1  0  0  0  0  0999 V2000
  194.4340  174.8980  145.6950 C   0  0  0  0  0  0  0  0  0  0  0  0
  191.2150  176.5710  145.7750 C   0  0  1  0  0  3  0  0  0  0  0  0
  192.1110  175.5160  146.2140 N   0  0  2  0  0  0  0  0  0  0  0  0
  194.0090  173.8580  144.8810 O   0  0  0  0  0  0  0  0  0  0  0  0
  190.1710  175.9200  144.9820 C   0  0  1  0  0  0  0  0  0  0  0  0
  195.6040  174.9150  146.1580 O   0  0  0  0  0  0  0  0  0  0  0  0
  188.7520  175.4600  146.7630 C   0  0  1  0  0  3  0  0  0  0  0  0
  190.4370  174.5350  144.8760 O   0  0  0  0  0  0  0  0  0  0  0  0
  189.7680  176.5080  146.3720 C   0  0  2  0  0  0  0  0  0  0  0  0
  193.4800  176.0110  145.9850 C   0  0  0  0  0  2  0  0  0  0  0  0
  191.7120  174.3300  145.4250 C   0  0  1  0  0  3  0  0  0  0  0  0
  192.7040  173.9220  144.3280 C   0  0  0  0  0  2  0  0  0  0  0  0
  189.9130  175.6390  147.4890 O   0  0  0  0  0  0  0  0  0  0  0  0
  190.9050  177.6330  143.1700 C   0  0  0  0  0  2  0  0  0  0  0  0
  189.8400  176.6770  143.6840 C   0  0  0  0  0  0  0  0  0  0  0  0
  190.7070  176.2900  142.4950 C   0  0  0  0  0  2  0  0  0  0  0  0
  185.7600  177.6470  142.6800 C   0  0  0  0  0  0  0  0  0  0  0  0
  187.9270  178.2860  143.5390 C   0  0  0  0  0  3  0  0  0  0  0  0
  188.1140  174.4040  142.3380 Cl  0  0  0  0  0  0  0  0  0  0  0  0
  184.1030  178.0540  142.2900 Cl  0  0  0  0  0  0  0  0  0  0  0  0
  186.6050  178.6120  143.2300 C   0  0  0  0  0  3  0  0  0  0  0  0
  187.5670  176.0290  142.7210 C   0  0  0  0  0  0  0  0  0  0  0  0
  188.4180  176.9930  143.3040 C   0  0  0  0  0  0  0  0  0  0  0  0
  186.2420  176.3620  142.4210 C   0  0  0  0  0  3  0  0  0  0  0  0
  187.6350  175.9570  147.5680 N   0  0  0  0  0  2  0  0  0  0  0  0
  186.6200  176.9150  147.2320 C   0  0  0  0  0  0  0  0  0  0  0  0
  184.5770  177.5670  146.0920 C   0  0  0  0  0  3  0  0  0  0  0  0
  185.5270  176.5940  146.4180 C   0  0  0  0  0  3  0  0  0  0  0  0
  184.7120  178.8670  146.5840 C   0  0  0  0  0  3  0  0  0  0  0  0
  185.8000  179.1950  147.3970 C   0  0  0  0  0  3  0  0  0  0  0  0
  186.7510  178.2210  147.7160 C   0  0  0  0  0  3  0  0  0  0  0  0
  1 10  1  0  0  0  0
  1  6  2  0  0  0  0
  2  3  1  0  0  0  0
  2  9  1  0  0  0  0
  4  1  1  0  0  0  0
  5  2  1  0  0  0  0
  5  9  1  0  0  0  0
  7 13  1  0  0  0  0
  7 25  1  0  0  0  0
  8  5  1  0  0  0  0
  8 11  1  0  0  0  0
  9  7  1  0  0  0  0
  9 13  1  0  0  0  0
 10  3  1  0  0  0  0
 11  3  1  0  0  0  0
 12  4  1  0  0  0  0
 12 11  1  0  0  0  0
 14 15  1  0  0  0  0
 15  5  1  0  0  0  0
 16 14  1  0  0  0  0
 16 15  1  0  0  0  0
 17 21  1  0  0  0  0
 19 22  1  0  0  0  0
 20 17  1  0  0  0  0
 21 18  2  0  0  0  0
 22 23  2  0  0  0  0
 23 18  1  0  0  0  0
 23 15  1  0  0  0  0
 24 17  2  0  0  0  0
 24 22  1  0  0  0  0
 26 25  1  0  0  0  0
 26 31  1  0  0  0  0
 27 28  1  0  0  0  0
 27 29  2  0  0  0  0
 28 26  2  0  0  0  0
 29 30  1  0  0  0  0
 30 31  2  0  0  0  0
M  END
>  <MODEL>
1

>  <REMARK>
 VINA RESULT:      -8.2      0.000      0.000
  Name = 
  4 active torsions:
  status: ('A' for Active; 'I' for Inactive)
    1  A    between atoms: C_5  and  N_30
    2  A    between atoms: C_9  and  C_15
    3  A    between atoms: C_9  and  C_22
    4  A    between atoms: C_17  and  N_30
                            x       y       z     vdW  Elec       q    Type
                         _______ _______ _______ _____ _____    ______ ____

>  <TORSDO>
F 4

$$$$
=
 OpenBabel11052417563D

 31 37  0  0  1  0  0  0  0  0999 V2000
  195.0660  172.1470  144.5010 C   0  0  0  0  0  0  0  0  0  0  0  0
  191.7130  173.5350  144.4760 C   0  0  1  0  0  3  0  0  0  0  0  0
  192.9400  173.1620  143.7950 N   0  0  2  0  0  0  0  0  0  0  0  0
  195.7060  173.3780  144.4530 O   0  0  0  0  0  0  0  0  0  0  0  0
  191.6600  174.9980  144.4570 C   0  0  1  0  0  0  0  0  0  0  0  0
  195.7280  171.0780  144.4660 O   0  0  0  0  0  0  0  0  0  0  0  0
  190.5760  175.1820  142.4100 C   0  0  1  0  0  3  0  0  0  0  0  0
  192.8270  175.5160  143.8510 O   0  0  0  0  0  0  0  0  0  0  0  0
  190.6310  174.2200  143.5740 C   0  0  2  0  0  0  0  0  0  0  0  0
  193.5770  172.1230  144.6230 C   0  0  0  0  0  2  0  0  0  0  0  0
  193.6920  174.4290  143.6550 C   0  0  1  0  0  3  0  0  0  0  0  0
  194.9200  174.5540  144.5670 C   0  0  0  0  0  2  0  0  0  0  0  0
  191.0530  173.8950  142.2550 O   0  0  0  0  0  0  0  0  0  0  0  0
  191.9220  175.0440  147.0420 C   0  0  0  0  0  2  0  0  0  0  0  0
  191.2360  175.6020  145.8060 C   0  0  0  0  0  0  0  0  0  0  0  0
  192.3260  176.4030  146.5040 C   0  0  0  0  0  2  0  0  0  0  0  0
  187.2500  177.1430  146.3940 C   0  0  0  0  0  0  0  0  0  0  0  0
  188.9780  175.5260  146.8870 C   0  0  0  0  0  3  0  0  0  0  0  0
  190.4790  178.2520  144.2670 Cl  0  0  0  0  0  0  0  0  0  0  0  0
  185.6260  177.7480  146.6350 Cl  0  0  0  0  0  0  0  0  0  0  0  0
  187.6810  176.0060  147.0790 C   0  0  0  0  0  3  0  0  0  0  0  0
  189.4260  177.3420  145.3400 C   0  0  0  0  0  0  0  0  0  0  0  0
  189.8570  176.1750  146.0070 C   0  0  0  0  0  0  0  0  0  0  0  0
  188.1230  177.8120  145.5320 C   0  0  0  0  0  3  0  0  0  0  0  0
  189.2760  175.2650  141.7420 N   0  0  0  0  0  2  0  0  0  0  0  0
  188.1620  176.1300  142.0140 C   0  0  0  0  0  0  0  0  0  0  0  0
  187.0520  178.2880  141.9350 C   0  0  0  0  0  3  0  0  0  0  0  0
  188.1460  177.4750  141.6240 C   0  0  0  0  0  3  0  0  0  0  0  0
  185.9640  177.7590  142.6330 C   0  0  0  0  0  3  0  0  0  0  0  0
  185.9730  176.4180  143.0240 C   0  0  0  0  0  3  0  0  0  0  0  0
  187.0710  175.6090  142.7170 C   0  0  0  0  0  3  0  0  0  0  0  0
  1 10  1  0  0  0  0
  3  2  1  0  0  0  0
  3 10  1  0  0  0  0
  4  1  1  0  0  0  0
  4 12  1  0  0  0  0
  5  2  1  0  0  0  0
  5 15  1  0  0  0  0
  6  1  2  0  0  0  0
  7  9  1  0  0  0  0
  8  5  1  0  0  0  0
  9  5  1  0  0  0  0
  9  2  1  0  0  0  0
 11  3  1  0  0  0  0
 11  8  1  0  0  0  0
 11 12  1  0  0  0  0
 13  7  1  0  0  0  0
 13  9  1  0  0  0  0
 15 23  1  0  0  0  0
 15 16  1  0  0  0  0
 15 14  1  0  0  0  0
 16 14  1  0  0  0  0
 17 20  1  0  0  0  0
 17 21  1  0  0  0  0
 18 21  2  0  0  0  0
 19 22  1  0  0  0  0
 22 24  1  0  0  0  0
 22 23  2  0  0  0  0
 23 18  1  0  0  0  0
 24 17  2  0  0  0  0
 25 26  1  0  0  0  0
 25  7  1  0  0  0  0
 26 31  1  0  0  0  0
 27 29  2  0  0  0  0
 28 27  1  0  0  0  0
 28 26  2  0  0  0  0
 29 30  1  0  0  0  0
 31 30  2  0  0  0  0
M  END
>  <MODEL>
2

>  <REMARK>
 VINA RESULT:      -8.0      2.490      4.219
  Name = 
  4 active torsions:
  status: ('A' for Active; 'I' for Inactive)
    1  A    between atoms: C_5  and  N_30
    2  A    between atoms: C_9  and  C_15
    3  A    between atoms: C_9  and  C_22
    4  A    between atoms: C_17  and  N_30
                            x       y       z     vdW  Elec       q    Type
                         _______ _______ _______ _____ _____    ______ ____

>  <TORSDO>
F 4

$$$$
=
 OpenBabel11052417563D

 31 37  0  0  1  0  0  0  0  0999 V2000
  191.4270  171.0030  140.5340 C   0  0  0  0  0  0  0  0  0  0  0  0
  189.2470  173.2410  142.3800 C   0  0  1  0  0  3  0  0  0  0  0  0
  189.8560  172.7960  141.1390 N   0  0  2  0  0  0  0  0  0  0  0  0
  192.4720  171.9100  140.4320 O   0  0  0  0  0  0  0  0  0  0  0  0
  189.8300  174.5500  142.6780 C   0  0  1  0  0  0  0  0  0  0  0  0
  191.4980  169.8770  139.9780 O   0  0  0  0  0  0  0  0  0  0  0  0
  188.2800  175.7940  141.4750 C   0  0  1  0  0  3  0  0  0  0  0  0
  190.8030  174.8780  141.7060 O   0  0  0  0  0  0  0  0  0  0  0  0
  188.3260  174.5020  142.2560 C   0  0  2  0  0  0  0  0  0  0  0  0
  190.2290  171.3840  141.3420 C   0  0  0  0  0  2  0  0  0  0  0  0
  190.9770  173.7350  140.9120 C   0  0  1  0  0  3  0  0  0  0  0  0
  192.3730  173.1390  141.1360 C   0  0  0  0  0  2  0  0  0  0  0  0
  188.0610  174.5770  140.8600 O   0  0  0  0  0  0  0  0  0  0  0  0
  190.8680  173.5030  144.8180 C   0  0  0  0  0  2  0  0  0  0  0  0
  190.2250  174.7110  144.1560 C   0  0  0  0  0  0  0  0  0  0  0  0
  191.7250  174.6850  144.4100 C   0  0  0  0  0  2  0  0  0  0  0  0
  188.0310  177.3480  146.7700 C   0  0  0  0  0  0  0  0  0  0  0  0
  188.7760  175.1320  146.1550 C   0  0  0  0  0  3  0  0  0  0  0  0
  190.3930  177.8030  143.5460 Cl  0  0  0  0  0  0  0  0  0  0  0  0
  187.1260  178.4020  147.8340 Cl  0  0  0  0  0  0  0  0  0  0  0  0
  188.0520  175.9720  147.0030 C   0  0  0  0  0  3  0  0  0  0  0  0
  189.4850  177.0530  144.8510 C   0  0  0  0  0  0  0  0  0  0  0  0
  189.4850  175.6580  145.0640 C   0  0  0  0  0  0  0  0  0  0  0  0
  188.7510  177.8870  145.7010 C   0  0  0  0  0  3  0  0  0  0  0  0
  187.0020  176.5050  141.5360 N   0  0  0  0  0  2  0  0  0  0  0  0
  186.4350  177.2740  142.6080 C   0  0  0  0  0  0  0  0  0  0  0  0
  185.2060  177.4690  144.6930 C   0  0  0  0  0  3  0  0  0  0  0  0
  185.7690  176.6790  143.6870 C   0  0  0  0  0  3  0  0  0  0  0  0
  185.3100  178.8600  144.6310 C   0  0  0  0  0  3  0  0  0  0  0  0
  185.9730  179.4610  143.5580 C   0  0  0  0  0  3  0  0  0  0  0  0
  186.5300  178.6690  142.5500 C   0  0  0  0  0  3  0  0  0  0  0  0
  1 10  1  0  0  0  0
  2  5  1  0  0  0  0
  3 10  1  0  0  0  0
  3  2  1  0  0  0  0
  4  1  1  0  0  0  0
  4 12  1  0  0  0  0
  5 15  1  0  0  0  0
  6  1  2  0  0  0  0
  7 25  1  0  0  0  0
  7  9  1  0  0  0  0
  8  5  1  0  0  0  0
  9  2  1  0  0  0  0
  9  5  1  0  0  0  0
 11 12  1  0  0  0  0
 11  3  1  0  0  0  0
 11  8  1  0  0  0  0
 13  7  1  0  0  0  0
 13  9  1  0  0  0  0
 15 16  1  0  0  0  0
 15 14  1  0  0  0  0
 15 23  1  0  0  0  0
 16 14  1  0  0  0  0
 17 21  1  0  0  0  0
 17 20  1  0  0  0  0
 18 21  2  0  0  0  0
 19 22  1  0  0  0  0
 22 23  2  0  0  0  0
 22 24  1  0  0  0  0
 23 18  1  0  0  0  0
 24 17  2  0  0  0  0
 25 26  1  0  0  0  0
 26 28  1  0  0  0  0
 28 27  2  0  0  0  0
 29 27  1  0  0  0  0
 30 29  2  0  0  0  0
 31 26  2  0  0  0  0
 31 30  1  0  0  0  0
M  END
>  <MODEL>
3

>  <REMARK>
 VINA RESULT:      -7.8      3.351      4.841
  Name = 
  4 active torsions:
  status: ('A' for Active; 'I' for Inactive)
    1  A    between atoms: C_5  and  N_30
    2  A    between atoms: C_9  and  C_15
    3  A    between atoms: C_9  and  C_22
    4  A    between atoms: C_17  and  N_30
                            x       y       z     vdW  Elec       q    Type
                         _______ _______ _______ _____ _____    ______ ____

>  <TORSDO>
F 4

$$$$
=
 OpenBabel11052417563D

 31 37  0  0  1  0  0  0  0  0999 V2000
  185.5800  177.9180  141.3240 C   0  0  0  0  0  0  0  0  0  0  0  0
  188.8510  176.5040  142.0090 C   0  0  1  0  0  3  0  0  0  0  0  0
  187.4520  176.3570  141.6490 N   0  0  2  0  0  0  0  0  0  0  0  0
  185.0410  177.5780  142.5570 O   0  0  0  0  0  0  0  0  0  0  0  0
  188.9950  175.9230  143.3450 C   0  0  1  0  0  0  0  0  0  0  0  0
  184.8680  178.4610  140.4400 O   0  0  0  0  0  0  0  0  0  0  0  0
  189.4120  173.7520  142.6300 C   0  0  1  0  0  3  0  0  0  0  0  0
  187.7360  175.4920  143.8230 O   0  0  0  0  0  0  0  0  0  0  0  0
  189.6490  175.1630  142.1460 C   0  0  2  0  0  0  0  0  0  0  0  0
  187.0300  177.6500  141.0820 C   0  0  0  0  0  2  0  0  0  0  0  0
  186.7810  175.9510  142.9030 C   0  0  1  0  0  3  0  0  0  0  0  0
  185.9020  177.0330  143.5440 C   0  0  0  0  0  2  0  0  0  0  0  0
  188.8240  174.2220  141.4710 O   0  0  0  0  0  0  0  0  0  0  0  0
  189.6700  178.2910  144.1770 C   0  0  0  0  0  2  0  0  0  0  0  0
  189.8510  176.7860  144.2880 C   0  0  0  0  0  0  0  0  0  0  0  0
  189.0550  177.5400  145.3420 C   0  0  0  0  0  2  0  0  0  0  0  0
  193.7310  175.4490  145.6170 C   0  0  0  0  0  0  0  0  0  0  0  0
  192.3420  177.0150  144.4070 C   0  0  0  0  0  3  0  0  0  0  0  0
  189.9290  174.2640  146.1840 Cl  0  0  0  0  0  0  0  0  0  0  0  0
  195.3130  174.9140  146.1380 Cl  0  0  0  0  0  0  0  0  0  0  0  0
  193.6050  176.5880  144.8200 C   0  0  0  0  0  3  0  0  0  0  0  0
  191.3210  175.1740  145.6150 C   0  0  0  0  0  0  0  0  0  0  0  0
  191.1910  176.3080  144.7840 C   0  0  0  0  0  0  0  0  0  0  0  0
  192.5900  174.7490  146.0180 C   0  0  0  0  0  3  0  0  0  0  0  0
  190.4480  172.7900  142.2520 N   0  0  0  0  0  2  0  0  0  0  0  0
  191.7220  172.5310  142.8620 C   0  0  0  0  0  0  0  0  0  0  0  0
  193.1310  171.4160  144.4950 C   0  0  0  0  0  3  0  0  0  0  0  0
  191.8770  171.6160  143.9120 C   0  0  0  0  0  3  0  0  0  0  0  0
  194.2410  172.1260  144.0300 C   0  0  0  0  0  3  0  0  0  0  0  0
  194.0930  173.0400  142.9830 C   0  0  0  0  0  3  0  0  0  0  0  0
  192.8370  173.2420  142.4050 C   0  0  0  0  0  3  0  0  0  0  0  0
  1  4  1  0  0  0  0
  2  9  1  0  0  0  0
  2  5  1  0  0  0  0
  3  2  1  0  0  0  0
  3 11  1  0  0  0  0
  4 12  1  0  0  0  0
  5  8  1  0  0  0  0
  5 15  1  0  0  0  0
  6  1  2  0  0  0  0
  9  7  1  0  0  0  0
  9  5  1  0  0  0  0
 10  1  1  0  0  0  0
 10  3  1  0  0  0  0
 11 12  1  0  0  0  0
 11  8  1  0  0  0  0
 13  9  1  0  0  0  0
 13  7  1  0  0  0  0
 14 15  1  0  0  0  0
 14 16  1  0  0  0  0
 15 23  1  0  0  0  0
 15 16  1  0  0  0  0
 17 24  1  0  0  0  0
 17 20  1  0  0  0  0
 18 23  2  0  0  0  0
 18 21  1  0  0  0  0
 21 17  2  0  0  0  0
 22 24  2  0  0  0  0
 22 19  1  0  0  0  0
 23 22  1  0  0  0  0
 25  7  1  0  0  0  0
 25 26  1  0  0  0  0
 26 28  1  0  0  0  0
 28 27  2  0  0  0  0
 29 27  1  0  0  0  0
 30 29  2  0  0  0  0
 31 26  2  0  0  0  0
 31 30  1  0  0  0  0
M  END
>  <MODEL>
4

>  <REMARK>
 VINA RESULT:      -7.5      3.501      7.542
  Name = 
  4 active torsions:
  status: ('A' for Active; 'I' for Inactive)
    1  A    between atoms: C_5  and  N_30
    2  A    between atoms: C_9  and  C_15
    3  A    between atoms: C_9  and  C_22
    4  A    between atoms: C_17  and  N_30
                            x       y       z     vdW  Elec       q    Type
                         _______ _______ _______ _____ _____    ______ ____

>  <TORSDO>
F 4

$$$$
=
 OpenBabel11052417563D

 31 37  0  0  1  0  0  0  0  0999 V2000
  184.8350  177.9480  142.1490 C   0  0  0  0  0  0  0  0  0  0  0  0
  187.6000  176.2760  143.8000 C   0  0  1  0  0  3  0  0  0  0  0  0
  186.9310  177.4830  143.3470 N   0  0  2  0  0  0  0  0  0  0  0  0
  185.5250  178.1850  140.9690 O   0  0  0  0  0  0  0  0  0  0  0  0
  188.8060  176.1430  142.9830 C   0  0  1  0  0  0  0  0  0  0  0  0
  183.6640  178.3810  142.3060 O   0  0  0  0  0  0  0  0  0  0  0  0
  190.1820  177.4160  144.3560 C   0  0  1  0  0  3  0  0  0  0  0  0
  188.8560  177.1800  142.0220 O   0  0  0  0  0  0  0  0  0  0  0  0
  188.9870  176.5020  144.4930 C   0  0  2  0  0  0  0  0  0  0  0  0
  185.5030  177.1430  143.2160 C   0  0  0  0  0  2  0  0  0  0  0  0
  187.6260  177.8510  142.0950 C   0  0  1  0  0  3  0  0  0  0  0  0
  186.8160  177.6160  140.8140 C   0  0  0  0  0  2  0  0  0  0  0  0
  188.9680  177.8870  144.8170 O   0  0  0  0  0  0  0  0  0  0  0  0
  187.8190  173.9610  141.9740 C   0  0  0  0  0  2  0  0  0  0  0  0
  189.0410  174.7070  142.4850 C   0  0  0  0  0  0  0  0  0  0  0  0
  188.8270  174.5190  140.9900 C   0  0  0  0  0  2  0  0  0  0  0  0
  192.1800  172.2580  144.1440 C   0  0  0  0  0  0  0  0  0  0  0  0
  189.8380  172.6740  143.7110 C   0  0  0  0  0  3  0  0  0  0  0  0
  192.0110  175.6640  142.0120 Cl  0  0  0  0  0  0  0  0  0  0  0  0
  193.4400  171.2590  144.8340 Cl  0  0  0  0  0  0  0  0  0  0  0  0
  190.8420  171.8770  144.2630 C   0  0  0  0  0  3  0  0  0  0  0  0
  191.5150  174.2270  142.8930 C   0  0  0  0  0  0  0  0  0  0  0  0
  190.1590  173.8610  143.0360 C   0  0  0  0  0  0  0  0  0  0  0  0
  192.5140  173.4260  143.4560 C   0  0  0  0  0  3  0  0  0  0  0  0
  191.1130  177.3850  145.4850 N   0  0  0  0  0  2  0  0  0  0  0  0
  192.3610  176.6900  145.6210 C   0  0  0  0  0  0  0  0  0  0  0  0
  194.7270  176.4130  145.1480 C   0  0  0  0  0  3  0  0  0  0  0  0
  193.5400  177.1380  145.0110 C   0  0  0  0  0  3  0  0  0  0  0  0
  194.7450  175.2370  145.9010 C   0  0  0  0  0  3  0  0  0  0  0  0
  193.5740  174.7840  146.5130 C   0  0  0  0  0  3  0  0  0  0  0  0
  192.3870  175.5080  146.3700 C   0  0  0  0  0  3  0  0  0  0  0  0
  1  6  2  0  0  0  0
  1 10  1  0  0  0  0
  2  9  1  0  0  0  0
  3  2  1  0  0  0  0
  4  1  1  0  0  0  0
  5  2  1  0  0  0  0
  5  9  1  0  0  0  0
  7  9  1  0  0  0  0
  7 13  1  0  0  0  0
  7 25  1  0  0  0  0
  8 11  1  0  0  0  0
  8  5  1  0  0  0  0
  9 13  1  0  0  0  0
 10  3  1  0  0  0  0
 11  3  1  0  0  0  0
 12  4  1  0  0  0  0
 12 11  1  0  0  0  0
 14 15  1  0  0  0  0
 15  5  1  0  0  0  0
 15 23  1  0  0  0  0
 16 14  1  0  0  0  0
 16 15  1  0  0  0  0
 17 21  1  0  0  0  0
 17 20  1  0  0  0  0
 18 21  2  0  0  0  0
 19 22  1  0  0  0  0
 22 23  2  0  0  0  0
 22 24  1  0  0  0  0
 23 18  1  0  0  0  0
 24 17  2  0  0  0  0
 25 26  1  0  0  0  0
 26 31  1  0  0  0  0
 27 29  2  0  0  0  0
 28 27  1  0  0  0  0
 28 26  2  0  0  0  0
 29 30  1  0  0  0  0
 31 30  2  0  0  0  0
M  END
>  <MODEL>
5

>  <REMARK>
 VINA RESULT:      -7.5      3.388      7.143
  Name = 
  4 active torsions:
  status: ('A' for Active; 'I' for Inactive)
    1  A    between atoms: C_5  and  N_30
    2  A    between atoms: C_9  and  C_15
    3  A    between atoms: C_9  and  C_22
    4  A    between atoms: C_17  and  N_30
                            x       y       z     vdW  Elec       q    Type
                         _______ _______ _______ _____ _____    ______ ____

>  <TORSDO>
F 4

$$$$
=
 OpenBabel11052417563D

 31 37  0  0  1  0  0  0  0  0999 V2000
  184.7520  178.1080  145.8700 C   0  0  0  0  0  0  0  0  0  0  0  0
  187.7320  176.0510  145.6330 C   0  0  1  0  0  3  0  0  0  0  0  0
  187.0480  177.2510  146.0800 N   0  0  2  0  0  0  0  0  0  0  0  0
  185.1420  178.9990  144.8800 O   0  0  0  0  0  0  0  0  0  0  0  0
  188.6880  176.4790  144.6110 C   0  0  1  0  0  0  0  0  0  0  0  0
  183.6860  178.2890  146.5130 O   0  0  0  0  0  0  0  0  0  0  0  0
  190.4360  176.9280  146.0730 C   0  0  1  0  0  3  0  0  0  0  0  0
  188.5620  177.8690  144.3830 O   0  0  0  0  0  0  0  0  0  0  0  0
  189.2590  175.9860  145.9790 C   0  0  2  0  0  0  0  0  0  0  0  0
  185.6140  176.9160  146.1350 C   0  0  0  0  0  2  0  0  0  0  0  0
  187.4320  178.2910  145.1010 C   0  0  1  0  0  3  0  0  0  0  0  0
  186.3160  178.7120  144.1360 C   0  0  0  0  0  2  0  0  0  0  0  0
  189.4060  176.9730  146.9920 O   0  0  0  0  0  0  0  0  0  0  0  0
  187.3590  175.2910  142.7200 C   0  0  0  0  0  2  0  0  0  0  0  0
  188.7030  175.5600  143.3770 C   0  0  0  0  0  0  0  0  0  0  0  0
  188.3350  176.2540  142.0740 C   0  0  0  0  0  2  0  0  0  0  0  0
  191.6670  172.4550  142.9620 C   0  0  0  0  0  0  0  0  0  0  0  0
  189.3770  173.1490  143.3030 C   0  0  0  0  0  3  0  0  0  0  0  0
  191.6610  176.4720  142.7630 Cl  0  0  0  0  0  0  0  0  0  0  0  0
  192.8590  171.1830  142.8080 Cl  0  0  0  0  0  0  0  0  0  0  0  0
  190.3270  172.1340  143.1820 C   0  0  0  0  0  3  0  0  0  0  0  0
  191.1080  174.8150  142.9560 C   0  0  0  0  0  0  0  0  0  0  0  0
  189.7560  174.4970  143.2080 C   0  0  0  0  0  0  0  0  0  0  0  0
  192.0550  173.7920  142.8440 C   0  0  0  0  0  3  0  0  0  0  0  0
  191.6140  176.3740  146.7430 N   0  0  0  0  0  2  0  0  0  0  0  0
  192.8530  175.9140  146.1810 C   0  0  0  0  0  0  0  0  0  0  0  0
  194.9810  176.2960  145.0750 C   0  0  0  0  0  3  0  0  0  0  0  0
  193.8000  176.7910  145.6360 C   0  0  0  0  0  3  0  0  0  0  0  0
  195.2250  174.9210  145.0590 C   0  0  0  0  0  3  0  0  0  0  0  0
  194.2850  174.0410  145.6010 C   0  0  0  0  0  3  0  0  0  0  0  0
  193.1030  174.5380  146.1570 C   0  0  0  0  0  3  0  0  0  0  0  0
  1 10  1  0  0  0  0
  1  6  2  0  0  0  0
  2  9  1  0  0  0  0
  2  3  1  0  0  0  0
  3 10  1  0  0  0  0
  4  1  1  0  0  0  0
  5  2  1  0  0  0  0
  5  9  1  0  0  0  0
  7 25  1  0  0  0  0
  7 13  1  0  0  0  0
  8  5  1  0  0  0  0
  8 11  1  0  0  0  0
  9  7  1  0  0  0  0
  9 13  1  0  0  0  0
 11  3  1  0  0  0  0
 12  4  1  0  0  0  0
 12 11  1  0  0  0  0
 14 15  1  0  0  0  0
 15  5  1  0  0  0  0
 16 14  1  0  0  0  0
 16 15  1  0  0  0  0
 17 21  1  0  0  0  0
 19 22  1  0  0  0  0
 20 17  1  0  0  0  0
 21 18  2  0  0  0  0
 22 23  2  0  0  0  0
 23 18  1  0  0  0  0
 23 15  1  0  0  0  0
 24 22  1  0  0  0  0
 24 17  2  0  0  0  0
 26 25  1  0  0  0  0
 27 28  1  0  0  0  0
 28 26  2  0  0  0  0
 29 27  2  0  0  0  0
 29 30  1  0  0  0  0
 30 31  2  0  0  0  0
 31 26  1  0  0  0  0
M  END
>  <MODEL>
6

>  <REMARK>
 VINA RESULT:      -7.5      2.693      6.936
  Name = 
  4 active torsions:
  status: ('A' for Active; 'I' for Inactive)
    1  A    between atoms: C_5  and  N_30
    2  A    between atoms: C_9  and  C_15
    3  A    between atoms: C_9  and  C_22
    4  A    between atoms: C_17  and  N_30
                            x       y       z     vdW  Elec       q    Type
                         _______ _______ _______ _____ _____    ______ ____

>  <TORSDO>
F 4

$$$$
=
 OpenBabel11052417563D

 31 37  0  0  1  0  0  0  0  0999 V2000
  195.1640  176.2230  144.1780 C   0  0  0  0  0  0  0  0  0  0  0  0
  191.6690  176.1330  143.2050 C   0  0  1  0  0  3  0  0  0  0  0  0
  192.7490  176.6610  144.0190 N   0  0  2  0  0  0  0  0  0  0  0  0
  194.9850  175.4820  145.3380 O   0  0  0  0  0  0  0  0  0  0  0  0
  190.8040  175.3750  144.1110 C   0  0  1  0  0  0  0  0  0  0  0  0
  196.2910  176.6990  143.8880 O   0  0  0  0  0  0  0  0  0  0  0  0
  189.4580  177.1650  144.7290 C   0  0  1  0  0  3  0  0  0  0  0  0
  191.3510  175.3760  145.4150 O   0  0  0  0  0  0  0  0  0  0  0  0
  190.2490  176.7130  143.5240 C   0  0  2  0  0  0  0  0  0  0  0  0
  193.9940  176.4160  143.2690 C   0  0  0  0  0  2  0  0  0  0  0  0
  192.6250  175.9560  145.3140 C   0  0  1  0  0  3  0  0  0  0  0  0
  193.7110  174.9070  145.5840 C   0  0  0  0  0  2  0  0  0  0  0  0
  190.5360  177.8930  144.2640 O   0  0  0  0  0  0  0  0  0  0  0  0
  190.8800  172.7810  144.2410 C   0  0  0  0  0  2  0  0  0  0  0  0
  190.3630  174.0210  143.5300 C   0  0  0  0  0  0  0  0  0  0  0  0
  189.4430  173.2190  144.4390 C   0  0  0  0  0  2  0  0  0  0  0  0
  189.5280  173.5950  139.3200 C   0  0  0  0  0  0  0  0  0  0  0  0
  190.9850  173.2730  141.2220 C   0  0  0  0  0  3  0  0  0  0  0  0
  187.5370  174.9990  142.5210 Cl  0  0  0  0  0  0  0  0  0  0  0  0
  189.2110  173.4260  137.6080 Cl  0  0  0  0  0  0  0  0  0  0  0  0
  190.7340  173.1390  139.8560 C   0  0  0  0  0  3  0  0  0  0  0  0
  188.8060  174.2990  141.5260 C   0  0  0  0  0  0  0  0  0  0  0  0
  190.0360  173.8670  142.0680 C   0  0  0  0  0  0  0  0  0  0  0  0
  188.5660  174.1680  140.1550 C   0  0  0  0  0  3  0  0  0  0  0  0
  188.2400  177.9150  144.4190 N   0  0  0  0  0  2  0  0  0  0  0  0
  186.9680  177.9090  145.0850 C   0  0  0  0  0  0  0  0  0  0  0  0
  185.2960  176.8720  146.5080 C   0  0  0  0  0  3  0  0  0  0  0  0
  186.5560  176.8490  145.9030 C   0  0  0  0  0  3  0  0  0  0  0  0
  184.4420  177.9570  146.3040 C   0  0  0  0  0  3  0  0  0  0  0  0
  184.8460  179.0180  145.4890 C   0  0  0  0  0  3  0  0  0  0  0  0
  186.1040  178.9900  144.8810 C   0  0  0  0  0  3  0  0  0  0  0  0
  1  4  1  0  0  0  0
  2  9  1  0  0  0  0
  2  3  1  0  0  0  0
  2  5  1  0  0  0  0
  3 11  1  0  0  0  0
  4 12  1  0  0  0  0
  5  8  1  0  0  0  0
  6  1  2  0  0  0  0
  9  5  1  0  0  0  0
  9 13  1  0  0  0  0
  9  7  1  0  0  0  0
 10  3  1  0  0  0  0
 10  1  1  0  0  0  0
 11  8  1  0  0  0  0
 11 12  1  0  0  0  0
 13  7  1  0  0  0  0
 14 16  1  0  0  0  0
 15  5  1  0  0  0  0
 15 14  1  0  0  0  0
 15 16  1  0  0  0  0
 17 21  2  0  0  0  0
 17 24  1  0  0  0  0
 18 23  2  0  0  0  0
 20 17  1  0  0  0  0
 21 18  1  0  0  0  0
 22 23  1  0  0  0  0
 22 19  1  0  0  0  0
 23 15  1  0  0  0  0
 24 22  2  0  0  0  0
 25  7  1  0  0  0  0
 25 26  1  0  0  0  0
 26 28  1  0  0  0  0
 28 27  2  0  0  0  0
 29 27  1  0  0  0  0
 30 29  2  0  0  0  0
 31 26  2  0  0  0  0
 31 30  1  0  0  0  0
M  END
>  <MODEL>
7

>  <REMARK>
 VINA RESULT:      -7.3      2.444      3.637
  Name = 
  4 active torsions:
  status: ('A' for Active; 'I' for Inactive)
    1  A    between atoms: C_5  and  N_30
    2  A    between atoms: C_9  and  C_15
    3  A    between atoms: C_9  and  C_22
    4  A    between atoms: C_17  and  N_30
                            x       y       z     vdW  Elec       q    Type
                         _______ _______ _______ _____ _____    ______ ____

>  <TORSDO>
F 4

$$$$
=
 OpenBabel11052417563D

 31 37  0  0  1  0  0  0  0  0999 V2000
  191.5220  173.7460  141.3500 C   0  0  0  0  0  0  0  0  0  0  0  0
  190.3420  174.6170  144.6700 C   0  0  1  0  0  3  0  0  0  0  0  0
  190.3280  174.7930  143.2280 N   0  0  2  0  0  0  0  0  0  0  0  0
  192.3580  174.8470  141.2270 O   0  0  0  0  0  0  0  0  0  0  0  0
  190.9340  175.8340  145.2260 C   0  0  1  0  0  0  0  0  0  0  0  0
  191.3810  172.9370  140.3970 O   0  0  0  0  0  0  0  0  0  0  0  0
  188.9470  177.0260  145.3940 C   0  0  1  0  0  3  0  0  0  0  0  0
  191.3300  176.7010  144.1810 O   0  0  0  0  0  0  0  0  0  0  0  0
  189.4100  175.5900  145.4690 C   0  0  2  0  0  0  0  0  0  0  0  0
  190.8170  173.5290  142.6500 C   0  0  0  0  0  2  0  0  0  0  0  0
  191.1700  175.9840  142.9860 C   0  0  1  0  0  3  0  0  0  0  0  0
  192.5380  175.6900  142.3550 C   0  0  0  0  0  2  0  0  0  0  0  0
  188.5260  176.0880  144.4720 O   0  0  0  0  0  0  0  0  0  0  0  0
  191.9420  176.4930  147.5300 C   0  0  0  0  0  2  0  0  0  0  0  0
  191.9600  175.5510  146.3370 C   0  0  0  0  0  0  0  0  0  0  0  0
  191.3480  175.1040  147.6560 C   0  0  0  0  0  2  0  0  0  0  0  0
  195.6880  173.5400  145.5200 C   0  0  0  0  0  0  0  0  0  0  0  0
  193.2830  173.5020  145.7670 C   0  0  0  0  0  3  0  0  0  0  0  0
  194.5670  177.3290  146.2760 Cl  0  0  0  0  0  0  0  0  0  0  0  0
  197.1920  172.7070  145.1980 Cl  0  0  0  0  0  0  0  0  0  0  0  0
  194.4830  172.8360  145.5120 C   0  0  0  0  0  3  0  0  0  0  0  0
  194.4920  175.5930  146.0120 C   0  0  0  0  0  0  0  0  0  0  0  0
  193.2740  174.8800  146.0340 C   0  0  0  0  0  0  0  0  0  0  0  0
  195.6910  174.9160  145.7630 C   0  0  0  0  0  3  0  0  0  0  0  0
  187.8110  177.3520  146.2580 N   0  0  0  0  0  2  0  0  0  0  0  0
  186.5380  177.9220  145.9180 C   0  0  0  0  0  0  0  0  0  0  0  0
  185.0950  179.2520  144.4870 C   0  0  0  0  0  3  0  0  0  0  0  0
  186.3460  178.6920  144.7640 C   0  0  0  0  0  3  0  0  0  0  0  0
  184.0260  179.0400  145.3610 C   0  0  0  0  0  3  0  0  0  0  0  0
  184.2100  178.2730  146.5140 C   0  0  0  0  0  3  0  0  0  0  0  0
  185.4630  177.7190  146.7910 C   0  0  0  0  0  3  0  0  0  0  0  0
  1 10  1  0  0  0  0
  2  5  1  0  0  0  0
  2  9  1  0  0  0  0
  3  2  1  0  0  0  0
  4  1  1  0  0  0  0
  4 12  1  0  0  0  0
  5  9  1  0  0  0  0
  5 15  1  0  0  0  0
  6  1  2  0  0  0  0
  7  9  1  0  0  0  0
  7 25  1  0  0  0  0
  8  5  1  0  0  0  0
 10  3  1  0  0  0  0
 11  3  1  0  0  0  0
 11  8  1  0  0  0  0
 12 11  1  0  0  0  0
 13  7  1  0  0  0  0
 13  9  1  0  0  0  0
 14 16  1  0  0  0  0
 15 14  1  0  0  0  0
 15 16  1  0  0  0  0
 17 24  1  0  0  0  0
 18 23  2  0  0  0  0
 20 17  1  0  0  0  0
 21 17  2  0  0  0  0
 21 18  1  0  0  0  0
 22 23  1  0  0  0  0
 22 19  1  0  0  0  0
 23 15  1  0  0  0  0
 24 22  2  0  0  0  0
 26 25  1  0  0  0  0
 26 31  1  0  0  0  0
 27 28  1  0  0  0  0
 27 29  2  0  0  0  0
 28 26  2  0  0  0  0
 29 30  1  0  0  0  0
 30 31  2  0  0  0  0
M  END
>  <MODEL>
8

>  <REMARK>
 VINA RESULT:      -7.3      3.278      5.755
  Name = 
  4 active torsions:
  status: ('A' for Active; 'I' for Inactive)
    1  A    between atoms: C_5  and  N_30
    2  A    between atoms: C_9  and  C_15
    3  A    between atoms: C_9  and  C_22
    4  A    between atoms: C_17  and  N_30
                            x       y       z     vdW  Elec       q    Type
                         _______ _______ _______ _____ _____    ______ ____

>  <TORSDO>
F 4

$$$$
=
 OpenBabel11052417563D

 31 37  0  0  1  0  0  0  0  0999 V2000
  194.2440  172.1770  145.2680 C   0  0  0  0  0  0  0  0  0  0  0  0
  192.0050  175.0240  145.0500 C   0  0  1  0  0  3  0  0  0  0  0  0
  192.3910  173.7520  145.6340 N   0  0  2  0  0  0  0  0  0  0  0  0
  193.4150  171.3180  144.5600 O   0  0  0  0  0  0  0  0  0  0  0  0
  190.7740  174.7750  144.2980 C   0  0  1  0  0  0  0  0  0  0  0  0
  195.3220  171.7630  145.7660 O   0  0  0  0  0  0  0  0  0  0  0  0
  189.3180  175.1490  146.0690 C   0  0  1  0  0  3  0  0  0  0  0  0
  190.4430  173.4020  144.3550 O   0  0  0  0  0  0  0  0  0  0  0  0
  190.6700  175.6320  145.6000 C   0  0  2  0  0  0  0  0  0  0  0  0
  193.8390  173.6100  145.4000 C   0  0  0  0  0  2  0  0  0  0  0  0
  191.5260  172.7540  144.9670 C   0  0  1  0  0  3  0  0  0  0  0  0
  192.2450  171.8500  143.9570 C   0  0  0  0  0  2  0  0  0  0  0  0
  190.4590  174.9160  146.8110 O   0  0  0  0  0  0  0  0  0  0  0  0
  192.1130  175.9210  142.3880 C   0  0  0  0  0  2  0  0  0  0  0  0
  190.7680  175.4470  142.9140 C   0  0  0  0  0  0  0  0  0  0  0  0
  191.4890  174.6570  141.8310 C   0  0  0  0  0  2  0  0  0  0  0  0
  187.2890  177.4800  141.3760 C   0  0  0  0  0  0  0  0  0  0  0  0
  188.5670  175.4570  141.7200 C   0  0  0  0  0  3  0  0  0  0  0  0
  190.5370  178.5400  143.4990 Cl  0  0  0  0  0  0  0  0  0  0  0  0
  185.8770  178.2910  140.7350 Cl  0  0  0  0  0  0  0  0  0  0  0  0
  187.4410  176.1030  141.2070 C   0  0  0  0  0  3  0  0  0  0  0  0
  189.3810  177.5670  142.6000 C   0  0  0  0  0  0  0  0  0  0  0  0
  189.5540  176.1800  142.4060 C   0  0  0  0  0  0  0  0  0  0  0  0
  188.2540  178.2080  142.0760 C   0  0  0  0  0  3  0  0  0  0  0  0
  188.5170  176.1510  146.7750 N   0  0  0  0  0  2  0  0  0  0  0  0
  187.3140  176.8180  146.3610 C   0  0  0  0  0  0  0  0  0  0  0  0
  185.6180  177.3540  144.7090 C   0  0  0  0  0  3  0  0  0  0  0  0
  186.7750  176.6620  145.0780 C   0  0  0  0  0  3  0  0  0  0  0  0
  184.9880  178.2010  145.6230 C   0  0  0  0  0  3  0  0  0  0  0  0
  185.5200  178.3610  146.9050 C   0  0  0  0  0  3  0  0  0  0  0  0
  186.6810  177.6730  147.2690 C   0  0  0  0  0  3  0  0  0  0  0  0
  1 10  1  0  0  0  0
  1  6  2  0  0  0  0
  2  9  1  0  0  0  0
  2  3  1  0  0  0  0
  4  1  1  0  0  0  0
  5  8  1  0  0  0  0
  5  2  1  0  0  0  0
  5  9  1  0  0  0  0
  7 25  1  0  0  0  0
  7 13  1  0  0  0  0
  8 11  1  0  0  0  0
  9  7  1  0  0  0  0
  9 13  1  0  0  0  0
 10  3  1  0  0  0  0
 11  3  1  0  0  0  0
 12  4  1  0  0  0  0
 12 11  1  0  0  0  0
 14 15  1  0  0  0  0
 15  5  1  0  0  0  0
 16 14  1  0  0  0  0
 16 15  1  0  0  0  0
 17 24  1  0  0  0  0
 18 23  2  0  0  0  0
 20 17  1  0  0  0  0
 21 17  2  0  0  0  0
 21 18  1  0  0  0  0
 22 19  1  0  0  0  0
 23 22  1  0  0  0  0
 23 15  1  0  0  0  0
 24 22  2  0  0  0  0
 26 25  1  0  0  0  0
 26 31  1  0  0  0  0
 27 28  1  0  0  0  0
 27 29  2  0  0  0  0
 28 26  2  0  0  0  0
 29 30  1  0  0  0  0
 30 31  2  0  0  0  0
M  END
>  <MODEL>
9

>  <REMARK>
 VINA RESULT:      -7.3      1.813      2.200
  Name = 
  4 active torsions:
  status: ('A' for Active; 'I' for Inactive)
    1  A    between atoms: C_5  and  N_30
    2  A    between atoms: C_9  and  C_15
    3  A    between atoms: C_9  and  C_22
    4  A    between atoms: C_17  and  N_30
                            x       y       z     vdW  Elec       q    Type
                         _______ _______ _______ _____ _____    ______ ____

>  <TORSDO>
F 4

$$$$
