=
 OpenBabel11052418593D

 34 39  0  0  1  0  0  0  0  0999 V2000
  191.5780  176.8100  145.0250 C   0  0  0  0  0  0  0  0  0  0  0  0
  190.3070  175.1740  146.3000 C   0  0  0  0  0  0  0  0  0  0  0  0
  189.1690  176.3720  144.3740 C   0  0  1  0  0  3  0  0  0  0  0  0
  188.3590  175.7140  142.0600 C   0  0  0  0  0  0  0  0  0  0  0  0
  192.6280  175.6090  146.8460 C   0  0  0  0  0  3  0  0  0  0  0  0
  191.4360  174.9220  147.0860 C   0  0  0  0  0  3  0  0  0  0  0  0
  189.3840  174.0100  143.4460 C   0  0  0  0  0  3  0  0  0  0  0  0
  190.3740  176.1110  145.2540 C   0  0  0  0  0  0  0  0  0  0  0  0
  189.1740  173.0660  142.4400 C   0  0  0  0  0  3  0  0  0  0  0  0
  188.1570  174.7650  141.0550 C   0  0  0  0  0  3  0  0  0  0  0  0
  192.6960  176.5560  145.8220 C   0  0  0  0  0  3  0  0  0  0  0  0
  189.1920  177.8200  143.8350 C   0  0  2  0  0  3  0  0  0  0  0  0
  191.6370  177.8390  144.0320 N   0  0  0  0  0  2  0  0  0  0  0  0
  189.1260  174.4910  146.5660 O   0  0  0  0  0  1  0  0  0  0  0  0
  187.9340  177.0630  141.8440 N   0  0  0  0  0  2  0  0  0  0  0  0
  188.0210  178.0880  142.8830 C   0  0  1  0  0  3  0  0  0  0  0  0
  188.5640  173.4400  141.2360 C   0  0  0  0  0  0  0  0  0  0  0  0
  189.0020  175.3490  143.2620 C   0  0  0  0  0  0  0  0  0  0  0  0
  190.5210  178.1030  143.1300 C   0  0  0  0  0  2  0  0  0  0  0  0
  185.4540  178.6460  145.6390 C   0  0  0  0  0  0  0  0  0  0  0  0
  184.2760  178.5230  144.9010 C   0  0  0  0  0  3  0  0  0  0  0  0
  186.7230  178.2300  143.6200 C   0  0  0  0  0  0  0  0  0  0  0  0
  184.3320  178.2650  143.5660 N   0  0  0  0  0  0  0  0  0  0  0  0
  186.6820  178.5000  144.9940 C   0  0  0  0  0  3  0  0  0  0  0  0
  185.5200  178.1200  142.9170 C   0  0  0  0  0  3  0  0  0  0  0  0
  185.4010  178.9310  147.0960 C   0  0  0  0  0  1  0  0  0  0  0  0
  188.3410  172.4930  140.1910 N   0  0  0  0  0  2  0  0  0  0  0  0
  188.2820  172.8650  138.7850 C   0  0  0  0  0  2  0  0  0  0  0  0
  189.7580  169.8520  137.6790 C   0  0  0  0  0  1  0  0  0  0  0  0
  189.9100  170.9810  138.6790 C   0  0  2  0  0  3  0  0  0  0  0  0
  191.8390  172.3760  138.3430 N   0  0  0  0  0  2  0  0  0  0  0  0
  190.6560  173.2040  138.1730 C   0  0  0  0  0  2  0  0  0  0  0  0
  189.4700  172.2780  138.0430 C   0  0  2  0  0  3  0  0  0  0  0  0
  191.3760  171.1700  139.0120 C   0  0  0  0  0  2  0  0  0  0  0  0
  1  8  2  0  0  0  0
  1 11  1  0  0  0  0
  2 14  1  0  0  0  0
  2  6  2  0  0  0  0
  3 18  1  6  0  0  0
  3  8  1  0  0  0  0
  4 18  1  0  0  0  0
  5  6  1  0  0  0  0
  8  2  1  0  0  0  0
  9  7  1  0  0  0  0
 10 17  1  0  0  0  0
 10  4  2  0  0  0  0
 11  5  2  0  0  0  0
 12 19  1  6  0  0  0
 12  3  1  0  0  0  0
 13  1  1  0  0  0  0
 15  4  1  0  0  0  0
 15 16  1  0  0  0  0
 16 22  1  1  0  0  0
 16 12  1  0  0  0  0
 17  9  2  0  0  0  0
 18  7  2  0  0  0  0
 19 13  1  0  0  0  0
 20 26  1  0  0  0  0
 21 20  2  0  0  0  0
 22 24  2  0  0  0  0
 23 21  1  0  0  0  0
 24 20  1  0  0  0  0
 25 23  2  0  0  0  0
 25 22  1  0  0  0  0
 27 17  1  0  0  0  0
 28 27  1  0  0  0  0
 30 29  1  6  0  0  0
 30 34  1  0  0  0  0
 31 34  1  0  0  0  0
 32 31  1  0  0  0  0
 33 32  1  0  0  0  0
 33 30  1  0  0  0  0
 33 28  1  1  0  0  0
M  END
>  <MODEL>
1

>  <REMARK>
 VINA RESULT:      -8.8      0.000      0.000
  Name = 
  4 active torsions:
  status: ('A' for Active; 'I' for Inactive)
    1  A    between atoms: N_3  and  C_13
    2  A    between atoms: N_3  and  C_29
    3  A    between atoms: C_12  and  C_28
    4  A    between atoms: C_13  and  C_33
                            x       y       z     vdW  Elec       q    Type
                         _______ _______ _______ _____ _____    ______ ____

>  <TORSDO>
F 4

$$$$
=
 OpenBabel11052418593D

 34 39  0  0  1  0  0  0  0  0999 V2000
  191.9330  174.0990  144.7940 C   0  0  0  0  0  0  0  0  0  0  0  0
  193.0500  175.7360  143.3830 C   0  0  0  0  0  0  0  0  0  0  0  0
  190.9710  174.5780  142.5000 C   0  0  1  0  0  3  0  0  0  0  0  0
  188.5800  175.2750  142.0170 C   0  0  0  0  0  0  0  0  0  0  0  0
  193.8960  175.2620  145.6050 C   0  0  0  0  0  3  0  0  0  0  0  0
  193.9840  175.9630  144.3990 C   0  0  0  0  0  3  0  0  0  0  0  0
  190.1140  176.9470  142.8660 C   0  0  0  0  0  3  0  0  0  0  0  0
  192.0090  174.8110  143.5780 C   0  0  0  0  0  0  0  0  0  0  0  0
  189.1030  177.9070  142.8050 C   0  0  0  0  0  3  0  0  0  0  0  0
  187.5690  176.2400  141.9620 C   0  0  0  0  0  3  0  0  0  0  0  0
  192.8780  174.3270  145.7980 C   0  0  0  0  0  3  0  0  0  0  0  0
  190.4200  173.1360  142.5780 C   0  0  2  0  0  3  0  0  0  0  0  0
  190.9440  173.0810  144.9730 N   0  0  0  0  0  2  0  0  0  0  0  0
  193.1640  176.4320  142.1860 O   0  0  0  0  0  1  0  0  0  0  0  0
  188.2900  173.9350  141.6070 N   0  0  0  0  0  2  0  0  0  0  0  0
  189.3160  172.8960  141.5420 C   0  0  1  0  0  3  0  0  0  0  0  0
  187.8230  177.5560  142.3570 C   0  0  0  0  0  0  0  0  0  0  0  0
  189.8610  175.6170  142.4960 C   0  0  0  0  0  0  0  0  0  0  0  0
  189.8960  172.8440  143.9850 C   0  0  0  0  0  2  0  0  0  0  0  0
  189.9460  173.4040  137.8220 C   0  0  0  0  0  0  0  0  0  0  0  0
  190.9800  172.4870  137.6240 C   0  0  0  0  0  3  0  0  0  0  0  0
  189.8700  172.7630  140.1550 C   0  0  0  0  0  0  0  0  0  0  0  0
  191.4370  171.7400  138.6660 N   0  0  0  0  0  0  0  0  0  0  0  0
  189.3910  173.5420  139.0930 C   0  0  0  0  0  3  0  0  0  0  0  0
  190.9090  171.8610  139.9150 C   0  0  0  0  0  3  0  0  0  0  0  0
  189.4440  174.2250  136.6900 C   0  0  0  0  0  1  0  0  0  0  0  0
  186.7700  178.5200  142.2880 N   0  0  0  0  0  2  0  0  0  0  0  0
  185.5330  178.3950  143.0450 C   0  0  0  0  0  2  0  0  0  0  0  0
  187.1260  176.7710  145.7490 C   0  0  0  0  0  1  0  0  0  0  0  0
  185.7670  177.1160  145.1710 C   0  0  2  0  0  3  0  0  0  0  0  0
  184.4660  178.6460  146.4930 N   0  0  0  0  0  2  0  0  0  0  0  0
  184.7400  179.2840  145.2150 C   0  0  0  0  0  2  0  0  0  0  0  0
  185.8250  178.4830  144.5330 C   0  0  2  0  0  3  0  0  0  0  0  0
  184.7550  177.2350  146.2920 C   0  0  0  0  0  2  0  0  0  0  0  0
  1 13  1  0  0  0  0
  1 11  1  0  0  0  0
  2  8  1  0  0  0  0
  2  6  2  0  0  0  0
  3 18  1  1  0  0  0
  3 12  1  0  0  0  0
  3  8  1  0  0  0  0
  4 18  1  0  0  0  0
  5 11  2  0  0  0  0
  6  5  1  0  0  0  0
  8  1  2  0  0  0  0
  9  7  1  0  0  0  0
 10  4  2  0  0  0  0
 10 17  1  0  0  0  0
 12 19  1  1  0  0  0
 14  2  1  0  0  0  0
 15  4  1  0  0  0  0
 16 22  1  6  0  0  0
 16 15  1  0  0  0  0
 16 12  1  0  0  0  0
 17  9  2  0  0  0  0
 18  7  2  0  0  0  0
 19 13  1  0  0  0  0
 20 24  1  0  0  0  0
 21 20  2  0  0  0  0
 21 23  1  0  0  0  0
 23 25  2  0  0  0  0
 24 22  2  0  0  0  0
 25 22  1  0  0  0  0
 26 20  1  0  0  0  0
 27 17  1  0  0  0  0
 27 28  1  0  0  0  0
 30 29  1  1  0  0  0
 30 34  1  0  0  0  0
 32 31  1  0  0  0  0
 33 28  1  6  0  0  0
 33 30  1  0  0  0  0
 33 32  1  0  0  0  0
 34 31  1  0  0  0  0
M  END
>  <MODEL>
2

>  <REMARK>
 VINA RESULT:      -8.3      2.082      7.289
  Name = 
  4 active torsions:
  status: ('A' for Active; 'I' for Inactive)
    1  A    between atoms: N_3  and  C_13
    2  A    between atoms: N_3  and  C_29
    3  A    between atoms: C_12  and  C_28
    4  A    between atoms: C_13  and  C_33
                            x       y       z     vdW  Elec       q    Type
                         _______ _______ _______ _____ _____    ______ ____

>  <TORSDO>
F 4

$$$$
=
 OpenBabel11052418593D

 34 39  0  0  1  0  0  0  0  0999 V2000
  191.8270  172.5990  141.0810 C   0  0  0  0  0  0  0  0  0  0  0  0
  190.5150  171.8020  142.9680 C   0  0  0  0  0  0  0  0  0  0  0  0
  191.2470  174.2320  142.9280 C   0  0  1  0  0  3  0  0  0  0  0  0
  190.0850  176.4670  142.6150 C   0  0  0  0  0  0  0  0  0  0  0  0
  191.0670  170.3000  141.1480 C   0  0  0  0  0  3  0  0  0  0  0  0
  190.4480  170.5360  142.3780 C   0  0  0  0  0  3  0  0  0  0  0  0
  188.7390  174.4530  142.5520 C   0  0  0  0  0  3  0  0  0  0  0  0
  191.1940  172.8470  142.3170 C   0  0  0  0  0  0  0  0  0  0  0  0
  187.5920  175.2250  142.3620 C   0  0  0  0  0  3  0  0  0  0  0  0
  188.9350  177.2340  142.4180 C   0  0  0  0  0  3  0  0  0  0  0  0
  191.7620  171.3270  140.5050 C   0  0  0  0  0  3  0  0  0  0  0  0
  192.5380  174.9660  142.5010 C   0  0  2  0  0  3  0  0  0  0  0  0
  192.6070  173.6190  140.4520 N   0  0  0  0  0  2  0  0  0  0  0  0
  189.9050  172.0120  144.1990 O   0  0  0  0  0  1  0  0  0  0  0  0
  191.3510  177.1230  142.7430 N   0  0  0  0  0  2  0  0  0  0  0  0
  192.5830  176.3970  143.0480 C   0  0  1  0  0  3  0  0  0  0  0  0
  187.6860  176.6210  142.2880 C   0  0  0  0  0  0  0  0  0  0  0  0
  190.0010  175.0590  142.6580 C   0  0  0  0  0  0  0  0  0  0  0  0
  192.6590  174.9810  140.9750 C   0  0  0  0  0  2  0  0  0  0  0  0
  192.1820  176.4260  146.8340 C   0  0  0  0  0  0  0  0  0  0  0  0
  193.5230  176.4330  147.2200 C   0  0  0  0  0  3  0  0  0  0  0  0
  192.8820  176.4250  144.5170 C   0  0  0  0  0  0  0  0  0  0  0  0
  194.5030  176.4330  146.2760 N   0  0  0  0  0  0  0  0  0  0  0  0
  191.8620  176.4200  145.4770 C   0  0  0  0  0  3  0  0  0  0  0  0
  194.2120  176.4260  144.9460 C   0  0  0  0  0  3  0  0  0  0  0  0
  191.1060  176.4220  147.8590 C   0  0  0  0  0  1  0  0  0  0  0  0
  186.5270  177.4330  142.0900 N   0  0  0  0  0  2  0  0  0  0  0  0
  185.3550  177.3610  142.9510 C   0  0  0  0  0  2  0  0  0  0  0  0
  187.1710  176.8920  145.9450 C   0  0  0  0  0  1  0  0  0  0  0  0
  185.7700  176.8970  145.3640 C   0  0  2  0  0  3  0  0  0  0  0  0
  184.3450  178.6550  146.1750 N   0  0  0  0  0  2  0  0  0  0  0  0
  184.5220  178.8500  144.7440 C   0  0  0  0  0  2  0  0  0  0  0  0
  185.6690  177.9700  144.3060 C   0  0  2  0  0  3  0  0  0  0  0  0
  184.7770  177.2910  146.4370 C   0  0  0  0  0  2  0  0  0  0  0  0
  1  8  1  0  0  0  0
  2 14  1  0  0  0  0
  3  8  1  6  0  0  0
  4 18  1  0  0  0  0
  4 15  1  0  0  0  0
  5  6  2  0  0  0  0
  6  2  1  0  0  0  0
  7 18  2  0  0  0  0
  8  2  2  0  0  0  0
  9  7  1  0  0  0  0
 10  4  2  0  0  0  0
 11  1  2  0  0  0  0
 11  5  1  0  0  0  0
 12 19  1  6  0  0  0
 12  3  1  0  0  0  0
 12 16  1  0  0  0  0
 13 19  1  0  0  0  0
 13  1  1  0  0  0  0
 15 16  1  0  0  0  0
 16 22  1  1  0  0  0
 17  9  2  0  0  0  0
 17 10  1  0  0  0  0
 18  3  1  0  0  0  0
 20 21  1  0  0  0  0
 20 26  1  0  0  0  0
 22 25  2  0  0  0  0
 22 24  1  0  0  0  0
 23 21  2  0  0  0  0
 24 20  2  0  0  0  0
 25 23  1  0  0  0  0
 27 17  1  0  0  0  0
 27 28  1  0  0  0  0
 30 29  1  1  0  0  0
 30 34  1  0  0  0  0
 31 34  1  0  0  0  0
 32 31  1  0  0  0  0
 33 28  1  6  0  0  0
 33 32  1  0  0  0  0
 33 30  1  0  0  0  0
M  END
>  <MODEL>
3

>  <REMARK>
 VINA RESULT:      -8.1      2.142      6.967
  Name = 
  4 active torsions:
  status: ('A' for Active; 'I' for Inactive)
    1  A    between atoms: N_3  and  C_13
    2  A    between atoms: N_3  and  C_29
    3  A    between atoms: C_12  and  C_28
    4  A    between atoms: C_13  and  C_33
                            x       y       z     vdW  Elec       q    Type
                         _______ _______ _______ _____ _____    ______ ____

>  <TORSDO>
F 4

$$$$
=
 OpenBabel11052418593D

 34 39  0  0  1  0  0  0  0  0999 V2000
  187.7260  176.3070  146.3810 C   0  0  0  0  0  0  0  0  0  0  0  0
  188.1060  177.7340  144.4480 C   0  0  0  0  0  0  0  0  0  0  0  0
  189.8100  175.9330  144.9910 C   0  0  1  0  0  3  0  0  0  0  0  0
  190.5120  173.7320  143.9420 C   0  0  0  0  0  0  0  0  0  0  0  0
  186.1100  178.0130  145.7950 C   0  0  0  0  0  3  0  0  0  0  0  0
  186.8990  178.3920  144.7060 C   0  0  0  0  0  3  0  0  0  0  0  0
  188.7620  175.0120  142.8610 C   0  0  0  0  0  3  0  0  0  0  0  0
  188.5220  176.6770  145.2770 C   0  0  0  0  0  0  0  0  0  0  0  0
  188.6740  174.0470  141.8580 C   0  0  0  0  0  3  0  0  0  0  0  0
  190.4160  172.7650  142.9370 C   0  0  0  0  0  3  0  0  0  0  0  0
  186.5270  176.9780  146.6350 C   0  0  0  0  0  3  0  0  0  0  0  0
  190.4210  175.3800  146.2980 C   0  0  2  0  0  3  0  0  0  0  0  0
  188.1800  175.3040  147.2940 N   0  0  0  0  0  2  0  0  0  0  0  0
  188.8830  178.1370  143.3680 O   0  0  0  0  0  1  0  0  0  0  0  0
  191.4610  173.5510  144.9990 N   0  0  0  0  0  2  0  0  0  0  0  0
  191.6880  174.5620  146.0290 C   0  0  1  0  0  3  0  0  0  0  0  0
  189.4980  172.9140  141.8940 C   0  0  0  0  0  0  0  0  0  0  0  0
  189.6630  174.8580  143.9270 C   0  0  0  0  0  0  0  0  0  0  0  0
  189.3920  174.5290  147.0450 C   0  0  0  0  0  2  0  0  0  0  0  0
  194.6010  176.1630  144.1730 C   0  0  0  0  0  0  0  0  0  0  0  0
  194.9830  177.1280  145.1070 C   0  0  0  0  0  3  0  0  0  0  0  0
  192.8560  175.4370  145.6850 C   0  0  0  0  0  0  0  0  0  0  0  0
  194.3140  177.2360  146.2860 N   0  0  0  0  0  0  0  0  0  0  0  0
  193.5330  175.3160  144.4640 C   0  0  0  0  0  3  0  0  0  0  0  0
  193.2670  176.4200  146.5890 C   0  0  0  0  0  3  0  0  0  0  0  0
  195.3250  176.0410  142.8810 C   0  0  0  0  0  1  0  0  0  0  0  0
  189.4250  171.9100  140.8810 N   0  0  0  0  0  2  0  0  0  0  0  0
  190.3430  171.8580  139.7520 C   0  0  0  0  0  2  0  0  0  0  0  0
  188.1910  174.1660  138.1620 C   0  0  0  0  0  1  0  0  0  0  0  0
  189.2500  173.1130  137.8970 C   0  0  2  0  0  3  0  0  0  0  0  0
  191.3000  173.9550  136.9630 N   0  0  0  0  0  2  0  0  0  0  0  0
  191.6060  173.3800  138.2630 C   0  0  0  0  0  2  0  0  0  0  0  0
  190.2960  173.1680  138.9850 C   0  0  2  0  0  3  0  0  0  0  0  0
  189.9840  173.4440  136.6130 C   0  0  0  0  0  2  0  0  0  0  0  0
  1 11  1  0  0  0  0
  1 13  1  0  0  0  0
  2  6  2  0  0  0  0
  2  8  1  0  0  0  0
  3 18  1  6  0  0  0
  3  8  1  0  0  0  0
  3 12  1  0  0  0  0
  4 15  1  0  0  0  0
  5 11  2  0  0  0  0
  6  5  1  0  0  0  0
  7 18  2  0  0  0  0
  8  1  2  0  0  0  0
  9 17  2  0  0  0  0
  9  7  1  0  0  0  0
 10  4  2  0  0  0  0
 12 19  1  6  0  0  0
 14  2  1  0  0  0  0
 15 16  1  0  0  0  0
 16 22  1  6  0  0  0
 16 12  1  0  0  0  0
 17 10  1  0  0  0  0
 18  4  1  0  0  0  0
 19 13  1  0  0  0  0
 20 24  2  0  0  0  0
 20 21  1  0  0  0  0
 21 23  2  0  0  0  0
 22 25  2  0  0  0  0
 23 25  1  0  0  0  0
 24 22  1  0  0  0  0
 26 20  1  0  0  0  0
 27 17  1  0  0  0  0
 28 27  1  0  0  0  0
 30 29  1  1  0  0  0
 30 33  1  0  0  0  0
 31 32  1  0  0  0  0
 32 33  1  0  0  0  0
 33 28  1  6  0  0  0
 34 31  1  0  0  0  0
 34 30  1  0  0  0  0
M  END
>  <MODEL>
4

>  <REMARK>
 VINA RESULT:      -7.9      2.216      5.532
  Name = 
  4 active torsions:
  status: ('A' for Active; 'I' for Inactive)
    1  A    between atoms: N_3  and  C_13
    2  A    between atoms: N_3  and  C_29
    3  A    between atoms: C_12  and  C_28
    4  A    between atoms: C_13  and  C_33
                            x       y       z     vdW  Elec       q    Type
                         _______ _______ _______ _____ _____    ______ ____

>  <TORSDO>
F 4

$$$$
=
 OpenBabel11052418593D

 34 39  0  0  1  0  0  0  0  0999 V2000
  187.6750  176.2790  146.3110 C   0  0  0  0  0  0  0  0  0  0  0  0
  188.1270  177.6600  144.3600 C   0  0  0  0  0  0  0  0  0  0  0  0
  189.8250  175.8950  145.0260 C   0  0  1  0  0  3  0  0  0  0  0  0
  190.5980  173.6760  144.0680 C   0  0  0  0  0  0  0  0  0  0  0  0
  186.0690  177.9490  145.6070 C   0  0  0  0  0  3  0  0  0  0  0  0
  186.9030  178.3100  144.5460 C   0  0  0  0  0  3  0  0  0  0  0  0
  188.8850  174.9070  142.8760 C   0  0  0  0  0  3  0  0  0  0  0  0
  188.5170  176.6300  145.2340 C   0  0  0  0  0  0  0  0  0  0  0  0
  188.8540  173.9150  141.8950 C   0  0  0  0  0  3  0  0  0  0  0  0
  190.5590  172.6830  143.0860 C   0  0  0  0  0  3  0  0  0  0  0  0
  186.4590  176.9410  146.4920 C   0  0  0  0  0  3  0  0  0  0  0  0
  190.3810  175.3830  146.3740 C   0  0  2  0  0  3  0  0  0  0  0  0
  188.0980  175.3050  147.2690 N   0  0  0  0  0  2  0  0  0  0  0  0
  188.9490  178.0450  143.3070 O   0  0  0  0  0  1  0  0  0  0  0  0
  191.4990  173.5330  145.1710 N   0  0  0  0  0  2  0  0  0  0  0  0
  191.6680  174.5740  146.1840 C   0  0  1  0  0  3  0  0  0  0  0  0
  189.6880  172.7940  141.9990 C   0  0  0  0  0  0  0  0  0  0  0  0
  189.7390  174.7910  143.9850 C   0  0  0  0  0  0  0  0  0  0  0  0
  189.3280  174.5380  147.0960 C   0  0  0  0  0  2  0  0  0  0  0  0
  194.6330  176.1750  144.4120 C   0  0  0  0  0  0  0  0  0  0  0  0
  194.9750  177.1540  145.3470 C   0  0  0  0  0  3  0  0  0  0  0  0
  192.8410  175.4540  145.8710 C   0  0  0  0  0  0  0  0  0  0  0  0
  194.2630  177.2710  146.5010 N   0  0  0  0  0  0  0  0  0  0  0  0
  193.5610  175.3230  144.6760 C   0  0  0  0  0  3  0  0  0  0  0  0
  193.2120  176.4500  146.7770 C   0  0  0  0  0  3  0  0  0  0  0  0
  195.4030  176.0430  143.1490 C   0  0  0  0  0  1  0  0  0  0  0  0
  189.6720  171.7640  141.0090 N   0  0  0  0  0  2  0  0  0  0  0  0
  189.3640  172.0170  139.6090 C   0  0  0  0  0  2  0  0  0  0  0  0
  189.9430  170.7950  136.3450 C   0  0  0  0  0  1  0  0  0  0  0  0
  189.6880  170.3610  137.7750 C   0  0  2  0  0  3  0  0  0  0  0  0
  191.5250  169.2230  138.8290 N   0  0  0  0  0  2  0  0  0  0  0  0
  191.2810  170.4510  139.5670 C   0  0  0  0  0  2  0  0  0  0  0  0
  190.3770  171.3160  138.7210 C   0  0  2  0  0  3  0  0  0  0  0  0
  190.3350  169.0130  138.0190 C   0  0  0  0  0  2  0  0  0  0  0  0
  1 11  1  0  0  0  0
  1 13  1  0  0  0  0
  2  6  2  0  0  0  0
  2  8  1  0  0  0  0
  3 18  1  6  0  0  0
  3  8  1  0  0  0  0
  3 12  1  0  0  0  0
  4 15  1  0  0  0  0
  5 11  2  0  0  0  0
  6  5  1  0  0  0  0
  7 18  2  0  0  0  0
  8  1  2  0  0  0  0
  9 17  2  0  0  0  0
  9  7  1  0  0  0  0
 10  4  2  0  0  0  0
 12 19  1  6  0  0  0
 14  2  1  0  0  0  0
 15 16  1  0  0  0  0
 16 22  1  6  0  0  0
 16 12  1  0  0  0  0
 17 10  1  0  0  0  0
 18  4  1  0  0  0  0
 19 13  1  0  0  0  0
 20 24  2  0  0  0  0
 20 21  1  0  0  0  0
 21 23  2  0  0  0  0
 22 25  2  0  0  0  0
 23 25  1  0  0  0  0
 24 22  1  0  0  0  0
 26 20  1  0  0  0  0
 27 17  1  0  0  0  0
 28 27  1  0  0  0  0
 30 29  1  6  0  0  0
 30 34  1  0  0  0  0
 30 33  1  0  0  0  0
 31 32  1  0  0  0  0
 33 32  1  0  0  0  0
 33 28  1  1  0  0  0
 34 31  1  0  0  0  0
M  END
>  <MODEL>
5

>  <REMARK>
 VINA RESULT:      -7.8      2.229      5.507
  Name = 
  4 active torsions:
  status: ('A' for Active; 'I' for Inactive)
    1  A    between atoms: N_3  and  C_13
    2  A    between atoms: N_3  and  C_29
    3  A    between atoms: C_12  and  C_28
    4  A    between atoms: C_13  and  C_33
                            x       y       z     vdW  Elec       q    Type
                         _______ _______ _______ _____ _____    ______ ____

>  <TORSDO>
F 4

$$$$
=
 OpenBabel11052418593D

 34 39  0  0  1  0  0  0  0  0999 V2000
  194.1510  173.5410  144.7500 C   0  0  0  0  0  0  0  0  0  0  0  0
  194.4840  175.5740  143.4570 C   0  0  0  0  0  0  0  0  0  0  0  0
  192.3140  174.2890  143.1750 C   0  0  1  0  0  3  0  0  0  0  0  0
  189.8870  174.6740  143.8110 C   0  0  0  0  0  0  0  0  0  0  0  0
  196.1860  174.8280  145.0130 C   0  0  0  0  0  3  0  0  0  0  0  0
  195.7300  175.7500  144.0680 C   0  0  0  0  0  3  0  0  0  0  0  0
  191.5110  176.3770  144.3910 C   0  0  0  0  0  3  0  0  0  0  0  0
  193.6790  174.4750  143.8040 C   0  0  0  0  0  0  0  0  0  0  0  0
  190.4960  177.1570  144.9470 C   0  0  0  0  0  3  0  0  0  0  0  0
  188.8760  175.4570  144.3740 C   0  0  0  0  0  3  0  0  0  0  0  0
  195.4020  173.7220  145.3470 C   0  0  0  0  0  3  0  0  0  0  0  0
  191.9450  172.7900  143.1090 C   0  0  2  0  0  3  0  0  0  0  0  0
  193.3930  172.3630  145.0420 N   0  0  0  0  0  2  0  0  0  0  0  0
  194.0560  176.4950  142.5080 O   0  0  0  0  0  1  0  0  0  0  0  0
  189.5530  173.4080  143.2350 N   0  0  0  0  0  2  0  0  0  0  0  0
  190.5370  172.5780  142.5410 C   0  0  1  0  0  3  0  0  0  0  0  0
  189.1720  176.6970  144.9450 C   0  0  0  0  0  0  0  0  0  0  0  0
  191.2260  175.1180  143.8380 C   0  0  0  0  0  0  0  0  0  0  0  0
  192.0560  172.1540  144.4960 C   0  0  0  0  0  2  0  0  0  0  0  0
  189.3760  173.5760  139.0560 C   0  0  0  0  0  0  0  0  0  0  0  0
  190.5050  173.2250  138.3140 C   0  0  0  0  0  3  0  0  0  0  0  0
  190.4920  172.8020  141.0600 C   0  0  0  0  0  0  0  0  0  0  0  0
  191.5870  172.6840  138.9360 N   0  0  0  0  0  0  0  0  0  0  0  0
  189.3710  173.3650  140.4340 C   0  0  0  0  0  3  0  0  0  0  0  0
  191.6030  172.4700  140.2810 C   0  0  0  0  0  3  0  0  0  0  0  0
  188.1910  174.1710  138.3840 C   0  0  0  0  0  1  0  0  0  0  0  0
  188.1160  177.4750  145.5110 N   0  0  0  0  0  2  0  0  0  0  0  0
  187.0180  176.8890  146.2640 C   0  0  0  0  0  2  0  0  0  0  0  0
  185.5060  177.3960  143.1120 C   0  0  0  0  0  1  0  0  0  0  0  0
  185.9050  178.1010  144.3930 C   0  0  2  0  0  3  0  0  0  0  0  0
  184.0660  178.9080  145.7170 N   0  0  0  0  0  2  0  0  0  0  0  0
  184.7760  177.9100  146.5020 C   0  0  0  0  0  2  0  0  0  0  0  0
  185.7000  177.1700  145.5640 C   0  0  2  0  0  3  0  0  0  0  0  0
  184.9730  179.2710  144.6400 C   0  0  0  0  0  2  0  0  0  0  0  0
  1 13  1  0  0  0  0
  1 11  1  0  0  0  0
  2  8  1  0  0  0  0
  2  6  2  0  0  0  0
  3  8  1  1  0  0  0
  3 18  1  0  0  0  0
  4 18  2  0  0  0  0
  4 10  1  0  0  0  0
  5 11  2  0  0  0  0
  6  5  1  0  0  0  0
  7  9  2  0  0  0  0
  8  1  2  0  0  0  0
 10 17  2  0  0  0  0
 12  3  1  0  0  0  0
 12 19  1  1  0  0  0
 14  2  1  0  0  0  0
 15  4  1  0  0  0  0
 16 22  1  6  0  0  0
 16 12  1  0  0  0  0
 16 15  1  0  0  0  0
 17  9  1  0  0  0  0
 17 27  1  0  0  0  0
 18  7  1  0  0  0  0
 19 13  1  0  0  0  0
 20 24  1  0  0  0  0
 21 23  1  0  0  0  0
 21 20  2  0  0  0  0
 23 25  2  0  0  0  0
 24 22  2  0  0  0  0
 25 22  1  0  0  0  0
 26 20  1  0  0  0  0
 27 28  1  0  0  0  0
 30 29  1  6  0  0  0
 30 34  1  0  0  0  0
 30 33  1  0  0  0  0
 31 32  1  0  0  0  0
 33 28  1  1  0  0  0
 33 32  1  0  0  0  0
 34 31  1  0  0  0  0
M  END
>  <MODEL>
6

>  <REMARK>
 VINA RESULT:      -7.7      2.677      7.396
  Name = 
  4 active torsions:
  status: ('A' for Active; 'I' for Inactive)
    1  A    between atoms: N_3  and  C_13
    2  A    between atoms: N_3  and  C_29
    3  A    between atoms: C_12  and  C_28
    4  A    between atoms: C_13  and  C_33
                            x       y       z     vdW  Elec       q    Type
                         _______ _______ _______ _____ _____    ______ ____

>  <TORSDO>
F 4

$$$$
=
 OpenBabel11052418593D

 34 39  0  0  1  0  0  0  0  0999 V2000
  191.7600  176.7090  145.0170 C   0  0  0  0  0  0  0  0  0  0  0  0
  190.3980  175.0870  146.2140 C   0  0  0  0  0  0  0  0  0  0  0  0
  189.4090  176.2560  144.1900 C   0  0  1  0  0  3  0  0  0  0  0  0
  188.7790  175.5660  141.8310 C   0  0  0  0  0  0  0  0  0  0  0  0
  192.6700  175.5350  146.9300 C   0  0  0  0  0  3  0  0  0  0  0  0
  191.4640  174.8480  147.0870 C   0  0  0  0  0  3  0  0  0  0  0  0
  189.6980  173.8830  143.3130 C   0  0  0  0  0  3  0  0  0  0  0  0
  190.5430  176.0110  145.1630 C   0  0  0  0  0  0  0  0  0  0  0  0
  189.5680  172.9250  142.3070 C   0  0  0  0  0  3  0  0  0  0  0  0
  188.6560  174.6030  140.8250 C   0  0  0  0  0  3  0  0  0  0  0  0
  192.8150  176.4690  145.9020 C   0  0  0  0  0  3  0  0  0  0  0  0
  189.4700  177.6970  143.6360 C   0  0  2  0  0  3  0  0  0  0  0  0
  191.8930  177.7250  144.0190 N   0  0  0  0  0  2  0  0  0  0  0  0
  189.2020  174.4040  146.3980 O   0  0  0  0  0  1  0  0  0  0  0  0
  188.3690  176.9110  141.5650 N   0  0  0  0  0  2  0  0  0  0  0  0
  188.3750  177.9500  142.5940 C   0  0  1  0  0  3  0  0  0  0  0  0
  189.0500  173.2820  141.0550 C   0  0  0  0  0  0  0  0  0  0  0  0
  189.3290  175.2180  143.0820 C   0  0  0  0  0  0  0  0  0  0  0  0
  190.8480  177.9740  143.0310 C   0  0  0  0  0  2  0  0  0  0  0  0
  184.6110  178.2260  143.0910 C   0  0  0  0  0  0  0  0  0  0  0  0
  184.5570  178.3320  144.4820 C   0  0  0  0  0  3  0  0  0  0  0  0
  187.0240  178.0980  143.2270 C   0  0  0  0  0  0  0  0  0  0  0  0
  185.7060  178.3170  145.2110 N   0  0  0  0  0  0  0  0  0  0  0  0
  185.8500  178.1070  142.4620 C   0  0  0  0  0  3  0  0  0  0  0  0
  186.9250  178.2010  144.6170 C   0  0  0  0  0  3  0  0  0  0  0  0
  183.3610  178.2380  142.2880 C   0  0  0  0  0  1  0  0  0  0  0  0
  188.9090  172.3200  140.0090 N   0  0  0  0  0  2  0  0  0  0  0  0
  189.9910  171.4380  139.5950 C   0  0  0  0  0  2  0  0  0  0  0  0
  192.8030  172.2470  137.6150 C   0  0  0  0  0  1  0  0  0  0  0  0
  191.5450  172.8290  138.2300 C   0  0  2  0  0  3  0  0  0  0  0  0
  189.8770  173.5300  136.6460 N   0  0  0  0  0  2  0  0  0  0  0  0
  189.3070  172.4580  137.4450 C   0  0  0  0  0  2  0  0  0  0  0  0
  190.4430  171.7960  138.1900 C   0  0  2  0  0  3  0  0  0  0  0  0
  191.0500  173.9810  137.3790 C   0  0  0  0  0  2  0  0  0  0  0  0
  1  8  2  0  0  0  0
  1 11  1  0  0  0  0
  2 14  1  0  0  0  0
  2  6  2  0  0  0  0
  3 18  1  6  0  0  0
  3  8  1  0  0  0  0
  4 18  1  0  0  0  0
  5  6  1  0  0  0  0
  8  2  1  0  0  0  0
  9  7  1  0  0  0  0
 10 17  1  0  0  0  0
 10  4  2  0  0  0  0
 11  5  2  0  0  0  0
 12 19  1  6  0  0  0
 12  3  1  0  0  0  0
 13  1  1  0  0  0  0
 15  4  1  0  0  0  0
 15 16  1  0  0  0  0
 16 22  1  1  0  0  0
 16 12  1  0  0  0  0
 17  9  2  0  0  0  0
 18  7  2  0  0  0  0
 19 13  1  0  0  0  0
 20 21  1  0  0  0  0
 21 23  2  0  0  0  0
 22 25  2  0  0  0  0
 24 20  2  0  0  0  0
 24 22  1  0  0  0  0
 25 23  1  0  0  0  0
 26 20  1  0  0  0  0
 27 17  1  0  0  0  0
 28 27  1  0  0  0  0
 30 29  1  6  0  0  0
 31 34  1  0  0  0  0
 31 32  1  0  0  0  0
 32 33  1  0  0  0  0
 33 30  1  0  0  0  0
 33 28  1  1  0  0  0
 34 30  1  0  0  0  0
M  END
>  <MODEL>
7

>  <REMARK>
 VINA RESULT:      -7.7      1.067      1.758
  Name = 
  4 active torsions:
  status: ('A' for Active; 'I' for Inactive)
    1  A    between atoms: N_3  and  C_13
    2  A    between atoms: N_3  and  C_29
    3  A    between atoms: C_12  and  C_28
    4  A    between atoms: C_13  and  C_33
                            x       y       z     vdW  Elec       q    Type
                         _______ _______ _______ _____ _____    ______ ____

>  <TORSDO>
F 4

$$$$
=
 OpenBabel11052418593D

 34 39  0  0  1  0  0  0  0  0999 V2000
  191.8650  172.4690  140.6340 C   0  0  0  0  0  0  0  0  0  0  0  0
  190.7770  171.6850  142.6630 C   0  0  0  0  0  0  0  0  0  0  0  0
  191.8200  173.9980  142.6530 C   0  0  1  0  0  3  0  0  0  0  0  0
  190.9420  176.3790  142.6850 C   0  0  0  0  0  0  0  0  0  0  0  0
  190.8170  170.2860  140.6840 C   0  0  0  0  0  3  0  0  0  0  0  0
  190.4420  170.4920  142.0140 C   0  0  0  0  0  3  0  0  0  0  0  0
  189.3390  174.5620  142.7260 C   0  0  0  0  0  3  0  0  0  0  0  0
  191.4800  172.6880  141.9730 C   0  0  0  0  0  0  0  0  0  0  0  0
  188.2940  175.4860  142.7840 C   0  0  0  0  0  3  0  0  0  0  0  0
  189.8920  177.2990  142.7370 C   0  0  0  0  0  3  0  0  0  0  0  0
  191.5330  171.2700  139.9980 C   0  0  0  0  0  3  0  0  0  0  0  0
  193.1140  174.5990  142.0590 C   0  0  2  0  0  3  0  0  0  0  0  0
  192.6670  173.4340  139.9470 N   0  0  0  0  0  2  0  0  0  0  0  0
  190.4080  171.8630  143.9910 O   0  0  0  0  0  1  0  0  0  0  0  0
  192.2900  176.8580  142.6370 N   0  0  0  0  0  2  0  0  0  0  0  0
  193.4430  175.9600  142.6800 C   0  0  1  0  0  3  0  0  0  0  0  0
  188.5660  176.8600  142.7840 C   0  0  0  0  0  0  0  0  0  0  0  0
  190.6730  174.9950  142.6530 C   0  0  0  0  0  0  0  0  0  0  0  0
  192.9890  174.7280  140.5390 C   0  0  0  0  0  2  0  0  0  0  0  0
  195.4400  174.7950  145.7050 C   0  0  0  0  0  0  0  0  0  0  0  0
  194.9430  175.6680  146.6740 C   0  0  0  0  0  3  0  0  0  0  0  0
  193.9760  175.8250  144.0750 C   0  0  0  0  0  0  0  0  0  0  0  0
  193.9960  176.5870  146.3420 N   0  0  0  0  0  0  0  0  0  0  0  0
  194.9550  174.8760  144.4000 C   0  0  0  0  0  3  0  0  0  0  0  0
  193.5100  176.6830  145.0740 C   0  0  0  0  0  3  0  0  0  0  0  0
  196.4760  173.7910  146.0590 C   0  0  0  0  0  1  0  0  0  0  0  0
  187.5130  177.8250  142.8390 N   0  0  0  0  0  2  0  0  0  0  0  0
  186.3350  177.6620  143.6780 C   0  0  0  0  0  2  0  0  0  0  0  0
  187.9600  176.5640  146.6160 C   0  0  0  0  0  1  0  0  0  0  0  0
  186.5950  176.8220  146.0100 C   0  0  2  0  0  3  0  0  0  0  0  0
  185.3590  178.6150  147.0280 N   0  0  0  0  0  2  0  0  0  0  0  0
  185.6140  178.9810  145.6440 C   0  0  0  0  0  2  0  0  0  0  0  0
  186.6650  178.0350  145.1120 C   0  0  2  0  0  3  0  0  0  0  0  0
  185.6130  177.1850  147.1050 C   0  0  0  0  0  2  0  0  0  0  0  0
  1  8  1  0  0  0  0
  2 14  1  0  0  0  0
  3  8  1  6  0  0  0
  3 18  1  0  0  0  0
  4 10  1  0  0  0  0
  5  6  2  0  0  0  0
  6  2  1  0  0  0  0
  7  9  2  0  0  0  0
  8  2  2  0  0  0  0
  9 17  1  0  0  0  0
 10 17  2  0  0  0  0
 11  1  2  0  0  0  0
 11  5  1  0  0  0  0
 12 19  1  6  0  0  0
 12  3  1  0  0  0  0
 12 16  1  0  0  0  0
 13 19  1  0  0  0  0
 13  1  1  0  0  0  0
 15 16  1  0  0  0  0
 15  4  1  0  0  0  0
 16 22  1  1  0  0  0
 17 27  1  0  0  0  0
 18  4  2  0  0  0  0
 18  7  1  0  0  0  0
 20 26  1  0  0  0  0
 20 21  1  0  0  0  0
 22 24  1  0  0  0  0
 22 25  2  0  0  0  0
 23 21  2  0  0  0  0
 24 20  2  0  0  0  0
 25 23  1  0  0  0  0
 27 28  1  0  0  0  0
 30 29  1  1  0  0  0
 30 34  1  0  0  0  0
 31 34  1  0  0  0  0
 32 31  1  0  0  0  0
 33 28  1  6  0  0  0
 33 32  1  0  0  0  0
 33 30  1  0  0  0  0
M  END
>  <MODEL>
8

>  <REMARK>
 VINA RESULT:      -7.6      2.424      7.673
  Name = 
  4 active torsions:
  status: ('A' for Active; 'I' for Inactive)
    1  A    between atoms: N_3  and  C_13
    2  A    between atoms: N_3  and  C_29
    3  A    between atoms: C_12  and  C_28
    4  A    between atoms: C_13  and  C_33
                            x       y       z     vdW  Elec       q    Type
                         _______ _______ _______ _____ _____    ______ ____

>  <TORSDO>
F 4

$$$$
=
 OpenBabel11052418593D

 34 39  0  0  1  0  0  0  0  0999 V2000
  187.8190  176.3500  146.1250 C   0  0  0  0  0  0  0  0  0  0  0  0
  188.1720  177.7850  144.1930 C   0  0  0  0  0  0  0  0  0  0  0  0
  189.7410  175.8240  144.5610 C   0  0  1  0  0  3  0  0  0  0  0  0
  190.1510  173.5950  143.4190 C   0  0  0  0  0  0  0  0  0  0  0  0
  186.3250  178.2090  145.7040 C   0  0  0  0  0  3  0  0  0  0  0  0
  187.0560  178.5420  144.5610 C   0  0  0  0  0  3  0  0  0  0  0  0
  188.4450  175.0560  142.5090 C   0  0  0  0  0  3  0  0  0  0  0  0
  188.5540  176.6740  144.9650 C   0  0  0  0  0  0  0  0  0  0  0  0
  188.1880  174.1280  141.4990 C   0  0  0  0  0  3  0  0  0  0  0  0
  189.8860  172.6670  142.4080 C   0  0  0  0  0  3  0  0  0  0  0  0
  186.7110  177.1200  146.4880 C   0  0  0  0  0  3  0  0  0  0  0  0
  190.4010  175.1850  145.8040 C   0  0  2  0  0  3  0  0  0  0  0  0
  188.2500  175.2870  146.9790 N   0  0  0  0  0  2  0  0  0  0  0  0
  188.8940  178.1430  143.0600 O   0  0  0  0  0  1  0  0  0  0  0  0
  191.1600  173.3020  144.3910 N   0  0  0  0  0  2  0  0  0  0  0  0
  191.5620  174.2630  145.4170 C   0  0  1  0  0  3  0  0  0  0  0  0
  188.9050  172.9250  141.4470 C   0  0  0  0  0  0  0  0  0  0  0  0
  189.4110  174.7940  143.4940 C   0  0  0  0  0  0  0  0  0  0  0  0
  189.3610  174.4120  146.6180 C   0  0  0  0  0  2  0  0  0  0  0  0
  194.4110  176.7870  145.3380 C   0  0  0  0  0  0  0  0  0  0  0  0
  195.0520  176.3920  144.1620 C   0  0  0  0  0  3  0  0  0  0  0  0
  192.7740  175.0370  144.9940 C   0  0  0  0  0  0  0  0  0  0  0  0
  194.5630  175.3500  143.4370 N   0  0  0  0  0  0  0  0  0  0  0  0
  193.2690  176.1050  145.7540 C   0  0  0  0  0  3  0  0  0  0  0  0
  193.4490  174.6710  143.8270 C   0  0  0  0  0  3  0  0  0  0  0  0
  194.9410  177.9210  146.1370 C   0  0  0  0  0  1  0  0  0  0  0  0
  188.6580  171.9580  140.4250 N   0  0  0  0  0  2  0  0  0  0  0  0
  188.5320  172.3090  139.0180 C   0  0  0  0  0  2  0  0  0  0  0  0
  191.8790  173.4340  139.1290 C   0  0  0  0  0  1  0  0  0  0  0  0
  190.5870  173.5490  138.3450 C   0  0  2  0  0  3  0  0  0  0  0  0
  190.6710  172.6420  136.1200 N   0  0  0  0  0  2  0  0  0  0  0  0
  189.6920  171.8770  136.8750 C   0  0  0  0  0  2  0  0  0  0  0  0
  189.8840  172.2110  138.3360 C   0  0  2  0  0  3  0  0  0  0  0  0
  190.8990  173.8520  136.8940 C   0  0  0  0  0  2  0  0  0  0  0  0
  1 11  1  0  0  0  0
  1 13  1  0  0  0  0
  2  6  2  0  0  0  0
  2  8  1  0  0  0  0
  3 18  1  6  0  0  0
  3  8  1  0  0  0  0
  3 12  1  0  0  0  0
  4 18  1  0  0  0  0
  4 15  1  0  0  0  0
  5 11  2  0  0  0  0
  6  5  1  0  0  0  0
  7 18  2  0  0  0  0
  8  1  2  0  0  0  0
  9  7  1  0  0  0  0
 10  4  2  0  0  0  0
 12 19  1  6  0  0  0
 14  2  1  0  0  0  0
 15 16  1  0  0  0  0
 16 22  1  6  0  0  0
 16 12  1  0  0  0  0
 17  9  2  0  0  0  0
 17 10  1  0  0  0  0
 19 13  1  0  0  0  0
 20 24  1  0  0  0  0
 20 26  1  0  0  0  0
 21 20  2  0  0  0  0
 22 24  2  0  0  0  0
 23 25  2  0  0  0  0
 23 21  1  0  0  0  0
 25 22  1  0  0  0  0
 27 17  1  0  0  0  0
 28 27  1  0  0  0  0
 30 29  1  1  0  0  0
 31 32  1  0  0  0  0
 31 34  1  0  0  0  0
 32 33  1  0  0  0  0
 33 30  1  0  0  0  0
 33 28  1  1  0  0  0
 34 30  1  0  0  0  0
M  END
>  <MODEL>
9

>  <REMARK>
 VINA RESULT:      -7.2      2.190      5.358
  Name = 
  4 active torsions:
  status: ('A' for Active; 'I' for Inactive)
    1  A    between atoms: N_3  and  C_13
    2  A    between atoms: N_3  and  C_29
    3  A    between atoms: C_12  and  C_28
    4  A    between atoms: C_13  and  C_33
                            x       y       z     vdW  Elec       q    Type
                         _______ _______ _______ _____ _____    ______ ____

>  <TORSDO>
F 4

$$$$
