=
 OpenBabel11052417213D

 30 33  0  0  1  0  0  0  0  0999 V2000
  187.8460  175.2880  141.6040 C   0  0  0  0  0  0  0  0  0  0  0  0
  186.7960  177.4500  141.3740 C   0  0  0  0  0  3  0  0  0  0  0  0
  185.5630  176.8350  145.7340 C   0  0  0  0  0  2  0  0  0  0  0  0
  189.4490  176.1200  144.0230 C   0  0  0  0  0  2  0  0  0  0  0  0
  188.1760  174.1920  142.4040 O   0  0  0  0  0  0  0  0  0  0  0  0
  190.5730  174.1140  142.9610 C   0  0  2  0  0  3  0  0  0  0  0  0
  189.1890  172.0550  142.7720 C   0  0  0  0  0  1  0  0  0  0  0  0
  189.1210  175.9800  146.9000 C   0  0  2  0  0  3  0  0  0  0  0  0
  186.8080  176.8440  146.5470 C   0  0  0  0  0  0  0  0  0  0  0  0
  189.3850  173.4560  142.2300 C   0  0  1  0  0  3  0  0  0  0  0  0
  190.1930  174.8730  144.1590 N   0  0  0  0  0  0  0  0  0  0  0  0
  186.1490  178.7110  141.8240 C   0  0  0  0  0  2  0  0  0  0  0  0
  189.6630  174.5590  146.6650 C   0  0  0  0  0  2  0  0  0  0  0  0
  188.1660  175.2890  140.3840 O   0  0  0  0  0  0  0  0  0  0  0  0
  185.8440  177.0450  144.2750 C   0  0  0  0  0  0  0  0  0  0  0  0
  184.8300  178.3960  142.4340 C   0  0  0  0  0  3  0  0  0  0  0  0
  187.1570  176.4630  142.2030 C   0  0  0  0  0  0  0  0  0  0  0  0
  188.0490  175.9160  144.5810 C   0  0  1  0  0  3  0  0  0  0  0  0
  186.7690  177.2570  147.7370 O   0  0  0  0  0  0  0  0  0  0  0  0
  188.0180  176.3230  145.9920 N   0  0  0  0  0  0  0  0  0  0  0  0
  191.5910  173.6770  145.5910 O   0  0  0  0  0  0  0  0  0  0  0  0
  184.7190  177.6590  143.5370 C   0  0  0  0  0  3  0  0  0  0  0  0
  186.9840  176.5640  143.7000 C   0  0  0  0  0  0  0  0  0  0  0  0
  190.5510  174.3760  145.4590 C   0  0  0  0  0  0  0  0  0  0  0  0
  191.5050  174.8920  142.0340 C   0  0  0  0  0  2  0  0  0  0  0  0
  193.2360  176.0920  142.6900 C   0  0  0  0  0  1  0  0  0  0  0  0
  192.8360  174.7810  142.4400 O   0  0  0  0  0  0  0  0  0  0  0  0
  190.2000  177.0620  146.9070 C   0  0  0  0  0  2  0  0  0  0  0  0
  191.3680  177.7350  149.0050 C   0  0  0  0  0  1  0  0  0  0  0  0
  191.3180  176.7200  147.8790 C   0  0  0  0  0  2  0  0  0  0  0  0
  1 17  1  0  0  0  0
  1  5  1  0  0  0  0
  2 12  1  0  0  0  0
  2 17  2  0  0  0  0
  3  9  1  0  0  0  0
  4 11  1  0  0  0  0
  6 25  1  6  0  0  0
  6 11  1  0  0  0  0
  8 28  1  6  0  0  0
  9 19  2  0  0  0  0
 10  5  1  0  0  0  0
 10  7  1  1  0  0  0
 10  6  1  0  0  0  0
 11 24  1  0  0  0  0
 12 16  1  0  0  0  0
 13  8  1  0  0  0  0
 14  1  2  0  0  0  0
 15  3  1  0  0  0  0
 16 22  2  0  0  0  0
 17 23  1  0  0  0  0
 18  4  1  6  0  0  0
 18 20  1  0  0  0  0
 20  9  1  0  0  0  0
 20  8  1  0  0  0  0
 22 15  1  0  0  0  0
 23 15  2  0  0  0  0
 23 18  1  0  0  0  0
 24 21  2  0  0  0  0
 24 13  1  0  0  0  0
 25 27  1  0  0  0  0
 27 26  1  0  0  0  0
 28 30  1  0  0  0  0
 30 29  1  0  0  0  0
M  END
>  <MODEL>
1

>  <REMARK>
 VINA RESULT:      -7.7      0.000      0.000
  Name = 
  4 active torsions:
  status: ('A' for Active; 'I' for Inactive)
    1  A    between atoms: C_6  and  C_8
    2  A    between atoms: C_6  and  O_21
    3  A    between atoms: C_7  and  C_10
    4  A    between atoms: C_7  and  C_26
                            x       y       z     vdW  Elec       q    Type
                         _______ _______ _______ _____ _____    ______ ____

>  <TORSDO>
F 4

$$$$
=
 OpenBabel11052417213D

 30 33  0  0  1  0  0  0  0  0999 V2000
  188.2900  174.9530  141.9250 C   0  0  0  0  0  0  0  0  0  0  0  0
  187.4990  177.2320  141.8240 C   0  0  0  0  0  3  0  0  0  0  0  0
  188.1400  177.2000  146.3510 C   0  0  0  0  0  2  0  0  0  0  0  0
  190.8420  175.7080  143.3490 C   0  0  0  0  0  2  0  0  0  0  0  0
  188.7940  173.8890  142.6760 O   0  0  0  0  0  0  0  0  0  0  0  0
  191.1780  173.4610  142.2290 C   0  0  2  0  0  3  0  0  0  0  0  0
  189.6130  171.6520  142.9130 C   0  0  0  0  0  1  0  0  0  0  0  0
  191.7340  175.8680  146.1030 C   0  0  2  0  0  3  0  0  0  0  0  0
  189.6030  177.0710  146.5860 C   0  0  0  0  0  0  0  0  0  0  0  0
  189.7250  172.9500  142.1410 C   0  0  1  0  0  3  0  0  0  0  0  0
  191.4240  174.3720  143.3550 N   0  0  0  0  0  0  0  0  0  0  0  0
  187.2520  178.6170  142.3070 C   0  0  0  0  0  2  0  0  0  0  0  0
  191.9590  174.3620  145.8800 C   0  0  0  0  0  2  0  0  0  0  0  0
  188.0680  174.7980  140.6930 O   0  0  0  0  0  0  0  0  0  0  0  0
  187.8080  177.2370  144.8890 C   0  0  0  0  0  0  0  0  0  0  0  0
  186.2820  178.5770  143.4340 C   0  0  0  0  0  3  0  0  0  0  0  0
  188.0570  176.2720  142.5730 C   0  0  0  0  0  0  0  0  0  0  0  0
  189.7910  175.7870  144.4450 C   0  0  1  0  0  3  0  0  0  0  0  0
  190.1140  177.5840  147.6180 O   0  0  0  0  0  0  0  0  0  0  0  0
  190.4010  176.3120  145.6750 N   0  0  0  0  0  0  0  0  0  0  0  0
  193.1440  173.0850  144.2630 O   0  0  0  0  0  0  0  0  0  0  0  0
  186.5570  177.9650  144.5820 C   0  0  0  0  0  3  0  0  0  0  0  0
  188.5390  176.5270  143.9810 C   0  0  0  0  0  0  0  0  0  0  0  0
  192.2340  173.9330  144.4600 C   0  0  0  0  0  0  0  0  0  0  0  0
  191.7200  173.9930  140.9040 C   0  0  0  0  0  2  0  0  0  0  0  0
  191.9120  173.4330  138.7790 C   0  0  0  0  0  1  0  0  0  0  0  0
  190.9900  173.5030  139.8210 O   0  0  0  0  0  0  0  0  0  0  0  0
  192.8350  176.7520  145.5190 C   0  0  0  0  0  2  0  0  0  0  0  0
  195.2110  176.0040  145.4030 C   0  0  0  0  0  1  0  0  0  0  0  0
  194.1350  176.5980  146.2920 C   0  0  0  0  0  2  0  0  0  0  0  0
  1 17  1  0  0  0  0
  1  5  1  0  0  0  0
  2 12  1  0  0  0  0
  2 17  2  0  0  0  0
  3  9  1  0  0  0  0
  4 11  1  0  0  0  0
  6 25  1  6  0  0  0
  6 11  1  0  0  0  0
  8 28  1  6  0  0  0
  9 19  2  0  0  0  0
 10  6  1  0  0  0  0
 10  5  1  0  0  0  0
 10  7  1  1  0  0  0
 11 24  1  0  0  0  0
 12 16  1  0  0  0  0
 13  8  1  0  0  0  0
 14  1  2  0  0  0  0
 15  3  1  0  0  0  0
 16 22  2  0  0  0  0
 17 23  1  0  0  0  0
 18  4  1  6  0  0  0
 18 20  1  0  0  0  0
 20  8  1  0  0  0  0
 20  9  1  0  0  0  0
 21 24  2  0  0  0  0
 22 15  1  0  0  0  0
 23 18  1  0  0  0  0
 23 15  2  0  0  0  0
 24 13  1  0  0  0  0
 26 27  1  0  0  0  0
 27 25  1  0  0  0  0
 28 30  1  0  0  0  0
 29 30  1  0  0  0  0
M  END
>  <MODEL>
2

>  <REMARK>
 VINA RESULT:      -7.1      1.896      2.391
  Name = 
  4 active torsions:
  status: ('A' for Active; 'I' for Inactive)
    1  A    between atoms: C_6  and  C_8
    2  A    between atoms: C_6  and  O_21
    3  A    between atoms: C_7  and  C_10
    4  A    between atoms: C_7  and  C_26
                            x       y       z     vdW  Elec       q    Type
                         _______ _______ _______ _____ _____    ______ ____

>  <TORSDO>
F 4

$$$$
=
 OpenBabel11052417213D

 30 33  0  0  1  0  0  0  0  0999 V2000
  188.6900  174.4540  142.4060 C   0  0  0  0  0  0  0  0  0  0  0  0
  187.8390  176.6000  143.1130 C   0  0  0  0  0  3  0  0  0  0  0  0
  189.2880  175.3240  147.2580 C   0  0  0  0  0  2  0  0  0  0  0  0
  191.4390  174.9630  143.5460 C   0  0  0  0  0  2  0  0  0  0  0  0
  189.3470  173.2620  142.7150 O   0  0  0  0  0  0  0  0  0  0  0  0
  191.6210  173.1620  141.7730 C   0  0  2  0  0  3  0  0  0  0  0  0
  190.2490  171.1190  142.1430 C   0  0  0  0  0  1  0  0  0  0  0  0
  192.8090  174.3970  146.0370 C   0  0  2  0  0  3  0  0  0  0  0  0
  190.7720  175.2450  147.1990 C   0  0  0  0  0  0  0  0  0  0  0  0
  190.1880  172.5890  141.7800 C   0  0  1  0  0  3  0  0  0  0  0  0
  192.0440  173.7290  143.0600 N   0  0  0  0  0  0  0  0  0  0  0  0
  187.6490  177.7660  144.0170 C   0  0  0  0  0  2  0  0  0  0  0  0
  193.0270  173.0380  145.3450 C   0  0  0  0  0  2  0  0  0  0  0  0
  188.2530  174.6410  141.2370 O   0  0  0  0  0  0  0  0  0  0  0  0
  188.6960  175.7520  145.9480 C   0  0  0  0  0  0  0  0  0  0  0  0
  186.9010  177.3320  145.2260 C   0  0  0  0  0  3  0  0  0  0  0  0
  188.5460  175.5120  143.4430 C   0  0  0  0  0  0  0  0  0  0  0  0
  190.6010  174.6450  144.7740 C   0  0  1  0  0  3  0  0  0  0  0  0
  191.4480  175.4790  148.2370 O   0  0  0  0  0  0  0  0  0  0  0  0
  191.4100  174.8410  145.9850 N   0  0  0  0  0  0  0  0  0  0  0  0
  193.9300  172.3710  143.2510 O   0  0  0  0  0  0  0  0  0  0  0  0
  187.3930  176.4400  146.0810 C   0  0  0  0  0  3  0  0  0  0  0  0
  189.2680  175.3890  144.7630 C   0  0  0  0  0  0  0  0  0  0  0  0
  193.0500  173.0550  143.8370 C   0  0  0  0  0  0  0  0  0  0  0  0
  191.9020  174.0900  140.5940 C   0  0  0  0  0  2  0  0  0  0  0  0
  193.8650  173.5690  139.7330 C   0  0  0  0  0  1  0  0  0  0  0  0
  193.2380  174.4910  140.5690 O   0  0  0  0  0  0  0  0  0  0  0  0
  193.7640  175.4910  145.5650 C   0  0  0  0  0  2  0  0  0  0  0  0
  196.0920  175.0940  144.7630 C   0  0  0  0  0  1  0  0  0  0  0  0
  195.1960  175.1930  145.9830 C   0  0  0  0  0  2  0  0  0  0  0  0
  1  5  1  0  0  0  0
  1 17  1  0  0  0  0
  2 17  2  0  0  0  0
  2 12  1  0  0  0  0
  6 25  1  6  0  0  0
  6 10  1  0  0  0  0
  6 11  1  0  0  0  0
  8 28  1  6  0  0  0
  9  3  1  0  0  0  0
  9 19  2  0  0  0  0
 10  7  1  1  0  0  0
 10  5  1  0  0  0  0
 11  4  1  0  0  0  0
 11 24  1  0  0  0  0
 12 16  1  0  0  0  0
 13  8  1  0  0  0  0
 14  1  2  0  0  0  0
 15 22  1  0  0  0  0
 15  3  1  0  0  0  0
 16 22  2  0  0  0  0
 17 23  1  0  0  0  0
 18  4  1  6  0  0  0
 18 20  1  0  0  0  0
 20  8  1  0  0  0  0
 20  9  1  0  0  0  0
 21 24  2  0  0  0  0
 23 18  1  0  0  0  0
 23 15  2  0  0  0  0
 24 13  1  0  0  0  0
 26 27  1  0  0  0  0
 27 25  1  0  0  0  0
 28 30  1  0  0  0  0
 29 30  1  0  0  0  0
M  END
>  <MODEL>
3

>  <REMARK>
 VINA RESULT:      -6.9      2.130      3.354
  Name = 
  4 active torsions:
  status: ('A' for Active; 'I' for Inactive)
    1  A    between atoms: C_6  and  C_8
    2  A    between atoms: C_6  and  O_21
    3  A    between atoms: C_7  and  C_10
    4  A    between atoms: C_7  and  C_26
                            x       y       z     vdW  Elec       q    Type
                         _______ _______ _______ _____ _____    ______ ____

>  <TORSDO>
F 4

$$$$
=
 OpenBabel11052417213D

 30 33  0  0  1  0  0  0  0  0999 V2000
  194.4130  175.7950  146.1230 C   0  0  0  0  0  0  0  0  0  0  0  0
  196.3560  174.9710  144.9510 C   0  0  0  0  0  3  0  0  0  0  0  0
  194.3840  170.8750  145.4510 C   0  0  0  0  0  2  0  0  0  0  0  0
  192.4780  174.5230  144.1870 C   0  0  0  0  0  2  0  0  0  0  0  0
  193.1760  175.5470  146.7210 O   0  0  0  0  0  0  0  0  0  0  0  0
  191.2910  176.4090  145.3910 C   0  0  2  0  0  3  0  0  0  0  0  0
  191.1920  176.2350  147.8710 C   0  0  0  0  0  1  0  0  0  0  0  0
  191.0070  172.0290  144.0320 C   0  0  2  0  0  3  0  0  0  0  0  0
  193.1390  170.8850  144.6380 C   0  0  0  0  0  0  0  0  0  0  0  0
  192.1110  176.4950  146.6950 C   0  0  1  0  0  3  0  0  0  0  0  0
  191.2670  175.0710  144.7860 N   0  0  0  0  0  0  0  0  0  0  0  0
  197.1850  173.9940  144.1950 C   0  0  0  0  0  2  0  0  0  0  0  0
  190.0400  172.8060  144.9440 C   0  0  0  0  0  2  0  0  0  0  0  0
  194.8900  176.9630  146.1370 O   0  0  0  0  0  0  0  0  0  0  0  0
  195.1300  172.1730  145.3520 C   0  0  0  0  0  0  0  0  0  0  0  0
  197.5200  172.8470  145.0790 C   0  0  0  0  0  3  0  0  0  0  0  0
  195.1400  174.6930  145.4380 C   0  0  0  0  0  0  0  0  0  0  0  0
  192.9530  173.3510  145.0310 C   0  0  1  0  0  3  0  0  0  0  0  0
  192.7180  169.8100  144.1330 O   0  0  0  0  0  0  0  0  0  0  0  0
  192.4010  172.1000  144.4930 N   0  0  0  0  0  0  0  0  0  0  0  0
  188.9410  174.9070  144.7850 O   0  0  0  0  0  0  0  0  0  0  0  0
  196.5860  172.0390  145.5750 C   0  0  0  0  0  3  0  0  0  0  0  0
  194.4690  173.3590  145.2160 C   0  0  0  0  0  0  0  0  0  0  0  0
  190.0490  174.3080  144.7980 C   0  0  0  0  0  0  0  0  0  0  0  0
  191.6240  177.5100  144.3860 C   0  0  0  0  0  2  0  0  0  0  0  0
  190.0640  177.8240  142.8580 C   0  0  0  0  0  1  0  0  0  0  0  0
  190.5050  178.2900  144.0950 O   0  0  0  0  0  0  0  0  0  0  0  0
  190.8860  172.3870  142.5520 C   0  0  0  0  0  2  0  0  0  0  0  0
  188.7510  173.0940  141.4760 C   0  0  0  0  0  1  0  0  0  0  0  0
  189.5600  171.9140  141.9770 C   0  0  0  0  0  2  0  0  0  0  0  0
  1 14  2  0  0  0  0
  1  5  1  0  0  0  0
  2 17  2  0  0  0  0
  4 11  1  0  0  0  0
  6 25  1  6  0  0  0
  6 10  1  0  0  0  0
  8 28  1  6  0  0  0
  8 20  1  0  0  0  0
  8 13  1  0  0  0  0
  9  3  1  0  0  0  0
 10  5  1  0  0  0  0
 10  7  1  1  0  0  0
 11 24  1  0  0  0  0
 11  6  1  0  0  0  0
 12  2  1  0  0  0  0
 12 16  1  0  0  0  0
 15  3  1  0  0  0  0
 15 22  1  0  0  0  0
 16 22  2  0  0  0  0
 17  1  1  0  0  0  0
 18  4  1  6  0  0  0
 18 23  1  0  0  0  0
 19  9  2  0  0  0  0
 20  9  1  0  0  0  0
 20 18  1  0  0  0  0
 21 24  2  0  0  0  0
 23 15  2  0  0  0  0
 23 17  1  0  0  0  0
 24 13  1  0  0  0  0
 26 27  1  0  0  0  0
 27 25  1  0  0  0  0
 29 30  1  0  0  0  0
 30 28  1  0  0  0  0
M  END
>  <MODEL>
4

>  <REMARK>
 VINA RESULT:      -6.9      3.443      7.822
  Name = 
  4 active torsions:
  status: ('A' for Active; 'I' for Inactive)
    1  A    between atoms: C_6  and  C_8
    2  A    between atoms: C_6  and  O_21
    3  A    between atoms: C_7  and  C_10
    4  A    between atoms: C_7  and  C_26
                            x       y       z     vdW  Elec       q    Type
                         _______ _______ _______ _____ _____    ______ ____

>  <TORSDO>
F 4

$$$$
=
 OpenBabel11052417213D

 30 33  0  0  1  0  0  0  0  0999 V2000
  189.1100  177.5500  145.8670 C   0  0  0  0  0  0  0  0  0  0  0  0
  186.7320  177.9410  146.0060 C   0  0  0  0  0  3  0  0  0  0  0  0
  186.9560  178.2630  141.4490 C   0  0  0  0  0  2  0  0  0  0  0  0
  188.8070  175.2630  143.9200 C   0  0  0  0  0  2  0  0  0  0  0  0
  190.2570  177.3830  145.0870 O   0  0  0  0  0  0  0  0  0  0  0  0
  191.0570  175.0540  145.0670 C   0  0  2  0  0  3  0  0  0  0  0  0
  192.6010  176.9870  144.8080 C   0  0  0  0  0  1  0  0  0  0  0  0
  188.8470  174.9460  141.0390 C   0  0  2  0  0  3  0  0  0  0  0  0
  187.3250  176.9190  140.9320 C   0  0  0  0  0  0  0  0  0  0  0  0
  191.3230  176.5180  145.4720 C   0  0  1  0  0  3  0  0  0  0  0  0
  190.2200  174.9080  143.8680 N   0  0  0  0  0  0  0  0  0  0  0  0
  185.3350  178.0660  145.5100 C   0  0  0  0  0  2  0  0  0  0  0  0
  190.3660  174.9160  141.2910 C   0  0  0  0  0  2  0  0  0  0  0  0
  189.2040  177.5330  147.1250 O   0  0  0  0  0  0  0  0  0  0  0  0
  186.8370  178.2760  142.9450 C   0  0  0  0  0  0  0  0  0  0  0  0
  185.2390  179.2410  144.6050 C   0  0  0  0  0  3  0  0  0  0  0  0
  187.7840  177.7050  145.2110 C   0  0  0  0  0  0  0  0  0  0  0  0
  188.5800  176.4920  143.0560 C   0  0  1  0  0  3  0  0  0  0  0  0
  186.9220  176.5600  139.7930 O   0  0  0  0  0  0  0  0  0  0  0  0
  188.1850  176.0770  141.7030 N   0  0  0  0  0  0  0  0  0  0  0  0
  191.7860  173.6340  142.7010 O   0  0  0  0  0  0  0  0  0  0  0  0
  185.9110  179.3090  143.4580 C   0  0  0  0  0  3  0  0  0  0  0  0
  187.6390  177.4920  143.7230 C   0  0  0  0  0  0  0  0  0  0  0  0
  190.8060  174.4230  142.6480 C   0  0  0  0  0  0  0  0  0  0  0  0
  190.5940  174.1730  146.2250 C   0  0  0  0  0  2  0  0  0  0  0  0
  188.9400  174.5410  147.6380 C   0  0  0  0  0  1  0  0  0  0  0  0
  190.2410  174.9390  147.3370 O   0  0  0  0  0  0  0  0  0  0  0  0
  188.1430  173.6250  141.3420 C   0  0  0  0  0  2  0  0  0  0  0  0
  188.1960  173.1020  138.9050 C   0  0  0  0  0  1  0  0  0  0  0  0
  188.4730  172.5710  140.2980 C   0  0  0  0  0  2  0  0  0  0  0  0
  1 14  2  0  0  0  0
  3 15  1  0  0  0  0
  5 10  1  0  0  0  0
  5  1  1  0  0  0  0
  6 10  1  0  0  0  0
  6 25  1  1  0  0  0
  8 13  1  0  0  0  0
  8 28  1  1  0  0  0
  8 20  1  0  0  0  0
  9  3  1  0  0  0  0
  9 20  1  0  0  0  0
 10  7  1  6  0  0  0
 11  4  1  0  0  0  0
 11  6  1  0  0  0  0
 12  2  1  0  0  0  0
 13 24  1  0  0  0  0
 15 22  1  0  0  0  0
 15 23  2  0  0  0  0
 16 12  1  0  0  0  0
 17  1  1  0  0  0  0
 17  2  2  0  0  0  0
 18 23  1  0  0  0  0
 18  4  1  1  0  0  0
 19  9  2  0  0  0  0
 20 18  1  0  0  0  0
 22 16  2  0  0  0  0
 23 17  1  0  0  0  0
 24 21  2  0  0  0  0
 24 11  1  0  0  0  0
 25 27  1  0  0  0  0
 27 26  1  0  0  0  0
 29 30  1  0  0  0  0
 30 28  1  0  0  0  0
M  END
>  <MODEL>
5

>  <REMARK>
 VINA RESULT:      -6.8      1.891      5.197
  Name = 
  4 active torsions:
  status: ('A' for Active; 'I' for Inactive)
    1  A    between atoms: C_6  and  C_8
    2  A    between atoms: C_6  and  O_21
    3  A    between atoms: C_7  and  C_10
    4  A    between atoms: C_7  and  C_26
                            x       y       z     vdW  Elec       q    Type
                         _______ _______ _______ _____ _____    ______ ____

>  <TORSDO>
F 4

$$$$
=
 OpenBabel11052417213D

 30 33  0  0  1  0  0  0  0  0999 V2000
  191.3130  176.4120  146.1510 C   0  0  0  0  0  0  0  0  0  0  0  0
  189.0140  176.4590  146.8880 C   0  0  0  0  0  3  0  0  0  0  0  0
  188.0660  177.1880  142.4740 C   0  0  0  0  0  2  0  0  0  0  0  0
  190.7990  174.2750  144.0820 C   0  0  0  0  0  2  0  0  0  0  0  0
  192.2420  176.4700  145.1100 O   0  0  0  0  0  0  0  0  0  0  0  0
  193.2710  174.2830  144.6360 C   0  0  2  0  0  3  0  0  0  0  0  0
  194.4730  176.4260  144.2450 C   0  0  0  0  0  1  0  0  0  0  0  0
  190.1600  174.2090  141.2550 C   0  0  2  0  0  3  0  0  0  0  0  0
  188.4450  175.9550  141.7340 C   0  0  0  0  0  0  0  0  0  0  0  0
  193.4610  175.7310  145.1330 C   0  0  1  0  0  3  0  0  0  0  0  0
  192.1860  174.1240  143.6590 N   0  0  0  0  0  0  0  0  0  0  0  0
  187.5330  176.4310  146.7510 C   0  0  0  0  0  2  0  0  0  0  0  0
  191.6880  174.3660  141.1380 C   0  0  0  0  0  2  0  0  0  0  0  0
  191.7160  176.3030  147.3410 O   0  0  0  0  0  0  0  0  0  0  0  0
  188.3200  177.0590  143.9470 C   0  0  0  0  0  0  0  0  0  0  0  0
  187.0840  177.6540  146.0350 C   0  0  0  0  0  3  0  0  0  0  0  0
  189.8560  176.4380  145.8470 C   0  0  0  0  0  0  0  0  0  0  0  0
  190.2270  175.5300  143.4410 C   0  0  1  0  0  3  0  0  0  0  0  0
  187.8170  175.6400  140.6890 O   0  0  0  0  0  0  0  0  0  0  0  0
  189.5590  175.1780  142.1810 N   0  0  0  0  0  0  0  0  0  0  0  0
  193.5480  173.1790  142.0200 O   0  0  0  0  0  0  0  0  0  0  0  0
  187.4380  177.9080  144.7780 C   0  0  0  0  0  3  0  0  0  0  0  0
  189.3730  176.3310  144.4210 C   0  0  0  0  0  0  0  0  0  0  0  0
  192.5020  173.8270  142.2880 C   0  0  0  0  0  0  0  0  0  0  0  0
  193.2120  173.2540  145.7630 C   0  0  0  0  0  2  0  0  0  0  0  0
  195.1780  172.3470  145.3390 C   0  0  0  0  0  1  0  0  0  0  0  0
  193.8160  172.0530  145.3880 O   0  0  0  0  0  0  0  0  0  0  0  0
  189.7070  172.7830  141.5620 C   0  0  0  0  0  2  0  0  0  0  0  0
  188.7580  172.5230  139.2710 C   0  0  0  0  0  1  0  0  0  0  0  0
  189.6910  171.9260  140.3070 C   0  0  0  0  0  2  0  0  0  0  0  0
  1 14  2  0  0  0  0
  3 15  1  0  0  0  0
  5 10  1  0  0  0  0
  5  1  1  0  0  0  0
  6 10  1  0  0  0  0
  6 25  1  1  0  0  0
  8 28  1  1  0  0  0
  8 20  1  0  0  0  0
  9 20  1  0  0  0  0
  9  3  1  0  0  0  0
 10  7  1  6  0  0  0
 11  4  1  0  0  0  0
 11  6  1  0  0  0  0
 12  2  1  0  0  0  0
 13  8  1  0  0  0  0
 13 24  1  0  0  0  0
 15 23  2  0  0  0  0
 15 22  1  0  0  0  0
 16 12  1  0  0  0  0
 17  1  1  0  0  0  0
 17  2  2  0  0  0  0
 18  4  1  1  0  0  0
 18 23  1  0  0  0  0
 19  9  2  0  0  0  0
 20 18  1  0  0  0  0
 21 24  2  0  0  0  0
 22 16  2  0  0  0  0
 23 17  1  0  0  0  0
 24 11  1  0  0  0  0
 26 27  1  0  0  0  0
 27 25  1  0  0  0  0
 29 30  1  0  0  0  0
 30 28  1  0  0  0  0
M  END
>  <MODEL>
6

>  <REMARK>
 VINA RESULT:      -6.6      2.154      5.466
  Name = 
  4 active torsions:
  status: ('A' for Active; 'I' for Inactive)
    1  A    between atoms: C_6  and  C_8
    2  A    between atoms: C_6  and  O_21
    3  A    between atoms: C_7  and  C_10
    4  A    between atoms: C_7  and  C_26
                            x       y       z     vdW  Elec       q    Type
                         _______ _______ _______ _____ _____    ______ ____

>  <TORSDO>
F 4

$$$$
=
 OpenBabel11052417213D

 30 33  0  0  1  0  0  0  0  0999 V2000
  189.6610  177.4630  146.4800 C   0  0  0  0  0  0  0  0  0  0  0  0
  187.4080  177.5270  147.3460 C   0  0  0  0  0  3  0  0  0  0  0  0
  186.2400  178.5010  143.0330 C   0  0  0  0  0  2  0  0  0  0  0  0
  188.9780  175.4460  144.3410 C   0  0  0  0  0  2  0  0  0  0  0  0
  190.5330  177.5510  145.3930 O   0  0  0  0  0  0  0  0  0  0  0  0
  191.4760  175.3670  144.7560 C   0  0  2  0  0  3  0  0  0  0  0  0
  192.7120  177.4970  144.4040 C   0  0  0  0  0  1  0  0  0  0  0  0
  188.1840  175.5380  141.5540 C   0  0  2  0  0  3  0  0  0  0  0  0
  186.5450  177.2980  142.2140 C   0  0  0  0  0  0  0  0  0  0  0  0
  191.7310  176.7830  145.3120 C   0  0  1  0  0  3  0  0  0  0  0  0
  190.3350  175.2830  143.8340 N   0  0  0  0  0  0  0  0  0  0  0  0
  185.9210  177.5410  147.2910 C   0  0  0  0  0  2  0  0  0  0  0  0
  189.7070  175.6650  141.3600 C   0  0  0  0  0  2  0  0  0  0  0  0
  190.1250  177.2840  147.6400 O   0  0  0  0  0  0  0  0  0  0  0  0
  186.5710  178.2920  144.4820 C   0  0  0  0  0  0  0  0  0  0  0  0
  185.4660  178.8090  146.6620 C   0  0  0  0  0  3  0  0  0  0  0  0
  188.1910  177.5380  146.2600 C   0  0  0  0  0  0  0  0  0  0  0  0
  188.4050  176.7450  143.7960 C   0  0  1  0  0  3  0  0  0  0  0  0
  185.8520  177.0520  141.1910 O   0  0  0  0  0  0  0  0  0  0  0  0
  187.6610  176.4740  142.5580 N   0  0  0  0  0  0  0  0  0  0  0  0
  191.5800  174.3900  142.0770 O   0  0  0  0  0  0  0  0  0  0  0  0
  185.7580  179.1180  145.4010 C   0  0  0  0  0  3  0  0  0  0  0  0
  187.6280  177.5160  144.8590 C   0  0  0  0  0  0  0  0  0  0  0  0
  190.5680  175.0490  142.4350 C   0  0  0  0  0  0  0  0  0  0  0  0
  191.4510  174.2830  145.8320 C   0  0  0  0  0  2  0  0  0  0  0  0
  193.1390  173.1220  145.0140 C   0  0  0  0  0  1  0  0  0  0  0  0
  192.7380  173.8410  146.1390 O   0  0  0  0  0  0  0  0  0  0  0  0
  187.7110  174.1090  141.8150 C   0  0  0  0  0  2  0  0  0  0  0  0
  189.0370  172.0540  141.3310 C   0  0  0  0  0  1  0  0  0  0  0  0
  188.1920  173.1600  140.7290 C   0  0  0  0  0  2  0  0  0  0  0  0
  1 14  2  0  0  0  0
  3 15  1  0  0  0  0
  5  1  1  0  0  0  0
  6 10  1  0  0  0  0
  6 25  1  1  0  0  0
  8 28  1  1  0  0  0
  8 20  1  0  0  0  0
  9 20  1  0  0  0  0
  9  3  1  0  0  0  0
 10  7  1  6  0  0  0
 10  5  1  0  0  0  0
 11  4  1  0  0  0  0
 11  6  1  0  0  0  0
 12  2  1  0  0  0  0
 13  8  1  0  0  0  0
 13 24  1  0  0  0  0
 15 23  2  0  0  0  0
 15 22  1  0  0  0  0
 16 12  1  0  0  0  0
 17  1  1  0  0  0  0
 17  2  2  0  0  0  0
 18  4  1  1  0  0  0
 18 23  1  0  0  0  0
 19  9  2  0  0  0  0
 20 18  1  0  0  0  0
 21 24  2  0  0  0  0
 22 16  2  0  0  0  0
 23 17  1  0  0  0  0
 24 11  1  0  0  0  0
 25 27  1  0  0  0  0
 26 27  1  0  0  0  0
 30 29  1  0  0  0  0
 30 28  1  0  0  0  0
M  END
>  <MODEL>
7

>  <REMARK>
 VINA RESULT:      -6.5      1.931      4.947
  Name = 
  4 active torsions:
  status: ('A' for Active; 'I' for Inactive)
    1  A    between atoms: C_6  and  C_8
    2  A    between atoms: C_6  and  O_21
    3  A    between atoms: C_7  and  C_10
    4  A    between atoms: C_7  and  C_26
                            x       y       z     vdW  Elec       q    Type
                         _______ _______ _______ _____ _____    ______ ____

>  <TORSDO>
F 4

$$$$
=
 OpenBabel11052417213D

 30 33  0  0  1  0  0  0  0  0999 V2000
  193.8500  176.5540  145.8490 C   0  0  0  0  0  0  0  0  0  0  0  0
  191.8420  176.4040  147.1810 C   0  0  0  0  0  3  0  0  0  0  0  0
  189.6730  176.8080  143.1760 C   0  0  0  0  0  2  0  0  0  0  0  0
  193.0430  174.2730  144.0440 C   0  0  0  0  0  2  0  0  0  0  0  0
  194.4550  176.6520  144.5940 O   0  0  0  0  0  0  0  0  0  0  0  0
  195.5560  174.5600  143.9060 C   0  0  2  0  0  3  0  0  0  0  0  0
  196.3640  176.7910  143.1570 C   0  0  0  0  0  1  0  0  0  0  0  0
  191.6830  173.9980  141.4990 C   0  0  2  0  0  3  0  0  0  0  0  0
  189.9750  175.5840  142.3880 C   0  0  0  0  0  0  0  0  0  0  0  0
  195.7100  176.0430  144.3010 C   0  0  1  0  0  3  0  0  0  0  0  0
  194.2740  174.2420  143.2640 N   0  0  0  0  0  0  0  0  0  0  0  0
  190.3910  176.2200  147.4530 C   0  0  0  0  0  2  0  0  0  0  0  0
  193.0960  174.3040  140.9680 C   0  0  0  0  0  2  0  0  0  0  0  0
  194.5660  176.5470  146.8880 O   0  0  0  0  0  0  0  0  0  0  0  0
  190.3250  176.7810  144.5270 C   0  0  0  0  0  0  0  0  0  0  0  0
  189.6330  177.3520  146.8590 C   0  0  0  0  0  3  0  0  0  0  0  0
  192.3720  176.4160  145.9520 C   0  0  0  0  0  0  0  0  0  0  0  0
  192.1840  175.4290  143.5560 C   0  0  1  0  0  3  0  0  0  0  0  0
  189.1290  175.1540  141.5590 O   0  0  0  0  0  0  0  0  0  0  0  0
  191.2470  174.9480  142.5310 N   0  0  0  0  0  0  0  0  0  0  0  0
  195.2450  173.3580  141.3370 O   0  0  0  0  0  0  0  0  0  0  0  0
  189.6080  177.5770  145.5480 C   0  0  0  0  0  3  0  0  0  0  0  0
  191.5400  176.1880  144.7130 C   0  0  0  0  0  0  0  0  0  0  0  0
  194.2430  173.9100  141.8650 C   0  0  0  0  0  0  0  0  0  0  0  0
  195.9160  173.5890  145.0290 C   0  0  0  0  0  2  0  0  0  0  0  0
  197.8670  173.0200  144.1720 C   0  0  0  0  0  1  0  0  0  0  0  0
  197.2850  173.6030  145.2950 O   0  0  0  0  0  0  0  0  0  0  0  0
  191.4900  172.5510  141.9480 C   0  0  0  0  0  2  0  0  0  0  0  0
  189.2450  171.9160  142.8280 C   0  0  0  0  0  1  0  0  0  0  0  0
  190.1050  172.0400  141.5850 C   0  0  0  0  0  2  0  0  0  0  0  0
  1 17  1  0  0  0  0
  1 14  2  0  0  0  0
  2 12  1  0  0  0  0
  3 15  1  0  0  0  0
  5  1  1  0  0  0  0
  6 10  1  0  0  0  0
  6 25  1  1  0  0  0
  8 28  1  1  0  0  0
  8 20  1  0  0  0  0
  9 20  1  0  0  0  0
  9  3  1  0  0  0  0
 10  7  1  6  0  0  0
 10  5  1  0  0  0  0
 11  6  1  0  0  0  0
 11  4  1  0  0  0  0
 13  8  1  0  0  0  0
 13 24  1  0  0  0  0
 15 23  2  0  0  0  0
 15 22  1  0  0  0  0
 16 12  1  0  0  0  0
 17  2  2  0  0  0  0
 18  4  1  1  0  0  0
 18 23  1  0  0  0  0
 19  9  2  0  0  0  0
 20 18  1  0  0  0  0
 21 24  2  0  0  0  0
 22 16  2  0  0  0  0
 23 17  1  0  0  0  0
 24 11  1  0  0  0  0
 25 27  1  0  0  0  0
 26 27  1  0  0  0  0
 30 28  1  0  0  0  0
 30 29  1  0  0  0  0
M  END
>  <MODEL>
8

>  <REMARK>
 VINA RESULT:      -6.4      3.078      6.354
  Name = 
  4 active torsions:
  status: ('A' for Active; 'I' for Inactive)
    1  A    between atoms: C_6  and  C_8
    2  A    between atoms: C_6  and  O_21
    3  A    between atoms: C_7  and  C_10
    4  A    between atoms: C_7  and  C_26
                            x       y       z     vdW  Elec       q    Type
                         _______ _______ _______ _____ _____    ______ ____

>  <TORSDO>
F 4

$$$$
=
 OpenBabel11052417213D

 30 33  0  0  1  0  0  0  0  0999 V2000
  189.1820  174.1280  143.1540 C   0  0  0  0  0  0  0  0  0  0  0  0
  188.5290  176.2790  144.0340 C   0  0  0  0  0  3  0  0  0  0  0  0
  192.0670  175.7090  146.8740 C   0  0  0  0  0  2  0  0  0  0  0  0
  192.0240  175.0020  142.6270 C   0  0  0  0  0  2  0  0  0  0  0  0
  190.0630  173.0450  143.1610 O   0  0  0  0  0  0  0  0  0  0  0  0
  191.5150  172.9910  141.1720 C   0  0  2  0  0  3  0  0  0  0  0  0
  190.8290  170.9200  142.3680 C   0  0  0  0  0  1  0  0  0  0  0  0
  194.5450  174.8960  144.0540 C   0  0  2  0  0  3  0  0  0  0  0  0
  193.3030  175.7380  146.0460 C   0  0  0  0  0  0  0  0  0  0  0  0
  190.3870  172.3160  141.9790 C   0  0  1  0  0  3  0  0  0  0  0  0
  192.4570  173.7630  141.9930 N   0  0  0  0  0  0  0  0  0  0  0  0
  188.6720  177.5410  144.8080 C   0  0  0  0  0  2  0  0  0  0  0  0
  194.5610  173.4750  143.4600 C   0  0  0  0  0  2  0  0  0  0  0  0
  188.1850  174.1160  142.3810 O   0  0  0  0  0  0  0  0  0  0  0  0
  190.8320  175.9030  146.0450 C   0  0  0  0  0  0  0  0  0  0  0  0
  188.7220  177.2230  146.2590 C   0  0  0  0  0  3  0  0  0  0  0  0
  189.4480  175.3050  144.0240 C   0  0  0  0  0  0  0  0  0  0  0  0
  191.9920  174.7950  144.1330 C   0  0  1  0  0  3  0  0  0  0  0  0
  194.3760  176.1660  146.5490 O   0  0  0  0  0  0  0  0  0  0  0  0
  193.2730  175.2190  144.7150 N   0  0  0  0  0  0  0  0  0  0  0  0
  194.3400  172.5950  141.2640 O   0  0  0  0  0  0  0  0  0  0  0  0
  189.7030  176.5000  146.7920 C   0  0  0  0  0  3  0  0  0  0  0  0
  190.7550  175.4240  144.7690 C   0  0  0  0  0  0  0  0  0  0  0  0
  193.8020  173.2840  142.1710 C   0  0  0  0  0  0  0  0  0  0  0  0
  191.0160  173.7650  139.9540 C   0  0  0  0  0  2  0  0  0  0  0  0
  189.6290  173.7710  138.2380 C   0  0  0  0  0  1  0  0  0  0  0  0
  189.7550  173.3230  139.5520 O   0  0  0  0  0  0  0  0  0  0  0  0
  194.9580  175.9850  143.0660 C   0  0  0  0  0  2  0  0  0  0  0  0
  197.4490  175.9710  142.9560 C   0  0  0  0  0  1  0  0  0  0  0  0
  196.2320  176.6830  143.5140 C   0  0  0  0  0  2  0  0  0  0  0  0
  1  5  1  0  0  0  0
  1 17  1  0  0  0  0
  2 12  1  0  0  0  0
  6 25  1  6  0  0  0
  6 10  1  0  0  0  0
  6 11  1  0  0  0  0
  8 28  1  6  0  0  0
  8 20  1  0  0  0  0
  9 19  2  0  0  0  0
  9  3  1  0  0  0  0
 10  7  1  1  0  0  0
 10  5  1  0  0  0  0
 11 24  1  0  0  0  0
 11  4  1  0  0  0  0
 12 16  1  0  0  0  0
 13  8  1  0  0  0  0
 14  1  2  0  0  0  0
 15 22  1  0  0  0  0
 15  3  1  0  0  0  0
 16 22  2  0  0  0  0
 17  2  2  0  0  0  0
 17 23  1  0  0  0  0
 18  4  1  6  0  0  0
 18 20  1  0  0  0  0
 18 23  1  0  0  0  0
 20  9  1  0  0  0  0
 21 24  2  0  0  0  0
 23 15  2  0  0  0  0
 24 13  1  0  0  0  0
 26 27  1  0  0  0  0
 27 25  1  0  0  0  0
 28 30  1  0  0  0  0
 29 30  1  0  0  0  0
M  END
>  <MODEL>
9

>  <REMARK>
 VINA RESULT:      -6.2      2.783      4.980
  Name = 
  4 active torsions:
  status: ('A' for Active; 'I' for Inactive)
    1  A    between atoms: C_6  and  C_8
    2  A    between atoms: C_6  and  O_21
    3  A    between atoms: C_7  and  C_10
    4  A    between atoms: C_7  and  C_26
                            x       y       z     vdW  Elec       q    Type
                         _______ _______ _______ _____ _____    ______ ____

>  <TORSDO>
F 4

$$$$
