=
 OpenBabel11052419173D

 32 36  0  0  1  0  0  0  0  0999 V2000
  189.5730  176.6750  143.7840 C   0  0  2  0  0  3  0  0  0  0  0  0
  190.2810  174.7730  142.2720 O   0  0  0  0  0  0  0  0  0  0  0  0
  189.9550  178.1480  144.0150 C   0  0  0  0  0  2  0  0  0  0  0  0
  190.6410  175.9820  142.9350 C   0  0  2  0  0  3  0  0  0  0  0  0
  189.4310  173.6500  144.2890 C   0  0  0  0  0  2  0  0  0  0  0  0
  189.1550  174.1110  142.8370 C   0  0  1  0  0  0  0  0  0  0  0  0
  191.9860  175.9120  143.6850 C   0  0  2  0  0  3  0  0  0  0  0  0
  190.7060  172.8200  144.4860 C   0  0  0  0  0  2  0  0  0  0  0  0
  191.9630  174.9030  144.7430 N   0  0  0  0  0  2  0  0  0  0  0  0
  192.3280  177.2680  144.3330 C   0  0  0  0  0  2  0  0  0  0  0  0
  187.9150  175.0300  142.8330 C   0  0  0  0  0  2  0  0  0  0  0  0
  188.2100  176.5060  143.1240 C   0  0  1  0  0  3  0  0  0  0  0  0
  191.9810  173.5800  144.1310 C   0  0  1  0  0  3  0  0  0  0  0  0
  191.4570  178.4280  143.8280 C   0  0  0  0  0  2  0  0  0  0  0  0
  185.9490  179.3010  144.3150 C   0  0  0  0  0  0  0  0  0  0  0  0
  184.1180  178.1180  147.0450 F   0  0  0  0  0  0  0  0  0  0  0  0
  185.4260  180.4460  143.8110 F   0  0  0  0  0  0  0  0  0  0  0  0
  185.5140  176.7070  145.8530 C   0  0  0  0  0  3  0  0  0  0  0  0
  187.0960  177.1150  143.9260 C   0  0  0  0  0  0  0  0  0  0  0  0
  185.9690  179.1310  145.7980 C   0  0  0  0  0  2  0  0  0  0  0  0
  186.6180  176.3670  144.9330 C   0  0  0  0  0  3  0  0  0  0  0  0
  186.4910  178.4050  143.4830 C   0  0  0  0  0  0  0  0  0  0  0  0
  186.5340  178.7130  142.1610 F   0  0  0  0  0  0  0  0  0  0  0  0
  185.1660  177.9440  146.2060 C   0  0  0  0  0  0  0  0  0  0  0  0
  190.2720  172.8230  138.6920 C   0  0  0  0  0  1  0  0  0  0  0  0
  188.2340  173.2940  139.8350 O   0  0  0  0  0  0  0  0  0  0  0  0
  187.7320  173.1790  141.0620 O   0  0  0  0  0  0  0  0  0  0  0  0
  188.8090  172.9120  141.9280 C   0  0  1  0  0  3  0  0  0  0  0  0
  189.2910  172.3810  139.7570 C   0  0  2  0  0  3  0  0  0  0  0  0
  189.9500  172.4130  141.0890 C   0  0  0  0  0  2  0  0  0  0  0  0
  193.1850  172.7940  144.6160 C   0  0  0  0  0  2  0  0  0  0  0  0
  193.9200  173.5670  145.6920 C   0  0  0  0  0  1  0  0  0  0  0  0
  1  3  1  6  0  0  0
  2  6  1  0  0  0  0
  4  2  1  1  0  0  0
  4  7  1  0  0  0  0
  4  1  1  0  0  0  0
  5  8  1  0  0  0  0
  6 11  1  1  0  0  0
  6  5  1  0  0  0  0
  7 10  1  1  0  0  0
  7  9  1  0  0  0  0
 11 12  1  0  0  0  0
 12  1  1  0  0  0  0
 12 19  1  1  0  0  0
 13  8  1  0  0  0  0
 13 31  1  1  0  0  0
 13  9  1  0  0  0  0
 14  3  1  0  0  0  0
 14 10  1  0  0  0  0
 15 20  1  0  0  0  0
 17 15  1  0  0  0  0
 18 24  2  0  0  0  0
 19 21  2  0  0  0  0
 20 24  1  0  0  0  0
 21 18  1  0  0  0  0
 22 19  1  0  0  0  0
 22 15  2  0  0  0  0
 23 22  1  0  0  0  0
 24 16  1  0  0  0  0
 26 27  1  0  0  0  0
 27 28  1  0  0  0  0
 28 30  1  6  0  0  0
 28  6  1  0  0  0  0
 29 25  1  6  0  0  0
 29 26  1  0  0  0  0
 29 30  1  0  0  0  0
 31 32  1  0  0  0  0
M  END
>  <MODEL>
1

>  <REMARK>
 VINA RESULT:      -8.6      0.000      0.000
  Name = 
  3 active torsions:
  status: ('A' for Active; 'I' for Inactive)
    1  A    between atoms: C_10  and  C_28
    2  A    between atoms: C_13  and  C_29
    3  A    between atoms: C_16  and  C_27
                            x       y       z     vdW  Elec       q    Type
                         _______ _______ _______ _____ _____    ______ ____

>  <TORSDO>
F 3

$$$$
=
 OpenBabel11052419173D

 32 36  0  0  1  0  0  0  0  0999 V2000
  187.4860  177.1130  144.6510 C   0  0  2  0  0  3  0  0  0  0  0  0
  186.2800  175.6770  142.9530 O   0  0  0  0  0  0  0  0  0  0  0  0
  187.2020  177.7170  146.0380 C   0  0  0  0  0  2  0  0  0  0  0  0
  186.1840  176.6220  144.0150 C   0  0  2  0  0  3  0  0  0  0  0  0
  187.8510  177.0060  141.6050 C   0  0  0  0  0  2  0  0  0  0  0  0
  187.5450  175.6580  142.3010 C   0  0  1  0  0  0  0  0  0  0  0  0
  185.2290  177.7980  143.7280 C   0  0  2  0  0  3  0  0  0  0  0  0
  186.7600  177.5230  140.6590 C   0  0  0  0  0  2  0  0  0  0  0  0
  185.6690  178.5820  142.5750 N   0  0  0  0  0  2  0  0  0  0  0  0
  185.1430  178.7460  144.9400 C   0  0  0  0  0  2  0  0  0  0  0  0
  188.6770  175.3450  143.3020 C   0  0  0  0  0  2  0  0  0  0  0  0
  188.4950  175.9720  144.6900 C   0  0  1  0  0  3  0  0  0  0  0  0
  185.4360  177.8060  141.3630 C   0  0  1  0  0  3  0  0  0  0  0  0
  185.7390  178.1570  146.2270 C   0  0  0  0  0  2  0  0  0  0  0  0
  191.9860  177.4350  144.5690 C   0  0  0  0  0  0  0  0  0  0  0  0
  193.5610  176.7250  147.6060 F   0  0  0  0  0  0  0  0  0  0  0  0
  192.6450  178.3900  143.8670 F   0  0  0  0  0  0  0  0  0  0  0  0
  191.3330  176.1890  147.2700 C   0  0  0  0  0  3  0  0  0  0  0  0
  189.8240  176.3880  145.2540 C   0  0  0  0  0  0  0  0  0  0  0  0
  192.7960  176.4150  145.2970 C   0  0  0  0  0  2  0  0  0  0  0  0
  190.1190  175.9150  146.4760 C   0  0  0  0  0  3  0  0  0  0  0  0
  190.6500  177.3930  144.5250 C   0  0  0  0  0  0  0  0  0  0  0  0
  190.0130  178.2920  143.7310 F   0  0  0  0  0  0  0  0  0  0  0  0
  192.5310  176.4750  146.7630 C   0  0  0  0  0  0  0  0  0  0  0  0
  190.0820  172.0380  141.5600 C   0  0  0  0  0  1  0  0  0  0  0  0
  189.4140  173.9370  140.2830 O   0  0  0  0  0  0  0  0  0  0  0  0
  188.3570  174.7400  140.1700 O   0  0  0  0  0  0  0  0  0  0  0  0
  187.5320  174.4960  141.2840 C   0  0  1  0  0  3  0  0  0  0  0  0
  188.9460  172.7510  140.8580 C   0  0  2  0  0  3  0  0  0  0  0  0
  187.9210  173.1630  141.8530 C   0  0  0  0  0  2  0  0  0  0  0  0
  184.5200  178.5660  140.4220 C   0  0  0  0  0  2  0  0  0  0  0  0
  183.0780  178.1530  140.6430 C   0  0  0  0  0  1  0  0  0  0  0  0
  1 12  1  0  0  0  0
  1  3  1  1  0  0  0
  3 14  1  0  0  0  0
  4  2  1  6  0  0  0
  4  1  1  0  0  0  0
  6  5  1  6  0  0  0
  6  2  1  0  0  0  0
  6 11  1  0  0  0  0
  7  4  1  0  0  0  0
  7 10  1  1  0  0  0
  8 13  1  0  0  0  0
  8  5  1  0  0  0  0
  9  7  1  0  0  0  0
 10 14  1  0  0  0  0
 11 12  1  0  0  0  0
 12 19  1  6  0  0  0
 13 31  1  6  0  0  0
 13  9  1  0  0  0  0
 15 20  1  0  0  0  0
 17 15  1  0  0  0  0
 19 21  2  0  0  0  0
 20 24  1  0  0  0  0
 21 18  1  0  0  0  0
 22 15  2  0  0  0  0
 22 19  1  0  0  0  0
 23 22  1  0  0  0  0
 24 18  2  0  0  0  0
 24 16  1  0  0  0  0
 26 29  1  0  0  0  0
 27 26  1  0  0  0  0
 27 28  1  0  0  0  0
 28 30  1  1  0  0  0
 28  6  1  0  0  0  0
 29 25  1  1  0  0  0
 29 30  1  0  0  0  0
 31 32  1  0  0  0  0
M  END
>  <MODEL>
2

>  <REMARK>
 VINA RESULT:      -8.4      3.123      5.905
  Name = 
  3 active torsions:
  status: ('A' for Active; 'I' for Inactive)
    1  A    between atoms: C_10  and  C_28
    2  A    between atoms: C_13  and  C_29
    3  A    between atoms: C_16  and  C_27
                            x       y       z     vdW  Elec       q    Type
                         _______ _______ _______ _____ _____    ______ ____

>  <TORSDO>
F 3

$$$$
=
 OpenBabel11052419173D

 32 36  0  0  1  0  0  0  0  0999 V2000
  189.9520  176.5800  143.9770 C   0  0  2  0  0  3  0  0  0  0  0  0
  190.4550  174.6710  142.3950 O   0  0  0  0  0  0  0  0  0  0  0  0
  190.4060  178.0360  144.1850 C   0  0  0  0  0  2  0  0  0  0  0  0
  190.9160  175.8590  143.0320 C   0  0  2  0  0  3  0  0  0  0  0  0
  189.7470  173.5570  144.4720 C   0  0  0  0  0  2  0  0  0  0  0  0
  189.3610  174.0430  143.0530 C   0  0  1  0  0  0  0  0  0  0  0  0
  192.3180  175.7340  143.6600 C   0  0  2  0  0  3  0  0  0  0  0  0
  191.0040  172.6820  144.5490 C   0  0  0  0  0  2  0  0  0  0  0  0
  192.3520  174.7160  144.7090 N   0  0  0  0  0  2  0  0  0  0  0  0
  192.7640  177.0710  144.2840 C   0  0  0  0  0  2  0  0  0  0  0  0
  188.1590  175.0040  143.1660 C   0  0  0  0  0  2  0  0  0  0  0  0
  188.5320  176.4660  143.4400 C   0  0  1  0  0  3  0  0  0  0  0  0
  192.2690  173.4000  144.0880 C   0  0  1  0  0  3  0  0  0  0  0  0
  191.8940  178.2660  143.8680 C   0  0  0  0  0  2  0  0  0  0  0  0
  186.3320  176.7340  146.5120 C   0  0  0  0  0  0  0  0  0  0  0  0
  184.0980  179.3730  146.0120 F   0  0  0  0  0  0  0  0  0  0  0  0
  186.3790  176.3480  147.8100 F   0  0  0  0  0  0  0  0  0  0  0  0
  185.7740  178.9320  144.4770 C   0  0  0  0  0  3  0  0  0  0  0  0
  187.5140  177.1050  144.3410 C   0  0  0  0  0  0  0  0  0  0  0  0
  185.0040  177.0970  145.9340 C   0  0  0  0  0  2  0  0  0  0  0  0
  186.8080  178.1150  143.8100 C   0  0  0  0  0  3  0  0  0  0  0  0
  187.4500  176.7050  145.7770 C   0  0  0  0  0  0  0  0  0  0  0  0
  188.5820  176.2400  146.3640 F   0  0  0  0  0  0  0  0  0  0  0  0
  184.9950  178.5140  145.4740 C   0  0  0  0  0  0  0  0  0  0  0  0
  190.0650  172.7560  138.8170 C   0  0  0  0  0  1  0  0  0  0  0  0
  188.1530  173.2890  140.1380 O   0  0  0  0  0  0  0  0  0  0  0  0
  187.7550  173.1800  141.4040 O   0  0  0  0  0  0  0  0  0  0  0  0
  188.8940  172.8660  142.1690 C   0  0  1  0  0  3  0  0  0  0  0  0
  189.1650  172.3400  139.9610 C   0  0  2  0  0  3  0  0  0  0  0  0
  189.9380  172.3350  141.2310 C   0  0  0  0  0  2  0  0  0  0  0  0
  193.4820  172.5670  144.4590 C   0  0  0  0  0  2  0  0  0  0  0  0
  194.2270  173.2070  145.6130 C   0  0  0  0  0  1  0  0  0  0  0  0
  1  3  1  6  0  0  0
  2  6  1  0  0  0  0
  4  2  1  1  0  0  0
  4  7  1  0  0  0  0
  4  1  1  0  0  0  0
  5  8  1  0  0  0  0
  6 11  1  1  0  0  0
  6  5  1  0  0  0  0
  7 10  1  1  0  0  0
  7  9  1  0  0  0  0
 11 12  1  0  0  0  0
 12  1  1  0  0  0  0
 12 19  1  1  0  0  0
 13 31  1  1  0  0  0
 13  8  1  0  0  0  0
 13  9  1  0  0  0  0
 14  3  1  0  0  0  0
 14 10  1  0  0  0  0
 15 17  1  0  0  0  0
 18 24  2  0  0  0  0
 19 22  1  0  0  0  0
 20 15  1  0  0  0  0
 21 19  2  0  0  0  0
 21 18  1  0  0  0  0
 22 23  1  0  0  0  0
 22 15  2  0  0  0  0
 24 20  1  0  0  0  0
 24 16  1  0  0  0  0
 26 27  1  0  0  0  0
 27 28  1  0  0  0  0
 28 30  1  6  0  0  0
 28  6  1  0  0  0  0
 29 25  1  6  0  0  0
 29 26  1  0  0  0  0
 29 30  1  0  0  0  0
 31 32  1  0  0  0  0
M  END
>  <MODEL>
3

>  <REMARK>
 VINA RESULT:      -8.1      1.162      1.816
  Name = 
  3 active torsions:
  status: ('A' for Active; 'I' for Inactive)
    1  A    between atoms: C_10  and  C_28
    2  A    between atoms: C_13  and  C_29
    3  A    between atoms: C_16  and  C_27
                            x       y       z     vdW  Elec       q    Type
                         _______ _______ _______ _____ _____    ______ ____

>  <TORSDO>
F 3

$$$$
=
 OpenBabel11052419173D

 32 36  0  0  1  0  0  0  0  0999 V2000
  188.8520  175.6630  142.7930 C   0  0  2  0  0  3  0  0  0  0  0  0
  189.5780  177.3610  144.5230 O   0  0  0  0  0  0  0  0  0  0  0  0
  188.1910  175.6660  141.4030 C   0  0  0  0  0  2  0  0  0  0  0  0
  188.6970  177.0370  143.4510 C   0  0  2  0  0  3  0  0  0  0  0  0
  189.0960  175.3370  145.8360 C   0  0  0  0  0  2  0  0  0  0  0  0
  190.1640  176.2310  145.1590 C   0  0  1  0  0  0  0  0  0  0  0  0
  187.2150  177.3510  143.7350 C   0  0  2  0  0  3  0  0  0  0  0  0
  188.1370  176.0620  146.7890 C   0  0  0  0  0  2  0  0  0  0  0  0
  186.7090  176.5860  144.8740 N   0  0  0  0  0  2  0  0  0  0  0  0
  186.3360  177.0190  142.5140 C   0  0  0  0  0  2  0  0  0  0  0  0
  190.9600  175.3790  144.1480 C   0  0  0  0  0  2  0  0  0  0  0  0
  190.3250  175.2800  142.7550 C   0  0  1  0  0  3  0  0  0  0  0  0
  187.2900  177.1250  146.0980 C   0  0  1  0  0  3  0  0  0  0  0  0
  187.1380  176.7750  141.2270 C   0  0  0  0  0  2  0  0  0  0  0  0
  191.2000  172.8030  140.0270 C   0  0  0  0  0  0  0  0  0  0  0  0
  190.4410  169.5990  141.1940 F   0  0  0  0  0  0  0  0  0  0  0  0
  191.9900  172.7680  138.9260 F   0  0  0  0  0  0  0  0  0  0  0  0
  190.2480  171.4430  142.5810 C   0  0  0  0  0  3  0  0  0  0  0  0
  190.5580  173.9160  142.1700 C   0  0  0  0  0  0  0  0  0  0  0  0
  190.1110  171.7890  140.1430 C   0  0  0  0  0  2  0  0  0  0  0  0
  190.1230  172.8790  142.9030 C   0  0  0  0  0  3  0  0  0  0  0  0
  191.3700  173.7790  140.9260 C   0  0  0  0  0  0  0  0  0  0  0  0
  192.3060  174.7260  140.6640 F   0  0  0  0  0  0  0  0  0  0  0  0
  190.3060  170.9370  141.3500 C   0  0  0  0  0  0  0  0  0  0  0  0
  194.4870  175.4400  146.0380 C   0  0  0  0  0  1  0  0  0  0  0  0
  192.4490  175.2980  147.2650 O   0  0  0  0  0  0  0  0  0  0  0  0
  191.2790  175.9310  147.3300 O   0  0  0  0  0  0  0  0  0  0  0  0
  191.1900  176.7510  146.1900 C   0  0  1  0  0  3  0  0  0  0  0  0
  193.3510  176.1990  146.6890 C   0  0  2  0  0  3  0  0  0  0  0  0
  192.5790  176.9330  145.6520 C   0  0  0  0  0  2  0  0  0  0  0  0
  186.1930  177.5840  147.0410 C   0  0  0  0  0  2  0  0  0  0  0  0
  184.8350  177.1650  146.5130 C   0  0  0  0  0  1  0  0  0  0  0  0
  1  3  1  6  0  0  0
  1  4  1  0  0  0  0
  2  6  1  0  0  0  0
  4  7  1  0  0  0  0
  4  2  1  1  0  0  0
  5  8  1  0  0  0  0
  6 11  1  6  0  0  0
  6  5  1  0  0  0  0
  6 28  1  0  0  0  0
  7 10  1  6  0  0  0
  7  9  1  0  0  0  0
  9 13  1  0  0  0  0
 12 19  1  1  0  0  0
 12  1  1  0  0  0  0
 12 11  1  0  0  0  0
 13  8  1  0  0  0  0
 13 31  1  1  0  0  0
 14  3  1  0  0  0  0
 14 10  1  0  0  0  0
 15 20  1  0  0  0  0
 15 22  2  0  0  0  0
 16 24  1  0  0  0  0
 17 15  1  0  0  0  0
 18 21  1  0  0  0  0
 19 21  2  0  0  0  0
 20 24  1  0  0  0  0
 22 19  1  0  0  0  0
 23 22  1  0  0  0  0
 24 18  2  0  0  0  0
 26 27  1  0  0  0  0
 28 30  1  6  0  0  0
 28 27  1  0  0  0  0
 29 25  1  6  0  0  0
 29 26  1  0  0  0  0
 30 29  1  0  0  0  0
 32 31  1  0  0  0  0
M  END
>  <MODEL>
4

>  <REMARK>
 VINA RESULT:      -7.8      3.727      7.046
  Name = 
  3 active torsions:
  status: ('A' for Active; 'I' for Inactive)
    1  A    between atoms: C_10  and  C_28
    2  A    between atoms: C_13  and  C_29
    3  A    between atoms: C_16  and  C_27
                            x       y       z     vdW  Elec       q    Type
                         _______ _______ _______ _____ _____    ______ ____

>  <TORSDO>
F 3

$$$$
=
 OpenBabel11052419173D

 32 36  0  0  1  0  0  0  0  0999 V2000
  191.0450  175.9480  145.1290 C   0  0  2  0  0  3  0  0  0  0  0  0
  188.7990  175.0350  144.4040 O   0  0  0  0  0  0  0  0  0  0  0  0
  191.8320  176.1260  146.4390 C   0  0  0  0  0  2  0  0  0  0  0  0
  189.5790  175.6360  145.4350 C   0  0  2  0  0  3  0  0  0  0  0  0
  189.3390  176.7230  142.6960 C   0  0  0  0  0  2  0  0  0  0  0  0
  189.3190  175.2260  143.0930 C   0  0  1  0  0  0  0  0  0  0  0  0
  188.8920  176.8270  146.1310 C   0  0  2  0  0  3  0  0  0  0  0  0
  188.0100  177.4670  142.8680 C   0  0  0  0  0  2  0  0  0  0  0  0
  188.6170  177.9160  145.1940 N   0  0  0  0  0  2  0  0  0  0  0  0
  189.7750  177.3890  147.2630 C   0  0  0  0  0  2  0  0  0  0  0  0
  190.7510  174.6610  142.9790 C   0  0  0  0  0  2  0  0  0  0  0  0
  191.6200  174.8630  144.2280 C   0  0  1  0  0  3  0  0  0  0  0  0
  187.5260  177.5140  144.3140 C   0  0  1  0  0  3  0  0  0  0  0  0
  190.9420  176.4680  147.6470 C   0  0  0  0  0  2  0  0  0  0  0  0
  195.3570  175.1180  144.7870 C   0  0  0  0  0  0  0  0  0  0  0  0
  196.7660  176.6510  141.9820 F   0  0  0  0  0  0  0  0  0  0  0  0
  196.2930  174.5180  145.5630 F   0  0  0  0  0  0  0  0  0  0  0  0
  194.5150  176.1080  142.0320 C   0  0  0  0  0  3  0  0  0  0  0  0
  193.0460  175.1240  143.8360 C   0  0  0  0  0  0  0  0  0  0  0  0
  195.6910  176.4370  144.1750 C   0  0  0  0  0  2  0  0  0  0  0  0
  193.2290  175.7560  142.6660 C   0  0  0  0  0  3  0  0  0  0  0  0
  194.1510  174.5530  144.6590 C   0  0  0  0  0  0  0  0  0  0  0  0
  193.9070  173.4150  145.3590 F   0  0  0  0  0  0  0  0  0  0  0  0
  195.6480  176.3580  142.6880 C   0  0  0  0  0  0  0  0  0  0  0  0
  190.0660  171.9020  140.1810 C   0  0  0  0  0  1  0  0  0  0  0  0
  189.1590  174.1030  140.0540 O   0  0  0  0  0  0  0  0  0  0  0  0
  188.4460  174.9310  140.8140 O   0  0  0  0  0  0  0  0  0  0  0  0
  188.4500  174.4020  142.1180 C   0  0  1  0  0  3  0  0  0  0  0  0
  188.9130  172.8140  140.5400 C   0  0  2  0  0  3  0  0  0  0  0  0
  188.8250  172.9520  142.0180 C   0  0  0  0  0  2  0  0  0  0  0  0
  186.3730  178.4940  144.4270 C   0  0  0  0  0  2  0  0  0  0  0  0
  185.9850  179.0110  143.0560 C   0  0  0  0  0  1  0  0  0  0  0  0
  1  4  1  0  0  0  0
  1  3  1  1  0  0  0
  3 14  1  0  0  0  0
  4  2  1  6  0  0  0
  4  7  1  0  0  0  0
  5  8  1  0  0  0  0
  6  5  1  6  0  0  0
  6  2  1  0  0  0  0
  7 10  1  1  0  0  0
  8 13  1  0  0  0  0
  9  7  1  0  0  0  0
 10 14  1  0  0  0  0
 11  6  1  0  0  0  0
 11 12  1  0  0  0  0
 12 19  1  6  0  0  0
 12  1  1  0  0  0  0
 13 31  1  6  0  0  0
 13  9  1  0  0  0  0
 15 17  1  0  0  0  0
 16 24  1  0  0  0  0
 18 21  1  0  0  0  0
 18 24  2  0  0  0  0
 19 22  1  0  0  0  0
 20 15  1  0  0  0  0
 21 19  2  0  0  0  0
 22 15  2  0  0  0  0
 22 23  1  0  0  0  0
 24 20  1  0  0  0  0
 26 29  1  0  0  0  0
 26 27  1  0  0  0  0
 27 28  1  0  0  0  0
 28 30  1  6  0  0  0
 28  6  1  0  0  0  0
 29 25  1  1  0  0  0
 29 30  1  0  0  0  0
 32 31  1  0  0  0  0
M  END
>  <MODEL>
5

>  <REMARK>
 VINA RESULT:      -7.7      3.798      6.687
  Name = 
  3 active torsions:
  status: ('A' for Active; 'I' for Inactive)
    1  A    between atoms: C_10  and  C_28
    2  A    between atoms: C_13  and  C_29
    3  A    between atoms: C_16  and  C_27
                            x       y       z     vdW  Elec       q    Type
                         _______ _______ _______ _____ _____    ______ ____

>  <TORSDO>
F 3

$$$$
=
 OpenBabel11052419173D

 32 36  0  0  1  0  0  0  0  0999 V2000
  188.6210  175.3540  143.4510 C   0  0  2  0  0  3  0  0  0  0  0  0
  190.6480  174.2910  144.5310 O   0  0  0  0  0  0  0  0  0  0  0  0
  187.4060  174.9040  142.6220 C   0  0  0  0  0  2  0  0  0  0  0  0
  189.6690  174.2400  143.4970 C   0  0  2  0  0  3  0  0  0  0  0  0
  191.3630  176.5970  144.0540 C   0  0  0  0  0  2  0  0  0  0  0  0
  190.8300  175.5840  145.0970 C   0  0  1  0  0  0  0  0  0  0  0  0
  190.2470  173.9660  142.0940 C   0  0  2  0  0  3  0  0  0  0  0  0
  192.6160  176.1570  143.2880 C   0  0  0  0  0  2  0  0  0  0  0  0
  191.1720  175.0190  141.6760 N   0  0  0  0  0  2  0  0  0  0  0  0
  189.1250  173.8760  141.0420 C   0  0  0  0  0  2  0  0  0  0  0  0
  189.5080  176.1210  145.6840 C   0  0  0  0  0  2  0  0  0  0  0  0
  188.2570  175.7680  144.8710 C   0  0  1  0  0  3  0  0  0  0  0  0
  192.4010  174.9000  142.4500 C   0  0  1  0  0  3  0  0  0  0  0  0
  187.7200  173.7520  141.6500 C   0  0  0  0  0  2  0  0  0  0  0  0
  185.0060  177.4720  145.8070 C   0  0  0  0  0  0  0  0  0  0  0  0
  184.8050  180.4680  144.0210 F   0  0  0  0  0  0  0  0  0  0  0  0
  184.1120  177.4270  146.8250 F   0  0  0  0  0  0  0  0  0  0  0  0
  186.7090  179.1530  143.9210 C   0  0  0  0  0  3  0  0  0  0  0  0
  187.2690  176.8980  144.9140 C   0  0  0  0  0  0  0  0  0  0  0  0
  184.5690  178.0780  144.5150 C   0  0  0  0  0  2  0  0  0  0  0  0
  187.4980  177.9130  144.0660 C   0  0  0  0  0  3  0  0  0  0  0  0
  186.2100  176.9100  145.9650 C   0  0  0  0  0  0  0  0  0  0  0  0
  186.4630  176.2740  147.1370 F   0  0  0  0  0  0  0  0  0  0  0  0
  185.4060  179.2640  144.1760 C   0  0  0  0  0  0  0  0  0  0  0  0
  194.8310  177.3000  146.1630 C   0  0  0  0  0  1  0  0  0  0  0  0
  193.9440  175.1070  145.8730 O   0  0  0  0  0  0  0  0  0  0  0  0
  192.7940  174.4640  146.0650 O   0  0  0  0  0  0  0  0  0  0  0  0
  191.8060  175.4420  146.2850 C   0  0  1  0  0  3  0  0  0  0  0  0
  193.9110  176.2290  146.7080 C   0  0  2  0  0  3  0  0  0  0  0  0
  192.5050  176.7120  146.6760 C   0  0  0  0  0  2  0  0  0  0  0  0
  193.5870  174.7050  141.5240 C   0  0  0  0  0  2  0  0  0  0  0  0
  194.7680  175.5270  142.0000 C   0  0  0  0  0  1  0  0  0  0  0  0
  1  3  1  1  0  0  0
  1  4  1  0  0  0  0
  1 12  1  0  0  0  0
  2  6  1  0  0  0  0
  4  2  1  1  0  0  0
  6  5  1  6  0  0  0
  6 11  1  0  0  0  0
  6 28  1  0  0  0  0
  7 10  1  6  0  0  0
  7  4  1  0  0  0  0
  8  5  1  0  0  0  0
  9  7  1  0  0  0  0
  9 13  1  0  0  0  0
 10 14  1  0  0  0  0
 12 19  1  6  0  0  0
 12 11  1  0  0  0  0
 13 31  1  6  0  0  0
 13  8  1  0  0  0  0
 14  3  1  0  0  0  0
 15 22  2  0  0  0  0
 15 17  1  0  0  0  0
 16 24  1  0  0  0  0
 18 21  1  0  0  0  0
 18 24  2  0  0  0  0
 19 22  1  0  0  0  0
 20 15  1  0  0  0  0
 21 19  2  0  0  0  0
 22 23  1  0  0  0  0
 24 20  1  0  0  0  0
 26 27  1  0  0  0  0
 26 29  1  0  0  0  0
 27 28  1  0  0  0  0
 28 30  1  6  0  0  0
 29 25  1  6  0  0  0
 30 29  1  0  0  0  0
 31 32  1  0  0  0  0
M  END
>  <MODEL>
6

>  <REMARK>
 VINA RESULT:      -7.6      2.178      4.738
  Name = 
  3 active torsions:
  status: ('A' for Active; 'I' for Inactive)
    1  A    between atoms: C_10  and  C_28
    2  A    between atoms: C_13  and  C_29
    3  A    between atoms: C_16  and  C_27
                            x       y       z     vdW  Elec       q    Type
                         _______ _______ _______ _____ _____    ______ ____

>  <TORSDO>
F 3

$$$$
=
 OpenBabel11052419173D

 32 36  0  0  1  0  0  0  0  0999 V2000
  187.8410  176.4260  142.8100 C   0  0  2  0  0  3  0  0  0  0  0  0
  189.1070  177.8010  144.5150 O   0  0  0  0  0  0  0  0  0  0  0  0
  186.9610  176.6760  141.5730 C   0  0  0  0  0  2  0  0  0  0  0  0
  188.0160  177.7240  143.6010 C   0  0  2  0  0  3  0  0  0  0  0  0
  188.5490  175.7260  145.7150 C   0  0  0  0  0  2  0  0  0  0  0  0
  189.6100  176.5370  144.9310 C   0  0  1  0  0  0  0  0  0  0  0  0
  186.6720  178.2040  144.1830 C   0  0  2  0  0  3  0  0  0  0  0  0
  187.8910  176.4630  146.8880 C   0  0  0  0  0  2  0  0  0  0  0  0
  186.2550  177.3920  145.3250 N   0  0  0  0  0  2  0  0  0  0  0  0
  185.5560  178.1360  143.1210 C   0  0  0  0  0  2  0  0  0  0  0  0
  190.0790  175.7030  143.7200 C   0  0  0  0  0  2  0  0  0  0  0  0
  189.2090  175.8500  142.4660 C   0  0  1  0  0  3  0  0  0  0  0  0
  187.1130  177.7050  146.4610 C   0  0  1  0  0  3  0  0  0  0  0  0
  186.0780  177.9310  141.6920 C   0  0  0  0  0  2  0  0  0  0  0  0
  189.7630  172.1380  141.9610 C   0  0  0  0  0  0  0  0  0  0  0  0
  188.9400  171.3640  138.6550 F   0  0  0  0  0  0  0  0  0  0  0  0
  189.8570  171.0280  142.7340 F   0  0  0  0  0  0  0  0  0  0  0  0
  188.5900  173.4920  139.4970 C   0  0  0  0  0  3  0  0  0  0  0  0
  189.1230  174.5430  141.7320 C   0  0  0  0  0  0  0  0  0  0  0  0
  190.2980  172.0720  140.5690 C   0  0  0  0  0  2  0  0  0  0  0  0
  188.7750  174.6150  140.4370 C   0  0  0  0  0  3  0  0  0  0  0  0
  189.2700  173.2650  142.4870 C   0  0  0  0  0  0  0  0  0  0  0  0
  188.9270  173.2530  143.8010 F   0  0  0  0  0  0  0  0  0  0  0  0
  189.2170  172.3190  139.5730 C   0  0  0  0  0  0  0  0  0  0  0  0
  193.8130  174.9780  144.9900 C   0  0  0  0  0  1  0  0  0  0  0  0
  192.0080  175.0640  146.5460 O   0  0  0  0  0  0  0  0  0  0  0  0
  190.9940  175.8700  146.8510 O   0  0  0  0  0  0  0  0  0  0  0  0
  190.8650  176.7910  145.7940 C   0  0  1  0  0  3  0  0  0  0  0  0
  192.9480  175.8530  145.8740 C   0  0  2  0  0  3  0  0  0  0  0  0
  192.1590  176.7900  145.0330 C   0  0  0  0  0  2  0  0  0  0  0  0
  186.2790  178.1990  147.6280 C   0  0  0  0  0  2  0  0  0  0  0  0
  184.8190  178.2910  147.2300 C   0  0  0  0  0  1  0  0  0  0  0  0
  1  3  1  6  0  0  0
  1  4  1  0  0  0  0
  2  6  1  0  0  0  0
  3 14  1  0  0  0  0
  4  7  1  0  0  0  0
  4  2  1  1  0  0  0
  5  8  1  0  0  0  0
  6 11  1  6  0  0  0
  6  5  1  0  0  0  0
  6 28  1  0  0  0  0
  7 10  1  6  0  0  0
  7  9  1  0  0  0  0
  9 13  1  0  0  0  0
 12 19  1  1  0  0  0
 12  1  1  0  0  0  0
 12 11  1  0  0  0  0
 13  8  1  0  0  0  0
 13 31  1  1  0  0  0
 14 10  1  0  0  0  0
 15 22  2  0  0  0  0
 15 17  1  0  0  0  0
 16 24  1  0  0  0  0
 18 24  2  0  0  0  0
 18 21  1  0  0  0  0
 19 22  1  0  0  0  0
 20 15  1  0  0  0  0
 21 19  2  0  0  0  0
 22 23  1  0  0  0  0
 24 20  1  0  0  0  0
 26 27  1  0  0  0  0
 28 30  1  6  0  0  0
 28 27  1  0  0  0  0
 29 25  1  6  0  0  0
 29 26  1  0  0  0  0
 30 29  1  0  0  0  0
 32 31  1  0  0  0  0
M  END
>  <MODEL>
7

>  <REMARK>
 VINA RESULT:      -7.5      3.319      6.815
  Name = 
  3 active torsions:
  status: ('A' for Active; 'I' for Inactive)
    1  A    between atoms: C_10  and  C_28
    2  A    between atoms: C_13  and  C_29
    3  A    between atoms: C_16  and  C_27
                            x       y       z     vdW  Elec       q    Type
                         _______ _______ _______ _____ _____    ______ ____

>  <TORSDO>
F 3

$$$$
=
 OpenBabel11052419173D

 32 36  0  0  1  0  0  0  0  0999 V2000
  191.3580  175.8330  145.6160 C   0  0  2  0  0  3  0  0  0  0  0  0
  189.2530  174.8470  144.6170 O   0  0  0  0  0  0  0  0  0  0  0  0
  191.9000  176.1820  147.0140 C   0  0  0  0  0  2  0  0  0  0  0  0
  189.8520  175.5760  145.6850 C   0  0  2  0  0  3  0  0  0  0  0  0
  190.1480  176.2810  142.8300 C   0  0  0  0  0  2  0  0  0  0  0  0
  190.0080  174.8530  143.4120 C   0  0  1  0  0  0  0  0  0  0  0  0
  189.0890  176.8570  146.0790 C   0  0  2  0  0  3  0  0  0  0  0  0
  188.8350  177.0530  142.6540 C   0  0  0  0  0  2  0  0  0  0  0  0
  189.0240  177.8090  144.9720 N   0  0  0  0  0  2  0  0  0  0  0  0
  189.7700  177.5600  147.2690 C   0  0  0  0  0  2  0  0  0  0  0  0
  191.4180  174.2670  143.6390 C   0  0  0  0  0  2  0  0  0  0  0  0
  192.0510  174.6300  144.9880 C   0  0  1  0  0  3  0  0  0  0  0  0
  188.0990  177.3000  143.9670 C   0  0  1  0  0  3  0  0  0  0  0  0
  190.8170  176.6920  147.9810 C   0  0  0  0  0  2  0  0  0  0  0  0
  195.2150  175.7880  143.2580 C   0  0  0  0  0  0  0  0  0  0  0  0
  197.9400  174.4230  144.9650 F   0  0  0  0  0  0  0  0  0  0  0  0
  195.5880  176.7920  142.4260 F   0  0  0  0  0  0  0  0  0  0  0  0
  195.7830  174.1460  145.7600 C   0  0  0  0  0  3  0  0  0  0  0  0
  193.5330  174.8250  144.8350 C   0  0  0  0  0  0  0  0  0  0  0  0
  196.1000  174.5900  143.3540 C   0  0  0  0  0  2  0  0  0  0  0  0
  194.3090  174.1220  145.6740 C   0  0  0  0  0  3  0  0  0  0  0  0
  194.0440  175.8690  143.9000 C   0  0  0  0  0  0  0  0  0  0  0  0
  193.2550  176.9440  143.6460 F   0  0  0  0  0  0  0  0  0  0  0  0
  196.6040  174.4140  144.7460 C   0  0  0  0  0  0  0  0  0  0  0  0
  190.8710  170.8050  141.6910 C   0  0  0  0  0  1  0  0  0  0  0  0
  190.4930  172.9850  140.8030 O   0  0  0  0  0  0  0  0  0  0  0  0
  189.7740  174.0680  141.0940 O   0  0  0  0  0  0  0  0  0  0  0  0
  189.3040  173.9110  142.4110 C   0  0  1  0  0  3  0  0  0  0  0  0
  189.8680  171.9150  141.4510 C   0  0  2  0  0  3  0  0  0  0  0  0
  189.3960  172.4530  142.7540 C   0  0  0  0  0  2  0  0  0  0  0  0
  186.9770  178.2950  143.7350 C   0  0  0  0  0  2  0  0  0  0  0  0
  186.1420  178.4510  144.9900 C   0  0  0  0  0  1  0  0  0  0  0  0
  1  4  1  0  0  0  0
  1  3  1  1  0  0  0
  3 14  1  0  0  0  0
  4  2  1  6  0  0  0
  4  7  1  0  0  0  0
  6  5  1  6  0  0  0
  6 11  1  0  0  0  0
  6  2  1  0  0  0  0
  7 10  1  1  0  0  0
  8  5  1  0  0  0  0
  8 13  1  0  0  0  0
  9  7  1  0  0  0  0
 10 14  1  0  0  0  0
 11 12  1  0  0  0  0
 12 19  1  6  0  0  0
 12  1  1  0  0  0  0
 13 31  1  6  0  0  0
 13  9  1  0  0  0  0
 15 20  1  0  0  0  0
 15 22  2  0  0  0  0
 17 15  1  0  0  0  0
 19 21  2  0  0  0  0
 20 24  1  0  0  0  0
 21 18  1  0  0  0  0
 22 19  1  0  0  0  0
 23 22  1  0  0  0  0
 24 16  1  0  0  0  0
 24 18  2  0  0  0  0
 26 27  1  0  0  0  0
 26 29  1  0  0  0  0
 27 28  1  0  0  0  0
 28 30  1  1  0  0  0
 28  6  1  0  0  0  0
 29 25  1  1  0  0  0
 29 30  1  0  0  0  0
 31 32  1  0  0  0  0
M  END
>  <MODEL>
8

>  <REMARK>
 VINA RESULT:      -7.5      3.663      6.694
  Name = 
  3 active torsions:
  status: ('A' for Active; 'I' for Inactive)
    1  A    between atoms: C_10  and  C_28
    2  A    between atoms: C_13  and  C_29
    3  A    between atoms: C_16  and  C_27
                            x       y       z     vdW  Elec       q    Type
                         _______ _______ _______ _____ _____    ______ ____

>  <TORSDO>
F 3

$$$$
=
 OpenBabel11052419173D

 32 36  0  0  1  0  0  0  0  0999 V2000
  191.5560  175.3200  145.5070 C   0  0  2  0  0  3  0  0  0  0  0  0
  189.3250  174.5910  144.5620 O   0  0  0  0  0  0  0  0  0  0  0  0
  192.1830  175.5580  146.8920 C   0  0  0  0  0  2  0  0  0  0  0  0
  190.0350  175.2150  145.6290 C   0  0  2  0  0  3  0  0  0  0  0  0
  190.2960  175.9950  142.7900 C   0  0  0  0  0  2  0  0  0  0  0  0
  190.0310  174.5680  143.3270 C   0  0  1  0  0  0  0  0  0  0  0  0
  189.4230  176.5500  146.0980 C   0  0  2  0  0  3  0  0  0  0  0  0
  189.0630  176.9020  142.6940 C   0  0  0  0  0  2  0  0  0  0  0  0
  189.4150  177.5460  145.0270 N   0  0  0  0  0  2  0  0  0  0  0  0
  190.2170  177.1350  147.2820 C   0  0  0  0  0  2  0  0  0  0  0  0
  191.3800  173.8330  143.4770 C   0  0  0  0  0  2  0  0  0  0  0  0
  192.0980  174.0780  144.8100 C   0  0  1  0  0  3  0  0  0  0  0  0
  188.4060  177.1720  144.0450 C   0  0  1  0  0  3  0  0  0  0  0  0
  191.1950  176.1380  147.9200 C   0  0  0  0  0  2  0  0  0  0  0  0
  195.7170  173.2920  145.6040 C   0  0  0  0  0  0  0  0  0  0  0  0
  197.7280  175.3040  143.5760 F   0  0  0  0  0  0  0  0  0  0  0  0
  196.4180  172.2770  146.1670 F   0  0  0  0  0  0  0  0  0  0  0  0
  195.4260  175.2930  143.3250 C   0  0  0  0  0  3  0  0  0  0  0  0
  193.5850  174.1270  144.6030 C   0  0  0  0  0  0  0  0  0  0  0  0
  196.3730  174.6290  145.5040 C   0  0  0  0  0  2  0  0  0  0  0  0
  194.0280  175.0500  143.7340 C   0  0  0  0  0  3  0  0  0  0  0  0
  194.4490  173.0850  145.2290 C   0  0  0  0  0  0  0  0  0  0  0  0
  193.9050  171.8660  145.4790 F   0  0  0  0  0  0  0  0  0  0  0  0
  196.4970  175.0540  144.0810 C   0  0  0  0  0  0  0  0  0  0  0  0
  190.7590  170.9400  140.7970 C   0  0  0  0  0  1  0  0  0  0  0  0
  190.0950  173.1930  140.3890 O   0  0  0  0  0  0  0  0  0  0  0  0
  189.3900  174.1480  140.9910 O   0  0  0  0  0  0  0  0  0  0  0  0
  189.1970  173.7410  142.3250 C   0  0  1  0  0  3  0  0  0  0  0  0
  189.6700  171.9820  140.9430 C   0  0  2  0  0  3  0  0  0  0  0  0
  189.4340  172.2600  142.3850 C   0  0  0  0  0  2  0  0  0  0  0  0
  187.3840  178.2840  143.8930 C   0  0  0  0  0  2  0  0  0  0  0  0
  186.3380  178.1920  144.9860 C   0  0  0  0  0  1  0  0  0  0  0  0
  1  4  1  0  0  0  0
  1  3  1  1  0  0  0
  3 14  1  0  0  0  0
  4  2  1  6  0  0  0
  4  7  1  0  0  0  0
  6  5  1  6  0  0  0
  6 11  1  0  0  0  0
  6  2  1  0  0  0  0
  7 10  1  1  0  0  0
  8  5  1  0  0  0  0
  8 13  1  0  0  0  0
  9  7  1  0  0  0  0
 10 14  1  0  0  0  0
 11 12  1  0  0  0  0
 12 19  1  6  0  0  0
 12  1  1  0  0  0  0
 13 31  1  6  0  0  0
 13  9  1  0  0  0  0
 15 17  1  0  0  0  0
 16 24  1  0  0  0  0
 18 21  1  0  0  0  0
 18 24  2  0  0  0  0
 19 22  1  0  0  0  0
 20 15  1  0  0  0  0
 21 19  2  0  0  0  0
 22 23  1  0  0  0  0
 22 15  2  0  0  0  0
 24 20  1  0  0  0  0
 26 29  1  0  0  0  0
 26 27  1  0  0  0  0
 27 28  1  0  0  0  0
 28 30  1  6  0  0  0
 28  6  1  0  0  0  0
 29 25  1  1  0  0  0
 29 30  1  0  0  0  0
 31 32  1  0  0  0  0
M  END
>  <MODEL>
9

>  <REMARK>
 VINA RESULT:      -7.5      4.088      7.046
  Name = 
  3 active torsions:
  status: ('A' for Active; 'I' for Inactive)
    1  A    between atoms: C_10  and  C_28
    2  A    between atoms: C_13  and  C_29
    3  A    between atoms: C_16  and  C_27
                            x       y       z     vdW  Elec       q    Type
                         _______ _______ _______ _____ _____    ______ ____

>  <TORSDO>
F 3

$$$$
