=
 OpenBabel11052417593D

 31 34  0  0  1  0  0  0  0  0999 V2000
  189.0860  175.1000  143.2920 C   0  0  0  0  0  0  0  0  0  0  0  0
  189.5760  173.9370  142.6250 C   0  0  0  0  0  0  0  0  0  0  0  0
  190.9400  171.8990  142.5810 C   0  0  0  0  0  3  0  0  0  0  0  0
  189.1440  175.3530  144.6700 C   0  0  0  0  0  0  0  0  0  0  0  0
  189.6060  175.1980  146.9800 C   0  0  2  0  0  3  0  0  0  0  0  0
  190.4630  173.0610  143.1940 C   0  0  0  0  0  3  0  0  0  0  0  0
  187.5900  177.1000  143.1940 C   0  0  0  0  0  0  0  0  0  0  0  0
  188.4000  174.4750  140.5990 C   0  0  0  0  0  3  0  0  0  0  0  0
  190.5220  171.5820  141.3260 C   0  0  0  0  0  3  0  0  0  0  0  0
  187.9770  177.4110  144.4960 C   0  0  0  0  0  3  0  0  0  0  0  0
  188.2740  175.9630  142.5850 C   0  0  0  0  0  0  0  0  0  0  0  0
  189.7860  174.6720  145.6880 O   0  0  0  0  0  0  0  0  0  0  0  0
  189.2580  171.9610  139.4010 O   0  0  0  0  0  1  0  0  0  0  0  0
  188.7240  176.4960  145.2110 C   0  0  0  0  0  0  0  0  0  0  0  0
  188.9560  176.4090  146.5310 O   0  0  0  0  0  0  0  0  0  0  0  0
  187.9990  175.6370  141.2270 C   0  0  0  0  0  3  0  0  0  0  0  0
  189.2430  173.6170  141.2650 C   0  0  0  0  0  0  0  0  0  0  0  0
  189.6390  172.4120  140.6500 C   0  0  0  0  0  0  0  0  0  0  0  0
  190.8670  175.3470  147.8610 C   0  0  0  0  0  3  0  0  0  0  0  0
  192.0380  175.7950  147.3450 C   0  0  0  0  0  2  0  0  0  0  0  0
  186.9410  178.0630  142.3600 O   0  0  0  0  0  0  0  0  0  0  0  0
  185.1320  178.2630  140.5620 C   0  0  0  0  0  1  0  0  0  0  0  0
  185.5320  178.2590  142.0130 C   0  0  1  0  0  3  0  0  0  0  0  0
  183.1580  178.2840  142.2320 O   0  0  0  0  0  1  0  0  0  0  0  0
  184.3310  178.0350  142.9780 C   0  0  2  0  0  3  0  0  0  0  0  0
  185.4330  180.1450  144.1890 C   0  0  0  0  0  1  0  0  0  0  0  0
  184.3860  179.0610  144.1280 C   0  0  2  0  0  3  0  0  0  0  0  0
  183.9410  178.5780  145.4110 O   0  0  0  0  0  0  0  0  0  0  0  0
  184.7450  177.9000  146.3720 C   0  0  0  0  0  0  0  0  0  0  0  0
  185.0450  176.6580  146.2930 O   0  0  0  0  0  0  0  0  0  0  0  0
  185.2080  178.6810  147.4840 N   0  0  0  0  0  1  0  0  0  0  0  0
  1  4  1  0  0  0  0
  2  6  2  0  0  0  0
  2  1  1  0  0  0  0
  3  6  1  0  0  0  0
  4 14  2  0  0  0  0
  4 12  1  0  0  0  0
  5 19  1  6  0  0  0
  7 10  2  0  0  0  0
  8 16  2  0  0  0  0
  8 17  1  0  0  0  0
  9  3  2  0  0  0  0
 10 14  1  0  0  0  0
 11  7  1  0  0  0  0
 11  1  2  0  0  0  0
 12  5  1  0  0  0  0
 13 18  1  0  0  0  0
 14 15  1  0  0  0  0
 15  5  1  0  0  0  0
 16 11  1  0  0  0  0
 17  2  1  0  0  0  0
 18 17  2  0  0  0  0
 18  9  1  0  0  0  0
 20 19  2  0  0  0  0
 21  7  1  0  0  0  0
 23 22  1  6  0  0  0
 23 21  1  0  0  0  0
 23 25  1  0  0  0  0
 25 24  1  6  0  0  0
 25 27  1  0  0  0  0
 27 26  1  1  0  0  0
 27 28  1  0  0  0  0
 28 29  1  0  0  0  0
 29 31  1  0  0  0  0
 30 29  2  0  0  0  0
M  END
>  <MODEL>
1

>  <REMARK>
 VINA RESULT:      -7.7      0.000      0.000
  Name = 
  7 active torsions:
  status: ('A' for Active; 'I' for Inactive)
    1  A    between atoms: C_1  and  O_24
    2  A    between atoms: C_2  and  C_13
    3  A    between atoms: C_9  and  C_22
    4  A    between atoms: C_9  and  O_23
    5  A    between atoms: C_15  and  O_23
    6  A    between atoms: C_19  and  C_22
    7  A    between atoms: C_19  and  O_24
                            x       y       z     vdW  Elec       q    Type
                         _______ _______ _______ _____ _____    ______ ____

>  <TORSDO>
F 7

$$$$
=
 OpenBabel11052417593D

 31 34  0  0  1  0  0  0  0  0999 V2000
  187.8240  175.9900  143.7870 C   0  0  0  0  0  0  0  0  0  0  0  0
  186.6500  176.7990  143.7740 C   0  0  0  0  0  0  0  0  0  0  0  0
  184.7420  177.8020  142.6020 C   0  0  0  0  0  3  0  0  0  0  0  0
  188.2120  175.0740  142.7980 C   0  0  0  0  0  0  0  0  0  0  0  0
  188.3220  173.8010  140.8140 C   0  0  2  0  0  3  0  0  0  0  0  0
  185.9120  177.0390  142.6440 C   0  0  0  0  0  3  0  0  0  0  0  0
  189.6690  174.9910  145.1480 C   0  0  0  0  0  0  0  0  0  0  0  0
  186.8860  177.3650  146.0990 C   0  0  0  0  0  3  0  0  0  0  0  0
  184.2720  178.3720  143.7430 C   0  0  0  0  0  3  0  0  0  0  0  0
  190.1360  174.3660  143.9930 C   0  0  0  0  0  3  0  0  0  0  0  0
  188.5410  175.9010  144.9630 C   0  0  0  0  0  0  0  0  0  0  0  0
  187.6910  174.8250  141.5420 O   0  0  0  0  0  0  0  0  0  0  0  0
  184.3530  178.8020  146.0360 O   0  0  0  0  0  1  0  0  0  0  0  0
  189.3620  174.4020  142.8500 C   0  0  0  0  0  0  0  0  0  0  0  0
  189.4230  173.6510  141.7380 O   0  0  0  0  0  0  0  0  0  0  0  0
  188.0640  176.6450  146.0780 C   0  0  0  0  0  3  0  0  0  0  0  0
  186.1730  177.5040  144.9320 C   0  0  0  0  0  0  0  0  0  0  0  0
  184.9530  178.2100  144.9410 C   0  0  0  0  0  0  0  0  0  0  0  0
  188.6630  174.0960  139.3350 C   0  0  0  0  0  3  0  0  0  0  0  0
  188.4360  173.1780  138.3630 C   0  0  0  0  0  2  0  0  0  0  0  0
  190.4870  175.1080  146.3140 O   0  0  0  0  0  0  0  0  0  0  0  0
  191.4300  176.7960  147.9890 C   0  0  0  0  0  1  0  0  0  0  0  0
  191.5330  176.0660  146.6770 C   0  0  1  0  0  3  0  0  0  0  0  0
  193.7600  176.8790  146.9410 O   0  0  0  0  0  1  0  0  0  0  0  0
  192.9650  176.1060  146.0650 C   0  0  2  0  0  3  0  0  0  0  0  0
  191.7640  177.6810  144.2730 C   0  0  0  0  0  1  0  0  0  0  0  0
  192.9300  176.8250  144.7010 C   0  0  2  0  0  3  0  0  0  0  0  0
  193.6080  176.1450  143.6250 O   0  0  0  0  0  0  0  0  0  0  0  0
  195.0160  175.9660  143.5080 C   0  0  0  0  0  0  0  0  0  0  0  0
  195.8750  176.7100  144.0960 O   0  0  0  0  0  0  0  0  0  0  0  0
  195.4550  174.8950  142.6600 N   0  0  0  0  0  1  0  0  0  0  0  0
  1 11  1  0  0  0  0
  2  1  2  0  0  0  0
  2 17  1  0  0  0  0
  3  6  2  0  0  0  0
  3  9  1  0  0  0  0
  4 14  2  0  0  0  0
  4  1  1  0  0  0  0
  5 19  1  6  0  0  0
  5 12  1  0  0  0  0
  5 15  1  0  0  0  0
  6  2  1  0  0  0  0
  7 21  1  0  0  0  0
  9 18  2  0  0  0  0
 10  7  2  0  0  0  0
 11  7  1  0  0  0  0
 11 16  2  0  0  0  0
 12  4  1  0  0  0  0
 14 10  1  0  0  0  0
 15 14  1  0  0  0  0
 16  8  1  0  0  0  0
 17 18  1  0  0  0  0
 17  8  2  0  0  0  0
 18 13  1  0  0  0  0
 20 19  2  0  0  0  0
 21 23  1  0  0  0  0
 23 22  1  1  0  0  0
 25 23  1  0  0  0  0
 25 24  1  1  0  0  0
 27 26  1  6  0  0  0
 27 25  1  0  0  0  0
 28 27  1  0  0  0  0
 29 28  1  0  0  0  0
 29 30  2  0  0  0  0
 31 29  1  0  0  0  0
M  END
>  <MODEL>
2

>  <REMARK>
 VINA RESULT:      -7.4      3.263      7.756
  Name = 
  7 active torsions:
  status: ('A' for Active; 'I' for Inactive)
    1  A    between atoms: C_1  and  O_24
    2  A    between atoms: C_2  and  C_13
    3  A    between atoms: C_9  and  C_22
    4  A    between atoms: C_9  and  O_23
    5  A    between atoms: C_15  and  O_23
    6  A    between atoms: C_19  and  C_22
    7  A    between atoms: C_19  and  O_24
                            x       y       z     vdW  Elec       q    Type
                         _______ _______ _______ _____ _____    ______ ____

>  <TORSDO>
F 7

$$$$
=
 OpenBabel11052417593D

 31 34  0  0  1  0  0  0  0  0999 V2000
  188.0940  176.6510  144.4330 C   0  0  0  0  0  0  0  0  0  0  0  0
  187.1040  177.2630  145.2580 C   0  0  0  0  0  0  0  0  0  0  0  0
  186.3500  178.1410  147.4210 C   0  0  0  0  0  3  0  0  0  0  0  0
  189.4610  176.5310  144.7280 C   0  0  0  0  0  0  0  0  0  0  0  0
  191.5510  176.5920  145.8200 C   0  0  2  0  0  3  0  0  0  0  0  0
  187.2870  177.5190  146.5920 C   0  0  0  0  0  3  0  0  0  0  0  0
  188.7260  175.8680  142.1450 C   0  0  0  0  0  0  0  0  0  0  0  0
  185.4990  177.3220  143.4690 C   0  0  0  0  0  3  0  0  0  0  0  0
  185.1530  178.5300  146.9070 C   0  0  0  0  0  3  0  0  0  0  0  0
  189.9730  175.5050  142.6510 C   0  0  0  0  0  3  0  0  0  0  0  0
  187.7610  176.3520  143.1280 C   0  0  0  0  0  0  0  0  0  0  0  0
  190.1640  176.8070  145.8850 O   0  0  0  0  0  0  0  0  0  0  0  0
  183.6260  178.7780  145.1600 O   0  0  0  0  0  1  0  0  0  0  0  0
  190.3140  175.8860  143.9340 C   0  0  0  0  0  0  0  0  0  0  0  0
  191.5150  175.9370  144.5310 O   0  0  0  0  0  0  0  0  0  0  0  0
  186.4370  176.6580  142.7050 C   0  0  0  0  0  3  0  0  0  0  0  0
  185.7890  177.5970  144.7850 C   0  0  0  0  0  0  0  0  0  0  0  0
  184.8550  178.3000  145.5720 C   0  0  0  0  0  0  0  0  0  0  0  0
  192.2010  175.8250  146.9950 C   0  0  0  0  0  3  0  0  0  0  0  0
  191.4550  175.3400  148.0180 C   0  0  0  0  0  2  0  0  0  0  0  0
  188.2650  175.3820  140.8830 O   0  0  0  0  0  0  0  0  0  0  0  0
  189.0350  173.9660  138.8950 C   0  0  0  0  0  1  0  0  0  0  0  0
  188.3760  174.0680  140.2450 C   0  0  1  0  0  3  0  0  0  0  0  0
  187.3280  172.8630  142.0160 O   0  0  0  0  0  1  0  0  0  0  0  0
  188.2790  172.7010  140.9840 C   0  0  2  0  0  3  0  0  0  0  0  0
  190.8650  172.0510  140.8260 C   0  0  0  0  0  1  0  0  0  0  0  0
  189.6340  172.3650  141.6400 C   0  0  2  0  0  3  0  0  0  0  0  0
  189.5570  171.6810  142.9060 O   0  0  0  0  0  0  0  0  0  0  0  0
  190.1970  172.0840  144.1130 C   0  0  0  0  0  0  0  0  0  0  0  0
  189.6070  172.7330  145.0450 O   0  0  0  0  0  0  0  0  0  0  0  0
  191.5850  171.7410  144.2450 N   0  0  0  0  0  1  0  0  0  0  0  0
  1  4  1  0  0  0  0
  1  2  2  0  0  0  0
  2  6  1  0  0  0  0
  4 12  1  0  0  0  0
  5 12  1  0  0  0  0
  5 19  1  1  0  0  0
  6  3  2  0  0  0  0
  7 10  2  0  0  0  0
  7 11  1  0  0  0  0
  8 17  2  0  0  0  0
  9  3  1  0  0  0  0
 10 14  1  0  0  0  0
 11  1  1  0  0  0  0
 13 18  1  0  0  0  0
 14 15  1  0  0  0  0
 14  4  2  0  0  0  0
 15  5  1  0  0  0  0
 16 11  2  0  0  0  0
 16  8  1  0  0  0  0
 17  2  1  0  0  0  0
 17 18  1  0  0  0  0
 18  9  2  0  0  0  0
 19 20  2  0  0  0  0
 21  7  1  0  0  0  0
 23 22  1  1  0  0  0
 23 21  1  0  0  0  0
 23 25  1  0  0  0  0
 25 27  1  0  0  0  0
 25 24  1  1  0  0  0
 27 26  1  6  0  0  0
 27 28  1  0  0  0  0
 28 29  1  0  0  0  0
 29 31  1  0  0  0  0
 29 30  2  0  0  0  0
M  END
>  <MODEL>
3

>  <REMARK>
 VINA RESULT:      -7.2      2.483      6.276
  Name = 
  7 active torsions:
  status: ('A' for Active; 'I' for Inactive)
    1  A    between atoms: C_1  and  O_24
    2  A    between atoms: C_2  and  C_13
    3  A    between atoms: C_9  and  C_22
    4  A    between atoms: C_9  and  O_23
    5  A    between atoms: C_15  and  O_23
    6  A    between atoms: C_19  and  C_22
    7  A    between atoms: C_19  and  O_24
                            x       y       z     vdW  Elec       q    Type
                         _______ _______ _______ _____ _____    ______ ____

>  <TORSDO>
F 7

$$$$
=
 OpenBabel11052417593D

 31 34  0  0  1  0  0  0  0  0999 V2000
  187.6730  176.9710  144.3320 C   0  0  0  0  0  0  0  0  0  0  0  0
  186.5080  177.6150  144.8470 C   0  0  0  0  0  0  0  0  0  0  0  0
  185.2580  178.6460  146.6890 C   0  0  0  0  0  3  0  0  0  0  0  0
  188.9340  176.9240  144.9440 C   0  0  0  0  0  0  0  0  0  0  0  0
  190.7110  177.1490  146.4810 C   0  0  2  0  0  3  0  0  0  0  0  0
  186.3720  177.9890  146.1590 C   0  0  0  0  0  3  0  0  0  0  0  0
  188.8320  176.0200  142.3320 C   0  0  0  0  0  0  0  0  0  0  0  0
  185.3650  177.4680  142.7380 C   0  0  0  0  0  3  0  0  0  0  0  0
  184.2090  178.9490  145.8790 C   0  0  0  0  0  3  0  0  0  0  0  0
  189.9310  175.7440  143.1440 C   0  0  0  0  0  3  0  0  0  0  0  0
  187.6570  176.5510  143.0180 C   0  0  0  0  0  0  0  0  0  0  0  0
  189.3430  177.3200  146.2040 O   0  0  0  0  0  0  0  0  0  0  0  0
  183.1290  178.9960  143.8110 O   0  0  0  0  0  1  0  0  0  0  0  0
  189.9580  176.2430  144.4310 C   0  0  0  0  0  0  0  0  0  0  0  0
  190.9860  176.3870  145.2830 O   0  0  0  0  0  0  0  0  0  0  0  0
  186.4650  176.7750  142.2740 C   0  0  0  0  0  3  0  0  0  0  0  0
  185.3360  177.8630  144.0540 C   0  0  0  0  0  0  0  0  0  0  0  0
  184.2340  178.5970  144.5380 C   0  0  0  0  0  0  0  0  0  0  0  0
  191.0790  176.5060  147.8380 C   0  0  0  0  0  3  0  0  0  0  0  0
  191.3350  175.1790  147.9430 C   0  0  0  0  0  2  0  0  0  0  0  0
  188.6850  175.4140  141.0470 O   0  0  0  0  0  0  0  0  0  0  0  0
  188.1130  172.9740  141.5620 C   0  0  0  0  0  1  0  0  0  0  0  0
  188.6750  174.0110  140.6270 C   0  0  1  0  0  3  0  0  0  0  0  0
  188.1950  172.2300  139.1150 O   0  0  0  0  0  1  0  0  0  0  0  0
  188.7820  173.5140  139.1550 C   0  0  2  0  0  3  0  0  0  0  0  0
  191.3800  173.4550  139.7720 C   0  0  0  0  0  1  0  0  0  0  0  0
  190.2650  173.3670  138.7600 C   0  0  2  0  0  3  0  0  0  0  0  0
  190.6060  173.8460  137.4430 O   0  0  0  0  0  0  0  0  0  0  0  0
  189.7320  173.8930  136.3200 C   0  0  0  0  0  0  0  0  0  0  0  0
  189.1020  174.9460  135.9570 O   0  0  0  0  0  0  0  0  0  0  0  0
  189.5600  172.6670  135.5930 N   0  0  0  0  0  1  0  0  0  0  0  0
  1  2  1  0  0  0  0
  1  4  1  0  0  0  0
  2  6  2  0  0  0  0
  4 12  1  0  0  0  0
  5 19  1  1  0  0  0
  6  3  1  0  0  0  0
  7 11  1  0  0  0  0
  7 10  2  0  0  0  0
  8 17  1  0  0  0  0
  9  3  2  0  0  0  0
 10 14  1  0  0  0  0
 11  1  2  0  0  0  0
 12  5  1  0  0  0  0
 13 18  1  0  0  0  0
 14  4  2  0  0  0  0
 14 15  1  0  0  0  0
 15  5  1  0  0  0  0
 16  8  2  0  0  0  0
 16 11  1  0  0  0  0
 17 18  2  0  0  0  0
 17  2  1  0  0  0  0
 18  9  1  0  0  0  0
 19 20  2  0  0  0  0
 21  7  1  0  0  0  0
 23 21  1  0  0  0  0
 23 22  1  6  0  0  0
 25 24  1  1  0  0  0
 25 23  1  0  0  0  0
 27 25  1  0  0  0  0
 27 26  1  1  0  0  0
 28 27  1  0  0  0  0
 29 28  1  0  0  0  0
 30 29  2  0  0  0  0
 31 29  1  0  0  0  0
M  END
>  <MODEL>
4

>  <REMARK>
 VINA RESULT:      -7.0      3.148      7.154
  Name = 
  7 active torsions:
  status: ('A' for Active; 'I' for Inactive)
    1  A    between atoms: C_1  and  O_24
    2  A    between atoms: C_2  and  C_13
    3  A    between atoms: C_9  and  C_22
    4  A    between atoms: C_9  and  O_23
    5  A    between atoms: C_15  and  O_23
    6  A    between atoms: C_19  and  C_22
    7  A    between atoms: C_19  and  O_24
                            x       y       z     vdW  Elec       q    Type
                         _______ _______ _______ _____ _____    ______ ____

>  <TORSDO>
F 7

$$$$
=
 OpenBabel11052417593D

 31 34  0  0  1  0  0  0  0  0999 V2000
  187.7560  176.8830  144.4010 C   0  0  0  0  0  0  0  0  0  0  0  0
  186.5960  177.5640  144.8780 C   0  0  0  0  0  0  0  0  0  0  0  0
  185.3520  178.7050  146.6580 C   0  0  0  0  0  3  0  0  0  0  0  0
  189.0150  176.8590  145.0180 C   0  0  0  0  0  0  0  0  0  0  0  0
  190.7920  177.1530  146.5440 C   0  0  2  0  0  3  0  0  0  0  0  0
  186.4610  178.0110  146.1670 C   0  0  0  0  0  3  0  0  0  0  0  0
  188.9110  175.8130  142.4600 C   0  0  0  0  0  0  0  0  0  0  0  0
  185.4550  177.3100  142.7770 C   0  0  0  0  0  3  0  0  0  0  0  0
  184.3060  178.9720  145.8300 C   0  0  0  0  0  3  0  0  0  0  0  0
  190.0060  175.5730  143.2870 C   0  0  0  0  0  3  0  0  0  0  0  0
  187.7390  176.3910  143.1120 C   0  0  0  0  0  0  0  0  0  0  0  0
  189.4260  177.3200  146.2550 O   0  0  0  0  0  0  0  0  0  0  0  0
  183.2300  178.9140  143.7600 O   0  0  0  0  0  1  0  0  0  0  0  0
  190.0350  176.1420  144.5450 C   0  0  0  0  0  0  0  0  0  0  0  0
  191.0620  176.3240  145.3900 O   0  0  0  0  0  0  0  0  0  0  0  0
  186.5500  176.5840  142.3550 C   0  0  0  0  0  3  0  0  0  0  0  0
  185.4280  177.7770  144.0700 C   0  0  0  0  0  0  0  0  0  0  0  0
  184.3310  178.5460  144.5100 C   0  0  0  0  0  0  0  0  0  0  0  0
  191.1520  176.5830  147.9350 C   0  0  0  0  0  3  0  0  0  0  0  0
  191.2980  175.2500  148.1340 C   0  0  0  0  0  2  0  0  0  0  0  0
  188.7610  175.1380  141.2090 O   0  0  0  0  0  0  0  0  0  0  0  0
  187.7860  172.8040  141.5900 C   0  0  0  0  0  1  0  0  0  0  0  0
  188.7410  173.7150  140.8660 C   0  0  1  0  0  3  0  0  0  0  0  0
  188.2480  172.3110  139.0020 O   0  0  0  0  0  1  0  0  0  0  0  0
  189.2860  173.1030  139.5430 C   0  0  2  0  0  3  0  0  0  0  0  0
  190.4800  170.7140  139.4640 C   0  0  0  0  0  1  0  0  0  0  0  0
  190.4780  172.1720  139.8500 C   0  0  2  0  0  3  0  0  0  0  0  0
  191.2100  172.4800  141.0530 O   0  0  0  0  0  0  0  0  0  0  0  0
  192.3950  173.2660  141.1310 C   0  0  0  0  0  0  0  0  0  0  0  0
  192.4270  174.5240  140.8930 O   0  0  0  0  0  0  0  0  0  0  0  0
  193.6010  172.5710  141.4790 N   0  0  0  0  0  1  0  0  0  0  0  0
  1  2  1  0  0  0  0
  1  4  1  0  0  0  0
  2  6  2  0  0  0  0
  4 12  1  0  0  0  0
  5 19  1  1  0  0  0
  6  3  1  0  0  0  0
  7 11  1  0  0  0  0
  7 10  2  0  0  0  0
  8 17  1  0  0  0  0
  9  3  2  0  0  0  0
 10 14  1  0  0  0  0
 11  1  2  0  0  0  0
 12  5  1  0  0  0  0
 13 18  1  0  0  0  0
 14  4  2  0  0  0  0
 14 15  1  0  0  0  0
 15  5  1  0  0  0  0
 16  8  2  0  0  0  0
 16 11  1  0  0  0  0
 17 18  2  0  0  0  0
 17  2  1  0  0  0  0
 18  9  1  0  0  0  0
 19 20  2  0  0  0  0
 21  7  1  0  0  0  0
 23 21  1  0  0  0  0
 23 22  1  6  0  0  0
 25 24  1  1  0  0  0
 25 27  1  0  0  0  0
 25 23  1  0  0  0  0
 27 26  1  1  0  0  0
 27 28  1  0  0  0  0
 28 29  1  0  0  0  0
 29 31  1  0  0  0  0
 30 29  2  0  0  0  0
M  END
>  <MODEL>
5

>  <REMARK>
 VINA RESULT:      -6.9      2.744      6.920
  Name = 
  7 active torsions:
  status: ('A' for Active; 'I' for Inactive)
    1  A    between atoms: C_1  and  O_24
    2  A    between atoms: C_2  and  C_13
    3  A    between atoms: C_9  and  C_22
    4  A    between atoms: C_9  and  O_23
    5  A    between atoms: C_15  and  O_23
    6  A    between atoms: C_19  and  C_22
    7  A    between atoms: C_19  and  O_24
                            x       y       z     vdW  Elec       q    Type
                         _______ _______ _______ _____ _____    ______ ____

>  <TORSDO>
F 7

$$$$
=
 OpenBabel11052417593D

 31 34  0  0  1  0  0  0  0  0999 V2000
  187.3380  176.8610  144.0790 C   0  0  0  0  0  0  0  0  0  0  0  0
  186.2230  177.5480  144.6470 C   0  0  0  0  0  0  0  0  0  0  0  0
  184.1470  178.8330  144.4200 C   0  0  0  0  0  3  0  0  0  0  0  0
  187.4590  176.4340  142.7480 C   0  0  0  0  0  0  0  0  0  0  0  0
  187.0730  176.0580  140.4510 C   0  0  2  0  0  3  0  0  0  0  0  0
  185.2640  178.1770  143.8970 C   0  0  0  0  0  3  0  0  0  0  0  0
  189.3950  175.5010  144.4900 C   0  0  0  0  0  0  0  0  0  0  0  0
  186.9920  177.1570  146.8910 C   0  0  0  0  0  3  0  0  0  0  0  0
  183.9650  178.8800  145.7660 C   0  0  0  0  0  3  0  0  0  0  0  0
  189.5680  175.4100  143.1100 C   0  0  0  0  0  3  0  0  0  0  0  0
  188.2930  176.3510  144.9340 C   0  0  0  0  0  0  0  0  0  0  0  0
  186.6630  176.6760  141.6450 O   0  0  0  0  0  0  0  0  0  0  0  0
  184.5690  178.3700  147.9620 O   0  0  0  0  0  1  0  0  0  0  0  0
  188.5620  175.8560  142.2750 C   0  0  0  0  0  0  0  0  0  0  0  0
  188.3450  175.6110  140.9730 O   0  0  0  0  0  0  0  0  0  0  0  0
  188.1050  176.5670  146.3280 C   0  0  0  0  0  3  0  0  0  0  0  0
  186.0440  177.7100  146.0630 C   0  0  0  0  0  0  0  0  0  0  0  0
  184.8870  178.2920  146.6190 C   0  0  0  0  0  0  0  0  0  0  0  0
  187.0900  176.9320  139.1760 C   0  0  0  0  0  3  0  0  0  0  0  0
  186.6620  176.4480  137.9840 C   0  0  0  0  0  2  0  0  0  0  0  0
  190.4550  175.1890  145.3960 O   0  0  0  0  0  0  0  0  0  0  0  0
  191.6090  176.2070  147.4390 C   0  0  0  0  0  1  0  0  0  0  0  0
  191.5360  176.0070  145.9490 C   0  0  1  0  0  3  0  0  0  0  0  0
  192.5380  177.1760  144.1280 O   0  0  0  0  0  1  0  0  0  0  0  0
  192.8700  176.3440  145.2200 C   0  0  2  0  0  3  0  0  0  0  0  0
  193.8300  173.8710  145.5330 C   0  0  0  0  0  1  0  0  0  0  0  0
  193.4980  175.0530  144.6560 C   0  0  2  0  0  3  0  0  0  0  0  0
  194.3750  175.2320  143.5270 O   0  0  0  0  0  0  0  0  0  0  0  0
  195.7480  175.6060  143.5880 C   0  0  0  0  0  0  0  0  0  0  0  0
  196.1470  176.7960  143.8400 O   0  0  0  0  0  0  0  0  0  0  0  0
  196.7050  174.5680  143.3290 N   0  0  0  0  0  1  0  0  0  0  0  0
  1  2  2  0  0  0  0
  1 11  1  0  0  0  0
  2 17  1  0  0  0  0
  3  9  1  0  0  0  0
  4  1  1  0  0  0  0
  5 19  1  6  0  0  0
  5 15  1  0  0  0  0
  5 12  1  0  0  0  0
  6  3  2  0  0  0  0
  6  2  1  0  0  0  0
  7 11  1  0  0  0  0
  7 21  1  0  0  0  0
  9 18  2  0  0  0  0
 10  7  2  0  0  0  0
 11 16  2  0  0  0  0
 12  4  1  0  0  0  0
 14  4  2  0  0  0  0
 14 10  1  0  0  0  0
 15 14  1  0  0  0  0
 16  8  1  0  0  0  0
 17 18  1  0  0  0  0
 17  8  2  0  0  0  0
 18 13  1  0  0  0  0
 20 19  2  0  0  0  0
 21 23  1  0  0  0  0
 23 22  1  1  0  0  0
 25 24  1  6  0  0  0
 25 23  1  0  0  0  0
 27 25  1  0  0  0  0
 27 26  1  1  0  0  0
 28 29  1  0  0  0  0
 28 27  1  0  0  0  0
 29 30  2  0  0  0  0
 31 29  1  0  0  0  0
M  END
>  <MODEL>
6

>  <REMARK>
 VINA RESULT:      -6.8      3.464      8.298
  Name = 
  7 active torsions:
  status: ('A' for Active; 'I' for Inactive)
    1  A    between atoms: C_1  and  O_24
    2  A    between atoms: C_2  and  C_13
    3  A    between atoms: C_9  and  C_22
    4  A    between atoms: C_9  and  O_23
    5  A    between atoms: C_15  and  O_23
    6  A    between atoms: C_19  and  C_22
    7  A    between atoms: C_19  and  O_24
                            x       y       z     vdW  Elec       q    Type
                         _______ _______ _______ _____ _____    ______ ____

>  <TORSDO>
F 7

$$$$
=
 OpenBabel11052417593D

 31 34  0  0  1  0  0  0  0  0999 V2000
  187.6470  176.3290  143.6480 C   0  0  0  0  0  0  0  0  0  0  0  0
  186.8840  176.8730  142.5720 C   0  0  0  0  0  0  0  0  0  0  0  0
  185.0550  178.2710  141.7240 C   0  0  0  0  0  3  0  0  0  0  0  0
  187.6520  176.7830  144.9750 C   0  0  0  0  0  0  0  0  0  0  0  0
  187.1630  177.9520  146.9660 C   0  0  2  0  0  3  0  0  0  0  0  0
  185.8050  177.6990  142.7550 C   0  0  0  0  0  3  0  0  0  0  0  0
  189.5950  174.9210  144.3360 C   0  0  0  0  0  0  0  0  0  0  0  0
  188.1590  175.6760  140.9230 C   0  0  0  0  0  3  0  0  0  0  0  0
  185.3820  178.0100  140.4310 C   0  0  0  0  0  3  0  0  0  0  0  0
  189.2950  175.2170  145.6640 C   0  0  0  0  0  3  0  0  0  0  0  0
  188.6490  175.4300  143.3460 C   0  0  0  0  0  0  0  0  0  0  0  0
  186.8600  177.7190  145.6130 O   0  0  0  0  0  0  0  0  0  0  0  0
  186.7040  177.0160  138.7840 O   0  0  0  0  0  1  0  0  0  0  0  0
  188.3430  176.1790  145.9400 C   0  0  0  0  0  0  0  0  0  0  0  0
  188.0950  176.8520  147.0750 O   0  0  0  0  0  0  0  0  0  0  0  0
  188.8360  175.0950  141.9760 C   0  0  0  0  0  3  0  0  0  0  0  0
  187.1280  176.5440  141.1950 C   0  0  0  0  0  0  0  0  0  0  0  0
  186.4450  177.1700  140.1320 C   0  0  0  0  0  0  0  0  0  0  0  0
  185.9770  177.9870  147.9570 C   0  0  0  0  0  3  0  0  0  0  0  0
  184.8210  178.6250  147.6500 C   0  0  0  0  0  2  0  0  0  0  0  0
  190.4640  173.8400  143.9920 O   0  0  0  0  0  0  0  0  0  0  0  0
  192.6150  172.5010  143.6370 C   0  0  0  0  0  1  0  0  0  0  0  0
  191.8760  173.8120  143.6030 C   0  0  1  0  0  3  0  0  0  0  0  0
  193.8870  174.4040  142.4660 O   0  0  0  0  0  1  0  0  0  0  0  0
  192.5930  174.8970  142.7480 C   0  0  2  0  0  3  0  0  0  0  0  0
  191.9530  177.4370  143.2750 C   0  0  0  0  0  1  0  0  0  0  0  0
  192.7510  176.1920  143.5720 C   0  0  2  0  0  3  0  0  0  0  0  0
  194.0700  176.4320  144.1020 O   0  0  0  0  0  0  0  0  0  0  0  0
  194.4720  176.2430  145.4550 C   0  0  0  0  0  0  0  0  0  0  0  0
  194.5630  177.1950  146.3060 O   0  0  0  0  0  0  0  0  0  0  0  0
  194.8040  174.9010  145.8420 N   0  0  0  0  0  1  0  0  0  0  0  0
  1  4  1  0  0  0  0
  2  6  2  0  0  0  0
  2  1  1  0  0  0  0
  3  6  1  0  0  0  0
  4 12  1  0  0  0  0
  4 14  2  0  0  0  0
  5 15  1  0  0  0  0
  5 19  1  1  0  0  0
  7 10  2  0  0  0  0
  8 17  1  0  0  0  0
  8 16  2  0  0  0  0
  9  3  2  0  0  0  0
 10 14  1  0  0  0  0
 11  1  2  0  0  0  0
 11  7  1  0  0  0  0
 12  5  1  0  0  0  0
 13 18  1  0  0  0  0
 14 15  1  0  0  0  0
 16 11  1  0  0  0  0
 17  2  1  0  0  0  0
 18  9  1  0  0  0  0
 18 17  2  0  0  0  0
 20 19  2  0  0  0  0
 21  7  1  0  0  0  0
 23 22  1  6  0  0  0
 23 21  1  0  0  0  0
 25 24  1  1  0  0  0
 25 27  1  0  0  0  0
 25 23  1  0  0  0  0
 27 26  1  6  0  0  0
 27 28  1  0  0  0  0
 28 29  1  0  0  0  0
 29 31  1  0  0  0  0
 29 30  2  0  0  0  0
M  END
>  <MODEL>
7

>  <REMARK>
 VINA RESULT:      -6.8      3.071      6.662
  Name = 
  7 active torsions:
  status: ('A' for Active; 'I' for Inactive)
    1  A    between atoms: C_1  and  O_24
    2  A    between atoms: C_2  and  C_13
    3  A    between atoms: C_9  and  C_22
    4  A    between atoms: C_9  and  O_23
    5  A    between atoms: C_15  and  O_23
    6  A    between atoms: C_19  and  C_22
    7  A    between atoms: C_19  and  O_24
                            x       y       z     vdW  Elec       q    Type
                         _______ _______ _______ _____ _____    ______ ____

>  <TORSDO>
F 7

$$$$
=
 OpenBabel11052417593D

 31 34  0  0  1  0  0  0  0  0999 V2000
  187.7150  177.5880  144.4430 C   0  0  0  0  0  0  0  0  0  0  0  0
  186.6500  177.8390  145.3590 C   0  0  0  0  0  0  0  0  0  0  0  0
  184.2940  178.3280  145.8340 C   0  0  0  0  0  3  0  0  0  0  0  0
  187.5830  177.2470  143.0890 C   0  0  0  0  0  0  0  0  0  0  0  0
  186.7000  176.7920  140.9480 C   0  0  2  0  0  3  0  0  0  0  0  0
  185.3650  178.1070  144.9640 C   0  0  0  0  0  3  0  0  0  0  0  0
  190.1310  177.0200  144.1400 C   0  0  0  0  0  0  0  0  0  0  0  0
  188.1140  177.7090  147.2610 C   0  0  0  0  0  3  0  0  0  0  0  0
  184.5010  178.2910  147.1770 C   0  0  0  0  0  3  0  0  0  0  0  0
  189.9210  177.0130  142.7630 C   0  0  0  0  0  3  0  0  0  0  0  0
  188.9880  177.4290  144.9520 C   0  0  0  0  0  0  0  0  0  0  0  0
  186.4700  177.2140  142.2700 O   0  0  0  0  0  0  0  0  0  0  0  0
  185.8420  177.9920  149.0630 O   0  0  0  0  0  1  0  0  0  0  0  0
  188.6300  177.0940  142.2790 C   0  0  0  0  0  0  0  0  0  0  0  0
  188.1410  176.8060  141.0620 O   0  0  0  0  0  0  0  0  0  0  0  0
  189.1480  177.5480  146.3610 C   0  0  0  0  0  3  0  0  0  0  0  0
  186.8410  177.9100  146.7800 C   0  0  0  0  0  0  0  0  0  0  0  0
  185.7680  178.0480  147.6850 C   0  0  0  0  0  0  0  0  0  0  0  0
  186.0620  177.6350  139.8200 C   0  0  0  0  0  3  0  0  0  0  0  0
  184.8900  178.2910  140.0070 C   0  0  0  0  0  2  0  0  0  0  0  0
  191.4470  177.0820  144.6930 O   0  0  0  0  0  0  0  0  0  0  0  0
  192.8700  176.2490  146.6490 C   0  0  0  0  0  1  0  0  0  0  0  0
  192.3130  176.0490  145.2650 C   0  0  1  0  0  3  0  0  0  0  0  0
  192.9770  174.5820  143.5060 O   0  0  0  0  0  1  0  0  0  0  0  0
  192.3820  174.5690  144.7870 C   0  0  2  0  0  3  0  0  0  0  0  0
  190.0160  173.8690  145.8110 C   0  0  0  0  0  1  0  0  0  0  0  0
  190.9550  174.0010  144.6380 C   0  0  2  0  0  3  0  0  0  0  0  0
  190.7910  172.9960  143.6170 O   0  0  0  0  0  0  0  0  0  0  0  0
  189.8820  173.0590  142.5230 C   0  0  0  0  0  0  0  0  0  0  0  0
  190.0840  173.7650  141.4740 O   0  0  0  0  0  0  0  0  0  0  0  0
  188.6760  172.2910  142.6490 N   0  0  0  0  0  1  0  0  0  0  0  0
  1 11  1  0  0  0  0
  1  2  2  0  0  0  0
  2 17  1  0  0  0  0
  3  9  1  0  0  0  0
  4  1  1  0  0  0  0
  5 19  1  6  0  0  0
  5 15  1  0  0  0  0
  5 12  1  0  0  0  0
  6  2  1  0  0  0  0
  6  3  2  0  0  0  0
  7 21  1  0  0  0  0
  7 11  1  0  0  0  0
  9 18  2  0  0  0  0
 10  7  2  0  0  0  0
 11 16  2  0  0  0  0
 12  4  1  0  0  0  0
 14 10  1  0  0  0  0
 14  4  2  0  0  0  0
 15 14  1  0  0  0  0
 16  8  1  0  0  0  0
 17  8  2  0  0  0  0
 17 18  1  0  0  0  0
 18 13  1  0  0  0  0
 19 20  2  0  0  0  0
 21 23  1  0  0  0  0
 23 22  1  1  0  0  0
 25 24  1  6  0  0  0
 25 23  1  0  0  0  0
 27 25  1  0  0  0  0
 27 26  1  1  0  0  0
 28 27  1  0  0  0  0
 29 31  1  0  0  0  0
 29 28  1  0  0  0  0
 30 29  2  0  0  0  0
M  END
>  <MODEL>
8

>  <REMARK>
 VINA RESULT:      -6.7      2.594      7.681
  Name = 
  7 active torsions:
  status: ('A' for Active; 'I' for Inactive)
    1  A    between atoms: C_1  and  O_24
    2  A    between atoms: C_2  and  C_13
    3  A    between atoms: C_9  and  C_22
    4  A    between atoms: C_9  and  O_23
    5  A    between atoms: C_15  and  O_23
    6  A    between atoms: C_19  and  C_22
    7  A    between atoms: C_19  and  O_24
                            x       y       z     vdW  Elec       q    Type
                         _______ _______ _______ _____ _____    ______ ____

>  <TORSDO>
F 7

$$$$
=
 OpenBabel11052417593D

 31 34  0  0  1  0  0  0  0  0999 V2000
  190.4890  175.4370  143.8510 C   0  0  0  0  0  0  0  0  0  0  0  0
  190.4760  174.5410  142.7410 C   0  0  0  0  0  0  0  0  0  0  0  0
  191.5950  172.9400  141.2570 C   0  0  0  0  0  3  0  0  0  0  0  0
  191.4670  175.5000  144.8550 C   0  0  0  0  0  0  0  0  0  0  0  0
  193.4140  175.1460  146.1400 C   0  0  2  0  0  3  0  0  0  0  0  0
  191.5810  173.8460  142.3210 C   0  0  0  0  0  3  0  0  0  0  0  0
  189.1800  176.9880  145.3100 C   0  0  0  0  0  0  0  0  0  0  0  0
  188.1820  175.0430  142.2280 C   0  0  0  0  0  3  0  0  0  0  0  0
  190.4530  172.7070  140.5580 C   0  0  0  0  0  3  0  0  0  0  0  0
  190.3350  177.2010  146.0610 C   0  0  0  0  0  3  0  0  0  0  0  0
  189.3440  176.1570  144.1210 C   0  0  0  0  0  0  0  0  0  0  0  0
  192.6910  174.8680  144.9670 O   0  0  0  0  0  0  0  0  0  0  0  0
  188.1800  173.0200  140.1310 O   0  0  0  0  0  1  0  0  0  0  0  0
  191.4440  176.4130  145.8260 C   0  0  0  0  0  0  0  0  0  0  0  0
  192.5340  176.2040  146.5820 O   0  0  0  0  0  0  0  0  0  0  0  0
  188.2320  175.9660  143.2530 C   0  0  0  0  0  3  0  0  0  0  0  0
  189.3210  174.3410  141.9110 C   0  0  0  0  0  0  0  0  0  0  0  0
  189.2810  173.3730  140.8870 C   0  0  0  0  0  0  0  0  0  0  0  0
  194.9150  175.4830  145.9790 C   0  0  0  0  0  3  0  0  0  0  0  0
  195.8370  174.5100  145.7730 C   0  0  0  0  0  2  0  0  0  0  0  0
  188.0550  177.8630  145.4110 O   0  0  0  0  0  0  0  0  0  0  0  0
  187.2490  178.2520  147.8080 C   0  0  0  0  0  1  0  0  0  0  0  0
  186.9500  177.9220  146.3710 C   0  0  1  0  0  3  0  0  0  0  0  0
  184.8620  176.8200  146.0280 O   0  0  0  0  0  1  0  0  0  0  0  0
  185.4480  178.1050  146.0000 C   0  0  2  0  0  3  0  0  0  0  0  0
  185.2350  180.1240  144.2650 C   0  0  0  0  0  1  0  0  0  0  0  0
  185.3280  178.6480  144.5620 C   0  0  2  0  0  3  0  0  0  0  0  0
  184.6190  177.8000  143.6370 O   0  0  0  0  0  0  0  0  0  0  0  0
  184.5660  177.9670  142.2230 C   0  0  0  0  0  0  0  0  0  0  0  0
  185.5950  177.9060  141.4650 O   0  0  0  0  0  0  0  0  0  0  0  0
  183.2740  178.2360  141.6590 N   0  0  0  0  0  1  0  0  0  0  0  0
  1 11  2  0  0  0  0
  1  4  1  0  0  0  0
  2  1  1  0  0  0  0
  3  6  1  0  0  0  0
  4 12  1  0  0  0  0
  4 14  2  0  0  0  0
  5 19  1  6  0  0  0
  5 15  1  0  0  0  0
  6  2  2  0  0  0  0
  7 21  1  0  0  0  0
  7 10  2  0  0  0  0
  8 16  2  0  0  0  0
  9 18  1  0  0  0  0
  9  3  2  0  0  0  0
 11  7  1  0  0  0  0
 12  5  1  0  0  0  0
 13 18  1  0  0  0  0
 14 10  1  0  0  0  0
 14 15  1  0  0  0  0
 16 11  1  0  0  0  0
 17  8  1  0  0  0  0
 17  2  1  0  0  0  0
 18 17  2  0  0  0  0
 20 19  2  0  0  0  0
 21 23  1  0  0  0  0
 23 22  1  1  0  0  0
 25 24  1  6  0  0  0
 25 23  1  0  0  0  0
 27 26  1  1  0  0  0
 27 25  1  0  0  0  0
 28 27  1  0  0  0  0
 29 28  1  0  0  0  0
 30 29  2  0  0  0  0
 31 29  1  0  0  0  0
M  END
>  <MODEL>
9

>  <REMARK>
 VINA RESULT:      -6.7      2.171      3.288
  Name = 
  7 active torsions:
  status: ('A' for Active; 'I' for Inactive)
    1  A    between atoms: C_1  and  O_24
    2  A    between atoms: C_2  and  C_13
    3  A    between atoms: C_9  and  C_22
    4  A    between atoms: C_9  and  O_23
    5  A    between atoms: C_15  and  O_23
    6  A    between atoms: C_19  and  C_22
    7  A    between atoms: C_19  and  O_24
                            x       y       z     vdW  Elec       q    Type
                         _______ _______ _______ _____ _____    ______ ____

>  <TORSDO>
F 7

$$$$
