=
 OpenBabel11052419023D

 34 38  0  0  1  0  0  0  0  0999 V2000
  185.3340  177.6910  144.1210 C   0  0  0  0  0  0  0  0  0  0  0  0
  186.0910  177.4490  146.4130 C   0  0  0  0  0  0  0  0  0  0  0  0
  187.4660  176.5340  144.5020 C   0  0  0  0  0  0  0  0  0  0  0  0
  189.7070  175.5530  144.6730 C   0  0  0  0  0  0  0  0  0  0  0  0
  184.2830  178.5000  144.5570 C   0  0  0  0  0  3  0  0  0  0  0  0
  185.0370  178.2660  146.8320 C   0  0  0  0  0  3  0  0  0  0  0  0
  189.1170  177.4190  146.2340 C   0  0  0  0  0  2  0  0  0  0  0  0
  186.3350  177.2450  145.0260 C   0  0  0  0  0  0  0  0  0  0  0  0
  190.1660  176.8780  147.1950 C   0  0  0  0  0  2  0  0  0  0  0  0
  190.9710  175.2510  145.4290 C   0  0  0  0  0  2  0  0  0  0  0  0
  184.1520  178.8140  145.9060 C   0  0  0  0  0  3  0  0  0  0  0  0
  187.3790  176.0060  143.1770 C   0  0  0  0  0  0  0  0  0  0  0  0
  185.3450  177.2800  142.7940 C   0  0  0  0  0  3  0  0  0  0  0  0
  186.8060  176.7730  147.3950 O   0  0  0  0  0  1  0  0  0  0  0  0
  189.5190  174.9100  143.4570 C   0  0  0  0  0  3  0  0  0  0  0  0
  188.3830  175.1380  142.6800 C   0  0  0  0  0  0  0  0  0  0  0  0
  191.3630  176.3800  146.3880 C   0  0  2  0  0  3  0  0  0  0  0  0
  188.7080  176.4060  145.1900 C   0  0  0  0  0  0  0  0  0  0  0  0
  186.3340  176.4190  142.3400 C   0  0  0  0  0  3  0  0  0  0  0  0
  188.0800  174.5620  138.9420 C   0  0  0  0  0  0  0  0  0  0  0  0
  188.1870  173.1720  138.8610 C   0  0  0  0  0  3  0  0  0  0  0  0
  188.2920  174.4470  141.3650 C   0  0  0  0  0  0  0  0  0  0  0  0
  188.3530  172.4170  140.0230 C   0  0  0  0  0  3  0  0  0  0  0  0
  188.1370  175.1960  140.1870 C   0  0  0  0  0  3  0  0  0  0  0  0
  188.4100  173.0510  141.2670 C   0  0  0  0  0  3  0  0  0  0  0  0
  187.9230  175.2970  137.8150 F   0  0  0  0  0  0  0  0  0  0  0  0
  192.4800  176.0620  147.1910 O   0  0  0  0  0  0  0  0  0  0  0  0
  193.4160  175.3490  146.4210 C   0  0  0  0  0  2  0  0  0  0  0  0
  194.5550  177.4070  146.8450 O   0  0  0  0  0  1  0  0  0  0  0  0
  194.5920  176.2480  146.0680 C   0  0  2  0  0  3  0  0  0  0  0  0
  194.6200  176.5980  144.5790 C   0  0  0  0  0  2  0  0  0  0  0  0
  196.8000  176.9840  143.4210 O   0  0  0  0  0  0  0  0  0  0  0  0
  195.8460  176.0910  143.8910 C   0  0  0  0  0  0  0  0  0  0  0  0
  196.0260  174.8540  143.7560 O   0  0  0  0  0  1  0  0  0  0  0  0
  1  5  2  0  0  0  0
  1  8  1  0  0  0  0
  2  6  1  0  0  0  0
  2 14  1  0  0  0  0
  3  8  1  0  0  0  0
  3 18  1  0  0  0  0
  4 18  2  0  0  0  0
  4 10  1  0  0  0  0
  5 11  1  0  0  0  0
  7  9  1  0  0  0  0
  8  2  2  0  0  0  0
 10 17  1  0  0  0  0
 11  6  2  0  0  0  0
 12  3  2  0  0  0  0
 13  1  1  0  0  0  0
 15  4  1  0  0  0  0
 16 12  1  0  0  0  0
 16 15  2  0  0  0  0
 17 27  1  1  0  0  0
 17  9  1  0  0  0  0
 18  7  1  0  0  0  0
 19 13  2  0  0  0  0
 19 12  1  0  0  0  0
 20 24  1  0  0  0  0
 21 20  2  0  0  0  0
 21 23  1  0  0  0  0
 22 16  1  0  0  0  0
 23 25  2  0  0  0  0
 24 22  2  0  0  0  0
 25 22  1  0  0  0  0
 26 20  1  0  0  0  0
 28 27  1  0  0  0  0
 30 28  1  0  0  0  0
 30 29  1  1  0  0  0
 31 30  1  0  0  0  0
 32 33  2  0  0  0  0
 33 31  1  0  0  0  0
 34 33  1  0  0  0  0
M  END
>  <MODEL>
1

>  <REMARK>
 VINA RESULT:      -8.7      0.000      0.000
  Name = 
  6 active torsions:
  status: ('A' for Active; 'I' for Inactive)
    1  A    between atoms: O_3  and  C_13
    2  A    between atoms: O_3  and  C_29
    3  A    between atoms: C_12  and  C_28
    4  A    between atoms: C_13  and  C_33
    5  A    between atoms: C_20  and  C_22
    6  A    between atoms: C_22  and  C_33
                            x       y       z     vdW  Elec       q    Type
                         _______ _______ _______ _____ _____    ______ ____

>  <TORSDO>
F 6

$$$$
=
 OpenBabel11052419023D

 34 38  0  0  1  0  0  0  0  0999 V2000
  191.4400  176.1470  146.0300 C   0  0  0  0  0  0  0  0  0  0  0  0
  191.8600  174.0060  144.9700 C   0  0  0  0  0  0  0  0  0  0  0  0
  189.8280  175.3710  144.3480 C   0  0  0  0  0  0  0  0  0  0  0  0
  188.2400  174.8640  142.5490 C   0  0  0  0  0  0  0  0  0  0  0  0
  192.6820  176.0730  146.6640 C   0  0  0  0  0  3  0  0  0  0  0  0
  193.1030  173.9510  145.6080 C   0  0  0  0  0  3  0  0  0  0  0  0
  190.6440  174.2560  142.2050 C   0  0  0  0  0  2  0  0  0  0  0  0
  191.0510  175.1730  145.0710 C   0  0  0  0  0  0  0  0  0  0  0  0
  190.1800  173.1910  141.2210 C   0  0  0  0  0  2  0  0  0  0  0  0
  187.8160  174.0950  141.3300 C   0  0  0  0  0  2  0  0  0  0  0  0
  193.5260  174.9930  146.4290 C   0  0  0  0  0  3  0  0  0  0  0  0
  188.8940  176.3300  144.8500 C   0  0  0  0  0  0  0  0  0  0  0  0
  190.5670  177.1620  146.4030 C   0  0  0  0  0  3  0  0  0  0  0  0
  191.4150  172.8520  144.3350 O   0  0  0  0  0  1  0  0  0  0  0  0
  187.2890  175.6710  143.1600 C   0  0  0  0  0  3  0  0  0  0  0  0
  187.5950  176.4300  144.2900 C   0  0  0  0  0  0  0  0  0  0  0  0
  188.9990  173.7390  140.4220 C   0  0  2  0  0  3  0  0  0  0  0  0
  189.5310  174.7380  143.1070 C   0  0  0  0  0  0  0  0  0  0  0  0
  189.2970  177.2270  145.8460 C   0  0  0  0  0  3  0  0  0  0  0  0
  185.3000  179.4100  144.7930 C   0  0  0  0  0  0  0  0  0  0  0  0
  184.4770  178.9610  145.8280 C   0  0  0  0  0  3  0  0  0  0  0  0
  186.5290  177.3080  144.8440 C   0  0  0  0  0  0  0  0  0  0  0  0
  184.6700  177.6880  146.3690 C   0  0  0  0  0  3  0  0  0  0  0  0
  186.3170  178.5860  144.3010 C   0  0  0  0  0  3  0  0  0  0  0  0
  185.6870  176.8660  145.8770 C   0  0  0  0  0  3  0  0  0  0  0  0
  185.1120  180.6420  144.2620 F   0  0  0  0  0  0  0  0  0  0  0  0
  188.6350  172.9150  139.3340 O   0  0  0  0  0  0  0  0  0  0  0  0
  188.2290  173.7230  138.2570 C   0  0  0  0  0  2  0  0  0  0  0  0
  188.9470  174.5190  136.1220 O   0  0  0  0  0  1  0  0  0  0  0  0
  189.4020  173.9670  137.3200 C   0  0  2  0  0  3  0  0  0  0  0  0
  190.2010  172.6900  137.0550 C   0  0  0  0  0  2  0  0  0  0  0  0
  192.4680  171.6990  137.3970 O   0  0  0  0  0  0  0  0  0  0  0  0
  191.5940  172.7600  137.5920 C   0  0  0  0  0  0  0  0  0  0  0  0
  191.9840  173.7890  138.2010 O   0  0  0  0  0  1  0  0  0  0  0  0
  1 13  1  0  0  0  0
  1  5  2  0  0  0  0
  2  8  2  0  0  0  0
  2  6  1  0  0  0  0
  3 12  1  0  0  0  0
  3  8  1  0  0  0  0
  4 18  1  0  0  0  0
  4 15  2  0  0  0  0
  6 11  2  0  0  0  0
  7 18  1  0  0  0  0
  8  1  1  0  0  0  0
  9  7  1  0  0  0  0
 10  4  1  0  0  0  0
 11  5  1  0  0  0  0
 12 19  1  0  0  0  0
 14  2  1  0  0  0  0
 15 16  1  0  0  0  0
 16 22  1  0  0  0  0
 16 12  2  0  0  0  0
 17 27  1  6  0  0  0
 17  9  1  0  0  0  0
 17 10  1  0  0  0  0
 18  3  2  0  0  0  0
 19 13  2  0  0  0  0
 20 21  1  0  0  0  0
 21 23  2  0  0  0  0
 22 25  2  0  0  0  0
 24 20  2  0  0  0  0
 24 22  1  0  0  0  0
 25 23  1  0  0  0  0
 26 20  1  0  0  0  0
 28 27  1  0  0  0  0
 30 29  1  6  0  0  0
 30 28  1  0  0  0  0
 31 30  1  0  0  0  0
 31 33  1  0  0  0  0
 32 33  2  0  0  0  0
 33 34  1  0  0  0  0
M  END
>  <MODEL>
2

>  <REMARK>
 VINA RESULT:      -8.4      3.614      7.361
  Name = 
  6 active torsions:
  status: ('A' for Active; 'I' for Inactive)
    1  A    between atoms: O_3  and  C_13
    2  A    between atoms: O_3  and  C_29
    3  A    between atoms: C_12  and  C_28
    4  A    between atoms: C_13  and  C_33
    5  A    between atoms: C_20  and  C_22
    6  A    between atoms: C_22  and  C_33
                            x       y       z     vdW  Elec       q    Type
                         _______ _______ _______ _____ _____    ______ ____

>  <TORSDO>
F 6

$$$$
=
 OpenBabel11052419023D

 34 38  0  0  1  0  0  0  0  0999 V2000
  191.3720  176.2120  146.1080 C   0  0  0  0  0  0  0  0  0  0  0  0
  191.8780  174.1270  144.9760 C   0  0  0  0  0  0  0  0  0  0  0  0
  189.8370  175.4730  144.3400 C   0  0  0  0  0  0  0  0  0  0  0  0
  188.3250  175.0070  142.4660 C   0  0  0  0  0  0  0  0  0  0  0  0
  192.5930  176.1390  146.7820 C   0  0  0  0  0  3  0  0  0  0  0  0
  193.0990  174.0720  145.6550 C   0  0  0  0  0  3  0  0  0  0  0  0
  190.7530  174.4660  142.1820 C   0  0  0  0  0  2  0  0  0  0  0  0
  191.0390  175.2700  145.0970 C   0  0  0  0  0  0  0  0  0  0  0  0
  190.3480  173.4330  141.1400 C   0  0  0  0  0  2  0  0  0  0  0  0
  187.9610  174.2800  141.2020 C   0  0  0  0  0  2  0  0  0  0  0  0
  193.4690  175.0880  146.5330 C   0  0  0  0  0  3  0  0  0  0  0  0
  188.8640  176.3880  144.8470 C   0  0  0  0  0  0  0  0  0  0  0  0
  190.4630  177.1900  146.4910 C   0  0  0  0  0  3  0  0  0  0  0  0
  191.4820  172.9910  144.2790 O   0  0  0  0  0  1  0  0  0  0  0  0
  187.3350  175.7660  143.0760 C   0  0  0  0  0  3  0  0  0  0  0  0
  187.5840  176.4840  144.2460 C   0  0  0  0  0  0  0  0  0  0  0  0
  189.1820  173.9890  140.3230 C   0  0  2  0  0  3  0  0  0  0  0  0
  189.5990  174.8860  143.0630 C   0  0  0  0  0  0  0  0  0  0  0  0
  189.2130  177.2510  145.8930 C   0  0  0  0  0  3  0  0  0  0  0  0
  185.1540  179.3560  144.7370 C   0  0  0  0  0  0  0  0  0  0  0  0
  184.3550  178.8750  145.7770 C   0  0  0  0  0  3  0  0  0  0  0  0
  186.4800  177.3140  144.7980 C   0  0  0  0  0  0  0  0  0  0  0  0
  184.6080  177.6160  146.3260 C   0  0  0  0  0  3  0  0  0  0  0  0
  186.2070  178.5780  144.2470 C   0  0  0  0  0  3  0  0  0  0  0  0
  185.6620  176.8390  145.8360 C   0  0  0  0  0  3  0  0  0  0  0  0
  184.9070  180.5750  144.2000 F   0  0  0  0  0  0  0  0  0  0  0  0
  188.8750  173.2040  139.1900 O   0  0  0  0  0  0  0  0  0  0  0  0
  189.8990  173.3470  138.2360 C   0  0  0  0  0  2  0  0  0  0  0  0
  189.3950  172.0710  136.2790 O   0  0  0  0  0  1  0  0  0  0  0  0
  190.0960  172.0390  137.4850 C   0  0  2  0  0  3  0  0  0  0  0  0
  189.6760  170.8280  138.3200 C   0  0  0  0  0  2  0  0  0  0  0  0
  190.7090  169.9600  140.4220 O   0  0  0  0  0  1  0  0  0  0  0  0
  190.8190  170.2140  139.0610 C   0  0  0  0  0  0  0  0  0  0  0  0
  191.8730  169.9050  138.4500 O   0  0  0  0  0  0  0  0  0  0  0  0
  1 13  1  0  0  0  0
  1  5  2  0  0  0  0
  2  8  2  0  0  0  0
  2  6  1  0  0  0  0
  3 12  1  0  0  0  0
  3  8  1  0  0  0  0
  4 18  1  0  0  0  0
  4 15  2  0  0  0  0
  6 11  2  0  0  0  0
  7 18  1  0  0  0  0
  8  1  1  0  0  0  0
  9  7  1  0  0  0  0
 10  4  1  0  0  0  0
 11  5  1  0  0  0  0
 12 19  1  0  0  0  0
 14  2  1  0  0  0  0
 15 16  1  0  0  0  0
 16 22  1  0  0  0  0
 16 12  2  0  0  0  0
 17 27  1  6  0  0  0
 17  9  1  0  0  0  0
 17 10  1  0  0  0  0
 18  3  2  0  0  0  0
 19 13  2  0  0  0  0
 20 21  1  0  0  0  0
 21 23  2  0  0  0  0
 22 25  2  0  0  0  0
 24 20  2  0  0  0  0
 24 22  1  0  0  0  0
 25 23  1  0  0  0  0
 26 20  1  0  0  0  0
 28 27  1  0  0  0  0
 30 29  1  6  0  0  0
 30 28  1  0  0  0  0
 30 31  1  0  0  0  0
 31 33  1  0  0  0  0
 33 32  1  0  0  0  0
 34 33  2  0  0  0  0
M  END
>  <MODEL>
3

>  <REMARK>
 VINA RESULT:      -8.4      3.693      7.445
  Name = 
  6 active torsions:
  status: ('A' for Active; 'I' for Inactive)
    1  A    between atoms: O_3  and  C_13
    2  A    between atoms: O_3  and  C_29
    3  A    between atoms: C_12  and  C_28
    4  A    between atoms: C_13  and  C_33
    5  A    between atoms: C_20  and  C_22
    6  A    between atoms: C_22  and  C_33
                            x       y       z     vdW  Elec       q    Type
                         _______ _______ _______ _____ _____    ______ ____

>  <TORSDO>
F 6

$$$$
=
 OpenBabel11052419023D

 34 38  0  0  1  0  0  0  0  0999 V2000
  191.3850  176.2770  146.0250 C   0  0  0  0  0  0  0  0  0  0  0  0
  191.9840  174.2170  144.8910 C   0  0  0  0  0  0  0  0  0  0  0  0
  190.0250  175.6000  144.0960 C   0  0  0  0  0  0  0  0  0  0  0  0
  188.7000  175.2000  142.0710 C   0  0  0  0  0  0  0  0  0  0  0  0
  192.5330  176.1730  146.8130 C   0  0  0  0  0  3  0  0  0  0  0  0
  193.1320  174.1320  145.6840 C   0  0  0  0  0  3  0  0  0  0  0  0
  191.1400  174.6410  142.0110 C   0  0  0  0  0  2  0  0  0  0  0  0
  191.1460  175.3650  144.9610 C   0  0  0  0  0  0  0  0  0  0  0  0
  190.8310  173.6410  140.9070 C   0  0  0  0  0  2  0  0  0  0  0  0
  188.4560  174.5100  140.7580 C   0  0  0  0  0  2  0  0  0  0  0  0
  193.4220  175.1200  146.6220 C   0  0  0  0  0  3  0  0  0  0  0  0
  189.0140  176.5120  144.5300 C   0  0  0  0  0  0  0  0  0  0  0  0
  190.4510  177.2540  146.3440 C   0  0  0  0  0  3  0  0  0  0  0  0
  191.6490  173.1040  144.1280 O   0  0  0  0  0  1  0  0  0  0  0  0
  187.6610  175.9530  142.6020 C   0  0  0  0  0  3  0  0  0  0  0  0
  187.8000  176.6360  143.8100 C   0  0  0  0  0  0  0  0  0  0  0  0
  189.7550  174.2300  139.9950 C   0  0  2  0  0  3  0  0  0  0  0  0
  189.9080  175.0490  142.7870 C   0  0  0  0  0  0  0  0  0  0  0  0
  189.2650  177.3430  145.6290 C   0  0  0  0  0  3  0  0  0  0  0  0
  184.8160  177.8220  145.8320 C   0  0  0  0  0  0  0  0  0  0  0  0
  184.5220  179.0400  145.2150 C   0  0  0  0  0  3  0  0  0  0  0  0
  186.6530  177.4630  144.2740 C   0  0  0  0  0  0  0  0  0  0  0  0
  185.2920  179.4770  144.1340 C   0  0  0  0  0  3  0  0  0  0  0  0
  185.8780  177.0410  145.3680 C   0  0  0  0  0  3  0  0  0  0  0  0
  186.3530  178.6950  143.6700 C   0  0  0  0  0  3  0  0  0  0  0  0
  184.0740  177.3990  146.8840 F   0  0  0  0  0  0  0  0  0  0  0  0
  189.5540  173.4780  138.8160 O   0  0  0  0  0  0  0  0  0  0  0  0
  188.1950  173.5290  138.4610 C   0  0  0  0  0  2  0  0  0  0  0  0
  189.2680  174.5320  136.5760 O   0  0  0  0  0  1  0  0  0  0  0  0
  188.0240  174.3150  137.1690 C   0  0  2  0  0  3  0  0  0  0  0  0
  187.2970  175.6410  137.3950 C   0  0  0  0  0  2  0  0  0  0  0  0
  187.8250  177.3460  135.6470 O   0  0  0  0  0  1  0  0  0  0  0  0
  186.9800  176.3500  136.1180 C   0  0  0  0  0  0  0  0  0  0  0  0
  185.9610  176.0290  135.4550 O   0  0  0  0  0  0  0  0  0  0  0  0
  1 13  1  0  0  0  0
  1  5  2  0  0  0  0
  2  8  2  0  0  0  0
  2  6  1  0  0  0  0
  3 12  1  0  0  0  0
  3  8  1  0  0  0  0
  4 15  2  0  0  0  0
  4 18  1  0  0  0  0
  6 11  2  0  0  0  0
  7 18  1  0  0  0  0
  8  1  1  0  0  0  0
  9  7  1  0  0  0  0
 10  4  1  0  0  0  0
 11  5  1  0  0  0  0
 12 19  1  0  0  0  0
 14  2  1  0  0  0  0
 15 16  1  0  0  0  0
 16 22  1  0  0  0  0
 16 12  2  0  0  0  0
 17 27  1  6  0  0  0
 17 10  1  0  0  0  0
 17  9  1  0  0  0  0
 18  3  2  0  0  0  0
 19 13  2  0  0  0  0
 20 26  1  0  0  0  0
 21 20  2  0  0  0  0
 22 24  2  0  0  0  0
 23 21  1  0  0  0  0
 24 20  1  0  0  0  0
 25 23  2  0  0  0  0
 25 22  1  0  0  0  0
 28 27  1  0  0  0  0
 30 29  1  1  0  0  0
 30 31  1  0  0  0  0
 30 28  1  0  0  0  0
 32 33  1  0  0  0  0
 33 31  1  0  0  0  0
 34 33  2  0  0  0  0
M  END
>  <MODEL>
4

>  <REMARK>
 VINA RESULT:      -8.2      4.279      7.892
  Name = 
  6 active torsions:
  status: ('A' for Active; 'I' for Inactive)
    1  A    between atoms: O_3  and  C_13
    2  A    between atoms: O_3  and  C_29
    3  A    between atoms: C_12  and  C_28
    4  A    between atoms: C_13  and  C_33
    5  A    between atoms: C_20  and  C_22
    6  A    between atoms: C_22  and  C_33
                            x       y       z     vdW  Elec       q    Type
                         _______ _______ _______ _____ _____    ______ ____

>  <TORSDO>
F 6

$$$$
=
 OpenBabel11052419023D

 34 38  0  0  1  0  0  0  0  0999 V2000
  191.3400  176.3790  145.8940 C   0  0  0  0  0  0  0  0  0  0  0  0
  191.8900  174.2210  144.9320 C   0  0  0  0  0  0  0  0  0  0  0  0
  189.9000  175.5320  144.0940 C   0  0  0  0  0  0  0  0  0  0  0  0
  188.4910  174.9510  142.1730 C   0  0  0  0  0  0  0  0  0  0  0  0
  192.5200  176.3450  146.6390 C   0  0  0  0  0  3  0  0  0  0  0  0
  193.0710  174.2060  145.6810 C   0  0  0  0  0  3  0  0  0  0  0  0
  190.9260  174.3800  142.0630 C   0  0  0  0  0  2  0  0  0  0  0  0
  191.0560  175.3740  144.9300 C   0  0  0  0  0  0  0  0  0  0  0  0
  190.5710  173.2830  141.0700 C   0  0  0  0  0  2  0  0  0  0  0  0
  188.1920  174.1440  140.9410 C   0  0  0  0  0  2  0  0  0  0  0  0
  193.4000  175.2750  146.5090 C   0  0  0  0  0  3  0  0  0  0  0  0
  188.9080  176.4840  144.4840 C   0  0  0  0  0  0  0  0  0  0  0  0
  190.4200  177.3860  146.1600 C   0  0  0  0  0  3  0  0  0  0  0  0
  191.5230  173.0440  144.2900 O   0  0  0  0  0  1  0  0  0  0  0  0
  187.4750  175.7540  142.6750 C   0  0  0  0  0  3  0  0  0  0  0  0
  187.6650  176.5460  143.8070 C   0  0  0  0  0  0  0  0  0  0  0  0
  189.4570  173.7880  140.1530 C   0  0  2  0  0  3  0  0  0  0  0  0
  189.7280  174.8630  142.8480 C   0  0  0  0  0  0  0  0  0  0  0  0
  189.2050  177.4130  145.4890 C   0  0  0  0  0  3  0  0  0  0  0  0
  184.7320  177.8950  145.8020 C   0  0  0  0  0  0  0  0  0  0  0  0
  184.4470  179.0800  145.1200 C   0  0  0  0  0  3  0  0  0  0  0  0
  186.5380  177.4170  144.2400 C   0  0  0  0  0  0  0  0  0  0  0  0
  185.2060  179.4420  144.0050 C   0  0  0  0  0  3  0  0  0  0  0  0
  185.7740  177.0710  145.3670 C   0  0  0  0  0  3  0  0  0  0  0  0
  186.2480  178.6170  143.5710 C   0  0  0  0  0  3  0  0  0  0  0  0
  184.0000  177.5450  146.8870 F   0  0  0  0  0  0  0  0  0  0  0  0
  189.2070  172.9320  139.0590 O   0  0  0  0  0  0  0  0  0  0  0  0
  189.0970  173.6990  137.8860 C   0  0  0  0  0  2  0  0  0  0  0  0
  189.3160  171.8250  136.4200 O   0  0  0  0  0  1  0  0  0  0  0  0
  189.8910  173.0490  136.7630 C   0  0  2  0  0  3  0  0  0  0  0  0
  191.3640  172.8680  137.1310 C   0  0  0  0  0  2  0  0  0  0  0  0
  191.9580  175.1930  136.4360 O   0  0  0  0  0  0  0  0  0  0  0  0
  192.0640  174.1670  137.3670 C   0  0  0  0  0  0  0  0  0  0  0  0
  192.7300  174.3430  138.4190 O   0  0  0  0  0  1  0  0  0  0  0  0
  1 13  1  0  0  0  0
  1  5  2  0  0  0  0
  2  6  1  0  0  0  0
  3 12  1  0  0  0  0
  3  8  1  0  0  0  0
  4 15  2  0  0  0  0
  4 18  1  0  0  0  0
  6 11  2  0  0  0  0
  7 18  1  0  0  0  0
  8  2  2  0  0  0  0
  8  1  1  0  0  0  0
  9  7  1  0  0  0  0
 10  4  1  0  0  0  0
 11  5  1  0  0  0  0
 12 19  1  0  0  0  0
 14  2  1  0  0  0  0
 15 16  1  0  0  0  0
 16 22  1  0  0  0  0
 16 12  2  0  0  0  0
 17 27  1  6  0  0  0
 17 10  1  0  0  0  0
 17  9  1  0  0  0  0
 18  3  2  0  0  0  0
 19 13  2  0  0  0  0
 20 26  1  0  0  0  0
 21 20  2  0  0  0  0
 22 24  2  0  0  0  0
 23 21  1  0  0  0  0
 24 20  1  0  0  0  0
 25 23  2  0  0  0  0
 25 22  1  0  0  0  0
 28 27  1  0  0  0  0
 30 29  1  1  0  0  0
 30 31  1  0  0  0  0
 30 28  1  0  0  0  0
 31 33  1  0  0  0  0
 32 33  2  0  0  0  0
 33 34  1  0  0  0  0
M  END
>  <MODEL>
5

>  <REMARK>
 VINA RESULT:      -8.2      3.765      7.325
  Name = 
  6 active torsions:
  status: ('A' for Active; 'I' for Inactive)
    1  A    between atoms: O_3  and  C_13
    2  A    between atoms: O_3  and  C_29
    3  A    between atoms: C_12  and  C_28
    4  A    between atoms: C_13  and  C_33
    5  A    between atoms: C_20  and  C_22
    6  A    between atoms: C_22  and  C_33
                            x       y       z     vdW  Elec       q    Type
                         _______ _______ _______ _____ _____    ______ ____

>  <TORSDO>
F 6

$$$$
=
 OpenBabel11052419023D

 34 38  0  0  1  0  0  0  0  0999 V2000
  186.5930  176.5410  144.4580 C   0  0  0  0  0  0  0  0  0  0  0  0
  187.9770  176.3650  146.4430 C   0  0  0  0  0  0  0  0  0  0  0  0
  188.9040  175.7630  144.1710 C   0  0  0  0  0  0  0  0  0  0  0  0
  191.2330  175.1830  143.6670 C   0  0  0  0  0  0  0  0  0  0  0  0
  185.5870  177.1410  145.2170 C   0  0  0  0  0  3  0  0  0  0  0  0
  186.9620  176.9720  147.1870 C   0  0  0  0  0  3  0  0  0  0  0  0
  190.8020  176.8690  145.4670 C   0  0  0  0  0  2  0  0  0  0  0  0
  187.8620  176.2490  145.0290 C   0  0  0  0  0  0  0  0  0  0  0  0
  192.1470  176.4900  146.0720 C   0  0  0  0  0  2  0  0  0  0  0  0
  192.6870  175.0830  144.0360 C   0  0  0  0  0  2  0  0  0  0  0  0
  185.7820  177.3850  146.5730 C   0  0  0  0  0  3  0  0  0  0  0  0
  188.5430  175.2690  142.8800 C   0  0  0  0  0  0  0  0  0  0  0  0
  186.3060  176.1800  143.1480 C   0  0  0  0  0  3  0  0  0  0  0  0
  189.0330  175.7950  147.1450 O   0  0  0  0  0  1  0  0  0  0  0  0
  190.8240  174.5550  142.4980 C   0  0  0  0  0  3  0  0  0  0  0  0
  189.4970  174.6050  142.0700 C   0  0  0  0  0  0  0  0  0  0  0  0
  193.1410  176.2330  144.9400 C   0  0  2  0  0  3  0  0  0  0  0  0
  190.2900  175.8320  144.4940 C   0  0  0  0  0  0  0  0  0  0  0  0
  187.2570  175.5190  142.3840 C   0  0  0  0  0  3  0  0  0  0  0  0
  188.1770  174.0720  138.5530 C   0  0  0  0  0  0  0  0  0  0  0  0
  188.5740  172.7580  138.2980 C   0  0  0  0  0  3  0  0  0  0  0  0
  189.1610  173.9500  140.7770 C   0  0  0  0  0  0  0  0  0  0  0  0
  189.2700  172.0380  139.2720 C   0  0  0  0  0  3  0  0  0  0  0  0
  188.4730  174.6660  139.7830 C   0  0  0  0  0  3  0  0  0  0  0  0
  189.5650  172.6330  140.5020 C   0  0  0  0  0  3  0  0  0  0  0  0
  187.5070  174.7730  137.6070 F   0  0  0  0  0  0  0  0  0  0  0  0
  194.4720  176.0910  145.3930 O   0  0  0  0  0  0  0  0  0  0  0  0
  195.3290  175.9830  144.2830 C   0  0  0  0  0  2  0  0  0  0  0  0
  196.4570  174.0300  143.4930 O   0  0  0  0  0  1  0  0  0  0  0  0
  196.3990  174.9370  144.5520 C   0  0  2  0  0  3  0  0  0  0  0  0
  196.1670  174.2050  145.8750 C   0  0  0  0  0  2  0  0  0  0  0  0
  196.9010  171.8200  145.7560 O   0  0  0  0  0  1  0  0  0  0  0  0
  195.8740  172.7520  145.6860 C   0  0  0  0  0  0  0  0  0  0  0  0
  194.6930  172.3680  145.4870 O   0  0  0  0  0  0  0  0  0  0  0  0
  1  8  1  0  0  0  0
  1  5  2  0  0  0  0
  2 14  1  0  0  0  0
  2  6  1  0  0  0  0
  3 18  1  0  0  0  0
  3  8  1  0  0  0  0
  4 10  1  0  0  0  0
  4 18  2  0  0  0  0
  5 11  1  0  0  0  0
  7  9  1  0  0  0  0
  8  2  2  0  0  0  0
 10 17  1  0  0  0  0
 11  6  2  0  0  0  0
 12  3  2  0  0  0  0
 13  1  1  0  0  0  0
 15  4  1  0  0  0  0
 16 15  2  0  0  0  0
 16 12  1  0  0  0  0
 17 27  1  1  0  0  0
 17  9  1  0  0  0  0
 18  7  1  0  0  0  0
 19 12  1  0  0  0  0
 19 13  2  0  0  0  0
 20 24  1  0  0  0  0
 21 20  2  0  0  0  0
 21 23  1  0  0  0  0
 22 16  1  0  0  0  0
 23 25  2  0  0  0  0
 24 22  2  0  0  0  0
 25 22  1  0  0  0  0
 26 20  1  0  0  0  0
 28 30  1  0  0  0  0
 28 27  1  0  0  0  0
 30 29  1  6  0  0  0
 30 31  1  0  0  0  0
 33 32  1  0  0  0  0
 33 31  1  0  0  0  0
 34 33  2  0  0  0  0
M  END
>  <MODEL>
6

>  <REMARK>
 VINA RESULT:      -7.8      1.635      2.393
  Name = 
  6 active torsions:
  status: ('A' for Active; 'I' for Inactive)
    1  A    between atoms: O_3  and  C_13
    2  A    between atoms: O_3  and  C_29
    3  A    between atoms: C_12  and  C_28
    4  A    between atoms: C_13  and  C_33
    5  A    between atoms: C_20  and  C_22
    6  A    between atoms: C_22  and  C_33
                            x       y       z     vdW  Elec       q    Type
                         _______ _______ _______ _____ _____    ______ ____

>  <TORSDO>
F 6

$$$$
=
 OpenBabel11052419023D

 34 38  0  0  1  0  0  0  0  0999 V2000
  185.0840  178.2140  144.1390 C   0  0  0  0  0  0  0  0  0  0  0  0
  185.8370  177.3370  146.2720 C   0  0  0  0  0  0  0  0  0  0  0  0
  187.1380  176.8690  144.1570 C   0  0  0  0  0  0  0  0  0  0  0  0
  189.3100  175.7400  144.0150 C   0  0  0  0  0  0  0  0  0  0  0  0
  184.0910  178.9450  144.7940 C   0  0  0  0  0  3  0  0  0  0  0  0
  184.8420  178.0800  146.9120 C   0  0  0  0  0  3  0  0  0  0  0  0
  188.8530  177.1680  146.0200 C   0  0  0  0  0  2  0  0  0  0  0  0
  186.0590  177.4870  144.8740 C   0  0  0  0  0  0  0  0  0  0  0  0
  189.8700  176.3310  146.7840 C   0  0  0  0  0  2  0  0  0  0  0  0
  190.5560  175.1730  144.6380 C   0  0  0  0  0  2  0  0  0  0  0  0
  183.9900  178.9040  146.1810 C   0  0  0  0  0  3  0  0  0  0  0  0
  187.0080  176.7110  142.7420 C   0  0  0  0  0  0  0  0  0  0  0  0
  185.0600  178.1640  142.7510 C   0  0  0  0  0  3  0  0  0  0  0  0
  186.5130  176.3860  147.0270 O   0  0  0  0  0  1  0  0  0  0  0  0
  189.0730  175.4490  142.6790 C   0  0  0  0  0  3  0  0  0  0  0  0
  187.9490  175.9410  142.0140 C   0  0  0  0  0  0  0  0  0  0  0  0
  191.0280  175.9870  145.8470 C   0  0  2  0  0  3  0  0  0  0  0  0
  188.3720  176.4890  144.7590 C   0  0  0  0  0  0  0  0  0  0  0  0
  185.9870  177.3910  142.0660 C   0  0  0  0  0  3  0  0  0  0  0  0
  188.1910  174.1110  138.7000 C   0  0  0  0  0  0  0  0  0  0  0  0
  187.4890  174.9680  137.8510 C   0  0  0  0  0  3  0  0  0  0  0  0
  187.8050  175.6250  140.5670 C   0  0  0  0  0  0  0  0  0  0  0  0
  186.9370  176.1490  138.3540 C   0  0  0  0  0  3  0  0  0  0  0  0
  188.3450  174.4350  140.0510 C   0  0  0  0  0  3  0  0  0  0  0  0
  187.0910  176.4720  139.7050 C   0  0  0  0  0  3  0  0  0  0  0  0
  188.7230  172.9630  138.2150 F   0  0  0  0  0  0  0  0  0  0  0  0
  192.1270  175.4020  146.5140 O   0  0  0  0  0  0  0  0  0  0  0  0
  193.0900  176.3930  146.7750 C   0  0  0  0  0  2  0  0  0  0  0  0
  194.3720  176.7910  144.7980 O   0  0  0  0  0  1  0  0  0  0  0  0
  194.3670  176.0920  146.0050 C   0  0  2  0  0  3  0  0  0  0  0  0
  194.5500  174.5930  145.7600 C   0  0  0  0  0  2  0  0  0  0  0  0
  196.9450  174.5580  145.0520 O   0  0  0  0  0  1  0  0  0  0  0  0
  195.6140  174.2990  144.7530 C   0  0  0  0  0  0  0  0  0  0  0  0
  195.3090  173.7960  143.6410 O   0  0  0  0  0  0  0  0  0  0  0  0
  1  5  2  0  0  0  0
  1  8  1  0  0  0  0
  2  6  1  0  0  0  0
  2 14  1  0  0  0  0
  3 18  1  0  0  0  0
  3  8  1  0  0  0  0
  4 10  1  0  0  0  0
  4 18  2  0  0  0  0
  5 11  1  0  0  0  0
  7  9  1  0  0  0  0
  8  2  2  0  0  0  0
 10 17  1  0  0  0  0
 11  6  2  0  0  0  0
 12  3  2  0  0  0  0
 13  1  1  0  0  0  0
 15  4  1  0  0  0  0
 16 15  2  0  0  0  0
 16 12  1  0  0  0  0
 17 27  1  1  0  0  0
 17  9  1  0  0  0  0
 18  7  1  0  0  0  0
 19 12  1  0  0  0  0
 19 13  2  0  0  0  0
 20 24  1  0  0  0  0
 21 23  1  0  0  0  0
 21 20  2  0  0  0  0
 22 16  1  0  0  0  0
 23 25  2  0  0  0  0
 24 22  2  0  0  0  0
 25 22  1  0  0  0  0
 26 20  1  0  0  0  0
 27 28  1  0  0  0  0
 30 29  1  6  0  0  0
 30 28  1  0  0  0  0
 31 30  1  0  0  0  0
 33 32  1  0  0  0  0
 33 31  1  0  0  0  0
 34 33  2  0  0  0  0
M  END
>  <MODEL>
7

>  <REMARK>
 VINA RESULT:      -7.8      1.196      1.585
  Name = 
  6 active torsions:
  status: ('A' for Active; 'I' for Inactive)
    1  A    between atoms: O_3  and  C_13
    2  A    between atoms: O_3  and  C_29
    3  A    between atoms: C_12  and  C_28
    4  A    between atoms: C_13  and  C_33
    5  A    between atoms: C_20  and  C_22
    6  A    between atoms: C_22  and  C_33
                            x       y       z     vdW  Elec       q    Type
                         _______ _______ _______ _____ _____    ______ ____

>  <TORSDO>
F 6

$$$$
=
 OpenBabel11052419023D

 34 38  0  0  1  0  0  0  0  0999 V2000
  192.1960  173.9520  144.3820 C   0  0  0  0  0  0  0  0  0  0  0  0
  191.5590  176.2230  144.9500 C   0  0  0  0  0  0  0  0  0  0  0  0
  190.4150  175.0020  143.0570 C   0  0  0  0  0  0  0  0  0  0  0  0
  188.4820  175.8040  141.7790 C   0  0  0  0  0  0  0  0  0  0  0  0
  193.0270  173.9080  145.5030 C   0  0  0  0  0  3  0  0  0  0  0  0
  192.3910  176.1600  146.0710 C   0  0  0  0  0  3  0  0  0  0  0  0
  188.6290  176.4190  144.2010 C   0  0  0  0  0  2  0  0  0  0  0  0
  191.3480  175.0680  144.1450 C   0  0  0  0  0  0  0  0  0  0  0  0
  187.7590  177.6290  143.8940 C   0  0  0  0  0  2  0  0  0  0  0  0
  187.3430  176.7580  141.5520 C   0  0  0  0  0  2  0  0  0  0  0  0
  193.1000  174.9980  146.3650 C   0  0  0  0  0  3  0  0  0  0  0  0
  190.6050  173.9940  142.0630 C   0  0  0  0  0  0  0  0  0  0  0  0
  192.2620  172.9070  143.4690 C   0  0  0  0  0  3  0  0  0  0  0  0
  191.0460  177.4670  144.6030 O   0  0  0  0  0  1  0  0  0  0  0  0
  188.7990  174.9290  140.7490 C   0  0  0  0  0  3  0  0  0  0  0  0
  189.8340  174.0010  140.8740 C   0  0  0  0  0  0  0  0  0  0  0  0
  186.7040  177.2290  142.8630 C   0  0  2  0  0  3  0  0  0  0  0  0
  189.2540  175.8220  142.9610 C   0  0  0  0  0  0  0  0  0  0  0  0
  191.5040  172.9480  142.3070 C   0  0  0  0  0  3  0  0  0  0  0  0
  191.2150  172.5310  137.6600 C   0  0  0  0  0  0  0  0  0  0  0  0
  190.5770  171.2890  137.6200 C   0  0  0  0  0  3  0  0  0  0  0  0
  190.0670  173.0660  139.7400 C   0  0  0  0  0  0  0  0  0  0  0  0
  189.6910  170.9270  138.6380 C   0  0  0  0  0  3  0  0  0  0  0  0
  190.9650  173.4120  138.7160 C   0  0  0  0  0  3  0  0  0  0  0  0
  189.4410  171.8090  139.6930 C   0  0  0  0  0  3  0  0  0  0  0  0
  192.0780  172.8810  136.6770 F   0  0  0  0  0  0  0  0  0  0  0  0
  185.7110  178.2150  142.6730 O   0  0  0  0  0  0  0  0  0  0  0  0
  184.6010  177.9160  143.4840 C   0  0  0  0  0  2  0  0  0  0  0  0
  185.2700  180.0740  144.2640 O   0  0  0  0  0  1  0  0  0  0  0  0
  184.2690  179.1080  144.3690 C   0  0  2  0  0  3  0  0  0  0  0  0
  184.0660  178.6990  145.8290 C   0  0  0  0  0  2  0  0  0  0  0  0
  185.3210  176.6000  146.3370 O   0  0  0  0  0  0  0  0  0  0  0  0
  185.2500  177.9850  146.3980 C   0  0  0  0  0  0  0  0  0  0  0  0
  186.1940  178.6390  146.9110 O   0  0  0  0  0  1  0  0  0  0  0  0
  1  5  2  0  0  0  0
  2  6  1  0  0  0  0
  3  8  1  0  0  0  0
  4 18  2  0  0  0  0
  5 11  1  0  0  0  0
  6 11  2  0  0  0  0
  8  1  1  0  0  0  0
  8  2  2  0  0  0  0
  9  7  1  0  0  0  0
 10  4  1  0  0  0  0
 10 17  1  0  0  0  0
 12 19  1  0  0  0  0
 12  3  2  0  0  0  0
 13  1  1  0  0  0  0
 14  2  1  0  0  0  0
 15 16  2  0  0  0  0
 15  4  1  0  0  0  0
 16 12  1  0  0  0  0
 17 27  1  6  0  0  0
 17  9  1  0  0  0  0
 18  3  1  0  0  0  0
 18  7  1  0  0  0  0
 19 13  2  0  0  0  0
 20 24  1  0  0  0  0
 21 20  2  0  0  0  0
 21 23  1  0  0  0  0
 22 16  1  0  0  0  0
 23 25  2  0  0  0  0
 24 22  2  0  0  0  0
 25 22  1  0  0  0  0
 26 20  1  0  0  0  0
 27 28  1  0  0  0  0
 28 30  1  0  0  0  0
 30 29  1  1  0  0  0
 30 31  1  0  0  0  0
 31 33  1  0  0  0  0
 32 33  2  0  0  0  0
 33 34  1  0  0  0  0
M  END
>  <MODEL>
8

>  <REMARK>
 VINA RESULT:      -7.7      2.402      6.907
  Name = 
  6 active torsions:
  status: ('A' for Active; 'I' for Inactive)
    1  A    between atoms: O_3  and  C_13
    2  A    between atoms: O_3  and  C_29
    3  A    between atoms: C_12  and  C_28
    4  A    between atoms: C_13  and  C_33
    5  A    between atoms: C_20  and  C_22
    6  A    between atoms: C_22  and  C_33
                            x       y       z     vdW  Elec       q    Type
                         _______ _______ _______ _____ _____    ______ ____

>  <TORSDO>
F 6

$$$$
=
 OpenBabel11052419023D

 34 38  0  0  1  0  0  0  0  0999 V2000
  187.5550  177.8360  144.2230 C   0  0  0  0  0  0  0  0  0  0  0  0
  187.0040  177.6130  141.8710 C   0  0  0  0  0  0  0  0  0  0  0  0
  188.9540  176.3480  142.8600 C   0  0  0  0  0  0  0  0  0  0  0  0
  190.3150  174.6610  141.7130 C   0  0  0  0  0  0  0  0  0  0  0  0
  186.3970  178.5910  144.4190 C   0  0  0  0  0  3  0  0  0  0  0  0
  185.8450  178.3650  142.0870 C   0  0  0  0  0  3  0  0  0  0  0  0
  187.8850  174.8090  141.1290 C   0  0  0  0  0  2  0  0  0  0  0  0
  187.8240  177.2250  142.9680 C   0  0  0  0  0  0  0  0  0  0  0  0
  188.2250  174.1970  139.7780 C   0  0  0  0  0  2  0  0  0  0  0  0
  190.5880  173.7340  140.5620 C   0  0  0  0  0  2  0  0  0  0  0  0
  185.5270  178.8280  143.3600 C   0  0  0  0  0  3  0  0  0  0  0  0
  189.9440  176.3910  143.8890 C   0  0  0  0  0  0  0  0  0  0  0  0
  188.4700  177.7470  145.2650 C   0  0  0  0  0  3  0  0  0  0  0  0
  187.3670  177.3590  140.5530 O   0  0  0  0  0  1  0  0  0  0  0  0
  191.3350  174.8560  142.6350 C   0  0  0  0  0  3  0  0  0  0  0  0
  191.1670  175.6900  143.7410 C   0  0  0  0  0  0  0  0  0  0  0  0
  189.3060  173.1350  139.9750 C   0  0  2  0  0  3  0  0  0  0  0  0
  189.0980  175.3670  141.8360 C   0  0  0  0  0  0  0  0  0  0  0  0
  189.6650  177.0650  145.0850 C   0  0  0  0  0  3  0  0  0  0  0  0
  194.1880  177.0400  145.5980 C   0  0  0  0  0  0  0  0  0  0  0  0
  194.3920  176.0520  146.5630 C   0  0  0  0  0  3  0  0  0  0  0  0
  192.2950  175.7950  144.7060 C   0  0  0  0  0  0  0  0  0  0  0  0
  193.5490  174.9400  146.6100 C   0  0  0  0  0  3  0  0  0  0  0  0
  193.1430  176.9150  144.6780 C   0  0  0  0  0  3  0  0  0  0  0  0
  192.5040  174.8150  145.6890 C   0  0  0  0  0  3  0  0  0  0  0  0
  195.0020  178.1230  145.5540 F   0  0  0  0  0  0  0  0  0  0  0  0
  189.5350  172.3550  138.8210 O   0  0  0  0  0  0  0  0  0  0  0  0
  188.8630  172.9350  137.7300 C   0  0  0  0  0  2  0  0  0  0  0  0
  189.3500  171.4760  135.9010 O   0  0  0  0  0  1  0  0  0  0  0  0
  189.6610  172.7190  136.4530 C   0  0  2  0  0  3  0  0  0  0  0  0
  191.1670  172.8410  136.6900 C   0  0  0  0  0  2  0  0  0  0  0  0
  192.5900  174.6300  137.6990 O   0  0  0  0  0  1  0  0  0  0  0  0
  191.6240  174.2620  136.7710 C   0  0  0  0  0  0  0  0  0  0  0  0
  191.1520  175.1220  135.9840 O   0  0  0  0  0  0  0  0  0  0  0  0
  1  5  1  0  0  0  0
  1 13  1  0  0  0  0
  2  6  2  0  0  0  0
  2  8  1  0  0  0  0
  3  8  1  0  0  0  0
  3 12  1  0  0  0  0
  4 18  1  0  0  0  0
  4 15  2  0  0  0  0
  6 11  1  0  0  0  0
  7 18  1  0  0  0  0
  8  1  2  0  0  0  0
  9 17  1  0  0  0  0
  9  7  1  0  0  0  0
 10  4  1  0  0  0  0
 11  5  2  0  0  0  0
 12 19  1  0  0  0  0
 14  2  1  0  0  0  0
 15 16  1  0  0  0  0
 16 12  2  0  0  0  0
 16 22  1  0  0  0  0
 17 27  1  6  0  0  0
 17 10  1  0  0  0  0
 18  3  2  0  0  0  0
 19 13  2  0  0  0  0
 20 21  1  0  0  0  0
 21 23  2  0  0  0  0
 22 25  2  0  0  0  0
 24 22  1  0  0  0  0
 24 20  2  0  0  0  0
 25 23  1  0  0  0  0
 26 20  1  0  0  0  0
 28 27  1  0  0  0  0
 30 29  1  1  0  0  0
 30 31  1  0  0  0  0
 30 28  1  0  0  0  0
 31 33  1  0  0  0  0
 33 32  1  0  0  0  0
 34 33  2  0  0  0  0
M  END
>  <MODEL>
9

>  <REMARK>
 VINA RESULT:      -7.6      4.115      7.057
  Name = 
  6 active torsions:
  status: ('A' for Active; 'I' for Inactive)
    1  A    between atoms: O_3  and  C_13
    2  A    between atoms: O_3  and  C_29
    3  A    between atoms: C_12  and  C_28
    4  A    between atoms: C_13  and  C_33
    5  A    between atoms: C_20  and  C_22
    6  A    between atoms: C_22  and  C_33
                            x       y       z     vdW  Elec       q    Type
                         _______ _______ _______ _____ _____    ______ ____

>  <TORSDO>
F 6

$$$$
