=
 OpenBabel11052417273D

 25 27  0  0  1  0  0  0  0  0999 V2000
  188.9780  175.7900  143.7110 C   0  0  0  0  0  0  0  0  0  0  0  0
  187.9550  176.7140  143.4050 C   0  0  0  0  0  0  0  0  0  0  0  0
  188.8190  174.9290  141.4520 C   0  0  0  0  0  3  0  0  0  0  0  0
  187.8340  175.8230  141.1750 N   0  0  0  0  0  0  0  0  0  0  0  0
  186.3620  177.6100  141.7860 C   0  0  0  0  0  0  0  0  0  0  0  0
  185.8010  177.6180  140.5150 O   0  0  0  0  0  1  0  0  0  0  0  0
  187.4690  177.6200  144.3580 C   0  0  0  0  0  3  0  0  0  0  0  0
  189.4030  174.8980  142.7180 C   0  0  0  0  0  3  0  0  0  0  0  0
  185.8950  178.5070  142.7500 C   0  0  0  0  0  3  0  0  0  0  0  0
  186.4430  178.5120  144.0350 C   0  0  0  0  0  0  0  0  0  0  0  0
  187.3880  176.7080  142.1060 C   0  0  0  0  0  0  0  0  0  0  0  0
  189.6350  175.7460  145.0400 C   0  0  0  0  0  0  0  0  0  0  0  0
  190.7680  175.6150  147.5810 C   0  0  0  0  0  3  0  0  0  0  0  0
  190.7610  176.5390  145.3530 C   0  0  0  0  0  0  0  0  0  0  0  0
  191.3250  176.4680  146.6270 C   0  0  0  0  0  3  0  0  0  0  0  0
  189.6840  174.8590  147.2680 N   0  0  0  0  0  0  0  0  0  0  0  0
  191.4020  177.4340  144.3450 C   0  0  0  0  0  1  0  0  0  0  0  0
  189.1140  174.9070  146.0360 C   0  0  0  0  0  3  0  0  0  0  0  0
  185.9360  179.4670  145.0680 C   0  0  0  0  0  2  0  0  0  0  0  0
  185.7760  178.8380  146.4580 C   0  0  1  0  0  3  0  0  0  0  0  0
  186.0160  179.7770  147.4650 O   0  0  0  0  0  1  0  0  0  0  0  0
  183.4650  178.6610  145.8370 F   0  0  0  0  0  0  0  0  0  0  0  0
  184.5630  176.7790  146.4320 F   0  0  0  0  0  0  0  0  0  0  0  0
  184.0350  178.3160  147.9860 F   0  0  0  0  0  0  0  0  0  0  0  0
  184.4340  178.1350  146.6740 C   0  0  0  0  0  0  0  0  0  0  0  0
  1 12  1  0  0  0  0
  2  1  1  0  0  0  0
  2  7  1  0  0  0  0
  3  8  1  0  0  0  0
  4  3  2  0  0  0  0
  4 11  1  0  0  0  0
  5 11  1  0  0  0  0
  5  9  2  0  0  0  0
  6  5  1  0  0  0  0
  8  1  2  0  0  0  0
  9 10  1  0  0  0  0
 10  7  2  0  0  0  0
 10 19  1  0  0  0  0
 11  2  2  0  0  0  0
 12 14  2  0  0  0  0
 12 18  1  0  0  0  0
 14 15  1  0  0  0  0
 15 13  2  0  0  0  0
 16 13  1  0  0  0  0
 17 14  1  0  0  0  0
 18 16  2  0  0  0  0
 19 20  1  0  0  0  0
 20 25  1  0  0  0  0
 20 21  1  1  0  0  0
 22 25  1  0  0  0  0
 23 25  1  0  0  0  0
 25 24  1  0  0  0  0
M  END
>  <MODEL>
1

>  <REMARK>
 VINA RESULT:      -7.9      0.000      0.000
  Name = 
  4 active torsions:
  status: ('A' for Active; 'I' for Inactive)
    1  A    between atoms: C_1  and  C_5
    2  A    between atoms: C_6  and  C_15
    3  A    between atoms: C_6  and  C_23
    4  A    between atoms: C_15  and  C_21
                            x       y       z     vdW  Elec       q    Type
                         _______ _______ _______ _____ _____    ______ ____

>  <TORSDO>
F 4

$$$$
=
 OpenBabel11052417273D

 25 27  0  0  1  0  0  0  0  0999 V2000
  187.8510  177.4450  142.1590 C   0  0  0  0  0  0  0  0  0  0  0  0
  186.6640  177.8970  142.7760 C   0  0  0  0  0  0  0  0  0  0  0  0
  186.6330  177.2160  140.0770 C   0  0  0  0  0  3  0  0  0  0  0  0
  185.4990  177.6500  140.6870 N   0  0  0  0  0  0  0  0  0  0  0  0
  184.2860  178.4250  142.6010 C   0  0  0  0  0  0  0  0  0  0  0  0
  183.1190  178.5260  141.8540 O   0  0  0  0  0  1  0  0  0  0  0  0
  186.6200  178.2320  144.1360 C   0  0  0  0  0  3  0  0  0  0  0  0
  187.8210  177.1070  140.8000 C   0  0  0  0  0  3  0  0  0  0  0  0
  184.2660  178.7570  143.9580 C   0  0  0  0  0  3  0  0  0  0  0  0
  185.4280  178.6590  144.7270 C   0  0  0  0  0  0  0  0  0  0  0  0
  185.4790  177.9900  142.0030 C   0  0  0  0  0  0  0  0  0  0  0  0
  189.1350  177.3390  142.8930 C   0  0  0  0  0  0  0  0  0  0  0  0
  191.5870  177.2370  144.2100 C   0  0  0  0  0  3  0  0  0  0  0  0
  189.5390  176.1520  143.5420 C   0  0  0  0  0  0  0  0  0  0  0  0
  190.7680  176.1080  144.2020 C   0  0  0  0  0  3  0  0  0  0  0  0
  191.1880  178.3730  143.5800 N   0  0  0  0  0  0  0  0  0  0  0  0
  188.6720  174.9380  143.5830 C   0  0  0  0  0  1  0  0  0  0  0  0
  189.9970  178.4450  142.9300 C   0  0  0  0  0  3  0  0  0  0  0  0
  185.4030  179.0070  146.1810 C   0  0  0  0  0  2  0  0  0  0  0  0
  186.4510  178.2540  147.0100 C   0  0  1  0  0  3  0  0  0  0  0  0
  186.6670  178.8850  148.2380 O   0  0  0  0  0  1  0  0  0  0  0  0
  186.1300  176.4430  148.5490 F   0  0  0  0  0  0  0  0  0  0  0  0
  184.9150  176.4590  146.6460 F   0  0  0  0  0  0  0  0  0  0  0  0
  187.1190  176.0180  146.5750 F   0  0  0  0  0  0  0  0  0  0  0  0
  186.1430  176.7680  147.2050 C   0  0  0  0  0  0  0  0  0  0  0  0
  1  2  1  0  0  0  0
  1 12  1  0  0  0  0
  2  7  1  0  0  0  0
  3  4  2  0  0  0  0
  3  8  1  0  0  0  0
  4 11  1  0  0  0  0
  5  9  2  0  0  0  0
  6  5  1  0  0  0  0
  7 10  2  0  0  0  0
  8  1  2  0  0  0  0
  9 10  1  0  0  0  0
 10 19  1  0  0  0  0
 11  5  1  0  0  0  0
 11  2  2  0  0  0  0
 12 18  2  0  0  0  0
 12 14  1  0  0  0  0
 14 17  1  0  0  0  0
 14 15  2  0  0  0  0
 15 13  1  0  0  0  0
 16 13  2  0  0  0  0
 18 16  1  0  0  0  0
 19 20  1  0  0  0  0
 20 25  1  0  0  0  0
 20 21  1  1  0  0  0
 23 25  1  0  0  0  0
 24 25  1  0  0  0  0
 25 22  1  0  0  0  0
M  END
>  <MODEL>
2

>  <REMARK>
 VINA RESULT:      -7.2      2.061      2.928
  Name = 
  4 active torsions:
  status: ('A' for Active; 'I' for Inactive)
    1  A    between atoms: C_1  and  C_5
    2  A    between atoms: C_6  and  C_15
    3  A    between atoms: C_6  and  C_23
    4  A    between atoms: C_15  and  C_21
                            x       y       z     vdW  Elec       q    Type
                         _______ _______ _______ _____ _____    ______ ____

>  <TORSDO>
F 4

$$$$
=
 OpenBabel11052417273D

 25 27  0  0  1  0  0  0  0  0999 V2000
  186.4710  176.8000  142.5290 C   0  0  0  0  0  0  0  0  0  0  0  0
  186.1660  177.1300  143.8680 C   0  0  0  0  0  0  0  0  0  0  0  0
  184.5380  178.0760  141.8190 C   0  0  0  0  0  3  0  0  0  0  0  0
  184.2570  178.3810  143.1130 N   0  0  0  0  0  0  0  0  0  0  0  0
  184.7050  178.2630  145.4620 C   0  0  0  0  0  0  0  0  0  0  0  0
  183.5980  179.0550  145.7400 O   0  0  0  0  0  1  0  0  0  0  0  0
  186.9420  176.6620  144.9380 C   0  0  0  0  0  3  0  0  0  0  0  0
  185.6430  177.2850  141.5080 C   0  0  0  0  0  3  0  0  0  0  0  0
  185.4930  177.7890  146.5140 C   0  0  0  0  0  3  0  0  0  0  0  0
  186.6080  176.9870  146.2550 C   0  0  0  0  0  0  0  0  0  0  0  0
  185.0320  177.9350  144.1370 C   0  0  0  0  0  0  0  0  0  0  0  0
  187.6510  175.9800  142.1630 C   0  0  0  0  0  0  0  0  0  0  0  0
  189.8040  174.3400  141.5040 C   0  0  0  0  0  3  0  0  0  0  0  0
  188.9550  176.5190  142.0940 C   0  0  0  0  0  0  0  0  0  0  0  0
  190.0290  175.6930  141.7620 C   0  0  0  0  0  3  0  0  0  0  0  0
  188.5460  173.8330  141.5750 N   0  0  0  0  0  0  0  0  0  0  0  0
  189.2250  177.9690  142.3290 C   0  0  0  0  0  1  0  0  0  0  0  0
  187.4810  174.6140  141.8960 C   0  0  0  0  0  3  0  0  0  0  0  0
  187.4460  176.4730  147.3820 C   0  0  0  0  0  2  0  0  0  0  0  0
  188.8920  176.1590  146.9780 C   0  0  1  0  0  3  0  0  0  0  0  0
  189.7660  177.1520  147.4260 O   0  0  0  0  0  1  0  0  0  0  0  0
  189.5560  173.9530  146.3070 F   0  0  0  0  0  0  0  0  0  0  0  0
  190.5620  174.8750  148.1060 F   0  0  0  0  0  0  0  0  0  0  0  0
  188.4220  174.1990  148.2340 F   0  0  0  0  0  0  0  0  0  0  0  0
  189.3720  174.7710  147.4080 C   0  0  0  0  0  0  0  0  0  0  0  0
  1  2  1  0  0  0  0
  2 11  2  0  0  0  0
  2  7  1  0  0  0  0
  3  4  2  0  0  0  0
  4 11  1  0  0  0  0
  5  6  1  0  0  0  0
  5  9  2  0  0  0  0
  7 10  2  0  0  0  0
  8  3  1  0  0  0  0
  8  1  2  0  0  0  0
 10  9  1  0  0  0  0
 10 19  1  0  0  0  0
 11  5  1  0  0  0  0
 12  1  1  0  0  0  0
 13 16  2  0  0  0  0
 13 15  1  0  0  0  0
 14 12  1  0  0  0  0
 14 17  1  0  0  0  0
 15 14  2  0  0  0  0
 16 18  1  0  0  0  0
 18 12  2  0  0  0  0
 20 19  1  0  0  0  0
 20 25  1  0  0  0  0
 20 21  1  1  0  0  0
 22 25  1  0  0  0  0
 25 23  1  0  0  0  0
 25 24  1  0  0  0  0
M  END
>  <MODEL>
3

>  <REMARK>
 VINA RESULT:      -7.1      3.142      4.713
  Name = 
  4 active torsions:
  status: ('A' for Active; 'I' for Inactive)
    1  A    between atoms: C_1  and  C_5
    2  A    between atoms: C_6  and  C_15
    3  A    between atoms: C_6  and  C_23
    4  A    between atoms: C_15  and  C_21
                            x       y       z     vdW  Elec       q    Type
                         _______ _______ _______ _____ _____    ______ ____

>  <TORSDO>
F 4

$$$$
=
 OpenBabel11052417273D

 25 27  0  0  1  0  0  0  0  0999 V2000
  187.2060  176.6370  141.7990 C   0  0  0  0  0  0  0  0  0  0  0  0
  186.3100  177.0660  142.8040 C   0  0  0  0  0  0  0  0  0  0  0  0
  185.8920  177.8510  140.1670 C   0  0  0  0  0  3  0  0  0  0  0  0
  185.0380  178.2520  141.1440 N   0  0  0  0  0  0  0  0  0  0  0  0
  184.3040  178.3120  143.4230 C   0  0  0  0  0  0  0  0  0  0  0  0
  183.2270  179.1210  143.0830 O   0  0  0  0  0  1  0  0  0  0  0  0
  186.4640  176.6810  144.1430 C   0  0  0  0  0  3  0  0  0  0  0  0
  186.9830  177.0410  140.4770 C   0  0  0  0  0  3  0  0  0  0  0  0
  184.4780  177.9200  144.7530 C   0  0  0  0  0  3  0  0  0  0  0  0
  185.5530  177.1040  145.1140 C   0  0  0  0  0  0  0  0  0  0  0  0
  185.2130  177.8860  142.4420 C   0  0  0  0  0  0  0  0  0  0  0  0
  188.3890  175.7940  142.0990 C   0  0  0  0  0  0  0  0  0  0  0  0
  190.5370  174.1140  142.6690 C   0  0  0  0  0  3  0  0  0  0  0  0
  189.6030  176.3370  142.5730 C   0  0  0  0  0  0  0  0  0  0  0  0
  190.6760  175.4900  142.8550 C   0  0  0  0  0  3  0  0  0  0  0  0
  189.3630  173.6040  142.2150 N   0  0  0  0  0  0  0  0  0  0  0  0
  189.7980  177.8060  142.7490 C   0  0  0  0  0  1  0  0  0  0  0  0
  188.3010  174.4040  141.9310 C   0  0  0  0  0  3  0  0  0  0  0  0
  185.7330  176.6780  146.5370 C   0  0  0  0  0  2  0  0  0  0  0  0
  186.6920  177.5760  147.3290 C   0  0  1  0  0  3  0  0  0  0  0  0
  187.9140  177.7130  146.6660 O   0  0  0  0  0  1  0  0  0  0  0  0
  184.7670  178.8350  148.0120 F   0  0  0  0  0  0  0  0  0  0  0  0
  186.7950  179.4830  148.7660 F   0  0  0  0  0  0  0  0  0  0  0  0
  186.2410  179.7930  146.6090 F   0  0  0  0  0  0  0  0  0  0  0  0
  186.1090  178.9430  147.6920 C   0  0  0  0  0  0  0  0  0  0  0  0
  1 12  1  0  0  0  0
  1  2  1  0  0  0  0
  2  7  1  0  0  0  0
  3  8  1  0  0  0  0
  3  4  2  0  0  0  0
  4 11  1  0  0  0  0
  5  9  2  0  0  0  0
  6  5  1  0  0  0  0
  7 10  2  0  0  0  0
  8  1  2  0  0  0  0
  9 10  1  0  0  0  0
 10 19  1  0  0  0  0
 11  2  2  0  0  0  0
 11  5  1  0  0  0  0
 12 14  1  0  0  0  0
 13 15  1  0  0  0  0
 14 17  1  0  0  0  0
 14 15  2  0  0  0  0
 16 13  2  0  0  0  0
 18 12  2  0  0  0  0
 18 16  1  0  0  0  0
 19 20  1  0  0  0  0
 20 21  1  6  0  0  0
 20 25  1  0  0  0  0
 24 25  1  0  0  0  0
 25 22  1  0  0  0  0
 25 23  1  0  0  0  0
M  END
>  <MODEL>
4

>  <REMARK>
 VINA RESULT:      -7.0      2.579      3.292
  Name = 
  4 active torsions:
  status: ('A' for Active; 'I' for Inactive)
    1  A    between atoms: C_1  and  C_5
    2  A    between atoms: C_6  and  C_15
    3  A    between atoms: C_6  and  C_23
    4  A    between atoms: C_15  and  C_21
                            x       y       z     vdW  Elec       q    Type
                         _______ _______ _______ _____ _____    ______ ____

>  <TORSDO>
F 4

$$$$
=
 OpenBabel11052417273D

 25 27  0  0  1  0  0  0  0  0999 V2000
  190.1460  176.9080  143.4600 C   0  0  0  0  0  0  0  0  0  0  0  0
  189.8770  176.9180  144.8470 C   0  0  0  0  0  0  0  0  0  0  0  0
  192.5110  176.7450  143.9620 C   0  0  0  0  0  3  0  0  0  0  0  0
  192.2350  176.7600  145.2920 N   0  0  0  0  0  0  0  0  0  0  0  0
  190.7150  176.8660  147.1400 C   0  0  0  0  0  0  0  0  0  0  0  0
  191.7660  176.7890  148.0440 O   0  0  0  0  0  1  0  0  0  0  0  0
  188.5710  177.0260  145.3440 C   0  0  0  0  0  3  0  0  0  0  0  0
  191.4760  176.8190  143.0300 C   0  0  0  0  0  3  0  0  0  0  0  0
  189.4040  176.9700  147.6140 C   0  0  0  0  0  3  0  0  0  0  0  0
  188.3330  177.0530  146.7210 C   0  0  0  0  0  0  0  0  0  0  0  0
  190.9600  176.8440  145.7580 C   0  0  0  0  0  0  0  0  0  0  0  0
  189.0680  176.9610  142.4430 C   0  0  0  0  0  0  0  0  0  0  0  0
  187.0230  177.1790  140.5640 C   0  0  0  0  0  3  0  0  0  0  0  0
  188.4630  175.7980  141.9200 C   0  0  0  0  0  0  0  0  0  0  0  0
  187.4400  175.9130  140.9780 C   0  0  0  0  0  3  0  0  0  0  0  0
  187.6120  178.2910  141.0760 N   0  0  0  0  0  0  0  0  0  0  0  0
  188.9090  174.4290  142.3140 C   0  0  0  0  0  1  0  0  0  0  0  0
  188.6110  178.2090  141.9940 C   0  0  0  0  0  3  0  0  0  0  0  0
  186.9320  177.1720  147.2310 C   0  0  0  0  0  2  0  0  0  0  0  0
  185.9110  177.5200  146.1410 C   0  0  1  0  0  3  0  0  0  0  0  0
  184.8060  176.6680  146.1970 O   0  0  0  0  0  1  0  0  0  0  0  0
  185.9410  179.6370  147.2710 F   0  0  0  0  0  0  0  0  0  0  0  0
  185.9470  179.6270  145.0130 F   0  0  0  0  0  0  0  0  0  0  0  0
  184.0900  179.0440  146.1380 F   0  0  0  0  0  0  0  0  0  0  0  0
  185.4720  178.9860  146.1430 C   0  0  0  0  0  0  0  0  0  0  0  0
  1  2  1  0  0  0  0
  2  7  2  0  0  0  0
  2 11  1  0  0  0  0
  3  4  2  0  0  0  0
  4 11  1  0  0  0  0
  5  9  1  0  0  0  0
  5  6  1  0  0  0  0
  7 10  1  0  0  0  0
  8  1  2  0  0  0  0
  8  3  1  0  0  0  0
 10 19  1  0  0  0  0
 10  9  2  0  0  0  0
 11  5  2  0  0  0  0
 12  1  1  0  0  0  0
 13 15  2  0  0  0  0
 13 16  1  0  0  0  0
 14 17  1  0  0  0  0
 14 12  2  0  0  0  0
 15 14  1  0  0  0  0
 16 18  2  0  0  0  0
 18 12  1  0  0  0  0
 20 25  1  0  0  0  0
 20 21  1  1  0  0  0
 20 19  1  0  0  0  0
 23 25  1  0  0  0  0
 24 25  1  0  0  0  0
 25 22  1  0  0  0  0
M  END
>  <MODEL>
5

>  <REMARK>
 VINA RESULT:      -6.9      2.270      4.863
  Name = 
  4 active torsions:
  status: ('A' for Active; 'I' for Inactive)
    1  A    between atoms: C_1  and  C_5
    2  A    between atoms: C_6  and  C_15
    3  A    between atoms: C_6  and  C_23
    4  A    between atoms: C_15  and  C_21
                            x       y       z     vdW  Elec       q    Type
                         _______ _______ _______ _____ _____    ______ ____

>  <TORSDO>
F 4

$$$$
=
 OpenBabel11052417273D

 25 27  0  0  1  0  0  0  0  0999 V2000
  190.7040  175.0800  144.4230 C   0  0  0  0  0  0  0  0  0  0  0  0
  189.8880  175.8890  145.2440 C   0  0  0  0  0  0  0  0  0  0  0  0
  192.6170  175.7200  145.7650 C   0  0  0  0  0  3  0  0  0  0  0  0
  191.8190  176.4970  146.5430 N   0  0  0  0  0  0  0  0  0  0  0  0
  189.6910  177.4220  147.1350 C   0  0  0  0  0  0  0  0  0  0  0  0
  190.2580  178.1220  148.1920 O   0  0  0  0  0  1  0  0  0  0  0  0
  188.5130  176.0260  145.0120 C   0  0  0  0  0  3  0  0  0  0  0  0
  192.0760  175.0040  144.6980 C   0  0  0  0  0  3  0  0  0  0  0  0
  188.3200  177.5410  146.8880 C   0  0  0  0  0  3  0  0  0  0  0  0
  187.7310  176.8480  145.8270 C   0  0  0  0  0  0  0  0  0  0  0  0
  190.4820  176.6020  146.3150 C   0  0  0  0  0  0  0  0  0  0  0  0
  190.1570  174.2880  143.2950 C   0  0  0  0  0  0  0  0  0  0  0  0
  189.1140  172.9040  141.1150 C   0  0  0  0  0  3  0  0  0  0  0  0
  189.6530  172.9800  143.4650 C   0  0  0  0  0  0  0  0  0  0  0  0
  189.1330  172.2910  142.3680 C   0  0  0  0  0  3  0  0  0  0  0  0
  189.6000  174.1640  140.9650 N   0  0  0  0  0  0  0  0  0  0  0  0
  189.6920  172.2820  144.7830 C   0  0  0  0  0  1  0  0  0  0  0  0
  190.1120  174.8580  142.0150 C   0  0  0  0  0  3  0  0  0  0  0  0
  186.2660  176.9830  145.5590 C   0  0  0  0  0  2  0  0  0  0  0  0
  185.9320  178.0280  144.4870 C   0  0  1  0  0  3  0  0  0  0  0  0
  185.1640  177.4700  143.4620 O   0  0  0  0  0  1  0  0  0  0  0  0
  185.7160  179.5620  146.3200 F   0  0  0  0  0  0  0  0  0  0  0  0
  185.5620  180.3750  144.2190 F   0  0  0  0  0  0  0  0  0  0  0  0
  183.9030  179.1160  145.0660 F   0  0  0  0  0  0  0  0  0  0  0  0
  185.2740  179.2960  145.0360 C   0  0  0  0  0  0  0  0  0  0  0  0
  1  8  2  0  0  0  0
  1  2  1  0  0  0  0
  2 11  1  0  0  0  0
  3  4  2  0  0  0  0
  5  6  1  0  0  0  0
  7  2  2  0  0  0  0
  7 10  1  0  0  0  0
  8  3  1  0  0  0  0
  9  5  1  0  0  0  0
 10  9  2  0  0  0  0
 11  4  1  0  0  0  0
 11  5  2  0  0  0  0
 12 14  1  0  0  0  0
 12  1  1  0  0  0  0
 13 15  1  0  0  0  0
 14 17  1  0  0  0  0
 15 14  2  0  0  0  0
 16 13  2  0  0  0  0
 16 18  1  0  0  0  0
 18 12  2  0  0  0  0
 19 10  1  0  0  0  0
 20 21  1  6  0  0  0
 20 25  1  0  0  0  0
 20 19  1  0  0  0  0
 23 25  1  0  0  0  0
 25 24  1  0  0  0  0
 25 22  1  0  0  0  0
M  END
>  <MODEL>
6

>  <REMARK>
 VINA RESULT:      -6.9      2.171      4.723
  Name = 
  4 active torsions:
  status: ('A' for Active; 'I' for Inactive)
    1  A    between atoms: C_1  and  C_5
    2  A    between atoms: C_6  and  C_15
    3  A    between atoms: C_6  and  C_23
    4  A    between atoms: C_15  and  C_21
                            x       y       z     vdW  Elec       q    Type
                         _______ _______ _______ _____ _____    ______ ____

>  <TORSDO>
F 4

$$$$
=
 OpenBabel11052417273D

 25 27  0  0  1  0  0  0  0  0999 V2000
  187.8560  175.9150  141.8320 C   0  0  0  0  0  0  0  0  0  0  0  0
  187.4860  176.7090  142.9400 C   0  0  0  0  0  0  0  0  0  0  0  0
  186.6750  177.4590  140.3860 C   0  0  0  0  0  3  0  0  0  0  0  0
  186.3250  178.2090  141.4630 N   0  0  0  0  0  0  0  0  0  0  0  0
  186.3150  178.6650  143.8140 C   0  0  0  0  0  0  0  0  0  0  0  0
  185.5530  179.8090  143.6160 O   0  0  0  0  0  1  0  0  0  0  0  0
  187.8490  176.3630  144.2490 C   0  0  0  0  0  3  0  0  0  0  0  0
  187.4410  176.3060  140.5520 C   0  0  0  0  0  3  0  0  0  0  0  0
  186.6920  178.3050  145.1100 C   0  0  0  0  0  3  0  0  0  0  0  0
  187.4550  177.1550  145.3310 C   0  0  0  0  0  0  0  0  0  0  0  0
  186.7040  177.8700  142.7240 C   0  0  0  0  0  0  0  0  0  0  0  0
  188.6890  174.6960  141.9720 C   0  0  0  0  0  0  0  0  0  0  0  0
  190.1520  172.3430  142.2530 C   0  0  0  0  0  3  0  0  0  0  0  0
  190.0700  174.7540  142.2610 C   0  0  0  0  0  0  0  0  0  0  0  0
  190.7970  173.5710  142.3990 C   0  0  0  0  0  3  0  0  0  0  0  0
  188.8220  172.3010  141.9770 N   0  0  0  0  0  0  0  0  0  0  0  0
  190.7980  176.0500  142.3880 C   0  0  0  0  0  1  0  0  0  0  0  0
  188.0880  173.4360  141.8370 C   0  0  0  0  0  3  0  0  0  0  0  0
  187.8500  176.7660  146.7200 C   0  0  0  0  0  2  0  0  0  0  0  0
  189.3410  176.4380  146.8630 C   0  0  1  0  0  3  0  0  0  0  0  0
  189.9730  177.3370  147.7270 O   0  0  0  0  0  1  0  0  0  0  0  0
  190.7840  174.9160  148.0280 F   0  0  0  0  0  0  0  0  0  0  0  0
  188.5660  174.4910  148.0130 F   0  0  0  0  0  0  0  0  0  0  0  0
  189.7800  174.2200  146.1400 F   0  0  0  0  0  0  0  0  0  0  0  0
  189.6250  174.9920  147.2760 C   0  0  0  0  0  0  0  0  0  0  0  0
  1 12  1  0  0  0  0
  1  2  1  0  0  0  0
  2  7  1  0  0  0  0
  3  8  1  0  0  0  0
  3  4  2  0  0  0  0
  4 11  1  0  0  0  0
  5  9  2  0  0  0  0
  6  5  1  0  0  0  0
  7 10  2  0  0  0  0
  8  1  2  0  0  0  0
  9 10  1  0  0  0  0
 10 19  1  0  0  0  0
 11  2  2  0  0  0  0
 11  5  1  0  0  0  0
 12 14  1  0  0  0  0
 13 15  1  0  0  0  0
 14 17  1  0  0  0  0
 14 15  2  0  0  0  0
 16 13  2  0  0  0  0
 18 12  2  0  0  0  0
 18 16  1  0  0  0  0
 19 20  1  0  0  0  0
 20 25  1  0  0  0  0
 20 21  1  1  0  0  0
 24 25  1  0  0  0  0
 25 23  1  0  0  0  0
 25 22  1  0  0  0  0
M  END
>  <MODEL>
7

>  <REMARK>
 VINA RESULT:      -6.9      2.978      4.307
  Name = 
  4 active torsions:
  status: ('A' for Active; 'I' for Inactive)
    1  A    between atoms: C_1  and  C_5
    2  A    between atoms: C_6  and  C_15
    3  A    between atoms: C_6  and  C_23
    4  A    between atoms: C_15  and  C_21
                            x       y       z     vdW  Elec       q    Type
                         _______ _______ _______ _____ _____    ______ ____

>  <TORSDO>
F 4

$$$$
=
 OpenBabel11052417273D

 25 27  0  0  1  0  0  0  0  0999 V2000
  190.7990  174.6740  145.2450 C   0  0  0  0  0  0  0  0  0  0  0  0
  189.9670  175.7050  145.7370 C   0  0  0  0  0  0  0  0  0  0  0  0
  192.4680  175.2960  146.8870 C   0  0  0  0  0  3  0  0  0  0  0  0
  191.6570  176.2840  147.3460 N   0  0  0  0  0  0  0  0  0  0  0  0
  189.6230  177.5480  147.3010 C   0  0  0  0  0  0  0  0  0  0  0  0
  190.0620  178.3430  148.3520 O   0  0  0  0  0  1  0  0  0  0  0  0
  188.7080  175.9660  145.1790 C   0  0  0  0  0  3  0  0  0  0  0  0
  192.0540  174.4800  145.8350 C   0  0  0  0  0  3  0  0  0  0  0  0
  188.3690  177.7890  146.7330 C   0  0  0  0  0  3  0  0  0  0  0  0
  187.9110  177.0030  145.6720 C   0  0  0  0  0  0  0  0  0  0  0  0
  190.4290  176.5110  146.8060 C   0  0  0  0  0  0  0  0  0  0  0  0
  190.3800  173.7750  144.1430 C   0  0  0  0  0  0  0  0  0  0  0  0
  189.5800  171.9960  142.1550 C   0  0  0  0  0  3  0  0  0  0  0  0
  190.6660  174.0540  142.7890 C   0  0  0  0  0  0  0  0  0  0  0  0
  190.2600  173.1600  141.7970 C   0  0  0  0  0  3  0  0  0  0  0  0
  189.3120  171.7370  143.4610 N   0  0  0  0  0  0  0  0  0  0  0  0
  191.3600  175.3080  142.3690 C   0  0  0  0  0  1  0  0  0  0  0  0
  189.6940  172.5900  144.4480 C   0  0  0  0  0  3  0  0  0  0  0  0
  186.5730  177.2680  145.0590 C   0  0  0  0  0  2  0  0  0  0  0  0
  185.8750  178.5110  145.6230 C   0  0  1  0  0  3  0  0  0  0  0  0
  185.5710  179.4210  144.6070 O   0  0  0  0  0  1  0  0  0  0  0  0
  184.8060  178.6580  147.7660 F   0  0  0  0  0  0  0  0  0  0  0  0
  183.5200  178.8000  145.9150 F   0  0  0  0  0  0  0  0  0  0  0  0
  184.4420  176.8340  146.5010 F   0  0  0  0  0  0  0  0  0  0  0  0
  184.6390  178.2030  146.4700 C   0  0  0  0  0  0  0  0  0  0  0  0
  1  2  2  0  0  0  0
  1  8  1  0  0  0  0
  2 11  1  0  0  0  0
  3  4  1  0  0  0  0
  5  6  1  0  0  0  0
  7 10  2  0  0  0  0
  7  2  1  0  0  0  0
  8  3  2  0  0  0  0
  9  5  2  0  0  0  0
 10  9  1  0  0  0  0
 11  5  1  0  0  0  0
 11  4  2  0  0  0  0
 12 18  1  0  0  0  0
 12  1  1  0  0  0  0
 13 16  1  0  0  0  0
 14 12  2  0  0  0  0
 15 13  2  0  0  0  0
 15 14  1  0  0  0  0
 16 18  2  0  0  0  0
 17 14  1  0  0  0  0
 19 20  1  0  0  0  0
 19 10  1  0  0  0  0
 20 21  1  6  0  0  0
 20 25  1  0  0  0  0
 23 25  1  0  0  0  0
 25 24  1  0  0  0  0
 25 22  1  0  0  0  0
M  END
>  <MODEL>
8

>  <REMARK>
 VINA RESULT:      -6.7      2.195      4.409
  Name = 
  4 active torsions:
  status: ('A' for Active; 'I' for Inactive)
    1  A    between atoms: C_1  and  C_5
    2  A    between atoms: C_6  and  C_15
    3  A    between atoms: C_6  and  C_23
    4  A    between atoms: C_15  and  C_21
                            x       y       z     vdW  Elec       q    Type
                         _______ _______ _______ _____ _____    ______ ____

>  <TORSDO>
F 4

$$$$
=
 OpenBabel11052417273D

 25 27  0  0  1  0  0  0  0  0999 V2000
  187.4520  177.6150  144.5310 C   0  0  0  0  0  0  0  0  0  0  0  0
  187.3280  177.2460  143.1730 C   0  0  0  0  0  0  0  0  0  0  0  0
  185.7800  179.3310  144.1740 C   0  0  0  0  0  3  0  0  0  0  0  0
  185.6750  178.9660  142.8700 N   0  0  0  0  0  0  0  0  0  0  0  0
  186.2890  177.6100  140.9940 C   0  0  0  0  0  0  0  0  0  0  0  0
  185.3960  178.2900  140.1760 O   0  0  0  0  0  1  0  0  0  0  0  0
  188.1000  176.2180  142.6140 C   0  0  0  0  0  3  0  0  0  0  0  0
  186.6650  178.6650  145.0210 C   0  0  0  0  0  3  0  0  0  0  0  0
  187.0660  176.5790  140.4580 C   0  0  0  0  0  3  0  0  0  0  0  0
  187.9720  175.8850  141.2630 C   0  0  0  0  0  0  0  0  0  0  0  0
  186.4180  177.9520  142.3490 C   0  0  0  0  0  0  0  0  0  0  0  0
  188.3670  176.9130  145.4630 C   0  0  0  0  0  0  0  0  0  0  0  0
  189.9900  175.5660  147.2830 C   0  0  0  0  0  3  0  0  0  0  0  0
  189.7590  177.1510  145.4790 C   0  0  0  0  0  0  0  0  0  0  0  0
  190.5670  176.4720  146.3920 C   0  0  0  0  0  3  0  0  0  0  0  0
  188.6500  175.3470  147.2590 N   0  0  0  0  0  0  0  0  0  0  0  0
  190.4130  178.0850  144.5160 C   0  0  0  0  0  1  0  0  0  0  0  0
  187.8380  175.9930  146.3810 C   0  0  0  0  0  3  0  0  0  0  0  0
  188.8090  174.7880  140.6860 C   0  0  0  0  0  2  0  0  0  0  0  0
  188.2530  173.3850  140.9580 C   0  0  1  0  0  3  0  0  0  0  0  0
  188.1000  172.6660  139.7700 O   0  0  0  0  0  1  0  0  0  0  0  0
  189.7870  171.5850  141.3620 F   0  0  0  0  0  0  0  0  0  0  0  0
  189.9190  173.4190  142.6730 F   0  0  0  0  0  0  0  0  0  0  0  0
  188.1870  172.0010  142.8870 F   0  0  0  0  0  0  0  0  0  0  0  0
  189.0580  172.5830  141.9840 C   0  0  0  0  0  0  0  0  0  0  0  0
  1  8  1  0  0  0  0
  1 12  1  0  0  0  0
  2  1  2  0  0  0  0
  3  8  2  0  0  0  0
  4  3  1  0  0  0  0
  5 11  1  0  0  0  0
  6  5  1  0  0  0  0
  7  2  1  0  0  0  0
  9  5  2  0  0  0  0
  9 10  1  0  0  0  0
 10  7  2  0  0  0  0
 11  4  2  0  0  0  0
 11  2  1  0  0  0  0
 12 14  2  0  0  0  0
 12 18  1  0  0  0  0
 14 15  1  0  0  0  0
 15 13  2  0  0  0  0
 16 13  1  0  0  0  0
 17 14  1  0  0  0  0
 18 16  2  0  0  0  0
 19 20  1  0  0  0  0
 19 10  1  0  0  0  0
 20 21  1  6  0  0  0
 20 25  1  0  0  0  0
 22 25  1  0  0  0  0
 25 23  1  0  0  0  0
 25 24  1  0  0  0  0
M  END
>  <MODEL>
9

>  <REMARK>
 VINA RESULT:      -6.7      3.538      5.241
  Name = 
  4 active torsions:
  status: ('A' for Active; 'I' for Inactive)
    1  A    between atoms: C_1  and  C_5
    2  A    between atoms: C_6  and  C_15
    3  A    between atoms: C_6  and  C_23
    4  A    between atoms: C_15  and  C_21
                            x       y       z     vdW  Elec       q    Type
                         _______ _______ _______ _____ _____    ______ ____

>  <TORSDO>
F 4

$$$$
