=
 OpenBabel11052417353D

 25 27  0  0  1  0  0  0  0  0999 V2000
  188.9400  176.2140  143.3760 C   0  0  0  0  0  0  0  0  0  0  0  0
  187.8580  177.0520  143.0320 C   0  0  0  0  0  0  0  0  0  0  0  0
  188.7980  175.1710  141.2450 C   0  0  0  0  0  3  0  0  0  0  0  0
  189.5880  176.2880  144.6620 N   0  0  0  0  0  0  0  0  0  0  0  0
  187.7650  175.9780  140.8910 N   0  0  0  0  0  0  0  0  0  0  0  0
  186.1960  177.7290  141.3940 C   0  0  0  0  0  0  0  0  0  0  0  0
  185.5560  177.6150  140.0520 C   0  0  0  0  0  1  0  0  0  0  0  0
  187.3220  177.9890  143.9220 C   0  0  0  0  0  3  0  0  0  0  0  0
  189.3690  175.2900  142.4700 N   0  0  0  0  0  0  0  0  0  0  0  0
  185.7090  178.6340  142.2840 N   0  0  0  0  0  0  0  0  0  0  0  0
  186.2460  178.7820  143.5250 C   0  0  0  0  0  0  0  0  0  0  0  0
  187.2800  176.9100  141.7530 C   0  0  0  0  0  0  0  0  0  0  0  0
  188.3660  175.4260  146.9840 C   0  0  0  0  0  1  0  0  0  0  0  0
  190.2110  175.0770  145.2090 C   0  0  2  0  0  3  0  0  0  0  0  0
  189.5040  174.5540  146.4710 C   0  0  1  0  0  3  0  0  0  0  0  0
  190.7990  175.3280  146.5880 C   0  0  0  0  0  2  0  0  0  0  0  0
  190.0500  177.5810  145.1590 C   0  0  0  0  0  2  0  0  0  0  0  0
  190.9230  178.1580  144.2370 O   0  0  0  0  0  1  0  0  0  0  0  0
  185.6600  179.7680  144.4750 C   0  0  0  0  0  2  0  0  0  0  0  0
  184.3650  179.2260  145.0500 C   0  0  0  0  0  2  0  0  0  0  0  0
  184.6430  178.4960  146.3150 C   0  0  0  0  0  0  0  0  0  0  0  0
  184.2080  177.3220  146.4650 O   0  0  0  0  0  0  0  0  0  0  0  0
  185.4070  179.1090  147.3080 O   0  0  0  0  0  0  0  0  0  0  0  0
  186.5320  178.4680  147.8900 C   0  0  0  0  0  2  0  0  0  0  0  0
  187.2590  179.4180  148.7100 N   0  0  0  0  0  1  0  0  0  0  0  0
  1  4  1  0  0  0  0
  2  1  1  0  0  0  0
  2  8  1  0  0  0  0
  3  9  1  0  0  0  0
  4 17  1  0  0  0  0
  5  3  2  0  0  0  0
  5 12  1  0  0  0  0
  6 12  1  0  0  0  0
  6 10  2  0  0  0  0
  7  6  1  0  0  0  0
  9  1  2  0  0  0  0
 10 11  1  0  0  0  0
 11  8  2  0  0  0  0
 11 19  1  0  0  0  0
 12  2  2  0  0  0  0
 14  4  1  1  0  0  0
 14 15  1  0  0  0  0
 14 16  1  0  0  0  0
 15 16  1  0  0  0  0
 15 13  1  1  0  0  0
 18 17  1  0  0  0  0
 19 20  1  0  0  0  0
 20 21  1  0  0  0  0
 21 22  2  0  0  0  0
 21 23  1  0  0  0  0
 23 24  1  0  0  0  0
 24 25  1  0  0  0  0
M  END
>  <MODEL>
1

>  <REMARK>
 VINA RESULT:      -6.6      0.000      0.000
  Name = 
  7 active torsions:
  status: ('A' for Active; 'I' for Inactive)
    1  A    between atoms: O_2  and  C_7
    2  A    between atoms: O_2  and  C_21
    3  A    between atoms: N_5  and  C_10
    4  A    between atoms: N_5  and  C_17
    5  A    between atoms: C_6  and  C_15
    6  A    between atoms: C_6  and  C_23
    7  A    between atoms: C_15  and  C_21
                            x       y       z     vdW  Elec       q    Type
                         _______ _______ _______ _____ _____    ______ ____

>  <TORSDO>
F 7

$$$$
=
 OpenBabel11052417353D

 25 27  0  0  1  0  0  0  0  0999 V2000
  189.3030  175.4290  144.6750 C   0  0  0  0  0  0  0  0  0  0  0  0
  188.2230  176.3240  144.8310 C   0  0  0  0  0  0  0  0  0  0  0  0
  189.1630  174.8710  146.9810 C   0  0  0  0  0  3  0  0  0  0  0  0
  189.9670  175.2420  143.4090 N   0  0  0  0  0  0  0  0  0  0  0  0
  188.1140  175.7170  147.1470 N   0  0  0  0  0  0  0  0  0  0  0  0
  186.5630  177.3390  146.2850 C   0  0  0  0  0  0  0  0  0  0  0  0
  185.9080  177.5000  147.6150 C   0  0  0  0  0  1  0  0  0  0  0  0
  187.7430  177.1100  143.7790 C   0  0  0  0  0  3  0  0  0  0  0  0
  189.7450  174.7370  145.7630 N   0  0  0  0  0  0  0  0  0  0  0  0
  186.1190  178.0800  145.2350 N   0  0  0  0  0  0  0  0  0  0  0  0
  186.6780  177.9830  143.9980 C   0  0  0  0  0  0  0  0  0  0  0  0
  187.6340  176.4470  146.1060 C   0  0  0  0  0  0  0  0  0  0  0  0
  191.6580  177.4000  143.0770 C   0  0  0  0  0  1  0  0  0  0  0  0
  191.3820  174.8530  143.4040 C   0  0  2  0  0  3  0  0  0  0  0  0
  192.3360  176.0530  143.2780 C   0  0  1  0  0  3  0  0  0  0  0  0
  192.0450  175.1800  142.0760 C   0  0  0  0  0  2  0  0  0  0  0  0
  189.1730  174.9520  142.2180 C   0  0  0  0  0  2  0  0  0  0  0  0
  188.5670  173.7020  142.3460 O   0  0  0  0  0  1  0  0  0  0  0  0
  186.1750  178.8360  142.8870 C   0  0  0  0  0  2  0  0  0  0  0  0
  184.7570  178.4340  142.5270 C   0  0  0  0  0  2  0  0  0  0  0  0
  184.6310  178.3010  141.0510 C   0  0  0  0  0  0  0  0  0  0  0  0
  185.6710  178.2300  140.3420 O   0  0  0  0  0  0  0  0  0  0  0  0
  183.3640  178.2280  140.4730 O   0  0  0  0  0  0  0  0  0  0  0  0
  182.1810  178.2700  141.2570 C   0  0  0  0  0  2  0  0  0  0  0  0
  181.0230  178.2960  140.3840 N   0  0  0  0  0  1  0  0  0  0  0  0
  1  2  2  0  0  0  0
  1  9  1  0  0  0  0
  2 12  1  0  0  0  0
  3  5  1  0  0  0  0
  4  1  1  0  0  0  0
  6  7  1  0  0  0  0
  8 11  2  0  0  0  0
  8  2  1  0  0  0  0
  9  3  2  0  0  0  0
 10  6  2  0  0  0  0
 11 10  1  0  0  0  0
 12  6  1  0  0  0  0
 12  5  2  0  0  0  0
 14  4  1  6  0  0  0
 15 13  1  6  0  0  0
 15 14  1  0  0  0  0
 16 15  1  0  0  0  0
 16 14  1  0  0  0  0
 17 18  1  0  0  0  0
 17  4  1  0  0  0  0
 19 11  1  0  0  0  0
 20 19  1  0  0  0  0
 21 20  1  0  0  0  0
 22 21  2  0  0  0  0
 23 21  1  0  0  0  0
 23 24  1  0  0  0  0
 25 24  1  0  0  0  0
M  END
>  <MODEL>
2

>  <REMARK>
 VINA RESULT:      -6.2      2.972      5.022
  Name = 
  7 active torsions:
  status: ('A' for Active; 'I' for Inactive)
    1  A    between atoms: O_2  and  C_7
    2  A    between atoms: O_2  and  C_21
    3  A    between atoms: N_5  and  C_10
    4  A    between atoms: N_5  and  C_17
    5  A    between atoms: C_6  and  C_15
    6  A    between atoms: C_6  and  C_23
    7  A    between atoms: C_15  and  C_21
                            x       y       z     vdW  Elec       q    Type
                         _______ _______ _______ _____ _____    ______ ____

>  <TORSDO>
F 7

$$$$
=
 OpenBabel11052417353D

 25 27  0  0  1  0  0  0  0  0999 V2000
  190.6420  175.6040  144.0720 C   0  0  0  0  0  0  0  0  0  0  0  0
  189.5520  175.5250  143.1790 C   0  0  0  0  0  0  0  0  0  0  0  0
  191.8350  174.0410  142.7360 C   0  0  0  0  0  3  0  0  0  0  0  0
  190.6120  176.4390  145.2470 N   0  0  0  0  0  0  0  0  0  0  0  0
  190.8020  173.9630  141.8600 N   0  0  0  0  0  0  0  0  0  0  0  0
  188.5860  174.5810  141.1600 C   0  0  0  0  0  0  0  0  0  0  0  0
  188.6610  173.7020  139.9580 C   0  0  0  0  0  1  0  0  0  0  0  0
  188.3600  176.2270  143.3880 C   0  0  0  0  0  3  0  0  0  0  0  0
  191.7480  174.8470  143.8240 N   0  0  0  0  0  0  0  0  0  0  0  0
  187.4470  175.2860  141.3930 N   0  0  0  0  0  0  0  0  0  0  0  0
  187.3140  176.1010  142.4750 C   0  0  0  0  0  0  0  0  0  0  0  0
  189.6640  174.6800  142.0560 C   0  0  0  0  0  0  0  0  0  0  0  0
  189.1260  175.0520  147.1150 C   0  0  0  0  0  1  0  0  0  0  0  0
  191.4070  176.0420  146.4150 C   0  0  2  0  0  3  0  0  0  0  0  0
  190.6040  175.2190  147.4370 C   0  0  1  0  0  3  0  0  0  0  0  0
  190.8830  176.6840  147.6890 C   0  0  0  0  0  2  0  0  0  0  0  0
  190.2380  177.8440  145.1180 C   0  0  0  0  0  2  0  0  0  0  0  0
  191.0120  178.4530  144.1300 O   0  0  0  0  0  1  0  0  0  0  0  0
  186.0370  176.8310  142.7020 C   0  0  0  0  0  2  0  0  0  0  0  0
  186.3060  178.3190  142.8250 C   0  0  0  0  0  2  0  0  0  0  0  0
  185.4340  178.9020  143.8790 C   0  0  0  0  0  0  0  0  0  0  0  0
  185.4940  180.1360  144.1240 O   0  0  0  0  0  0  0  0  0  0  0  0
  184.5390  178.0780  144.5630 O   0  0  0  0  0  0  0  0  0  0  0  0
  184.5820  177.9350  145.9740 C   0  0  0  0  0  2  0  0  0  0  0  0
  185.4520  176.8260  146.3200 N   0  0  0  0  0  1  0  0  0  0  0  0
  1  4  1  0  0  0  0
  2  8  1  0  0  0  0
  2  1  2  0  0  0  0
  3  9  2  0  0  0  0
  5 12  2  0  0  0  0
  5  3  1  0  0  0  0
  6 10  2  0  0  0  0
  6 12  1  0  0  0  0
  7  6  1  0  0  0  0
  9  1  1  0  0  0  0
 10 11  1  0  0  0  0
 11 19  1  0  0  0  0
 11  8  2  0  0  0  0
 12  2  1  0  0  0  0
 14  4  1  6  0  0  0
 14 15  1  0  0  0  0
 14 16  1  0  0  0  0
 15 13  1  6  0  0  0
 15 16  1  0  0  0  0
 17  4  1  0  0  0  0
 18 17  1  0  0  0  0
 19 20  1  0  0  0  0
 20 21  1  0  0  0  0
 21 22  2  0  0  0  0
 21 23  1  0  0  0  0
 23 24  1  0  0  0  0
 24 25  1  0  0  0  0
M  END
>  <MODEL>
3

>  <REMARK>
 VINA RESULT:      -6.1      1.825      2.910
  Name = 
  7 active torsions:
  status: ('A' for Active; 'I' for Inactive)
    1  A    between atoms: O_2  and  C_7
    2  A    between atoms: O_2  and  C_21
    3  A    between atoms: N_5  and  C_10
    4  A    between atoms: N_5  and  C_17
    5  A    between atoms: C_6  and  C_15
    6  A    between atoms: C_6  and  C_23
    7  A    between atoms: C_15  and  C_21
                            x       y       z     vdW  Elec       q    Type
                         _______ _______ _______ _____ _____    ______ ____

>  <TORSDO>
F 7

$$$$
=
 OpenBabel11052417353D

 25 27  0  0  1  0  0  0  0  0999 V2000
  187.7480  176.0620  142.8770 C   0  0  0  0  0  0  0  0  0  0  0  0
  187.7000  176.1590  144.2840 C   0  0  0  0  0  0  0  0  0  0  0  0
  185.6490  177.1690  142.7370 C   0  0  0  0  0  3  0  0  0  0  0  0
  188.8470  175.4290  142.1900 N   0  0  0  0  0  0  0  0  0  0  0  0
  185.5920  177.2830  144.0880 N   0  0  0  0  0  0  0  0  0  0  0  0
  186.5140  176.8900  146.2740 C   0  0  0  0  0  0  0  0  0  0  0  0
  185.3570  177.5530  146.9410 C   0  0  0  0  0  1  0  0  0  0  0  0
  188.6950  175.6230  145.1070 C   0  0  0  0  0  3  0  0  0  0  0  0
  186.7120  176.5630  142.1480 N   0  0  0  0  0  0  0  0  0  0  0  0
  187.5070  176.3650  147.0400 N   0  0  0  0  0  0  0  0  0  0  0  0
  188.5860  175.7440  146.4920 C   0  0  0  0  0  0  0  0  0  0  0  0
  186.5860  176.7920  144.8740 C   0  0  0  0  0  0  0  0  0  0  0  0
  188.5390  172.6920  142.3900 C   0  0  0  0  0  1  0  0  0  0  0  0
  188.5950  174.7950  140.8900 C   0  0  2  0  0  3  0  0  0  0  0  0
  188.3650  173.2770  140.9960 C   0  0  1  0  0  3  0  0  0  0  0  0
  189.6990  173.8150  140.5250 C   0  0  0  0  0  2  0  0  0  0  0  0
  190.2150  175.8300  142.5020 C   0  0  0  0  0  2  0  0  0  0  0  0
  190.3320  177.2180  142.4220 O   0  0  0  0  0  1  0  0  0  0  0  0
  189.6340  175.1600  147.3740 C   0  0  0  0  0  2  0  0  0  0  0  0
  190.7310  176.1790  147.6200 C   0  0  0  0  0  2  0  0  0  0  0  0
  191.8980  175.8810  146.7470 C   0  0  0  0  0  0  0  0  0  0  0  0
  192.5260  174.7990  146.8960 O   0  0  0  0  0  0  0  0  0  0  0  0
  192.2640  176.7910  145.7550 O   0  0  0  0  0  0  0  0  0  0  0  0
  193.3900  176.5750  144.9190 C   0  0  0  0  0  2  0  0  0  0  0  0
  194.5610  177.1850  145.5190 N   0  0  0  0  0  1  0  0  0  0  0  0
  1  2  1  0  0  0  0
  2 12  2  0  0  0  0
  2  8  1  0  0  0  0
  3  5  2  0  0  0  0
  4 17  1  0  0  0  0
  4  1  1  0  0  0  0
  5 12  1  0  0  0  0
  6  7  1  0  0  0  0
  6 10  2  0  0  0  0
  8 11  2  0  0  0  0
  9  3  1  0  0  0  0
  9  1  2  0  0  0  0
 11 10  1  0  0  0  0
 11 19  1  0  0  0  0
 12  6  1  0  0  0  0
 14 15  1  0  0  0  0
 14  4  1  1  0  0  0
 15 13  1  1  0  0  0
 16 14  1  0  0  0  0
 16 15  1  0  0  0  0
 18 17  1  0  0  0  0
 19 20  1  0  0  0  0
 21 22  2  0  0  0  0
 21 20  1  0  0  0  0
 23 21  1  0  0  0  0
 24 25  1  0  0  0  0
 24 23  1  0  0  0  0
M  END
>  <MODEL>
4

>  <REMARK>
 VINA RESULT:      -6.0      2.779      5.501
  Name = 
  7 active torsions:
  status: ('A' for Active; 'I' for Inactive)
    1  A    between atoms: O_2  and  C_7
    2  A    between atoms: O_2  and  C_21
    3  A    between atoms: N_5  and  C_10
    4  A    between atoms: N_5  and  C_17
    5  A    between atoms: C_6  and  C_15
    6  A    between atoms: C_6  and  C_23
    7  A    between atoms: C_15  and  C_21
                            x       y       z     vdW  Elec       q    Type
                         _______ _______ _______ _____ _____    ______ ____

>  <TORSDO>
F 7

$$$$
=
 OpenBabel11052417353D

 25 27  0  0  1  0  0  0  0  0999 V2000
  187.3970  176.5550  141.8820 C   0  0  0  0  0  0  0  0  0  0  0  0
  186.8980  176.9010  143.1560 C   0  0  0  0  0  0  0  0  0  0  0  0
  185.6800  177.8470  140.8680 C   0  0  0  0  0  3  0  0  0  0  0  0
  188.5410  175.6930  141.7170 N   0  0  0  0  0  0  0  0  0  0  0  0
  185.1930  178.2020  142.0840 N   0  0  0  0  0  0  0  0  0  0  0  0
  185.2530  178.0970  144.4850 C   0  0  0  0  0  0  0  0  0  0  0  0
  184.0650  178.9900  144.6080 C   0  0  0  0  0  1  0  0  0  0  0  0
  187.4570  176.4110  144.3400 C   0  0  0  0  0  3  0  0  0  0  0  0
  186.7620  177.0330  140.7760 N   0  0  0  0  0  0  0  0  0  0  0  0
  185.8310  177.6060  145.6140 N   0  0  0  0  0  0  0  0  0  0  0  0
  186.9120  176.7830  145.5690 C   0  0  0  0  0  0  0  0  0  0  0  0
  185.7720  177.7480  143.2270 C   0  0  0  0  0  0  0  0  0  0  0  0
  187.8770  173.0520  142.1680 C   0  0  0  0  0  1  0  0  0  0  0  0
  188.6380  174.8740  140.5030 C   0  0  2  0  0  3  0  0  0  0  0  0
  188.2150  173.4120  140.7290 C   0  0  1  0  0  3  0  0  0  0  0  0
  189.6810  173.7780  140.6520 C   0  0  0  0  0  2  0  0  0  0  0  0
  189.7730  175.9880  142.4430 C   0  0  0  0  0  2  0  0  0  0  0  0
  190.0840  177.3430  142.3190 O   0  0  0  0  0  1  0  0  0  0  0  0
  187.4930  176.2490  146.8310 C   0  0  0  0  0  2  0  0  0  0  0  0
  188.9820  176.5360  146.8780 C   0  0  0  0  0  2  0  0  0  0  0  0
  189.7310  175.2720  147.1070 C   0  0  0  0  0  0  0  0  0  0  0  0
  190.7170  175.2660  147.8910 O   0  0  0  0  0  0  0  0  0  0  0  0
  189.3120  174.1010  146.4740 O   0  0  0  0  0  0  0  0  0  0  0  0
  189.9120  173.6460  145.2710 C   0  0  0  0  0  2  0  0  0  0  0  0
  189.6710  172.2230  145.1200 N   0  0  0  0  0  1  0  0  0  0  0  0
  1  2  1  0  0  0  0
  2 12  2  0  0  0  0
  2  8  1  0  0  0  0
  3  5  2  0  0  0  0
  4  1  1  0  0  0  0
  4 17  1  0  0  0  0
  5 12  1  0  0  0  0
  6  7  1  0  0  0  0
  6 10  2  0  0  0  0
  8 11  2  0  0  0  0
  9  3  1  0  0  0  0
  9  1  2  0  0  0  0
 11 10  1  0  0  0  0
 11 19  1  0  0  0  0
 12  6  1  0  0  0  0
 14 16  1  0  0  0  0
 14 15  1  0  0  0  0
 14  4  1  1  0  0  0
 15 13  1  1  0  0  0
 16 15  1  0  0  0  0
 18 17  1  0  0  0  0
 19 20  1  0  0  0  0
 20 21  1  0  0  0  0
 21 22  2  0  0  0  0
 23 21  1  0  0  0  0
 24 23  1  0  0  0  0
 25 24  1  0  0  0  0
M  END
>  <MODEL>
5

>  <REMARK>
 VINA RESULT:      -6.0      2.398      4.724
  Name = 
  7 active torsions:
  status: ('A' for Active; 'I' for Inactive)
    1  A    between atoms: O_2  and  C_7
    2  A    between atoms: O_2  and  C_21
    3  A    between atoms: N_5  and  C_10
    4  A    between atoms: N_5  and  C_17
    5  A    between atoms: C_6  and  C_15
    6  A    between atoms: C_6  and  C_23
    7  A    between atoms: C_15  and  C_21
                            x       y       z     vdW  Elec       q    Type
                         _______ _______ _______ _____ _____    ______ ____

>  <TORSDO>
F 7

$$$$
=
 OpenBabel11052417353D

 25 27  0  0  1  0  0  0  0  0999 V2000
  189.7870  174.5800  142.2570 C   0  0  0  0  0  0  0  0  0  0  0  0
  188.8750  175.5650  142.6940 C   0  0  0  0  0  0  0  0  0  0  0  0
  188.7160  174.5420  140.1360 C   0  0  0  0  0  3  0  0  0  0  0  0
  190.8210  174.0590  143.1160 N   0  0  0  0  0  0  0  0  0  0  0  0
  187.8390  175.4980  140.5330 N   0  0  0  0  0  0  0  0  0  0  0  0
  186.9690  176.9900  142.2060 C   0  0  0  0  0  0  0  0  0  0  0  0
  185.9140  177.4980  141.2830 C   0  0  0  0  0  1  0  0  0  0  0  0
  188.8920  176.0790  143.9940 C   0  0  0  0  0  3  0  0  0  0  0  0
  189.6700  174.0930  140.9900 N   0  0  0  0  0  0  0  0  0  0  0  0
  187.0240  177.4720  143.4770 N   0  0  0  0  0  0  0  0  0  0  0  0
  187.9580  177.0450  144.3680 C   0  0  0  0  0  0  0  0  0  0  0  0
  187.8920  176.0170  141.7890 C   0  0  0  0  0  0  0  0  0  0  0  0
  189.7060  172.2600  144.8900 C   0  0  0  0  0  1  0  0  0  0  0  0
  191.2950  172.6870  142.8980 C   0  0  2  0  0  3  0  0  0  0  0  0
  190.6370  171.6660  143.8430 C   0  0  1  0  0  3  0  0  0  0  0  0
  192.0440  172.1570  144.1100 C   0  0  0  0  0  2  0  0  0  0  0  0
  191.7050  174.9850  143.8190 C   0  0  0  0  0  2  0  0  0  0  0  0
  192.4050  175.7630  142.8970 O   0  0  0  0  0  1  0  0  0  0  0  0
  187.9600  177.5820  145.7560 C   0  0  0  0  0  2  0  0  0  0  0  0
  187.1810  176.6560  146.6720 C   0  0  0  0  0  2  0  0  0  0  0  0
  185.9190  177.3160  147.1000 C   0  0  0  0  0  0  0  0  0  0  0  0
  185.8470  177.8380  148.2450 O   0  0  0  0  0  0  0  0  0  0  0  0
  184.8420  177.3760  146.2160 O   0  0  0  0  0  0  0  0  0  0  0  0
  184.1160  178.5770  146.0010 C   0  0  0  0  0  2  0  0  0  0  0  0
  184.0790  178.8710  144.5810 N   0  0  0  0  0  1  0  0  0  0  0  0
  1  2  1  0  0  0  0
  1  4  1  0  0  0  0
  2  8  1  0  0  0  0
  3  5  2  0  0  0  0
  3  9  1  0  0  0  0
  4 17  1  0  0  0  0
  5 12  1  0  0  0  0
  6 10  2  0  0  0  0
  7  6  1  0  0  0  0
  8 11  2  0  0  0  0
  9  1  2  0  0  0  0
 10 11  1  0  0  0  0
 11 19  1  0  0  0  0
 12  6  1  0  0  0  0
 12  2  2  0  0  0  0
 14  4  1  1  0  0  0
 14 15  1  0  0  0  0
 14 16  1  0  0  0  0
 15 16  1  0  0  0  0
 15 13  1  1  0  0  0
 18 17  1  0  0  0  0
 19 20  1  0  0  0  0
 20 21  1  0  0  0  0
 21 22  2  0  0  0  0
 23 21  1  0  0  0  0
 24 23  1  0  0  0  0
 25 24  1  0  0  0  0
M  END
>  <MODEL>
6

>  <REMARK>
 VINA RESULT:      -5.7      2.087      2.886
  Name = 
  7 active torsions:
  status: ('A' for Active; 'I' for Inactive)
    1  A    between atoms: O_2  and  C_7
    2  A    between atoms: O_2  and  C_21
    3  A    between atoms: N_5  and  C_10
    4  A    between atoms: N_5  and  C_17
    5  A    between atoms: C_6  and  C_15
    6  A    between atoms: C_6  and  C_23
    7  A    between atoms: C_15  and  C_21
                            x       y       z     vdW  Elec       q    Type
                         _______ _______ _______ _____ _____    ______ ____

>  <TORSDO>
F 7

$$$$
=
 OpenBabel11052417353D

 25 27  0  0  1  0  0  0  0  0999 V2000
  188.6250  176.5110  146.0050 C   0  0  0  0  0  0  0  0  0  0  0  0
  187.8420  176.6320  144.8370 C   0  0  0  0  0  0  0  0  0  0  0  0
  187.0600  177.8590  147.1820 C   0  0  0  0  0  3  0  0  0  0  0  0
  189.8590  175.7650  146.0270 N   0  0  0  0  0  0  0  0  0  0  0  0
  186.2870  177.9740  146.0720 N   0  0  0  0  0  0  0  0  0  0  0  0
  185.8610  177.5240  143.7490 C   0  0  0  0  0  0  0  0  0  0  0  0
  184.5930  178.3070  143.7730 C   0  0  0  0  0  1  0  0  0  0  0  0
  188.2220  176.0630  143.6180 C   0  0  0  0  0  3  0  0  0  0  0  0
  188.2100  177.1400  147.1410 N   0  0  0  0  0  0  0  0  0  0  0  0
  186.2610  176.9470  142.5840 N   0  0  0  0  0  0  0  0  0  0  0  0
  187.4100  176.2250  142.4960 C   0  0  0  0  0  0  0  0  0  0  0  0
  186.6500  177.3830  144.9030 C   0  0  0  0  0  0  0  0  0  0  0  0
  192.0900  176.7880  144.7620 C   0  0  0  0  0  1  0  0  0  0  0  0
  190.9080  176.1640  146.9730 C   0  0  2  0  0  3  0  0  0  0  0  0
  192.1330  176.7880  146.2840 C   0  0  1  0  0  3  0  0  0  0  0  0
  192.1780  175.3550  146.7680 C   0  0  0  0  0  2  0  0  0  0  0  0
  189.8780  174.3960  145.5200 C   0  0  0  0  0  2  0  0  0  0  0  0
  189.3150  173.5340  146.4610 O   0  0  0  0  0  1  0  0  0  0  0  0
  187.8190  175.6370  141.1910 C   0  0  0  0  0  2  0  0  0  0  0  0
  188.9440  174.6400  141.4020 C   0  0  0  0  0  2  0  0  0  0  0  0
  188.4640  173.2680  141.0890 C   0  0  0  0  0  0  0  0  0  0  0  0
  188.2780  172.9320  139.8880 O   0  0  0  0  0  0  0  0  0  0  0  0
  188.2550  172.3600  142.1270 O   0  0  0  0  0  0  0  0  0  0  0  0
  189.3160  171.9150  142.9580 C   0  0  0  0  0  2  0  0  0  0  0  0
  190.1180  170.9440  142.2380 N   0  0  0  0  0  1  0  0  0  0  0  0
  1  4  1  0  0  0  0
  1  9  1  0  0  0  0
  2 12  1  0  0  0  0
  2  1  2  0  0  0  0
  5  3  1  0  0  0  0
  6  7  1  0  0  0  0
  6 12  1  0  0  0  0
  8  2  1  0  0  0  0
  9  3  2  0  0  0  0
 10  6  2  0  0  0  0
 11 10  1  0  0  0  0
 11  8  2  0  0  0  0
 12  5  2  0  0  0  0
 14  4  1  6  0  0  0
 15 13  1  6  0  0  0
 15 16  1  0  0  0  0
 15 14  1  0  0  0  0
 16 14  1  0  0  0  0
 17  4  1  0  0  0  0
 17 18  1  0  0  0  0
 19 20  1  0  0  0  0
 19 11  1  0  0  0  0
 21 20  1  0  0  0  0
 21 23  1  0  0  0  0
 22 21  2  0  0  0  0
 23 24  1  0  0  0  0
 25 24  1  0  0  0  0
M  END
>  <MODEL>
7

>  <REMARK>
 VINA RESULT:      -5.5      2.942      5.507
  Name = 
  7 active torsions:
  status: ('A' for Active; 'I' for Inactive)
    1  A    between atoms: O_2  and  C_7
    2  A    between atoms: O_2  and  C_21
    3  A    between atoms: N_5  and  C_10
    4  A    between atoms: N_5  and  C_17
    5  A    between atoms: C_6  and  C_15
    6  A    between atoms: C_6  and  C_23
    7  A    between atoms: C_15  and  C_21
                            x       y       z     vdW  Elec       q    Type
                         _______ _______ _______ _____ _____    ______ ____

>  <TORSDO>
F 7

$$$$
=
 OpenBabel11052417353D

 25 27  0  0  1  0  0  0  0  0999 V2000
  191.4180  175.3770  145.4100 C   0  0  0  0  0  0  0  0  0  0  0  0
  190.1020  175.8200  145.1580 C   0  0  0  0  0  0  0  0  0  0  0  0
  191.3110  176.3300  147.5850 C   0  0  0  0  0  3  0  0  0  0  0  0
  192.1880  174.6610  144.4230 N   0  0  0  0  0  0  0  0  0  0  0  0
  190.0400  176.7510  147.3660 N   0  0  0  0  0  0  0  0  0  0  0  0
  188.1140  176.9740  145.9440 C   0  0  0  0  0  0  0  0  0  0  0  0
  187.3560  177.7120  146.9950 C   0  0  0  0  0  1  0  0  0  0  0  0
  189.4660  175.6210  143.9280 C   0  0  0  0  0  3  0  0  0  0  0  0
  191.9850  175.6580  146.6170 N   0  0  0  0  0  0  0  0  0  0  0  0
  187.5260  176.7520  144.7380 N   0  0  0  0  0  0  0  0  0  0  0  0
  188.1670  176.0900  143.7370 C   0  0  0  0  0  0  0  0  0  0  0  0
  189.4220  176.5160  146.1780 C   0  0  0  0  0  0  0  0  0  0  0  0
  193.1320  176.4440  142.5380 C   0  0  0  0  0  1  0  0  0  0  0  0
  193.6500  174.7810  144.4460 C   0  0  2  0  0  3  0  0  0  0  0  0
  194.1850  175.8140  143.4390 C   0  0  1  0  0  3  0  0  0  0  0  0
  194.2660  174.3350  143.1290 C   0  0  0  0  0  2  0  0  0  0  0  0
  191.6060  173.4920  143.7700 C   0  0  0  0  0  2  0  0  0  0  0  0
  191.6310  172.4020  144.6410 O   0  0  0  0  0  1  0  0  0  0  0  0
  187.4930  175.8970  142.4240 C   0  0  0  0  0  2  0  0  0  0  0  0
  187.7450  177.0970  141.5310 C   0  0  0  0  0  2  0  0  0  0  0  0
  186.5150  177.9310  141.4510 C   0  0  0  0  0  0  0  0  0  0  0  0
  185.6400  177.6680  140.5840 O   0  0  0  0  0  0  0  0  0  0  0  0
  186.3340  178.9760  142.3580 O   0  0  0  0  0  0  0  0  0  0  0  0
  185.2080  179.0320  143.2200 C   0  0  0  0  0  2  0  0  0  0  0  0
  185.5750  179.7030  144.4520 N   0  0  0  0  0  1  0  0  0  0  0  0
  1  9  1  0  0  0  0
  2  1  2  0  0  0  0
  2 12  1  0  0  0  0
  4  1  1  0  0  0  0
  5  3  1  0  0  0  0
  6 12  1  0  0  0  0
  6  7  1  0  0  0  0
  8  2  1  0  0  0  0
  9  3  2  0  0  0  0
 10  6  2  0  0  0  0
 11  8  2  0  0  0  0
 11 10  1  0  0  0  0
 12  5  2  0  0  0  0
 14  4  1  6  0  0  0
 15 13  1  6  0  0  0
 15 14  1  0  0  0  0
 16 15  1  0  0  0  0
 16 14  1  0  0  0  0
 17  4  1  0  0  0  0
 17 18  1  0  0  0  0
 19 11  1  0  0  0  0
 20 19  1  0  0  0  0
 21 20  1  0  0  0  0
 21 23  1  0  0  0  0
 22 21  2  0  0  0  0
 23 24  1  0  0  0  0
 24 25  1  0  0  0  0
M  END
>  <MODEL>
8

>  <REMARK>
 VINA RESULT:      -5.4      3.013      5.060
  Name = 
  7 active torsions:
  status: ('A' for Active; 'I' for Inactive)
    1  A    between atoms: O_2  and  C_7
    2  A    between atoms: O_2  and  C_21
    3  A    between atoms: N_5  and  C_10
    4  A    between atoms: N_5  and  C_17
    5  A    between atoms: C_6  and  C_15
    6  A    between atoms: C_6  and  C_23
    7  A    between atoms: C_15  and  C_21
                            x       y       z     vdW  Elec       q    Type
                         _______ _______ _______ _____ _____    ______ ____

>  <TORSDO>
F 7

$$$$
=
 OpenBabel11052417353D

 25 27  0  0  1  0  0  0  0  0999 V2000
  191.5180  174.5360  144.5850 C   0  0  0  0  0  0  0  0  0  0  0  0
  190.6850  174.2680  143.4780 C   0  0  0  0  0  0  0  0  0  0  0  0
  192.7240  172.5340  144.1500 C   0  0  0  0  0  3  0  0  0  0  0  0
  191.3400  175.7020  145.4140 N   0  0  0  0  0  0  0  0  0  0  0  0
  191.9410  172.2670  143.0740 N   0  0  0  0  0  0  0  0  0  0  0  0
  190.1040  172.8120  141.6220 C   0  0  0  0  0  0  0  0  0  0  0  0
  190.3250  171.5920  140.7940 C   0  0  0  0  0  1  0  0  0  0  0  0
  189.6140  175.0960  143.1280 C   0  0  0  0  0  3  0  0  0  0  0  0
  192.5080  173.6500  144.8910 N   0  0  0  0  0  0  0  0  0  0  0  0
  189.0780  173.6470  141.3080 N   0  0  0  0  0  0  0  0  0  0  0  0
  188.8210  174.7730  142.0270 C   0  0  0  0  0  0  0  0  0  0  0  0
  190.9280  173.1020  142.7220 C   0  0  0  0  0  0  0  0  0  0  0  0
  189.2400  175.0480  147.0830 C   0  0  0  0  0  1  0  0  0  0  0  0
  191.7420  175.6340  146.8240 C   0  0  2  0  0  3  0  0  0  0  0  0
  190.5940  175.2140  147.7580 C   0  0  1  0  0  3  0  0  0  0  0  0
  191.0070  176.6670  147.6630 C   0  0  0  0  0  2  0  0  0  0  0  0
  191.2510  177.0190  144.7900 C   0  0  0  0  0  2  0  0  0  0  0  0
  192.4350  177.3020  144.1100 O   0  0  0  0  0  1  0  0  0  0  0  0
  187.6690  175.6410  141.6610 C   0  0  0  0  0  2  0  0  0  0  0  0
  187.9280  177.0650  142.1170 C   0  0  0  0  0  2  0  0  0  0  0  0
  186.8520  177.9590  141.6100 C   0  0  0  0  0  0  0  0  0  0  0  0
  186.5080  177.8940  140.4000 O   0  0  0  0  0  0  0  0  0  0  0  0
  186.2180  178.8370  142.4900 O   0  0  0  0  0  0  0  0  0  0  0  0
  184.8810  178.6300  142.9190 C   0  0  0  0  0  2  0  0  0  0  0  0
  184.8840  178.0510  144.2480 N   0  0  0  0  0  1  0  0  0  0  0  0
  1  9  1  0  0  0  0
  1  4  1  0  0  0  0
  2  1  2  0  0  0  0
  3  9  2  0  0  0  0
  5  3  1  0  0  0  0
  6 12  1  0  0  0  0
  7  6  1  0  0  0  0
  8  2  1  0  0  0  0
 10  6  2  0  0  0  0
 10 11  1  0  0  0  0
 11  8  2  0  0  0  0
 12  5  2  0  0  0  0
 12  2  1  0  0  0  0
 14  4  1  6  0  0  0
 14 16  1  0  0  0  0
 14 15  1  0  0  0  0
 15 13  1  6  0  0  0
 16 15  1  0  0  0  0
 17  4  1  0  0  0  0
 18 17  1  0  0  0  0
 19 11  1  0  0  0  0
 19 20  1  0  0  0  0
 21 20  1  0  0  0  0
 21 23  1  0  0  0  0
 22 21  2  0  0  0  0
 23 24  1  0  0  0  0
 24 25  1  0  0  0  0
M  END
>  <MODEL>
9

>  <REMARK>
 VINA RESULT:      -5.3      2.632      4.652
  Name = 
  7 active torsions:
  status: ('A' for Active; 'I' for Inactive)
    1  A    between atoms: O_2  and  C_7
    2  A    between atoms: O_2  and  C_21
    3  A    between atoms: N_5  and  C_10
    4  A    between atoms: N_5  and  C_17
    5  A    between atoms: C_6  and  C_15
    6  A    between atoms: C_6  and  C_23
    7  A    between atoms: C_15  and  C_21
                            x       y       z     vdW  Elec       q    Type
                         _______ _______ _______ _____ _____    ______ ____

>  <TORSDO>
F 7

$$$$
