=
 OpenBabel11052419513D

 55 57  0  0  1  0  0  0  0  0999 V2000
  192.2800  174.5600  141.3250 O   0  0  0  0  0  0  0  0  0  0  0  0
  191.9310  172.3190  140.7400 N   0  0  0  0  0  0  0  0  0  0  0  0
  192.6590  173.3620  141.4260 C   0  0  0  0  0  0  0  0  0  0  0  0
  190.5760  172.5910  140.2240 C   0  0  2  0  0  3  0  0  0  0  0  0
  190.6210  173.4480  138.9590 C   0  0  0  0  0  1  0  0  0  0  0  0
  189.3360  172.1370  142.3580 C   0  0  0  0  0  1  0  0  0  0  0  0
  189.6170  173.1710  141.2800 C   0  0  2  0  0  3  0  0  0  0  0  0
  188.3070  173.6670  140.6680 C   0  0  0  0  0  2  0  0  0  0  0  0
  187.9930  175.0930  141.1010 C   0  0  0  0  0  2  0  0  0  0  0  0
  189.1320  175.6760  141.9270 C   0  0  0  0  0  2  0  0  0  0  0  0
  188.7040  175.8960  143.3740 C   0  0  1  0  0  3  0  0  0  0  0  0
  191.0070  176.8780  143.6040 C   0  0  0  0  0  3  0  0  0  0  0  0
  192.6230  175.9430  145.1910 C   0  0  0  0  0  0  0  0  0  0  0  0
  190.4650  174.7700  144.8590 C   0  0  0  0  0  2  0  0  0  0  0  0
  191.7550  175.0030  145.5940 C   0  0  0  0  0  3  0  0  0  0  0  0
  192.2620  176.8290  144.0600 C   0  0  0  0  0  3  0  0  0  0  0  0
  189.9210  176.0900  144.2870 C   0  0  2  0  0  3  0  0  0  0  0  0
  193.9170  176.1040  145.8820 C   0  0  0  0  0  0  0  0  0  0  0  0
  194.4080  175.1500  146.5410 O   0  0  0  0  0  0  0  0  0  0  0  0
  194.8200  177.6490  145.8030 S   0  0  0  0  0  1  0  0  0  0  0  0
  187.7190  177.0550  143.4420 C   0  0  0  0  0  2  0  0  0  0  0  0
  186.3810  176.5760  143.9770 C   0  0  0  0  0  2  0  0  0  0  0  0
  184.7010  177.7990  145.3680 C   0  0  0  0  0  3  0  0  0  0  0  0
  186.6420  178.3790  147.2980 C   0  0  0  0  0  0  0  0  0  0  0  0
  186.9870  177.6440  146.1580 C   0  0  0  0  0  3  0  0  0  0  0  0
  184.3570  178.5350  146.5050 C   0  0  0  0  0  3  0  0  0  0  0  0
  186.0150  177.3470  145.1950 C   0  0  0  0  0  0  0  0  0  0  0  0
  187.5830  178.6690  148.2270 F   0  0  0  0  0  0  0  0  0  0  0  0
  185.3270  178.8250  147.4700 C   0  0  0  0  0  3  0  0  0  0  0  0
  192.6000  171.0550  140.4340 C   0  0  0  0  0  2  0  0  0  0  0  0
  192.3410  169.0230  139.6070 C   0  0  0  0  0  1  0  0  0  0  0  0
  191.6460  170.0540  140.2410 O   0  0  0  0  0  0  0  0  0  0  0  0
  193.8760  173.0780  142.2680 C   0  0  2  0  0  3  0  0  0  0  0  0
  194.3750  171.4880  145.7800 C   0  0  0  0  0  1  0  0  0  0  0  0
  192.7510  171.4730  143.8160 C   0  0  0  0  0  2  0  0  0  0  0  0
  194.1820  171.5690  144.2800 C   0  0  1  0  0  0  0  0  0  0  0  0
  193.4950  172.8030  143.7190 C   0  0  1  0  0  3  0  0  0  0  0  0
  195.0840  170.8880  143.4570 O   0  0  0  0  0  1  0  0  0  0  0  0
  194.9250  174.1920  142.1900 C   0  0  0  0  0  2  0  0  0  0  0  0
  196.2530  173.7600  141.5530 C   0  0  2  0  0  0  0  0  0  0  0  0
  196.1810  176.2740  140.8680 C   0  0  0  0  0  1  0  0  0  0  0  0
  196.5800  174.8500  140.4870 C   0  0  2  0  0  3  0  0  0  0  0  0
  196.0970  174.4760  139.0750 C   0  0  1  0  0  3  0  0  0  0  0  0
  195.0440  175.2990  138.6600 O   0  0  0  0  0  1  0  0  0  0  0  0
  197.5250  175.6130  137.5420 O   0  0  0  0  0  0  0  0  0  0  0  0
  197.2110  174.5200  138.0810 C   0  0  0  0  0  0  0  0  0  0  0  0
  197.9020  173.3610  137.7420 O   0  0  0  0  0  1  0  0  0  0  0  0
  195.9740  172.3810  140.9160 C   0  0  0  0  0  2  0  0  0  0  0  0
  197.1120  171.5760  140.8300 O   0  0  0  0  0  0  0  0  0  0  0  0
  196.8030  170.6380  139.8490 C   0  0  0  0  0  2  0  0  0  0  0  0
  196.5890  169.2840  140.4930 C   0  0  0  0  0  1  0  0  0  0  0  0
  197.2220  173.6930  142.5920 O   0  0  0  0  0  0  0  0  0  0  0  0
  196.7840  174.4230  143.6510 N   0  0  0  0  0  2  0  0  0  0  0  0
  197.2370  173.7430  144.8530 C   0  0  0  0  0  2  0  0  0  0  0  0
  197.9370  172.4500  144.4850 C   0  0  0  0  0  1  0  0  0  0  0  0
  1  3  2  0  0  0  0
  2  3  1  0  0  0  0
  3 33  1  0  0  0  0
  4  5  1  6  0  0  0
  4  2  1  0  0  0  0
  4  7  1  0  0  0  0
  7  6  1  1  0  0  0
  8  9  1  0  0  0  0
  8  7  1  0  0  0  0
  9 10  1  0  0  0  0
 11 10  1  6  0  0  0
 11 21  1  0  0  0  0
 12 16  2  0  0  0  0
 12 17  1  0  0  0  0
 13 15  2  0  0  0  0
 13 18  1  0  0  0  0
 14 15  1  0  0  0  0
 16 13  1  0  0  0  0
 17 11  1  6  0  0  0
 17 14  1  0  0  0  0
 18 19  2  0  0  0  0
 20 18  1  0  0  0  0
 21 22  1  0  0  0  0
 22 27  1  0  0  0  0
 23 26  1  0  0  0  0
 24 29  1  0  0  0  0
 24 28  1  0  0  0  0
 25 24  2  0  0  0  0
 26 29  2  0  0  0  0
 27 23  2  0  0  0  0
 27 25  1  0  0  0  0
 30  2  1  0  0  0  0
 31 32  1  0  0  0  0
 32 30  1  0  0  0  0
 33 39  1  1  0  0  0
 35 36  1  0  0  0  0
 36 34  1  1  0  0  0
 37 33  1  6  0  0  0
 37 35  1  0  0  0  0
 37 36  1  0  0  0  0
 38 36  1  0  0  0  0
 40 48  1  6  0  0  0
 40 39  1  0  0  0  0
 40 52  1  0  0  0  0
 42 41  1  1  0  0  0
 42 40  1  0  0  0  0
 43 44  1  6  0  0  0
 43 42  1  0  0  0  0
 45 46  2  0  0  0  0
 46 43  1  0  0  0  0
 47 46  1  0  0  0  0
 49 48  1  0  0  0  0
 50 51  1  0  0  0  0
 50 49  1  0  0  0  0
 52 53  1  0  0  0  0
 53 54  1  0  0  0  0
 55 54  1  0  0  0  0
M  END
>  <MODEL>
1

>  <REMARK>
 VINA RESULT:      -5.0      0.000      0.000
  Name = 
  26 active torsions:
  status: ('A' for Active; 'I' for Inactive)
    1  A    between atoms: C_1  and  N_30
    2  A    between atoms: C_2  and  C_28
    3  A    between atoms: C_2  and  C_44
    4  A    between atoms: C_6  and  C_8
    5  A    between atoms: C_6  and  O_20
    6  A    between atoms: C_6  and  C_38
    7  A    between atoms: C_6  and  C_46
    8  A    between atoms: C_7  and  C_8
    9  A    between atoms: C_7  and  C_23
   10  A    between atoms: C_7  and  C_43
   11  A    between atoms: C_10  and  C_32
   12  A    between atoms: C_11  and  C_29
   13  A    between atoms: C_11  and  C_38
   14  A    between atoms: C_12  and  O_14
   15  A    between atoms: O_14  and  C_46
   16  A    between atoms: C_16  and  N_17
   17  A    between atoms: C_16  and  C_26
   18  A    between atoms: N_17  and  C_37
   19  A    between atoms: C_19  and  C_45
   20  A    between atoms: C_19  and  C_49
   21  A    between atoms: O_20  and  N_30
   22  A    between atoms: C_26  and  C_45
   23  A    between atoms: C_28  and  C_33
   24  A    between atoms: C_33  and  C_49
   25  A    between atoms: C_33  and  C_52
   26  A    between atoms: C_37  and  O_40
                            x       y       z     vdW  Elec       q    Type
                         _______ _______ _______ _____ _____    ______ ____

>  <TORSDO>
F 26

$$$$
=
 OpenBabel11052419513D

 55 57  0  0  1  0  0  0  0  0999 V2000
  193.2420  172.5920  144.9750 O   0  0  0  0  0  0  0  0  0  0  0  0
  194.6640  174.1990  144.0350 N   0  0  0  0  0  0  0  0  0  0  0  0
  194.2740  172.8320  144.2920 C   0  0  0  0  0  0  0  0  0  0  0  0
  193.6950  175.2900  144.2580 C   0  0  2  0  0  3  0  0  0  0  0  0
  193.3230  175.9830  142.9470 C   0  0  0  0  0  1  0  0  0  0  0  0
  194.9230  175.5850  146.4260 C   0  0  0  0  0  1  0  0  0  0  0  0
  194.1340  176.2950  145.3390 C   0  0  2  0  0  3  0  0  0  0  0  0
  192.9510  177.0480  145.9480 C   0  0  0  0  0  2  0  0  0  0  0  0
  192.3340  176.2760  147.1070 C   0  0  0  0  0  2  0  0  0  0  0  0
  191.1090  175.4960  146.6520 C   0  0  0  0  0  2  0  0  0  0  0  0
  190.1510  176.3870  145.8680 C   0  0  1  0  0  3  0  0  0  0  0  0
  190.0880  174.2330  144.5710 C   0  0  0  0  0  3  0  0  0  0  0  0
  189.4030  174.1980  142.2180 C   0  0  0  0  0  0  0  0  0  0  0  0
  189.6640  176.3890  143.3500 C   0  0  0  0  0  2  0  0  0  0  0  0
  189.2110  175.5260  142.2050 C   0  0  0  0  0  3  0  0  0  0  0  0
  189.9850  173.5600  143.4210 C   0  0  0  0  0  3  0  0  0  0  0  0
  189.5380  175.6300  144.6820 C   0  0  2  0  0  3  0  0  0  0  0  0
  189.0180  173.3810  141.0510 C   0  0  0  0  0  0  0  0  0  0  0  0
  187.9670  172.6890  141.0790 O   0  0  0  0  0  0  0  0  0  0  0  0
  190.0290  173.3510  139.5730 S   0  0  0  0  0  1  0  0  0  0  0  0
  189.1040  176.9620  146.8110 C   0  0  0  0  0  2  0  0  0  0  0  0
  187.8510  176.1060  146.7890 C   0  0  0  0  0  2  0  0  0  0  0  0
  186.0710  177.6470  147.6300 C   0  0  0  0  0  3  0  0  0  0  0  0
  184.9670  177.8570  145.0680 C   0  0  0  0  0  0  0  0  0  0  0  0
  186.0980  177.0610  145.2790 C   0  0  0  0  0  3  0  0  0  0  0  0
  184.9400  178.4400  147.4200 C   0  0  0  0  0  3  0  0  0  0  0  0
  186.6550  176.9600  146.5600 C   0  0  0  0  0  0  0  0  0  0  0  0
  184.4260  177.9510  143.8310 F   0  0  0  0  0  0  0  0  0  0  0  0
  184.3880  178.5460  146.1390 C   0  0  0  0  0  3  0  0  0  0  0  0
  196.0540  174.5020  143.7000 C   0  0  0  0  0  2  0  0  0  0  0  0
  197.4610  175.7900  142.5870 C   0  0  0  0  0  1  0  0  0  0  0  0
  196.1010  175.5790  142.8140 O   0  0  0  0  0  0  0  0  0  0  0  0
  195.0630  171.6570  143.7760 C   0  0  2  0  0  3  0  0  0  0  0  0
  197.9400  169.4650  145.2040 C   0  0  0  0  0  1  0  0  0  0  0  0
  195.8830  170.7660  145.9610 C   0  0  0  0  0  2  0  0  0  0  0  0
  196.5270  169.9170  144.8950 C   0  0  1  0  0  0  0  0  0  0  0  0
  196.2970  171.3970  144.6340 C   0  0  1  0  0  3  0  0  0  0  0  0
  195.6520  169.0020  144.3030 O   0  0  0  0  0  1  0  0  0  0  0  0
  195.4540  171.8050  142.3020 C   0  0  0  0  0  2  0  0  0  0  0  0
  194.3570  171.3840  141.3150 C   0  0  2  0  0  0  0  0  0  0  0  0
  195.2940  169.0070  140.7960 C   0  0  0  0  0  1  0  0  0  0  0  0
  195.0530  170.4310  140.2970 C   0  0  2  0  0  3  0  0  0  0  0  0
  196.3170  171.0400  139.6670 C   0  0  1  0  0  3  0  0  0  0  0  0
  197.4580  170.2970  139.9900 O   0  0  0  0  0  1  0  0  0  0  0  0
  195.0790  171.4920  137.6810 O   0  0  0  0  0  1  0  0  0  0  0  0
  196.1870  171.1720  138.1850 C   0  0  0  0  0  0  0  0  0  0  0  0
  197.2790  170.9390  137.3560 O   0  0  0  0  0  0  0  0  0  0  0  0
  193.8740  172.6950  140.6550 C   0  0  0  0  0  2  0  0  0  0  0  0
  194.8850  173.6490  140.5270 O   0  0  0  0  0  0  0  0  0  0  0  0
  194.3740  174.5820  139.6280 C   0  0  0  0  0  2  0  0  0  0  0  0
  195.4410  174.9480  138.6180 C   0  0  0  0  0  1  0  0  0  0  0  0
  193.3330  170.7430  142.0650 O   0  0  0  0  0  0  0  0  0  0  0  0
  192.2040  170.6840  141.3100 N   0  0  0  0  0  2  0  0  0  0  0  0
  191.1550  170.1400  142.1560 C   0  0  0  0  0  2  0  0  0  0  0  0
  190.7940  168.7400  141.6990 C   0  0  0  0  0  1  0  0  0  0  0  0
  2  4  1  0  0  0  0
  2  3  1  0  0  0  0
  3  1  2  0  0  0  0
  4  5  1  6  0  0  0
  4  7  1  0  0  0  0
  7  8  1  0  0  0  0
  7  6  1  1  0  0  0
  8  9  1  0  0  0  0
 10  9  1  0  0  0  0
 11 10  1  1  0  0  0
 11 21  1  0  0  0  0
 12 17  1  0  0  0  0
 13 16  1  0  0  0  0
 14 17  1  0  0  0  0
 15 13  2  0  0  0  0
 15 14  1  0  0  0  0
 16 12  2  0  0  0  0
 17 11  1  1  0  0  0
 18 19  2  0  0  0  0
 18 13  1  0  0  0  0
 20 18  1  0  0  0  0
 22 21  1  0  0  0  0
 24 25  2  0  0  0  0
 24 29  1  0  0  0  0
 25 27  1  0  0  0  0
 26 23  1  0  0  0  0
 27 22  1  0  0  0  0
 27 23  2  0  0  0  0
 28 24  1  0  0  0  0
 29 26  2  0  0  0  0
 30  2  1  0  0  0  0
 31 32  1  0  0  0  0
 32 30  1  0  0  0  0
 33 39  1  6  0  0  0
 33  3  1  0  0  0  0
 36 34  1  1  0  0  0
 36 35  1  0  0  0  0
 37 33  1  6  0  0  0
 37 36  1  0  0  0  0
 37 35  1  0  0  0  0
 38 36  1  0  0  0  0
 40 48  1  6  0  0  0
 40 52  1  0  0  0  0
 40 39  1  0  0  0  0
 42 41  1  1  0  0  0
 42 40  1  0  0  0  0
 43 44  1  6  0  0  0
 43 42  1  0  0  0  0
 45 46  1  0  0  0  0
 46 43  1  0  0  0  0
 47 46  2  0  0  0  0
 49 48  1  0  0  0  0
 50 49  1  0  0  0  0
 51 50  1  0  0  0  0
 53 52  1  0  0  0  0
 53 54  1  0  0  0  0
 55 54  1  0  0  0  0
M  END
>  <MODEL>
2

>  <REMARK>
 VINA RESULT:      -4.7      2.314      5.065
  Name = 
  26 active torsions:
  status: ('A' for Active; 'I' for Inactive)
    1  A    between atoms: C_1  and  N_30
    2  A    between atoms: C_2  and  C_28
    3  A    between atoms: C_2  and  C_44
    4  A    between atoms: C_6  and  C_8
    5  A    between atoms: C_6  and  O_20
    6  A    between atoms: C_6  and  C_38
    7  A    between atoms: C_6  and  C_46
    8  A    between atoms: C_7  and  C_8
    9  A    between atoms: C_7  and  C_23
   10  A    between atoms: C_7  and  C_43
   11  A    between atoms: C_10  and  C_32
   12  A    between atoms: C_11  and  C_29
   13  A    between atoms: C_11  and  C_38
   14  A    between atoms: C_12  and  O_14
   15  A    between atoms: O_14  and  C_46
   16  A    between atoms: C_16  and  N_17
   17  A    between atoms: C_16  and  C_26
   18  A    between atoms: N_17  and  C_37
   19  A    between atoms: C_19  and  C_45
   20  A    between atoms: C_19  and  C_49
   21  A    between atoms: O_20  and  N_30
   22  A    between atoms: C_26  and  C_45
   23  A    between atoms: C_28  and  C_33
   24  A    between atoms: C_33  and  C_49
   25  A    between atoms: C_33  and  C_52
   26  A    between atoms: C_37  and  O_40
                            x       y       z     vdW  Elec       q    Type
                         _______ _______ _______ _____ _____    ______ ____

>  <TORSDO>
F 26

$$$$
=
 OpenBabel11052419513D

 55 57  0  0  1  0  0  0  0  0999 V2000
  193.4660  171.5540  141.1480 O   0  0  0  0  0  0  0  0  0  0  0  0
  191.5220  172.6650  140.4590 N   0  0  0  0  0  0  0  0  0  0  0  0
  192.7910  172.0260  140.1940 C   0  0  0  0  0  0  0  0  0  0  0  0
  190.8590  172.4620  141.7610 C   0  0  2  0  0  3  0  0  0  0  0  0
  189.8240  171.3400  141.6930 C   0  0  0  0  0  1  0  0  0  0  0  0
  190.6530  173.8670  143.8300 C   0  0  0  0  0  1  0  0  0  0  0  0
  190.2730  173.7520  142.3640 C   0  0  2  0  0  3  0  0  0  0  0  0
  188.7550  173.8330  142.2020 C   0  0  0  0  0  2  0  0  0  0  0  0
  188.1780  175.0380  142.9330 C   0  0  0  0  0  2  0  0  0  0  0  0
  188.7510  176.3360  142.3810 C   0  0  0  0  0  2  0  0  0  0  0  0
  187.9570  177.5410  142.8740 C   0  0  1  0  0  3  0  0  0  0  0  0
  186.2320  177.6920  141.0510 C   0  0  0  0  0  3  0  0  0  0  0  0
  183.8840  178.1610  141.5750 C   0  0  0  0  0  0  0  0  0  0  0  0
  185.5550  178.2630  143.4030 C   0  0  0  0  0  2  0  0  0  0  0  0
  184.1420  178.2360  142.8890 C   0  0  0  0  0  3  0  0  0  0  0  0
  185.0060  178.0070  140.6200 C   0  0  0  0  0  3  0  0  0  0  0  0
  186.4720  177.4110  142.5110 C   0  0  2  0  0  3  0  0  0  0  0  0
  182.4910  178.2120  141.0880 C   0  0  0  0  0  0  0  0  0  0  0  0
  182.1930  177.7280  139.9650 O   0  0  0  0  0  0  0  0  0  0  0  0
  181.1960  178.9590  142.0740 S   0  0  0  0  0  1  0  0  0  0  0  0
  188.1900  177.7270  144.3670 C   0  0  0  0  0  2  0  0  0  0  0  0
  189.6720  177.8930  144.6500 C   0  0  0  0  0  2  0  0  0  0  0  0
  191.4550  176.8180  146.0360 C   0  0  0  0  0  3  0  0  0  0  0  0
  189.5630  175.1960  147.3080 C   0  0  0  0  0  0  0  0  0  0  0  0
  189.1560  176.1100  146.3300 C   0  0  0  0  0  3  0  0  0  0  0  0
  191.8620  175.9030  147.0110 C   0  0  0  0  0  3  0  0  0  0  0  0
  190.1000  176.9270  145.6980 C   0  0  0  0  0  0  0  0  0  0  0  0
  188.6500  174.4030  147.9160 F   0  0  0  0  0  0  0  0  0  0  0  0
  190.9160  175.0920  147.6470 C   0  0  0  0  0  3  0  0  0  0  0  0
  190.9820  173.6220  139.4950 C   0  0  0  0  0  2  0  0  0  0  0  0
  189.6530  173.7960  137.7390 C   0  0  0  0  0  1  0  0  0  0  0  0
  189.7950  173.1250  138.9530 O   0  0  0  0  0  0  0  0  0  0  0  0
  193.3570  171.9000  138.8030 C   0  0  2  0  0  3  0  0  0  0  0  0
  192.6360  169.2180  136.0820 C   0  0  0  0  0  1  0  0  0  0  0  0
  191.7700  170.0280  138.3380 C   0  0  0  0  0  2  0  0  0  0  0  0
  192.3920  170.3880  137.0130 C   0  0  1  0  0  0  0  0  0  0  0  0
  193.2290  170.4730  138.2790 C   0  0  1  0  0  3  0  0  0  0  0  0
  191.9010  171.5780  136.4690 O   0  0  0  0  0  1  0  0  0  0  0  0
  194.8090  172.3800  138.7070 C   0  0  0  0  0  2  0  0  0  0  0  0
  194.9870  173.6890  137.9260 C   0  0  2  0  0  0  0  0  0  0  0  0
  197.0770  175.0900  138.6100 C   0  0  0  0  0  1  0  0  0  0  0  0
  195.6390  174.6880  138.9300 C   0  0  2  0  0  3  0  0  0  0  0  0
  195.4750  174.2610  140.3990 C   0  0  1  0  0  3  0  0  0  0  0  0
  196.7140  174.1340  141.0350 O   0  0  0  0  0  1  0  0  0  0  0  0
  194.6410  176.4370  140.9000 O   0  0  0  0  0  0  0  0  0  0  0  0
  194.5980  175.2050  141.1550 C   0  0  0  0  0  0  0  0  0  0  0  0
  193.7390  174.7350  142.1420 O   0  0  0  0  0  1  0  0  0  0  0  0
  193.5620  174.1180  137.5130 C   0  0  0  0  0  2  0  0  0  0  0  0
  193.3760  174.1440  136.1300 O   0  0  0  0  0  0  0  0  0  0  0  0
  192.4980  175.2030  135.9140 C   0  0  0  0  0  2  0  0  0  0  0  0
  193.2320  176.5140  136.1000 C   0  0  0  0  0  1  0  0  0  0  0  0
  195.8170  173.4080  136.8060 O   0  0  0  0  0  0  0  0  0  0  0  0
  196.2970  172.1420  136.9200 N   0  0  0  0  0  2  0  0  0  0  0  0
  196.6920  171.7160  135.5880 C   0  0  0  0  0  2  0  0  0  0  0  0
  196.1930  170.3090  135.3230 C   0  0  0  0  0  1  0  0  0  0  0  0
  2  4  1  0  0  0  0
  3  2  1  0  0  0  0
  3  1  2  0  0  0  0
  4  5  1  6  0  0  0
  4  7  1  0  0  0  0
  7  6  1  1  0  0  0
  8  7  1  0  0  0  0
  8  9  1  0  0  0  0
 10  9  1  0  0  0  0
 11 10  1  1  0  0  0
 11 21  1  0  0  0  0
 12 17  1  0  0  0  0
 13 15  2  0  0  0  0
 15 14  1  0  0  0  0
 16 12  2  0  0  0  0
 16 13  1  0  0  0  0
 17 11  1  1  0  0  0
 17 14  1  0  0  0  0
 18 13  1  0  0  0  0
 18 20  1  0  0  0  0
 19 18  2  0  0  0  0
 21 22  1  0  0  0  0
 22 27  1  0  0  0  0
 23 26  1  0  0  0  0
 24 29  1  0  0  0  0
 24 28  1  0  0  0  0
 25 24  2  0  0  0  0
 26 29  2  0  0  0  0
 27 23  2  0  0  0  0
 27 25  1  0  0  0  0
 30  2  1  0  0  0  0
 31 32  1  0  0  0  0
 32 30  1  0  0  0  0
 33 39  1  1  0  0  0
 33  3  1  0  0  0  0
 36 34  1  6  0  0  0
 36 37  1  0  0  0  0
 36 35  1  0  0  0  0
 37 35  1  0  0  0  0
 37 33  1  1  0  0  0
 38 36  1  0  0  0  0
 40 48  1  6  0  0  0
 40 39  1  0  0  0  0
 40 42  1  0  0  0  0
 42 41  1  6  0  0  0
 42 43  1  0  0  0  0
 43 44  1  1  0  0  0
 43 46  1  0  0  0  0
 45 46  2  0  0  0  0
 46 47  1  0  0  0  0
 49 48  1  0  0  0  0
 50 51  1  0  0  0  0
 50 49  1  0  0  0  0
 52 53  1  0  0  0  0
 52 40  1  0  0  0  0
 54 53  1  0  0  0  0
 55 54  1  0  0  0  0
M  END
>  <MODEL>
3

>  <REMARK>
 VINA RESULT:      -4.6      3.521      6.203
  Name = 
  26 active torsions:
  status: ('A' for Active; 'I' for Inactive)
    1  A    between atoms: C_1  and  N_30
    2  A    between atoms: C_2  and  C_28
    3  A    between atoms: C_2  and  C_44
    4  A    between atoms: C_6  and  C_8
    5  A    between atoms: C_6  and  O_20
    6  A    between atoms: C_6  and  C_38
    7  A    between atoms: C_6  and  C_46
    8  A    between atoms: C_7  and  C_8
    9  A    between atoms: C_7  and  C_23
   10  A    between atoms: C_7  and  C_43
   11  A    between atoms: C_10  and  C_32
   12  A    between atoms: C_11  and  C_29
   13  A    between atoms: C_11  and  C_38
   14  A    between atoms: C_12  and  O_14
   15  A    between atoms: O_14  and  C_46
   16  A    between atoms: C_16  and  N_17
   17  A    between atoms: C_16  and  C_26
   18  A    between atoms: N_17  and  C_37
   19  A    between atoms: C_19  and  C_45
   20  A    between atoms: C_19  and  C_49
   21  A    between atoms: O_20  and  N_30
   22  A    between atoms: C_26  and  C_45
   23  A    between atoms: C_28  and  C_33
   24  A    between atoms: C_33  and  C_49
   25  A    between atoms: C_33  and  C_52
   26  A    between atoms: C_37  and  O_40
                            x       y       z     vdW  Elec       q    Type
                         _______ _______ _______ _____ _____    ______ ____

>  <TORSDO>
F 26

$$$$
=
 OpenBabel11052419513D

 55 57  0  0  1  0  0  0  0  0999 V2000
  190.4430  170.8860  140.9800 O   0  0  0  0  0  0  0  0  0  0  0  0
  190.8530  172.5400  139.3730 N   0  0  0  0  0  0  0  0  0  0  0  0
  191.2900  171.6070  140.3870 C   0  0  0  0  0  0  0  0  0  0  0  0
  189.5040  172.4090  138.7910 C   0  0  2  0  0  3  0  0  0  0  0  0
  189.5520  172.4130  137.2630 C   0  0  0  0  0  1  0  0  0  0  0  0
  188.0620  174.3870  138.2390 C   0  0  0  0  0  1  0  0  0  0  0  0
  188.4930  173.4320  139.3390 C   0  0  2  0  0  3  0  0  0  0  0  0
  189.0430  174.2130  140.5330 C   0  0  0  0  0  2  0  0  0  0  0  0
  188.0560  174.2300  141.6930 C   0  0  0  0  0  2  0  0  0  0  0  0
  188.4850  175.2310  142.7580 C   0  0  0  0  0  2  0  0  0  0  0  0
  188.1180  176.6540  142.3530 C   0  0  1  0  0  3  0  0  0  0  0  0
  186.2150  177.6240  141.0270 C   0  0  0  0  0  3  0  0  0  0  0  0
  184.0670  178.1330  142.0920 C   0  0  0  0  0  0  0  0  0  0  0  0
  185.9590  177.4030  143.5170 C   0  0  0  0  0  2  0  0  0  0  0  0
  184.5060  177.7130  143.2880 C   0  0  0  0  0  3  0  0  0  0  0  0
  185.0120  178.2020  140.9530 C   0  0  0  0  0  3  0  0  0  0  0  0
  186.5970  176.8230  142.2430 C   0  0  2  0  0  3  0  0  0  0  0  0
  182.6500  178.5030  141.9100 C   0  0  0  0  0  0  0  0  0  0  0  0
  182.0400  179.1410  142.8090 O   0  0  0  0  0  0  0  0  0  0  0  0
  181.7640  178.0600  140.4180 S   0  0  0  0  0  1  0  0  0  0  0  0
  188.7570  177.6390  143.3230 C   0  0  0  0  0  2  0  0  0  0  0  0
  188.6030  177.1450  144.7510 C   0  0  0  0  0  2  0  0  0  0  0  0
  191.0970  177.0860  144.5820 C   0  0  0  0  0  3  0  0  0  0  0  0
  191.2990  176.0270  147.1640 C   0  0  0  0  0  0  0  0  0  0  0  0
  190.0420  176.3130  146.6230 C   0  0  0  0  0  3  0  0  0  0  0  0
  192.3530  176.7970  145.1220 C   0  0  0  0  0  3  0  0  0  0  0  0
  189.9390  176.8490  145.3330 C   0  0  0  0  0  0  0  0  0  0  0  0
  191.3980  175.5050  148.4090 F   0  0  0  0  0  0  0  0  0  0  0  0
  192.4550  176.2680  146.4130 C   0  0  0  0  0  3  0  0  0  0  0  0
  191.6940  173.6900  139.0420 C   0  0  0  0  0  2  0  0  0  0  0  0
  193.1400  174.5940  137.6390 C   0  0  0  0  0  1  0  0  0  0  0  0
  192.4050  173.4310  137.8690 O   0  0  0  0  0  0  0  0  0  0  0  0
  192.7370  171.4570  140.7770 C   0  0  2  0  0  3  0  0  0  0  0  0
  195.6500  169.2600  139.4340 C   0  0  0  0  0  1  0  0  0  0  0  0
  193.4630  170.3240  138.6720 C   0  0  0  0  0  2  0  0  0  0  0  0
  194.6930  170.4300  139.5360 C   0  0  1  0  0  0  0  0  0  0  0  0
  193.3420  170.1870  140.1880 C   0  0  1  0  0  3  0  0  0  0  0  0
  195.2270  171.7200  139.5940 O   0  0  0  0  0  1  0  0  0  0  0  0
  192.9510  171.5010  142.2930 C   0  0  0  0  0  2  0  0  0  0  0  0
  193.5650  172.8120  142.8030 C   0  0  2  0  0  0  0  0  0  0  0  0
  195.2800  170.9420  143.4010 C   0  0  0  0  0  1  0  0  0  0  0  0
  194.9950  172.4390  143.3000 C   0  0  2  0  0  3  0  0  0  0  0  0
  195.4050  173.1890  144.5780 C   0  0  1  0  0  3  0  0  0  0  0  0
  196.0500  172.3400  145.4850 O   0  0  0  0  0  1  0  0  0  0  0  0
  197.3450  174.2130  143.6460 O   0  0  0  0  0  0  0  0  0  0  0  0
  196.2660  174.3710  144.2730 C   0  0  0  0  0  0  0  0  0  0  0  0
  195.8870  175.6450  144.6820 O   0  0  0  0  0  1  0  0  0  0  0  0
  192.6470  173.2750  143.9560 C   0  0  0  0  0  2  0  0  0  0  0  0
  191.3280  173.4900  143.5530 O   0  0  0  0  0  0  0  0  0  0  0  0
  190.5710  173.2670  144.7010 C   0  0  0  0  0  2  0  0  0  0  0  0
  189.7290  172.0220  144.5180 C   0  0  0  0  0  1  0  0  0  0  0  0
  193.5770  173.7280  141.7160 O   0  0  0  0  0  0  0  0  0  0  0  0
  193.4150  174.9880  142.1990 N   0  0  0  0  0  2  0  0  0  0  0  0
  194.2890  175.8550  141.4260 C   0  0  0  0  0  2  0  0  0  0  0  0
  195.3210  175.0260  140.6870 C   0  0  0  0  0  1  0  0  0  0  0  0
  2  3  1  0  0  0  0
  3 33  1  0  0  0  0
  3  1  2  0  0  0  0
  4  5  1  6  0  0  0
  4  7  1  0  0  0  0
  4  2  1  0  0  0  0
  7  6  1  6  0  0  0
  7  8  1  0  0  0  0
  8  9  1  0  0  0  0
  9 10  1  0  0  0  0
 11 10  1  1  0  0  0
 11 21  1  0  0  0  0
 12 17  1  0  0  0  0
 13 15  2  0  0  0  0
 15 14  1  0  0  0  0
 16 12  2  0  0  0  0
 16 13  1  0  0  0  0
 17 11  1  1  0  0  0
 17 14  1  0  0  0  0
 18 13  1  0  0  0  0
 18 19  2  0  0  0  0
 20 18  1  0  0  0  0
 21 22  1  0  0  0  0
 22 27  1  0  0  0  0
 23 26  2  0  0  0  0
 23 27  1  0  0  0  0
 24 28  1  0  0  0  0
 25 24  1  0  0  0  0
 26 29  1  0  0  0  0
 27 25  2  0  0  0  0
 29 24  2  0  0  0  0
 30  2  1  0  0  0  0
 31 32  1  0  0  0  0
 32 30  1  0  0  0  0
 33 39  1  1  0  0  0
 35 36  1  0  0  0  0
 35 37  1  0  0  0  0
 36 34  1  6  0  0  0
 36 38  1  0  0  0  0
 36 37  1  0  0  0  0
 37 33  1  1  0  0  0
 40 39  1  6  0  0  0
 40 42  1  0  0  0  0
 40 48  1  0  0  0  0
 42 41  1  1  0  0  0
 42 43  1  0  0  0  0
 43 44  1  1  0  0  0
 45 46  2  0  0  0  0
 46 43  1  0  0  0  0
 46 47  1  0  0  0  0
 49 48  1  0  0  0  0
 49 50  1  0  0  0  0
 51 50  1  0  0  0  0
 52 53  1  0  0  0  0
 52 40  1  0  0  0  0
 54 53  1  0  0  0  0
 55 54  1  0  0  0  0
M  END
>  <MODEL>
4

>  <REMARK>
 VINA RESULT:      -4.6      3.182      5.929
  Name = 
  26 active torsions:
  status: ('A' for Active; 'I' for Inactive)
    1  A    between atoms: C_1  and  N_30
    2  A    between atoms: C_2  and  C_28
    3  A    between atoms: C_2  and  C_44
    4  A    between atoms: C_6  and  C_8
    5  A    between atoms: C_6  and  O_20
    6  A    between atoms: C_6  and  C_38
    7  A    between atoms: C_6  and  C_46
    8  A    between atoms: C_7  and  C_8
    9  A    between atoms: C_7  and  C_23
   10  A    between atoms: C_7  and  C_43
   11  A    between atoms: C_10  and  C_32
   12  A    between atoms: C_11  and  C_29
   13  A    between atoms: C_11  and  C_38
   14  A    between atoms: C_12  and  O_14
   15  A    between atoms: O_14  and  C_46
   16  A    between atoms: C_16  and  N_17
   17  A    between atoms: C_16  and  C_26
   18  A    between atoms: N_17  and  C_37
   19  A    between atoms: C_19  and  C_45
   20  A    between atoms: C_19  and  C_49
   21  A    between atoms: O_20  and  N_30
   22  A    between atoms: C_26  and  C_45
   23  A    between atoms: C_28  and  C_33
   24  A    between atoms: C_33  and  C_49
   25  A    between atoms: C_33  and  C_52
   26  A    between atoms: C_37  and  O_40
                            x       y       z     vdW  Elec       q    Type
                         _______ _______ _______ _____ _____    ______ ____

>  <TORSDO>
F 26

$$$$
=
 OpenBabel11052419513D

 55 57  0  0  1  0  0  0  0  0999 V2000
  193.8720  174.5860  146.1720 O   0  0  0  0  0  0  0  0  0  0  0  0
  192.2080  175.6970  144.9540 N   0  0  0  0  0  0  0  0  0  0  0  0
  193.4440  174.9530  145.0450 C   0  0  0  0  0  0  0  0  0  0  0  0
  191.2850  175.7250  146.1050 C   0  0  2  0  0  3  0  0  0  0  0  0
  191.9960  175.3390  147.4010 C   0  0  0  0  0  1  0  0  0  0  0  0
  189.3080  174.6480  147.2130 C   0  0  0  0  0  1  0  0  0  0  0  0
  190.0000  174.9050  145.8850 C   0  0  2  0  0  3  0  0  0  0  0  0
  190.2670  173.5840  145.1640 C   0  0  0  0  0  2  0  0  0  0  0  0
  189.6330  173.5650  143.7790 C   0  0  0  0  0  2  0  0  0  0  0  0
  188.8850  174.8620  143.5050 C   0  0  0  0  0  2  0  0  0  0  0  0
  188.9070  175.2060  142.0190 C   0  0  1  0  0  3  0  0  0  0  0  0
  190.3940  173.7110  140.6490 C   0  0  0  0  0  3  0  0  0  0  0  0
  189.4680  172.2980  138.8740 C   0  0  0  0  0  0  0  0  0  0  0  0
  187.9710  173.9120  140.0130 C   0  0  0  0  0  2  0  0  0  0  0  0
  188.2230  172.7420  139.1040 C   0  0  0  0  0  3  0  0  0  0  0  0
  190.6050  172.9110  139.5990 C   0  0  0  0  0  3  0  0  0  0  0  0
  188.9960  173.9380  141.1590 C   0  0  2  0  0  3  0  0  0  0  0  0
  189.6980  171.1960  137.9190 C   0  0  0  0  0  0  0  0  0  0  0  0
  189.8460  170.0170  138.3340 O   0  0  0  0  0  0  0  0  0  0  0  0
  189.7750  171.5040  136.1560 S   0  0  0  0  0  1  0  0  0  0  0  0
  187.7020  176.0720  141.6790 C   0  0  0  0  0  2  0  0  0  0  0  0
  186.5810  175.8250  142.6740 C   0  0  0  0  0  2  0  0  0  0  0  0
  186.4830  178.3230  142.6170 C   0  0  0  0  0  3  0  0  0  0  0  0
  184.7990  178.3610  144.8510 C   0  0  0  0  0  0  0  0  0  0  0  0
  185.2520  177.1410  144.3380 C   0  0  0  0  0  3  0  0  0  0  0  0
  186.0330  179.5420  143.1320 C   0  0  0  0  0  3  0  0  0  0  0  0
  186.0890  177.1210  143.2160 C   0  0  0  0  0  0  0  0  0  0  0  0
  183.9930  178.3810  145.9380 F   0  0  0  0  0  0  0  0  0  0  0  0
  185.1900  179.5620  144.2480 C   0  0  0  0  0  3  0  0  0  0  0  0
  191.9550  176.5340  143.7820 C   0  0  0  0  0  2  0  0  0  0  0  0
  190.5370  178.2070  143.5190 C   0  0  0  0  0  1  0  0  0  0  0  0
  191.7080  177.8470  144.1870 O   0  0  0  0  0  0  0  0  0  0  0  0
  194.2610  174.5940  143.8310 C   0  0  2  0  0  3  0  0  0  0  0  0
  197.4710  176.6100  142.9690 C   0  0  0  0  0  1  0  0  0  0  0  0
  195.4010  176.7280  144.4500 C   0  0  0  0  0  2  0  0  0  0  0  0
  196.4540  175.8620  143.8060 C   0  0  1  0  0  0  0  0  0  0  0  0
  195.0230  175.8020  143.2970 C   0  0  1  0  0  3  0  0  0  0  0  0
  196.9040  174.8240  144.6270 O   0  0  0  0  0  1  0  0  0  0  0  0
  193.4230  173.9520  142.7200 C   0  0  0  0  0  2  0  0  0  0  0  0
  194.1030  172.7630  142.0280 C   0  0  2  0  0  0  0  0  0  0  0  0
  196.6890  172.4840  142.2010 C   0  0  0  0  0  1  0  0  0  0  0  0
  195.3390  172.4160  142.9120 C   0  0  2  0  0  3  0  0  0  0  0  0
  195.1700  171.1050  143.6980 C   0  0  1  0  0  3  0  0  0  0  0  0
  195.4770  169.9910  142.9080 O   0  0  0  0  0  1  0  0  0  0  0  0
  196.9040  170.2400  145.0870 O   0  0  0  0  0  0  0  0  0  0  0  0
  195.9940  171.0980  144.9450 C   0  0  0  0  0  0  0  0  0  0  0  0
  195.7600  172.0280  145.9520 O   0  0  0  0  0  1  0  0  0  0  0  0
  194.5090  173.2780  140.6290 C   0  0  0  0  0  2  0  0  0  0  0  0
  193.8680  174.4680  140.2770 O   0  0  0  0  0  0  0  0  0  0  0  0
  194.2740  174.7080  138.9670 C   0  0  0  0  0  2  0  0  0  0  0  0
  193.9880  173.4890  138.1160 C   0  0  0  0  0  1  0  0  0  0  0  0
  193.1530  171.7070  141.9640 O   0  0  0  0  0  0  0  0  0  0  0  0
  193.2580  171.0910  140.7580 N   0  0  0  0  0  2  0  0  0  0  0  0
  192.4030  169.9170  140.8040 C   0  0  0  0  0  2  0  0  0  0  0  0
  191.4140  170.0400  141.9460 C   0  0  0  0  0  1  0  0  0  0  0  0
  2  3  1  0  0  0  0
  2  4  1  0  0  0  0
  3  1  2  0  0  0  0
  4  5  1  1  0  0  0
  7  4  1  0  0  0  0
  7  6  1  1  0  0  0
  8  7  1  0  0  0  0
  9  8  1  0  0  0  0
 10  9  1  0  0  0  0
 11 21  1  6  0  0  0
 11 10  1  0  0  0  0
 12 17  1  0  0  0  0
 13 15  2  0  0  0  0
 13 16  1  0  0  0  0
 14 17  1  0  0  0  0
 15 14  1  0  0  0  0
 16 12  2  0  0  0  0
 17 11  1  6  0  0  0
 18 19  2  0  0  0  0
 18 13  1  0  0  0  0
 20 18  1  0  0  0  0
 21 22  1  0  0  0  0
 22 27  1  0  0  0  0
 23 26  2  0  0  0  0
 23 27  1  0  0  0  0
 24 28  1  0  0  0  0
 25 24  1  0  0  0  0
 26 29  1  0  0  0  0
 27 25  2  0  0  0  0
 29 24  2  0  0  0  0
 30 32  1  0  0  0  0
 30  2  1  0  0  0  0
 31 32  1  0  0  0  0
 33 39  1  6  0  0  0
 33  3  1  0  0  0  0
 36 34  1  6  0  0  0
 36 35  1  0  0  0  0
 36 38  1  0  0  0  0
 37 36  1  0  0  0  0
 37 33  1  1  0  0  0
 37 35  1  0  0  0  0
 40 48  1  6  0  0  0
 40 39  1  0  0  0  0
 40 42  1  0  0  0  0
 42 41  1  6  0  0  0
 42 43  1  0  0  0  0
 43 44  1  6  0  0  0
 43 46  1  0  0  0  0
 46 45  2  0  0  0  0
 46 47  1  0  0  0  0
 49 48  1  0  0  0  0
 50 49  1  0  0  0  0
 51 50  1  0  0  0  0
 52 40  1  0  0  0  0
 53 54  1  0  0  0  0
 53 52  1  0  0  0  0
 54 55  1  0  0  0  0
M  END
>  <MODEL>
5

>  <REMARK>
 VINA RESULT:      -4.5      2.762      5.892
  Name = 
  26 active torsions:
  status: ('A' for Active; 'I' for Inactive)
    1  A    between atoms: C_1  and  N_30
    2  A    between atoms: C_2  and  C_28
    3  A    between atoms: C_2  and  C_44
    4  A    between atoms: C_6  and  C_8
    5  A    between atoms: C_6  and  O_20
    6  A    between atoms: C_6  and  C_38
    7  A    between atoms: C_6  and  C_46
    8  A    between atoms: C_7  and  C_8
    9  A    between atoms: C_7  and  C_23
   10  A    between atoms: C_7  and  C_43
   11  A    between atoms: C_10  and  C_32
   12  A    between atoms: C_11  and  C_29
   13  A    between atoms: C_11  and  C_38
   14  A    between atoms: C_12  and  O_14
   15  A    between atoms: O_14  and  C_46
   16  A    between atoms: C_16  and  N_17
   17  A    between atoms: C_16  and  C_26
   18  A    between atoms: N_17  and  C_37
   19  A    between atoms: C_19  and  C_45
   20  A    between atoms: C_19  and  C_49
   21  A    between atoms: O_20  and  N_30
   22  A    between atoms: C_26  and  C_45
   23  A    between atoms: C_28  and  C_33
   24  A    between atoms: C_33  and  C_49
   25  A    between atoms: C_33  and  C_52
   26  A    between atoms: C_37  and  O_40
                            x       y       z     vdW  Elec       q    Type
                         _______ _______ _______ _____ _____    ______ ____

>  <TORSDO>
F 26

$$$$
=
 OpenBabel11052419513D

 55 57  0  0  1  0  0  0  0  0999 V2000
  197.3840  174.0180  142.9230 O   0  0  0  0  0  0  0  0  0  0  0  0
  195.3200  173.5710  143.9360 N   0  0  0  0  0  0  0  0  0  0  0  0
  196.4160  173.2220  143.0620 C   0  0  0  0  0  0  0  0  0  0  0  0
  195.4840  174.6630  144.9150 C   0  0  2  0  0  3  0  0  0  0  0  0
  196.1950  174.1790  146.1780 C   0  0  0  0  0  1  0  0  0  0  0  0
  193.9740  176.5630  144.2740 C   0  0  0  0  0  1  0  0  0  0  0  0
  194.1740  175.4050  145.2380 C   0  0  2  0  0  3  0  0  0  0  0  0
  194.1280  175.9050  146.6820 C   0  0  0  0  0  2  0  0  0  0  0  0
  192.8380  176.6610  146.9720 C   0  0  0  0  0  2  0  0  0  0  0  0
  191.6210  175.8100  146.6340 C   0  0  0  0  0  2  0  0  0  0  0  0
  190.5430  176.6420  145.9480 C   0  0  1  0  0  3  0  0  0  0  0  0
  190.4640  174.4940  144.6430 C   0  0  0  0  0  3  0  0  0  0  0  0
  190.0080  174.4980  142.2350 C   0  0  0  0  0  0  0  0  0  0  0  0
  190.3020  176.6690  143.3950 C   0  0  0  0  0  2  0  0  0  0  0  0
  189.9060  175.8350  142.2080 C   0  0  0  0  0  3  0  0  0  0  0  0
  190.4290  173.8250  143.4860 C   0  0  0  0  0  3  0  0  0  0  0  0
  189.9990  175.9240  144.7060 C   0  0  2  0  0  3  0  0  0  0  0  0
  189.6860  173.7050  141.0330 C   0  0  0  0  0  0  0  0  0  0  0  0
  190.0460  174.1030  139.8940 O   0  0  0  0  0  0  0  0  0  0  0  0
  188.7780  172.1660  141.1590 S   0  0  0  0  0  1  0  0  0  0  0  0
  189.4570  176.9970  146.9530 C   0  0  0  0  0  2  0  0  0  0  0  0
  188.3220  175.9900  146.8770 C   0  0  0  0  0  2  0  0  0  0  0  0
  186.7440  176.6870  145.0670 C   0  0  0  0  0  3  0  0  0  0  0  0
  185.0750  177.9390  146.9300 C   0  0  0  0  0  0  0  0  0  0  0  0
  186.2420  177.2970  147.3580 C   0  0  0  0  0  3  0  0  0  0  0  0
  185.5790  177.3300  144.6400 C   0  0  0  0  0  3  0  0  0  0  0  0
  187.0740  176.6640  146.4270 C   0  0  0  0  0  0  0  0  0  0  0  0
  184.2720  178.5540  147.8300 F   0  0  0  0  0  0  0  0  0  0  0  0
  184.7440  177.9560  145.5710 C   0  0  0  0  0  3  0  0  0  0  0  0
  194.0140  172.9420  143.7420 C   0  0  0  0  0  2  0  0  0  0  0  0
  192.7170  171.2350  144.2730 C   0  0  0  0  0  1  0  0  0  0  0  0
  193.8040  171.9800  144.7310 O   0  0  0  0  0  0  0  0  0  0  0  0
  196.4550  171.9280  142.2920 C   0  0  2  0  0  3  0  0  0  0  0  0
  197.4910  168.3490  143.4010 C   0  0  0  0  0  1  0  0  0  0  0  0
  196.8640  170.6170  144.3790 C   0  0  0  0  0  2  0  0  0  0  0  0
  196.6510  169.6040  143.2830 C   0  0  1  0  0  0  0  0  0  0  0  0
  197.3660  170.9070  142.9660 C   0  0  1  0  0  3  0  0  0  0  0  0
  195.3160  169.4750  142.8910 O   0  0  0  0  0  1  0  0  0  0  0  0
  196.8550  172.1200  140.8260 C   0  0  0  0  0  2  0  0  0  0  0  0
  195.6940  171.9770  139.8330 C   0  0  2  0  0  0  0  0  0  0  0  0
  196.7140  169.5960  139.5420 C   0  0  0  0  0  1  0  0  0  0  0  0
  195.4520  170.4440  139.6910 C   0  0  2  0  0  3  0  0  0  0  0  0
  194.3970  170.0950  138.6270 C   0  0  1  0  0  3  0  0  0  0  0  0
  194.8700  169.1240  137.7380 O   0  0  0  0  0  1  0  0  0  0  0  0
  193.0510  169.4650  140.4910 O   0  0  0  0  0  1  0  0  0  0  0  0
  193.1140  169.6480  139.2480 C   0  0  0  0  0  0  0  0  0  0  0  0
  191.9870  169.4290  138.4620 O   0  0  0  0  0  0  0  0  0  0  0  0
  196.1960  172.6160  138.5190 C   0  0  0  0  0  2  0  0  0  0  0  0
  197.5080  173.0840  138.6040 O   0  0  0  0  0  0  0  0  0  0  0  0
  197.6440  173.9410  137.5150 C   0  0  0  0  0  2  0  0  0  0  0  0
  197.7440  175.3700  138.0050 C   0  0  0  0  0  1  0  0  0  0  0  0
  194.5780  172.6660  140.3810 O   0  0  0  0  0  0  0  0  0  0  0  0
  193.8330  173.1770  139.3660 N   0  0  0  0  0  2  0  0  0  0  0  0
  193.3910  174.4970  139.7850 C   0  0  0  0  0  2  0  0  0  0  0  0
  194.4350  175.1330  140.6820 C   0  0  0  0  0  1  0  0  0  0  0  0
  1  3  2  0  0  0  0
  2  4  1  0  0  0  0
  3  2  1  0  0  0  0
  4  7  1  0  0  0  0
  4  5  1  1  0  0  0
  7  6  1  6  0  0  0
  7  8  1  0  0  0  0
  8  9  1  0  0  0  0
 10  9  1  0  0  0  0
 11 10  1  1  0  0  0
 11 21  1  0  0  0  0
 12 17  1  0  0  0  0
 13 16  1  0  0  0  0
 14 17  1  0  0  0  0
 15 13  2  0  0  0  0
 15 14  1  0  0  0  0
 16 12  2  0  0  0  0
 17 11  1  1  0  0  0
 18 20  1  0  0  0  0
 18 13  1  0  0  0  0
 19 18  2  0  0  0  0
 22 21  1  0  0  0  0
 23 27  1  0  0  0  0
 24 25  1  0  0  0  0
 24 28  1  0  0  0  0
 26 23  2  0  0  0  0
 26 29  1  0  0  0  0
 27 22  1  0  0  0  0
 27 25  2  0  0  0  0
 29 24  2  0  0  0  0
 30  2  1  0  0  0  0
 30 32  1  0  0  0  0
 31 32  1  0  0  0  0
 33 39  1  6  0  0  0
 33  3  1  0  0  0  0
 36 34  1  1  0  0  0
 36 35  1  0  0  0  0
 37 33  1  6  0  0  0
 37 36  1  0  0  0  0
 37 35  1  0  0  0  0
 38 36  1  0  0  0  0
 40 48  1  6  0  0  0
 40 52  1  0  0  0  0
 40 39  1  0  0  0  0
 42 41  1  6  0  0  0
 42 40  1  0  0  0  0
 43 44  1  6  0  0  0
 43 46  1  0  0  0  0
 43 42  1  0  0  0  0
 46 45  1  0  0  0  0
 47 46  2  0  0  0  0
 48 49  1  0  0  0  0
 50 51  1  0  0  0  0
 50 49  1  0  0  0  0
 53 54  1  0  0  0  0
 53 52  1  0  0  0  0
 54 55  1  0  0  0  0
M  END
>  <MODEL>
6

>  <REMARK>
 VINA RESULT:      -4.5      2.165      5.113
  Name = 
  26 active torsions:
  status: ('A' for Active; 'I' for Inactive)
    1  A    between atoms: C_1  and  N_30
    2  A    between atoms: C_2  and  C_28
    3  A    between atoms: C_2  and  C_44
    4  A    between atoms: C_6  and  C_8
    5  A    between atoms: C_6  and  O_20
    6  A    between atoms: C_6  and  C_38
    7  A    between atoms: C_6  and  C_46
    8  A    between atoms: C_7  and  C_8
    9  A    between atoms: C_7  and  C_23
   10  A    between atoms: C_7  and  C_43
   11  A    between atoms: C_10  and  C_32
   12  A    between atoms: C_11  and  C_29
   13  A    between atoms: C_11  and  C_38
   14  A    between atoms: C_12  and  O_14
   15  A    between atoms: O_14  and  C_46
   16  A    between atoms: C_16  and  N_17
   17  A    between atoms: C_16  and  C_26
   18  A    between atoms: N_17  and  C_37
   19  A    between atoms: C_19  and  C_45
   20  A    between atoms: C_19  and  C_49
   21  A    between atoms: O_20  and  N_30
   22  A    between atoms: C_26  and  C_45
   23  A    between atoms: C_28  and  C_33
   24  A    between atoms: C_33  and  C_49
   25  A    between atoms: C_33  and  C_52
   26  A    between atoms: C_37  and  O_40
                            x       y       z     vdW  Elec       q    Type
                         _______ _______ _______ _____ _____    ______ ____

>  <TORSDO>
F 26

$$$$
=
 OpenBabel11052419513D

 55 57  0  0  1  0  0  0  0  0999 V2000
  193.2060  175.2640  141.1510 O   0  0  0  0  0  0  0  0  0  0  0  0
  194.1660  174.6020  143.1830 N   0  0  0  0  0  0  0  0  0  0  0  0
  193.6440  174.3210  141.8650 C   0  0  0  0  0  0  0  0  0  0  0  0
  194.5080  175.9880  143.5550 C   0  0  2  0  0  3  0  0  0  0  0  0
  195.8970  176.0700  144.1880 C   0  0  0  0  0  1  0  0  0  0  0  0
  193.5900  176.2630  145.8740 C   0  0  0  0  0  1  0  0  0  0  0  0
  193.4380  176.6780  144.4210 C   0  0  2  0  0  3  0  0  0  0  0  0
  192.0180  176.3860  143.9330 C   0  0  0  0  0  2  0  0  0  0  0  0
  190.9860  176.6700  145.0160 C   0  0  0  0  0  2  0  0  0  0  0  0
  190.0620  177.8080  144.6030 C   0  0  0  0  0  2  0  0  0  0  0  0
  188.6070  177.4730  144.9110 C   0  0  1  0  0  3  0  0  0  0  0  0
  186.7430  178.8460  143.9300 C   0  0  0  0  0  3  0  0  0  0  0  0
  185.3310  177.9550  142.1350 C   0  0  0  0  0  0  0  0  0  0  0  0
  186.9870  176.4520  143.2050 C   0  0  0  0  0  2  0  0  0  0  0  0
  185.9950  176.7890  142.1270 C   0  0  0  0  0  3  0  0  0  0  0  0
  185.6490  178.9650  143.1700 C   0  0  0  0  0  3  0  0  0  0  0  0
  187.7120  177.7190  143.6890 C   0  0  2  0  0  3  0  0  0  0  0  0
  184.3060  178.2320  141.1100 C   0  0  0  0  0  0  0  0  0  0  0  0
  184.6430  178.4270  139.9130 O   0  0  0  0  0  0  0  0  0  0  0  0
  182.5680  178.3010  141.5380 S   0  0  0  0  0  1  0  0  0  0  0  0
  188.5130  176.0470  145.4380 C   0  0  0  0  0  2  0  0  0  0  0  0
  187.9810  176.0480  146.8600 C   0  0  0  0  0  2  0  0  0  0  0  0
  185.5820  176.6310  146.4660 C   0  0  0  0  0  3  0  0  0  0  0  0
  185.9390  179.1350  147.6620 C   0  0  0  0  0  0  0  0  0  0  0  0
  187.0150  178.2460  147.5660 C   0  0  0  0  0  3  0  0  0  0  0  0
  184.5070  177.5200  146.5600 C   0  0  0  0  0  3  0  0  0  0  0  0
  186.8360  176.9910  146.9740 C   0  0  0  0  0  0  0  0  0  0  0  0
  186.1130  180.3510  148.2310 F   0  0  0  0  0  0  0  0  0  0  0  0
  184.6850  178.7720  147.1580 C   0  0  0  0  0  3  0  0  0  0  0  0
  194.2090  173.5350  144.1830 C   0  0  0  0  0  2  0  0  0  0  0  0
  192.9800  171.7600  144.6490 C   0  0  0  0  0  1  0  0  0  0  0  0
  192.9090  173.1460  144.5110 O   0  0  0  0  0  0  0  0  0  0  0  0
  193.5960  172.9280  141.2950 C   0  0  2  0  0  3  0  0  0  0  0  0
  195.7850  171.2920  138.5300 C   0  0  0  0  0  1  0  0  0  0  0  0
  195.6970  173.3610  140.0160 C   0  0  0  0  0  2  0  0  0  0  0  0
  195.4160  171.8860  139.8740 C   0  0  1  0  0  0  0  0  0  0  0  0
  194.2560  172.8660  139.9210 C   0  0  1  0  0  3  0  0  0  0  0  0
  195.7010  171.1480  141.0260 O   0  0  0  0  0  1  0  0  0  0  0  0
  192.1740  172.3600  141.2340 C   0  0  0  0  0  2  0  0  0  0  0  0
  191.5460  172.3870  139.8340 C   0  0  2  0  0  0  0  0  0  0  0  0
  189.2220  171.7060  138.8680 C   0  0  0  0  0  1  0  0  0  0  0  0
  190.0100  172.2400  140.0620 C   0  0  2  0  0  3  0  0  0  0  0  0
  189.3650  173.5040  140.6580 C   0  0  1  0  0  3  0  0  0  0  0  0
  188.5210  174.1300  139.7350 O   0  0  0  0  0  1  0  0  0  0  0  0
  189.2280  173.2230  143.0210 O   0  0  0  0  0  1  0  0  0  0  0  0
  188.6220  173.2030  141.9180 C   0  0  0  0  0  0  0  0  0  0  0  0
  187.2660  172.8940  141.8830 O   0  0  0  0  0  0  0  0  0  0  0  0
  192.1460  171.1730  139.0920 C   0  0  0  0  0  2  0  0  0  0  0  0
  192.2600  170.0390  139.8980 O   0  0  0  0  0  0  0  0  0  0  0  0
  192.8710  169.0900  139.0820 C   0  0  0  0  0  2  0  0  0  0  0  0
  193.7990  168.2290  139.9140 C   0  0  0  0  0  1  0  0  0  0  0  0
  191.9010  173.6240  139.2310 O   0  0  0  0  0  0  0  0  0  0  0  0
  191.9680  173.4560  137.8850 N   0  0  0  0  0  2  0  0  0  0  0  0
  192.3850  174.7260  137.3170 C   0  0  0  0  0  2  0  0  0  0  0  0
  192.3500  174.6550  135.8030 C   0  0  0  0  0  1  0  0  0  0  0  0
  1  3  2  0  0  0  0
  2  4  1  0  0  0  0
  2 30  1  0  0  0  0
  3  2  1  0  0  0  0
  4  5  1  1  0  0  0
  4  7  1  0  0  0  0
  7  6  1  1  0  0  0
  8  7  1  0  0  0  0
  8  9  1  0  0  0  0
 10  9  1  0  0  0  0
 11 10  1  6  0  0  0
 11 21  1  0  0  0  0
 13 16  1  0  0  0  0
 14 17  1  0  0  0  0
 15 13  2  0  0  0  0
 15 14  1  0  0  0  0
 16 12  2  0  0  0  0
 17 12  1  0  0  0  0
 17 11  1  1  0  0  0
 18 20  1  0  0  0  0
 18 13  1  0  0  0  0
 19 18  2  0  0  0  0
 21 22  1  0  0  0  0
 22 27  1  0  0  0  0
 23 26  2  0  0  0  0
 23 27  1  0  0  0  0
 24 28  1  0  0  0  0
 25 24  1  0  0  0  0
 26 29  1  0  0  0  0
 27 25  2  0  0  0  0
 29 24  2  0  0  0  0
 30 32  1  0  0  0  0
 32 31  1  0  0  0  0
 33 39  1  6  0  0  0
 33  3  1  0  0  0  0
 36 34  1  6  0  0  0
 36 37  1  0  0  0  0
 36 35  1  0  0  0  0
 36 38  1  0  0  0  0
 37 35  1  0  0  0  0
 37 33  1  1  0  0  0
 40 48  1  6  0  0  0
 40 42  1  0  0  0  0
 40 39  1  0  0  0  0
 42 41  1  6  0  0  0
 42 43  1  0  0  0  0
 43 44  1  6  0  0  0
 43 46  1  0  0  0  0
 46 45  1  0  0  0  0
 47 46  2  0  0  0  0
 48 49  1  0  0  0  0
 50 49  1  0  0  0  0
 50 51  1  0  0  0  0
 52 40  1  0  0  0  0
 53 52  1  0  0  0  0
 54 53  1  0  0  0  0
 55 54  1  0  0  0  0
M  END
>  <MODEL>
7

>  <REMARK>
 VINA RESULT:      -4.5      2.922      6.208
  Name = 
  26 active torsions:
  status: ('A' for Active; 'I' for Inactive)
    1  A    between atoms: C_1  and  N_30
    2  A    between atoms: C_2  and  C_28
    3  A    between atoms: C_2  and  C_44
    4  A    between atoms: C_6  and  C_8
    5  A    between atoms: C_6  and  O_20
    6  A    between atoms: C_6  and  C_38
    7  A    between atoms: C_6  and  C_46
    8  A    between atoms: C_7  and  C_8
    9  A    between atoms: C_7  and  C_23
   10  A    between atoms: C_7  and  C_43
   11  A    between atoms: C_10  and  C_32
   12  A    between atoms: C_11  and  C_29
   13  A    between atoms: C_11  and  C_38
   14  A    between atoms: C_12  and  O_14
   15  A    between atoms: O_14  and  C_46
   16  A    between atoms: C_16  and  N_17
   17  A    between atoms: C_16  and  C_26
   18  A    between atoms: N_17  and  C_37
   19  A    between atoms: C_19  and  C_45
   20  A    between atoms: C_19  and  C_49
   21  A    between atoms: O_20  and  N_30
   22  A    between atoms: C_26  and  C_45
   23  A    between atoms: C_28  and  C_33
   24  A    between atoms: C_33  and  C_49
   25  A    between atoms: C_33  and  C_52
   26  A    between atoms: C_37  and  O_40
                            x       y       z     vdW  Elec       q    Type
                         _______ _______ _______ _____ _____    ______ ____

>  <TORSDO>
F 26

$$$$
=
 OpenBabel11052419513D

 55 57  0  0  1  0  0  0  0  0999 V2000
  193.6350  174.5720  146.6950 O   0  0  0  0  0  0  0  0  0  0  0  0
  192.2300  175.8210  145.2970 N   0  0  0  0  0  0  0  0  0  0  0  0
  193.4010  175.0090  145.5360 C   0  0  0  0  0  0  0  0  0  0  0  0
  191.1440  175.8490  146.2960 C   0  0  2  0  0  3  0  0  0  0  0  0
  191.6380  175.4000  147.6710 C   0  0  0  0  0  1  0  0  0  0  0  0
  188.9550  174.8770  147.0430 C   0  0  0  0  0  1  0  0  0  0  0  0
  189.8810  175.0840  145.8580 C   0  0  2  0  0  3  0  0  0  0  0  0
  190.2110  173.7430  145.2020 C   0  0  0  0  0  2  0  0  0  0  0  0
  189.6590  173.6620  143.7850 C   0  0  0  0  0  2  0  0  0  0  0  0
  189.8380  174.9860  143.0540 C   0  0  0  0  0  2  0  0  0  0  0  0
  189.0520  175.0030  141.7480 C   0  0  1  0  0  3  0  0  0  0  0  0
  190.6250  173.5130  140.4730 C   0  0  0  0  0  3  0  0  0  0  0  0
  189.7830  171.9110  138.8210 C   0  0  0  0  0  0  0  0  0  0  0  0
  188.1890  173.5010  139.8580 C   0  0  0  0  0  2  0  0  0  0  0  0
  188.5130  172.2850  139.0350 C   0  0  0  0  0  3  0  0  0  0  0  0
  190.8810  172.6520  139.4830 C   0  0  0  0  0  3  0  0  0  0  0  0
  189.2200  173.6830  140.9840 C   0  0  2  0  0  3  0  0  0  0  0  0
  190.0800  170.7580  137.9490 C   0  0  0  0  0  0  0  0  0  0  0  0
  189.8690  170.8290  136.7090 O   0  0  0  0  0  0  0  0  0  0  0  0
  190.7420  169.2370  138.6230 S   0  0  0  0  0  1  0  0  0  0  0  0
  187.5960  175.3430  142.0350 C   0  0  0  0  0  2  0  0  0  0  0  0
  187.4460  175.8490  143.4590 C   0  0  0  0  0  2  0  0  0  0  0  0
  186.7610  178.0400  144.4500 C   0  0  0  0  0  3  0  0  0  0  0  0
  184.6920  178.2980  142.5840 C   0  0  0  0  0  0  0  0  0  0  0  0
  185.5250  177.1750  142.5530 C   0  0  0  0  0  3  0  0  0  0  0  0
  185.9260  179.1610  144.4820 C   0  0  0  0  0  3  0  0  0  0  0  0
  186.5650  177.0480  143.4820 C   0  0  0  0  0  0  0  0  0  0  0  0
  183.6840  178.4180  141.6880 F   0  0  0  0  0  0  0  0  0  0  0  0
  184.8920  179.2910  143.5490 C   0  0  0  0  0  3  0  0  0  0  0  0
  192.1980  176.7190  144.1440 C   0  0  0  0  0  2  0  0  0  0  0  0
  190.7920  178.2940  143.4970 C   0  0  0  0  0  1  0  0  0  0  0  0
  191.6720  177.9540  144.5240 O   0  0  0  0  0  0  0  0  0  0  0  0
  194.3760  174.6570  144.4430 C   0  0  2  0  0  3  0  0  0  0  0  0
  196.9310  176.7750  142.4180 C   0  0  0  0  0  1  0  0  0  0  0  0
  195.6610  176.7920  144.6270 C   0  0  0  0  0  2  0  0  0  0  0  0
  196.3560  175.9740  143.5680 C   0  0  1  0  0  0  0  0  0  0  0  0
  194.8430  175.9010  143.6940 C   0  0  1  0  0  3  0  0  0  0  0  0
  197.1100  174.9160  144.0820 O   0  0  0  0  0  1  0  0  0  0  0  0
  193.8220  173.6170  143.4630 C   0  0  0  0  0  2  0  0  0  0  0  0
  194.3910  172.2050  143.6580 C   0  0  2  0  0  0  0  0  0  0  0  0
  196.7520  171.7580  142.6460 C   0  0  0  0  0  1  0  0  0  0  0  0
  195.2550  171.9250  142.3910 C   0  0  2  0  0  3  0  0  0  0  0  0
  194.9750  172.9060  141.2400 C   0  0  1  0  0  3  0  0  0  0  0  0
  196.1050  173.6720  140.9340 O   0  0  0  0  0  1  0  0  0  0  0  0
  194.5410  172.7720  138.9000 O   0  0  0  0  0  0  0  0  0  0  0  0
  194.4820  172.2000  140.0190 C   0  0  0  0  0  0  0  0  0  0  0  0
  193.9520  170.9170  140.1110 O   0  0  0  0  0  1  0  0  0  0  0  0
  193.1610  171.2750  143.7450 C   0  0  0  0  0  2  0  0  0  0  0  0
  192.1480  171.6200  142.8490 O   0  0  0  0  0  0  0  0  0  0  0  0
  191.3970  170.4560  142.7040 C   0  0  0  0  0  2  0  0  0  0  0  0
  192.3110  169.2520  142.7780 C   0  0  0  0  0  1  0  0  0  0  0  0
  195.1530  172.2140  144.8580 O   0  0  0  0  0  0  0  0  0  0  0  0
  194.6670  171.2610  145.6960 N   0  0  0  0  0  2  0  0  0  0  0  0
  195.7070  170.2570  145.8460 C   0  0  0  0  0  2  0  0  0  0  0  0
  195.0830  168.8870  146.0270 C   0  0  0  0  0  1  0  0  0  0  0  0
  2  3  1  0  0  0  0
  2  4  1  0  0  0  0
  3  1  2  0  0  0  0
  4  5  1  1  0  0  0
  7  4  1  0  0  0  0
  7  6  1  1  0  0  0
  8  7  1  0  0  0  0
  9  8  1  0  0  0  0
 10  9  1  0  0  0  0
 11 21  1  1  0  0  0
 11 10  1  0  0  0  0
 12 17  1  0  0  0  0
 13 15  2  0  0  0  0
 13 16  1  0  0  0  0
 14 17  1  0  0  0  0
 15 14  1  0  0  0  0
 16 12  2  0  0  0  0
 17 11  1  6  0  0  0
 18 20  1  0  0  0  0
 18 13  1  0  0  0  0
 19 18  2  0  0  0  0
 21 22  1  0  0  0  0
 22 27  1  0  0  0  0
 23 26  1  0  0  0  0
 24 29  1  0  0  0  0
 25 24  2  0  0  0  0
 25 27  1  0  0  0  0
 27 23  2  0  0  0  0
 28 24  1  0  0  0  0
 29 26  2  0  0  0  0
 30 32  1  0  0  0  0
 30  2  1  0  0  0  0
 31 32  1  0  0  0  0
 33 39  1  6  0  0  0
 33  3  1  0  0  0  0
 36 34  1  6  0  0  0
 36 37  1  0  0  0  0
 36 38  1  0  0  0  0
 36 35  1  0  0  0  0
 37 33  1  1  0  0  0
 37 35  1  0  0  0  0
 40 39  1  6  0  0  0
 40 48  1  0  0  0  0
 40 52  1  0  0  0  0
 42 41  1  1  0  0  0
 42 40  1  0  0  0  0
 43 44  1  6  0  0  0
 43 42  1  0  0  0  0
 45 46  2  0  0  0  0
 46 47  1  0  0  0  0
 46 43  1  0  0  0  0
 49 48  1  0  0  0  0
 50 51  1  0  0  0  0
 50 49  1  0  0  0  0
 52 53  1  0  0  0  0
 53 54  1  0  0  0  0
 54 55  1  0  0  0  0
M  END
>  <MODEL>
8

>  <REMARK>
 VINA RESULT:      -4.3      2.931      5.638
  Name = 
  26 active torsions:
  status: ('A' for Active; 'I' for Inactive)
    1  A    between atoms: C_1  and  N_30
    2  A    between atoms: C_2  and  C_28
    3  A    between atoms: C_2  and  C_44
    4  A    between atoms: C_6  and  C_8
    5  A    between atoms: C_6  and  O_20
    6  A    between atoms: C_6  and  C_38
    7  A    between atoms: C_6  and  C_46
    8  A    between atoms: C_7  and  C_8
    9  A    between atoms: C_7  and  C_23
   10  A    between atoms: C_7  and  C_43
   11  A    between atoms: C_10  and  C_32
   12  A    between atoms: C_11  and  C_29
   13  A    between atoms: C_11  and  C_38
   14  A    between atoms: C_12  and  O_14
   15  A    between atoms: O_14  and  C_46
   16  A    between atoms: C_16  and  N_17
   17  A    between atoms: C_16  and  C_26
   18  A    between atoms: N_17  and  C_37
   19  A    between atoms: C_19  and  C_45
   20  A    between atoms: C_19  and  C_49
   21  A    between atoms: O_20  and  N_30
   22  A    between atoms: C_26  and  C_45
   23  A    between atoms: C_28  and  C_33
   24  A    between atoms: C_33  and  C_49
   25  A    between atoms: C_33  and  C_52
   26  A    between atoms: C_37  and  O_40
                            x       y       z     vdW  Elec       q    Type
                         _______ _______ _______ _____ _____    ______ ____

>  <TORSDO>
F 26

$$$$
=
 OpenBabel11052419513D

 55 57  0  0  1  0  0  0  0  0999 V2000
  189.9260  177.8760  146.5290 O   0  0  0  0  0  0  0  0  0  0  0  0
  190.1780  175.5470  146.4970 N   0  0  0  0  0  0  0  0  0  0  0  0
  189.5160  176.7660  146.0920 C   0  0  0  0  0  0  0  0  0  0  0  0
  191.5130  175.6110  147.1210 C   0  0  2  0  0  3  0  0  0  0  0  0
  191.6710  176.8700  147.9740 C   0  0  0  0  0  1  0  0  0  0  0  0
  193.1200  173.9920  146.0760 C   0  0  0  0  0  1  0  0  0  0  0  0
  192.6710  175.4420  146.1200 C   0  0  2  0  0  3  0  0  0  0  0  0
  193.8560  176.3540  146.4410 C   0  0  0  0  0  2  0  0  0  0  0  0
  195.1840  175.6720  146.1410 C   0  0  0  0  0  2  0  0  0  0  0  0
  195.4790  175.6850  144.6480 C   0  0  0  0  0  2  0  0  0  0  0  0
  196.8610  175.1110  144.3560 C   0  0  1  0  0  3  0  0  0  0  0  0
  195.4640  173.1390  143.6600 C   0  0  0  0  0  3  0  0  0  0  0  0
  195.9160  170.8990  144.5460 C   0  0  0  0  0  0  0  0  0  0  0  0
  197.1850  172.8210  145.4630 C   0  0  0  0  0  2  0  0  0  0  0  0
  196.9370  171.3480  145.2920 C   0  0  0  0  0  3  0  0  0  0  0  0
  195.0770  171.8680  143.8040 C   0  0  0  0  0  3  0  0  0  0  0  0
  196.8020  173.5870  144.1860 C   0  0  2  0  0  3  0  0  0  0  0  0
  195.6450  169.4510  144.4540 C   0  0  0  0  0  0  0  0  0  0  0  0
  196.3720  168.7140  143.7370 O   0  0  0  0  0  0  0  0  0  0  0  0
  194.2850  168.7080  145.3510 S   0  0  0  0  0  1  0  0  0  0  0  0
  197.4620  175.8200  143.1500 C   0  0  0  0  0  2  0  0  0  0  0  0
  196.3830  176.5750  142.3940 C   0  0  0  0  0  2  0  0  0  0  0  0
  194.8520  175.9780  140.5080 C   0  0  0  0  0  3  0  0  0  0  0  0
  196.9100  174.6020  139.2040 C   0  0  0  0  0  0  0  0  0  0  0  0
  197.1550  175.2260  140.4320 C   0  0  0  0  0  3  0  0  0  0  0  0
  194.6070  175.3520  139.2830 C   0  0  0  0  0  3  0  0  0  0  0  0
  196.1280  175.9200  141.0820 C   0  0  0  0  0  0  0  0  0  0  0  0
  197.9020  173.9270  138.5770 F   0  0  0  0  0  0  0  0  0  0  0  0
  195.6350  174.6650  138.6300 C   0  0  0  0  0  3  0  0  0  0  0  0
  189.4570  174.2770  146.4210 C   0  0  0  0  0  2  0  0  0  0  0  0
  189.3100  172.2800  145.4890 C   0  0  0  0  0  1  0  0  0  0  0  0
  189.9840  173.4970  145.3900 O   0  0  0  0  0  0  0  0  0  0  0  0
  188.3350  176.7730  145.1570 C   0  0  2  0  0  3  0  0  0  0  0  0
  184.6890  177.9670  145.7870 C   0  0  0  0  0  1  0  0  0  0  0  0
  187.0040  178.0390  146.8500 C   0  0  0  0  0  2  0  0  0  0  0  0
  186.1880  178.0490  145.5830 C   0  0  1  0  0  0  0  0  0  0  0  0
  187.0190  176.8240  145.9260 C   0  0  1  0  0  3  0  0  0  0  0  0
  186.6780  178.9230  144.6080 O   0  0  0  0  0  1  0  0  0  0  0  0
  188.3430  175.5910  144.1820 C   0  0  0  0  0  2  0  0  0  0  0  0
  188.6760  175.9730  142.7340 C   0  0  2  0  0  0  0  0  0  0  0  0
  187.7250  173.5480  142.6380 C   0  0  0  0  0  1  0  0  0  0  0  0
  188.4130  174.6880  141.8910 C   0  0  2  0  0  3  0  0  0  0  0  0
  189.6570  174.2040  141.1250 C   0  0  1  0  0  3  0  0  0  0  0  0
  190.2760  173.1340  141.7790 O   0  0  0  0  0  1  0  0  0  0  0  0
  188.1520  173.4920  139.4190 O   0  0  0  0  0  1  0  0  0  0  0  0
  189.3270  173.8300  139.7170 C   0  0  0  0  0  0  0  0  0  0  0  0
  190.3100  173.8480  138.7330 O   0  0  0  0  0  0  0  0  0  0  0  0
  190.1690  176.3710  142.7470 C   0  0  0  0  0  2  0  0  0  0  0  0
  190.3670  177.7530  142.7460 O   0  0  0  0  0  0  0  0  0  0  0  0
  191.7280  177.9100  143.0000 C   0  0  0  0  0  2  0  0  0  0  0  0
  192.4180  176.5650  142.9120 C   0  0  0  0  0  1  0  0  0  0  0  0
  187.8280  177.0560  142.3730 O   0  0  0  0  0  0  0  0  0  0  0  0
  186.6350  176.5600  141.9500 N   0  0  0  0  0  2  0  0  0  0  0  0
  185.7860  177.6990  141.6440 C   0  0  0  0  0  2  0  0  0  0  0  0
  185.6920  177.8880  140.1430 C   0  0  0  0  0  1  0  0  0  0  0  0
  2  4  1  0  0  0  0
  3  2  1  0  0  0  0
  3  1  2  0  0  0  0
  4  5  1  6  0  0  0
  7  6  1  1  0  0  0
  7  8  1  0  0  0  0
  7  4  1  0  0  0  0
  9  8  1  0  0  0  0
 10  9  1  0  0  0  0
 11 21  1  6  0  0  0
 11 10  1  0  0  0  0
 12 16  2  0  0  0  0
 12 17  1  0  0  0  0
 13 15  2  0  0  0  0
 15 14  1  0  0  0  0
 16 13  1  0  0  0  0
 17 11  1  1  0  0  0
 17 14  1  0  0  0  0
 18 13  1  0  0  0  0
 18 20  1  0  0  0  0
 19 18  2  0  0  0  0
 22 21  1  0  0  0  0
 23 27  1  0  0  0  0
 24 25  1  0  0  0  0
 25 27  2  0  0  0  0
 26 23  2  0  0  0  0
 27 22  1  0  0  0  0
 28 24  1  0  0  0  0
 29 24  2  0  0  0  0
 29 26  1  0  0  0  0
 30  2  1  0  0  0  0
 32 31  1  0  0  0  0
 32 30  1  0  0  0  0
 33 39  1  1  0  0  0
 33  3  1  0  0  0  0
 36 34  1  1  0  0  0
 36 37  1  0  0  0  0
 36 35  1  0  0  0  0
 37 33  1  6  0  0  0
 37 35  1  0  0  0  0
 38 36  1  0  0  0  0
 40 48  1  6  0  0  0
 40 39  1  0  0  0  0
 42 41  1  1  0  0  0
 42 40  1  0  0  0  0
 43 44  1  1  0  0  0
 43 42  1  0  0  0  0
 45 46  1  0  0  0  0
 46 43  1  0  0  0  0
 47 46  2  0  0  0  0
 49 48  1  0  0  0  0
 49 50  1  0  0  0  0
 51 50  1  0  0  0  0
 52 40  1  0  0  0  0
 53 52  1  0  0  0  0
 54 53  1  0  0  0  0
 55 54  1  0  0  0  0
M  END
>  <MODEL>
9

>  <REMARK>
 VINA RESULT:      -4.2      3.838      9.132
  Name = 
  26 active torsions:
  status: ('A' for Active; 'I' for Inactive)
    1  A    between atoms: C_1  and  N_30
    2  A    between atoms: C_2  and  C_28
    3  A    between atoms: C_2  and  C_44
    4  A    between atoms: C_6  and  C_8
    5  A    between atoms: C_6  and  O_20
    6  A    between atoms: C_6  and  C_38
    7  A    between atoms: C_6  and  C_46
    8  A    between atoms: C_7  and  C_8
    9  A    between atoms: C_7  and  C_23
   10  A    between atoms: C_7  and  C_43
   11  A    between atoms: C_10  and  C_32
   12  A    between atoms: C_11  and  C_29
   13  A    between atoms: C_11  and  C_38
   14  A    between atoms: C_12  and  O_14
   15  A    between atoms: O_14  and  C_46
   16  A    between atoms: C_16  and  N_17
   17  A    between atoms: C_16  and  C_26
   18  A    between atoms: N_17  and  C_37
   19  A    between atoms: C_19  and  C_45
   20  A    between atoms: C_19  and  C_49
   21  A    between atoms: O_20  and  N_30
   22  A    between atoms: C_26  and  C_45
   23  A    between atoms: C_28  and  C_33
   24  A    between atoms: C_33  and  C_49
   25  A    between atoms: C_33  and  C_52
   26  A    between atoms: C_37  and  O_40
                            x       y       z     vdW  Elec       q    Type
                         _______ _______ _______ _____ _____    ______ ____

>  <TORSDO>
F 26

$$$$
