=
 OpenBabel11052418013D

 31 34  0  0  1  0  0  0  0  0999 V2000
  189.9550  173.0840  140.6000 C   0  0  1  0  0  3  0  0  0  0  0  0
  187.1100  174.9760  142.3380 C   0  0  0  0  0  2  0  0  0  0  0  0
  188.4630  174.6440  141.7610 C   0  0  0  0  0  0  0  0  0  0  0  0
  191.0050  173.2520  141.7080 C   0  0  0  0  0  2  0  0  0  0  0  0
  188.3340  176.5720  143.8470 C   0  0  2  0  0  3  0  0  0  0  0  0
  189.9240  171.7570  140.1750 O   0  0  0  0  0  1  0  0  0  0  0  0
  189.5520  176.6750  142.9370 C   0  0  0  0  0  2  0  0  0  0  0  0
  187.0410  176.3220  143.0610 C   0  0  1  0  0  3  0  0  0  0  0  0
  188.5960  173.4960  141.0880 C   0  0  0  0  0  3  0  0  0  0  0  0
  189.7200  175.4570  142.0270 C   0  0  1  0  0  3  0  0  0  0  0  0
  190.8530  174.5520  142.5280 C   0  0  0  0  0  2  0  0  0  0  0  0
  186.6460  177.4830  142.1280 C   0  0  1  0  0  3  0  0  0  0  0  0
  186.5020  177.0790  140.8110 F   0  0  0  0  0  0  0  0  0  0  0  0
  186.0240  179.6410  142.8780 O   0  0  0  0  0  1  0  0  0  0  0  0
  185.4740  178.3920  142.5800 C   0  0  1  0  0  0  0  0  0  0  0  0
  183.4290  177.9810  141.8420 O   0  0  0  0  0  1  0  0  0  0  0  0
  184.5560  178.5890  141.5230 O   0  0  0  0  0  0  0  0  0  0  0  0
  184.7380  177.8860  143.8420 C   0  0  0  0  0  2  0  0  0  0  0  0
  184.5630  178.9270  144.9060 C   0  0  0  0  0  3  0  0  0  0  0  0
  184.0100  178.6540  145.9590 O   0  0  0  0  0  0  0  0  0  0  0  0
  188.2550  177.6740  144.9140 C   0  0  0  0  0  2  0  0  0  0  0  0
  186.9500  176.4730  146.7190 C   0  0  0  0  0  2  0  0  0  0  0  0
  188.2280  177.2050  146.3720 C   0  0  0  0  0  0  0  0  0  0  0  0
  187.2160  177.8580  147.2840 C   0  0  0  0  0  2  0  0  0  0  0  0
  189.4550  176.6140  147.0540 C   0  0  0  0  0  2  0  0  0  0  0  0
  189.6800  175.1790  146.6150 C   0  0  0  0  0  2  0  0  0  0  0  0
  191.1340  174.9940  146.2310 C   0  0  0  0  0  2  0  0  0  0  0  0
  193.3580  176.0520  146.2370 C   0  0  2  0  0  3  0  0  0  0  0  0
  194.0660  177.0530  146.9000 O   0  0  0  0  0  1  0  0  0  0  0  0
  192.5600  176.6680  145.1070 C   0  0  0  0  0  2  0  0  0  0  0  0
  191.8740  176.3020  146.4060 C   0  0  1  0  0  3  0  0  0  0  0  0
  1  6  1  1  0  0  0
  1  9  1  0  0  0  0
  1  4  1  0  0  0  0
  2  8  1  0  0  0  0
  3 10  1  0  0  0  0
  3  2  1  0  0  0  0
  4 11  1  0  0  0  0
  5 21  1  6  0  0  0
  7  5  1  0  0  0  0
  8 12  1  6  0  0  0
  8  5  1  0  0  0  0
  9  3  2  0  0  0  0
 10 11  1  1  0  0  0
 10  7  1  0  0  0  0
 12 13  1  6  0  0  0
 12 15  1  0  0  0  0
 15 14  1  1  0  0  0
 15 18  1  0  0  0  0
 17 16  1  0  0  0  0
 17 15  1  0  0  0  0
 18 19  1  0  0  0  0
 19 20  2  0  0  0  0
 21 23  1  0  0  0  0
 22 24  1  0  0  0  0
 23 22  1  0  0  0  0
 23 25  1  0  0  0  0
 23 24  1  0  0  0  0
 26 25  1  0  0  0  0
 27 26  1  0  0  0  0
 28 31  1  0  0  0  0
 28 29  1  1  0  0  0
 30 28  1  0  0  0  0
 30 31  1  0  0  0  0
 31 27  1  6  0  0  0
M  END
>  <MODEL>
1

>  <REMARK>
 VINA RESULT:      -6.4      0.000      0.000
  Name = 
  11 active torsions:
  status: ('A' for Active; 'I' for Inactive)
    1  A    between atoms: C_5  and  C_21
    2  A    between atoms: C_5  and  C_31
    3  A    between atoms: C_6  and  C_7
    4  A    between atoms: C_6  and  C_19
    5  A    between atoms: C_7  and  C_9
    6  A    between atoms: C_9  and  C_23
    7  A    between atoms: C_15  and  C_23
    8  A    between atoms: C_17  and  C_30
    9  A    between atoms: O_18  and  C_31
   10  A    between atoms: C_19  and  C_24
   11  A    between atoms: C_30  and  C_31
                            x       y       z     vdW  Elec       q    Type
                         _______ _______ _______ _____ _____    ______ ____

>  <TORSDO>
F 11

$$$$
=
 OpenBabel11052418013D

 31 34  0  0  1  0  0  0  0  0999 V2000
  184.0260  178.4480  140.8290 C   0  0  1  0  0  3  0  0  0  0  0  0
  185.6290  176.8440  143.9190 C   0  0  0  0  0  2  0  0  0  0  0  0
  185.4590  177.6130  142.6350 C   0  0  0  0  0  0  0  0  0  0  0  0
  184.9870  177.8600  139.7850 C   0  0  0  0  0  2  0  0  0  0  0  0
  188.0210  176.5230  143.2120 C   0  0  2  0  0  3  0  0  0  0  0  0
  182.7080  178.2830  140.4050 O   0  0  0  0  0  1  0  0  0  0  0  0
  188.0170  177.7150  142.2620 C   0  0  0  0  0  2  0  0  0  0  0  0
  187.0750  176.7260  144.4030 C   0  0  1  0  0  3  0  0  0  0  0  0
  184.2190  177.7840  142.1620 C   0  0  0  0  0  3  0  0  0  0  0  0
  186.6160  178.0740  141.7630 C   0  0  1  0  0  3  0  0  0  0  0  0
  186.4180  177.6160  140.3140 C   0  0  0  0  0  2  0  0  0  0  0  0
  187.4900  177.8810  145.3360 C   0  0  1  0  0  3  0  0  0  0  0  0
  186.7890  179.0480  145.0790 F   0  0  0  0  0  0  0  0  0  0  0  0
  187.2080  176.2350  147.0160 O   0  0  0  0  0  1  0  0  0  0  0  0
  187.5610  177.5770  146.8550 C   0  0  1  0  0  0  0  0  0  0  0  0
  189.6700  177.9490  146.2980 O   0  0  0  0  0  1  0  0  0  0  0  0
  188.8850  177.7140  147.3320 O   0  0  0  0  0  0  0  0  0  0  0  0
  186.5920  178.4270  147.7100 C   0  0  0  0  0  2  0  0  0  0  0  0
  185.1820  177.9190  147.7210 C   0  0  0  0  0  3  0  0  0  0  0  0
  184.3770  178.3020  146.8880 O   0  0  0  0  0  0  0  0  0  0  0  0
  189.4240  176.0080  143.5640 C   0  0  0  0  0  2  0  0  0  0  0  0
  190.4210  174.0090  142.3760 C   0  0  0  0  0  2  0  0  0  0  0  0
  189.6080  174.4870  143.5590 C   0  0  0  0  0  0  0  0  0  0  0  0
  188.9310  173.7180  142.4480 C   0  0  0  0  0  2  0  0  0  0  0  0
  189.8960  173.7030  144.8320 C   0  0  0  0  0  2  0  0  0  0  0  0
  190.2160  174.6380  145.9840 C   0  0  0  0  0  2  0  0  0  0  0  0
  191.7020  174.5870  146.2740 C   0  0  0  0  0  2  0  0  0  0  0  0
  193.7800  175.9050  146.3940 C   0  0  2  0  0  3  0  0  0  0  0  0
  194.2440  177.1320  146.8630 O   0  0  0  0  0  1  0  0  0  0  0  0
  193.2030  176.0840  145.0060 C   0  0  0  0  0  2  0  0  0  0  0  0
  192.2790  175.9840  146.2020 C   0  0  1  0  0  3  0  0  0  0  0  0
  1  6  1  6  0  0  0
  1  9  1  0  0  0  0
  2  8  1  0  0  0  0
  3  2  1  0  0  0  0
  4 11  1  0  0  0  0
  4  1  1  0  0  0  0
  5 21  1  1  0  0  0
  5  8  1  0  0  0  0
  7  5  1  0  0  0  0
  8 12  1  6  0  0  0
  9  3  2  0  0  0  0
 10 11  1  6  0  0  0
 10  7  1  0  0  0  0
 10  3  1  0  0  0  0
 12 13  1  1  0  0  0
 12 15  1  0  0  0  0
 15 14  1  1  0  0  0
 15 17  1  0  0  0  0
 15 18  1  0  0  0  0
 16 17  1  0  0  0  0
 18 19  1  0  0  0  0
 20 19  2  0  0  0  0
 22 24  1  0  0  0  0
 22 23  1  0  0  0  0
 23 21  1  0  0  0  0
 23 25  1  0  0  0  0
 24 23  1  0  0  0  0
 25 26  1  0  0  0  0
 26 27  1  0  0  0  0
 28 29  1  1  0  0  0
 30 31  1  0  0  0  0
 30 28  1  0  0  0  0
 31 27  1  6  0  0  0
 31 28  1  0  0  0  0
M  END
>  <MODEL>
2

>  <REMARK>
 VINA RESULT:      -6.1      2.293      4.718
  Name = 
  11 active torsions:
  status: ('A' for Active; 'I' for Inactive)
    1  A    between atoms: C_5  and  C_21
    2  A    between atoms: C_5  and  C_31
    3  A    between atoms: C_6  and  C_7
    4  A    between atoms: C_6  and  C_19
    5  A    between atoms: C_7  and  C_9
    6  A    between atoms: C_9  and  C_23
    7  A    between atoms: C_15  and  C_23
    8  A    between atoms: C_17  and  C_30
    9  A    between atoms: O_18  and  C_31
   10  A    between atoms: C_19  and  C_24
   11  A    between atoms: C_30  and  C_31
                            x       y       z     vdW  Elec       q    Type
                         _______ _______ _______ _____ _____    ______ ____

>  <TORSDO>
F 11

$$$$
=
 OpenBabel11052418013D

 31 34  0  0  1  0  0  0  0  0999 V2000
  184.8820  178.7070  145.3300 C   0  0  1  0  0  3  0  0  0  0  0  0
  187.8000  176.4560  146.3850 C   0  0  0  0  0  2  0  0  0  0  0  0
  186.9610  177.4380  145.6090 C   0  0  0  0  0  0  0  0  0  0  0  0
  184.7560  178.1960  143.8870 C   0  0  0  0  0  2  0  0  0  0  0  0
  188.9750  175.9970  144.2100 C   0  0  2  0  0  3  0  0  0  0  0  0
  183.6230  178.7570  145.9250 O   0  0  0  0  0  1  0  0  0  0  0  0
  188.5610  177.3210  143.5780 C   0  0  0  0  0  2  0  0  0  0  0  0
  189.1370  176.1050  145.7320 C   0  0  1  0  0  3  0  0  0  0  0  0
  185.7900  177.8180  146.1300 C   0  0  0  0  0  3  0  0  0  0  0  0
  187.2920  177.9070  144.2010 C   0  0  1  0  0  3  0  0  0  0  0  0
  186.0890  177.7160  143.2700 C   0  0  0  0  0  2  0  0  0  0  0  0
  190.2810  177.0390  146.1700 C   0  0  1  0  0  3  0  0  0  0  0  0
  189.8530  178.0280  147.0420 F   0  0  0  0  0  0  0  0  0  0  0  0
  191.9970  177.0660  147.8030 O   0  0  0  0  0  1  0  0  0  0  0  0
  191.5950  176.3750  146.6570 C   0  0  1  0  0  0  0  0  0  0  0  0
  191.2720  175.0010  148.3610 O   0  0  0  0  0  1  0  0  0  0  0  0
  191.3660  175.0350  147.0450 O   0  0  0  0  0  0  0  0  0  0  0  0
  192.7510  176.4470  145.6320 C   0  0  0  0  0  2  0  0  0  0  0  0
  194.1070  176.6020  146.2500 C   0  0  0  0  0  3  0  0  0  0  0  0
  194.7640  175.6220  146.5640 O   0  0  0  0  0  0  0  0  0  0  0  0
  190.1160  175.2820  143.4740 C   0  0  0  0  0  2  0  0  0  0  0  0
  190.5380  173.9060  141.3920 C   0  0  0  0  0  2  0  0  0  0  0  0
  189.7280  174.0410  142.6640 C   0  0  0  0  0  0  0  0  0  0  0  0
  189.0650  174.2750  141.3260 C   0  0  0  0  0  2  0  0  0  0  0  0
  189.4350  172.7020  143.3260 C   0  0  0  0  0  2  0  0  0  0  0  0
  190.2470  172.5370  144.5970 C   0  0  0  0  0  2  0  0  0  0  0  0
  191.5780  171.8950  144.2640 C   0  0  0  0  0  2  0  0  0  0  0  0
  194.0160  172.0290  144.5900 C   0  0  2  0  0  3  0  0  0  0  0  0
  194.9490  172.4940  145.5150 O   0  0  0  0  0  1  0  0  0  0  0  0
  193.6140  173.1610  143.6700 C   0  0  0  0  0  2  0  0  0  0  0  0
  192.7020  172.7500  144.8070 C   0  0  1  0  0  3  0  0  0  0  0  0
  1  6  1  1  0  0  0
  1  9  1  0  0  0  0
  3  9  2  0  0  0  0
  3  2  1  0  0  0  0
  4  1  1  0  0  0  0
  5 21  1  6  0  0  0
  5  8  1  0  0  0  0
  7 10  1  0  0  0  0
  7  5  1  0  0  0  0
  8 12  1  6  0  0  0
  8  2  1  0  0  0  0
 10 11  1  6  0  0  0
 10  3  1  0  0  0  0
 11  4  1  0  0  0  0
 12 15  1  0  0  0  0
 12 13  1  1  0  0  0
 15 17  1  0  0  0  0
 15 14  1  1  0  0  0
 17 16  1  0  0  0  0
 18 19  1  0  0  0  0
 18 15  1  0  0  0  0
 19 20  2  0  0  0  0
 22 23  1  0  0  0  0
 23 25  1  0  0  0  0
 23 21  1  0  0  0  0
 24 22  1  0  0  0  0
 24 23  1  0  0  0  0
 25 26  1  0  0  0  0
 27 26  1  0  0  0  0
 28 31  1  0  0  0  0
 28 29  1  1  0  0  0
 30 28  1  0  0  0  0
 30 31  1  0  0  0  0
 31 27  1  6  0  0  0
M  END
>  <MODEL>
3

>  <REMARK>
 VINA RESULT:      -6.1      2.520      6.710
  Name = 
  11 active torsions:
  status: ('A' for Active; 'I' for Inactive)
    1  A    between atoms: C_5  and  C_21
    2  A    between atoms: C_5  and  C_31
    3  A    between atoms: C_6  and  C_7
    4  A    between atoms: C_6  and  C_19
    5  A    between atoms: C_7  and  C_9
    6  A    between atoms: C_9  and  C_23
    7  A    between atoms: C_15  and  C_23
    8  A    between atoms: C_17  and  C_30
    9  A    between atoms: O_18  and  C_31
   10  A    between atoms: C_19  and  C_24
   11  A    between atoms: C_30  and  C_31
                            x       y       z     vdW  Elec       q    Type
                         _______ _______ _______ _____ _____    ______ ____

>  <TORSDO>
F 11

$$$$
=
 OpenBabel11052418013D

 31 34  0  0  1  0  0  0  0  0999 V2000
  190.5250  171.9990  141.4290 C   0  0  1  0  0  3  0  0  0  0  0  0
  187.6730  174.3520  142.4410 C   0  0  0  0  0  2  0  0  0  0  0  0
  189.0480  173.8370  142.1010 C   0  0  0  0  0  0  0  0  0  0  0  0
  191.4590  172.3100  142.6080 C   0  0  0  0  0  2  0  0  0  0  0  0
  188.8520  176.1280  143.7730 C   0  0  2  0  0  3  0  0  0  0  0  0
  190.4310  170.6200  141.2510 O   0  0  0  0  0  1  0  0  0  0  0  0
  190.1660  175.9840  143.0140 C   0  0  0  0  0  2  0  0  0  0  0  0
  187.6350  175.8120  142.8950 C   0  0  1  0  0  3  0  0  0  0  0  0
  189.1590  172.5760  141.6680 C   0  0  0  0  0  3  0  0  0  0  0  0
  190.3310  174.6080  142.3660 C   0  0  1  0  0  3  0  0  0  0  0  0
  191.3260  173.7480  143.1540 C   0  0  0  0  0  2  0  0  0  0  0  0
  187.4390  176.7970  141.7260 C   0  0  1  0  0  3  0  0  0  0  0  0
  187.5590  176.1840  140.4900 F   0  0  0  0  0  0  0  0  0  0  0  0
  185.2820  177.1340  142.6460 O   0  0  0  0  0  1  0  0  0  0  0  0
  186.2040  177.7340  141.7850 C   0  0  1  0  0  0  0  0  0  0  0  0
  185.8540  179.1260  143.4700 O   0  0  0  0  0  1  0  0  0  0  0  0
  186.5470  178.9810  142.3560 O   0  0  0  0  0  0  0  0  0  0  0  0
  185.5100  177.9420  140.4190 C   0  0  0  0  0  2  0  0  0  0  0  0
  184.0910  178.4140  140.5210 C   0  0  0  0  0  3  0  0  0  0  0  0
  183.1840  177.7720  140.0160 O   0  0  0  0  0  0  0  0  0  0  0  0
  188.7490  177.4150  144.6050 C   0  0  0  0  0  2  0  0  0  0  0  0
  187.8590  175.9860  146.4950 C   0  0  0  0  0  2  0  0  0  0  0  0
  188.6310  177.2320  146.1230 C   0  0  0  0  0  0  0  0  0  0  0  0
  187.2510  177.3600  146.7230 C   0  0  0  0  0  2  0  0  0  0  0  0
  189.7950  177.5130  147.0630 C   0  0  0  0  0  2  0  0  0  0  0  0
  190.5890  176.2480  147.3350 C   0  0  0  0  0  2  0  0  0  0  0  0
  192.0610  176.5900  147.4350 C   0  0  0  0  0  2  0  0  0  0  0  0
  194.1940  175.9190  146.4010 C   0  0  2  0  0  3  0  0  0  0  0  0
  194.9440  176.1470  145.2490 O   0  0  0  0  0  1  0  0  0  0  0  0
  193.1890  174.8180  146.1360 C   0  0  0  0  0  2  0  0  0  0  0  0
  192.7450  176.2650  146.1250 C   0  0  1  0  0  3  0  0  0  0  0  0
  1  6  1  1  0  0  0
  1  9  1  0  0  0  0
  1  4  1  0  0  0  0
  2  8  1  0  0  0  0
  3 10  1  0  0  0  0
  3  2  1  0  0  0  0
  4 11  1  0  0  0  0
  5 21  1  6  0  0  0
  7  5  1  0  0  0  0
  8 12  1  6  0  0  0
  8  5  1  0  0  0  0
  9  3  2  0  0  0  0
 10  7  1  1  0  0  0
 10 11  1  0  0  0  0
 12 13  1  6  0  0  0
 12 15  1  0  0  0  0
 15 17  1  0  0  0  0
 15 14  1  1  0  0  0
 17 16  1  0  0  0  0
 18 19  1  0  0  0  0
 18 15  1  0  0  0  0
 20 19  2  0  0  0  0
 21 23  1  0  0  0  0
 22 24  1  0  0  0  0
 23 22  1  0  0  0  0
 23 24  1  0  0  0  0
 23 25  1  0  0  0  0
 25 26  1  0  0  0  0
 26 27  1  0  0  0  0
 28 29  1  6  0  0  0
 30 28  1  0  0  0  0
 31 30  1  0  0  0  0
 31 28  1  0  0  0  0
 31 27  1  1  0  0  0
M  END
>  <MODEL>
4

>  <REMARK>
 VINA RESULT:      -6.0      1.501      2.057
  Name = 
  11 active torsions:
  status: ('A' for Active; 'I' for Inactive)
    1  A    between atoms: C_5  and  C_21
    2  A    between atoms: C_5  and  C_31
    3  A    between atoms: C_6  and  C_7
    4  A    between atoms: C_6  and  C_19
    5  A    between atoms: C_7  and  C_9
    6  A    between atoms: C_9  and  C_23
    7  A    between atoms: C_15  and  C_23
    8  A    between atoms: C_17  and  C_30
    9  A    between atoms: O_18  and  C_31
   10  A    between atoms: C_19  and  C_24
   11  A    between atoms: C_30  and  C_31
                            x       y       z     vdW  Elec       q    Type
                         _______ _______ _______ _____ _____    ______ ____

>  <TORSDO>
F 11

$$$$
=
 OpenBabel11052418013D

 31 34  0  0  1  0  0  0  0  0999 V2000
  194.9380  174.6580  145.0270 C   0  0  1  0  0  3  0  0  0  0  0  0
  191.2950  173.9810  144.0450 C   0  0  0  0  0  2  0  0  0  0  0  0
  192.5780  174.7040  144.3630 C   0  0  0  0  0  0  0  0  0  0  0  0
  194.6510  175.6780  146.1400 C   0  0  0  0  0  2  0  0  0  0  0  0
  190.1300  176.1150  144.6890 C   0  0  2  0  0  3  0  0  0  0  0  0
  195.8590  173.7140  145.4760 O   0  0  0  0  0  1  0  0  0  0  0  0
  191.3610  176.9860  144.4660 C   0  0  0  0  0  2  0  0  0  0  0  0
  190.1040  174.8970  143.7580 C   0  0  1  0  0  3  0  0  0  0  0  0
  193.6730  173.9730  144.5980 C   0  0  0  0  0  3  0  0  0  0  0  0
  192.6720  176.2060  144.5850 C   0  0  1  0  0  3  0  0  0  0  0  0
  193.3720  176.5130  145.9140 C   0  0  0  0  0  2  0  0  0  0  0  0
  189.9730  175.2580  142.2650 C   0  0  1  0  0  3  0  0  0  0  0  0
  191.0990  174.9130  141.5360 F   0  0  0  0  0  0  0  0  0  0  0  0
  189.0380  173.9330  140.5400 O   0  0  0  0  0  1  0  0  0  0  0  0
  188.6680  174.8330  141.5420 C   0  0  1  0  0  0  0  0  0  0  0  0
  187.7260  172.8870  142.0100 O   0  0  0  0  0  1  0  0  0  0  0  0
  187.8100  174.1380  142.4230 O   0  0  0  0  0  0  0  0  0  0  0  0
  187.9140  176.0050  140.8700 C   0  0  0  0  0  2  0  0  0  0  0  0
  186.9630  176.7210  141.7810 C   0  0  0  0  0  3  0  0  0  0  0  0
  186.6730  177.8890  141.5840 O   0  0  0  0  0  0  0  0  0  0  0  0
  188.8160  176.9020  144.7840 C   0  0  0  0  0  2  0  0  0  0  0  0
  188.3740  177.1600  147.2620 C   0  0  0  0  0  2  0  0  0  0  0  0
  187.8990  176.5520  145.9600 C   0  0  0  0  0  0  0  0  0  0  0  0
  188.4750  175.6610  147.0360 C   0  0  0  0  0  2  0  0  0  0  0  0
  186.3820  176.5410  145.8290 C   0  0  0  0  0  2  0  0  0  0  0  0
  185.7400  177.4060  146.8990 C   0  0  0  0  0  2  0  0  0  0  0  0
  184.9240  178.4980  146.2390 C   0  0  0  0  0  2  0  0  0  0  0  0
  183.8620  179.0480  144.0850 C   0  0  2  0  0  3  0  0  0  0  0  0
  183.6910  178.5160  142.8090 O   0  0  0  0  0  1  0  0  0  0  0  0
  185.1820  179.7870  144.1480 C   0  0  0  0  0  2  0  0  0  0  0  0
  185.0650  178.3970  144.7360 C   0  0  1  0  0  3  0  0  0  0  0  0
  1  6  1  1  0  0  0
  1  4  1  0  0  0  0
  2  3  1  0  0  0  0
  3 10  1  0  0  0  0
  3  9  2  0  0  0  0
  5 21  1  6  0  0  0
  7  5  1  0  0  0  0
  8 12  1  6  0  0  0
  8  2  1  0  0  0  0
  8  5  1  0  0  0  0
  9  1  1  0  0  0  0
 10  7  1  1  0  0  0
 10 11  1  0  0  0  0
 11  4  1  0  0  0  0
 12 13  1  6  0  0  0
 15 14  1  6  0  0  0
 15 12  1  0  0  0  0
 15 17  1  0  0  0  0
 16 17  1  0  0  0  0
 18 15  1  0  0  0  0
 18 19  1  0  0  0  0
 20 19  2  0  0  0  0
 21 23  1  0  0  0  0
 23 24  1  0  0  0  0
 23 22  1  0  0  0  0
 24 22  1  0  0  0  0
 25 23  1  0  0  0  0
 25 26  1  0  0  0  0
 27 26  1  0  0  0  0
 28 29  1  6  0  0  0
 28 30  1  0  0  0  0
 28 31  1  0  0  0  0
 30 31  1  0  0  0  0
 31 27  1  1  0  0  0
M  END
>  <MODEL>
5

>  <REMARK>
 VINA RESULT:      -6.0      2.027      5.670
  Name = 
  11 active torsions:
  status: ('A' for Active; 'I' for Inactive)
    1  A    between atoms: C_5  and  C_21
    2  A    between atoms: C_5  and  C_31
    3  A    between atoms: C_6  and  C_7
    4  A    between atoms: C_6  and  C_19
    5  A    between atoms: C_7  and  C_9
    6  A    between atoms: C_9  and  C_23
    7  A    between atoms: C_15  and  C_23
    8  A    between atoms: C_17  and  C_30
    9  A    between atoms: O_18  and  C_31
   10  A    between atoms: C_19  and  C_24
   11  A    between atoms: C_30  and  C_31
                            x       y       z     vdW  Elec       q    Type
                         _______ _______ _______ _____ _____    ______ ____

>  <TORSDO>
F 11

$$$$
=
 OpenBabel11052418013D

 31 34  0  0  1  0  0  0  0  0999 V2000
  190.6700  172.1310  139.6170 C   0  0  1  0  0  3  0  0  0  0  0  0
  190.3120  174.9980  142.1370 C   0  0  0  0  0  2  0  0  0  0  0  0
  190.0190  173.7580  141.3320 C   0  0  0  0  0  0  0  0  0  0  0  0
  189.3210  172.3270  138.9090 C   0  0  0  0  0  2  0  0  0  0  0  0
  187.8210  175.2190  142.3900 C   0  0  2  0  0  3  0  0  0  0  0  0
  191.6840  171.9870  138.6720 O   0  0  0  0  0  1  0  0  0  0  0  0
  187.5470  173.7480  142.0980 C   0  0  0  0  0  2  0  0  0  0  0  0
  189.1800  175.4340  143.0680 C   0  0  1  0  0  3  0  0  0  0  0  0
  190.9720  173.2960  140.5150 C   0  0  0  0  0  3  0  0  0  0  0  0
  188.6540  173.0900  141.2730 C   0  0  1  0  0  3  0  0  0  0  0  0
  188.2090  172.8950  139.8190 C   0  0  0  0  0  2  0  0  0  0  0  0
  189.2820  174.8050  144.4710 C   0  0  1  0  0  3  0  0  0  0  0  0
  190.0690  173.6660  144.4850 F   0  0  0  0  0  0  0  0  0  0  0  0
  188.4300  176.3830  146.0190 O   0  0  0  0  0  1  0  0  0  0  0  0
  189.6210  175.7520  145.6520 C   0  0  1  0  0  0  0  0  0  0  0  0
  189.0000  174.4670  147.3430 O   0  0  0  0  0  1  0  0  0  0  0  0
  190.0590  175.0140  146.7750 O   0  0  0  0  0  0  0  0  0  0  0  0
  190.6500  176.8510  145.2990 C   0  0  0  0  0  2  0  0  0  0  0  0
  192.0720  176.3780  145.2940 C   0  0  0  0  0  3  0  0  0  0  0  0
  192.9700  177.1090  144.9080 O   0  0  0  0  0  0  0  0  0  0  0  0
  186.6390  175.9600  143.0330 C   0  0  0  0  0  2  0  0  0  0  0  0
  186.6400  177.3890  140.9450 C   0  0  0  0  0  2  0  0  0  0  0  0
  186.2630  177.3070  142.4080 C   0  0  0  0  0  0  0  0  0  0  0  0
  187.4010  178.2040  141.9770 C   0  0  0  0  0  2  0  0  0  0  0  0
  184.9470  178.0060  142.7220 C   0  0  0  0  0  2  0  0  0  0  0  0
  185.1830  179.2630  143.5390 C   0  0  0  0  0  2  0  0  0  0  0  0
  184.5810  179.0860  144.9180 C   0  0  0  0  0  2  0  0  0  0  0  0
  185.0500  178.4010  147.2370 C   0  0  2  0  0  3  0  0  0  0  0  0
  186.1210  178.2700  148.1190 O   0  0  0  0  0  1  0  0  0  0  0  0
  184.9320  177.1440  146.4020 C   0  0  0  0  0  2  0  0  0  0  0  0
  185.5750  178.3830  145.8160 C   0  0  1  0  0  3  0  0  0  0  0  0
  1  6  1  6  0  0  0
  1  9  1  0  0  0  0
  2  8  1  0  0  0  0
  3  2  1  0  0  0  0
  4  1  1  0  0  0  0
  4 11  1  0  0  0  0
  5 21  1  1  0  0  0
  5  8  1  0  0  0  0
  7  5  1  0  0  0  0
  8 12  1  1  0  0  0
  9  3  2  0  0  0  0
 10 11  1  6  0  0  0
 10  3  1  0  0  0  0
 10  7  1  0  0  0  0
 12 13  1  6  0  0  0
 12 15  1  0  0  0  0
 15 14  1  1  0  0  0
 15 17  1  0  0  0  0
 17 16  1  0  0  0  0
 18 15  1  0  0  0  0
 19 18  1  0  0  0  0
 20 19  2  0  0  0  0
 22 24  1  0  0  0  0
 22 23  1  0  0  0  0
 23 25  1  0  0  0  0
 23 21  1  0  0  0  0
 24 23  1  0  0  0  0
 25 26  1  0  0  0  0
 26 27  1  0  0  0  0
 28 29  1  1  0  0  0
 30 28  1  0  0  0  0
 31 27  1  6  0  0  0
 31 30  1  0  0  0  0
 31 28  1  0  0  0  0
M  END
>  <MODEL>
6

>  <REMARK>
 VINA RESULT:      -6.0      2.622      5.733
  Name = 
  11 active torsions:
  status: ('A' for Active; 'I' for Inactive)
    1  A    between atoms: C_5  and  C_21
    2  A    between atoms: C_5  and  C_31
    3  A    between atoms: C_6  and  C_7
    4  A    between atoms: C_6  and  C_19
    5  A    between atoms: C_7  and  C_9
    6  A    between atoms: C_9  and  C_23
    7  A    between atoms: C_15  and  C_23
    8  A    between atoms: C_17  and  C_30
    9  A    between atoms: O_18  and  C_31
   10  A    between atoms: C_19  and  C_24
   11  A    between atoms: C_30  and  C_31
                            x       y       z     vdW  Elec       q    Type
                         _______ _______ _______ _____ _____    ______ ____

>  <TORSDO>
F 11

$$$$
=
 OpenBabel11052418013D

 31 34  0  0  1  0  0  0  0  0999 V2000
  193.2940  175.3390  146.4320 C   0  0  1  0  0  3  0  0  0  0  0  0
  190.3150  177.5200  145.3980 C   0  0  0  0  0  2  0  0  0  0  0  0
  191.1490  176.3160  145.7560 C   0  0  0  0  0  0  0  0  0  0  0  0
  193.2090  174.3340  145.2740 C   0  0  0  0  0  2  0  0  0  0  0  0
  188.8670  175.9210  144.1070 C   0  0  2  0  0  3  0  0  0  0  0  0
  194.6110  175.7660  146.5930 O   0  0  0  0  0  1  0  0  0  0  0  0
  189.3290  174.6960  144.8880 C   0  0  0  0  0  2  0  0  0  0  0  0
  188.8870  177.1950  144.9600 C   0  0  1  0  0  3  0  0  0  0  0  0
  192.4020  176.5200  146.1760 C   0  0  0  0  0  3  0  0  0  0  0  0
  190.7080  174.8800  145.5220 C   0  0  1  0  0  3  0  0  0  0  0  0
  191.7770  174.1060  144.7420 C   0  0  0  0  0  2  0  0  0  0  0  0
  187.8910  177.1710  146.1360 C   0  0  1  0  0  3  0  0  0  0  0  0
  188.4850  177.5130  147.3400 F   0  0  0  0  0  0  0  0  0  0  0  0
  185.5480  176.9150  145.9000 O   0  0  0  0  0  1  0  0  0  0  0  0
  186.5370  177.9010  145.9370 C   0  0  1  0  0  0  0  0  0  0  0  0
  185.1620  178.2650  147.6330 O   0  0  0  0  0  1  0  0  0  0  0  0
  186.2470  178.7320  147.0440 O   0  0  0  0  0  0  0  0  0  0  0  0
  186.4470  178.7090  144.6210 C   0  0  0  0  0  2  0  0  0  0  0  0
  185.0650  178.7920  144.0480 C   0  0  0  0  0  3  0  0  0  0  0  0
  184.2300  179.5330  144.5410 O   0  0  0  0  0  0  0  0  0  0  0  0
  187.5880  175.6950  143.2880 C   0  0  0  0  0  2  0  0  0  0  0  0
  188.1070  177.3880  141.4800 C   0  0  0  0  0  2  0  0  0  0  0  0
  187.6900  175.9650  141.7830 C   0  0  0  0  0  0  0  0  0  0  0  0
  186.6880  176.9280  141.1900 C   0  0  0  0  0  2  0  0  0  0  0  0
  188.2910  174.9520  140.8180 C   0  0  0  0  0  2  0  0  0  0  0  0
  188.2430  173.5520  141.4020 C   0  0  0  0  0  2  0  0  0  0  0  0
  189.6540  173.0510  141.6240 C   0  0  0  0  0  2  0  0  0  0  0  0
  192.0430  173.5000  141.2200 C   0  0  2  0  0  3  0  0  0  0  0  0
  192.9220  174.5710  141.0770 O   0  0  0  0  0  1  0  0  0  0  0  0
  191.4010  173.1960  139.8840 C   0  0  0  0  0  2  0  0  0  0  0  0
  190.6330  173.9730  140.9320 C   0  0  1  0  0  3  0  0  0  0  0  0
  1  6  1  6  0  0  0
  2  3  1  0  0  0  0
  3  9  2  0  0  0  0
  4  1  1  0  0  0  0
  5 21  1  1  0  0  0
  5  7  1  0  0  0  0
  5  8  1  0  0  0  0
  7 10  1  0  0  0  0
  8  2  1  0  0  0  0
  8 12  1  1  0  0  0
  9  1  1  0  0  0  0
 10 11  1  6  0  0  0
 10  3  1  0  0  0  0
 11  4  1  0  0  0  0
 12 13  1  1  0  0  0
 15 14  1  6  0  0  0
 15 12  1  0  0  0  0
 15 17  1  0  0  0  0
 17 16  1  0  0  0  0
 18 15  1  0  0  0  0
 19 20  2  0  0  0  0
 19 18  1  0  0  0  0
 22 23  1  0  0  0  0
 23 21  1  0  0  0  0
 24 22  1  0  0  0  0
 24 23  1  0  0  0  0
 25 26  1  0  0  0  0
 25 23  1  0  0  0  0
 26 27  1  0  0  0  0
 28 29  1  6  0  0  0
 30 31  1  0  0  0  0
 30 28  1  0  0  0  0
 31 28  1  0  0  0  0
 31 27  1  1  0  0  0
M  END
>  <MODEL>
7

>  <REMARK>
 VINA RESULT:      -5.8      2.054      5.111
  Name = 
  11 active torsions:
  status: ('A' for Active; 'I' for Inactive)
    1  A    between atoms: C_5  and  C_21
    2  A    between atoms: C_5  and  C_31
    3  A    between atoms: C_6  and  C_7
    4  A    between atoms: C_6  and  C_19
    5  A    between atoms: C_7  and  C_9
    6  A    between atoms: C_9  and  C_23
    7  A    between atoms: C_15  and  C_23
    8  A    between atoms: C_17  and  C_30
    9  A    between atoms: O_18  and  C_31
   10  A    between atoms: C_19  and  C_24
   11  A    between atoms: C_30  and  C_31
                            x       y       z     vdW  Elec       q    Type
                         _______ _______ _______ _____ _____    ______ ____

>  <TORSDO>
F 11

$$$$
=
 OpenBabel11052418013D

 31 34  0  0  1  0  0  0  0  0999 V2000
  185.3560  178.4480  146.5560 C   0  0  1  0  0  3  0  0  0  0  0  0
  188.2300  175.9140  146.6850 C   0  0  0  0  0  2  0  0  0  0  0  0
  187.4130  177.1330  146.3370 C   0  0  0  0  0  0  0  0  0  0  0  0
  185.2340  178.5240  145.0270 C   0  0  0  0  0  2  0  0  0  0  0  0
  189.4150  176.2930  144.5000 C   0  0  2  0  0  3  0  0  0  0  0  0
  184.0930  178.2920  147.1240 O   0  0  0  0  0  1  0  0  0  0  0  0
  189.0270  177.7650  144.4160 C   0  0  0  0  0  2  0  0  0  0  0  0
  189.5670  175.8140  145.9490 C   0  0  1  0  0  3  0  0  0  0  0  0
  186.2430  177.3070  146.9610 C   0  0  0  0  0  3  0  0  0  0  0  0
  187.7630  178.0940  145.2120 C   0  0  1  0  0  3  0  0  0  0  0  0
  186.5640  178.2900  144.2770 C   0  0  0  0  0  2  0  0  0  0  0  0
  190.7210  176.4930  146.7100 C   0  0  1  0  0  3  0  0  0  0  0  0
  190.2840  177.1920  147.8230 F   0  0  0  0  0  0  0  0  0  0  0  0
  191.8920  175.2950  148.3850 O   0  0  0  0  0  1  0  0  0  0  0  0
  191.9690  175.6280  147.0300 C   0  0  1  0  0  0  0  0  0  0  0  0
  193.1790  174.0030  146.1400 O   0  0  0  0  0  1  0  0  0  0  0  0
  191.9350  174.4140  146.3070 O   0  0  0  0  0  0  0  0  0  0  0  0
  193.3130  176.3550  146.7970 C   0  0  0  0  0  2  0  0  0  0  0  0
  193.3670  177.1470  145.5260 C   0  0  0  0  0  3  0  0  0  0  0  0
  194.1230  176.8250  144.6240 O   0  0  0  0  0  0  0  0  0  0  0  0
  190.5510  175.8910  143.5490 C   0  0  0  0  0  2  0  0  0  0  0  0
  191.6790  173.7390  142.8410 C   0  0  0  0  0  2  0  0  0  0  0  0
  190.3960  174.5410  142.8400 C   0  0  0  0  0  0  0  0  0  0  0  0
  191.1610  174.3520  141.5510 C   0  0  0  0  0  2  0  0  0  0  0  0
  189.1550  173.6760  143.0100 C   0  0  0  0  0  2  0  0  0  0  0  0
  188.1840  173.8890  141.8630 C   0  0  0  0  0  2  0  0  0  0  0  0
  187.4850  175.2210  142.0360 C   0  0  0  0  0  2  0  0  0  0  0  0
  186.6510  177.1350  140.7290 C   0  0  2  0  0  3  0  0  0  0  0  0
  186.5450  177.5650  139.4080 O   0  0  0  0  0  1  0  0  0  0  0  0
  188.0150  177.5080  141.2690 C   0  0  0  0  0  2  0  0  0  0  0  0
  187.7410  176.0880  140.8230 C   0  0  1  0  0  3  0  0  0  0  0  0
  1  9  1  0  0  0  0
  1  6  1  1  0  0  0
  3  2  1  0  0  0  0
  3  9  2  0  0  0  0
  4  1  1  0  0  0  0
  5 21  1  6  0  0  0
  5  8  1  0  0  0  0
  7  5  1  0  0  0  0
  7 10  1  0  0  0  0
  8  2  1  0  0  0  0
  8 12  1  1  0  0  0
 10 11  1  6  0  0  0
 10  3  1  0  0  0  0
 11  4  1  0  0  0  0
 12 15  1  0  0  0  0
 12 13  1  1  0  0  0
 15 14  1  1  0  0  0
 16 17  1  0  0  0  0
 17 15  1  0  0  0  0
 18 15  1  0  0  0  0
 19 18  1  0  0  0  0
 20 19  2  0  0  0  0
 23 22  1  0  0  0  0
 23 25  1  0  0  0  0
 23 21  1  0  0  0  0
 24 23  1  0  0  0  0
 24 22  1  0  0  0  0
 26 27  1  0  0  0  0
 26 25  1  0  0  0  0
 28 29  1  6  0  0  0
 28 31  1  0  0  0  0
 28 30  1  0  0  0  0
 31 30  1  0  0  0  0
 31 27  1  1  0  0  0
M  END
>  <MODEL>
8

>  <REMARK>
 VINA RESULT:      -5.8      2.490      7.432
  Name = 
  11 active torsions:
  status: ('A' for Active; 'I' for Inactive)
    1  A    between atoms: C_5  and  C_21
    2  A    between atoms: C_5  and  C_31
    3  A    between atoms: C_6  and  C_7
    4  A    between atoms: C_6  and  C_19
    5  A    between atoms: C_7  and  C_9
    6  A    between atoms: C_9  and  C_23
    7  A    between atoms: C_15  and  C_23
    8  A    between atoms: C_17  and  C_30
    9  A    between atoms: O_18  and  C_31
   10  A    between atoms: C_19  and  C_24
   11  A    between atoms: C_30  and  C_31
                            x       y       z     vdW  Elec       q    Type
                         _______ _______ _______ _____ _____    ______ ____

>  <TORSDO>
F 11

$$$$
=
 OpenBabel11052418013D

 31 34  0  0  1  0  0  0  0  0999 V2000
  184.9050  178.5990  145.2300 C   0  0  1  0  0  3  0  0  0  0  0  0
  187.7880  176.4280  146.5220 C   0  0  0  0  0  2  0  0  0  0  0  0
  186.9660  177.3380  145.6460 C   0  0  0  0  0  0  0  0  0  0  0  0
  184.7790  177.9480  143.8440 C   0  0  0  0  0  2  0  0  0  0  0  0
  188.9660  175.7380  144.4110 C   0  0  2  0  0  3  0  0  0  0  0  0
  183.6440  178.7250  145.8100 O   0  0  0  0  0  1  0  0  0  0  0  0
  188.5730  176.9980  143.6470 C   0  0  0  0  0  2  0  0  0  0  0  0
  189.1230  175.9960  145.9140 C   0  0  1  0  0  3  0  0  0  0  0  0
  185.7970  177.7830  146.1200 C   0  0  0  0  0  3  0  0  0  0  0  0
  187.3090  177.6590  144.2000 C   0  0  1  0  0  3  0  0  0  0  0  0
  186.1070  177.3910  143.2870 C   0  0  0  0  0  2  0  0  0  0  0  0
  190.2770  176.9550  146.2640 C   0  0  1  0  0  3  0  0  0  0  0  0
  189.8590  178.0320  147.0280 F   0  0  0  0  0  0  0  0  0  0  0  0
  191.9260  177.0590  147.9610 O   0  0  0  0  0  1  0  0  0  0  0  0
  191.5800  176.3260  146.8230 C   0  0  1  0  0  0  0  0  0  0  0  0
  191.3460  174.9810  148.5650 O   0  0  0  0  0  1  0  0  0  0  0  0
  191.3540  174.9960  147.2450 O   0  0  0  0  0  0  0  0  0  0  0  0
  192.7750  176.3830  145.8430 C   0  0  0  0  0  2  0  0  0  0  0  0
  194.1120  176.4700  146.5150 C   0  0  0  0  0  3  0  0  0  0  0  0
  194.9900  175.6600  146.2620 O   0  0  0  0  0  0  0  0  0  0  0  0
  190.1010  174.9390  143.7560 C   0  0  0  0  0  2  0  0  0  0  0  0
  189.8250  172.6370  144.7690 C   0  0  0  0  0  2  0  0  0  0  0  0
  189.8230  173.4550  143.4960 C   0  0  0  0  0  0  0  0  0  0  0  0
  190.9530  172.4880  143.7630 C   0  0  0  0  0  2  0  0  0  0  0  0
  188.7740  172.9910  142.4950 C   0  0  0  0  0  2  0  0  0  0  0  0
  188.6610  173.9670  141.3380 C   0  0  0  0  0  2  0  0  0  0  0  0
  189.6220  173.5580  140.2400 C   0  0  0  0  0  2  0  0  0  0  0  0
  190.1570  171.6930  138.7230 C   0  0  2  0  0  3  0  0  0  0  0  0
  189.6670  170.4430  138.3470 O   0  0  0  0  0  1  0  0  0  0  0  0
  191.0200  171.5410  139.9570 C   0  0  0  0  0  2  0  0  0  0  0  0
  189.6000  172.0530  140.0850 C   0  0  1  0  0  3  0  0  0  0  0  0
  1  6  1  1  0  0  0
  1  9  1  0  0  0  0
  3  9  2  0  0  0  0
  3  2  1  0  0  0  0
  4  1  1  0  0  0  0
  5 21  1  6  0  0  0
  5  8  1  0  0  0  0
  7 10  1  0  0  0  0
  7  5  1  0  0  0  0
  8 12  1  6  0  0  0
  8  2  1  0  0  0  0
 10 11  1  6  0  0  0
 10  3  1  0  0  0  0
 11  4  1  0  0  0  0
 12 15  1  0  0  0  0
 12 13  1  1  0  0  0
 15 17  1  0  0  0  0
 15 14  1  1  0  0  0
 17 16  1  0  0  0  0
 18 19  1  0  0  0  0
 18 15  1  0  0  0  0
 20 19  2  0  0  0  0
 23 21  1  0  0  0  0
 23 24  1  0  0  0  0
 23 22  1  0  0  0  0
 24 22  1  0  0  0  0
 25 23  1  0  0  0  0
 26 25  1  0  0  0  0
 27 26  1  0  0  0  0
 28 29  1  1  0  0  0
 28 30  1  0  0  0  0
 28 31  1  0  0  0  0
 30 31  1  0  0  0  0
 31 27  1  6  0  0  0
M  END
>  <MODEL>
9

>  <REMARK>
 VINA RESULT:      -5.8      2.171      7.411
  Name = 
  11 active torsions:
  status: ('A' for Active; 'I' for Inactive)
    1  A    between atoms: C_5  and  C_21
    2  A    between atoms: C_5  and  C_31
    3  A    between atoms: C_6  and  C_7
    4  A    between atoms: C_6  and  C_19
    5  A    between atoms: C_7  and  C_9
    6  A    between atoms: C_9  and  C_23
    7  A    between atoms: C_15  and  C_23
    8  A    between atoms: C_17  and  C_30
    9  A    between atoms: O_18  and  C_31
   10  A    between atoms: C_19  and  C_24
   11  A    between atoms: C_30  and  C_31
                            x       y       z     vdW  Elec       q    Type
                         _______ _______ _______ _____ _____    ______ ____

>  <TORSDO>
F 11

$$$$
