=
 OpenBabel11052418523D

 34 38  0  0  1  0  0  0  0  0999 V2000
  189.3520  175.7610  142.8110 C   0  0  2  0  0  3  0  0  0  0  0  0
  190.5290  177.6400  143.7850 C   0  0  0  0  0  0  0  0  0  0  0  0
  191.0930  175.4440  142.3770 S   0  0  0  0  0  0  0  0  0  0  0  0
  190.6650  178.6850  144.4030 O   0  0  0  0  0  0  0  0  0  0  0  0
  191.6090  177.1070  142.9120 C   0  0  2  0  0  3  0  0  0  0  0  0
  189.2900  176.8200  143.8970 C   0  0  1  0  0  3  0  0  0  0  0  0
  186.0000  178.6030  144.6580 C   0  0  0  0  0  0  0  0  0  0  0  0
  187.5460  177.4630  146.1500 C   0  0  0  0  0  3  0  0  0  0  0  0
  188.0310  177.6320  143.7470 C   0  0  0  0  0  0  0  0  0  0  0  0
  185.4980  178.4190  147.0210 C   0  0  0  0  0  3  0  0  0  0  0  0
  186.6920  177.7220  147.2240 C   0  0  0  0  0  3  0  0  0  0  0  0
  187.2070  177.8960  144.8580 C   0  0  0  0  0  0  0  0  0  0  0  0
  185.1540  178.8620  145.7400 C   0  0  0  0  0  3  0  0  0  0  0  0
  186.4860  178.7380  142.3060 C   0  0  0  0  0  3  0  0  0  0  0  0
  185.6430  179.0250  143.3790 C   0  0  0  0  0  3  0  0  0  0  0  0
  187.6410  178.0500  142.5080 N   0  0  0  0  0  0  0  0  0  0  0  0
  192.8480  177.0050  143.6670 N   0  0  0  0  0  2  0  0  0  0  0  0
  192.8530  175.6970  144.3030 C   0  0  0  0  0  2  0  0  0  0  0  0
  192.6450  175.8640  145.8000 C   0  0  2  0  0  3  0  0  0  0  0  0
  193.5030  173.5820  145.8200 O   0  0  0  0  0  1  0  0  0  0  0  0
  193.0230  174.6260  146.6190 C   0  0  2  0  0  3  0  0  0  0  0  0
  191.5730  174.9020  146.2740 C   0  0  1  0  0  3  0  0  0  0  0  0
  189.5940  174.9350  147.5990 O   0  0  0  0  0  1  0  0  0  0  0  0
  190.7830  176.8670  147.3670 O   0  0  0  0  0  1  0  0  0  0  0  0
  190.8750  175.4780  147.4920 C   0  0  0  0  0  3  0  0  0  0  0  0
  188.6960  174.4900  143.3080 C   0  0  0  0  0  2  0  0  0  0  0  0
  188.4830  173.5680  142.1970 N   0  0  0  0  0  2  0  0  0  0  0  0
  191.4730  171.6860  141.9990 N   0  0  0  0  0  0  0  0  0  0  0  0
  189.8490  171.6760  140.3280 O   0  0  0  0  0  0  0  0  0  0  0  0
  189.0370  172.2470  142.5150 C   0  0  1  0  0  3  0  0  0  0  0  0
  190.1230  171.8440  141.5460 C   0  0  0  0  0  0  0  0  0  0  0  0
  190.7570  171.9580  144.2920 C   0  0  0  0  0  3  0  0  0  0  0  0
  189.4830  172.1670  143.9570 C   0  0  0  0  0  3  0  0  0  0  0  0
  191.7860  171.7440  143.2590 C   0  0  0  0  0  3  0  0  0  0  0  0
  1 26  1  1  0  0  0
  1  6  1  0  0  0  0
  2  6  1  0  0  0  0
  2  4  2  0  0  0  0
  3  1  1  0  0  0  0
  3  5  1  0  0  0  0
  5 17  1  1  0  0  0
  5  2  1  0  0  0  0
  6  9  1  6  0  0  0
  7 12  1  0  0  0  0
  7 13  2  0  0  0  0
  8 11  1  0  0  0  0
  9 12  1  0  0  0  0
 10 11  2  0  0  0  0
 12  8  2  0  0  0  0
 13 10  1  0  0  0  0
 14 16  1  0  0  0  0
 14 15  2  0  0  0  0
 15  7  1  0  0  0  0
 16  9  2  0  0  0  0
 17 18  1  0  0  0  0
 19 18  1  6  0  0  0
 19 22  1  0  0  0  0
 19 21  1  0  0  0  0
 21 20  1  6  0  0  0
 22 21  1  0  0  0  0
 22 25  1  1  0  0  0
 24 25  1  0  0  0  0
 25 23  1  0  0  0  0
 27 26  1  0  0  0  0
 28 34  2  0  0  0  0
 29 31  2  0  0  0  0
 30 27  1  6  0  0  0
 30 33  1  0  0  0  0
 31 28  1  0  0  0  0
 31 30  1  0  0  0  0
 33 32  2  0  0  0  0
 34 32  1  0  0  0  0
M  END
>  <MODEL>
1

>  <REMARK>
 VINA RESULT:      -7.3      0.000      0.000
  Name = 
  8 active torsions:
  status: ('A' for Active; 'I' for Inactive)
    1  A    between atoms: C_3  and  C_13
    2  A    between atoms: C_3  and  N_17
    3  A    between atoms: C_4  and  C_31
    4  A    between atoms: C_5  and  C_26
    5  A    between atoms: C_12  and  N_28
    6  A    between atoms: N_17  and  C_29
    7  A    between atoms: C_20  and  C_34
    8  A    between atoms: C_26  and  N_28
                            x       y       z     vdW  Elec       q    Type
                         _______ _______ _______ _____ _____    ______ ____

>  <TORSDO>
F 8

$$$$
=
 OpenBabel11052418523D

 34 38  0  0  1  0  0  0  0  0999 V2000
  189.2580  174.3450  143.4660 C   0  0  2  0  0  3  0  0  0  0  0  0
  189.1590  176.7640  143.3930 C   0  0  0  0  0  0  0  0  0  0  0  0
  187.9750  174.6810  142.2160 S   0  0  0  0  0  0  0  0  0  0  0  0
  189.4550  177.9120  143.6880 O   0  0  0  0  0  0  0  0  0  0  0  0
  187.9110  176.4490  142.6460 C   0  0  2  0  0  3  0  0  0  0  0  0
  190.0470  175.6150  143.7300 C   0  0  1  0  0  3  0  0  0  0  0  0
  192.2350  176.0220  146.8320 C   0  0  0  0  0  0  0  0  0  0  0  0
  192.6910  176.5780  144.5100 C   0  0  0  0  0  3  0  0  0  0  0  0
  190.5170  175.6370  145.1600 C   0  0  0  0  0  0  0  0  0  0  0  0
  194.3920  176.9250  146.1990 C   0  0  0  0  0  3  0  0  0  0  0  0
  193.9770  176.9920  144.8660 C   0  0  0  0  0  3  0  0  0  0  0  0
  191.8110  176.0850  145.4860 C   0  0  0  0  0  0  0  0  0  0  0  0
  193.5210  176.4430  147.1810 C   0  0  0  0  0  3  0  0  0  0  0  0
  190.1070  175.0810  147.4430 C   0  0  0  0  0  3  0  0  0  0  0  0
  191.3780  175.5200  147.8100 C   0  0  0  0  0  3  0  0  0  0  0  0
  189.7120  175.1400  146.1440 N   0  0  0  0  0  0  0  0  0  0  0  0
  187.8550  177.2380  141.4250 N   0  0  0  0  0  2  0  0  0  0  0  0
  186.6160  177.9970  141.4650 C   0  0  0  0  0  2  0  0  0  0  0  0
  185.9900  177.8700  142.8460 C   0  0  2  0  0  3  0  0  0  0  0  0
  183.9510  178.2900  141.5770 O   0  0  0  0  0  1  0  0  0  0  0  0
  184.4700  178.0530  142.8540 C   0  0  2  0  0  3  0  0  0  0  0  0
  185.3810  179.1970  143.2520 C   0  0  1  0  0  3  0  0  0  0  0  0
  186.3310  178.4380  145.3000 O   0  0  0  0  0  1  0  0  0  0  0  0
  184.1270  179.0160  145.2690 O   0  0  0  0  0  1  0  0  0  0  0  0
  185.3930  179.3210  144.7640 C   0  0  0  0  0  3  0  0  0  0  0  0
  190.1960  173.2620  142.9760 C   0  0  0  0  0  2  0  0  0  0  0  0
  191.5090  173.8310  142.6830 N   0  0  0  0  0  2  0  0  0  0  0  0
  194.9340  173.6930  143.5590 N   0  0  0  0  0  0  0  0  0  0  0  0
  194.1720  173.5020  141.3650 O   0  0  0  0  0  0  0  0  0  0  0  0
  192.5690  172.8830  143.0430 C   0  0  1  0  0  3  0  0  0  0  0  0
  193.9290  173.3630  142.5940 C   0  0  0  0  0  0  0  0  0  0  0  0
  193.5370  172.8350  145.3370 C   0  0  0  0  0  3  0  0  0  0  0  0
  192.5280  172.5420  144.5150 C   0  0  0  0  0  3  0  0  0  0  0  0
  194.7680  173.4660  144.8290 C   0  0  0  0  0  3  0  0  0  0  0  0
  1 26  1  6  0  0  0
  1  6  1  0  0  0  0
  2  4  2  0  0  0  0
  2  6  1  0  0  0  0
  3  5  1  0  0  0  0
  3  1  1  0  0  0  0
  5 17  1  6  0  0  0
  5  2  1  0  0  0  0
  6  9  1  1  0  0  0
  7 13  1  0  0  0  0
  7 15  1  0  0  0  0
  8 11  2  0  0  0  0
  8 12  1  0  0  0  0
  9 12  1  0  0  0  0
  9 16  2  0  0  0  0
 10 13  2  0  0  0  0
 11 10  1  0  0  0  0
 12  7  2  0  0  0  0
 14 15  2  0  0  0  0
 16 14  1  0  0  0  0
 17 18  1  0  0  0  0
 19 18  1  6  0  0  0
 19 21  1  0  0  0  0
 19 22  1  0  0  0  0
 21 20  1  6  0  0  0
 21 22  1  0  0  0  0
 22 25  1  1  0  0  0
 25 24  1  0  0  0  0
 25 23  1  0  0  0  0
 27 26  1  0  0  0  0
 28 34  2  0  0  0  0
 29 31  2  0  0  0  0
 30 27  1  1  0  0  0
 30 33  1  0  0  0  0
 31 30  1  0  0  0  0
 31 28  1  0  0  0  0
 33 32  2  0  0  0  0
 34 32  1  0  0  0  0
M  END
>  <MODEL>
2

>  <REMARK>
 VINA RESULT:      -7.1      2.697      5.949
  Name = 
  8 active torsions:
  status: ('A' for Active; 'I' for Inactive)
    1  A    between atoms: C_3  and  C_13
    2  A    between atoms: C_3  and  N_17
    3  A    between atoms: C_4  and  C_31
    4  A    between atoms: C_5  and  C_26
    5  A    between atoms: C_12  and  N_28
    6  A    between atoms: N_17  and  C_29
    7  A    between atoms: C_20  and  C_34
    8  A    between atoms: C_26  and  N_28
                            x       y       z     vdW  Elec       q    Type
                         _______ _______ _______ _____ _____    ______ ____

>  <TORSDO>
F 8

$$$$
=
 OpenBabel11052418523D

 34 38  0  0  1  0  0  0  0  0999 V2000
  189.6740  175.1480  146.1480 C   0  0  2  0  0  3  0  0  0  0  0  0
  191.2790  176.3660  144.8050 C   0  0  0  0  0  0  0  0  0  0  0  0
  191.1680  175.1740  147.1900 S   0  0  0  0  0  0  0  0  0  0  0  0
  191.7000  176.9860  143.8390 O   0  0  0  0  0  0  0  0  0  0  0  0
  192.2010  175.8020  145.8280 C   0  0  2  0  0  3  0  0  0  0  0  0
  189.8200  176.1700  145.0340 C   0  0  1  0  0  3  0  0  0  0  0  0
  187.4910  176.0400  142.0120 C   0  0  0  0  0  0  0  0  0  0  0  0
  188.0110  177.8830  143.5110 C   0  0  0  0  0  3  0  0  0  0  0  0
  189.0910  175.6960  143.8060 C   0  0  0  0  0  0  0  0  0  0  0  0
  186.4000  178.1850  141.7280 C   0  0  0  0  0  3  0  0  0  0  0  0
  187.1080  178.6940  142.8200 C   0  0  0  0  0  3  0  0  0  0  0  0
  188.2070  176.5490  143.1180 C   0  0  0  0  0  0  0  0  0  0  0  0
  186.5930  176.8600  141.3220 C   0  0  0  0  0  3  0  0  0  0  0  0
  188.5450  173.9020  142.3330 C   0  0  0  0  0  3  0  0  0  0  0  0
  187.6640  174.7140  141.6200 C   0  0  0  0  0  3  0  0  0  0  0  0
  189.2230  174.4000  143.4000 N   0  0  0  0  0  0  0  0  0  0  0  0
  193.0770  176.8480  146.3330 N   0  0  0  0  0  2  0  0  0  0  0  0
  194.4400  176.3590  146.2070 C   0  0  0  0  0  2  0  0  0  0  0  0
  194.5900  175.6160  144.8880 C   0  0  2  0  0  3  0  0  0  0  0  0
  196.2250  174.3570  146.1860 O   0  0  0  0  0  1  0  0  0  0  0  0
  195.6260  174.4890  144.9280 C   0  0  2  0  0  3  0  0  0  0  0  0
  195.9850  175.8390  144.3360 C   0  0  1  0  0  3  0  0  0  0  0  0
  196.5170  176.8890  142.2660 O   0  0  0  0  0  1  0  0  0  0  0  0
  194.6330  175.6120  142.3870 O   0  0  0  0  0  1  0  0  0  0  0  0
  195.9540  175.7400  142.8230 C   0  0  0  0  0  3  0  0  0  0  0  0
  188.4510  175.4780  146.9770 C   0  0  0  0  0  2  0  0  0  0  0  0
  188.1390  176.9000  146.8670 N   0  0  0  0  0  2  0  0  0  0  0  0
  185.6530  179.4190  146.8450 N   0  0  0  0  0  0  0  0  0  0  0  0
  187.1230  179.0960  148.6240 O   0  0  0  0  0  0  0  0  0  0  0  0
  186.7490  177.1510  147.2640 C   0  0  1  0  0  3  0  0  0  0  0  0
  186.5220  178.5980  147.6340 C   0  0  0  0  0  0  0  0  0  0  0  0
  184.9580  177.4870  145.5670 C   0  0  0  0  0  3  0  0  0  0  0  0
  185.7770  176.6580  146.2160 C   0  0  0  0  0  3  0  0  0  0  0  0
  184.9320  178.9260  145.8820 C   0  0  0  0  0  3  0  0  0  0  0  0
  1 26  1  1  0  0  0
  1  3  1  0  0  0  0
  2  6  1  0  0  0  0
  2  5  1  0  0  0  0
  4  2  2  0  0  0  0
  5 17  1  1  0  0  0
  5  3  1  0  0  0  0
  6  9  1  6  0  0  0
  6  1  1  0  0  0  0
  7 12  1  0  0  0  0
 10 11  1  0  0  0  0
 11  8  2  0  0  0  0
 12  8  1  0  0  0  0
 12  9  2  0  0  0  0
 13 10  2  0  0  0  0
 13  7  1  0  0  0  0
 14 16  2  0  0  0  0
 15  7  2  0  0  0  0
 15 14  1  0  0  0  0
 16  9  1  0  0  0  0
 18 17  1  0  0  0  0
 19 21  1  0  0  0  0
 19 18  1  1  0  0  0
 21 20  1  1  0  0  0
 22 25  1  6  0  0  0
 22 19  1  0  0  0  0
 22 21  1  0  0  0  0
 23 25  1  0  0  0  0
 24 25  1  0  0  0  0
 27 26  1  0  0  0  0
 28 31  1  0  0  0  0
 30 27  1  6  0  0  0
 30 31  1  0  0  0  0
 31 29  2  0  0  0  0
 32 34  1  0  0  0  0
 32 33  2  0  0  0  0
 33 30  1  0  0  0  0
 34 28  2  0  0  0  0
M  END
>  <MODEL>
3

>  <REMARK>
 VINA RESULT:      -7.0      2.641      5.732
  Name = 
  8 active torsions:
  status: ('A' for Active; 'I' for Inactive)
    1  A    between atoms: C_3  and  C_13
    2  A    between atoms: C_3  and  N_17
    3  A    between atoms: C_4  and  C_31
    4  A    between atoms: C_5  and  C_26
    5  A    between atoms: C_12  and  N_28
    6  A    between atoms: N_17  and  C_29
    7  A    between atoms: C_20  and  C_34
    8  A    between atoms: C_26  and  N_28
                            x       y       z     vdW  Elec       q    Type
                         _______ _______ _______ _____ _____    ______ ____

>  <TORSDO>
F 8

$$$$
=
 OpenBabel11052418523D

 34 38  0  0  1  0  0  0  0  0999 V2000
  188.9280  175.9360  142.6800 C   0  0  2  0  0  3  0  0  0  0  0  0
  189.7500  177.0150  144.6860 C   0  0  0  0  0  0  0  0  0  0  0  0
  190.7020  175.5200  142.6900 S   0  0  0  0  0  0  0  0  0  0  0  0
  189.6950  177.6760  145.7120 O   0  0  0  0  0  0  0  0  0  0  0  0
  191.0490  176.7010  144.0320 C   0  0  2  0  0  3  0  0  0  0  0  0
  188.5250  176.4550  144.0490 C   0  0  1  0  0  3  0  0  0  0  0  0
  185.3860  178.5260  144.7060 C   0  0  0  0  0  0  0  0  0  0  0  0
  186.4880  176.8680  146.1010 C   0  0  0  0  0  3  0  0  0  0  0  0
  187.4210  177.4670  143.9080 C   0  0  0  0  0  0  0  0  0  0  0  0
  184.4440  177.9240  146.8550 C   0  0  0  0  0  3  0  0  0  0  0  0
  185.4900  177.0210  147.0650 C   0  0  0  0  0  3  0  0  0  0  0  0
  186.4450  177.6130  144.9120 C   0  0  0  0  0  0  0  0  0  0  0  0
  184.3940  178.6780  145.6780 C   0  0  0  0  0  3  0  0  0  0  0  0
  186.3060  179.0820  142.5530 C   0  0  0  0  0  3  0  0  0  0  0  0
  185.3210  179.2620  143.5240 C   0  0  0  0  0  3  0  0  0  0  0  0
  187.3150  178.1960  142.7590 N   0  0  0  0  0  0  0  0  0  0  0  0
  191.9490  176.0820  144.9940 N   0  0  0  0  0  2  0  0  0  0  0  0
  193.2140  176.7930  144.9120 C   0  0  0  0  0  2  0  0  0  0  0  0
  194.2010  175.9720  144.0960 C   0  0  2  0  0  3  0  0  0  0  0  0
  195.0530  175.4340  146.3160 O   0  0  0  0  0  1  0  0  0  0  0  0
  195.2330  175.2230  144.9450 C   0  0  2  0  0  3  0  0  0  0  0  0
  195.5980  176.5330  144.2740 C   0  0  1  0  0  3  0  0  0  0  0  0
  197.6620  176.8810  143.1370 O   0  0  0  0  0  1  0  0  0  0  0  0
  195.7530  176.7080  141.9030 O   0  0  0  0  0  1  0  0  0  0  0  0
  196.4250  176.2430  143.0360 C   0  0  0  0  0  3  0  0  0  0  0  0
  188.1040  174.7120  142.3430 C   0  0  0  0  0  2  0  0  0  0  0  0
  188.5750  174.1180  141.0950 N   0  0  0  0  0  2  0  0  0  0  0  0
  191.0070  171.5490  141.0270 N   0  0  0  0  0  0  0  0  0  0  0  0
  189.8020  172.2120  139.1460 O   0  0  0  0  0  0  0  0  0  0  0  0
  188.7220  172.6660  141.2420 C   0  0  1  0  0  3  0  0  0  0  0  0
  189.8550  172.1270  140.4020 C   0  0  0  0  0  0  0  0  0  0  0  0
  189.9250  171.6770  143.1860 C   0  0  0  0  0  3  0  0  0  0  0  0
  188.8340  172.2670  142.6960 C   0  0  0  0  0  3  0  0  0  0  0  0
  191.0620  171.3430  142.3090 C   0  0  0  0  0  3  0  0  0  0  0  0
  1 26  1  1  0  0  0
  1  3  1  0  0  0  0
  1  6  1  0  0  0  0
  2  4  2  0  0  0  0
  3  5  1  0  0  0  0
  5  2  1  0  0  0  0
  5 17  1  1  0  0  0
  6  9  1  6  0  0  0
  6  2  1  0  0  0  0
  7 12  1  0  0  0  0
  7 13  2  0  0  0  0
  8 11  1  0  0  0  0
  9 12  1  0  0  0  0
 10 11  2  0  0  0  0
 12  8  2  0  0  0  0
 13 10  1  0  0  0  0
 14 16  1  0  0  0  0
 14 15  2  0  0  0  0
 15  7  1  0  0  0  0
 16  9  2  0  0  0  0
 18 17  1  0  0  0  0
 19 22  1  0  0  0  0
 19 18  1  1  0  0  0
 19 21  1  0  0  0  0
 21 20  1  1  0  0  0
 22 25  1  6  0  0  0
 22 21  1  0  0  0  0
 24 25  1  0  0  0  0
 25 23  1  0  0  0  0
 27 26  1  0  0  0  0
 28 34  2  0  0  0  0
 29 31  2  0  0  0  0
 30 27  1  1  0  0  0
 30 33  1  0  0  0  0
 31 28  1  0  0  0  0
 31 30  1  0  0  0  0
 33 32  2  0  0  0  0
 34 32  1  0  0  0  0
M  END
>  <MODEL>
4

>  <REMARK>
 VINA RESULT:      -6.8      1.986      2.832
  Name = 
  8 active torsions:
  status: ('A' for Active; 'I' for Inactive)
    1  A    between atoms: C_3  and  C_13
    2  A    between atoms: C_3  and  N_17
    3  A    between atoms: C_4  and  C_31
    4  A    between atoms: C_5  and  C_26
    5  A    between atoms: C_12  and  N_28
    6  A    between atoms: N_17  and  C_29
    7  A    between atoms: C_20  and  C_34
    8  A    between atoms: C_26  and  N_28
                            x       y       z     vdW  Elec       q    Type
                         _______ _______ _______ _____ _____    ______ ____

>  <TORSDO>
F 8

$$$$
=
 OpenBabel11052418523D

 34 38  0  0  1  0  0  0  0  0999 V2000
  189.2330  175.7970  142.9990 C   0  0  2  0  0  3  0  0  0  0  0  0
  189.9440  177.0840  144.9230 C   0  0  0  0  0  0  0  0  0  0  0  0
  191.0110  175.4220  143.1280 S   0  0  0  0  0  0  0  0  0  0  0  0
  189.8310  177.8410  145.8750 O   0  0  0  0  0  0  0  0  0  0  0  0
  191.2770  176.7350  144.3610 C   0  0  2  0  0  3  0  0  0  0  0  0
  188.7590  176.4380  144.2910 C   0  0  1  0  0  3  0  0  0  0  0  0
  185.5210  178.4420  144.5650 C   0  0  0  0  0  0  0  0  0  0  0  0
  186.5380  176.8870  146.1330 C   0  0  0  0  0  3  0  0  0  0  0  0
  187.6450  177.4080  144.0030 C   0  0  0  0  0  0  0  0  0  0  0  0
  184.4070  177.9160  146.6520 C   0  0  0  0  0  3  0  0  0  0  0  0
  185.4540  177.0570  146.9980 C   0  0  0  0  0  3  0  0  0  0  0  0
  186.5800  177.5730  144.9090 C   0  0  0  0  0  0  0  0  0  0  0  0
  184.4420  178.6100  145.4380 C   0  0  0  0  0  3  0  0  0  0  0  0
  186.6120  178.9210  142.4750 C   0  0  0  0  0  3  0  0  0  0  0  0
  185.5410  179.1170  143.3460 C   0  0  0  0  0  3  0  0  0  0  0  0
  187.6220  178.0760  142.8130 N   0  0  0  0  0  0  0  0  0  0  0  0
  192.1410  176.2330  145.4170 N   0  0  0  0  0  2  0  0  0  0  0  0
  193.4840  176.7140  145.1330 C   0  0  0  0  0  2  0  0  0  0  0  0
  194.4940  175.6390  145.5060 C   0  0  2  0  0  3  0  0  0  0  0  0
  195.6220  176.5070  143.5270 O   0  0  0  0  0  1  0  0  0  0  0  0
  195.6900  175.5580  144.5530 C   0  0  2  0  0  3  0  0  0  0  0  0
  194.5360  174.5830  144.4190 C   0  0  1  0  0  3  0  0  0  0  0  0
  193.8580  172.6970  145.7050 O   0  0  0  0  0  1  0  0  0  0  0  0
  196.0050  173.4380  145.9050 O   0  0  0  0  0  1  0  0  0  0  0  0
  194.9410  173.2510  145.0200 C   0  0  0  0  0  3  0  0  0  0  0  0
  188.4450  174.5280  142.7480 C   0  0  0  0  0  2  0  0  0  0  0  0
  188.3120  174.2950  141.3130 N   0  0  0  0  0  2  0  0  0  0  0  0
  190.0650  171.8880  139.4010 N   0  0  0  0  0  0  0  0  0  0  0  0
  188.1570  172.9820  138.6310 O   0  0  0  0  0  0  0  0  0  0  0  0
  188.3480  172.8580  141.0220 C   0  0  1  0  0  3  0  0  0  0  0  0
  188.8290  172.5790  139.6180 C   0  0  0  0  0  0  0  0  0  0  0  0
  190.2490  171.4320  141.7690 C   0  0  0  0  0  3  0  0  0  0  0  0
  189.1350  172.1020  142.0690 C   0  0  0  0  0  3  0  0  0  0  0  0
  190.7380  171.3610  140.3810 C   0  0  0  0  0  3  0  0  0  0  0  0
  1 26  1  1  0  0  0
  1  3  1  0  0  0  0
  1  6  1  0  0  0  0
  2  4  2  0  0  0  0
  3  5  1  0  0  0  0
  5  2  1  0  0  0  0
  5 17  1  1  0  0  0
  6  9  1  6  0  0  0
  6  2  1  0  0  0  0
  7 12  1  0  0  0  0
  7 13  2  0  0  0  0
  8 11  1  0  0  0  0
  9 12  1  0  0  0  0
 10 11  2  0  0  0  0
 12  8  2  0  0  0  0
 13 10  1  0  0  0  0
 14 16  1  0  0  0  0
 14 15  2  0  0  0  0
 15  7  1  0  0  0  0
 16  9  2  0  0  0  0
 18 17  1  0  0  0  0
 19 18  1  6  0  0  0
 21 20  1  6  0  0  0
 21 19  1  0  0  0  0
 22 21  1  0  0  0  0
 22 25  1  1  0  0  0
 22 19  1  0  0  0  0
 25 23  1  0  0  0  0
 25 24  1  0  0  0  0
 27 26  1  0  0  0  0
 28 31  1  0  0  0  0
 28 34  2  0  0  0  0
 29 31  2  0  0  0  0
 30 27  1  1  0  0  0
 30 33  1  0  0  0  0
 31 30  1  0  0  0  0
 32 33  2  0  0  0  0
 34 32  1  0  0  0  0
M  END
>  <MODEL>
5

>  <REMARK>
 VINA RESULT:      -6.8      1.711      2.492
  Name = 
  8 active torsions:
  status: ('A' for Active; 'I' for Inactive)
    1  A    between atoms: C_3  and  C_13
    2  A    between atoms: C_3  and  N_17
    3  A    between atoms: C_4  and  C_31
    4  A    between atoms: C_5  and  C_26
    5  A    between atoms: C_12  and  N_28
    6  A    between atoms: N_17  and  C_29
    7  A    between atoms: C_20  and  C_34
    8  A    between atoms: C_26  and  N_28
                            x       y       z     vdW  Elec       q    Type
                         _______ _______ _______ _____ _____    ______ ____

>  <TORSDO>
F 8

$$$$
=
 OpenBabel11052418523D

 34 38  0  0  1  0  0  0  0  0999 V2000
  189.3160  174.4520  142.9150 C   0  0  2  0  0  3  0  0  0  0  0  0
  188.7970  176.8060  143.1410 C   0  0  0  0  0  0  0  0  0  0  0  0
  188.1410  174.7600  141.5580 S   0  0  0  0  0  0  0  0  0  0  0  0
  188.8480  177.9300  143.6180 O   0  0  0  0  0  0  0  0  0  0  0  0
  187.7150  176.4100  142.1990 C   0  0  2  0  0  3  0  0  0  0  0  0
  189.8320  175.7780  143.4440 C   0  0  1  0  0  3  0  0  0  0  0  0
  191.6340  175.8830  146.8090 C   0  0  0  0  0  0  0  0  0  0  0  0
  192.3540  176.6630  144.6220 C   0  0  0  0  0  3  0  0  0  0  0  0
  190.1300  175.6610  144.9150 C   0  0  0  0  0  0  0  0  0  0  0  0
  193.8390  176.8460  146.5260 C   0  0  0  0  0  3  0  0  0  0  0  0
  193.5830  177.0420  145.1660 C   0  0  0  0  0  3  0  0  0  0  0  0
  191.3710  176.0770  145.4340 C   0  0  0  0  0  0  0  0  0  0  0  0
  192.8640  176.2700  147.3470 C   0  0  0  0  0  3  0  0  0  0  0  0
  189.4600  174.8850  147.0680 C   0  0  0  0  0  3  0  0  0  0  0  0
  190.6740  175.2880  147.6250 C   0  0  0  0  0  3  0  0  0  0  0  0
  189.2210  175.0690  145.7430 N   0  0  0  0  0  0  0  0  0  0  0  0
  187.6550  177.3530  141.0930 N   0  0  0  0  0  2  0  0  0  0  0  0
  186.2800  177.8170  141.0030 C   0  0  0  0  0  2  0  0  0  0  0  0
  185.5700  177.5480  142.3210 C   0  0  2  0  0  3  0  0  0  0  0  0
  183.6650  178.4130  141.0690 O   0  0  0  0  0  1  0  0  0  0  0  0
  184.0820  177.9130  142.3070 C   0  0  2  0  0  3  0  0  0  0  0  0
  185.0970  178.8580  142.9200 C   0  0  1  0  0  3  0  0  0  0  0  0
  185.8630  179.7020  145.0110 O   0  0  0  0  0  1  0  0  0  0  0  0
  185.4710  177.4650  144.8160 O   0  0  0  0  0  1  0  0  0  0  0  0
  185.0400  178.7360  144.4310 C   0  0  0  0  0  3  0  0  0  0  0  0
  190.4820  173.6200  142.4200 C   0  0  0  0  0  2  0  0  0  0  0  0
  191.5130  174.4860  141.8560 N   0  0  0  0  0  2  0  0  0  0  0  0
  195.0060  175.0410  141.7510 N   0  0  0  0  0  0  0  0  0  0  0  0
  193.6830  174.8820  139.8390 O   0  0  0  0  0  0  0  0  0  0  0  0
  192.7910  173.7710  141.7730 C   0  0  1  0  0  3  0  0  0  0  0  0
  193.8430  174.5820  141.0520 C   0  0  0  0  0  0  0  0  0  0  0  0
  194.3820  173.7350  143.6880 C   0  0  0  0  0  3  0  0  0  0  0  0
  193.2510  173.2990  143.1330 C   0  0  0  0  0  3  0  0  0  0  0  0
  195.2670  174.6690  142.9690 C   0  0  0  0  0  3  0  0  0  0  0  0
  1 26  1  6  0  0  0
  1  6  1  0  0  0  0
  2  6  1  0  0  0  0
  2  4  2  0  0  0  0
  3  5  1  0  0  0  0
  3  1  1  0  0  0  0
  5 17  1  6  0  0  0
  5  2  1  0  0  0  0
  6  9  1  1  0  0  0
  7 13  1  0  0  0  0
  7 15  1  0  0  0  0
  8 11  2  0  0  0  0
  8 12  1  0  0  0  0
  9 12  1  0  0  0  0
  9 16  2  0  0  0  0
 10 13  2  0  0  0  0
 11 10  1  0  0  0  0
 12  7  2  0  0  0  0
 14 15  2  0  0  0  0
 16 14  1  0  0  0  0
 18 17  1  0  0  0  0
 19 18  1  6  0  0  0
 19 22  1  0  0  0  0
 21 20  1  6  0  0  0
 21 19  1  0  0  0  0
 21 22  1  0  0  0  0
 22 25  1  1  0  0  0
 25 24  1  0  0  0  0
 25 23  1  0  0  0  0
 27 26  1  0  0  0  0
 28 34  2  0  0  0  0
 29 31  2  0  0  0  0
 30 27  1  1  0  0  0
 30 33  1  0  0  0  0
 31 28  1  0  0  0  0
 31 30  1  0  0  0  0
 33 32  2  0  0  0  0
 34 32  1  0  0  0  0
M  END
>  <MODEL>
6

>  <REMARK>
 VINA RESULT:      -6.7      2.816      5.999
  Name = 
  8 active torsions:
  status: ('A' for Active; 'I' for Inactive)
    1  A    between atoms: C_3  and  C_13
    2  A    between atoms: C_3  and  N_17
    3  A    between atoms: C_4  and  C_31
    4  A    between atoms: C_5  and  C_26
    5  A    between atoms: C_12  and  N_28
    6  A    between atoms: N_17  and  C_29
    7  A    between atoms: C_20  and  C_34
    8  A    between atoms: C_26  and  N_28
                            x       y       z     vdW  Elec       q    Type
                         _______ _______ _______ _____ _____    ______ ____

>  <TORSDO>
F 8

$$$$
=
 OpenBabel11052418523D

 34 38  0  0  1  0  0  0  0  0999 V2000
  189.3170  174.7660  143.2550 C   0  0  2  0  0  3  0  0  0  0  0  0
  189.2830  177.1700  143.5470 C   0  0  0  0  0  0  0  0  0  0  0  0
  187.8270  175.2840  142.3430 S   0  0  0  0  0  0  0  0  0  0  0  0
  189.6670  178.2620  143.9380 O   0  0  0  0  0  0  0  0  0  0  0  0
  187.9050  176.9720  143.0240 C   0  0  2  0  0  3  0  0  0  0  0  0
  190.1820  175.9820  143.5360 C   0  0  1  0  0  3  0  0  0  0  0  0
  192.9830  175.5570  146.0960 C   0  0  0  0  0  0  0  0  0  0  0  0
  193.0960  176.0500  143.7180 C   0  0  0  0  0  3  0  0  0  0  0  0
  190.9220  175.7930  144.8340 C   0  0  0  0  0  0  0  0  0  0  0  0
  195.1330  175.7830  145.0020 C   0  0  0  0  0  3  0  0  0  0  0  0
  194.4910  176.0340  143.7860 C   0  0  0  0  0  3  0  0  0  0  0  0
  192.3290  175.8080  144.8690 C   0  0  0  0  0  0  0  0  0  0  0  0
  194.3790  175.5480  146.1570 C   0  0  0  0  0  3  0  0  0  0  0  0
  190.8430  175.2890  147.1630 C   0  0  0  0  0  3  0  0  0  0  0  0
  192.2350  175.3000  147.2440 C   0  0  0  0  0  3  0  0  0  0  0  0
  190.2260  175.5240  145.9760 N   0  0  0  0  0  0  0  0  0  0  0  0
  187.6370  177.9290  141.9620 N   0  0  0  0  0  2  0  0  0  0  0  0
  186.5040  178.7330  142.3890 C   0  0  0  0  0  2  0  0  0  0  0  0
  185.9710  178.1940  143.7080 C   0  0  2  0  0  3  0  0  0  0  0  0
  183.8340  178.5680  142.5950 O   0  0  0  0  0  1  0  0  0  0  0  0
  184.4420  178.1280  143.7760 C   0  0  2  0  0  3  0  0  0  0  0  0
  185.1890  179.2790  144.4210 C   0  0  1  0  0  3  0  0  0  0  0  0
  186.3500  178.2430  146.2240 O   0  0  0  0  0  1  0  0  0  0  0  0
  184.0810  178.4260  146.3500 O   0  0  0  0  0  1  0  0  0  0  0  0
  185.2530  179.0510  145.9190 C   0  0  0  0  0  3  0  0  0  0  0  0
  190.1080  173.7630  142.4410 C   0  0  0  0  0  2  0  0  0  0  0  0
  189.6410  172.4090  142.7250 N   0  0  0  0  0  2  0  0  0  0  0  0
  193.0440  171.9130  141.8870 N   0  0  0  0  0  0  0  0  0  0  0  0
  191.2880  170.9040  140.7340 O   0  0  0  0  0  0  0  0  0  0  0  0
  190.7790  171.5230  142.9980 C   0  0  1  0  0  3  0  0  0  0  0  0
  191.7040  171.4120  141.8090 C   0  0  0  0  0  0  0  0  0  0  0  0
  192.7730  172.3270  144.2540 C   0  0  0  0  0  3  0  0  0  0  0  0
  191.5010  171.9260  144.2640 C   0  0  0  0  0  3  0  0  0  0  0  0
  193.5510  172.3480  143.0030 C   0  0  0  0  0  3  0  0  0  0  0  0
  1 26  1  6  0  0  0
  1  6  1  0  0  0  0
  2  4  2  0  0  0  0
  3  5  1  0  0  0  0
  3  1  1  0  0  0  0
  5 17  1  6  0  0  0
  5  2  1  0  0  0  0
  6  2  1  0  0  0  0
  6  9  1  1  0  0  0
  7 13  1  0  0  0  0
  7 15  1  0  0  0  0
  8 11  2  0  0  0  0
  8 12  1  0  0  0  0
  9 12  1  0  0  0  0
  9 16  2  0  0  0  0
 10 13  2  0  0  0  0
 11 10  1  0  0  0  0
 12  7  2  0  0  0  0
 14 15  2  0  0  0  0
 16 14  1  0  0  0  0
 17 18  1  0  0  0  0
 19 18  1  6  0  0  0
 19 21  1  0  0  0  0
 19 22  1  0  0  0  0
 21 20  1  6  0  0  0
 21 22  1  0  0  0  0
 22 25  1  1  0  0  0
 25 23  1  0  0  0  0
 25 24  1  0  0  0  0
 26 27  1  0  0  0  0
 28 34  2  0  0  0  0
 29 31  2  0  0  0  0
 30 27  1  6  0  0  0
 30 33  1  0  0  0  0
 31 28  1  0  0  0  0
 31 30  1  0  0  0  0
 32 33  2  0  0  0  0
 34 32  1  0  0  0  0
M  END
>  <MODEL>
7

>  <REMARK>
 VINA RESULT:      -6.7      2.363      5.875
  Name = 
  8 active torsions:
  status: ('A' for Active; 'I' for Inactive)
    1  A    between atoms: C_3  and  C_13
    2  A    between atoms: C_3  and  N_17
    3  A    between atoms: C_4  and  C_31
    4  A    between atoms: C_5  and  C_26
    5  A    between atoms: C_12  and  N_28
    6  A    between atoms: N_17  and  C_29
    7  A    between atoms: C_20  and  C_34
    8  A    between atoms: C_26  and  N_28
                            x       y       z     vdW  Elec       q    Type
                         _______ _______ _______ _____ _____    ______ ____

>  <TORSDO>
F 8

$$$$
=
 OpenBabel11052418523D

 34 38  0  0  1  0  0  0  0  0999 V2000
  189.6110  175.7060  142.9110 C   0  0  2  0  0  3  0  0  0  0  0  0
  190.7210  177.7250  143.6560 C   0  0  0  0  0  0  0  0  0  0  0  0
  191.3610  175.4060  142.5010 S   0  0  0  0  0  0  0  0  0  0  0  0
  190.8210  178.8380  144.1500 O   0  0  0  0  0  0  0  0  0  0  0  0
  191.8160  177.1360  142.8390 C   0  0  2  0  0  3  0  0  0  0  0  0
  189.5140  176.8780  143.8710 C   0  0  1  0  0  3  0  0  0  0  0  0
  186.1310  178.5530  144.4430 C   0  0  0  0  0  0  0  0  0  0  0  0
  187.6860  177.5800  146.0380 C   0  0  0  0  0  3  0  0  0  0  0  0
  188.2250  177.6210  143.6420 C   0  0  0  0  0  0  0  0  0  0  0  0
  185.5770  178.4940  146.8010 C   0  0  0  0  0  3  0  0  0  0  0  0
  186.7950  177.8660  147.0750 C   0  0  0  0  0  3  0  0  0  0  0  0
  187.3630  177.9160  144.7140 C   0  0  0  0  0  0  0  0  0  0  0  0
  185.2470  178.8400  145.4860 C   0  0  0  0  0  3  0  0  0  0  0  0
  186.6700  178.5630  142.0980 C   0  0  0  0  0  3  0  0  0  0  0  0
  185.7880  178.8780  143.1310 C   0  0  0  0  0  3  0  0  0  0  0  0
  187.8490  177.9430  142.3700 N   0  0  0  0  0  0  0  0  0  0  0  0
  193.0620  177.1660  143.5890 N   0  0  0  0  0  2  0  0  0  0  0  0
  193.8920  176.0870  143.0800 C   0  0  0  0  0  2  0  0  0  0  0  0
  195.0340  175.8280  144.0510 C   0  0  2  0  0  3  0  0  0  0  0  0
  196.3360  176.7910  142.2280 O   0  0  0  0  0  1  0  0  0  0  0  0
  196.4080  176.2400  143.5120 C   0  0  2  0  0  3  0  0  0  0  0  0
  195.9710  174.7890  143.4670 C   0  0  1  0  0  3  0  0  0  0  0  0
  196.3730  172.6680  144.4740 O   0  0  0  0  0  1  0  0  0  0  0  0
  196.1880  174.4980  145.8220 O   0  0  0  0  0  1  0  0  0  0  0  0
  196.6520  174.0300  144.5900 C   0  0  0  0  0  3  0  0  0  0  0  0
  189.0060  174.4760  143.5560 C   0  0  0  0  0  2  0  0  0  0  0  0
  190.0190  173.4340  143.6990 N   0  0  0  0  0  2  0  0  0  0  0  0
  192.0160  174.8700  146.2430 N   0  0  0  0  0  0  0  0  0  0  0  0
  192.7690  173.1670  144.8420 O   0  0  0  0  0  0  0  0  0  0  0  0
  190.3840  173.2670  145.1100 C   0  0  1  0  0  3  0  0  0  0  0  0
  191.7900  173.7430  145.3880 C   0  0  0  0  0  0  0  0  0  0  0  0
  189.6720  174.9150  146.8360 C   0  0  0  0  0  3  0  0  0  0  0  0
  189.3620  173.9030  146.0250 C   0  0  0  0  0  3  0  0  0  0  0  0
  191.0510  175.4290  146.9110 C   0  0  0  0  0  3  0  0  0  0  0  0
  1 26  1  1  0  0  0
  1  6  1  0  0  0  0
  2  6  1  0  0  0  0
  2  4  2  0  0  0  0
  3  5  1  0  0  0  0
  3  1  1  0  0  0  0
  5 17  1  1  0  0  0
  5  2  1  0  0  0  0
  6  9  1  6  0  0  0
  7 12  1  0  0  0  0
  7 13  2  0  0  0  0
  8 11  1  0  0  0  0
  9 12  1  0  0  0  0
 10 11  2  0  0  0  0
 12  8  2  0  0  0  0
 13 10  1  0  0  0  0
 14 16  1  0  0  0  0
 14 15  2  0  0  0  0
 15  7  1  0  0  0  0
 16  9  2  0  0  0  0
 18 17  1  0  0  0  0
 19 18  1  6  0  0  0
 21 20  1  6  0  0  0
 21 19  1  0  0  0  0
 22 21  1  0  0  0  0
 22 19  1  0  0  0  0
 22 25  1  1  0  0  0
 23 25  1  0  0  0  0
 25 24  1  0  0  0  0
 26 27  1  0  0  0  0
 28 34  2  0  0  0  0
 29 31  2  0  0  0  0
 30 27  1  6  0  0  0
 30 31  1  0  0  0  0
 30 33  1  0  0  0  0
 31 28  1  0  0  0  0
 32 34  1  0  0  0  0
 33 32  2  0  0  0  0
M  END
>  <MODEL>
8

>  <REMARK>
 VINA RESULT:      -6.6      1.975      3.357
  Name = 
  8 active torsions:
  status: ('A' for Active; 'I' for Inactive)
    1  A    between atoms: C_3  and  C_13
    2  A    between atoms: C_3  and  N_17
    3  A    between atoms: C_4  and  C_31
    4  A    between atoms: C_5  and  C_26
    5  A    between atoms: C_12  and  N_28
    6  A    between atoms: N_17  and  C_29
    7  A    between atoms: C_20  and  C_34
    8  A    between atoms: C_26  and  N_28
                            x       y       z     vdW  Elec       q    Type
                         _______ _______ _______ _____ _____    ______ ____

>  <TORSDO>
F 8

$$$$
=
 OpenBabel11052418523D

 34 38  0  0  1  0  0  0  0  0999 V2000
  190.0630  176.1220  143.1960 C   0  0  2  0  0  3  0  0  0  0  0  0
  187.9690  175.1650  142.4460 C   0  0  0  0  0  0  0  0  0  0  0  0
  190.5780  174.8970  141.9500 S   0  0  0  0  0  0  0  0  0  0  0  0
  186.7580  175.0050  142.3940 O   0  0  0  0  0  0  0  0  0  0  0  0
  188.9100  174.1700  141.8650 C   0  0  2  0  0  3  0  0  0  0  0  0
  188.5720  176.3800  143.0620 C   0  0  1  0  0  3  0  0  0  0  0  0
  186.5420  178.0380  145.8380 C   0  0  0  0  0  0  0  0  0  0  0  0
  186.5090  178.4120  143.4360 C   0  0  0  0  0  3  0  0  0  0  0  0
  187.9870  176.7090  144.4090 C   0  0  0  0  0  0  0  0  0  0  0  0
  185.0990  179.7390  144.8910 C   0  0  0  0  0  3  0  0  0  0  0  0
  185.5590  179.4220  143.6110 C   0  0  0  0  0  3  0  0  0  0  0  0
  187.0120  177.7150  144.5450 C   0  0  0  0  0  0  0  0  0  0  0  0
  185.5880  179.0460  146.0040 C   0  0  0  0  0  3  0  0  0  0  0  0
  188.0130  176.3790  146.7710 C   0  0  0  0  0  3  0  0  0  0  0  0
  187.0440  177.3650  146.9500 C   0  0  0  0  0  3  0  0  0  0  0  0
  188.4640  176.0820  145.5240 N   0  0  0  0  0  0  0  0  0  0  0  0
  188.5670  173.9210  140.4730 N   0  0  0  0  0  2  0  0  0  0  0  0
  188.8940  172.5320  140.1960 C   0  0  0  0  0  2  0  0  0  0  0  0
  189.3490  172.3990  138.7510 C   0  0  2  0  0  3  0  0  0  0  0  0
  191.4370  171.7570  139.8350 O   0  0  0  0  0  1  0  0  0  0  0  0
  190.8100  171.9630  138.6010 C   0  0  2  0  0  3  0  0  0  0  0  0
  190.4290  173.4240  138.4630 C   0  0  1  0  0  3  0  0  0  0  0  0
  189.0870  174.0430  136.5960 O   0  0  0  0  0  1  0  0  0  0  0  0
  190.9230  172.7410  136.2340 O   0  0  0  0  0  1  0  0  0  0  0  0
  190.4010  173.7920  136.9920 C   0  0  0  0  0  3  0  0  0  0  0  0
  190.8180  177.4200  142.9990 C   0  0  0  0  0  2  0  0  0  0  0  0
  191.6190  177.7190  144.1820 N   0  0  0  0  0  2  0  0  0  0  0  0
  194.7200  176.3750  145.2320 N   0  0  0  0  0  0  0  0  0  0  0  0
  193.9270  176.1930  143.0480 O   0  0  0  0  0  0  0  0  0  0  0  0
  192.2220  176.4920  144.7140 C   0  0  1  0  0  3  0  0  0  0  0  0
  193.6580  176.3330  144.2710 C   0  0  0  0  0  0  0  0  0  0  0  0
  193.1120  176.3900  147.0380 C   0  0  0  0  0  3  0  0  0  0  0  0
  192.0620  176.4040  146.2150 C   0  0  0  0  0  3  0  0  0  0  0  0
  194.4880  176.4110  146.5110 C   0  0  0  0  0  3  0  0  0  0  0  0
  1 26  1  6  0  0  0
  2  6  1  0  0  0  0
  3  1  1  0  0  0  0
  4  2  2  0  0  0  0
  5 17  1  6  0  0  0
  5  3  1  0  0  0  0
  5  2  1  0  0  0  0
  6  1  1  0  0  0  0
  6  9  1  1  0  0  0
  7 13  1  0  0  0  0
  7 15  1  0  0  0  0
  8 11  2  0  0  0  0
  8 12  1  0  0  0  0
  9 12  1  0  0  0  0
  9 16  2  0  0  0  0
 10 13  2  0  0  0  0
 11 10  1  0  0  0  0
 12  7  2  0  0  0  0
 14 15  2  0  0  0  0
 16 14  1  0  0  0  0
 18 17  1  0  0  0  0
 19 18  1  1  0  0  0
 21 19  1  0  0  0  0
 21 20  1  1  0  0  0
 22 25  1  6  0  0  0
 22 21  1  0  0  0  0
 22 19  1  0  0  0  0
 23 25  1  0  0  0  0
 24 25  1  0  0  0  0
 26 27  1  0  0  0  0
 28 34  2  0  0  0  0
 29 31  2  0  0  0  0
 30 27  1  1  0  0  0
 30 33  1  0  0  0  0
 31 30  1  0  0  0  0
 31 28  1  0  0  0  0
 33 32  2  0  0  0  0
 34 32  1  0  0  0  0
M  END
>  <MODEL>
9

>  <REMARK>
 VINA RESULT:      -6.6      2.471      5.900
  Name = 
  8 active torsions:
  status: ('A' for Active; 'I' for Inactive)
    1  A    between atoms: C_3  and  C_13
    2  A    between atoms: C_3  and  N_17
    3  A    between atoms: C_4  and  C_31
    4  A    between atoms: C_5  and  C_26
    5  A    between atoms: C_12  and  N_28
    6  A    between atoms: N_17  and  C_29
    7  A    between atoms: C_20  and  C_34
    8  A    between atoms: C_26  and  N_28
                            x       y       z     vdW  Elec       q    Type
                         _______ _______ _______ _____ _____    ______ ____

>  <TORSDO>
F 8

$$$$
