=
 OpenBabel11052419053D

 32 38  0  0  1  0  0  0  0  0999 V2000
  190.5030  174.0850  142.8590 C   0  0  2  0  0  3  0  0  0  0  0  0
  189.6260  176.5490  143.2370 C   0  0  2  0  0  3  0  0  0  0  0  0
  190.4720  173.1460  144.0530 C   0  0  0  0  0  2  0  0  0  0  0  0
  190.8060  175.5610  143.2370 C   0  0  1  0  0  3  0  0  0  0  0  0
  189.0980  176.8810  144.6280 C   0  0  2  0  0  0  0  0  0  0  0  0
  185.2760  178.0920  141.4920 C   0  0  0  0  0  3  0  0  0  0  0  0
  188.4980  176.2300  142.2500 C   0  0  1  0  0  3  0  0  0  0  0  0
  185.9530  178.6650  143.7450 C   0  0  0  0  0  3  0  0  0  0  0  0
  187.0780  177.8450  143.6220 C   0  0  0  0  0  0  0  0  0  0  0  0
  189.2900  175.9080  145.7850 C   0  0  2  0  0  3  0  0  0  0  0  0
  191.7450  175.7650  144.4590 C   0  0  1  0  0  3  0  0  0  0  0  0
  187.9750  177.7530  144.6920 O   0  0  0  0  0  0  0  0  0  0  0  0
  191.5030  176.9860  145.1480 O   0  0  0  0  0  0  0  0  0  0  0  0
  191.8900  174.5970  145.4510 C   0  0  0  0  0  2  0  0  0  0  0  0
  188.0880  174.7700  142.3480 C   0  0  0  0  0  2  0  0  0  0  0  0
  188.2690  176.1170  146.8910 C   0  0  0  0  0  1  0  0  0  0  0  0
  189.2620  173.8660  141.9840 C   0  0  1  0  0  3  0  0  0  0  0  0
  187.3060  177.1390  142.4180 C   0  0  0  0  0  0  0  0  0  0  0  0
  190.1730  177.1670  145.6650 C   0  0  1  0  0  3  0  0  0  0  0  0
  191.7980  173.2410  144.7780 C   0  0  0  0  0  2  0  0  0  0  0  0
  185.0530  178.7880  142.6830 C   0  0  0  0  0  3  0  0  0  0  0  0
  186.3980  177.2710  141.3600 C   0  0  0  0  0  3  0  0  0  0  0  0
  191.0250  173.0750  138.5670 C   0  0  2  0  0  3  0  0  0  0  0  0
  192.0940  173.9700  138.5090 O   0  0  0  0  0  1  0  0  0  0  0  0
  188.4920  173.1670  138.2270 C   0  0  0  0  0  2  0  0  0  0  0  0
  189.5390  173.8060  140.4760 C   0  0  2  0  0  3  0  0  0  0  0  0
  189.8630  173.6050  137.7030 C   0  0  2  0  0  3  0  0  0  0  0  0
  188.2470  173.6620  139.6580 C   0  0  0  0  0  2  0  0  0  0  0  0
  190.6410  172.8280  140.0320 C   0  0  1  0  0  3  0  0  0  0  0  0
  190.2220  171.5040  140.1800 O   0  0  0  0  0  1  0  0  0  0  0  0
  189.5370  171.8410  135.9170 C   0  0  0  0  0  1  0  0  0  0  0  0
  190.0450  173.2400  136.2330 C   0  0  0  0  0  2  0  0  0  0  0  0
  1  4  1  0  0  0  0
  1  3  1  1  0  0  0
  2  4  1  0  0  0  0
  2  5  1  0  0  0  0
  3 20  1  0  0  0  0
  4 11  1  0  0  0  0
  5 12  1  0  0  0  0
  5 19  1  0  0  0  0
  5 10  1  0  0  0  0
  6 21  1  0  0  0  0
  7 15  1  0  0  0  0
  7 18  1  0  0  0  0
  7  2  1  0  0  0  0
  9  8  1  0  0  0  0
  9 12  1  0  0  0  0
 10 16  1  0  0  0  0
 11 13  1  0  0  0  0
 11 14  1  0  0  0  0
 13 19  1  0  0  0  0
 17 15  1  0  0  0  0
 17  1  1  0  0  0  0
 18  9  2  0  0  0  0
 19 10  1  0  0  0  0
 20 14  1  0  0  0  0
 21  8  2  0  0  0  0
 22  6  2  0  0  0  0
 22 18  1  0  0  0  0
 23 29  1  0  0  0  0
 24 23  1  0  0  0  0
 25 28  1  0  0  0  0
 26 17  1  0  0  0  0
 27 25  1  0  0  0  0
 27 23  1  0  0  0  0
 28 26  1  0  0  0  0
 29 30  1  0  0  0  0
 29 26  1  0  0  0  0
 31 32  1  0  0  0  0
 32 27  1  0  0  0  0
M  END
>  <MODEL>
1

>  <REMARK>
 VINA RESULT:      -8.1      0.000      0.000
  Name = 
  2 active torsions:
  status: ('A' for Active; 'I' for Inactive)
    1  A    between atoms: C_16  and  C_27
    2  A    between atoms: C_19  and  C_26
                            x       y       z     vdW  Elec       q    Type
                         _______ _______ _______ _____ _____    ______ ____

>  <TORSDO>
F 2

$$$$
=
 OpenBabel11052419053D

 32 38  0  0  1  0  0  0  0  0999 V2000
  189.0230  174.3040  142.3480 C   0  0  2  0  0  3  0  0  0  0  0  0
  191.5790  174.9610  142.5010 C   0  0  2  0  0  3  0  0  0  0  0  0
  188.6900  172.8240  142.2730 C   0  0  0  0  0  2  0  0  0  0  0  0
  190.3460  174.6810  141.6240 C   0  0  1  0  0  3  0  0  0  0  0  0
  192.5790  173.8120  142.5450 C   0  0  2  0  0  0  0  0  0  0  0  0
  193.6360  176.5810  146.6840 C   0  0  0  0  0  3  0  0  0  0  0  0
  191.2840  175.5270  143.8940 C   0  0  1  0  0  3  0  0  0  0  0  0
  194.7900  174.9520  145.3140 C   0  0  0  0  0  3  0  0  0  0  0  0
  193.6710  174.8480  144.4830 C   0  0  0  0  0  0  0  0  0  0  0  0
  192.1300  172.3800  142.2800 C   0  0  2  0  0  3  0  0  0  0  0  0
  190.6940  173.8300  140.3700 C   0  0  1  0  0  3  0  0  0  0  0  0
  193.7180  173.9910  143.3780 O   0  0  0  0  0  0  0  0  0  0  0  0
  192.0940  173.7410  140.1310 O   0  0  0  0  0  0  0  0  0  0  0  0
  190.0270  172.4490  140.2380 C   0  0  0  0  0  2  0  0  0  0  0  0
  190.1960  174.7230  144.5870 C   0  0  0  0  0  2  0  0  0  0  0  0
  193.0720  171.3560  142.8900 C   0  0  0  0  0  1  0  0  0  0  0  0
  188.8950  174.8010  143.7940 C   0  0  1  0  0  3  0  0  0  0  0  0
  192.5190  175.6220  144.7550 C   0  0  0  0  0  0  0  0  0  0  0  0
  192.8820  173.1800  141.1960 C   0  0  1  0  0  3  0  0  0  0  0  0
  188.6260  172.4160  140.8160 C   0  0  0  0  0  2  0  0  0  0  0  0
  194.7730  175.8150  146.4120 C   0  0  0  0  0  3  0  0  0  0  0  0
  192.5130  176.4850  145.8570 C   0  0  0  0  0  3  0  0  0  0  0  0
  186.6010  177.8880  143.0110 C   0  0  2  0  0  3  0  0  0  0  0  0
  187.3290  178.6400  142.0890 O   0  0  0  0  0  1  0  0  0  0  0  0
  186.6500  177.4710  145.5340 C   0  0  0  0  0  2  0  0  0  0  0  0
  188.1650  176.1410  143.9530 C   0  0  2  0  0  3  0  0  0  0  0  0
  186.7490  178.5110  144.4140 C   0  0  2  0  0  3  0  0  0  0  0  0
  187.7350  176.3940  145.4060 C   0  0  0  0  0  2  0  0  0  0  0  0
  187.0420  176.4200  142.9390 C   0  0  1  0  0  3  0  0  0  0  0  0
  185.9390  175.5970  143.1770 O   0  0  0  0  0  1  0  0  0  0  0  0
  184.3290  179.2480  144.3460 C   0  0  0  0  0  1  0  0  0  0  0  0
  185.7670  179.6590  144.6260 C   0  0  0  0  0  2  0  0  0  0  0  0
  1  3  1  1  0  0  0
  1 17  1  0  0  0  0
  2  5  1  0  0  0  0
  2  7  1  0  0  0  0
  4  1  1  0  0  0  0
  4  2  1  0  0  0  0
  5 12  1  0  0  0  0
  7 15  1  0  0  0  0
  7 18  1  0  0  0  0
  8 21  2  0  0  0  0
  9 18  2  0  0  0  0
  9  8  1  0  0  0  0
 10  5  1  0  0  0  0
 10 16  1  0  0  0  0
 11  4  1  0  0  0  0
 12  9  1  0  0  0  0
 13 11  1  0  0  0  0
 13 19  1  0  0  0  0
 14 11  1  0  0  0  0
 14 20  1  0  0  0  0
 17 26  1  0  0  0  0
 17 15  1  0  0  0  0
 18 22  1  0  0  0  0
 19 10  1  0  0  0  0
 19  5  1  0  0  0  0
 20  3  1  0  0  0  0
 21  6  1  0  0  0  0
 22  6  2  0  0  0  0
 23 27  1  0  0  0  0
 24 23  1  0  0  0  0
 26 28  1  0  0  0  0
 27 32  1  0  0  0  0
 27 25  1  0  0  0  0
 28 25  1  0  0  0  0
 29 23  1  0  0  0  0
 29 30  1  0  0  0  0
 29 26  1  0  0  0  0
 31 32  1  0  0  0  0
M  END
>  <MODEL>
2

>  <REMARK>
 VINA RESULT:      -7.9      2.104      6.911
  Name = 
  2 active torsions:
  status: ('A' for Active; 'I' for Inactive)
    1  A    between atoms: C_16  and  C_27
    2  A    between atoms: C_19  and  C_26
                            x       y       z     vdW  Elec       q    Type
                         _______ _______ _______ _____ _____    ______ ____

>  <TORSDO>
F 2

$$$$
=
 OpenBabel11052419053D

 32 38  0  0  1  0  0  0  0  0999 V2000
  188.4400  177.1110  144.9400 C   0  0  2  0  0  3  0  0  0  0  0  0
  188.9330  174.7660  143.8250 C   0  0  2  0  0  3  0  0  0  0  0  0
  189.6340  177.9020  145.4490 C   0  0  0  0  0  2  0  0  0  0  0  0
  188.6040  175.5730  145.0930 C   0  0  1  0  0  3  0  0  0  0  0  0
  190.3960  174.3530  143.7180 C   0  0  2  0  0  0  0  0  0  0  0  0
  188.6360  174.0540  138.9510 C   0  0  0  0  0  3  0  0  0  0  0  0
  188.3970  175.3490  142.5130 C   0  0  1  0  0  3  0  0  0  0  0  0
  190.4960  173.1380  140.2010 C   0  0  0  0  0  3  0  0  0  0  0  0
  190.0590  173.8020  141.3500 C   0  0  0  0  0  0  0  0  0  0  0  0
  191.4820  175.1510  144.4280 C   0  0  2  0  0  3  0  0  0  0  0  0
  189.4290  175.1020  146.3230 C   0  0  1  0  0  3  0  0  0  0  0  0
  190.7740  173.6450  142.5430 O   0  0  0  0  0  0  0  0  0  0  0  0
  190.0820  173.8550  146.1100 O   0  0  0  0  0  0  0  0  0  0  0  0
  190.3880  176.1170  146.9700 C   0  0  0  0  0  2  0  0  0  0  0  0
  188.7170  176.8310  142.4080 C   0  0  0  0  0  2  0  0  0  0  0  0
  192.8490  174.9610  143.7920 C   0  0  0  0  0  1  0  0  0  0  0  0
  188.0420  177.5990  143.5410 C   0  0  1  0  0  3  0  0  0  0  0  0
  188.8940  174.6020  141.3010 C   0  0  0  0  0  0  0  0  0  0  0  0
  190.9980  173.8040  145.0020 C   0  0  1  0  0  3  0  0  0  0  0  0
  189.8700  177.5410  146.9000 C   0  0  0  0  0  2  0  0  0  0  0  0
  189.7880  173.2640  139.0040 C   0  0  0  0  0  3  0  0  0  0  0  0
  188.1910  174.7200  140.0950 C   0  0  0  0  0  3  0  0  0  0  0  0
  184.3760  178.9260  143.9950 C   0  0  2  0  0  3  0  0  0  0  0  0
  183.9150  178.2940  145.1500 O   0  0  0  0  0  1  0  0  0  0  0  0
  184.7650  178.2920  141.5480 C   0  0  0  0  0  2  0  0  0  0  0  0
  186.5340  177.7920  143.3310 C   0  0  2  0  0  3  0  0  0  0  0  0
  183.8250  178.1950  142.7540 C   0  0  2  0  0  3  0  0  0  0  0  0
  186.1410  177.6860  141.8500 C   0  0  0  0  0  2  0  0  0  0  0  0
  185.9080  179.0100  144.0320 C   0  0  1  0  0  3  0  0  0  0  0  0
  186.3170  180.2000  143.4240 O   0  0  0  0  0  1  0  0  0  0  0  0
  182.0170  178.2910  140.9850 C   0  0  0  0  0  1  0  0  0  0  0  0
  182.4150  178.6620  142.4060 C   0  0  0  0  0  2  0  0  0  0  0  0
  1  4  1  0  0  0  0
  1  3  1  6  0  0  0
  2  4  1  0  0  0  0
  3 20  1  0  0  0  0
  4 11  1  0  0  0  0
  5  2  1  0  0  0  0
  5 10  1  0  0  0  0
  5 19  1  0  0  0  0
  6 21  2  0  0  0  0
  6 22  1  0  0  0  0
  7  2  1  0  0  0  0
  8  9  2  0  0  0  0
  9 12  1  0  0  0  0
 10 19  1  0  0  0  0
 11 14  1  0  0  0  0
 12  5  1  0  0  0  0
 13 11  1  0  0  0  0
 15  7  1  0  0  0  0
 15 17  1  0  0  0  0
 16 10  1  0  0  0  0
 17  1  1  0  0  0  0
 18  9  1  0  0  0  0
 18  7  1  0  0  0  0
 19 13  1  0  0  0  0
 20 14  1  0  0  0  0
 21  8  1  0  0  0  0
 22 18  2  0  0  0  0
 23 29  1  0  0  0  0
 23 24  1  0  0  0  0
 25 28  1  0  0  0  0
 25 27  1  0  0  0  0
 26 17  1  0  0  0  0
 26 29  1  0  0  0  0
 27 23  1  0  0  0  0
 28 26  1  0  0  0  0
 30 29  1  0  0  0  0
 31 32  1  0  0  0  0
 32 27  1  0  0  0  0
M  END
>  <MODEL>
3

>  <REMARK>
 VINA RESULT:      -7.9      1.756      6.369
  Name = 
  2 active torsions:
  status: ('A' for Active; 'I' for Inactive)
    1  A    between atoms: C_16  and  C_27
    2  A    between atoms: C_19  and  C_26
                            x       y       z     vdW  Elec       q    Type
                         _______ _______ _______ _____ _____    ______ ____

>  <TORSDO>
F 2

$$$$
=
 OpenBabel11052419053D

 32 38  0  0  1  0  0  0  0  0999 V2000
  192.1520  175.9140  145.3340 C   0  0  2  0  0  3  0  0  0  0  0  0
  192.0860  173.8590  143.6740 C   0  0  2  0  0  3  0  0  0  0  0  0
  193.3770  176.8120  145.2800 C   0  0  0  0  0  2  0  0  0  0  0  0
  192.4660  174.4180  145.0560 C   0  0  1  0  0  3  0  0  0  0  0  0
  193.2690  173.7100  142.7230 C   0  0  2  0  0  0  0  0  0  0  0  0
  189.1870  173.7910  139.6810 C   0  0  0  0  0  3  0  0  0  0  0  0
  190.8810  174.5230  143.0010 C   0  0  1  0  0  3  0  0  0  0  0  0
  191.4800  173.0270  139.5300 C   0  0  0  0  0  3  0  0  0  0  0  0
  191.7120  173.4440  140.8440 C   0  0  0  0  0  0  0  0  0  0  0  0
  194.5160  174.5690  142.8920 C   0  0  2  0  0  3  0  0  0  0  0  0
  193.8610  173.9220  145.5310 C   0  0  1  0  0  3  0  0  0  0  0  0
  192.9750  173.2430  141.4110 O   0  0  0  0  0  0  0  0  0  0  0  0
  194.3600  172.8410  144.7520 O   0  0  0  0  0  0  0  0  0  0  0  0
  194.9540  174.9810  145.7620 C   0  0  0  0  0  2  0  0  0  0  0  0
  190.9990  176.0380  143.0490 C   0  0  0  0  0  2  0  0  0  0  0  0
  195.3110  174.6940  141.6040 C   0  0  0  0  0  1  0  0  0  0  0  0
  191.0180  176.5200  144.4970 C   0  0  1  0  0  3  0  0  0  0  0  0
  190.6680  174.0430  141.5870 C   0  0  0  0  0  0  0  0  0  0  0  0
  194.5120  173.0940  143.3440 C   0  0  1  0  0  3  0  0  0  0  0  0
  194.3980  176.2960  146.2720 C   0  0  0  0  0  2  0  0  0  0  0  0
  190.2210  173.2000  138.9490 C   0  0  0  0  0  3  0  0  0  0  0  0
  189.4110  174.2100  140.9950 C   0  0  0  0  0  3  0  0  0  0  0  0
  188.2430  176.2830  147.2630 C   0  0  2  0  0  3  0  0  0  0  0  0
  188.1910  174.9280  147.5920 O   0  0  0  0  0  1  0  0  0  0  0  0
  187.4270  177.7730  145.3510 C   0  0  0  0  0  2  0  0  0  0  0  0
  189.6370  176.4920  145.1660 C   0  0  2  0  0  3  0  0  0  0  0  0
  187.0840  176.6240  146.3040 C   0  0  2  0  0  3  0  0  0  0  0  0
  188.6450  177.4420  144.4790 C   0  0  0  0  0  2  0  0  0  0  0  0
  189.6290  176.6220  146.6990 C   0  0  1  0  0  3  0  0  0  0  0  0
  189.9810  177.9160  147.0910 O   0  0  0  0  0  1  0  0  0  0  0  0
  184.8160  177.7480  146.2640 C   0  0  0  0  0  1  0  0  0  0  0  0
  185.7880  176.8920  147.0640 C   0  0  0  0  0  2  0  0  0  0  0  0
  1  3  1  6  0  0  0
  2  4  1  0  0  0  0
  3 20  1  0  0  0  0
  4  1  1  0  0  0  0
  4 11  1  0  0  0  0
  5 10  1  0  0  0  0
  5 19  1  0  0  0  0
  5  2  1  0  0  0  0
  6 22  1  0  0  0  0
  7 15  1  0  0  0  0
  7  2  1  0  0  0  0
  8  9  2  0  0  0  0
  9 12  1  0  0  0  0
  9 18  1  0  0  0  0
 10 19  1  0  0  0  0
 11 14  1  0  0  0  0
 12  5  1  0  0  0  0
 13 11  1  0  0  0  0
 14 20  1  0  0  0  0
 15 17  1  0  0  0  0
 16 10  1  0  0  0  0
 17 26  1  0  0  0  0
 17  1  1  0  0  0  0
 18  7  1  0  0  0  0
 19 13  1  0  0  0  0
 21  8  1  0  0  0  0
 21  6  2  0  0  0  0
 22 18  2  0  0  0  0
 23 24  1  0  0  0  0
 25 27  1  0  0  0  0
 26 29  1  0  0  0  0
 27 32  1  0  0  0  0
 27 23  1  0  0  0  0
 28 26  1  0  0  0  0
 28 25  1  0  0  0  0
 29 30  1  0  0  0  0
 29 23  1  0  0  0  0
 31 32  1  0  0  0  0
M  END
>  <MODEL>
4

>  <REMARK>
 VINA RESULT:      -7.8      2.315      6.988
  Name = 
  2 active torsions:
  status: ('A' for Active; 'I' for Inactive)
    1  A    between atoms: C_16  and  C_27
    2  A    between atoms: C_19  and  C_26
                            x       y       z     vdW  Elec       q    Type
                         _______ _______ _______ _____ _____    ______ ____

>  <TORSDO>
F 2

$$$$
=
 OpenBabel11052419053D

 32 38  0  0  1  0  0  0  0  0999 V2000
  191.9410  173.7200  143.5270 C   0  0  2  0  0  3  0  0  0  0  0  0
  191.0180  176.0360  144.4020 C   0  0  2  0  0  3  0  0  0  0  0  0
  192.4750  172.7480  144.5660 C   0  0  0  0  0  2  0  0  0  0  0  0
  192.2050  175.2110  143.8770 C   0  0  1  0  0  3  0  0  0  0  0  0
  191.0370  176.2550  145.9110 C   0  0  2  0  0  0  0  0  0  0  0  0
  186.1920  177.0550  144.5680 C   0  0  0  0  0  3  0  0  0  0  0  0
  189.6380  175.6050  143.8960 C   0  0  1  0  0  3  0  0  0  0  0  0
  187.6220  177.6410  146.4320 C   0  0  0  0  0  3  0  0  0  0  0  0
  188.6930  176.9780  145.8270 C   0  0  0  0  0  0  0  0  0  0  0  0
  191.7640  175.2790  146.8280 C   0  0  2  0  0  3  0  0  0  0  0  0
  193.5160  175.4970  144.6620 C   0  0  1  0  0  3  0  0  0  0  0  0
  189.9390  176.9700  146.4650 O   0  0  0  0  0  0  0  0  0  0  0  0
  193.4300  176.6550  145.4840 O   0  0  0  0  0  0  0  0  0  0  0  0
  194.1580  174.3270  145.4280 C   0  0  0  0  0  2  0  0  0  0  0  0
  189.4570  174.1020  144.0270 C   0  0  0  0  0  2  0  0  0  0  0  0
  191.2360  175.3190  148.2510 C   0  0  0  0  0  1  0  0  0  0  0  0
  190.4890  173.3690  143.1750 C   0  0  1  0  0  3  0  0  0  0  0  0
  188.5130  176.3460  144.5760 C   0  0  0  0  0  0  0  0  0  0  0  0
  192.3910  176.6450  146.4800 C   0  0  1  0  0  3  0  0  0  0  0  0
  193.9600  172.9920  144.7370 C   0  0  0  0  0  2  0  0  0  0  0  0
  186.3740  177.6790  145.8060 C   0  0  0  0  0  3  0  0  0  0  0  0
  187.2580  176.3910  143.9560 C   0  0  0  0  0  3  0  0  0  0  0  0
  190.8100  172.7990  139.3050 C   0  0  2  0  0  3  0  0  0  0  0  0
  191.7680  173.7250  138.8920 O   0  0  0  0  0  1  0  0  0  0  0  0
  188.3390  172.8370  139.9670 C   0  0  0  0  0  2  0  0  0  0  0  0
  190.1660  173.3920  141.6750 C   0  0  2  0  0  3  0  0  0  0  0  0
  189.4010  173.3390  138.9830 C   0  0  2  0  0  3  0  0  0  0  0  0
  188.6600  173.2530  141.4090 C   0  0  0  0  0  2  0  0  0  0  0  0
  191.0200  172.4690  140.7880 C   0  0  1  0  0  3  0  0  0  0  0  0
  190.6980  171.1280  141.0100 O   0  0  0  0  0  1  0  0  0  0  0  0
  189.0700  174.2980  136.6640 C   0  0  0  0  0  1  0  0  0  0  0  0
  189.0060  173.0530  137.5380 C   0  0  0  0  0  2  0  0  0  0  0  0
  1  4  1  0  0  0  0
  1  3  1  1  0  0  0
  2  5  1  0  0  0  0
  3 20  1  0  0  0  0
  4  2  1  0  0  0  0
  4 11  1  0  0  0  0
  5 12  1  0  0  0  0
  5 19  1  0  0  0  0
  5 10  1  0  0  0  0
  6 21  1  0  0  0  0
  7 15  1  0  0  0  0
  7  2  1  0  0  0  0
  7 18  1  0  0  0  0
  9  8  1  0  0  0  0
  9 12  1  0  0  0  0
 10 16  1  0  0  0  0
 11 14  1  0  0  0  0
 11 13  1  0  0  0  0
 13 19  1  0  0  0  0
 17  1  1  0  0  0  0
 17 15  1  0  0  0  0
 18  9  2  0  0  0  0
 19 10  1  0  0  0  0
 20 14  1  0  0  0  0
 21  8  2  0  0  0  0
 22  6  2  0  0  0  0
 22 18  1  0  0  0  0
 23 29  1  0  0  0  0
 24 23  1  0  0  0  0
 25 28  1  0  0  0  0
 26 17  1  0  0  0  0
 27 23  1  0  0  0  0
 27 25  1  0  0  0  0
 28 26  1  0  0  0  0
 29 30  1  0  0  0  0
 29 26  1  0  0  0  0
 31 32  1  0  0  0  0
 32 27  1  0  0  0  0
M  END
>  <MODEL>
5

>  <REMARK>
 VINA RESULT:      -7.8      1.623      2.254
  Name = 
  2 active torsions:
  status: ('A' for Active; 'I' for Inactive)
    1  A    between atoms: C_16  and  C_27
    2  A    between atoms: C_19  and  C_26
                            x       y       z     vdW  Elec       q    Type
                         _______ _______ _______ _____ _____    ______ ____

>  <TORSDO>
F 2

$$$$
=
 OpenBabel11052419053D

 32 38  0  0  1  0  0  0  0  0999 V2000
  190.0430  174.9810  144.4650 C   0  0  2  0  0  3  0  0  0  0  0  0
  188.6790  177.1660  143.8750 C   0  0  2  0  0  3  0  0  0  0  0  0
  189.4990  174.1010  145.5770 C   0  0  0  0  0  2  0  0  0  0  0  0
  189.7960  176.4980  144.6950 C   0  0  1  0  0  3  0  0  0  0  0  0
  187.3940  177.4030  144.6610 C   0  0  2  0  0  0  0  0  0  0  0  0
  185.9480  177.5410  139.7820 C   0  0  0  0  0  3  0  0  0  0  0  0
  188.4110  176.5500  142.4980 C   0  0  1  0  0  3  0  0  0  0  0  0
  185.0790  178.3330  141.8980 C   0  0  0  0  0  3  0  0  0  0  0  0
  186.1940  177.8100  142.5590 C   0  0  0  0  0  0  0  0  0  0  0  0
  187.0540  176.5430  145.8720 C   0  0  2  0  0  3  0  0  0  0  0  0
  189.8000  176.9640  146.1780 C   0  0  1  0  0  3  0  0  0  0  0  0
  186.3060  177.9740  143.9440 O   0  0  0  0  0  0  0  0  0  0  0  0
  188.9870  178.1100  146.4020 O   0  0  0  0  0  0  0  0  0  0  0  0
  189.5540  175.8990  147.2610 C   0  0  0  0  0  2  0  0  0  0  0  0
  188.2940  175.0370  142.5940 C   0  0  0  0  0  2  0  0  0  0  0  0
  185.5650  176.5310  146.1730 C   0  0  0  0  0  1  0  0  0  0  0  0
  189.6020  174.4370  143.1000 C   0  0  1  0  0  3  0  0  0  0  0  0
  187.2010  177.1440  141.8220 C   0  0  0  0  0  0  0  0  0  0  0  0
  187.5970  177.9760  146.0540 C   0  0  1  0  0  3  0  0  0  0  0  0
  190.1170  174.5410  146.8880 C   0  0  0  0  0  2  0  0  0  0  0  0
  184.9550  178.1980  140.5130 C   0  0  0  0  0  3  0  0  0  0  0  0
  187.0660  177.0160  140.4340 C   0  0  0  0  0  3  0  0  0  0  0  0
  193.1610  174.2590  141.4530 C   0  0  2  0  0  3  0  0  0  0  0  0
  193.7090  175.5240  141.6650 O   0  0  0  0  0  1  0  0  0  0  0  0
  191.4340  173.2110  139.8850 C   0  0  0  0  0  2  0  0  0  0  0  0
  190.7060  174.3990  142.0340 C   0  0  2  0  0  3  0  0  0  0  0  0
  192.6250  174.1660  140.0100 C   0  0  2  0  0  3  0  0  0  0  0  0
  190.2600  173.6480  140.7710 C   0  0  0  0  0  2  0  0  0  0  0  0
  192.1010  173.9720  142.5240 C   0  0  1  0  0  3  0  0  0  0  0  0
  192.1240  172.6120  142.8410 O   0  0  0  0  0  1  0  0  0  0  0  0
  193.9770  174.9260  138.0100 C   0  0  0  0  0  1  0  0  0  0  0  0
  193.7330  173.8150  139.0210 C   0  0  0  0  0  2  0  0  0  0  0  0
  1  4  1  0  0  0  0
  1  3  1  1  0  0  0
  2  5  1  0  0  0  0
  2  4  1  0  0  0  0
  3 20  1  0  0  0  0
  4 11  1  0  0  0  0
  5 10  1  0  0  0  0
  5 19  1  0  0  0  0
  6 22  2  0  0  0  0
  6 21  1  0  0  0  0
  7 15  1  0  0  0  0
  7  2  1  0  0  0  0
  8  9  1  0  0  0  0
  9 12  1  0  0  0  0
 10 19  1  0  0  0  0
 10 16  1  0  0  0  0
 11 13  1  0  0  0  0
 11 14  1  0  0  0  0
 12  5  1  0  0  0  0
 15 17  1  0  0  0  0
 17  1  1  0  0  0  0
 18  7  1  0  0  0  0
 18  9  2  0  0  0  0
 19 13  1  0  0  0  0
 20 14  1  0  0  0  0
 21  8  2  0  0  0  0
 22 18  1  0  0  0  0
 23 24  1  0  0  0  0
 23 29  1  0  0  0  0
 25 27  1  0  0  0  0
 25 28  1  0  0  0  0
 26 29  1  0  0  0  0
 26 17  1  0  0  0  0
 27 23  1  0  0  0  0
 28 26  1  0  0  0  0
 29 30  1  0  0  0  0
 31 32  1  0  0  0  0
 32 27  1  0  0  0  0
M  END
>  <MODEL>
6

>  <REMARK>
 VINA RESULT:      -7.6      2.063      2.719
  Name = 
  2 active torsions:
  status: ('A' for Active; 'I' for Inactive)
    1  A    between atoms: C_16  and  C_27
    2  A    between atoms: C_19  and  C_26
                            x       y       z     vdW  Elec       q    Type
                         _______ _______ _______ _____ _____    ______ ____

>  <TORSDO>
F 2

$$$$
=
 OpenBabel11052419053D

 32 38  0  0  1  0  0  0  0  0999 V2000
  191.8080  175.0710  144.7590 C   0  0  2  0  0  3  0  0  0  0  0  0
  191.3820  172.8690  143.3610 C   0  0  2  0  0  3  0  0  0  0  0  0
  193.1320  175.7840  144.5460 C   0  0  0  0  0  2  0  0  0  0  0  0
  191.9100  173.5250  144.6490 C   0  0  1  0  0  3  0  0  0  0  0  0
  192.4780  172.4560  142.3850 C   0  0  2  0  0  0  0  0  0  0  0  0
  188.2710  172.7410  139.5320 C   0  0  0  0  0  3  0  0  0  0  0  0
  190.2350  173.6100  142.6650 C   0  0  1  0  0  3  0  0  0  0  0  0
  190.4340  171.6640  139.3760 C   0  0  0  0  0  3  0  0  0  0  0  0
  190.7940  172.1920  140.6190 C   0  0  0  0  0  0  0  0  0  0  0  0
  193.8330  173.1540  142.3970 C   0  0  2  0  0  3  0  0  0  0  0  0
  193.2550  172.9030  145.1200 C   0  0  1  0  0  3  0  0  0  0  0  0
  192.0520  171.8890  141.1520 O   0  0  0  0  0  0  0  0  0  0  0  0
  193.5650  171.6830  144.4550 O   0  0  0  0  0  0  0  0  0  0  0  0
  194.4860  173.8240  145.1760 C   0  0  0  0  0  2  0  0  0  0  0  0
  190.5490  175.0900  142.5270 C   0  0  0  0  0  2  0  0  0  0  0  0
  194.5620  173.0260  141.0700 C   0  0  0  0  0  1  0  0  0  0  0  0
  190.7140  175.7260  143.9050 C   0  0  1  0  0  3  0  0  0  0  0  0
  189.8810  173.0050  141.3290 C   0  0  0  0  0  0  0  0  0  0  0  0
  193.6660  171.7530  143.0220 C   0  0  1  0  0  3  0  0  0  0  0  0
  194.1350  175.2520  145.5480 C   0  0  0  0  0  2  0  0  0  0  0  0
  189.1770  171.9380  138.8330 C   0  0  0  0  0  3  0  0  0  0  0  0
  188.6230  173.2720  140.7760 C   0  0  0  0  0  3  0  0  0  0  0  0
  188.1310  176.4490  146.7710 C   0  0  2  0  0  3  0  0  0  0  0  0
  188.0710  175.2590  147.4970 O   0  0  0  0  0  1  0  0  0  0  0  0
  187.2200  177.3280  144.5490 C   0  0  0  0  0  2  0  0  0  0  0  0
  189.3820  175.9580  144.6310 C   0  0  2  0  0  3  0  0  0  0  0  0
  186.9170  176.5350  145.8240 C   0  0  2  0  0  3  0  0  0  0  0  0
  188.3670  176.7000  143.7480 C   0  0  0  0  0  2  0  0  0  0  0  0
  189.4830  176.5440  146.0510 C   0  0  1  0  0  3  0  0  0  0  0  0
  189.8900  177.8790  146.0110 O   0  0  0  0  0  1  0  0  0  0  0  0
  184.8290  177.9540  145.6390 C   0  0  0  0  0  1  0  0  0  0  0  0
  185.6830  177.0740  146.5410 C   0  0  0  0  0  2  0  0  0  0  0  0
  1  3  1  6  0  0  0
  2  4  1  0  0  0  0
  3 20  1  0  0  0  0
  4  1  1  0  0  0  0
  4 11  1  0  0  0  0
  5 10  1  0  0  0  0
  5 19  1  0  0  0  0
  5  2  1  0  0  0  0
  6 22  1  0  0  0  0
  7  2  1  0  0  0  0
  8  9  2  0  0  0  0
  9 12  1  0  0  0  0
  9 18  1  0  0  0  0
 10 19  1  0  0  0  0
 11 14  1  0  0  0  0
 12  5  1  0  0  0  0
 13 11  1  0  0  0  0
 14 20  1  0  0  0  0
 15  7  1  0  0  0  0
 15 17  1  0  0  0  0
 16 10  1  0  0  0  0
 17 26  1  0  0  0  0
 17  1  1  0  0  0  0
 18  7  1  0  0  0  0
 19 13  1  0  0  0  0
 21  8  1  0  0  0  0
 21  6  2  0  0  0  0
 22 18  2  0  0  0  0
 23 24  1  0  0  0  0
 25 27  1  0  0  0  0
 26 29  1  0  0  0  0
 27 32  1  0  0  0  0
 27 23  1  0  0  0  0
 28 25  1  0  0  0  0
 28 26  1  0  0  0  0
 29 23  1  0  0  0  0
 30 29  1  0  0  0  0
 31 32  1  0  0  0  0
M  END
>  <MODEL>
7

>  <REMARK>
 VINA RESULT:      -7.4      2.119      6.863
  Name = 
  2 active torsions:
  status: ('A' for Active; 'I' for Inactive)
    1  A    between atoms: C_16  and  C_27
    2  A    between atoms: C_19  and  C_26
                            x       y       z     vdW  Elec       q    Type
                         _______ _______ _______ _____ _____    ______ ____

>  <TORSDO>
F 2

$$$$
=
 OpenBabel11052419053D

 32 38  0  0  1  0  0  0  0  0999 V2000
  193.8190  175.3640  143.1110 C   0  0  2  0  0  3  0  0  0  0  0  0
  195.7710  174.2360  144.4890 C   0  0  2  0  0  3  0  0  0  0  0  0
  193.9690  175.4040  141.5990 C   0  0  0  0  0  2  0  0  0  0  0  0
  195.1650  175.5090  143.8730 C   0  0  1  0  0  3  0  0  0  0  0  0
  196.9270  173.6510  143.6860 C   0  0  2  0  0  0  0  0  0  0  0  0
  195.2960  169.7870  146.5710 C   0  0  0  0  0  3  0  0  0  0  0  0
  194.7630  173.1650  144.9190 C   0  0  1  0  0  3  0  0  0  0  0  0
  197.3240  170.3590  145.3780 C   0  0  0  0  0  3  0  0  0  0  0  0
  196.7480  171.5630  144.9640 C   0  0  0  0  0  0  0  0  0  0  0  0
  197.0460  173.9170  142.1900 C   0  0  2  0  0  3  0  0  0  0  0  0
  196.2370  176.3990  143.1840 C   0  0  1  0  0  3  0  0  0  0  0  0
  197.4990  172.4450  144.1780 O   0  0  0  0  0  0  0  0  0  0  0  0
  197.5680  176.0230  143.5170 O   0  0  0  0  0  0  0  0  0  0  0  0
  196.0980  176.6420  141.6710 C   0  0  0  0  0  2  0  0  0  0  0  0
  193.7490  172.9020  143.8180 C   0  0  0  0  0  2  0  0  0  0  0  0
  197.8730  172.8590  141.4790 C   0  0  0  0  0  1  0  0  0  0  0  0
  192.9500  174.1680  143.5220 C   0  0  1  0  0  3  0  0  0  0  0  0
  195.4280  171.8850  145.3580 C   0  0  0  0  0  0  0  0  0  0  0  0
  197.9410  174.6710  143.1940 C   0  0  1  0  0  3  0  0  0  0  0  0
  194.6530  176.6990  141.2160 C   0  0  0  0  0  2  0  0  0  0  0  0
  196.6000  169.4720  146.1790 C   0  0  0  0  0  3  0  0  0  0  0  0
  194.7130  170.9890  146.1620 C   0  0  0  0  0  3  0  0  0  0  0  0
  190.3380  176.1440  145.6860 C   0  0  2  0  0  3  0  0  0  0  0  0
  191.1130  176.9240  146.5440 O   0  0  0  0  0  1  0  0  0  0  0  0
  189.6350  173.6900  145.5170 C   0  0  0  0  0  2  0  0  0  0  0  0
  191.8870  174.4790  144.5840 C   0  0  2  0  0  3  0  0  0  0  0  0
  189.8340  174.8960  146.4400 C   0  0  2  0  0  3  0  0  0  0  0  0
  190.9390  173.2920  144.8150 C   0  0  0  0  0  2  0  0  0  0  0  0
  191.1430  175.8160  144.4220 C   0  0  1  0  0  3  0  0  0  0  0  0
  190.2800  175.7760  143.3240 O   0  0  0  0  0  1  0  0  0  0  0  0
  187.7820  176.3610  146.6680 C   0  0  0  0  0  1  0  0  0  0  0  0
  188.5750  175.1990  147.2470 C   0  0  0  0  0  2  0  0  0  0  0  0
  1  3  1  6  0  0  0
  1 17  1  0  0  0  0
  1  4  1  0  0  0  0
  2  7  1  0  0  0  0
  4  2  1  0  0  0  0
  5 12  1  0  0  0  0
  5  2  1  0  0  0  0
  7 18  1  0  0  0  0
  8 21  2  0  0  0  0
  9 18  2  0  0  0  0
  9  8  1  0  0  0  0
 10 19  1  0  0  0  0
 10  5  1  0  0  0  0
 11 13  1  0  0  0  0
 11  4  1  0  0  0  0
 12  9  1  0  0  0  0
 14 11  1  0  0  0  0
 15  7  1  0  0  0  0
 16 10  1  0  0  0  0
 17 15  1  0  0  0  0
 17 26  1  0  0  0  0
 18 22  1  0  0  0  0
 19 13  1  0  0  0  0
 19  5  1  0  0  0  0
 20  3  1  0  0  0  0
 20 14  1  0  0  0  0
 21  6  1  0  0  0  0
 22  6  2  0  0  0  0
 23 27  1  0  0  0  0
 23 24  1  0  0  0  0
 25 27  1  0  0  0  0
 26 28  1  0  0  0  0
 27 32  1  0  0  0  0
 28 25  1  0  0  0  0
 29 26  1  0  0  0  0
 29 23  1  0  0  0  0
 30 29  1  0  0  0  0
 31 32  1  0  0  0  0
M  END
>  <MODEL>
8

>  <REMARK>
 VINA RESULT:      -7.4      4.203      8.766
  Name = 
  2 active torsions:
  status: ('A' for Active; 'I' for Inactive)
    1  A    between atoms: C_16  and  C_27
    2  A    between atoms: C_19  and  C_26
                            x       y       z     vdW  Elec       q    Type
                         _______ _______ _______ _____ _____    ______ ____

>  <TORSDO>
F 2

$$$$
=
 OpenBabel11052419053D

 32 38  0  0  1  0  0  0  0  0999 V2000
  191.4450  173.0770  142.4820 C   0  0  2  0  0  3  0  0  0  0  0  0
  189.7600  174.2040  144.1780 C   0  0  2  0  0  3  0  0  0  0  0  0
  191.6590  173.7740  141.1500 C   0  0  0  0  0  2  0  0  0  0  0  0
  189.9960  173.2090  143.0280 C   0  0  1  0  0  3  0  0  0  0  0  0
  189.1230  175.5170  143.7390 C   0  0  2  0  0  0  0  0  0  0  0  0
  191.2900  176.5880  148.2190 C   0  0  0  0  0  3  0  0  0  0  0  0
  190.9510  174.4220  145.1170 C   0  0  1  0  0  3  0  0  0  0  0  0
  189.5440  177.5370  146.8370 C   0  0  0  0  0  3  0  0  0  0  0  0
  189.7290  176.5220  145.8940 C   0  0  0  0  0  0  0  0  0  0  0  0
  189.2800  176.0160  142.3080 C   0  0  2  0  0  3  0  0  0  0  0  0
  188.8750  173.2740  141.9530 C   0  0  1  0  0  3  0  0  0  0  0  0
  188.9240  176.4980  144.7500 O   0  0  0  0  0  0  0  0  0  0  0  0
  187.7310  174.0000  142.3870 O   0  0  0  0  0  0  0  0  0  0  0  0
  189.2770  173.6880  140.5260 C   0  0  0  0  0  2  0  0  0  0  0  0
  192.2250  174.6750  144.3280 C   0  0  0  0  0  2  0  0  0  0  0  0
  189.0860  177.5190  142.1950 C   0  0  0  0  0  1  0  0  0  0  0  0
  192.5600  173.4620  143.4630 C   0  0  1  0  0  3  0  0  0  0  0  0
  190.7070  175.5250  146.1160 C   0  0  0  0  0  0  0  0  0  0  0  0
  187.9600  175.3680  142.7720 C   0  0  1  0  0  3  0  0  0  0  0  0
  190.6690  173.2170  140.1490 C   0  0  0  0  0  2  0  0  0  0  0  0
  190.3230  177.5710  147.9960 C   0  0  0  0  0  3  0  0  0  0  0  0
  191.4810  175.5690  147.2820 C   0  0  0  0  0  3  0  0  0  0  0  0
  193.8900  169.8770  144.3490 C   0  0  2  0  0  3  0  0  0  0  0  0
  192.7400  169.0960  144.4680 O   0  0  0  0  0  1  0  0  0  0  0  0
  195.1160  171.6230  145.7610 C   0  0  0  0  0  2  0  0  0  0  0  0
  193.1500  172.2910  144.2610 C   0  0  2  0  0  3  0  0  0  0  0  0
  194.3890  170.2740  145.7540 C   0  0  2  0  0  3  0  0  0  0  0  0
  194.2090  172.7590  145.2710 C   0  0  0  0  0  2  0  0  0  0  0  0
  193.6050  171.0760  143.4350 C   0  0  1  0  0  3  0  0  0  0  0  0
  194.7540  171.3750  142.6980 O   0  0  0  0  0  1  0  0  0  0  0  0
  194.5690  168.5390  147.5870 C   0  0  0  0  0  1  0  0  0  0  0  0
  195.2410  169.1740  146.3790 C   0  0  0  0  0  2  0  0  0  0  0  0
  1  3  1  6  0  0  0
  1  4  1  0  0  0  0
  1 17  1  0  0  0  0
  2  7  1  0  0  0  0
  4  2  1  0  0  0  0
  5  2  1  0  0  0  0
  5 12  1  0  0  0  0
  7 18  1  0  0  0  0
  8 21  2  0  0  0  0
  9 18  2  0  0  0  0
  9  8  1  0  0  0  0
 10 19  1  0  0  0  0
 10  5  1  0  0  0  0
 11 13  1  0  0  0  0
 11  4  1  0  0  0  0
 12  9  1  0  0  0  0
 13 19  1  0  0  0  0
 14 11  1  0  0  0  0
 15  7  1  0  0  0  0
 16 10  1  0  0  0  0
 17 26  1  0  0  0  0
 17 15  1  0  0  0  0
 18 22  1  0  0  0  0
 19  5  1  0  0  0  0
 20 14  1  0  0  0  0
 20  3  1  0  0  0  0
 21  6  1  0  0  0  0
 22  6  2  0  0  0  0
 23 24  1  0  0  0  0
 23 27  1  0  0  0  0
 26 28  1  0  0  0  0
 27 25  1  0  0  0  0
 27 32  1  0  0  0  0
 28 25  1  0  0  0  0
 29 26  1  0  0  0  0
 29 23  1  0  0  0  0
 30 29  1  0  0  0  0
 32 31  1  0  0  0  0
M  END
>  <MODEL>
9

>  <REMARK>
 VINA RESULT:      -7.2      2.812      6.348
  Name = 
  2 active torsions:
  status: ('A' for Active; 'I' for Inactive)
    1  A    between atoms: C_16  and  C_27
    2  A    between atoms: C_19  and  C_26
                            x       y       z     vdW  Elec       q    Type
                         _______ _______ _______ _____ _____    ______ ____

>  <TORSDO>
F 2

$$$$
