=
 OpenBabel11052418343D

 27 31  0  0  1  0  0  0  0  0999 V2000
  190.9680  175.1950  143.0960 C   0  0  0  0  0  3  0  0  0  0  0  0
  190.1910  176.6620  144.9020 N   0  0  0  0  0  0  0  0  0  0  0  0
  188.7370  177.3630  143.0120 C   0  0  0  0  0  2  0  0  0  0  0  0
  190.1390  176.5050  146.2160 N   0  0  0  0  0  0  0  0  0  0  0  0
  188.2430  174.3170  140.8160 C   0  0  2  0  0  3  0  0  0  0  0  0
  191.3180  176.3170  144.0340 C   0  0  1  0  0  3  0  0  0  0  0  0
  188.1820  177.3230  145.5430 C   0  0  0  0  0  0  0  0  0  0  0  0
  189.8720  175.1390  142.3300 C   0  0  0  0  0  0  0  0  0  0  0  0
  189.0280  177.1580  144.4610 C   0  0  0  0  0  0  0  0  0  0  0  0
  187.8070  175.6910  141.3420 C   0  0  0  0  0  2  0  0  0  0  0  0
  188.9210  176.9020  146.6430 C   0  0  0  0  0  3  0  0  0  0  0  0
  189.6150  174.0060  141.4180 C   0  0  0  0  0  2  0  0  0  0  0  0
  188.8100  176.0910  142.3050 N   0  0  0  0  0  0  0  0  0  0  0  0
  185.8380  177.1760  146.3810 C   0  0  0  0  0  3  0  0  0  0  0  0
  184.1270  178.7110  145.6200 C   0  0  0  0  0  3  0  0  0  0  0  0
  185.0650  179.3470  144.8030 C   0  0  0  0  0  3  0  0  0  0  0  0
  186.3880  178.8990  144.7750 C   0  0  0  0  0  3  0  0  0  0  0  0
  186.7870  177.8080  145.5630 C   0  0  0  0  0  0  0  0  0  0  0  0
  184.5140  177.6250  146.4090 C   0  0  0  0  0  3  0  0  0  0  0  0
  194.9220  175.4310  146.2090 C   0  0  0  0  0  3  0  0  0  0  0  0
  192.5720  176.0270  144.8050 C   0  0  0  0  0  0  0  0  0  0  0  0
  192.9150  174.6960  145.0710 C   0  0  0  0  0  3  0  0  0  0  0  0
  194.0860  174.3980  145.7740 C   0  0  0  0  0  3  0  0  0  0  0  0
  194.5880  176.7610  145.9410 C   0  0  0  0  0  3  0  0  0  0  0  0
  193.4180  177.0600  145.2390 C   0  0  0  0  0  3  0  0  0  0  0  0
  188.2210  173.0420  138.7990 O   0  0  0  0  0  1  0  0  0  0  0  0
  188.3440  174.3380  139.3020 C   0  0  0  0  0  2  0  0  0  0  0  0
  1  6  1  0  0  0  0
  2  4  1  0  0  0  0
  3  9  1  0  0  0  0
  4 11  2  0  0  0  0
  5 27  1  6  0  0  0
  5 10  1  0  0  0  0
  5 12  1  0  0  0  0
  6 21  1  1  0  0  0
  6  2  1  0  0  0  0
  7 18  1  0  0  0  0
  7 11  1  0  0  0  0
  8  1  2  0  0  0  0
  9  2  1  0  0  0  0
  9  7  2  0  0  0  0
 10 13  1  0  0  0  0
 12  8  1  0  0  0  0
 13  8  1  0  0  0  0
 13  3  1  0  0  0  0
 14 19  1  0  0  0  0
 15 19  2  0  0  0  0
 16 15  1  0  0  0  0
 17 16  2  0  0  0  0
 17 18  1  0  0  0  0
 18 14  2  0  0  0  0
 21 22  2  0  0  0  0
 21 25  1  0  0  0  0
 22 23  1  0  0  0  0
 23 20  2  0  0  0  0
 24 20  1  0  0  0  0
 25 24  2  0  0  0  0
 26 27  1  0  0  0  0
M  END
>  <MODEL>
1

>  <REMARK>
 VINA RESULT:      -8.4      0.000      0.000
  Name = 
  3 active torsions:
  status: ('A' for Active; 'I' for Inactive)
    1  A    between atoms: C_9  and  C_15
    2  A    between atoms: C_13  and  C_22
    3  A    between atoms: C_14  and  C_17
                            x       y       z     vdW  Elec       q    Type
                         _______ _______ _______ _____ _____    ______ ____

>  <TORSDO>
F 3

$$$$
=
 OpenBabel11052418343D

 27 31  0  0  1  0  0  0  0  0999 V2000
  187.2230  175.8460  142.8590 C   0  0  0  0  0  3  0  0  0  0  0  0
  188.5920  176.6190  144.7430 N   0  0  0  0  0  0  0  0  0  0  0  0
  189.7500  174.5160  144.0970 C   0  0  0  0  0  2  0  0  0  0  0  0
  188.8700  177.8290  145.2010 N   0  0  0  0  0  0  0  0  0  0  0  0
  189.2430  174.0810  140.3690 C   0  0  2  0  0  3  0  0  0  0  0  0
  187.2730  176.1310  144.3340 C   0  0  1  0  0  3  0  0  0  0  0  0
  190.7730  176.6800  145.0900 C   0  0  0  0  0  0  0  0  0  0  0  0
  188.1190  175.1190  142.1790 C   0  0  0  0  0  0  0  0  0  0  0  0
  189.7160  175.8960  144.6650 C   0  0  0  0  0  0  0  0  0  0  0  0
  190.0160  173.8200  141.6690 C   0  0  0  0  0  2  0  0  0  0  0  0
  190.2000  177.9010  145.4270 C   0  0  0  0  0  3  0  0  0  0  0  0
  187.9820  174.8690  140.7300 C   0  0  0  0  0  2  0  0  0  0  0  0
  189.3100  174.5400  142.7080 N   0  0  0  0  0  0  0  0  0  0  0  0
  192.8140  176.0940  146.3990 C   0  0  0  0  0  3  0  0  0  0  0  0
  194.9400  175.6980  145.3120 C   0  0  0  0  0  3  0  0  0  0  0  0
  194.3480  175.9430  144.0700 C   0  0  0  0  0  3  0  0  0  0  0  0
  192.9900  176.2630  143.9930 C   0  0  0  0  0  3  0  0  0  0  0  0
  192.2100  176.3420  145.1570 C   0  0  0  0  0  0  0  0  0  0  0  0
  194.1720  175.7740  146.4770 C   0  0  0  0  0  3  0  0  0  0  0  0
  184.1120  178.7500  145.6210 C   0  0  0  0  0  3  0  0  0  0  0  0
  186.1630  177.0460  144.7610 C   0  0  0  0  0  0  0  0  0  0  0  0
  185.6170  176.9010  146.0420 C   0  0  0  0  0  3  0  0  0  0  0  0
  184.5930  177.7490  146.4710 C   0  0  0  0  0  3  0  0  0  0  0  0
  184.6560  178.9040  144.3430 C   0  0  0  0  0  3  0  0  0  0  0  0
  185.6800  178.0560  143.9130 C   0  0  0  0  0  3  0  0  0  0  0  0
  188.1360  173.0160  138.5420 O   0  0  0  0  0  1  0  0  0  0  0  0
  188.8530  172.7690  139.7140 C   0  0  0  0  0  2  0  0  0  0  0  0
  1  6  1  0  0  0  0
  2  4  1  0  0  0  0
  3  9  1  0  0  0  0
  4 11  2  0  0  0  0
  5 27  1  1  0  0  0
  5 12  1  0  0  0  0
  5 10  1  0  0  0  0
  6  2  1  0  0  0  0
  6 21  1  6  0  0  0
  7 18  1  0  0  0  0
  7 11  1  0  0  0  0
  8 13  1  0  0  0  0
  8  1  2  0  0  0  0
  9  2  1  0  0  0  0
  9  7  2  0  0  0  0
 10 13  1  0  0  0  0
 12  8  1  0  0  0  0
 13  3  1  0  0  0  0
 14 19  1  0  0  0  0
 15 19  2  0  0  0  0
 16 15  1  0  0  0  0
 17 16  2  0  0  0  0
 17 18  1  0  0  0  0
 18 14  2  0  0  0  0
 20 23  1  0  0  0  0
 21 22  1  0  0  0  0
 22 23  2  0  0  0  0
 24 20  2  0  0  0  0
 25 24  1  0  0  0  0
 25 21  2  0  0  0  0
 26 27  1  0  0  0  0
M  END
>  <MODEL>
2

>  <REMARK>
 VINA RESULT:      -8.0      1.352      6.200
  Name = 
  3 active torsions:
  status: ('A' for Active; 'I' for Inactive)
    1  A    between atoms: C_9  and  C_15
    2  A    between atoms: C_13  and  C_22
    3  A    between atoms: C_14  and  C_17
                            x       y       z     vdW  Elec       q    Type
                         _______ _______ _______ _____ _____    ______ ____

>  <TORSDO>
F 3

$$$$
=
 OpenBabel11052418343D

 27 31  0  0  1  0  0  0  0  0999 V2000
  187.4950  175.6970  142.5300 C   0  0  0  0  0  3  0  0  0  0  0  0
  188.7760  176.5950  144.4210 N   0  0  0  0  0  0  0  0  0  0  0  0
  189.9610  174.4570  143.9680 C   0  0  0  0  0  2  0  0  0  0  0  0
  189.0340  177.8330  144.8120 N   0  0  0  0  0  0  0  0  0  0  0  0
  189.6280  173.7780  140.2580 C   0  0  2  0  0  3  0  0  0  0  0  0
  187.4770  176.0790  143.9840 C   0  0  1  0  0  3  0  0  0  0  0  0
  190.9380  176.6840  144.8640 C   0  0  0  0  0  0  0  0  0  0  0  0
  188.4210  174.9300  141.9420 C   0  0  0  0  0  0  0  0  0  0  0  0
  189.9020  175.8710  144.4430 C   0  0  0  0  0  0  0  0  0  0  0  0
  190.3380  173.6040  141.6060 C   0  0  0  0  0  2  0  0  0  0  0  0
  190.3510  177.9220  145.0940 C   0  0  0  0  0  3  0  0  0  0  0  0
  188.3510  174.5850  140.5080 C   0  0  0  0  0  2  0  0  0  0  0  0
  189.5860  174.3890  142.5620 N   0  0  0  0  0  0  0  0  0  0  0  0
  193.2010  176.2890  143.8910 C   0  0  0  0  0  3  0  0  0  0  0  0
  195.0960  175.7300  145.2900 C   0  0  0  0  0  3  0  0  0  0  0  0
  194.2780  175.7930  146.4200 C   0  0  0  0  0  3  0  0  0  0  0  0
  192.9220  176.1040  146.2860 C   0  0  0  0  0  3  0  0  0  0  0  0
  192.3700  176.3540  145.0200 C   0  0  0  0  0  0  0  0  0  0  0  0
  194.5580  175.9780  144.0250 C   0  0  0  0  0  3  0  0  0  0  0  0
  184.2210  178.7620  144.8260 C   0  0  0  0  0  3  0  0  0  0  0  0
  186.3490  177.0170  144.2990 C   0  0  0  0  0  0  0  0  0  0  0  0
  185.8820  177.8790  143.3010 C   0  0  0  0  0  3  0  0  0  0  0  0
  184.8220  178.7520  143.5630 C   0  0  0  0  0  3  0  0  0  0  0  0
  184.6780  177.8990  145.8250 C   0  0  0  0  0  3  0  0  0  0  0  0
  185.7380  177.0260  145.5640 C   0  0  0  0  0  3  0  0  0  0  0  0
  187.9750  172.4620  139.1460 O   0  0  0  0  0  1  0  0  0  0  0  0
  189.2670  172.4250  139.6720 C   0  0  0  0  0  2  0  0  0  0  0  0
  1  6  1  0  0  0  0
  2  9  1  0  0  0  0
  2  4  1  0  0  0  0
  3  9  1  0  0  0  0
  4 11  2  0  0  0  0
  5 27  1  1  0  0  0
  5 12  1  0  0  0  0
  5 10  1  0  0  0  0
  6 21  1  6  0  0  0
  6  2  1  0  0  0  0
  7 18  1  0  0  0  0
  7 11  1  0  0  0  0
  8  1  2  0  0  0  0
  8 13  1  0  0  0  0
  9  7  2  0  0  0  0
 10 13  1  0  0  0  0
 12  8  1  0  0  0  0
 13  3  1  0  0  0  0
 14 19  2  0  0  0  0
 14 18  1  0  0  0  0
 15 16  2  0  0  0  0
 17 16  1  0  0  0  0
 18 17  2  0  0  0  0
 19 15  1  0  0  0  0
 20 24  1  0  0  0  0
 21 25  1  0  0  0  0
 22 23  1  0  0  0  0
 22 21  2  0  0  0  0
 23 20  2  0  0  0  0
 25 24  2  0  0  0  0
 26 27  1  0  0  0  0
M  END
>  <MODEL>
3

>  <REMARK>
 VINA RESULT:      -7.9      1.418      6.306
  Name = 
  3 active torsions:
  status: ('A' for Active; 'I' for Inactive)
    1  A    between atoms: C_9  and  C_15
    2  A    between atoms: C_13  and  C_22
    3  A    between atoms: C_14  and  C_17
                            x       y       z     vdW  Elec       q    Type
                         _______ _______ _______ _____ _____    ______ ____

>  <TORSDO>
F 3

$$$$
=
 OpenBabel11052418343D

 27 31  0  0  1  0  0  0  0  0999 V2000
  188.9090  177.1590  145.5720 C   0  0  0  0  0  3  0  0  0  0  0  0
  187.9300  176.4830  143.4260 N   0  0  0  0  0  0  0  0  0  0  0  0
  190.3470  176.6340  142.8620 C   0  0  0  0  0  2  0  0  0  0  0  0
  186.8630  175.7610  143.1250 N   0  0  0  0  0  0  0  0  0  0  0  0
  192.2670  175.7720  146.0100 C   0  0  2  0  0  3  0  0  0  0  0  0
  188.0010  177.5410  144.4360 C   0  0  1  0  0  3  0  0  0  0  0  0
  188.5580  175.0380  141.8770 C   0  0  0  0  0  0  0  0  0  0  0  0
  190.1520  176.6790  145.4430 C   0  0  0  0  0  0  0  0  0  0  0  0
  188.9730  176.0770  142.6900 C   0  0  0  0  0  0  0  0  0  0  0  0
  192.1540  175.8910  144.4840 C   0  0  0  0  0  2  0  0  0  0  0  0
  187.2110  174.8650  142.1750 C   0  0  0  0  0  3  0  0  0  0  0  0
  190.9860  176.3480  146.6160 C   0  0  0  0  0  2  0  0  0  0  0  0
  190.8180  176.3820  144.2180 N   0  0  0  0  0  0  0  0  0  0  0  0
  188.9410  174.1650  139.5720 C   0  0  0  0  0  3  0  0  0  0  0  0
  190.8300  172.7390  139.0610 C   0  0  0  0  0  3  0  0  0  0  0  0
  191.2430  172.8120  140.3930 C   0  0  0  0  0  3  0  0  0  0  0  0
  190.5060  173.5610  141.3150 C   0  0  0  0  0  3  0  0  0  0  0  0
  189.3470  174.2440  140.9130 C   0  0  0  0  0  0  0  0  0  0  0  0
  189.6790  173.4160  138.6500 C   0  0  0  0  0  3  0  0  0  0  0  0
  184.1360  178.7390  145.8970 C   0  0  0  0  0  3  0  0  0  0  0  0
  186.6470  177.9630  144.9240 C   0  0  0  0  0  0  0  0  0  0  0  0
  186.0890  177.3130  146.0310 C   0  0  0  0  0  3  0  0  0  0  0  0
  184.8360  177.6980  146.5150 C   0  0  0  0  0  3  0  0  0  0  0  0
  184.6910  179.3960  144.7950 C   0  0  0  0  0  3  0  0  0  0  0  0
  185.9430  179.0120  144.3100 C   0  0  0  0  0  3  0  0  0  0  0  0
  194.1190  177.1660  145.4410 O   0  0  0  0  0  1  0  0  0  0  0  0
  193.4660  176.5550  146.5130 C   0  0  0  0  0  2  0  0  0  0  0  0
  2  6  1  0  0  0  0
  3 13  1  0  0  0  0
  4  2  1  0  0  0  0
  5 27  1  1  0  0  0
  5 12  1  0  0  0  0
  6 21  1  1  0  0  0
  6  1  1  0  0  0  0
  7 11  1  0  0  0  0
  7  9  2  0  0  0  0
  8  1  2  0  0  0  0
  8 12  1  0  0  0  0
  9  3  1  0  0  0  0
  9  2  1  0  0  0  0
 10  5  1  0  0  0  0
 11  4  2  0  0  0  0
 13 10  1  0  0  0  0
 13  8  1  0  0  0  0
 14 18  1  0  0  0  0
 15 16  2  0  0  0  0
 16 17  1  0  0  0  0
 18 17  2  0  0  0  0
 18  7  1  0  0  0  0
 19 15  1  0  0  0  0
 19 14  2  0  0  0  0
 20 23  1  0  0  0  0
 21 22  1  0  0  0  0
 22 23  2  0  0  0  0
 24 20  2  0  0  0  0
 25 24  1  0  0  0  0
 25 21  2  0  0  0  0
 26 27  1  0  0  0  0
M  END
>  <MODEL>
4

>  <REMARK>
 VINA RESULT:      -7.9      2.304      7.180
  Name = 
  3 active torsions:
  status: ('A' for Active; 'I' for Inactive)
    1  A    between atoms: C_9  and  C_15
    2  A    between atoms: C_13  and  C_22
    3  A    between atoms: C_14  and  C_17
                            x       y       z     vdW  Elec       q    Type
                         _______ _______ _______ _____ _____    ______ ____

>  <TORSDO>
F 3

$$$$
=
 OpenBabel11052418343D

 27 31  0  0  1  0  0  0  0  0999 V2000
  188.9530  177.0790  145.6060 C   0  0  0  0  0  3  0  0  0  0  0  0
  187.9550  176.4540  143.4530 N   0  0  0  0  0  0  0  0  0  0  0  0
  190.3700  176.5870  142.8790 C   0  0  0  0  0  2  0  0  0  0  0  0
  186.8780  175.7500  143.1440 N   0  0  0  0  0  0  0  0  0  0  0  0
  192.2970  175.6450  146.0000 C   0  0  2  0  0  3  0  0  0  0  0  0
  188.0440  177.4920  144.4820 C   0  0  1  0  0  3  0  0  0  0  0  0
  188.5580  175.0310  141.8750 C   0  0  0  0  0  0  0  0  0  0  0  0
  190.1890  176.5870  145.4620 C   0  0  0  0  0  0  0  0  0  0  0  0
  188.9890  176.0500  142.7040 C   0  0  0  0  0  0  0  0  0  0  0  0
  192.1760  175.7930  144.4780 C   0  0  0  0  0  2  0  0  0  0  0  0
  187.2110  174.8680  142.1770 C   0  0  0  0  0  3  0  0  0  0  0  0
  191.0250  176.2250  146.6240 C   0  0  0  0  0  2  0  0  0  0  0  0
  190.8460  176.3050  144.2280 N   0  0  0  0  0  0  0  0  0  0  0  0
  190.4900  173.5630  141.2980 C   0  0  0  0  0  3  0  0  0  0  0  0
  190.8230  172.7430  139.0440 C   0  0  0  0  0  3  0  0  0  0  0  0
  189.6720  173.4170  138.6310 C   0  0  0  0  0  3  0  0  0  0  0  0
  188.9300  174.1640  139.5500 C   0  0  0  0  0  3  0  0  0  0  0  0
  189.3330  174.2440  140.8920 C   0  0  0  0  0  0  0  0  0  0  0  0
  191.2330  172.8160  140.3780 C   0  0  0  0  0  3  0  0  0  0  0  0
  184.1640  178.7370  145.8640 C   0  0  0  0  0  3  0  0  0  0  0  0
  186.6970  177.9210  144.9850 C   0  0  0  0  0  0  0  0  0  0  0  0
  186.0280  178.9630  144.3340 C   0  0  0  0  0  3  0  0  0  0  0  0
  184.7650  179.3720  144.7720 C   0  0  0  0  0  3  0  0  0  0  0  0
  184.8250  177.6920  146.5150 C   0  0  0  0  0  3  0  0  0  0  0  0
  186.0870  177.2820  146.0770 C   0  0  0  0  0  3  0  0  0  0  0  0
  194.0400  177.1940  145.4910 O   0  0  0  0  0  1  0  0  0  0  0  0
  193.5070  176.4050  146.5110 C   0  0  0  0  0  2  0  0  0  0  0  0
  2  6  1  0  0  0  0
  3 13  1  0  0  0  0
  4  2  1  0  0  0  0
  5 27  1  1  0  0  0
  5 12  1  0  0  0  0
  6 21  1  1  0  0  0
  6  1  1  0  0  0  0
  7 11  1  0  0  0  0
  7  9  2  0  0  0  0
  8  1  2  0  0  0  0
  8 12  1  0  0  0  0
  9  3  1  0  0  0  0
  9  2  1  0  0  0  0
 10  5  1  0  0  0  0
 11  4  2  0  0  0  0
 13 10  1  0  0  0  0
 13  8  1  0  0  0  0
 15 19  1  0  0  0  0
 16 15  2  0  0  0  0
 16 17  1  0  0  0  0
 17 18  2  0  0  0  0
 18 14  1  0  0  0  0
 18  7  1  0  0  0  0
 19 14  2  0  0  0  0
 20 24  1  0  0  0  0
 21 25  1  0  0  0  0
 22 23  1  0  0  0  0
 22 21  2  0  0  0  0
 23 20  2  0  0  0  0
 25 24  2  0  0  0  0
 26 27  1  0  0  0  0
M  END
>  <MODEL>
5

>  <REMARK>
 VINA RESULT:      -7.9      2.305      7.174
  Name = 
  3 active torsions:
  status: ('A' for Active; 'I' for Inactive)
    1  A    between atoms: C_9  and  C_15
    2  A    between atoms: C_13  and  C_22
    3  A    between atoms: C_14  and  C_17
                            x       y       z     vdW  Elec       q    Type
                         _______ _______ _______ _____ _____    ______ ____

>  <TORSDO>
F 3

$$$$
=
 OpenBabel11052418343D

 27 31  0  0  1  0  0  0  0  0999 V2000
  190.9280  174.8740  142.4890 C   0  0  0  0  0  3  0  0  0  0  0  0
  188.4970  175.1900  142.5840 N   0  0  0  0  0  0  0  0  0  0  0  0
  189.1230  175.3120  144.9870 C   0  0  0  0  0  2  0  0  0  0  0  0
  187.6370  175.7260  141.7330 N   0  0  0  0  0  0  0  0  0  0  0  0
  192.6270  176.7420  145.1390 C   0  0  2  0  0  3  0  0  0  0  0  0
  189.5770  174.2590  142.2510 C   0  0  1  0  0  3  0  0  0  0  0  0
  187.2020  176.5420  143.7570 C   0  0  0  0  0  0  0  0  0  0  0  0
  191.3070  175.5030  143.6090 C   0  0  0  0  0  0  0  0  0  0  0  0
  188.2630  175.6570  143.8170 C   0  0  0  0  0  0  0  0  0  0  0  0
  191.2550  176.4550  145.7620 C   0  0  0  0  0  2  0  0  0  0  0  0
  186.8250  176.5590  142.4190 C   0  0  0  0  0  3  0  0  0  0  0  0
  192.6650  176.0610  143.7690 C   0  0  0  0  0  2  0  0  0  0  0  0
  190.4890  175.7620  144.7480 N   0  0  0  0  0  0  0  0  0  0  0  0
  186.1800  178.6540  144.6040 C   0  0  0  0  0  3  0  0  0  0  0  0
  185.4340  178.8630  146.8980 C   0  0  0  0  0  3  0  0  0  0  0  0
  185.8410  177.5510  147.1480 C   0  0  0  0  0  3  0  0  0  0  0  0
  186.4180  176.7900  146.1270 C   0  0  0  0  0  3  0  0  0  0  0  0
  186.5930  177.3350  144.8450 C   0  0  0  0  0  0  0  0  0  0  0  0
  185.6030  179.4150  145.6250 C   0  0  0  0  0  3  0  0  0  0  0  0
  189.2880  172.6620  138.2670 C   0  0  0  0  0  3  0  0  0  0  0  0
  189.4540  173.7080  140.8600 C   0  0  0  0  0  0  0  0  0  0  0  0
  190.5520  173.7920  139.9960 C   0  0  0  0  0  3  0  0  0  0  0  0
  190.4690  173.2730  138.7010 C   0  0  0  0  0  3  0  0  0  0  0  0
  188.1910  172.5700  139.1270 C   0  0  0  0  0  3  0  0  0  0  0  0
  188.2730  173.0890  140.4220 C   0  0  0  0  0  3  0  0  0  0  0  0
  194.1930  177.1720  146.8880 O   0  0  0  0  0  1  0  0  0  0  0  0
  193.7330  176.1840  146.0160 C   0  0  0  0  0  2  0  0  0  0  0  0
  1  8  2  0  0  0  0
  2  9  1  0  0  0  0
  4 11  2  0  0  0  0
  4  2  1  0  0  0  0
  5 10  1  0  0  0  0
  5 27  1  1  0  0  0
  6 21  1  6  0  0  0
  6  1  1  0  0  0  0
  6  2  1  0  0  0  0
  7  9  2  0  0  0  0
  7 18  1  0  0  0  0
  8 12  1  0  0  0  0
  8 13  1  0  0  0  0
  9  3  1  0  0  0  0
 11  7  1  0  0  0  0
 12  5  1  0  0  0  0
 13  3  1  0  0  0  0
 13 10  1  0  0  0  0
 14 18  2  0  0  0  0
 14 19  1  0  0  0  0
 15 16  1  0  0  0  0
 17 16  2  0  0  0  0
 18 17  1  0  0  0  0
 19 15  2  0  0  0  0
 20 23  2  0  0  0  0
 20 24  1  0  0  0  0
 22 21  2  0  0  0  0
 23 22  1  0  0  0  0
 24 25  2  0  0  0  0
 25 21  1  0  0  0  0
 27 26  1  0  0  0  0
M  END
>  <MODEL>
6

>  <REMARK>
 VINA RESULT:      -7.3      2.490      5.512
  Name = 
  3 active torsions:
  status: ('A' for Active; 'I' for Inactive)
    1  A    between atoms: C_9  and  C_15
    2  A    between atoms: C_13  and  C_22
    3  A    between atoms: C_14  and  C_17
                            x       y       z     vdW  Elec       q    Type
                         _______ _______ _______ _____ _____    ______ ____

>  <TORSDO>
F 3

$$$$
=
 OpenBabel11052418343D

 27 31  0  0  1  0  0  0  0  0999 V2000
  188.1310  175.7170  142.6510 C   0  0  0  0  0  3  0  0  0  0  0  0
  189.7820  176.4120  144.3290 N   0  0  0  0  0  0  0  0  0  0  0  0
  190.6430  174.1790  143.6570 C   0  0  0  0  0  2  0  0  0  0  0  0
  190.2300  177.6020  144.6950 N   0  0  0  0  0  0  0  0  0  0  0  0
  189.6610  173.6650  140.0360 C   0  0  2  0  0  3  0  0  0  0  0  0
  188.3830  176.0490  144.0960 C   0  0  1  0  0  3  0  0  0  0  0  0
  191.9840  176.2600  144.4240 C   0  0  0  0  0  0  0  0  0  0  0  0
  188.8660  174.8780  141.9100 C   0  0  0  0  0  0  0  0  0  0  0  0
  190.8130  175.5740  144.1590 C   0  0  0  0  0  0  0  0  0  0  0  0
  190.5520  173.3720  141.2510 C   0  0  0  0  0  2  0  0  0  0  0  0
  191.5780  177.5450  144.7650 C   0  0  0  0  0  3  0  0  0  0  0  0
  188.5350  174.5920  140.5000 C   0  0  0  0  0  2  0  0  0  0  0  0
  190.0470  174.1980  142.3270 N   0  0  0  0  0  0  0  0  0  0  0  0
  193.9280  175.0450  145.4070 C   0  0  0  0  0  3  0  0  0  0  0  0
  196.0270  174.8510  144.2160 C   0  0  0  0  0  3  0  0  0  0  0  0
  195.4890  175.5780  143.1530 C   0  0  0  0  0  3  0  0  0  0  0  0
  194.1720  176.0390  143.2160 C   0  0  0  0  0  3  0  0  0  0  0  0
  193.3790  175.7780  144.3440 C   0  0  0  0  0  0  0  0  0  0  0  0
  195.2470  174.5840  145.3440 C   0  0  0  0  0  3  0  0  0  0  0  0
  185.6050  179.0230  145.4940 C   0  0  0  0  0  3  0  0  0  0  0  0
  187.4260  177.0880  144.6030 C   0  0  0  0  0  0  0  0  0  0  0  0
  186.8270  177.9640  143.6900 C   0  0  0  0  0  3  0  0  0  0  0  0
  185.9210  178.9310  144.1340 C   0  0  0  0  0  3  0  0  0  0  0  0
  186.1950  178.1470  146.4090 C   0  0  0  0  0  3  0  0  0  0  0  0
  187.1020  177.1800  145.9660 C   0  0  0  0  0  3  0  0  0  0  0  0
  188.4380  172.6210  138.2720 O   0  0  0  0  0  1  0  0  0  0  0  0
  189.0700  172.3770  139.4920 C   0  0  0  0  0  2  0  0  0  0  0  0
  1  6  1  0  0  0  0
  2  4  1  0  0  0  0
  3  9  1  0  0  0  0
  4 11  2  0  0  0  0
  5 27  1  1  0  0  0
  5 12  1  0  0  0  0
  5 10  1  0  0  0  0
  6  2  1  0  0  0  0
  6 21  1  6  0  0  0
  7 11  1  0  0  0  0
  8 13  1  0  0  0  0
  8  1  2  0  0  0  0
  9  2  1  0  0  0  0
  9  7  2  0  0  0  0
 10 13  1  0  0  0  0
 12  8  1  0  0  0  0
 13  3  1  0  0  0  0
 15 19  2  0  0  0  0
 16 17  2  0  0  0  0
 16 15  1  0  0  0  0
 17 18  1  0  0  0  0
 18  7  1  0  0  0  0
 18 14  2  0  0  0  0
 19 14  1  0  0  0  0
 20 24  1  0  0  0  0
 21 25  1  0  0  0  0
 22 23  1  0  0  0  0
 22 21  2  0  0  0  0
 23 20  2  0  0  0  0
 25 24  2  0  0  0  0
 26 27  1  0  0  0  0
M  END
>  <MODEL>
7

>  <REMARK>
 VINA RESULT:      -7.2      1.430      6.325
  Name = 
  3 active torsions:
  status: ('A' for Active; 'I' for Inactive)
    1  A    between atoms: C_9  and  C_15
    2  A    between atoms: C_13  and  C_22
    3  A    between atoms: C_14  and  C_17
                            x       y       z     vdW  Elec       q    Type
                         _______ _______ _______ _____ _____    ______ ____

>  <TORSDO>
F 3

$$$$
=
 OpenBabel11052418343D

 27 31  0  0  1  0  0  0  0  0999 V2000
  189.6050  176.9950  145.0230 C   0  0  0  0  0  3  0  0  0  0  0  0
  188.4850  176.0680  143.0460 N   0  0  0  0  0  0  0  0  0  0  0  0
  190.8840  175.7790  142.4590 C   0  0  0  0  0  2  0  0  0  0  0  0
  187.3230  175.4550  142.8890 N   0  0  0  0  0  0  0  0  0  0  0  0
  192.7580  175.2700  145.7100 C   0  0  2  0  0  3  0  0  0  0  0  0
  188.7250  177.2770  143.8370 C   0  0  1  0  0  3  0  0  0  0  0  0
  188.8710  174.2860  141.7980 C   0  0  0  0  0  0  0  0  0  0  0  0
  190.7690  176.3340  144.9850 C   0  0  0  0  0  0  0  0  0  0  0  0
  189.4430  175.3930  142.3980 C   0  0  0  0  0  0  0  0  0  0  0  0
  192.6190  175.1150  144.1900 C   0  0  0  0  0  2  0  0  0  0  0  0
  187.5230  174.3580  142.1260 C   0  0  0  0  0  3  0  0  0  0  0  0
  191.5830  176.1200  146.1980 C   0  0  0  0  0  2  0  0  0  0  0  0
  191.3550  175.7250  143.8370 N   0  0  0  0  0  0  0  0  0  0  0  0
  189.3110  173.1620  139.6150 C   0  0  0  0  0  3  0  0  0  0  0  0
  190.7430  171.2160  139.4650 C   0  0  0  0  0  3  0  0  0  0  0  0
  190.9580  171.2690  140.8430 C   0  0  0  0  0  3  0  0  0  0  0  0
  190.3500  172.2690  141.6080 C   0  0  0  0  0  3  0  0  0  0  0  0
  189.5200  173.2240  141.0010 C   0  0  0  0  0  0  0  0  0  0  0  0
  189.9190  172.1620  138.8500 C   0  0  0  0  0  3  0  0  0  0  0  0
  185.0530  179.2340  144.9300 C   0  0  0  0  0  3  0  0  0  0  0  0
  187.4530  177.9650  144.2380 C   0  0  0  0  0  0  0  0  0  0  0  0
  186.7090  178.6400  143.2650 C   0  0  0  0  0  3  0  0  0  0  0  0
  185.5120  179.2760  143.6090 C   0  0  0  0  0  3  0  0  0  0  0  0
  185.7900  178.5570  145.9050 C   0  0  0  0  0  3  0  0  0  0  0  0
  186.9860  177.9210  145.5620 C   0  0  0  0  0  3  0  0  0  0  0  0
  193.8680  176.8520  147.1110 O   0  0  0  0  0  1  0  0  0  0  0  0
  194.0640  175.9630  146.0530 C   0  0  0  0  0  2  0  0  0  0  0  0
  2  6  1  0  0  0  0
  3 13  1  0  0  0  0
  4  2  1  0  0  0  0
  5 27  1  6  0  0  0
  5 12  1  0  0  0  0
  6 21  1  1  0  0  0
  6  1  1  0  0  0  0
  7 11  1  0  0  0  0
  7  9  2  0  0  0  0
  8  1  2  0  0  0  0
  8 12  1  0  0  0  0
  9  3  1  0  0  0  0
  9  2  1  0  0  0  0
 10  5  1  0  0  0  0
 11  4  2  0  0  0  0
 13 10  1  0  0  0  0
 13  8  1  0  0  0  0
 14 18  1  0  0  0  0
 15 16  2  0  0  0  0
 16 17  1  0  0  0  0
 18 17  2  0  0  0  0
 18  7  1  0  0  0  0
 19 15  1  0  0  0  0
 19 14  2  0  0  0  0
 20 24  1  0  0  0  0
 21 25  1  0  0  0  0
 22 23  1  0  0  0  0
 22 21  2  0  0  0  0
 23 20  2  0  0  0  0
 25 24  2  0  0  0  0
 27 26  1  0  0  0  0
M  END
>  <MODEL>
8

>  <REMARK>
 VINA RESULT:      -7.2      2.577      7.257
  Name = 
  3 active torsions:
  status: ('A' for Active; 'I' for Inactive)
    1  A    between atoms: C_9  and  C_15
    2  A    between atoms: C_13  and  C_22
    3  A    between atoms: C_14  and  C_17
                            x       y       z     vdW  Elec       q    Type
                         _______ _______ _______ _____ _____    ______ ____

>  <TORSDO>
F 3

$$$$
=
 OpenBabel11052418343D

 27 31  0  0  1  0  0  0  0  0999 V2000
  188.2030  175.0230  141.4690 C   0  0  0  0  0  3  0  0  0  0  0  0
  189.0760  176.3220  143.3590 N   0  0  0  0  0  0  0  0  0  0  0  0
  190.3480  174.1970  143.5680 C   0  0  0  0  0  2  0  0  0  0  0  0
  189.2390  177.6230  143.5440 N   0  0  0  0  0  0  0  0  0  0  0  0
  190.7620  172.8140  140.0670 C   0  0  2  0  0  3  0  0  0  0  0  0
  187.8940  175.6710  142.7900 C   0  0  1  0  0  3  0  0  0  0  0  0
  191.1070  176.5970  144.1840 C   0  0  0  0  0  0  0  0  0  0  0  0
  189.2350  174.2040  141.2300 C   0  0  0  0  0  0  0  0  0  0  0  0
  190.1820  175.6700  143.7380 C   0  0  0  0  0  0  0  0  0  0  0  0
  191.1940  172.9330  141.5340 C   0  0  0  0  0  2  0  0  0  0  0  0
  190.4740  177.8270  144.0510 C   0  0  0  0  0  3  0  0  0  0  0  0
  189.4540  173.5920  139.9040 C   0  0  0  0  0  2  0  0  0  0  0  0
  190.2590  173.8470  142.1560 N   0  0  0  0  0  0  0  0  0  0  0  0
  192.7510  176.4110  146.0500 C   0  0  0  0  0  3  0  0  0  0  0  0
  195.0900  175.9470  145.6290 C   0  0  0  0  0  3  0  0  0  0  0  0
  194.8330  175.9050  144.2570 C   0  0  0  0  0  3  0  0  0  0  0  0
  193.5360  176.1160  143.7820 C   0  0  0  0  0  3  0  0  0  0  0  0
  192.4830  176.3720  144.6740 C   0  0  0  0  0  0  0  0  0  0  0  0
  194.0490  176.2000  146.5260 C   0  0  0  0  0  3  0  0  0  0  0  0
  184.5060  178.3020  142.4530 C   0  0  0  0  0  3  0  0  0  0  0  0
  186.7160  176.5970  142.6930 C   0  0  0  0  0  0  0  0  0  0  0  0
  186.3940  177.1600  141.4540 C   0  0  0  0  0  3  0  0  0  0  0  0
  185.2930  178.0130  141.3330 C   0  0  0  0  0  3  0  0  0  0  0  0
  184.8200  177.7380  143.6930 C   0  0  0  0  0  3  0  0  0  0  0  0
  185.9210  176.8860  143.8140 C   0  0  0  0  0  3  0  0  0  0  0  0
  191.1200  171.0880  138.4580 O   0  0  0  0  0  1  0  0  0  0  0  0
  190.5380  171.3590  139.6970 C   0  0  0  0  0  2  0  0  0  0  0  0
  1  6  1  0  0  0  0
  2  4  1  0  0  0  0
  2  9  1  0  0  0  0
  3  9  1  0  0  0  0
  4 11  2  0  0  0  0
  5 27  1  1  0  0  0
  5 10  1  0  0  0  0
  6 21  1  6  0  0  0
  6  2  1  0  0  0  0
  7 18  1  0  0  0  0
  8  1  2  0  0  0  0
  8 13  1  0  0  0  0
  9  7  2  0  0  0  0
 10 13  1  0  0  0  0
 11  7  1  0  0  0  0
 12  5  1  0  0  0  0
 12  8  1  0  0  0  0
 13  3  1  0  0  0  0
 14 19  1  0  0  0  0
 15 19  2  0  0  0  0
 16 15  1  0  0  0  0
 17 16  2  0  0  0  0
 17 18  1  0  0  0  0
 18 14  2  0  0  0  0
 20 24  1  0  0  0  0
 21 25  1  0  0  0  0
 22 21  2  0  0  0  0
 23 22  1  0  0  0  0
 23 20  2  0  0  0  0
 24 25  2  0  0  0  0
 26 27  1  0  0  0  0
M  END
>  <MODEL>
9

>  <REMARK>
 VINA RESULT:      -7.1      1.932      6.426
  Name = 
  3 active torsions:
  status: ('A' for Active; 'I' for Inactive)
    1  A    between atoms: C_9  and  C_15
    2  A    between atoms: C_13  and  C_22
    3  A    between atoms: C_14  and  C_17
                            x       y       z     vdW  Elec       q    Type
                         _______ _______ _______ _____ _____    ______ ____

>  <TORSDO>
F 3

$$$$
