=
 OpenBabel11052417563D

 31 34  0  0  1  0  0  0  0  0999 V2000
  185.2230  177.9800  141.3960 C   0  0  0  0  0  0  0  0  0  0  0  0
  187.6260  177.7700  144.2670 C   0  0  0  0  0  0  0  0  0  0  0  0
  186.6810  177.8930  145.4700 C   0  0  1  0  0  3  0  0  0  0  0  0
  184.9760  176.8720  146.8420 C   0  0  0  0  0  2  0  0  0  0  0  0
  187.1020  177.8140  142.9440 C   0  0  0  0  0  0  0  0  0  0  0  0
  186.0930  177.8820  140.3100 C   0  0  0  0  0  3  0  0  0  0  0  0
  185.5020  176.9350  145.4220 C   0  0  0  0  0  2  0  0  0  0  0  0
  189.8850  177.6990  143.3000 C   0  0  0  0  0  0  0  0  0  0  0  0
  183.7610  178.1130  141.1660 C   0  0  0  0  0  1  0  0  0  0  0  0
  189.4190  176.9710  146.7680 C   0  0  0  0  0  2  0  0  0  0  0  0
  186.1020  177.3460  147.7470 C   0  0  2  0  0  3  0  0  0  0  0  0
  189.3470  177.6730  142.0180 C   0  0  0  0  0  3  0  0  0  0  0  0
  189.0460  177.7590  144.4270 C   0  0  0  0  0  0  0  0  0  0  0  0
  185.7240  177.9490  142.6990 C   0  0  0  0  0  3  0  0  0  0  0  0
  185.7080  178.5140  148.3990 O   0  0  0  0  0  1  0  0  0  0  0  0
  187.9740  177.7410  141.8310 C   0  0  0  0  0  0  0  0  0  0  0  0
  187.4670  177.7660  140.5270 C   0  0  0  0  0  3  0  0  0  0  0  0
  189.6540  177.8710  145.6840 O   0  0  0  0  0  0  0  0  0  0  0  0
  188.1000  176.5070  146.7900 O   0  0  0  0  0  0  0  0  0  0  0  0
  187.2860  177.6450  146.8450 C   0  0  1  0  0  3  0  0  0  0  0  0
  191.3720  177.6370  143.4460 C   0  0  0  0  0  2  0  0  0  0  0  0
  192.6710  176.2190  145.6820 C   0  0  0  0  0  1  0  0  0  0  0  0
  191.9230  175.6950  142.1890 O   0  0  0  0  0  0  0  0  0  0  0  0
  191.8530  176.2250  143.3320 C   0  0  0  0  0  0  0  0  0  0  0  0
  192.2270  175.4780  144.5060 N   0  0  0  0  0  0  0  0  0  0  0  0
  193.2760  173.3130  144.3110 C   0  0  0  0  0  2  0  0  0  0  0  0
  192.1810  174.0310  144.5420 C   0  0  0  0  0  0  0  0  0  0  0  0
  190.8560  172.0530  143.7950 C   0  0  0  0  0  1  0  0  0  0  0  0
  190.8890  173.2740  144.6970 C   0  0  2  0  0  3  0  0  0  0  0  0
  189.6890  174.1360  144.4570 C   0  0  0  0  0  3  0  0  0  0  0  0
  189.0110  174.0590  143.3140 C   0  0  0  0  0  2  0  0  0  0  0  0
  1 14  1  0  0  0  0
  2 13  2  0  0  0  0
  2  3  1  0  0  0  0
  3  7  1  6  0  0  0
  3 20  1  0  0  0  0
  4 11  1  0  0  0  0
  5  2  1  0  0  0  0
  6 17  1  0  0  0  0
  6  1  2  0  0  0  0
  7  4  1  0  0  0  0
  8 21  1  0  0  0  0
  8 13  1  0  0  0  0
  9  1  1  0  0  0  0
 10 19  1  0  0  0  0
 11 15  1  6  0  0  0
 12  8  2  0  0  0  0
 13 18  1  0  0  0  0
 14  5  2  0  0  0  0
 16 12  1  0  0  0  0
 16  5  1  0  0  0  0
 17 16  2  0  0  0  0
 18 10  1  0  0  0  0
 20 19  1  6  0  0  0
 20 11  1  0  0  0  0
 23 24  2  0  0  0  0
 24 21  1  0  0  0  0
 24 25  1  0  0  0  0
 25 27  1  0  0  0  0
 25 22  1  0  0  0  0
 26 27  2  0  0  0  0
 27 29  1  0  0  0  0
 29 28  1  6  0  0  0
 30 29  1  0  0  0  0
 31 30  2  0  0  0  0
M  END
>  <MODEL>
1

>  <REMARK>
 VINA RESULT:      -7.8      0.000      0.000
  Name = 
  5 active torsions:
  status: ('A' for Active; 'I' for Inactive)
    1  A    between atoms: C_1  and  C_24
    2  A    between atoms: C_9  and  C_23
    3  A    between atoms: C_15  and  C_23
    4  A    between atoms: C_19  and  N_22
    5  A    between atoms: C_19  and  C_24
                            x       y       z     vdW  Elec       q    Type
                         _______ _______ _______ _____ _____    ______ ____

>  <TORSDO>
F 5

$$$$
=
 OpenBabel11052417563D

 31 34  0  0  1  0  0  0  0  0999 V2000
  185.8260  177.7670  141.0100 C   0  0  0  0  0  0  0  0  0  0  0  0
  187.4930  177.0440  144.2910 C   0  0  0  0  0  0  0  0  0  0  0  0
  186.6580  177.8990  145.2550 C   0  0  1  0  0  3  0  0  0  0  0  0
  184.5620  178.2210  146.4080 C   0  0  0  0  0  2  0  0  0  0  0  0
  187.1880  177.0400  142.9000 C   0  0  0  0  0  0  0  0  0  0  0  0
  186.5990  176.9970  140.1410 C   0  0  0  0  0  3  0  0  0  0  0  0
  185.1600  177.6820  145.1240 C   0  0  0  0  0  2  0  0  0  0  0  0
  189.4410  175.6270  143.8010 C   0  0  0  0  0  0  0  0  0  0  0  0
  184.6840  178.5590  140.4830 C   0  0  0  0  0  1  0  0  0  0  0  0
  188.3640  176.0530  147.1830 C   0  0  0  0  0  2  0  0  0  0  0  0
  185.6850  178.2580  147.4320 C   0  0  2  0  0  3  0  0  0  0  0  0
  189.0840  175.5810  142.4590 C   0  0  0  0  0  3  0  0  0  0  0  0
  188.6690  176.3580  144.7220 C   0  0  0  0  0  0  0  0  0  0  0  0
  186.1190  177.7890  142.3750 C   0  0  0  0  0  3  0  0  0  0  0  0
  185.9190  179.5790  147.8120 O   0  0  0  0  0  1  0  0  0  0  0  0
  187.9790  176.2840  142.0010 C   0  0  0  0  0  0  0  0  0  0  0  0
  187.6770  176.2600  140.6350 C   0  0  0  0  0  3  0  0  0  0  0  0
  189.1330  176.4350  146.0410 O   0  0  0  0  0  0  0  0  0  0  0  0
  187.0030  176.3350  147.0190 O   0  0  0  0  0  0  0  0  0  0  0  0
  186.9180  177.7040  146.7420 C   0  0  1  0  0  3  0  0  0  0  0  0
  190.6480  174.8620  144.2410 C   0  0  0  0  0  2  0  0  0  0  0  0
  192.1590  175.0880  146.7630 C   0  0  0  0  0  1  0  0  0  0  0  0
  192.0360  176.6490  143.5110 O   0  0  0  0  0  0  0  0  0  0  0  0
  191.8220  175.7770  144.3970 C   0  0  0  0  0  0  0  0  0  0  0  0
  192.6970  175.6630  145.5360 N   0  0  0  0  0  0  0  0  0  0  0  0
  194.4330  177.2550  146.0650 C   0  0  0  0  0  2  0  0  0  0  0  0
  194.0740  176.1100  145.4930 C   0  0  0  0  0  0  0  0  0  0  0  0
  196.0020  174.5290  145.5820 C   0  0  0  0  0  1  0  0  0  0  0  0
  195.1250  175.3900  144.6910 C   0  0  2  0  0  3  0  0  0  0  0  0
  195.9620  176.3240  143.8740 C   0  0  0  0  0  3  0  0  0  0  0  0
  195.8890  176.3220  142.5450 C   0  0  0  0  0  2  0  0  0  0  0  0
  1 14  1  0  0  0  0
  2 13  2  0  0  0  0
  2  3  1  0  0  0  0
  3  7  1  1  0  0  0
  3 20  1  0  0  0  0
  4 11  1  0  0  0  0
  5  2  1  0  0  0  0
  6 17  1  0  0  0  0
  6  1  2  0  0  0  0
  7  4  1  0  0  0  0
  8 21  1  0  0  0  0
  8 13  1  0  0  0  0
  9  1  1  0  0  0  0
 11 15  1  6  0  0  0
 12  8  2  0  0  0  0
 13 18  1  0  0  0  0
 14  5  2  0  0  0  0
 16 12  1  0  0  0  0
 16  5  1  0  0  0  0
 17 16  2  0  0  0  0
 18 10  1  0  0  0  0
 19 10  1  0  0  0  0
 20 19  1  6  0  0  0
 20 11  1  0  0  0  0
 21 24  1  0  0  0  0
 23 24  2  0  0  0  0
 24 25  1  0  0  0  0
 25 22  1  0  0  0  0
 27 25  1  0  0  0  0
 27 26  2  0  0  0  0
 29 27  1  0  0  0  0
 29 28  1  1  0  0  0
 30 29  1  0  0  0  0
 31 30  2  0  0  0  0
M  END
>  <MODEL>
2

>  <REMARK>
 VINA RESULT:      -7.6      1.731      2.745
  Name = 
  5 active torsions:
  status: ('A' for Active; 'I' for Inactive)
    1  A    between atoms: C_1  and  C_24
    2  A    between atoms: C_9  and  C_23
    3  A    between atoms: C_15  and  C_23
    4  A    between atoms: C_19  and  N_22
    5  A    between atoms: C_19  and  C_24
                            x       y       z     vdW  Elec       q    Type
                         _______ _______ _______ _____ _____    ______ ____

>  <TORSDO>
F 5

$$$$
=
 OpenBabel11052417563D

 31 34  0  0  1  0  0  0  0  0999 V2000
  184.9010  178.0340  141.3200 C   0  0  0  0  0  0  0  0  0  0  0  0
  187.3600  177.8150  144.1430 C   0  0  0  0  0  0  0  0  0  0  0  0
  186.4620  178.0960  145.3550 C   0  0  1  0  0  3  0  0  0  0  0  0
  184.7200  177.3140  146.8330 C   0  0  0  0  0  2  0  0  0  0  0  0
  186.8040  177.8150  142.8320 C   0  0  0  0  0  0  0  0  0  0  0  0
  185.7290  177.7920  140.2230 C   0  0  0  0  0  3  0  0  0  0  0  0
  185.2090  177.2390  145.4000 C   0  0  0  0  0  2  0  0  0  0  0  0
  189.5770  177.4910  143.1310 C   0  0  0  0  0  0  0  0  0  0  0  0
  183.4490  178.2730  141.1140 C   0  0  0  0  0  1  0  0  0  0  0  0
  189.1520  177.0360  146.6510 C   0  0  0  0  0  2  0  0  0  0  0  0
  185.9060  177.7520  147.6770 C   0  0  2  0  0  3  0  0  0  0  0  0
  189.0030  177.4260  141.8660 C   0  0  0  0  0  3  0  0  0  0  0  0
  188.7780  177.6950  144.2700 C   0  0  0  0  0  0  0  0  0  0  0  0
  185.4350  178.0480  142.6100 C   0  0  0  0  0  3  0  0  0  0  0  0
  185.6280  178.9890  148.2560 O   0  0  0  0  0  1  0  0  0  0  0  0
  187.6350  177.5950  141.7060 C   0  0  0  0  0  0  0  0  0  0  0  0
  187.0950  177.5760  140.4160 C   0  0  0  0  0  3  0  0  0  0  0  0
  189.4290  177.8390  145.5020 O   0  0  0  0  0  0  0  0  0  0  0  0
  187.8000  176.6870  146.7350 O   0  0  0  0  0  0  0  0  0  0  0  0
  187.0850  177.8890  146.7300 C   0  0  1  0  0  3  0  0  0  0  0  0
  191.0580  177.3150  143.2470 C   0  0  0  0  0  2  0  0  0  0  0  0
  193.7160  176.1480  142.7300 C   0  0  0  0  0  1  0  0  0  0  0  0
  190.4580  175.1030  143.8790 O   0  0  0  0  0  0  0  0  0  0  0  0
  191.3930  175.8960  143.5840 C   0  0  0  0  0  0  0  0  0  0  0  0
  192.7600  175.4410  143.5750 N   0  0  0  0  0  0  0  0  0  0  0  0
  193.0830  173.0710  143.9000 C   0  0  0  0  0  2  0  0  0  0  0  0
  193.1980  174.3100  144.3680 C   0  0  0  0  0  0  0  0  0  0  0  0
  192.7110  175.3360  146.5890 C   0  0  0  0  0  1  0  0  0  0  0  0
  193.6620  174.4610  145.7910 C   0  0  2  0  0  3  0  0  0  0  0  0
  195.0610  174.9850  145.8850 C   0  0  0  0  0  3  0  0  0  0  0  0
  196.1020  174.1550  145.8840 C   0  0  0  0  0  2  0  0  0  0  0  0
  1 14  1  0  0  0  0
  2 13  2  0  0  0  0
  2  3  1  0  0  0  0
  3  7  1  6  0  0  0
  3 20  1  0  0  0  0
  4 11  1  0  0  0  0
  5  2  1  0  0  0  0
  6 17  1  0  0  0  0
  6  1  2  0  0  0  0
  7  4  1  0  0  0  0
  8 21  1  0  0  0  0
  8 13  1  0  0  0  0
  9  1  1  0  0  0  0
 10 19  1  0  0  0  0
 11 15  1  6  0  0  0
 12  8  2  0  0  0  0
 13 18  1  0  0  0  0
 14  5  2  0  0  0  0
 16 12  1  0  0  0  0
 16  5  1  0  0  0  0
 17 16  2  0  0  0  0
 18 10  1  0  0  0  0
 20 19  1  6  0  0  0
 20 11  1  0  0  0  0
 21 24  1  0  0  0  0
 22 25  1  0  0  0  0
 24 23  2  0  0  0  0
 25 24  1  0  0  0  0
 25 27  1  0  0  0  0
 26 27  2  0  0  0  0
 27 29  1  0  0  0  0
 29 30  1  0  0  0  0
 29 28  1  1  0  0  0
 31 30  2  0  0  0  0
M  END
>  <MODEL>
3

>  <REMARK>
 VINA RESULT:      -7.4      1.142      2.141
  Name = 
  5 active torsions:
  status: ('A' for Active; 'I' for Inactive)
    1  A    between atoms: C_1  and  C_24
    2  A    between atoms: C_9  and  C_23
    3  A    between atoms: C_15  and  C_23
    4  A    between atoms: C_19  and  N_22
    5  A    between atoms: C_19  and  C_24
                            x       y       z     vdW  Elec       q    Type
                         _______ _______ _______ _____ _____    ______ ____

>  <TORSDO>
F 5

$$$$
=
 OpenBabel11052417563D

 31 34  0  0  1  0  0  0  0  0999 V2000
  184.5740  178.2860  145.8860 C   0  0  0  0  0  0  0  0  0  0  0  0
  187.4240  176.3970  144.3460 C   0  0  0  0  0  0  0  0  0  0  0  0
  187.0990  176.5150  142.8500 C   0  0  1  0  0  3  0  0  0  0  0  0
  186.9860  177.9160  140.8870 C   0  0  0  0  0  2  0  0  0  0  0  0
  186.5590  176.9880  145.3100 C   0  0  0  0  0  0  0  0  0  0  0  0
  184.8720  178.1610  147.2430 C   0  0  0  0  0  3  0  0  0  0  0  0
  186.8230  177.9380  142.3940 C   0  0  0  0  0  2  0  0  0  0  0  0
  188.7370  175.4550  146.1990 C   0  0  0  0  0  0  0  0  0  0  0  0
  183.3700  179.0450  145.4580 C   0  0  0  0  0  1  0  0  0  0  0  0
  190.0670  175.4080  142.8810 C   0  0  0  0  0  2  0  0  0  0  0  0
  187.8190  176.6890  140.5550 C   0  0  2  0  0  3  0  0  0  0  0  0
  187.9180  176.0990  147.1200 C   0  0  0  0  0  3  0  0  0  0  0  0
  188.4990  175.5840  144.8180 C   0  0  0  0  0  0  0  0  0  0  0  0
  185.4080  177.7030  144.9310 C   0  0  0  0  0  3  0  0  0  0  0  0
  187.0590  175.8120  139.7830 O   0  0  0  0  0  1  0  0  0  0  0  0
  186.8330  176.8490  146.6920 C   0  0  0  0  0  0  0  0  0  0  0  0
  185.9980  177.4410  147.6460 C   0  0  0  0  0  3  0  0  0  0  0  0
  189.3070  174.8400  143.9490 O   0  0  0  0  0  0  0  0  0  0  0  0
  189.4160  176.4980  142.2940 O   0  0  0  0  0  0  0  0  0  0  0  0
  188.1650  176.0290  141.8780 C   0  0  1  0  0  3  0  0  0  0  0  0
  189.8860  174.6480  146.7130 C   0  0  0  0  0  2  0  0  0  0  0  0
  192.3170  173.7100  145.3340 C   0  0  0  0  0  1  0  0  0  0  0  0
  191.2640  176.4420  147.4450 O   0  0  0  0  0  0  0  0  0  0  0  0
  191.1500  175.4490  146.6750 C   0  0  0  0  0  0  0  0  0  0  0  0
  192.2170  175.0960  145.7740 N   0  0  0  0  0  0  0  0  0  0  0  0
  192.9510  176.7850  144.2130 C   0  0  0  0  0  2  0  0  0  0  0  0
  193.1830  176.0720  145.3100 C   0  0  0  0  0  0  0  0  0  0  0  0
  194.9410  177.6860  146.0360 C   0  0  0  0  0  1  0  0  0  0  0  0
  194.5360  176.2250  145.9500 C   0  0  2  0  0  3  0  0  0  0  0  0
  195.5930  175.4270  145.2520 C   0  0  0  0  0  3  0  0  0  0  0  0
  196.0300  174.2780  145.7640 C   0  0  0  0  0  2  0  0  0  0  0  0
  1  6  1  0  0  0  0
  2 13  2  0  0  0  0
  2  5  1  0  0  0  0
  3  7  1  6  0  0  0
  3  2  1  0  0  0  0
  4  7  1  0  0  0  0
  5 16  2  0  0  0  0
  6 17  2  0  0  0  0
  8 21  1  0  0  0  0
  8 12  2  0  0  0  0
  9  1  1  0  0  0  0
 10 18  1  0  0  0  0
 11 15  1  6  0  0  0
 11  4  1  0  0  0  0
 11 20  1  0  0  0  0
 13  8  1  0  0  0  0
 14  5  1  0  0  0  0
 14  1  2  0  0  0  0
 16 12  1  0  0  0  0
 16 17  1  0  0  0  0
 18 13  1  0  0  0  0
 19 10  1  0  0  0  0
 20 19  1  1  0  0  0
 20  3  1  0  0  0  0
 22 25  1  0  0  0  0
 24 21  1  0  0  0  0
 24 23  2  0  0  0  0
 25 24  1  0  0  0  0
 26 27  2  0  0  0  0
 27 25  1  0  0  0  0
 27 29  1  0  0  0  0
 29 28  1  6  0  0  0
 30 31  2  0  0  0  0
 30 29  1  0  0  0  0
M  END
>  <MODEL>
4

>  <REMARK>
 VINA RESULT:      -7.3      2.110      4.988
  Name = 
  5 active torsions:
  status: ('A' for Active; 'I' for Inactive)
    1  A    between atoms: C_1  and  C_24
    2  A    between atoms: C_9  and  C_23
    3  A    between atoms: C_15  and  C_23
    4  A    between atoms: C_19  and  N_22
    5  A    between atoms: C_19  and  C_24
                            x       y       z     vdW  Elec       q    Type
                         _______ _______ _______ _____ _____    ______ ____

>  <TORSDO>
F 5

$$$$
=
 OpenBabel11052417563D

 31 34  0  0  1  0  0  0  0  0999 V2000
  185.0440  178.2470  144.4120 C   0  0  0  0  0  0  0  0  0  0  0  0
  187.8650  175.7910  144.1370 C   0  0  0  0  0  0  0  0  0  0  0  0
  187.6730  175.2610  142.7090 C   0  0  1  0  0  3  0  0  0  0  0  0
  187.8250  175.6790  140.3360 C   0  0  0  0  0  2  0  0  0  0  0  0
  186.9690  176.7670  144.6580 C   0  0  0  0  0  0  0  0  0  0  0  0
  185.2190  178.7120  145.7150 C   0  0  0  0  0  3  0  0  0  0  0  0
  187.5420  176.3550  141.6620 C   0  0  0  0  0  2  0  0  0  0  0  0
  188.9480  175.7020  146.3420 C   0  0  0  0  0  0  0  0  0  0  0  0
  183.9390  178.7830  143.5750 C   0  0  0  0  0  1  0  0  0  0  0  0
  190.5390  174.1850  143.5240 C   0  0  0  0  0  2  0  0  0  0  0  0
  188.5910  174.4030  140.6500 C   0  0  2  0  0  3  0  0  0  0  0  0
  188.1060  176.7060  146.8080 C   0  0  0  0  0  3  0  0  0  0  0  0
  188.8350  175.2290  145.0220 C   0  0  0  0  0  0  0  0  0  0  0  0
  185.9090  177.2830  143.8910 C   0  0  0  0  0  3  0  0  0  0  0  0
  187.8340  173.3030  140.2500 O   0  0  0  0  0  1  0  0  0  0  0  0
  187.1170  177.2310  145.9880 C   0  0  0  0  0  0  0  0  0  0  0  0
  186.2530  178.2020  146.5040 C   0  0  0  0  0  3  0  0  0  0  0  0
  189.6540  174.1580  144.6440 O   0  0  0  0  0  0  0  0  0  0  0  0
  190.0200  174.9340  142.4620 O   0  0  0  0  0  0  0  0  0  0  0  0
  188.7770  174.3700  142.1560 C   0  0  1  0  0  3  0  0  0  0  0  0
  189.9880  175.1610  147.2700 C   0  0  0  0  0  2  0  0  0  0  0  0
  192.6120  174.1840  146.3460 C   0  0  0  0  0  1  0  0  0  0  0  0
  191.1830  177.1300  147.8640 O   0  0  0  0  0  0  0  0  0  0  0  0
  191.2090  176.0270  147.2530 C   0  0  0  0  0  0  0  0  0  0  0  0
  192.3950  175.6120  146.5480 N   0  0  0  0  0  0  0  0  0  0  0  0
  194.2430  177.1300  146.8740 C   0  0  0  0  0  2  0  0  0  0  0  0
  193.3650  176.5660  146.0500 C   0  0  0  0  0  0  0  0  0  0  0  0
  191.9320  177.4490  144.2090 C   0  0  0  0  0  1  0  0  0  0  0  0
  193.3400  177.0680  144.6320 C   0  0  2  0  0  3  0  0  0  0  0  0
  193.9310  176.0880  143.6670 C   0  0  0  0  0  3  0  0  0  0  0  0
  195.2430  176.0590  143.4420 C   0  0  0  0  0  2  0  0  0  0  0  0
  1  6  1  0  0  0  0
  2  5  2  0  0  0  0
  2 13  1  0  0  0  0
  3  7  1  6  0  0  0
  3  2  1  0  0  0  0
  4 11  1  0  0  0  0
  4  7  1  0  0  0  0
  5 16  1  0  0  0  0
  6 17  2  0  0  0  0
  8 12  1  0  0  0  0
  8 21  1  0  0  0  0
  9  1  1  0  0  0  0
 10 18  1  0  0  0  0
 11 15  1  1  0  0  0
 11 20  1  0  0  0  0
 13  8  2  0  0  0  0
 14  1  2  0  0  0  0
 14  5  1  0  0  0  0
 16 17  1  0  0  0  0
 16 12  2  0  0  0  0
 18 13  1  0  0  0  0
 19 10  1  0  0  0  0
 20 19  1  6  0  0  0
 20  3  1  0  0  0  0
 22 25  1  0  0  0  0
 24 21  1  0  0  0  0
 24 23  2  0  0  0  0
 25 24  1  0  0  0  0
 27 25  1  0  0  0  0
 27 26  2  0  0  0  0
 29 28  1  6  0  0  0
 29 27  1  0  0  0  0
 30 29  1  0  0  0  0
 31 30  2  0  0  0  0
M  END
>  <MODEL>
5

>  <REMARK>
 VINA RESULT:      -7.3      2.132      4.860
  Name = 
  5 active torsions:
  status: ('A' for Active; 'I' for Inactive)
    1  A    between atoms: C_1  and  C_24
    2  A    between atoms: C_9  and  C_23
    3  A    between atoms: C_15  and  C_23
    4  A    between atoms: C_19  and  N_22
    5  A    between atoms: C_19  and  C_24
                            x       y       z     vdW  Elec       q    Type
                         _______ _______ _______ _____ _____    ______ ____

>  <TORSDO>
F 5

$$$$
=
 OpenBabel11052417563D

 31 34  0  0  1  0  0  0  0  0999 V2000
  191.2530  171.3430  143.1250 C   0  0  0  0  0  0  0  0  0  0  0  0
  192.5520  174.1420  145.2560 C   0  0  0  0  0  0  0  0  0  0  0  0
  194.0390  173.7770  145.3700 C   0  0  1  0  0  3  0  0  0  0  0  0
  196.1930  173.6190  144.2910 C   0  0  0  0  0  2  0  0  0  0  0  0
  191.6700  173.3050  144.5140 C   0  0  0  0  0  0  0  0  0  0  0  0
  189.9010  171.6760  143.0390 C   0  0  0  0  0  3  0  0  0  0  0  0
  194.7050  173.4970  144.0340 C   0  0  0  0  0  2  0  0  0  0  0  0
  190.6090  175.4990  145.9100 C   0  0  0  0  0  0  0  0  0  0  0  0
  191.7640  170.1320  142.4310 C   0  0  0  0  0  1  0  0  0  0  0  0
  193.9120  176.7390  146.4860 C   0  0  0  0  0  2  0  0  0  0  0  0
  196.3510  174.4370  145.5630 C   0  0  2  0  0  3  0  0  0  0  0  0
  189.7790  174.7090  145.1230 C   0  0  0  0  0  3  0  0  0  0  0  0
  191.9860  175.2250  145.9960 C   0  0  0  0  0  0  0  0  0  0  0  0
  192.1270  172.1490  143.8570 C   0  0  0  0  0  3  0  0  0  0  0  0
  196.9570  173.6520  146.5430 O   0  0  0  0  0  1  0  0  0  0  0  0
  190.2910  173.6150  144.4390 C   0  0  0  0  0  0  0  0  0  0  0  0
  189.4200  172.8090  143.6980 C   0  0  0  0  0  3  0  0  0  0  0  0
  192.7490  176.0050  146.8740 O   0  0  0  0  0  0  0  0  0  0  0  0
  194.6450  176.0780  145.4950 O   0  0  0  0  0  0  0  0  0  0  0  0
  194.9500  174.8140  146.0120 C   0  0  1  0  0  3  0  0  0  0  0  0
  190.0040  176.6570  146.6380 C   0  0  0  0  0  2  0  0  0  0  0  0
  187.1260  176.2210  147.1110 C   0  0  0  0  0  1  0  0  0  0  0  0
  189.2770  177.8680  144.7250 O   0  0  0  0  0  0  0  0  0  0  0  0
  188.9440  177.3060  145.8040 C   0  0  0  0  0  0  0  0  0  0  0  0
  187.5670  177.2940  146.2260 N   0  0  0  0  0  0  0  0  0  0  0  0
  185.9470  179.0260  146.6770 C   0  0  0  0  0  2  0  0  0  0  0  0
  186.6220  178.3020  145.7890 C   0  0  0  0  0  0  0  0  0  0  0  0
  185.4020  179.7210  144.1400 C   0  0  0  0  0  1  0  0  0  0  0  0
  186.2540  178.4810  144.3410 C   0  0  2  0  0  3  0  0  0  0  0  0
  185.5710  177.2770  143.7710 C   0  0  0  0  0  3  0  0  0  0  0  0
  186.2480  176.3850  143.0500 C   0  0  0  0  0  2  0  0  0  0  0  0
  1 14  1  0  0  0  0
  2  3  1  0  0  0  0
  2 13  2  0  0  0  0
  3  7  1  6  0  0  0
  3 20  1  0  0  0  0
  4 11  1  0  0  0  0
  5  2  1  0  0  0  0
  6  1  2  0  0  0  0
  6 17  1  0  0  0  0
  7  4  1  0  0  0  0
  8 13  1  0  0  0  0
  8 21  1  0  0  0  0
  9  1  1  0  0  0  0
 10 18  1  0  0  0  0
 11 20  1  0  0  0  0
 11 15  1  1  0  0  0
 12  8  2  0  0  0  0
 13 18  1  0  0  0  0
 14  5  2  0  0  0  0
 16  5  1  0  0  0  0
 16 12  1  0  0  0  0
 17 16  2  0  0  0  0
 19 10  1  0  0  0  0
 20 19  1  6  0  0  0
 23 24  2  0  0  0  0
 24 25  1  0  0  0  0
 24 21  1  0  0  0  0
 25 22  1  0  0  0  0
 27 25  1  0  0  0  0
 27 26  2  0  0  0  0
 29 28  1  1  0  0  0
 29 27  1  0  0  0  0
 30 29  1  0  0  0  0
 31 30  2  0  0  0  0
M  END
>  <MODEL>
6

>  <REMARK>
 VINA RESULT:      -6.9      2.500      7.420
  Name = 
  5 active torsions:
  status: ('A' for Active; 'I' for Inactive)
    1  A    between atoms: C_1  and  C_24
    2  A    between atoms: C_9  and  C_23
    3  A    between atoms: C_15  and  C_23
    4  A    between atoms: C_19  and  N_22
    5  A    between atoms: C_19  and  C_24
                            x       y       z     vdW  Elec       q    Type
                         _______ _______ _______ _____ _____    ______ ____

>  <TORSDO>
F 5

$$$$
=
 OpenBabel11052417563D

 31 34  0  0  1  0  0  0  0  0999 V2000
  188.2190  174.9190  140.2880 C   0  0  0  0  0  0  0  0  0  0  0  0
  187.8880  176.3120  143.7540 C   0  0  0  0  0  0  0  0  0  0  0  0
  186.9590  177.5110  143.5160 C   0  0  1  0  0  3  0  0  0  0  0  0
  184.7380  178.3050  143.0010 C   0  0  0  0  0  2  0  0  0  0  0  0
  188.2840  175.4920  142.6590 C   0  0  0  0  0  0  0  0  0  0  0  0
  189.0750  173.8410  140.5130 C   0  0  0  0  0  3  0  0  0  0  0  0
  185.7020  177.1660  142.7360 C   0  0  0  0  0  2  0  0  0  0  0  0
  189.3800  174.9940  145.1960 C   0  0  0  0  0  0  0  0  0  0  0  0
  187.7170  175.1940  138.9170 C   0  0  0  0  0  1  0  0  0  0  0  0
  186.9970  177.2130  146.6700 C   0  0  0  0  0  2  0  0  0  0  0  0
  185.2120  178.9920  144.2720 C   0  0  2  0  0  3  0  0  0  0  0  0
  189.6990  174.1650  144.1270 C   0  0  0  0  0  3  0  0  0  0  0  0
  188.4920  176.0710  145.0260 C   0  0  0  0  0  0  0  0  0  0  0  0
  187.8310  175.7370  141.3510 C   0  0  0  0  0  3  0  0  0  0  0  0
  185.5810  180.3040  143.9760 O   0  0  0  0  0  1  0  0  0  0  0  0
  189.1720  174.4090  142.8670 C   0  0  0  0  0  0  0  0  0  0  0  0
  189.5530  173.5880  141.8000 C   0  0  0  0  0  3  0  0  0  0  0  0
  188.2820  176.9190  146.1210 O   0  0  0  0  0  0  0  0  0  0  0  0
  186.0040  177.2650  145.6860 O   0  0  0  0  0  0  0  0  0  0  0  0
  186.4270  178.2200  144.7540 C   0  0  1  0  0  3  0  0  0  0  0  0
  189.9860  174.6960  146.5300 C   0  0  0  0  0  2  0  0  0  0  0  0
  192.7060  173.8220  145.7970 C   0  0  0  0  0  1  0  0  0  0  0  0
  191.0910  176.5660  147.4980 O   0  0  0  0  0  0  0  0  0  0  0  0
  191.1950  175.5480  146.7610 C   0  0  0  0  0  0  0  0  0  0  0  0
  192.4570  175.2150  146.1490 N   0  0  0  0  0  0  0  0  0  0  0  0
  194.1780  176.7390  146.8870 C   0  0  0  0  0  2  0  0  0  0  0  0
  193.4710  176.2170  145.8900 C   0  0  0  0  0  0  0  0  0  0  0  0
  192.3540  176.9710  143.7900 C   0  0  0  0  0  1  0  0  0  0  0  0
  193.6740  176.8150  144.5230 C   0  0  2  0  0  3  0  0  0  0  0  0
  194.6460  176.0330  143.6960 C   0  0  0  0  0  3  0  0  0  0  0  0
  195.8680  175.7630  144.1500 C   0  0  0  0  0  2  0  0  0  0  0  0
  1  6  2  0  0  0  0
  1 14  1  0  0  0  0
  2 13  2  0  0  0  0
  3  7  1  1  0  0  0
  3  2  1  0  0  0  0
  3 20  1  0  0  0  0
  4 11  1  0  0  0  0
  5 16  1  0  0  0  0
  5  2  1  0  0  0  0
  6 17  1  0  0  0  0
  7  4  1  0  0  0  0
  8 21  1  0  0  0  0
  9  1  1  0  0  0  0
 11 15  1  6  0  0  0
 11 20  1  0  0  0  0
 12  8  2  0  0  0  0
 13  8  1  0  0  0  0
 13 18  1  0  0  0  0
 14  5  2  0  0  0  0
 16 12  1  0  0  0  0
 17 16  2  0  0  0  0
 18 10  1  0  0  0  0
 19 10  1  0  0  0  0
 20 19  1  1  0  0  0
 21 24  1  0  0  0  0
 22 25  1  0  0  0  0
 24 23  2  0  0  0  0
 25 24  1  0  0  0  0
 27 25  1  0  0  0  0
 27 26  2  0  0  0  0
 29 28  1  6  0  0  0
 29 27  1  0  0  0  0
 30 31  2  0  0  0  0
 30 29  1  0  0  0  0
M  END
>  <MODEL>
7

>  <REMARK>
 VINA RESULT:      -6.8      2.046      3.913
  Name = 
  5 active torsions:
  status: ('A' for Active; 'I' for Inactive)
    1  A    between atoms: C_1  and  C_24
    2  A    between atoms: C_9  and  C_23
    3  A    between atoms: C_15  and  C_23
    4  A    between atoms: C_19  and  N_22
    5  A    between atoms: C_19  and  C_24
                            x       y       z     vdW  Elec       q    Type
                         _______ _______ _______ _____ _____    ______ ____

>  <TORSDO>
F 5

$$$$
=
 OpenBabel11052417563D

 31 34  0  0  1  0  0  0  0  0999 V2000
  185.5350  177.6570  146.8110 C   0  0  0  0  0  0  0  0  0  0  0  0
  186.3740  177.1150  143.1970 C   0  0  0  0  0  0  0  0  0  0  0  0
  185.0430  177.4610  142.5160 C   0  0  1  0  0  3  0  0  0  0  0  0
  183.4570  179.1650  141.8770 C   0  0  0  0  0  2  0  0  0  0  0  0
  186.4870  177.1840  144.6140 C   0  0  0  0  0  0  0  0  0  0  0  0
  186.7460  177.3270  147.4200 C   0  0  0  0  0  3  0  0  0  0  0  0
  184.4650  178.7980  142.9470 C   0  0  0  0  0  2  0  0  0  0  0  0
  188.6640  176.2230  143.1240 C   0  0  0  0  0  0  0  0  0  0  0  0
  184.3820  178.0920  147.6410 C   0  0  0  0  0  1  0  0  0  0  0  0
  187.0960  177.3260  140.1070 C   0  0  0  0  0  2  0  0  0  0  0  0
  183.8160  178.3550  140.6420 C   0  0  2  0  0  3  0  0  0  0  0  0
  188.7750  176.3650  144.5030 C   0  0  0  0  0  3  0  0  0  0  0  0
  187.4760  176.5800  142.4610 C   0  0  0  0  0  0  0  0  0  0  0  0
  185.4080  177.5840  145.4230 C   0  0  0  0  0  3  0  0  0  0  0  0
  182.7680  177.4860  140.3410 O   0  0  0  0  0  1  0  0  0  0  0  0
  187.7010  176.8280  145.2500 C   0  0  0  0  0  0  0  0  0  0  0  0
  187.8270  176.9100  146.6410 C   0  0  0  0  0  3  0  0  0  0  0  0
  187.4010  176.3300  141.0850 O   0  0  0  0  0  0  0  0  0  0  0  0
  186.1820  178.2710  140.5870 O   0  0  0  0  0  0  0  0  0  0  0  0
  185.0540  177.5510  140.9970 C   0  0  1  0  0  3  0  0  0  0  0  0
  189.8470  175.7070  142.3680 C   0  0  0  0  0  2  0  0  0  0  0  0
  192.7060  176.3890  142.5990 C   0  0  0  0  0  1  0  0  0  0  0  0
  190.3960  173.8890  143.7990 O   0  0  0  0  0  0  0  0  0  0  0  0
  190.7770  174.9750  143.2830 C   0  0  0  0  0  0  0  0  0  0  0  0
  192.0860  175.5020  143.5760 N   0  0  0  0  0  0  0  0  0  0  0  0
  193.4710  174.0280  144.8950 C   0  0  0  0  0  2  0  0  0  0  0  0
  192.7920  175.1670  144.7960 C   0  0  0  0  0  0  0  0  0  0  0  0
  194.0460  176.4660  146.5190 C   0  0  0  0  0  1  0  0  0  0  0  0
  192.6800  176.0050  146.0420 C   0  0  2  0  0  3  0  0  0  0  0  0
  191.9490  175.3000  147.1410 C   0  0  0  0  0  3  0  0  0  0  0  0
  191.1740  175.9750  147.9880 C   0  0  0  0  0  2  0  0  0  0  0  0
  1  6  1  0  0  0  0
  1  9  1  0  0  0  0
  2  5  1  0  0  0  0
  3  7  1  1  0  0  0
  3  2  1  0  0  0  0
  4  7  1  0  0  0  0
  5 16  2  0  0  0  0
  5 14  1  0  0  0  0
  8 12  2  0  0  0  0
 10 19  1  0  0  0  0
 10 18  1  0  0  0  0
 11 15  1  1  0  0  0
 11 20  1  0  0  0  0
 11  4  1  0  0  0  0
 12 16  1  0  0  0  0
 13  8  1  0  0  0  0
 13  2  2  0  0  0  0
 14  1  2  0  0  0  0
 16 17  1  0  0  0  0
 17  6  2  0  0  0  0
 18 13  1  0  0  0  0
 20 19  1  1  0  0  0
 20  3  1  0  0  0  0
 21  8  1  0  0  0  0
 21 24  1  0  0  0  0
 22 25  1  0  0  0  0
 24 25  1  0  0  0  0
 24 23  2  0  0  0  0
 25 27  1  0  0  0  0
 27 26  2  0  0  0  0
 27 29  1  0  0  0  0
 29 28  1  1  0  0  0
 29 30  1  0  0  0  0
 30 31  2  0  0  0  0
M  END
>  <MODEL>
8

>  <REMARK>
 VINA RESULT:      -6.8      2.451      4.688
  Name = 
  5 active torsions:
  status: ('A' for Active; 'I' for Inactive)
    1  A    between atoms: C_1  and  C_24
    2  A    between atoms: C_9  and  C_23
    3  A    between atoms: C_15  and  C_23
    4  A    between atoms: C_19  and  N_22
    5  A    between atoms: C_19  and  C_24
                            x       y       z     vdW  Elec       q    Type
                         _______ _______ _______ _____ _____    ______ ____

>  <TORSDO>
F 5

$$$$
=
 OpenBabel11052417563D

 31 34  0  0  1  0  0  0  0  0999 V2000
  191.1830  173.7330  140.8560 C   0  0  0  0  0  0  0  0  0  0  0  0
  192.8810  175.0070  143.9470 C   0  0  0  0  0  0  0  0  0  0  0  0
  194.3240  175.1810  143.4560 C   0  0  1  0  0  3  0  0  0  0  0  0
  195.8870  176.4280  142.1020 C   0  0  0  0  0  2  0  0  0  0  0  0
  191.8820  174.5180  143.0580 C   0  0  0  0  0  0  0  0  0  0  0  0
  189.8770  173.5660  141.3160 C   0  0  0  0  0  3  0  0  0  0  0  0
  194.4410  175.9780  142.1680 C   0  0  0  0  0  2  0  0  0  0  0  0
  191.2060  174.9650  145.7470 C   0  0  0  0  0  0  0  0  0  0  0  0
  191.5180  173.4160  139.4430 C   0  0  0  0  0  1  0  0  0  0  0  0
  194.3030  176.6770  146.2480 C   0  0  0  0  0  2  0  0  0  0  0  0
  196.4340  176.3480  143.5190 C   0  0  2  0  0  3  0  0  0  0  0  0
  190.2310  174.5530  144.8450 C   0  0  0  0  0  3  0  0  0  0  0  0
  192.5280  175.1840  145.3210 C   0  0  0  0  0  0  0  0  0  0  0  0
  192.1750  174.2020  141.7190 C   0  0  0  0  0  3  0  0  0  0  0  0
  197.4620  175.4070  143.5620 O   0  0  0  0  0  1  0  0  0  0  0  0
  190.5570  174.3190  143.5160 C   0  0  0  0  0  0  0  0  0  0  0  0
  189.5650  173.8550  142.6460 C   0  0  0  0  0  3  0  0  0  0  0  0
  193.4790  175.5120  146.2950 O   0  0  0  0  0  0  0  0  0  0  0  0
  194.6610  177.0160  144.9390 O   0  0  0  0  0  0  0  0  0  0  0  0
  195.2880  175.8870  144.4010 C   0  0  1  0  0  3  0  0  0  0  0  0
  190.8050  175.1900  147.1700 C   0  0  0  0  0  2  0  0  0  0  0  0
  189.6830  177.9170  147.1200 C   0  0  0  0  0  1  0  0  0  0  0  0
  188.5670  174.5190  147.6110 O   0  0  0  0  0  0  0  0  0  0  0  0
  189.3360  175.4580  147.2650 C   0  0  0  0  0  0  0  0  0  0  0  0
  188.8050  176.7630  146.9650 N   0  0  0  0  0  0  0  0  0  0  0  0
  186.4730  177.2020  147.4080 C   0  0  0  0  0  2  0  0  0  0  0  0
  187.4370  176.9520  146.5270 C   0  0  0  0  0  0  0  0  0  0  0  0
  188.0070  177.3660  144.1340 C   0  0  0  0  0  1  0  0  0  0  0  0
  187.0160  176.7380  145.0980 C   0  0  2  0  0  3  0  0  0  0  0  0
  185.6310  177.2370  144.8270 C   0  0  0  0  0  3  0  0  0  0  0  0
  185.2500  177.5560  143.5930 C   0  0  0  0  0  2  0  0  0  0  0  0
  1  6  2  0  0  0  0
  1 14  1  0  0  0  0
  2 13  2  0  0  0  0
  3  7  1  6  0  0  0
  3  2  1  0  0  0  0
  3 20  1  0  0  0  0
  4  7  1  0  0  0  0
  4 11  1  0  0  0  0
  5 16  1  0  0  0  0
  5  2  1  0  0  0  0
  6 17  1  0  0  0  0
  8 21  1  0  0  0  0
  9  1  1  0  0  0  0
 10 18  1  0  0  0  0
 11 15  1  6  0  0  0
 11 20  1  0  0  0  0
 12  8  2  0  0  0  0
 13  8  1  0  0  0  0
 13 18  1  0  0  0  0
 14  5  2  0  0  0  0
 16 12  1  0  0  0  0
 17 16  2  0  0  0  0
 19 10  1  0  0  0  0
 20 19  1  6  0  0  0
 21 24  1  0  0  0  0
 24 23  2  0  0  0  0
 25 22  1  0  0  0  0
 25 24  1  0  0  0  0
 27 25  1  0  0  0  0
 27 26  2  0  0  0  0
 29 28  1  6  0  0  0
 29 27  1  0  0  0  0
 30 29  1  0  0  0  0
 31 30  2  0  0  0  0
M  END
>  <MODEL>
9

>  <REMARK>
 VINA RESULT:      -6.7      2.688      6.961
  Name = 
  5 active torsions:
  status: ('A' for Active; 'I' for Inactive)
    1  A    between atoms: C_1  and  C_24
    2  A    between atoms: C_9  and  C_23
    3  A    between atoms: C_15  and  C_23
    4  A    between atoms: C_19  and  N_22
    5  A    between atoms: C_19  and  C_24
                            x       y       z     vdW  Elec       q    Type
                         _______ _______ _______ _____ _____    ______ ____

>  <TORSDO>
F 5

$$$$
