=
 OpenBabel11052419013D

 34 38  0  0  1  0  0  0  0  0999 V2000
  185.5550  177.5540  144.2650 C   0  0  0  0  0  0  0  0  0  0  0  0
  186.4860  177.3850  146.4990 C   0  0  0  0  0  0  0  0  0  0  0  0
  187.7400  176.4580  144.5170 C   0  0  0  0  0  0  0  0  0  0  0  0
  189.9920  175.5140  144.5360 C   0  0  0  0  0  0  0  0  0  0  0  0
  184.5050  178.3280  144.7650 C   0  0  0  0  0  3  0  0  0  0  0  0
  185.4220  178.1510  146.9840 C   0  0  0  0  0  3  0  0  0  0  0  0
  189.4730  177.3380  146.1750 C   0  0  0  0  0  2  0  0  0  0  0  0
  186.6280  177.1510  145.1050 C   0  0  0  0  0  0  0  0  0  0  0  0
  190.6020  176.8020  147.0410 C   0  0  0  0  0  2  0  0  0  0  0  0
  191.3050  175.2260  145.2110 C   0  0  0  0  0  2  0  0  0  0  0  0
  184.4520  178.6480  146.1190 C   0  0  0  0  0  3  0  0  0  0  0  0
  187.5850  175.9250  143.2030 C   0  0  0  0  0  0  0  0  0  0  0  0
  185.4950  177.1350  142.9430 C   0  0  0  0  0  3  0  0  0  0  0  0
  187.2570  176.7540  147.4180 F   0  0  0  0  0  0  0  0  0  0  0  0
  189.7360  174.8990  143.3590 N   0  0  0  0  0  0  0  0  0  0  0  0
  188.5880  175.0860  142.6600 C   0  0  0  0  0  0  0  0  0  0  0  0
  191.7470  176.3580  146.1390 C   0  0  2  0  0  3  0  0  0  0  0  0
  189.0170  176.3430  145.1330 C   0  0  0  0  0  0  0  0  0  0  0  0
  186.4800  176.3030  142.4310 C   0  0  0  0  0  3  0  0  0  0  0  0
  187.9720  174.5020  138.9690 C   0  0  0  0  0  0  0  0  0  0  0  0
  188.2800  173.1460  138.8370 C   0  0  0  0  0  3  0  0  0  0  0  0
  188.4580  174.3910  141.3520 C   0  0  0  0  0  0  0  0  0  0  0  0
  188.6870  172.4110  139.9530 C   0  0  0  0  0  3  0  0  0  0  0  0
  188.0670  175.1210  140.2190 C   0  0  0  0  0  3  0  0  0  0  0  0
  188.7800  173.0320  141.2020 C   0  0  0  0  0  3  0  0  0  0  0  0
  187.5660  175.2530  137.8330 N   0  0  0  0  0  1  0  0  0  0  0  0
  192.9430  176.0000  146.9060 N   0  0  0  0  0  2  0  0  0  0  0  0
  194.0550  176.8890  146.5780 C   0  0  0  0  0  2  0  0  0  0  0  0
  194.5240  176.4470  144.2780 O   0  0  0  0  0  1  0  0  0  0  0  0
  194.9810  176.2170  145.5760 C   0  0  2  0  0  3  0  0  0  0  0  0
  195.1200  174.7150  145.8380 C   0  0  0  0  0  2  0  0  0  0  0  0
  197.2620  174.6330  144.5570 O   0  0  0  0  0  0  0  0  0  0  0  0
  196.5220  174.2280  145.6590 C   0  0  0  0  0  0  0  0  0  0  0  0
  197.0400  173.4700  146.5200 O   0  0  0  0  0  1  0  0  0  0  0  0
  1  5  2  0  0  0  0
  1  8  1  0  0  0  0
  2  6  1  0  0  0  0
  2 14  1  0  0  0  0
  3  8  1  0  0  0  0
  3 18  1  0  0  0  0
  4 18  2  0  0  0  0
  4 10  1  0  0  0  0
  5 11  1  0  0  0  0
  7  9  1  0  0  0  0
  8  2  2  0  0  0  0
 10 17  1  0  0  0  0
 11  6  2  0  0  0  0
 12  3  2  0  0  0  0
 13  1  1  0  0  0  0
 15  4  1  0  0  0  0
 16 12  1  0  0  0  0
 16 15  2  0  0  0  0
 17 27  1  1  0  0  0
 17  9  1  0  0  0  0
 18  7  1  0  0  0  0
 19 13  2  0  0  0  0
 19 12  1  0  0  0  0
 20 24  1  0  0  0  0
 21 20  2  0  0  0  0
 21 23  1  0  0  0  0
 22 16  1  0  0  0  0
 23 25  2  0  0  0  0
 24 22  2  0  0  0  0
 25 22  1  0  0  0  0
 26 20  1  0  0  0  0
 28 27  1  0  0  0  0
 30 29  1  6  0  0  0
 30 31  1  0  0  0  0
 30 28  1  0  0  0  0
 32 33  2  0  0  0  0
 33 31  1  0  0  0  0
 33 34  1  0  0  0  0
M  END
>  <MODEL>
1

>  <REMARK>
 VINA RESULT:      -8.8      0.000      0.000
  Name = 
  6 active torsions:
  status: ('A' for Active; 'I' for Inactive)
    1  A    between atoms: N_3  and  C_13
    2  A    between atoms: N_3  and  C_29
    3  A    between atoms: C_12  and  C_28
    4  A    between atoms: C_13  and  C_33
    5  A    between atoms: C_20  and  C_22
    6  A    between atoms: C_22  and  C_33
                            x       y       z     vdW  Elec       q    Type
                         _______ _______ _______ _____ _____    ______ ____

>  <TORSDO>
F 6

$$$$
=
 OpenBabel11052419013D

 34 38  0  0  1  0  0  0  0  0999 V2000
  185.3550  177.6490  144.2160 C   0  0  0  0  0  0  0  0  0  0  0  0
  186.2140  177.4800  146.4790 C   0  0  0  0  0  0  0  0  0  0  0  0
  187.5350  176.5600  144.5360 C   0  0  0  0  0  0  0  0  0  0  0  0
  189.7890  175.6240  144.6280 C   0  0  0  0  0  0  0  0  0  0  0  0
  184.2880  178.4190  144.6820 C   0  0  0  0  0  3  0  0  0  0  0  0
  185.1330  178.2420  146.9300 C   0  0  0  0  0  3  0  0  0  0  0  0
  189.2100  177.4440  146.2510 C   0  0  0  0  0  2  0  0  0  0  0  0
  186.4030  177.2490  145.0890 C   0  0  0  0  0  0  0  0  0  0  0  0
  190.3130  176.9100  147.1530 C   0  0  0  0  0  2  0  0  0  0  0  0
  191.0800  175.3390  145.3450 C   0  0  0  0  0  2  0  0  0  0  0  0
  184.1890  178.7370  146.0340 C   0  0  0  0  0  3  0  0  0  0  0  0
  187.4240  176.0280  143.2180 C   0  0  0  0  0  0  0  0  0  0  0  0
  185.3400  177.2320  142.8910 C   0  0  0  0  0  3  0  0  0  0  0  0
  186.9570  176.8500  147.4210 F   0  0  0  0  0  0  0  0  0  0  0  0
  189.5730  175.0090  143.4420 N   0  0  0  0  0  0  0  0  0  0  0  0
  188.4470  175.1930  142.7070 C   0  0  0  0  0  0  0  0  0  0  0  0
  191.4880  176.4720  146.2870 C   0  0  2  0  0  3  0  0  0  0  0  0
  188.7920  176.4490  145.1930 C   0  0  0  0  0  0  0  0  0  0  0  0
  186.3440  176.4040  142.4100 C   0  0  0  0  0  3  0  0  0  0  0  0
  187.9310  174.6070  139.0010 C   0  0  0  0  0  0  0  0  0  0  0  0
  188.2690  173.2580  138.8730 C   0  0  0  0  0  3  0  0  0  0  0  0
  188.3630  174.4990  141.3940 C   0  0  0  0  0  0  0  0  0  0  0  0
  188.6640  172.5280  139.9970 C   0  0  0  0  0  3  0  0  0  0  0  0
  187.9830  175.2250  140.2540 C   0  0  0  0  0  3  0  0  0  0  0  0
  188.7150  173.1470  141.2480 C   0  0  0  0  0  3  0  0  0  0  0  0
  187.5360  175.3530  137.8570 N   0  0  0  0  0  1  0  0  0  0  0  0
  192.6590  176.1170  147.0920 N   0  0  0  0  0  2  0  0  0  0  0  0
  193.5430  175.2180  146.3540 C   0  0  0  0  0  2  0  0  0  0  0  0
  194.7790  177.2410  146.0590 O   0  0  0  0  0  1  0  0  0  0  0  0
  194.9130  175.8580  146.1850 C   0  0  2  0  0  3  0  0  0  0  0  0
  195.6740  175.2800  144.9900 C   0  0  0  0  0  2  0  0  0  0  0  0
  196.6150  176.9860  143.4260 O   0  0  0  0  0  1  0  0  0  0  0  0
  195.5690  176.1400  143.7710 C   0  0  0  0  0  0  0  0  0  0  0  0
  194.5440  176.0810  143.0440 O   0  0  0  0  0  0  0  0  0  0  0  0
  1  5  2  0  0  0  0
  1  8  1  0  0  0  0
  2  6  1  0  0  0  0
  2 14  1  0  0  0  0
  3  8  1  0  0  0  0
  3 18  1  0  0  0  0
  4 18  2  0  0  0  0
  4 10  1  0  0  0  0
  5 11  1  0  0  0  0
  7  9  1  0  0  0  0
  8  2  2  0  0  0  0
 10 17  1  0  0  0  0
 11  6  2  0  0  0  0
 12  3  2  0  0  0  0
 13  1  1  0  0  0  0
 15  4  1  0  0  0  0
 16 12  1  0  0  0  0
 16 15  2  0  0  0  0
 17 27  1  1  0  0  0
 17  9  1  0  0  0  0
 18  7  1  0  0  0  0
 19 13  2  0  0  0  0
 19 12  1  0  0  0  0
 20 24  1  0  0  0  0
 21 20  2  0  0  0  0
 21 23  1  0  0  0  0
 22 16  1  0  0  0  0
 23 25  2  0  0  0  0
 24 22  2  0  0  0  0
 25 22  1  0  0  0  0
 26 20  1  0  0  0  0
 28 27  1  0  0  0  0
 30 29  1  6  0  0  0
 30 28  1  0  0  0  0
 31 30  1  0  0  0  0
 32 33  1  0  0  0  0
 33 31  1  0  0  0  0
 34 33  2  0  0  0  0
M  END
>  <MODEL>
2

>  <REMARK>
 VINA RESULT:      -8.6      1.029      1.223
  Name = 
  6 active torsions:
  status: ('A' for Active; 'I' for Inactive)
    1  A    between atoms: N_3  and  C_13
    2  A    between atoms: N_3  and  C_29
    3  A    between atoms: C_12  and  C_28
    4  A    between atoms: C_13  and  C_33
    5  A    between atoms: C_20  and  C_22
    6  A    between atoms: C_22  and  C_33
                            x       y       z     vdW  Elec       q    Type
                         _______ _______ _______ _____ _____    ______ ____

>  <TORSDO>
F 6

$$$$
=
 OpenBabel11052419013D

 34 38  0  0  1  0  0  0  0  0999 V2000
  191.4380  176.3240  145.7360 C   0  0  0  0  0  0  0  0  0  0  0  0
  191.8900  174.0620  144.9840 C   0  0  0  0  0  0  0  0  0  0  0  0
  189.9220  175.3450  144.0680 C   0  0  0  0  0  0  0  0  0  0  0  0
  188.4250  174.6240  142.2780 C   0  0  0  0  0  0  0  0  0  0  0  0
  192.6260  176.3140  146.4700 C   0  0  0  0  0  3  0  0  0  0  0  0
  193.0700  174.0650  145.7330 C   0  0  0  0  0  3  0  0  0  0  0  0
  190.8110  173.8640  142.1860 C   0  0  0  0  0  2  0  0  0  0  0  0
  191.0930  175.2350  144.8900 C   0  0  0  0  0  0  0  0  0  0  0  0
  190.3450  172.6930  141.3350 C   0  0  0  0  0  2  0  0  0  0  0  0
  188.0420  173.6890  141.1640 C   0  0  0  0  0  2  0  0  0  0  0  0
  193.4550  175.1960  146.4490 C   0  0  0  0  0  3  0  0  0  0  0  0
  188.9880  176.3830  144.3590 C   0  0  0  0  0  0  0  0  0  0  0  0
  190.5700  177.3960  145.8980 C   0  0  0  0  0  3  0  0  0  0  0  0
  191.4720  172.8660  144.5020 F   0  0  0  0  0  0  0  0  0  0  0  0
  187.5040  175.5230  142.6960 N   0  0  0  0  0  0  0  0  0  0  0  0
  187.7400  176.4160  143.6910 C   0  0  0  0  0  0  0  0  0  0  0  0
  189.2550  173.1770  140.3860 C   0  0  2  0  0  3  0  0  0  0  0  0
  189.6760  174.5340  142.9260 C   0  0  0  0  0  0  0  0  0  0  0  0
  189.3460  177.4060  145.2440 C   0  0  0  0  0  3  0  0  0  0  0  0
  184.8870  178.1120  145.5160 C   0  0  0  0  0  0  0  0  0  0  0  0
  184.6610  179.2350  144.7160 C   0  0  0  0  0  3  0  0  0  0  0  0
  186.6590  177.3860  144.0130 C   0  0  0  0  0  0  0  0  0  0  0  0
  185.4350  179.4430  143.5720 C   0  0  0  0  0  3  0  0  0  0  0  0
  185.8850  177.1970  145.1680 C   0  0  0  0  0  3  0  0  0  0  0  0
  186.4310  178.5270  143.2260 C   0  0  0  0  0  3  0  0  0  0  0  0
  184.1060  177.9020  146.6840 N   0  0  0  0  0  1  0  0  0  0  0  0
  188.8830  172.1510  139.4090 N   0  0  0  0  0  2  0  0  0  0  0  0
  189.6500  172.3080  138.1760 C   0  0  0  0  0  2  0  0  0  0  0  0
  188.7780  174.2080  137.0200 O   0  0  0  0  0  1  0  0  0  0  0  0
  189.8170  173.7840  137.8490 C   0  0  2  0  0  3  0  0  0  0  0  0
  191.1740  174.0810  137.2060 C   0  0  0  0  0  2  0  0  0  0  0  0
  193.0860  172.5080  137.5390 O   0  0  0  0  0  0  0  0  0  0  0  0
  192.3200  173.5640  138.0150 C   0  0  0  0  0  0  0  0  0  0  0  0
  192.6060  174.1000  139.1160 O   0  0  0  0  0  1  0  0  0  0  0  0
  1 13  1  0  0  0  0
  1  5  2  0  0  0  0
  2  6  1  0  0  0  0
  3 12  1  0  0  0  0
  3  8  1  0  0  0  0
  4 15  2  0  0  0  0
  4 18  1  0  0  0  0
  6 11  2  0  0  0  0
  7 18  1  0  0  0  0
  8  2  2  0  0  0  0
  8  1  1  0  0  0  0
  9  7  1  0  0  0  0
 10  4  1  0  0  0  0
 11  5  1  0  0  0  0
 12 19  1  0  0  0  0
 14  2  1  0  0  0  0
 15 16  1  0  0  0  0
 16 22  1  0  0  0  0
 16 12  2  0  0  0  0
 17 27  1  6  0  0  0
 17 10  1  0  0  0  0
 17  9  1  0  0  0  0
 18  3  2  0  0  0  0
 19 13  2  0  0  0  0
 20 26  1  0  0  0  0
 21 20  2  0  0  0  0
 22 24  2  0  0  0  0
 23 21  1  0  0  0  0
 24 20  1  0  0  0  0
 25 23  2  0  0  0  0
 25 22  1  0  0  0  0
 28 27  1  0  0  0  0
 30 29  1  6  0  0  0
 30 28  1  0  0  0  0
 31 30  1  0  0  0  0
 31 33  1  0  0  0  0
 32 33  2  0  0  0  0
 33 34  1  0  0  0  0
M  END
>  <MODEL>
3

>  <REMARK>
 VINA RESULT:      -8.1      3.318      7.159
  Name = 
  6 active torsions:
  status: ('A' for Active; 'I' for Inactive)
    1  A    between atoms: N_3  and  C_13
    2  A    between atoms: N_3  and  C_29
    3  A    between atoms: C_12  and  C_28
    4  A    between atoms: C_13  and  C_33
    5  A    between atoms: C_20  and  C_22
    6  A    between atoms: C_22  and  C_33
                            x       y       z     vdW  Elec       q    Type
                         _______ _______ _______ _____ _____    ______ ____

>  <TORSDO>
F 6

$$$$
=
 OpenBabel11052419013D

 34 38  0  0  1  0  0  0  0  0999 V2000
  185.9580  177.1820  144.1710 C   0  0  0  0  0  0  0  0  0  0  0  0
  186.9440  177.0220  146.3830 C   0  0  0  0  0  0  0  0  0  0  0  0
  188.2170  176.2320  144.3530 C   0  0  0  0  0  0  0  0  0  0  0  0
  190.5280  175.4440  144.3070 C   0  0  0  0  0  0  0  0  0  0  0  0
  184.8690  177.8710  144.7110 C   0  0  0  0  0  3  0  0  0  0  0  0
  185.8410  177.7020  146.9070 C   0  0  0  0  0  3  0  0  0  0  0  0
  189.9200  177.1870  146.0010 C   0  0  0  0  0  2  0  0  0  0  0  0
  187.0740  176.8330  144.9800 C   0  0  0  0  0  0  0  0  0  0  0  0
  191.1010  176.7080  146.8320 C   0  0  0  0  0  2  0  0  0  0  0  0
  191.8710  175.2290  144.9490 C   0  0  0  0  0  2  0  0  0  0  0  0
  184.8220  178.1530  146.0730 C   0  0  0  0  0  3  0  0  0  0  0  0
  188.0710  175.7220  143.0300 C   0  0  0  0  0  0  0  0  0  0  0  0
  185.9000  176.7930  142.8400 C   0  0  0  0  0  3  0  0  0  0  0  0
  187.7750  176.4230  147.2700 F   0  0  0  0  0  0  0  0  0  0  0  0
  190.2900  174.8420  143.1190 N   0  0  0  0  0  0  0  0  0  0  0  0
  189.1180  174.9660  142.4460 C   0  0  0  0  0  0  0  0  0  0  0  0
  192.2550  176.3660  145.8970 C   0  0  2  0  0  3  0  0  0  0  0  0
  189.5110  176.1890  144.9420 C   0  0  0  0  0  0  0  0  0  0  0  0
  186.9280  176.0430  142.2880 C   0  0  0  0  0  3  0  0  0  0  0  0
  189.4720  172.3620  139.7190 C   0  0  0  0  0  0  0  0  0  0  0  0
  188.7620  172.9480  138.6690 C   0  0  0  0  0  3  0  0  0  0  0  0
  189.0090  174.2970  141.1230 C   0  0  0  0  0  0  0  0  0  0  0  0
  188.1660  174.2000  138.8410 C   0  0  0  0  0  3  0  0  0  0  0  0
  189.5890  173.0310  140.9410 C   0  0  0  0  0  3  0  0  0  0  0  0
  188.2850  174.8670  140.0630 C   0  0  0  0  0  3  0  0  0  0  0  0
  190.0720  171.0860  139.5480 N   0  0  0  0  0  1  0  0  0  0  0  0
  193.4870  176.0710  146.6320 N   0  0  0  0  0  2  0  0  0  0  0  0
  194.6580  176.5180  145.8820 C   0  0  0  0  0  2  0  0  0  0  0  0
  195.9750  174.5410  146.1390 O   0  0  0  0  0  1  0  0  0  0  0  0
  195.3190  175.3330  145.1950 C   0  0  2  0  0  3  0  0  0  0  0  0
  196.2900  175.7740  144.0960 C   0  0  0  0  0  2  0  0  0  0  0  0
  194.3930  175.3910  142.5160 O   0  0  0  0  0  1  0  0  0  0  0  0
  195.6060  176.0090  142.7870 C   0  0  0  0  0  0  0  0  0  0  0  0
  196.1180  176.7870  141.9410 O   0  0  0  0  0  0  0  0  0  0  0  0
  1  5  2  0  0  0  0
  1  8  1  0  0  0  0
  2  6  1  0  0  0  0
  2 14  1  0  0  0  0
  3 18  1  0  0  0  0
  3  8  1  0  0  0  0
  4 18  2  0  0  0  0
  4 10  1  0  0  0  0
  5 11  1  0  0  0  0
  7  9  1  0  0  0  0
  8  2  2  0  0  0  0
 10 17  1  0  0  0  0
 11  6  2  0  0  0  0
 12  3  2  0  0  0  0
 13  1  1  0  0  0  0
 15  4  1  0  0  0  0
 16 12  1  0  0  0  0
 16 15  2  0  0  0  0
 17 27  1  1  0  0  0
 17  9  1  0  0  0  0
 18  7  1  0  0  0  0
 19 13  2  0  0  0  0
 19 12  1  0  0  0  0
 20 24  1  0  0  0  0
 21 23  1  0  0  0  0
 21 20  2  0  0  0  0
 22 16  1  0  0  0  0
 23 25  2  0  0  0  0
 24 22  2  0  0  0  0
 25 22  1  0  0  0  0
 26 20  1  0  0  0  0
 28 27  1  0  0  0  0
 30 28  1  0  0  0  0
 30 29  1  1  0  0  0
 31 30  1  0  0  0  0
 32 33  1  0  0  0  0
 33 31  1  0  0  0  0
 34 33  2  0  0  0  0
M  END
>  <MODEL>
4

>  <REMARK>
 VINA RESULT:      -8.1      1.370      1.977
  Name = 
  6 active torsions:
  status: ('A' for Active; 'I' for Inactive)
    1  A    between atoms: N_3  and  C_13
    2  A    between atoms: N_3  and  C_29
    3  A    between atoms: C_12  and  C_28
    4  A    between atoms: C_13  and  C_33
    5  A    between atoms: C_20  and  C_22
    6  A    between atoms: C_22  and  C_33
                            x       y       z     vdW  Elec       q    Type
                         _______ _______ _______ _____ _____    ______ ____

>  <TORSDO>
F 6

$$$$
=
 OpenBabel11052419013D

 34 38  0  0  1  0  0  0  0  0999 V2000
  191.6790  176.1010  145.8900 C   0  0  0  0  0  0  0  0  0  0  0  0
  192.0890  173.9980  144.7520 C   0  0  0  0  0  0  0  0  0  0  0  0
  189.9960  175.3240  144.2770 C   0  0  0  0  0  0  0  0  0  0  0  0
  188.3120  174.8200  142.5810 C   0  0  0  0  0  0  0  0  0  0  0  0
  192.9470  176.0290  146.4720 C   0  0  0  0  0  3  0  0  0  0  0  0
  193.3490  173.9360  145.3520 C   0  0  0  0  0  3  0  0  0  0  0  0
  190.6870  174.1790  142.1000 C   0  0  0  0  0  2  0  0  0  0  0  0
  191.2600  175.1390  144.9320 C   0  0  0  0  0  0  0  0  0  0  0  0
  190.1480  173.1310  141.1380 C   0  0  0  0  0  2  0  0  0  0  0  0
  187.8190  174.0480  141.3880 C   0  0  0  0  0  2  0  0  0  0  0  0
  193.7920  174.9610  146.1840 C   0  0  0  0  0  3  0  0  0  0  0  0
  189.0810  176.2680  144.8290 C   0  0  0  0  0  0  0  0  0  0  0  0
  190.8140  177.1010  146.3140 C   0  0  0  0  0  3  0  0  0  0  0  0
  191.6420  172.8720  144.1440 F   0  0  0  0  0  0  0  0  0  0  0  0
  187.4290  175.6080  143.2360 N   0  0  0  0  0  0  0  0  0  0  0  0
  187.7620  176.3510  144.3220 C   0  0  0  0  0  0  0  0  0  0  0  0
  188.9410  173.7070  140.4070 C   0  0  2  0  0  3  0  0  0  0  0  0
  189.6340  174.6830  143.0600 C   0  0  0  0  0  0  0  0  0  0  0  0
  189.5210  177.1600  145.8140 C   0  0  0  0  0  3  0  0  0  0  0  0
  185.4340  179.2910  144.8490 C   0  0  0  0  0  0  0  0  0  0  0  0
  184.6660  178.8600  145.9330 C   0  0  0  0  0  3  0  0  0  0  0  0
  186.7070  177.2170  144.9120 C   0  0  0  0  0  0  0  0  0  0  0  0
  184.9070  177.6080  146.5040 C   0  0  0  0  0  3  0  0  0  0  0  0
  186.4440  178.4710  144.3380 C   0  0  0  0  0  3  0  0  0  0  0  0
  185.9180  176.7900  145.9920 C   0  0  0  0  0  3  0  0  0  0  0  0
  185.1850  180.5620  144.2630 N   0  0  0  0  0  1  0  0  0  0  0  0
  188.4780  172.8260  139.3330 N   0  0  0  0  0  2  0  0  0  0  0  0
  188.4040  173.5480  138.0650 C   0  0  0  0  0  2  0  0  0  0  0  0
  189.7600  174.5370  136.3650 O   0  0  0  0  0  1  0  0  0  0  0  0
  189.7860  173.6460  137.4390 C   0  0  2  0  0  3  0  0  0  0  0  0
  190.3130  172.2800  136.9900 C   0  0  0  0  0  2  0  0  0  0  0  0
  191.3700  170.7680  138.6740 O   0  0  0  0  0  1  0  0  0  0  0  0
  191.4940  171.8300  137.7880 C   0  0  0  0  0  0  0  0  0  0  0  0
  192.6080  172.3960  137.6400 O   0  0  0  0  0  0  0  0  0  0  0  0
  1 13  1  0  0  0  0
  1  5  2  0  0  0  0
  2  8  2  0  0  0  0
  2  6  1  0  0  0  0
  3 12  1  0  0  0  0
  3  8  1  0  0  0  0
  4 18  1  0  0  0  0
  4 15  2  0  0  0  0
  6 11  2  0  0  0  0
  7 18  1  0  0  0  0
  8  1  1  0  0  0  0
  9  7  1  0  0  0  0
 10  4  1  0  0  0  0
 11  5  1  0  0  0  0
 12 19  1  0  0  0  0
 14  2  1  0  0  0  0
 15 16  1  0  0  0  0
 16 12  2  0  0  0  0
 16 22  1  0  0  0  0
 17 27  1  6  0  0  0
 17  9  1  0  0  0  0
 17 10  1  0  0  0  0
 18  3  2  0  0  0  0
 19 13  2  0  0  0  0
 20 21  1  0  0  0  0
 21 23  2  0  0  0  0
 22 25  2  0  0  0  0
 24 20  2  0  0  0  0
 24 22  1  0  0  0  0
 25 23  1  0  0  0  0
 26 20  1  0  0  0  0
 28 27  1  0  0  0  0
 30 29  1  6  0  0  0
 30 28  1  0  0  0  0
 31 30  1  0  0  0  0
 31 33  1  0  0  0  0
 33 32  1  0  0  0  0
 34 33  2  0  0  0  0
M  END
>  <MODEL>
5

>  <REMARK>
 VINA RESULT:      -8.0      3.403      7.412
  Name = 
  6 active torsions:
  status: ('A' for Active; 'I' for Inactive)
    1  A    between atoms: N_3  and  C_13
    2  A    between atoms: N_3  and  C_29
    3  A    between atoms: C_12  and  C_28
    4  A    between atoms: C_13  and  C_33
    5  A    between atoms: C_20  and  C_22
    6  A    between atoms: C_22  and  C_33
                            x       y       z     vdW  Elec       q    Type
                         _______ _______ _______ _____ _____    ______ ____

>  <TORSDO>
F 6

$$$$
=
 OpenBabel11052419013D

 34 38  0  0  1  0  0  0  0  0999 V2000
  192.3020  174.1310  144.5410 C   0  0  0  0  0  0  0  0  0  0  0  0
  191.5500  176.3690  145.1040 C   0  0  0  0  0  0  0  0  0  0  0  0
  190.4920  175.1050  143.1940 C   0  0  0  0  0  0  0  0  0  0  0  0
  188.5660  175.8190  141.8720 C   0  0  0  0  0  0  0  0  0  0  0  0
  193.1350  174.1330  145.6620 C   0  0  0  0  0  3  0  0  0  0  0  0
  192.3980  176.3580  146.2140 C   0  0  0  0  0  3  0  0  0  0  0  0
  188.6670  176.5310  144.2730 C   0  0  0  0  0  2  0  0  0  0  0  0
  191.4090  175.2090  144.2930 C   0  0  0  0  0  0  0  0  0  0  0  0
  187.7570  177.6940  143.9060 C   0  0  0  0  0  2  0  0  0  0  0  0
  187.4060  176.7390  141.6050 C   0  0  0  0  0  2  0  0  0  0  0  0
  193.1650  175.2350  146.5120 C   0  0  0  0  0  3  0  0  0  0  0  0
  190.7200  174.0920  142.2180 C   0  0  0  0  0  0  0  0  0  0  0  0
  192.4080  173.0800  143.6410 C   0  0  0  0  0  3  0  0  0  0  0  0
  191.0120  177.5620  144.7530 F   0  0  0  0  0  0  0  0  0  0  0  0
  188.9200  174.9460  140.9010 N   0  0  0  0  0  0  0  0  0  0  0  0
  189.9470  174.0690  141.0310 C   0  0  0  0  0  0  0  0  0  0  0  0
  186.7270  177.2120  142.8910 C   0  0  2  0  0  3  0  0  0  0  0  0
  189.3180  175.8990  143.0650 C   0  0  0  0  0  0  0  0  0  0  0  0
  191.6510  173.0790  142.4780 C   0  0  0  0  0  3  0  0  0  0  0  0
  191.4960  172.5140  137.9450 C   0  0  0  0  0  0  0  0  0  0  0  0
  190.7560  171.3370  137.8130 C   0  0  0  0  0  3  0  0  0  0  0  0
  190.1930  173.1260  139.9070 C   0  0  0  0  0  0  0  0  0  0  0  0
  189.7420  171.0440  138.7290 C   0  0  0  0  0  3  0  0  0  0  0  0
  191.2190  173.4000  138.9900 C   0  0  0  0  0  3  0  0  0  0  0  0
  189.4660  171.9320  139.7720 C   0  0  0  0  0  3  0  0  0  0  0  0
  192.5330  172.8090  137.0190 N   0  0  0  0  0  1  0  0  0  0  0  0
  185.7020  178.2250  142.6270 N   0  0  0  0  0  2  0  0  0  0  0  0
  184.4910  177.9520  143.3970 C   0  0  0  0  0  2  0  0  0  0  0  0
  185.2220  180.0550  144.2630 O   0  0  0  0  0  1  0  0  0  0  0  0
  184.1870  179.1200  144.3210 C   0  0  2  0  0  3  0  0  0  0  0  0
  183.9540  178.6660  145.7650 C   0  0  0  0  0  2  0  0  0  0  0  0
  186.1200  178.7030  147.0100 O   0  0  0  0  0  1  0  0  0  0  0  0
  185.1430  177.9710  146.3480 C   0  0  0  0  0  0  0  0  0  0  0  0
  185.2470  176.7200  146.2600 O   0  0  0  0  0  0  0  0  0  0  0  0
  1  5  2  0  0  0  0
  2  6  1  0  0  0  0
  3  8  1  0  0  0  0
  4 18  2  0  0  0  0
  5 11  1  0  0  0  0
  6 11  2  0  0  0  0
  8  1  1  0  0  0  0
  8  2  2  0  0  0  0
  9  7  1  0  0  0  0
 10  4  1  0  0  0  0
 10 17  1  0  0  0  0
 12 19  1  0  0  0  0
 12  3  2  0  0  0  0
 13  1  1  0  0  0  0
 14  2  1  0  0  0  0
 15 16  2  0  0  0  0
 15  4  1  0  0  0  0
 16 12  1  0  0  0  0
 17 27  1  6  0  0  0
 17  9  1  0  0  0  0
 18  3  1  0  0  0  0
 18  7  1  0  0  0  0
 19 13  2  0  0  0  0
 20 24  1  0  0  0  0
 21 20  2  0  0  0  0
 21 23  1  0  0  0  0
 22 16  1  0  0  0  0
 23 25  2  0  0  0  0
 24 22  2  0  0  0  0
 25 22  1  0  0  0  0
 26 20  1  0  0  0  0
 27 28  1  0  0  0  0
 28 30  1  0  0  0  0
 30 29  1  1  0  0  0
 30 31  1  0  0  0  0
 31 33  1  0  0  0  0
 33 32  1  0  0  0  0
 34 33  2  0  0  0  0
M  END
>  <MODEL>
6

>  <REMARK>
 VINA RESULT:      -7.9      4.001      7.041
  Name = 
  6 active torsions:
  status: ('A' for Active; 'I' for Inactive)
    1  A    between atoms: N_3  and  C_13
    2  A    between atoms: N_3  and  C_29
    3  A    between atoms: C_12  and  C_28
    4  A    between atoms: C_13  and  C_33
    5  A    between atoms: C_20  and  C_22
    6  A    between atoms: C_22  and  C_33
                            x       y       z     vdW  Elec       q    Type
                         _______ _______ _______ _____ _____    ______ ____

>  <TORSDO>
F 6

$$$$
=
 OpenBabel11052419013D

 34 38  0  0  1  0  0  0  0  0999 V2000
  186.4920  177.3430  146.6790 C   0  0  0  0  0  0  0  0  0  0  0  0
  185.3640  178.7150  145.0260 C   0  0  0  0  0  0  0  0  0  0  0  0
  187.3510  177.3040  144.3770 C   0  0  0  0  0  0  0  0  0  0  0  0
  188.2290  176.9830  142.1210 C   0  0  0  0  0  0  0  0  0  0  0  0
  185.5140  177.6770  147.6180 C   0  0  0  0  0  3  0  0  0  0  0  0
  184.4000  179.0470  145.9820 C   0  0  0  0  0  3  0  0  0  0  0  0
  185.7640  177.3550  142.3760 C   0  0  0  0  0  2  0  0  0  0  0  0
  186.3830  177.7710  145.3280 C   0  0  0  0  0  0  0  0  0  0  0  0
  185.7490  177.8560  140.9400 C   0  0  0  0  0  2  0  0  0  0  0  0
  188.1380  177.1350  140.6270 C   0  0  0  0  0  2  0  0  0  0  0  0
  184.4540  178.5080  147.2640 C   0  0  0  0  0  3  0  0  0  0  0  0
  188.5460  176.7030  144.8710 C   0  0  0  0  0  0  0  0  0  0  0  0
  187.6060  176.6350  147.1090 C   0  0  0  0  0  3  0  0  0  0  0  0
  185.3740  179.4460  143.8840 F   0  0  0  0  0  0  0  0  0  0  0  0
  189.4040  176.5670  142.6460 N   0  0  0  0  0  0  0  0  0  0  0  0
  189.6010  176.3920  143.9770 C   0  0  0  0  0  0  0  0  0  0  0  0
  186.7040  177.0060  140.1120 C   0  0  2  0  0  3  0  0  0  0  0  0
  187.1540  177.3280  142.9690 C   0  0  0  0  0  0  0  0  0  0  0  0
  188.6340  176.3490  146.2220 C   0  0  0  0  0  3  0  0  0  0  0  0
  193.1860  176.3270  145.1960 C   0  0  0  0  0  0  0  0  0  0  0  0
  193.4200  174.9570  145.3290 C   0  0  0  0  0  3  0  0  0  0  0  0
  190.9250  175.8760  144.4150 C   0  0  0  0  0  0  0  0  0  0  0  0
  192.4090  174.0430  145.0170 C   0  0  0  0  0  3  0  0  0  0  0  0
  191.9430  176.7840  144.7460 C   0  0  0  0  0  3  0  0  0  0  0  0
  191.1680  174.5010  144.5680 C   0  0  0  0  0  3  0  0  0  0  0  0
  194.2100  177.2580  145.5200 N   0  0  0  0  0  1  0  0  0  0  0  0
  186.6080  177.3090  138.6820 N   0  0  0  0  0  2  0  0  0  0  0  0
  186.7450  176.0930  137.8830 C   0  0  0  0  0  2  0  0  0  0  0  0
  185.9360  176.2330  135.6400 O   0  0  0  0  0  1  0  0  0  0  0  0
  187.0590  176.4510  136.4390 C   0  0  2  0  0  3  0  0  0  0  0  0
  188.2610  175.6710  135.9010 C   0  0  0  0  0  2  0  0  0  0  0  0
  188.6840  177.7500  134.5840 O   0  0  0  0  0  1  0  0  0  0  0  0
  189.0930  176.4760  134.9550 C   0  0  0  0  0  0  0  0  0  0  0  0
  190.1740  176.0100  134.5130 O   0  0  0  0  0  0  0  0  0  0  0  0
  1 13  1  0  0  0  0
  1  5  2  0  0  0  0
  2  8  2  0  0  0  0
  2  6  1  0  0  0  0
  3 12  1  0  0  0  0
  3  8  1  0  0  0  0
  4 15  2  0  0  0  0
  4 18  1  0  0  0  0
  6 11  2  0  0  0  0
  7 18  1  0  0  0  0
  8  1  1  0  0  0  0
  9  7  1  0  0  0  0
 10  4  1  0  0  0  0
 11  5  1  0  0  0  0
 12 19  1  0  0  0  0
 14  2  1  0  0  0  0
 15 16  1  0  0  0  0
 16 22  1  0  0  0  0
 16 12  2  0  0  0  0
 17 27  1  6  0  0  0
 17 10  1  0  0  0  0
 17  9  1  0  0  0  0
 18  3  2  0  0  0  0
 19 13  2  0  0  0  0
 20 21  1  0  0  0  0
 20 26  1  0  0  0  0
 22 25  2  0  0  0  0
 22 24  1  0  0  0  0
 23 21  2  0  0  0  0
 24 20  2  0  0  0  0
 25 23  1  0  0  0  0
 28 27  1  0  0  0  0
 30 29  1  6  0  0  0
 30 28  1  0  0  0  0
 31 30  1  0  0  0  0
 32 33  1  0  0  0  0
 33 31  1  0  0  0  0
 34 33  2  0  0  0  0
M  END
>  <MODEL>
7

>  <REMARK>
 VINA RESULT:      -7.9      4.250      7.500
  Name = 
  6 active torsions:
  status: ('A' for Active; 'I' for Inactive)
    1  A    between atoms: N_3  and  C_13
    2  A    between atoms: N_3  and  C_29
    3  A    between atoms: C_12  and  C_28
    4  A    between atoms: C_13  and  C_33
    5  A    between atoms: C_20  and  C_22
    6  A    between atoms: C_22  and  C_33
                            x       y       z     vdW  Elec       q    Type
                         _______ _______ _______ _____ _____    ______ ____

>  <TORSDO>
F 6

$$$$
=
 OpenBabel11052419013D

 34 38  0  0  1  0  0  0  0  0999 V2000
  193.6270  174.0470  144.3560 C   0  0  0  0  0  0  0  0  0  0  0  0
  193.0990  175.9870  145.7140 C   0  0  0  0  0  0  0  0  0  0  0  0
  191.3350  174.9270  144.2550 C   0  0  0  0  0  0  0  0  0  0  0  0
  188.9700  175.5310  144.1660 C   0  0  0  0  0  0  0  0  0  0  0  0
  194.8950  173.9880  144.9400 C   0  0  0  0  0  3  0  0  0  0  0  0
  194.3750  175.9200  146.2790 C   0  0  0  0  0  3  0  0  0  0  0  0
  190.1680  175.8070  146.3500 C   0  0  0  0  0  2  0  0  0  0  0  0
  192.6590  174.9850  144.8060 C   0  0  0  0  0  0  0  0  0  0  0  0
  189.1220  176.8460  146.7260 C   0  0  0  0  0  2  0  0  0  0  0  0
  187.7690  176.2740  144.6840 C   0  0  0  0  0  2  0  0  0  0  0  0
  195.2600  174.9080  145.9180 C   0  0  0  0  0  3  0  0  0  0  0  0
  191.1290  174.1580  143.0720 C   0  0  0  0  0  0  0  0  0  0  0  0
  193.3540  173.2070  143.2850 C   0  0  0  0  0  3  0  0  0  0  0  0
  192.3840  177.1160  145.9410 F   0  0  0  0  0  0  0  0  0  0  0  0
  188.8680  174.9190  142.9640 N   0  0  0  0  0  0  0  0  0  0  0  0
  189.8840  174.2190  142.4000 C   0  0  0  0  0  0  0  0  0  0  0  0
  187.7640  176.3870  146.2090 C   0  0  2  0  0  3  0  0  0  0  0  0
  190.1960  175.5210  144.8670 C   0  0  0  0  0  0  0  0  0  0  0  0
  192.1330  173.2880  142.6310 C   0  0  0  0  0  3  0  0  0  0  0  0
  188.7210  173.6610  138.8390 C   0  0  0  0  0  0  0  0  0  0  0  0
  189.1650  172.3600  138.5920 C   0  0  0  0  0  3  0  0  0  0  0  0
  189.6180  173.5490  141.0990 C   0  0  0  0  0  0  0  0  0  0  0  0
  189.8420  171.6530  139.5880 C   0  0  0  0  0  3  0  0  0  0  0  0
  188.9520  174.2530  140.0840 C   0  0  0  0  0  3  0  0  0  0  0  0
  190.0720  172.2460  140.8320 C   0  0  0  0  0  3  0  0  0  0  0  0
  188.0380  174.3840  137.8240 N   0  0  0  0  0  1  0  0  0  0  0  0
  186.6770  177.2430  146.6890 N   0  0  0  0  0  2  0  0  0  0  0  0
  185.6940  177.4750  145.6330 C   0  0  0  0  0  2  0  0  0  0  0  0
  183.7750  178.8680  145.9240 O   0  0  0  0  0  1  0  0  0  0  0  0
  185.1560  178.8950  145.7250 C   0  0  2  0  0  3  0  0  0  0  0  0
  185.5040  179.7230  144.4860 C   0  0  0  0  0  2  0  0  0  0  0  0
  184.1740  178.4150  142.8240 O   0  0  0  0  0  1  0  0  0  0  0  0
  185.3990  178.9350  143.2190 C   0  0  0  0  0  0  0  0  0  0  0  0
  186.4160  178.7630  142.4980 O   0  0  0  0  0  0  0  0  0  0  0  0
  1  8  1  0  0  0  0
  1  5  2  0  0  0  0
  2 14  1  0  0  0  0
  2  6  1  0  0  0  0
  3  8  1  0  0  0  0
  3 18  1  0  0  0  0
  4 10  1  0  0  0  0
  4 18  2  0  0  0  0
  5 11  1  0  0  0  0
  7  9  1  0  0  0  0
  8  2  2  0  0  0  0
 10 17  1  0  0  0  0
 11  6  2  0  0  0  0
 12  3  2  0  0  0  0
 13  1  1  0  0  0  0
 15  4  1  0  0  0  0
 16 15  2  0  0  0  0
 16 12  1  0  0  0  0
 17 27  1  6  0  0  0
 17  9  1  0  0  0  0
 18  7  1  0  0  0  0
 19 12  1  0  0  0  0
 19 13  2  0  0  0  0
 20 24  1  0  0  0  0
 21 20  2  0  0  0  0
 21 23  1  0  0  0  0
 22 16  1  0  0  0  0
 23 25  2  0  0  0  0
 24 22  2  0  0  0  0
 25 22  1  0  0  0  0
 26 20  1  0  0  0  0
 28 30  1  0  0  0  0
 28 27  1  0  0  0  0
 30 29  1  6  0  0  0
 31 30  1  0  0  0  0
 32 33  1  0  0  0  0
 33 31  1  0  0  0  0
 34 33  2  0  0  0  0
M  END
>  <MODEL>
8

>  <REMARK>
 VINA RESULT:      -7.9      3.749      7.064
  Name = 
  6 active torsions:
  status: ('A' for Active; 'I' for Inactive)
    1  A    between atoms: N_3  and  C_13
    2  A    between atoms: N_3  and  C_29
    3  A    between atoms: C_12  and  C_28
    4  A    between atoms: C_13  and  C_33
    5  A    between atoms: C_20  and  C_22
    6  A    between atoms: C_22  and  C_33
                            x       y       z     vdW  Elec       q    Type
                         _______ _______ _______ _____ _____    ______ ____

>  <TORSDO>
F 6

$$$$
=
 OpenBabel11052419013D

 34 38  0  0  1  0  0  0  0  0999 V2000
  191.6110  176.1470  146.0550 C   0  0  0  0  0  0  0  0  0  0  0  0
  192.1010  174.0840  144.8760 C   0  0  0  0  0  0  0  0  0  0  0  0
  190.0140  175.3970  144.3440 C   0  0  0  0  0  0  0  0  0  0  0  0
  188.4170  174.9220  142.5590 C   0  0  0  0  0  0  0  0  0  0  0  0
  192.8510  176.0740  146.6920 C   0  0  0  0  0  3  0  0  0  0  0  0
  193.3340  174.0200  145.5320 C   0  0  0  0  0  3  0  0  0  0  0  0
  190.8200  174.3250  142.1690 C   0  0  0  0  0  2  0  0  0  0  0  0
  191.2490  175.2090  145.0510 C   0  0  0  0  0  0  0  0  0  0  0  0
  190.3400  173.3000  141.1530 C   0  0  0  0  0  2  0  0  0  0  0  0
  187.9900  174.1790  141.3220 C   0  0  0  0  0  2  0  0  0  0  0  0
  193.7230  175.0260  146.4130 C   0  0  0  0  0  3  0  0  0  0  0  0
  189.0620  176.3120  144.8810 C   0  0  0  0  0  0  0  0  0  0  0  0
  190.7130  177.1230  146.4670 C   0  0  0  0  0  3  0  0  0  0  0  0
  191.6980  172.9710  144.2160 F   0  0  0  0  0  0  0  0  0  0  0  0
  187.4940  175.6790  143.1940 N   0  0  0  0  0  0  0  0  0  0  0  0
  187.7660  176.3940  144.3150 C   0  0  0  0  0  0  0  0  0  0  0  0
  189.1600  173.8820  140.3840 C   0  0  2  0  0  3  0  0  0  0  0  0
  189.7170  174.7880  143.0930 C   0  0  0  0  0  0  0  0  0  0  0  0
  189.4430  177.1810  145.9100 C   0  0  0  0  0  3  0  0  0  0  0  0
  185.3780  179.2890  144.8220 C   0  0  0  0  0  0  0  0  0  0  0  0
  184.5660  178.8150  145.8540 C   0  0  0  0  0  3  0  0  0  0  0  0
  186.6730  177.2290  144.8810 C   0  0  0  0  0  0  0  0  0  0  0  0
  184.7950  177.5480  146.3960 C   0  0  0  0  0  3  0  0  0  0  0  0
  186.4220  178.4980  144.3350 C   0  0  0  0  0  3  0  0  0  0  0  0
  185.8390  176.7590  145.9080 C   0  0  0  0  0  3  0  0  0  0  0  0
  185.1420  180.5750  144.2640 N   0  0  0  0  0  1  0  0  0  0  0  0
  188.7590  173.0270  139.2650 N   0  0  0  0  0  2  0  0  0  0  0  0
  188.7580  173.7790  138.0120 C   0  0  0  0  0  2  0  0  0  0  0  0
  191.0830  173.6970  137.4700 O   0  0  0  0  0  1  0  0  0  0  0  0
  189.8270  173.2340  137.0770 C   0  0  2  0  0  3  0  0  0  0  0  0
  189.5530  173.5990  135.6160 C   0  0  0  0  0  2  0  0  0  0  0  0
  188.1300  175.6460  135.4540 O   0  0  0  0  0  1  0  0  0  0  0  0
  189.3930  175.0720  135.4110 C   0  0  0  0  0  0  0  0  0  0  0  0
  190.4060  175.7950  135.2250 O   0  0  0  0  0  0  0  0  0  0  0  0
  1 13  1  0  0  0  0
  1  5  2  0  0  0  0
  2  8  2  0  0  0  0
  2  6  1  0  0  0  0
  3 12  1  0  0  0  0
  3  8  1  0  0  0  0
  4 18  1  0  0  0  0
  4 15  2  0  0  0  0
  6 11  2  0  0  0  0
  7 18  1  0  0  0  0
  8  1  1  0  0  0  0
  9  7  1  0  0  0  0
 10  4  1  0  0  0  0
 11  5  1  0  0  0  0
 12 19  1  0  0  0  0
 14  2  1  0  0  0  0
 15 16  1  0  0  0  0
 16 22  1  0  0  0  0
 16 12  2  0  0  0  0
 17 27  1  6  0  0  0
 17  9  1  0  0  0  0
 17 10  1  0  0  0  0
 18  3  2  0  0  0  0
 19 13  2  0  0  0  0
 20 21  1  0  0  0  0
 21 23  2  0  0  0  0
 22 25  2  0  0  0  0
 24 20  2  0  0  0  0
 24 22  1  0  0  0  0
 25 23  1  0  0  0  0
 26 20  1  0  0  0  0
 28 27  1  0  0  0  0
 30 29  1  1  0  0  0
 30 28  1  0  0  0  0
 31 30  1  0  0  0  0
 33 32  1  0  0  0  0
 33 31  1  0  0  0  0
 34 33  2  0  0  0  0
M  END
>  <MODEL>
9

>  <REMARK>
 VINA RESULT:      -7.8      3.675      7.829
  Name = 
  6 active torsions:
  status: ('A' for Active; 'I' for Inactive)
    1  A    between atoms: N_3  and  C_13
    2  A    between atoms: N_3  and  C_29
    3  A    between atoms: C_12  and  C_28
    4  A    between atoms: C_13  and  C_33
    5  A    between atoms: C_20  and  C_22
    6  A    between atoms: C_22  and  C_33
                            x       y       z     vdW  Elec       q    Type
                         _______ _______ _______ _____ _____    ______ ____

>  <TORSDO>
F 6

$$$$
