=
 OpenBabel11052417393D

 31 34  0  0  1  0  0  0  0  0999 V2000
  191.8320  175.7310  146.0470 C   0  0  0  0  0  0  0  0  0  0  0  0
  189.5200  174.6430  143.2700 C   0  0  0  0  0  0  0  0  0  0  0  0
  190.1390  173.5240  142.6260 C   0  0  0  0  0  0  0  0  0  0  0  0
  192.3670  172.4550  142.0830 C   0  0  0  0  0  2  0  0  0  0  0  0
  190.0730  175.3490  144.3890 C   0  0  0  0  0  0  0  0  0  0  0  0
  191.1100  176.7910  146.5930 C   0  0  0  0  0  3  0  0  0  0  0  0
  191.4040  172.9050  143.1800 C   0  0  0  0  0  2  0  0  0  0  0  0
  187.5860  176.1660  143.3380 C   0  0  0  0  0  0  0  0  0  0  0  0
  193.1480  175.3540  146.6230 C   0  0  0  0  0  1  0  0  0  0  0  0
  188.2990  173.4320  141.0920 N   0  0  0  0  0  0  0  0  0  0  0  0
  192.1860  171.1030  141.7010 O   0  0  0  0  0  0  0  0  0  0  0  0
  188.1350  176.8280  144.4330 C   0  0  0  0  0  3  0  0  0  0  0  0
  188.2690  175.0860  142.7600 C   0  0  0  0  0  0  0  0  0  0  0  0
  191.3170  175.0230  144.9590 C   0  0  0  0  0  3  0  0  0  0  0  0
  190.8170  170.7830  141.5370 C   0  0  0  0  0  2  0  0  0  0  0  0
  189.3590  176.4380  144.9560 C   0  0  0  0  0  0  0  0  0  0  0  0
  189.8760  177.1430  146.0470 C   0  0  0  0  0  3  0  0  0  0  0  0
  187.7130  174.4610  141.6920 N   0  0  0  0  0  0  0  0  0  0  0  0
  189.4800  172.9260  141.5170 C   0  0  0  0  0  0  0  0  0  0  0  0
  190.0610  171.8070  140.6920 C   0  0  0  0  0  2  0  0  0  0  0  0
  186.3190  176.5770  142.8030 N   0  0  0  0  0  2  0  0  0  0  0  0
  185.6670  177.9150  140.8680 C   0  0  0  0  0  1  0  0  0  0  0  0
  186.0350  177.9290  142.3420 C   0  0  1  0  0  3  0  0  0  0  0  0
  183.7280  178.2740  142.8250 O   0  0  0  0  0  0  0  0  0  0  0  0
  184.9210  178.5220  143.1470 C   0  0  0  0  0  0  0  0  0  0  0  0
  185.5660  180.5870  144.0950 O   0  0  0  0  0  0  0  0  0  0  0  0
  185.2340  179.3900  144.3040 C   0  0  0  0  0  0  0  0  0  0  0  0
  185.1750  178.9280  145.6600 N   0  0  0  0  0  2  0  0  0  0  0  0
  184.8170  177.5770  146.0650 C   0  0  0  0  0  2  0  0  0  0  0  0
  185.7390  177.1040  147.1720 C   0  0  0  0  0  2  0  0  0  0  0  0
  186.6290  178.2400  147.6380 C   0  0  0  0  0  1  0  0  0  0  0  0
  1  6  1  0  0  0  0
  1  9  1  0  0  0  0
  2  5  1  0  0  0  0
  3  7  1  0  0  0  0
  3  2  1  0  0  0  0
  4  7  1  0  0  0  0
  5 16  2  0  0  0  0
  5 14  1  0  0  0  0
  8 12  2  0  0  0  0
 10 19  1  0  0  0  0
 10 18  2  0  0  0  0
 11  4  1  0  0  0  0
 12 16  1  0  0  0  0
 13  2  2  0  0  0  0
 13  8  1  0  0  0  0
 14  1  2  0  0  0  0
 15 11  1  0  0  0  0
 16 17  1  0  0  0  0
 17  6  2  0  0  0  0
 18 13  1  0  0  0  0
 19  3  2  0  0  0  0
 20 19  1  0  0  0  0
 20 15  1  0  0  0  0
 21  8  1  0  0  0  0
 23 22  1  6  0  0  0
 23 21  1  0  0  0  0
 23 25  1  0  0  0  0
 24 25  2  0  0  0  0
 25 27  1  0  0  0  0
 26 27  2  0  0  0  0
 27 28  1  0  0  0  0
 28 29  1  0  0  0  0
 29 30  1  0  0  0  0
 30 31  1  0  0  0  0
M  END
>  <MODEL>
1

>  <REMARK>
 VINA RESULT:      -7.3      0.000      0.000
  Name = 
  6 active torsions:
  status: ('A' for Active; 'I' for Inactive)
    1  A    between atoms: C_1  and  C_11
    2  A    between atoms: C_9  and  C_22
    3  A    between atoms: C_9  and  N_23
    4  A    between atoms: C_11  and  N_24
    5  A    between atoms: C_15  and  N_23
    6  A    between atoms: C_19  and  C_22
                            x       y       z     vdW  Elec       q    Type
                         _______ _______ _______ _____ _____    ______ ____

>  <TORSDO>
F 6

$$$$
=
 OpenBabel11052417393D

 31 34  0  0  1  0  0  0  0  0999 V2000
  185.5590  177.7440  146.7310 C   0  0  0  0  0  0  0  0  0  0  0  0
  187.0700  176.7380  143.4230 C   0  0  0  0  0  0  0  0  0  0  0  0
  186.2160  177.2570  142.3980 C   0  0  0  0  0  0  0  0  0  0  0  0
  183.8280  177.9000  141.8610 C   0  0  0  0  0  2  0  0  0  0  0  0
  186.8540  176.9090  144.8300 C   0  0  0  0  0  0  0  0  0  0  0  0
  186.4860  177.2040  147.6200 C   0  0  0  0  0  3  0  0  0  0  0  0
  185.0520  178.1640  142.7360 C   0  0  0  0  0  2  0  0  0  0  0  0
  189.1110  175.4640  143.9490 C   0  0  0  0  0  0  0  0  0  0  0  0
  184.3750  178.4780  147.2460 C   0  0  0  0  0  1  0  0  0  0  0  0
  187.6460  176.2670  140.7490 N   0  0  0  0  0  0  0  0  0  0  0  0
  183.7850  178.7140  140.7020 O   0  0  0  0  0  0  0  0  0  0  0  0
  188.8890  175.6550  145.3100 C   0  0  0  0  0  3  0  0  0  0  0  0
  188.2130  175.9970  143.0130 C   0  0  0  0  0  0  0  0  0  0  0  0
  185.7440  177.5950  145.3550 C   0  0  0  0  0  3  0  0  0  0  0  0
  185.0430  178.7770  140.0580 C   0  0  0  0  0  2  0  0  0  0  0  0
  187.7810  176.3600  145.7560 C   0  0  0  0  0  0  0  0  0  0  0  0
  187.5950  176.5140  147.1330 C   0  0  0  0  0  3  0  0  0  0  0  0
  188.4500  175.7930  141.6930 N   0  0  0  0  0  0  0  0  0  0  0  0
  186.5470  177.0000  141.0400 C   0  0  0  0  0  0  0  0  0  0  0  0
  185.6880  177.4050  139.8700 C   0  0  0  0  0  2  0  0  0  0  0  0
  190.2600  174.7320  143.4970 N   0  0  0  0  0  2  0  0  0  0  0  0
  191.1060  172.5630  144.2340 C   0  0  0  0  0  1  0  0  0  0  0  0
  191.2020  174.0710  144.3910 C   0  0  1  0  0  3  0  0  0  0  0  0
  193.4960  173.6790  143.8820 O   0  0  0  0  0  0  0  0  0  0  0  0
  192.5950  174.5330  144.0980 C   0  0  0  0  0  0  0  0  0  0  0  0
  192.9340  176.5750  142.9580 O   0  0  0  0  0  0  0  0  0  0  0  0
  192.8960  175.9820  144.0690 C   0  0  0  0  0  0  0  0  0  0  0  0
  193.1500  176.7460  145.2550 N   0  0  0  0  0  2  0  0  0  0  0  0
  193.1500  176.2090  146.6080 C   0  0  0  0  0  2  0  0  0  0  0  0
  191.8320  176.5220  147.2910 C   0  0  0  0  0  2  0  0  0  0  0  0
  191.3040  175.2910  148.0030 C   0  0  0  0  0  1  0  0  0  0  0  0
  1  9  1  0  0  0  0
  1  6  1  0  0  0  0
  2  5  1  0  0  0  0
  3  7  1  0  0  0  0
  3  2  1  0  0  0  0
  4  7  1  0  0  0  0
  5 14  1  0  0  0  0
  5 16  2  0  0  0  0
  8 12  2  0  0  0  0
 10 19  1  0  0  0  0
 10 18  2  0  0  0  0
 11  4  1  0  0  0  0
 12 16  1  0  0  0  0
 13  2  2  0  0  0  0
 13  8  1  0  0  0  0
 14  1  2  0  0  0  0
 15 11  1  0  0  0  0
 16 17  1  0  0  0  0
 17  6  2  0  0  0  0
 18 13  1  0  0  0  0
 19  3  2  0  0  0  0
 20 15  1  0  0  0  0
 20 19  1  0  0  0  0
 21  8  1  0  0  0  0
 21 23  1  0  0  0  0
 23 22  1  6  0  0  0
 24 25  2  0  0  0  0
 25 23  1  0  0  0  0
 26 27  2  0  0  0  0
 27 25  1  0  0  0  0
 27 28  1  0  0  0  0
 28 29  1  0  0  0  0
 29 30  1  0  0  0  0
 30 31  1  0  0  0  0
M  END
>  <MODEL>
2

>  <REMARK>
 VINA RESULT:      -7.3      2.257      6.784
  Name = 
  6 active torsions:
  status: ('A' for Active; 'I' for Inactive)
    1  A    between atoms: C_1  and  C_11
    2  A    between atoms: C_9  and  C_22
    3  A    between atoms: C_9  and  N_23
    4  A    between atoms: C_11  and  N_24
    5  A    between atoms: C_15  and  N_23
    6  A    between atoms: C_19  and  C_22
                            x       y       z     vdW  Elec       q    Type
                         _______ _______ _______ _____ _____    ______ ____

>  <TORSDO>
F 6

$$$$
=
 OpenBabel11052417393D

 31 34  0  0  1  0  0  0  0  0999 V2000
  188.7600  174.1490  140.1440 C   0  0  0  0  0  0  0  0  0  0  0  0
  188.1830  175.7810  143.4970 C   0  0  0  0  0  0  0  0  0  0  0  0
  187.1410  176.7450  143.3180 C   0  0  0  0  0  0  0  0  0  0  0  0
  186.0600  178.2980  141.6380 C   0  0  0  0  0  2  0  0  0  0  0  0
  188.6980  174.9340  142.4610 C   0  0  0  0  0  0  0  0  0  0  0  0
  189.7630  173.2360  140.4630 C   0  0  0  0  0  3  0  0  0  0  0  0
  186.3920  176.8530  142.0070 C   0  0  0  0  0  2  0  0  0  0  0  0
  189.7670  174.7310  145.0640 C   0  0  0  0  0  0  0  0  0  0  0  0
  188.2460  174.2320  138.7530 C   0  0  0  0  0  1  0  0  0  0  0  0
  187.3510  177.3520  145.6270 N   0  0  0  0  0  0  0  0  0  0  0  0
  184.7850  178.7120  142.0960 O   0  0  0  0  0  0  0  0  0  0  0  0
  190.2420  173.9080  144.0460 C   0  0  0  0  0  3  0  0  0  0  0  0
  188.7510  175.6590  144.7960 C   0  0  0  0  0  0  0  0  0  0  0  0
  188.2390  174.9860  141.1320 C   0  0  0  0  0  3  0  0  0  0  0  0
  184.5550  178.3130  143.4350 C   0  0  0  0  0  2  0  0  0  0  0  0
  189.7260  174.0010  142.7610 C   0  0  0  0  0  0  0  0  0  0  0  0
  190.2450  173.1630  141.7700 C   0  0  0  0  0  3  0  0  0  0  0  0
  188.3100  176.4520  145.8050 N   0  0  0  0  0  0  0  0  0  0  0  0
  186.7370  177.5280  144.4350 C   0  0  0  0  0  0  0  0  0  0  0  0
  185.7210  178.6390  144.3650 C   0  0  0  0  0  2  0  0  0  0  0  0
  190.3070  174.6290  146.3900 N   0  0  0  0  0  2  0  0  0  0  0  0
  191.3690  175.4000  148.4480 C   0  0  0  0  0  1  0  0  0  0  0  0
  191.2870  175.5560  146.9390 C   0  0  1  0  0  3  0  0  0  0  0  0
  193.0460  174.1280  146.2050 O   0  0  0  0  0  0  0  0  0  0  0  0
  192.6270  175.3110  146.3200 C   0  0  0  0  0  0  0  0  0  0  0  0
  194.1580  177.0720  146.6920 O   0  0  0  0  0  0  0  0  0  0  0  0
  193.4420  176.4560  145.8580 C   0  0  0  0  0  0  0  0  0  0  0  0
  193.4530  176.9020  144.4950 N   0  0  0  0  0  2  0  0  0  0  0  0
  192.6790  176.3050  143.4170 C   0  0  0  0  0  2  0  0  0  0  0  0
  191.7260  177.3290  142.8320 C   0  0  0  0  0  2  0  0  0  0  0  0
  191.0930  178.1520  143.9380 C   0  0  0  0  0  1  0  0  0  0  0  0
  1  6  2  0  0  0  0
  1 14  1  0  0  0  0
  2 13  1  0  0  0  0
  3  2  2  0  0  0  0
  3 19  1  0  0  0  0
  4  7  1  0  0  0  0
  4 11  1  0  0  0  0
  5 16  1  0  0  0  0
  5  2  1  0  0  0  0
  6 17  1  0  0  0  0
  7  3  1  0  0  0  0
  8 21  1  0  0  0  0
  9  1  1  0  0  0  0
 10 18  1  0  0  0  0
 11 15  1  0  0  0  0
 12  8  2  0  0  0  0
 13  8  1  0  0  0  0
 13 18  2  0  0  0  0
 14  5  2  0  0  0  0
 15 20  1  0  0  0  0
 16 12  1  0  0  0  0
 17 16  2  0  0  0  0
 19 10  2  0  0  0  0
 20 19  1  0  0  0  0
 21 23  1  0  0  0  0
 23 22  1  1  0  0  0
 24 25  2  0  0  0  0
 25 23  1  0  0  0  0
 27 25  1  0  0  0  0
 27 26  2  0  0  0  0
 28 27  1  0  0  0  0
 29 28  1  0  0  0  0
 30 29  1  0  0  0  0
 30 31  1  0  0  0  0
M  END
>  <MODEL>
3

>  <REMARK>
 VINA RESULT:      -7.2      2.858      7.177
  Name = 
  6 active torsions:
  status: ('A' for Active; 'I' for Inactive)
    1  A    between atoms: C_1  and  C_11
    2  A    between atoms: C_9  and  C_22
    3  A    between atoms: C_9  and  N_23
    4  A    between atoms: C_11  and  N_24
    5  A    between atoms: C_15  and  N_23
    6  A    between atoms: C_19  and  C_22
                            x       y       z     vdW  Elec       q    Type
                         _______ _______ _______ _____ _____    ______ ____

>  <TORSDO>
F 6

$$$$
=
 OpenBabel11052417393D

 31 34  0  0  1  0  0  0  0  0999 V2000
  189.2980  173.2360  140.1060 C   0  0  0  0  0  0  0  0  0  0  0  0
  189.8880  175.8300  142.7820 C   0  0  0  0  0  0  0  0  0  0  0  0
  188.6070  176.3560  143.1430 C   0  0  0  0  0  0  0  0  0  0  0  0
  186.2710  176.8170  142.2850 C   0  0  0  0  0  2  0  0  0  0  0  0
  190.1030  174.8080  141.7990 C   0  0  0  0  0  0  0  0  0  0  0  0
  190.6000  172.7990  139.8680 C   0  0  0  0  0  3  0  0  0  0  0  0
  187.3320  175.7590  142.5860 C   0  0  0  0  0  2  0  0  0  0  0  0
  192.3210  175.8980  143.1610 C   0  0  0  0  0  0  0  0  0  0  0  0
  188.1660  172.6450  139.3460 C   0  0  0  0  0  1  0  0  0  0  0  0
  189.6870  177.8360  144.6880 N   0  0  0  0  0  0  0  0  0  0  0  0
  185.3830  177.0410  143.3660 O   0  0  0  0  0  0  0  0  0  0  0  0
  192.5050  174.8950  142.2130 C   0  0  0  0  0  3  0  0  0  0  0  0
  191.0280  176.3640  143.4430 C   0  0  0  0  0  0  0  0  0  0  0  0
  189.0580  174.2280  141.0580 C   0  0  0  0  0  3  0  0  0  0  0  0
  186.0730  177.1440  144.5980 C   0  0  0  0  0  2  0  0  0  0  0  0
  191.4230  174.3540  141.5340 C   0  0  0  0  0  0  0  0  0  0  0  0
  191.6600  173.3580  140.5820 C   0  0  0  0  0  3  0  0  0  0  0  0
  190.8780  177.3450  144.3680 N   0  0  0  0  0  0  0  0  0  0  0  0
  188.5430  177.3790  144.1280 C   0  0  0  0  0  0  0  0  0  0  0  0
  187.2750  178.0840  144.5340 C   0  0  0  0  0  2  0  0  0  0  0  0
  193.4460  176.4520  143.8570 N   0  0  0  0  0  2  0  0  0  0  0  0
  195.8800  176.4080  143.6660 C   0  0  0  0  0  1  0  0  0  0  0  0
  194.6450  175.6950  144.1910 C   0  0  1  0  0  3  0  0  0  0  0  0
  195.4340  174.5730  146.1380 O   0  0  0  0  0  0  0  0  0  0  0  0
  194.7420  175.5180  145.6740 C   0  0  0  0  0  0  0  0  0  0  0  0
  194.5620  177.5490  146.8670 O   0  0  0  0  0  0  0  0  0  0  0  0
  194.0240  176.4490  146.5720 C   0  0  0  0  0  0  0  0  0  0  0  0
  192.7350  176.1540  147.1270 N   0  0  0  0  0  2  0  0  0  0  0  0
  191.9870  174.9280  146.8900 C   0  0  0  0  0  2  0  0  0  0  0  0
  190.5050  175.1750  147.0960 C   0  0  0  0  0  2  0  0  0  0  0  0
  189.6910  174.2980  146.1650 C   0  0  0  0  0  1  0  0  0  0  0  0
  1 14  1  0  0  0  0
  2  3  2  0  0  0  0
  2 13  1  0  0  0  0
  3 19  1  0  0  0  0
  4  7  1  0  0  0  0
  4 11  1  0  0  0  0
  5  2  1  0  0  0  0
  6  1  2  0  0  0  0
  6 17  1  0  0  0  0
  7  3  1  0  0  0  0
  8 13  1  0  0  0  0
  8 21  1  0  0  0  0
  9  1  1  0  0  0  0
 11 15  1  0  0  0  0
 12  8  2  0  0  0  0
 13 18  2  0  0  0  0
 14  5  2  0  0  0  0
 16  5  1  0  0  0  0
 16 12  1  0  0  0  0
 17 16  2  0  0  0  0
 18 10  1  0  0  0  0
 19 20  1  0  0  0  0
 19 10  2  0  0  0  0
 20 15  1  0  0  0  0
 21 23  1  0  0  0  0
 23 22  1  1  0  0  0
 23 25  1  0  0  0  0
 25 24  2  0  0  0  0
 25 27  1  0  0  0  0
 27 26  2  0  0  0  0
 27 28  1  0  0  0  0
 29 30  1  0  0  0  0
 29 28  1  0  0  0  0
 31 30  1  0  0  0  0
M  END
>  <MODEL>
4

>  <REMARK>
 VINA RESULT:      -7.1      3.348      7.275
  Name = 
  6 active torsions:
  status: ('A' for Active; 'I' for Inactive)
    1  A    between atoms: C_1  and  C_11
    2  A    between atoms: C_9  and  C_22
    3  A    between atoms: C_9  and  N_23
    4  A    between atoms: C_11  and  N_24
    5  A    between atoms: C_15  and  N_23
    6  A    between atoms: C_19  and  C_22
                            x       y       z     vdW  Elec       q    Type
                         _______ _______ _______ _____ _____    ______ ____

>  <TORSDO>
F 6

$$$$
=
 OpenBabel11052417393D

 31 34  0  0  1  0  0  0  0  0999 V2000
  191.3020  176.7440  147.3870 C   0  0  0  0  0  0  0  0  0  0  0  0
  188.5480  176.6320  144.8100 C   0  0  0  0  0  0  0  0  0  0  0  0
  187.3670  177.1420  145.4380 C   0  0  0  0  0  0  0  0  0  0  0  0
  186.1780  177.3900  147.6580 C   0  0  0  0  0  2  0  0  0  0  0  0
  189.8260  176.5150  145.4480 C   0  0  0  0  0  0  0  0  0  0  0  0
  192.3760  176.2510  146.6480 C   0  0  0  0  0  3  0  0  0  0  0  0
  187.4160  177.7330  146.8300 C   0  0  0  0  0  2  0  0  0  0  0  0
  189.5510  175.7080  142.7580 C   0  0  0  0  0  0  0  0  0  0  0  0
  191.4930  177.1350  148.8070 C   0  0  0  0  0  1  0  0  0  0  0  0
  186.1550  176.7450  143.4080 N   0  0  0  0  0  0  0  0  0  0  0  0
  185.1550  178.3650  147.5640 O   0  0  0  0  0  0  0  0  0  0  0  0
  190.7870  175.6170  143.3940 C   0  0  0  0  0  3  0  0  0  0  0  0
  188.4420  176.2080  143.4560 C   0  0  0  0  0  0  0  0  0  0  0  0
  190.0450  176.8710  146.7910 C   0  0  0  0  0  3  0  0  0  0  0  0
  184.9480  178.7810  146.2270 C   0  0  0  0  0  2  0  0  0  0  0  0
  190.9340  176.0070  144.7170 C   0  0  0  0  0  0  0  0  0  0  0  0
  192.1910  175.8830  145.3160 C   0  0  0  0  0  3  0  0  0  0  0  0
  187.2490  176.2830  142.8140 N   0  0  0  0  0  0  0  0  0  0  0  0
  186.1610  177.1890  144.6860 C   0  0  0  0  0  0  0  0  0  0  0  0
  184.8300  177.6130  145.2500 C   0  0  0  0  0  2  0  0  0  0  0  0
  189.4090  175.3020  141.3900 N   0  0  0  0  0  2  0  0  0  0  0  0
  188.3130  173.9210  139.7000 C   0  0  0  0  0  1  0  0  0  0  0  0
  189.1390  173.9320  140.9760 C   0  0  1  0  0  3  0  0  0  0  0  0
  191.4540  173.8410  140.4220 O   0  0  0  0  0  0  0  0  0  0  0  0
  190.4260  173.1970  140.7640 C   0  0  0  0  0  0  0  0  0  0  0  0
  190.3240  170.9810  139.9540 O   0  0  0  0  0  0  0  0  0  0  0  0
  190.4730  171.7310  140.9550 C   0  0  0  0  0  0  0  0  0  0  0  0
  190.6810  171.1200  142.2360 N   0  0  0  0  0  2  0  0  0  0  0  0
  190.8620  171.8460  143.4840 C   0  0  0  0  0  2  0  0  0  0  0  0
  189.5210  172.0650  144.1580 C   0  0  0  0  0  2  0  0  0  0  0  0
  189.7050  172.7960  145.4730 C   0  0  0  0  0  1  0  0  0  0  0  0
  1  9  1  0  0  0  0
  2  3  1  0  0  0  0
  2  5  1  0  0  0  0
  3  7  1  0  0  0  0
  5 14  2  0  0  0  0
  6  1  2  0  0  0  0
  7  4  1  0  0  0  0
  8 12  2  0  0  0  0
  8 13  1  0  0  0  0
 10 19  1  0  0  0  0
 11  4  1  0  0  0  0
 12 16  1  0  0  0  0
 13  2  2  0  0  0  0
 14  1  1  0  0  0  0
 15 11  1  0  0  0  0
 16 17  2  0  0  0  0
 16  5  1  0  0  0  0
 17  6  1  0  0  0  0
 18 10  2  0  0  0  0
 18 13  1  0  0  0  0
 19 20  1  0  0  0  0
 19  3  2  0  0  0  0
 20 15  1  0  0  0  0
 21  8  1  0  0  0  0
 23 22  1  6  0  0  0
 23 21  1  0  0  0  0
 24 25  2  0  0  0  0
 25 27  1  0  0  0  0
 25 23  1  0  0  0  0
 26 27  2  0  0  0  0
 27 28  1  0  0  0  0
 28 29  1  0  0  0  0
 29 30  1  0  0  0  0
 30 31  1  0  0  0  0
M  END
>  <MODEL>
5

>  <REMARK>
 VINA RESULT:      -7.1      2.001      6.609
  Name = 
  6 active torsions:
  status: ('A' for Active; 'I' for Inactive)
    1  A    between atoms: C_1  and  C_11
    2  A    between atoms: C_9  and  C_22
    3  A    between atoms: C_9  and  N_23
    4  A    between atoms: C_11  and  N_24
    5  A    between atoms: C_15  and  N_23
    6  A    between atoms: C_19  and  C_22
                            x       y       z     vdW  Elec       q    Type
                         _______ _______ _______ _____ _____    ______ ____

>  <TORSDO>
F 6

$$$$
=
 OpenBabel11052417393D

 31 34  0  0  1  0  0  0  0  0999 V2000
  185.1900  177.9610  141.1200 C   0  0  0  0  0  0  0  0  0  0  0  0
  187.3900  177.5650  144.1600 C   0  0  0  0  0  0  0  0  0  0  0  0
  186.5650  177.7990  145.3060 C   0  0  0  0  0  0  0  0  0  0  0  0
  184.5210  179.0410  146.1320 C   0  0  0  0  0  2  0  0  0  0  0  0
  186.9320  177.6100  142.8020 C   0  0  0  0  0  0  0  0  0  0  0  0
  186.0980  177.6890  140.0990 C   0  0  0  0  0  3  0  0  0  0  0  0
  185.0700  177.9930  145.1660 C   0  0  0  0  0  2  0  0  0  0  0  0
  189.6400  177.0130  143.3230 C   0  0  0  0  0  0  0  0  0  0  0  0
  183.7790  178.2920  140.7920 C   0  0  0  0  0  1  0  0  0  0  0  0
  188.4780  177.4640  146.7110 N   0  0  0  0  0  0  0  0  0  0  0  0
  184.0700  178.4910  147.3570 O   0  0  0  0  0  0  0  0  0  0  0  0
  189.1700  177.0480  142.0130 C   0  0  0  0  0  3  0  0  0  0  0  0
  188.7620  177.2690  144.3870 C   0  0  0  0  0  0  0  0  0  0  0  0
  185.6060  177.9230  142.4520 C   0  0  0  0  0  3  0  0  0  0  0  0
  184.9870  177.5460  147.8760 C   0  0  0  0  0  2  0  0  0  0  0  0
  187.8420  177.3440  141.7440 C   0  0  0  0  0  0  0  0  0  0  0  0
  187.4210  177.3810  140.4110 C   0  0  0  0  0  3  0  0  0  0  0  0
  189.2470  177.2330  145.6540 N   0  0  0  0  0  0  0  0  0  0  0  0
  187.1570  177.7330  146.5970 C   0  0  0  0  0  0  0  0  0  0  0  0
  186.4290  178.0500  147.8780 C   0  0  0  0  0  2  0  0  0  0  0  0
  191.0160  176.7060  143.5920 N   0  0  0  0  0  2  0  0  0  0  0  0
  193.2330  176.2770  142.6640 C   0  0  0  0  0  1  0  0  0  0  0  0
  191.8060  175.7720  142.8030 C   0  0  1  0  0  3  0  0  0  0  0  0
  192.3550  173.4540  142.8630 O   0  0  0  0  0  0  0  0  0  0  0  0
  191.7970  174.4210  143.4480 C   0  0  0  0  0  0  0  0  0  0  0  0
  189.9340  173.8540  144.7860 O   0  0  0  0  0  0  0  0  0  0  0  0
  191.1330  174.2390  144.7580 C   0  0  0  0  0  0  0  0  0  0  0  0
  191.7970  174.4820  146.0060 N   0  0  0  0  0  2  0  0  0  0  0  0
  193.1730  174.9360  146.1430 C   0  0  0  0  0  2  0  0  0  0  0  0
  193.2020  176.4160  146.4760 C   0  0  0  0  0  2  0  0  0  0  0  0
  194.5660  176.9990  146.1620 C   0  0  0  0  0  1  0  0  0  0  0  0
  1 14  1  0  0  0  0
  2 13  2  0  0  0  0
  2  3  1  0  0  0  0
  3 19  2  0  0  0  0
  4 11  1  0  0  0  0
  5  2  1  0  0  0  0
  6 17  1  0  0  0  0
  6  1  2  0  0  0  0
  7  3  1  0  0  0  0
  7  4  1  0  0  0  0
  8 21  1  0  0  0  0
  8 13  1  0  0  0  0
  9  1  1  0  0  0  0
 11 15  1  0  0  0  0
 12  8  2  0  0  0  0
 13 18  1  0  0  0  0
 14  5  2  0  0  0  0
 15 20  1  0  0  0  0
 16 12  1  0  0  0  0
 16  5  1  0  0  0  0
 17 16  2  0  0  0  0
 18 10  2  0  0  0  0
 19 10  1  0  0  0  0
 19 20  1  0  0  0  0
 23 22  1  1  0  0  0
 23 25  1  0  0  0  0
 23 21  1  0  0  0  0
 24 25  2  0  0  0  0
 25 27  1  0  0  0  0
 27 26  2  0  0  0  0
 27 28  1  0  0  0  0
 28 29  1  0  0  0  0
 29 30  1  0  0  0  0
 31 30  1  0  0  0  0
M  END
>  <MODEL>
6

>  <REMARK>
 VINA RESULT:      -7.0      2.639      7.686
  Name = 
  6 active torsions:
  status: ('A' for Active; 'I' for Inactive)
    1  A    between atoms: C_1  and  C_11
    2  A    between atoms: C_9  and  C_22
    3  A    between atoms: C_9  and  N_23
    4  A    between atoms: C_11  and  N_24
    5  A    between atoms: C_15  and  N_23
    6  A    between atoms: C_19  and  C_22
                            x       y       z     vdW  Elec       q    Type
                         _______ _______ _______ _____ _____    ______ ____

>  <TORSDO>
F 6

$$$$
=
 OpenBabel11052417393D

 31 34  0  0  1  0  0  0  0  0999 V2000
  191.2940  176.9900  147.7570 C   0  0  0  0  0  0  0  0  0  0  0  0
  188.5820  176.6230  145.1600 C   0  0  0  0  0  0  0  0  0  0  0  0
  187.3990  177.2180  145.7040 C   0  0  0  0  0  0  0  0  0  0  0  0
  186.1790  177.7360  147.8590 C   0  0  0  0  0  2  0  0  0  0  0  0
  189.8480  176.5610  145.8310 C   0  0  0  0  0  0  0  0  0  0  0  0
  192.3720  176.4000  147.1000 C   0  0  0  0  0  3  0  0  0  0  0  0
  187.4350  177.9650  147.0210 C   0  0  0  0  0  2  0  0  0  0  0  0
  189.6040  175.4570  143.2460 C   0  0  0  0  0  0  0  0  0  0  0  0
  191.4690  177.5370  149.1270 C   0  0  0  0  0  1  0  0  0  0  0  0
  186.2150  176.6100  143.7110 N   0  0  0  0  0  0  0  0  0  0  0  0
  185.1740  178.7090  147.6360 O   0  0  0  0  0  0  0  0  0  0  0  0
  190.8270  175.4210  143.9110 C   0  0  0  0  0  3  0  0  0  0  0  0
  188.4920  176.0490  143.8620 C   0  0  0  0  0  0  0  0  0  0  0  0
  190.0500  177.0660  147.1280 C   0  0  0  0  0  3  0  0  0  0  0  0
  184.9960  178.9720  146.2570 C   0  0  0  0  0  2  0  0  0  0  0  0
  190.9580  175.9580  145.1830 C   0  0  0  0  0  0  0  0  0  0  0  0
  192.2030  175.8850  145.8150 C   0  0  0  0  0  3  0  0  0  0  0  0
  187.3110  176.0670  143.1940 N   0  0  0  0  0  0  0  0  0  0  0  0
  186.2070  177.1970  144.9290 C   0  0  0  0  0  0  0  0  0  0  0  0
  184.8740  177.7020  145.4170 C   0  0  0  0  0  2  0  0  0  0  0  0
  189.4780  174.8990  141.9300 N   0  0  0  0  0  2  0  0  0  0  0  0
  188.9740  172.5100  141.9630 C   0  0  0  0  0  1  0  0  0  0  0  0
  189.9740  173.5800  141.5590 C   0  0  1  0  0  3  0  0  0  0  0  0
  191.3870  173.7300  139.6470 O   0  0  0  0  0  0  0  0  0  0  0  0
  190.2230  173.5240  140.0840 C   0  0  0  0  0  0  0  0  0  0  0  0
  188.2620  174.1380  138.9190 O   0  0  0  0  0  0  0  0  0  0  0  0
  189.1040  173.2330  139.1620 C   0  0  0  0  0  0  0  0  0  0  0  0
  188.9310  171.9590  138.5270 N   0  0  0  0  0  2  0  0  0  0  0  0
  189.8090  170.8130  138.7080 C   0  0  0  0  0  2  0  0  0  0  0  0
  189.7720  169.9290  137.4760 C   0  0  0  0  0  2  0  0  0  0  0  0
  189.9190  170.7680  136.2210 C   0  0  0  0  0  1  0  0  0  0  0  0
  1  9  1  0  0  0  0
  2  3  1  0  0  0  0
  2  5  1  0  0  0  0
  3  7  1  0  0  0  0
  5 14  2  0  0  0  0
  6  1  2  0  0  0  0
  7  4  1  0  0  0  0
  8 13  1  0  0  0  0
  8 12  2  0  0  0  0
 10 19  1  0  0  0  0
 11  4  1  0  0  0  0
 12 16  1  0  0  0  0
 13  2  2  0  0  0  0
 14  1  1  0  0  0  0
 15 11  1  0  0  0  0
 16 17  2  0  0  0  0
 16  5  1  0  0  0  0
 17  6  1  0  0  0  0
 18 10  2  0  0  0  0
 18 13  1  0  0  0  0
 19 20  1  0  0  0  0
 19  3  2  0  0  0  0
 20 15  1  0  0  0  0
 21  8  1  0  0  0  0
 23 21  1  0  0  0  0
 23 22  1  6  0  0  0
 24 25  2  0  0  0  0
 25 23  1  0  0  0  0
 26 27  2  0  0  0  0
 27 25  1  0  0  0  0
 28 29  1  0  0  0  0
 28 27  1  0  0  0  0
 30 29  1  0  0  0  0
 31 30  1  0  0  0  0
M  END
>  <MODEL>
7

>  <REMARK>
 VINA RESULT:      -6.9      2.206      7.330
  Name = 
  6 active torsions:
  status: ('A' for Active; 'I' for Inactive)
    1  A    between atoms: C_1  and  C_11
    2  A    between atoms: C_9  and  C_22
    3  A    between atoms: C_9  and  N_23
    4  A    between atoms: C_11  and  N_24
    5  A    between atoms: C_15  and  N_23
    6  A    between atoms: C_19  and  C_22
                            x       y       z     vdW  Elec       q    Type
                         _______ _______ _______ _____ _____    ______ ____

>  <TORSDO>
F 6

$$$$
=
 OpenBabel11052417393D

 31 34  0  0  1  0  0  0  0  0999 V2000
  189.9450  172.1210  141.7350 C   0  0  0  0  0  0  0  0  0  0  0  0
  190.4540  175.5910  143.1260 C   0  0  0  0  0  0  0  0  0  0  0  0
  191.5880  175.5300  143.9970 C   0  0  0  0  0  0  0  0  0  0  0  0
  192.9080  174.0080  145.5290 C   0  0  0  0  0  2  0  0  0  0  0  0
  189.9310  174.4790  142.3870 C   0  0  0  0  0  0  0  0  0  0  0  0
  188.8460  172.3270  140.9040 C   0  0  0  0  0  3  0  0  0  0  0  0
  192.4240  174.2720  144.1040 C   0  0  0  0  0  2  0  0  0  0  0  0
  188.6860  176.9990  142.1470 C   0  0  0  0  0  0  0  0  0  0  0  0
  190.5510  170.7690  141.8430 C   0  0  0  0  0  1  0  0  0  0  0  0
  191.2880  177.8540  144.4980 N   0  0  0  0  0  0  0  0  0  0  0  0
  194.1830  174.5630  145.7980 O   0  0  0  0  0  0  0  0  0  0  0  0
  188.2050  175.9090  141.4270 C   0  0  0  0  0  3  0  0  0  0  0  0
  189.7970  176.8450  142.9890 C   0  0  0  0  0  0  0  0  0  0  0  0
  190.4760  173.1850  142.4660 C   0  0  0  0  0  3  0  0  0  0  0  0
  194.2910  175.8870  145.3090 C   0  0  0  0  0  2  0  0  0  0  0  0
  188.8060  174.6640  141.5390 C   0  0  0  0  0  0  0  0  0  0  0  0
  188.2780  173.5970  140.8070 C   0  0  0  0  0  3  0  0  0  0  0  0
  190.2420  177.9230  143.6820 N   0  0  0  0  0  0  0  0  0  0  0  0
  191.9890  176.7110  144.6780 C   0  0  0  0  0  0  0  0  0  0  0  0
  193.1030  176.7660  145.6920 C   0  0  0  0  0  2  0  0  0  0  0  0
  188.0570  178.2830  142.0250 N   0  0  0  0  0  2  0  0  0  0  0  0
  185.8940  177.9590  140.9380 C   0  0  0  0  0  1  0  0  0  0  0  0
  186.6220  178.4980  142.1580 C   0  0  1  0  0  3  0  0  0  0  0  0
  185.4820  176.7450  143.2990 O   0  0  0  0  0  0  0  0  0  0  0  0
  186.1180  177.8280  143.3980 C   0  0  0  0  0  0  0  0  0  0  0  0
  185.9580  179.6200  144.9300 O   0  0  0  0  0  0  0  0  0  0  0  0
  186.3670  178.4470  144.7190 C   0  0  0  0  0  0  0  0  0  0  0  0
  187.0590  177.7690  145.7760 N   0  0  0  0  0  2  0  0  0  0  0  0
  187.5980  176.4200  145.6880 C   0  0  0  0  0  2  0  0  0  0  0  0
  188.7770  176.2680  146.6310 C   0  0  0  0  0  2  0  0  0  0  0  0
  189.2160  174.8180  146.6950 C   0  0  0  0  0  1  0  0  0  0  0  0
  1  9  1  0  0  0  0
  1 14  1  0  0  0  0
  2  3  1  0  0  0  0
  3  7  1  0  0  0  0
  3 19  2  0  0  0  0
  4 11  1  0  0  0  0
  5 14  2  0  0  0  0
  5  2  1  0  0  0  0
  6  1  2  0  0  0  0
  7  4  1  0  0  0  0
  8 13  1  0  0  0  0
 10 19  1  0  0  0  0
 12 16  1  0  0  0  0
 12  8  2  0  0  0  0
 13  2  2  0  0  0  0
 13 18  1  0  0  0  0
 15 20  1  0  0  0  0
 15 11  1  0  0  0  0
 16  5  1  0  0  0  0
 17  6  1  0  0  0  0
 17 16  2  0  0  0  0
 18 10  2  0  0  0  0
 19 20  1  0  0  0  0
 21  8  1  0  0  0  0
 21 23  1  0  0  0  0
 23 22  1  6  0  0  0
 23 25  1  0  0  0  0
 24 25  2  0  0  0  0
 25 27  1  0  0  0  0
 27 26  2  0  0  0  0
 27 28  1  0  0  0  0
 29 28  1  0  0  0  0
 29 30  1  0  0  0  0
 30 31  1  0  0  0  0
M  END
>  <MODEL>
8

>  <REMARK>
 VINA RESULT:      -6.8      2.202      4.260
  Name = 
  6 active torsions:
  status: ('A' for Active; 'I' for Inactive)
    1  A    between atoms: C_1  and  C_11
    2  A    between atoms: C_9  and  C_22
    3  A    between atoms: C_9  and  N_23
    4  A    between atoms: C_11  and  N_24
    5  A    between atoms: C_15  and  N_23
    6  A    between atoms: C_19  and  C_22
                            x       y       z     vdW  Elec       q    Type
                         _______ _______ _______ _____ _____    ______ ____

>  <TORSDO>
F 6

$$$$
=
 OpenBabel11052417393D

 31 34  0  0  1  0  0  0  0  0999 V2000
  186.2040  177.3260  141.9580 C   0  0  0  0  0  0  0  0  0  0  0  0
  188.8920  174.7960  142.7390 C   0  0  0  0  0  0  0  0  0  0  0  0
  189.1590  174.0830  141.5270 C   0  0  0  0  0  0  0  0  0  0  0  0
  188.1360  173.3030  139.3480 C   0  0  0  0  0  2  0  0  0  0  0  0
  187.9350  175.8560  142.8680 C   0  0  0  0  0  0  0  0  0  0  0  0
  186.0620  177.9520  143.1950 C   0  0  0  0  0  3  0  0  0  0  0  0
  188.5200  174.4980  140.2190 C   0  0  0  0  0  2  0  0  0  0  0  0
  189.4390  175.0750  145.1240 C   0  0  0  0  0  0  0  0  0  0  0  0
  185.3730  177.7600  140.8060 C   0  0  0  0  0  1  0  0  0  0  0  0
  190.7630  172.7460  142.7050 N   0  0  0  0  0  0  0  0  0  0  0  0
  189.1500  172.9320  138.4310 O   0  0  0  0  0  0  0  0  0  0  0  0
  188.5150  176.1120  145.2230 C   0  0  0  0  0  3  0  0  0  0  0  0
  189.6270  174.4210  143.8980 C   0  0  0  0  0  0  0  0  0  0  0  0
  187.1290  176.2920  141.8020 C   0  0  0  0  0  3  0  0  0  0  0  0
  190.4260  172.9070  139.0430 C   0  0  0  0  0  2  0  0  0  0  0  0
  187.7680  176.5030  144.1220 C   0  0  0  0  0  0  0  0  0  0  0  0
  186.8430  177.5400  144.2740 C   0  0  0  0  0  3  0  0  0  0  0  0
  190.5300  173.4120  143.8300 N   0  0  0  0  0  0  0  0  0  0  0  0
  190.1290  173.0430  141.5470 C   0  0  0  0  0  0  0  0  0  0  0  0
  190.4390  172.1540  140.3710 C   0  0  0  0  0  2  0  0  0  0  0  0
  190.2080  174.6780  146.2690 N   0  0  0  0  0  2  0  0  0  0  0  0
  191.2810  175.3120  148.3680 C   0  0  0  0  0  1  0  0  0  0  0  0
  191.2610  175.4920  146.8600 C   0  0  1  0  0  3  0  0  0  0  0  0
  192.8510  173.8990  146.0780 O   0  0  0  0  0  0  0  0  0  0  0  0
  192.5870  175.1150  146.2770 C   0  0  0  0  0  0  0  0  0  0  0  0
  194.5400  176.3680  146.7250 O   0  0  0  0  0  0  0  0  0  0  0  0
  193.5690  176.1710  145.9460 C   0  0  0  0  0  0  0  0  0  0  0  0
  193.4660  176.9880  144.7710 N   0  0  0  0  0  2  0  0  0  0  0  0
  192.4040  176.8910  143.7810 C   0  0  0  0  0  2  0  0  0  0  0  0
  191.4080  178.0190  143.9740 C   0  0  0  0  0  2  0  0  0  0  0  0
  190.5140  178.1460  142.7560 C   0  0  0  0  0  1  0  0  0  0  0  0
  1  6  1  0  0  0  0
  2  5  2  0  0  0  0
  2 13  1  0  0  0  0
  3 19  2  0  0  0  0
  3  2  1  0  0  0  0
  4  7  1  0  0  0  0
  5 16  1  0  0  0  0
  6 17  2  0  0  0  0
  7  3  1  0  0  0  0
  8 12  1  0  0  0  0
  8 21  1  0  0  0  0
  9  1  1  0  0  0  0
 10 18  2  0  0  0  0
 11 15  1  0  0  0  0
 11  4  1  0  0  0  0
 13  8  2  0  0  0  0
 14  1  2  0  0  0  0
 14  5  1  0  0  0  0
 15 20  1  0  0  0  0
 16 17  1  0  0  0  0
 16 12  2  0  0  0  0
 18 13  1  0  0  0  0
 19 10  1  0  0  0  0
 20 19  1  0  0  0  0
 21 23  1  0  0  0  0
 23 22  1  1  0  0  0
 24 25  2  0  0  0  0
 25 23  1  0  0  0  0
 27 25  1  0  0  0  0
 27 26  2  0  0  0  0
 28 27  1  0  0  0  0
 29 30  1  0  0  0  0
 29 28  1  0  0  0  0
 31 30  1  0  0  0  0
M  END
>  <MODEL>
9

>  <REMARK>
 VINA RESULT:      -6.8      3.416      6.062
  Name = 
  6 active torsions:
  status: ('A' for Active; 'I' for Inactive)
    1  A    between atoms: C_1  and  C_11
    2  A    between atoms: C_9  and  C_22
    3  A    between atoms: C_9  and  N_23
    4  A    between atoms: C_11  and  N_24
    5  A    between atoms: C_15  and  N_23
    6  A    between atoms: C_19  and  C_22
                            x       y       z     vdW  Elec       q    Type
                         _______ _______ _______ _____ _____    ______ ____

>  <TORSDO>
F 6

$$$$
