=
 OpenBabel11052418063D

 28 33  0  0  1  0  0  0  0  0999 V2000
  185.6010  177.2370  144.0950 C   0  0  0  0  0  0  0  0  0  0  0  0
  185.2490  177.1620  145.5470 C   0  0  1  0  0  3  0  0  0  0  0  0
  187.6220  176.2750  145.8380 C   0  0  1  0  0  3  0  0  0  0  0  0
  191.6830  176.0850  144.3640 C   0  0  0  0  0  3  0  0  0  0  0  0
  186.4470  177.8080  139.9450 C   0  0  0  0  0  1  0  0  0  0  0  0
  185.8050  178.3250  147.6150 C   0  0  2  0  0  3  0  0  0  0  0  0
  186.1930  176.2740  146.3470 C   0  0  1  0  0  3  0  0  0  0  0  0
  183.8990  179.1320  146.2430 C   0  0  0  0  0  1  0  0  0  0  0  0
  190.8780  176.1260  147.3770 C   0  0  0  0  0  3  0  0  0  0  0  0
  189.2860  176.5100  144.0880 C   0  0  0  0  0  0  0  0  0  0  0  0
  185.2920  178.5340  146.2010 C   0  0  2  0  0  3  0  0  0  0  0  0
  193.1520  176.5500  146.3590 C   0  0  0  0  0  0  0  0  0  0  0  0
  190.3240  176.2390  144.9290 C   0  0  0  0  0  0  0  0  0  0  0  0
  188.6380  175.6050  146.7190 C   0  0  0  0  0  2  0  0  0  0  0  0
  192.2980  176.4920  147.3760 C   0  0  0  0  0  3  0  0  0  0  0  0
  187.2200  177.2340  142.2880 C   0  0  0  0  0  0  0  0  0  0  0  0
  187.9370  176.6090  144.5570 C   0  0  0  0  0  0  0  0  0  0  0  0
  190.0260  176.0060  146.3600 C   0  0  0  0  0  0  0  0  0  0  0  0
  184.9260  177.7670  141.8670 N   0  0  0  0  0  0  0  0  0  0  0  0
  188.5310  177.0790  141.8370 C   0  0  0  0  0  3  0  0  0  0  0  0
  186.1890  177.5970  141.4000 C   0  0  0  0  0  0  0  0  0  0  0  0
  187.0610  179.1480  147.8220 C   0  0  0  0  0  1  0  0  0  0  0  0
  194.5570  176.9160  146.6770 C   0  0  0  0  0  1  0  0  0  0  0  0
  192.8610  176.2070  144.9650 C   0  0  0  0  0  2  0  0  0  0  0  0
  189.5420  176.7370  142.7240 C   0  0  0  0  0  3  0  0  0  0  0  0
  184.6160  177.6050  143.1780 C   0  0  0  0  0  3  0  0  0  0  0  0
  186.9220  177.0290  143.6560 C   0  0  0  0  0  0  0  0  0  0  0  0
  186.1320  176.8480  147.7540 C   0  0  0  0  0  2  0  0  0  0  0  0
  2  1  1  6  0  0  0
  2 11  1  0  0  0  0
  2  7  1  0  0  0  0
  3  7  1  0  0  0  0
  3 14  1  6  0  0  0
  4 13  2  0  0  0  0
  4 24  1  0  0  0  0
  5 21  1  0  0  0  0
  6 28  1  0  0  0  0
  6 22  1  6  0  0  0
  7 28  1  1  0  0  0
 10 17  1  0  0  0  0
 10 13  1  0  0  0  0
 11  8  1  1  0  0  0
 11  6  1  0  0  0  0
 12 23  1  0  0  0  0
 12 15  2  0  0  0  0
 13 18  1  0  0  0  0
 15  9  1  0  0  0  0
 16 27  1  0  0  0  0
 17  3  1  0  0  0  0
 18 14  1  0  0  0  0
 18  9  2  0  0  0  0
 19 26  1  0  0  0  0
 20 16  2  0  0  0  0
 20 25  1  0  0  0  0
 21 19  2  0  0  0  0
 21 16  1  0  0  0  0
 24 12  1  0  0  0  0
 25 10  2  0  0  0  0
 26  1  2  0  0  0  0
 27  1  1  0  0  0  0
 27 17  2  0  0  0  0
M  END
>  <MODEL>
1

>  <REMARK>
 VINA RESULT:      -9.8      0.000      0.000
  Name = 
  0 active torsions:
  status: ('A' for Active; 'I' for Inactive)
                            x       y       z     vdW  Elec       q    Type
                         _______ _______ _______ _____ _____    ______ ____

>  <TORSDO>
F 0

$$$$
=
 OpenBabel11052418063D

 28 33  0  0  1  0  0  0  0  0999 V2000
  186.0470  178.6210  143.8650 C   0  0  0  0  0  0  0  0  0  0  0  0
  186.5110  178.6810  142.4440 C   0  0  1  0  0  3  0  0  0  0  0  0
  188.7700  177.9790  143.3980 C   0  0  1  0  0  3  0  0  0  0  0  0
  190.9770  175.9900  146.5400 C   0  0  0  0  0  3  0  0  0  0  0  0
  184.4040  178.2560  147.7930 C   0  0  0  0  0  1  0  0  0  0  0  0
  187.1700  177.1340  140.6800 C   0  0  2  0  0  3  0  0  0  0  0  0
  188.0280  178.7360  142.3120 C   0  0  1  0  0  3  0  0  0  0  0  0
  184.7830  177.7820  140.8970 C   0  0  0  0  0  1  0  0  0  0  0  0
  191.7790  175.9990  143.5260 C   0  0  0  0  0  3  0  0  0  0  0  0
  188.9720  177.0740  145.6400 C   0  0  0  0  0  0  0  0  0  0  0  0
  186.0560  177.4620  141.6570 C   0  0  2  0  0  3  0  0  0  0  0  0
  192.6240  174.4850  145.3650 C   0  0  0  0  0  0  0  0  0  0  0  0
  190.2190  176.5730  145.4110 C   0  0  0  0  0  0  0  0  0  0  0  0
  190.2480  177.8060  143.1910 C   0  0  0  0  0  2  0  0  0  0  0  0
  192.5380  174.8840  144.1000 C   0  0  0  0  0  3  0  0  0  0  0  0
  186.3280  177.9400  146.1760 C   0  0  0  0  0  0  0  0  0  0  0  0
  188.2100  177.7090  144.6080 C   0  0  0  0  0  0  0  0  0  0  0  0
  190.8030  176.7310  144.0590 C   0  0  0  0  0  0  0  0  0  0  0  0
  184.2660  178.8990  145.4310 N   0  0  0  0  0  0  0  0  0  0  0  0
  187.1050  177.3700  147.1840 C   0  0  0  0  0  3  0  0  0  0  0  0
  185.0120  178.3700  146.4340 C   0  0  0  0  0  0  0  0  0  0  0  0
  187.6520  175.7170  140.9210 C   0  0  0  0  0  1  0  0  0  0  0  0
  193.5180  173.3340  145.6520 C   0  0  0  0  0  1  0  0  0  0  0  0
  191.9850  175.1250  146.5180 C   0  0  0  0  0  2  0  0  0  0  0  0
  188.3950  176.9350  146.9150 C   0  0  0  0  0  3  0  0  0  0  0  0
  184.7460  179.0240  144.1690 C   0  0  0  0  0  3  0  0  0  0  0  0
  186.8660  178.0850  144.8750 C   0  0  0  0  0  0  0  0  0  0  0  0
  188.3000  178.1120  140.9520 C   0  0  0  0  0  2  0  0  0  0  0  0
  1 26  2  0  0  0  0
  1 27  1  0  0  0  0
  2  1  1  1  0  0  0
  3 14  1  1  0  0  0
  3 17  1  0  0  0  0
  6 22  1  1  0  0  0
  6 28  1  0  0  0  0
  6 11  1  0  0  0  0
  7 28  1  6  0  0  0
  7  2  1  0  0  0  0
  7  3  1  0  0  0  0
  9 18  2  0  0  0  0
  9 15  1  0  0  0  0
 10 25  1  0  0  0  0
 11  8  1  6  0  0  0
 11  2  1  0  0  0  0
 12 23  1  0  0  0  0
 12 24  1  0  0  0  0
 13 10  1  0  0  0  0
 13  4  2  0  0  0  0
 14 18  1  0  0  0  0
 15 12  2  0  0  0  0
 16 21  1  0  0  0  0
 16 20  1  0  0  0  0
 17 27  1  0  0  0  0
 17 10  2  0  0  0  0
 18 13  1  0  0  0  0
 19 21  2  0  0  0  0
 21  5  1  0  0  0  0
 24  4  1  0  0  0  0
 25 20  2  0  0  0  0
 26 19  1  0  0  0  0
 27 16  2  0  0  0  0
M  END
>  <MODEL>
2

>  <REMARK>
 VINA RESULT:      -9.1      1.608      4.384
  Name = 
  0 active torsions:
  status: ('A' for Active; 'I' for Inactive)
                            x       y       z     vdW  Elec       q    Type
                         _______ _______ _______ _____ _____    ______ ____

>  <TORSDO>
F 0

$$$$
=
 OpenBabel11052418063D

 28 33  0  0  1  0  0  0  0  0999 V2000
  187.7180  176.9220  146.1410 C   0  0  0  0  0  0  0  0  0  0  0  0
  188.8930  176.3400  146.8600 C   0  0  1  0  0  3  0  0  0  0  0  0
  189.1380  174.8720  144.7890 C   0  0  1  0  0  3  0  0  0  0  0  0
  188.4410  174.3420  140.5550 C   0  0  0  0  0  3  0  0  0  0  0  0
  184.4950  178.9400  144.1880 C   0  0  0  0  0  1  0  0  0  0  0  0
  191.3240  176.3720  146.6950 C   0  0  2  0  0  3  0  0  0  0  0  0
  189.3430  175.0030  146.2870 C   0  0  1  0  0  3  0  0  0  0  0  0
  190.1770  178.1050  148.0540 C   0  0  0  0  0  1  0  0  0  0  0  0
  190.9570  173.3230  142.0910 C   0  0  0  0  0  3  0  0  0  0  0  0
  187.9940  175.4040  142.7170 C   0  0  0  0  0  0  0  0  0  0  0  0
  190.0990  177.2640  146.7940 C   0  0  2  0  0  3  0  0  0  0  0  0
  190.6420  173.5720  139.5960 C   0  0  0  0  0  0  0  0  0  0  0  0
  188.7780  174.5690  141.9780 C   0  0  1  0  0  3  0  0  0  0  0  0
  189.7700  173.6750  144.1370 C   0  0  0  0  0  2  0  0  0  0  0  0
  191.3610  173.3050  140.6810 C   0  0  0  0  0  3  0  0  0  0  0  0
  186.4090  177.2800  144.1300 C   0  0  0  0  0  0  0  0  0  0  0  0
  188.2240  175.6200  144.1130 C   0  0  0  0  0  0  0  0  0  0  0  0
  189.8720  173.8430  142.6620 C   0  0  0  0  0  0  0  0  0  0  0  0
  185.9010  178.4730  146.1420 N   0  0  0  0  0  0  0  0  0  0  0  0
  186.1620  177.0160  142.7820 C   0  0  0  0  0  3  0  0  0  0  0  0
  185.6270  178.2140  144.8370 C   0  0  0  0  0  0  0  0  0  0  0  0
  192.0910  176.7080  145.4310 C   0  0  0  0  0  1  0  0  0  0  0  0
  191.3210  173.4250  138.2820 C   0  0  0  0  0  1  0  0  0  0  0  0
  189.2190  173.9180  139.5640 C   0  0  0  0  0  3  0  0  0  0  0  0
  186.9490  176.1060  142.0900 C   0  0  0  0  0  3  0  0  0  0  0  0
  186.9210  177.8620  146.7960 C   0  0  0  0  0  3  0  0  0  0  0  0
  187.4600  176.6050  144.7940 C   0  0  0  0  0  0  0  0  0  0  0  0
  190.8250  174.9390  146.6250 C   0  0  0  0  0  2  0  0  0  0  0  0
  1 26  1  0  0  0  0
  2  1  1  6  0  0  0
  3 14  1  1  0  0  0
  3  7  1  0  0  0  0
  5 21  1  0  0  0  0
  6 22  1  6  0  0  0
  6 11  1  0  0  0  0
  7 28  1  6  0  0  0
  7  2  1  0  0  0  0
  9 18  2  0  0  0  0
 10 17  2  0  0  0  0
 11  2  1  0  0  0  0
 11  8  1  1  0  0  0
 12 15  2  0  0  0  0
 13  4  1  1  0  0  0
 13 18  1  0  0  0  0
 13 10  1  0  0  0  0
 15  9  1  0  0  0  0
 16 27  1  0  0  0  0
 16 21  2  0  0  0  0
 17  3  1  0  0  0  0
 17 27  1  0  0  0  0
 18 14  1  0  0  0  0
 19 26  2  0  0  0  0
 20 16  1  0  0  0  0
 21 19  1  0  0  0  0
 23 12  1  0  0  0  0
 24 12  1  0  0  0  0
 24  4  2  0  0  0  0
 25 10  1  0  0  0  0
 25 20  2  0  0  0  0
 27  1  2  0  0  0  0
 28  6  1  0  0  0  0
M  END
>  <MODEL>
3

>  <REMARK>
 VINA RESULT:      -8.7      2.567      4.907
  Name = 
  0 active torsions:
  status: ('A' for Active; 'I' for Inactive)
                            x       y       z     vdW  Elec       q    Type
                         _______ _______ _______ _____ _____    ______ ____

>  <TORSDO>
F 0

$$$$
=
 OpenBabel11052418063D

 28 33  0  0  1  0  0  0  0  0999 V2000
  191.9120  174.3010  142.9970 C   0  0  0  0  0  0  0  0  0  0  0  0
  192.6500  175.0130  144.0870 C   0  0  1  0  0  3  0  0  0  0  0  0
  190.5450  176.4410  144.2600 C   0  0  1  0  0  3  0  0  0  0  0  0
  186.2760  176.7890  143.6580 C   0  0  0  0  0  3  0  0  0  0  0  0
  189.9220  171.9330  140.0480 C   0  0  0  0  0  1  0  0  0  0  0  0
  192.5600  175.2100  146.5140 C   0  0  2  0  0  3  0  0  0  0  0  0
  192.0510  176.3710  144.4270 C   0  0  1  0  0  3  0  0  0  0  0  0
  193.9340  173.4120  145.4920 C   0  0  0  0  0  1  0  0  0  0  0  0
  187.8580  178.0850  146.0130 C   0  0  0  0  0  3  0  0  0  0  0  0
  188.4540  175.7470  143.2420 C   0  0  0  0  0  0  0  0  0  0  0  0
  192.6490  174.2080  145.3770 C   0  0  2  0  0  3  0  0  0  0  0  0
  185.3630  177.7400  145.8070 C   0  0  0  0  0  0  0  0  0  0  0  0
  187.7150  176.6330  143.9670 C   0  0  0  0  0  0  0  0  0  0  0  0
  189.8770  177.6750  144.7970 C   0  0  0  0  0  2  0  0  0  0  0  0
  186.4620  178.1050  146.4600 C   0  0  0  0  0  3  0  0  0  0  0  0
  189.8730  173.7660  141.7960 C   0  0  0  0  0  0  0  0  0  0  0  0
  189.8630  175.5920  143.4450 C   0  0  0  0  0  0  0  0  0  0  0  0
  188.4110  177.4790  144.9640 C   0  0  0  0  0  0  0  0  0  0  0  0
  191.9030  172.5840  141.3370 N   0  0  0  0  0  0  0  0  0  0  0  0
  188.5120  173.9690  141.5710 C   0  0  0  0  0  3  0  0  0  0  0  0
  190.5840  172.7810  141.0830 C   0  0  0  0  0  0  0  0  0  0  0  0
  191.3310  174.9160  147.3510 C   0  0  0  0  0  1  0  0  0  0  0  0
  184.0670  177.9160  146.5130 C   0  0  0  0  0  1  0  0  0  0  0  0
  185.2990  177.2590  144.4250 C   0  0  0  0  0  2  0  0  0  0  0  0
  187.8170  174.9310  142.2900 C   0  0  0  0  0  3  0  0  0  0  0  0
  192.5700  173.3070  142.2710 C   0  0  0  0  0  3  0  0  0  0  0  0
  190.5500  174.5560  142.7560 C   0  0  0  0  0  0  0  0  0  0  0  0
  192.4320  176.5860  145.8830 C   0  0  0  0  0  2  0  0  0  0  0  0
  2  1  1  6  0  0  0
  2  7  1  0  0  0  0
  2 11  1  0  0  0  0
  3  7  1  0  0  0  0
  3 14  1  6  0  0  0
  4 13  2  0  0  0  0
  4 24  1  0  0  0  0
  5 21  1  0  0  0  0
  6 22  1  1  0  0  0
  7 28  1  1  0  0  0
  9 15  1  0  0  0  0
 10 17  1  0  0  0  0
 10 13  1  0  0  0  0
 11  8  1  1  0  0  0
 11  6  1  0  0  0  0
 12 15  2  0  0  0  0
 12 23  1  0  0  0  0
 13 18  1  0  0  0  0
 14 18  1  0  0  0  0
 16 27  1  0  0  0  0
 17  3  1  0  0  0  0
 18  9  2  0  0  0  0
 19 26  1  0  0  0  0
 20 16  2  0  0  0  0
 20 25  1  0  0  0  0
 21 19  2  0  0  0  0
 21 16  1  0  0  0  0
 24 12  1  0  0  0  0
 25 10  2  0  0  0  0
 26  1  2  0  0  0  0
 27  1  1  0  0  0  0
 27 17  2  0  0  0  0
 28  6  1  0  0  0  0
M  END
>  <MODEL>
4

>  <REMARK>
 VINA RESULT:      -8.6      2.740      6.419
  Name = 
  0 active torsions:
  status: ('A' for Active; 'I' for Inactive)
                            x       y       z     vdW  Elec       q    Type
                         _______ _______ _______ _____ _____    ______ ____

>  <TORSDO>
F 0

$$$$
=
 OpenBabel11052418063D

 28 33  0  0  1  0  0  0  0  0999 V2000
  187.8110  176.9570  145.7590 C   0  0  0  0  0  0  0  0  0  0  0  0
  188.6560  176.4680  146.8920 C   0  0  1  0  0  3  0  0  0  0  0  0
  189.4010  174.6630  145.2520 C   0  0  1  0  0  3  0  0  0  0  0  0
  189.9960  173.4460  141.1450 C   0  0  0  0  0  3  0  0  0  0  0  0
  185.5230  178.7160  142.6060 C   0  0  0  0  0  1  0  0  0  0  0  0
  191.0140  176.3940  147.5020 C   0  0  2  0  0  3  0  0  0  0  0  0
  189.1470  175.0390  146.6990 C   0  0  1  0  0  3  0  0  0  0  0  0
  189.6540  178.3680  148.1500 C   0  0  0  0  0  1  0  0  0  0  0  0
  191.8240  172.6220  143.5330 C   0  0  0  0  0  3  0  0  0  0  0  0
  188.9970  174.8720  142.8680 C   0  0  0  0  0  0  0  0  0  0  0  0
  189.8970  177.3280  147.0730 C   0  0  2  0  0  3  0  0  0  0  0  0
  192.3130  172.4550  141.0600 C   0  0  0  0  0  0  0  0  0  0  0  0
  189.8970  173.9000  142.5500 C   0  0  1  0  0  3  0  0  0  0  0  0
  190.1010  173.3540  145.0210 C   0  0  0  0  0  2  0  0  0  0  0  0
  192.6380  172.3520  142.3440 C   0  0  0  0  0  3  0  0  0  0  0  0
  187.2170  177.0100  143.4070 C   0  0  0  0  0  0  0  0  0  0  0  0
  188.8050  175.3140  144.2160 C   0  0  0  0  0  0  0  0  0  0  0  0
  190.6640  173.2660  143.6470 C   0  0  0  0  0  0  0  0  0  0  0  0
  186.2180  178.5420  144.9510 N   0  0  0  0  0  0  0  0  0  0  0  0
  187.3750  176.5300  142.1070 C   0  0  0  0  0  3  0  0  0  0  0  0
  186.3370  178.0750  143.6820 C   0  0  0  0  0  0  0  0  0  0  0  0
  192.1570  176.4860  146.5100 C   0  0  0  0  0  1  0  0  0  0  0  0
  193.3480  172.0660  140.0670 C   0  0  0  0  0  1  0  0  0  0  0  0
  191.0020  172.8360  140.5280 C   0  0  0  0  0  3  0  0  0  0  0  0
  188.2580  175.4920  141.8450 C   0  0  0  0  0  3  0  0  0  0  0  0
  186.9330  178.0190  145.9780 C   0  0  0  0  0  3  0  0  0  0  0  0
  187.9540  176.4250  144.4640 C   0  0  0  0  0  0  0  0  0  0  0  0
  190.4420  174.9860  147.4940 C   0  0  0  0  0  2  0  0  0  0  0  0
  1 26  1  0  0  0  0
  2  1  1  6  0  0  0
  2 11  1  0  0  0  0
  3 14  1  1  0  0  0
  3  7  1  0  0  0  0
  5 21  1  0  0  0  0
  6 22  1  6  0  0  0
  7  2  1  0  0  0  0
  7 28  1  1  0  0  0
  9 18  2  0  0  0  0
 10 17  2  0  0  0  0
 11  6  1  0  0  0  0
 11  8  1  1  0  0  0
 12 15  2  0  0  0  0
 13  4  1  1  0  0  0
 13 10  1  0  0  0  0
 13 18  1  0  0  0  0
 15  9  1  0  0  0  0
 16 21  2  0  0  0  0
 16 27  1  0  0  0  0
 17 27  1  0  0  0  0
 17  3  1  0  0  0  0
 18 14  1  0  0  0  0
 19 26  2  0  0  0  0
 20 16  1  0  0  0  0
 21 19  1  0  0  0  0
 23 12  1  0  0  0  0
 24 12  1  0  0  0  0
 24  4  2  0  0  0  0
 25 20  2  0  0  0  0
 25 10  1  0  0  0  0
 27  1  2  0  0  0  0
 28  6  1  0  0  0  0
M  END
>  <MODEL>
5

>  <REMARK>
 VINA RESULT:      -8.4      2.671      4.301
  Name = 
  0 active torsions:
  status: ('A' for Active; 'I' for Inactive)
                            x       y       z     vdW  Elec       q    Type
                         _______ _______ _______ _____ _____    ______ ____

>  <TORSDO>
F 0

$$$$
=
 OpenBabel11052418063D

 28 33  0  0  1  0  0  0  0  0999 V2000
  188.9820  175.8050  145.5850 C   0  0  0  0  0  0  0  0  0  0  0  0
  190.1220  174.8940  145.9150 C   0  0  1  0  0  3  0  0  0  0  0  0
  189.7030  173.9130  143.5980 C   0  0  1  0  0  3  0  0  0  0  0  0
  188.1910  174.4740  139.5860 C   0  0  0  0  0  3  0  0  0  0  0  0
  185.9450  178.7030  144.7810 C   0  0  0  0  0  1  0  0  0  0  0  0
  192.4430  174.5720  145.2470 C   0  0  2  0  0  3  0  0  0  0  0  0
  190.1870  173.6670  145.0150 C   0  0  1  0  0  3  0  0  0  0  0  0
  191.9230  176.1140  147.1220 C   0  0  0  0  0  1  0  0  0  0  0  0
  190.6770  172.7440  140.3310 C   0  0  0  0  0  3  0  0  0  0  0  0
  188.3490  175.0770  141.9550 C   0  0  0  0  0  0  0  0  0  0  0  0
  191.4600  175.6030  145.7720 C   0  0  2  0  0  3  0  0  0  0  0  0
  189.9920  173.5980  138.0540 C   0  0  0  0  0  0  0  0  0  0  0  0
  188.8080  174.3160  140.9220 C   0  0  1  0  0  3  0  0  0  0  0  0
  189.9580  172.8090  142.6110 C   0  0  0  0  0  2  0  0  0  0  0  0
  190.8180  172.9800  138.8910 C   0  0  0  0  0  3  0  0  0  0  0  0
  187.4440  176.8140  144.0030 C   0  0  0  0  0  0  0  0  0  0  0  0
  188.8560  174.9310  143.2860 C   0  0  0  0  0  0  0  0  0  0  0  0
  189.8350  173.2880  141.2070 C   0  0  0  0  0  0  0  0  0  0  0  0
  187.5440  177.5860  146.2660 N   0  0  0  0  0  0  0  0  0  0  0  0
  186.9200  176.9050  142.7140 C   0  0  0  0  0  3  0  0  0  0  0  0
  187.0020  177.6760  145.0250 C   0  0  0  0  0  0  0  0  0  0  0  0
  193.0320  175.0570  143.9370 C   0  0  0  0  0  1  0  0  0  0  0  0
  190.3890  173.6450  136.6220 C   0  0  0  0  0  1  0  0  0  0  0  0
  188.6840  174.1660  138.3910 C   0  0  0  0  0  3  0  0  0  0  0  0
  187.3750  176.0610  141.7100 C   0  0  0  0  0  3  0  0  0  0  0  0
  188.5170  176.6880  146.5610 C   0  0  0  0  0  3  0  0  0  0  0  0
  188.4370  175.8470  144.2890 C   0  0  0  0  0  0  0  0  0  0  0  0
  191.6610  173.2920  145.0130 C   0  0  0  0  0  2  0  0  0  0  0  0
  1 26  1  0  0  0  0
  2  1  1  6  0  0  0
  3 14  1  1  0  0  0
  3  7  1  0  0  0  0
  5 21  1  0  0  0  0
  6 22  1  6  0  0  0
  6 11  1  0  0  0  0
  7 28  1  6  0  0  0
  7  2  1  0  0  0  0
  9 18  2  0  0  0  0
 10 17  2  0  0  0  0
 11  2  1  0  0  0  0
 11  8  1  1  0  0  0
 12 24  1  0  0  0  0
 12 15  2  0  0  0  0
 13  4  1  1  0  0  0
 13 18  1  0  0  0  0
 13 10  1  0  0  0  0
 15  9  1  0  0  0  0
 16 27  1  0  0  0  0
 16 21  2  0  0  0  0
 17  3  1  0  0  0  0
 17 27  1  0  0  0  0
 18 14  1  0  0  0  0
 19 26  2  0  0  0  0
 20 16  1  0  0  0  0
 21 19  1  0  0  0  0
 23 12  1  0  0  0  0
 24  4  2  0  0  0  0
 25 10  1  0  0  0  0
 25 20  2  0  0  0  0
 27  1  2  0  0  0  0
 28  6  1  0  0  0  0
M  END
>  <MODEL>
6

>  <REMARK>
 VINA RESULT:      -8.1      3.111      6.148
  Name = 
  0 active torsions:
  status: ('A' for Active; 'I' for Inactive)
                            x       y       z     vdW  Elec       q    Type
                         _______ _______ _______ _____ _____    ______ ____

>  <TORSDO>
F 0

$$$$
=
 OpenBabel11052418063D

 28 33  0  0  1  0  0  0  0  0999 V2000
  190.2580  173.7590  141.1760 C   0  0  0  0  0  0  0  0  0  0  0  0
  191.1240  173.3070  142.3080 C   0  0  1  0  0  3  0  0  0  0  0  0
  190.0960  175.2690  143.5710 C   0  0  1  0  0  3  0  0  0  0  0  0
  186.7710  177.9910  144.0610 C   0  0  0  0  0  3  0  0  0  0  0  0
  187.6830  174.6750  137.8890 C   0  0  0  0  0  1  0  0  0  0  0  0
  190.8640  172.2270  144.4770 C   0  0  2  0  0  3  0  0  0  0  0  0
  191.3020  174.3680  143.3860 C   0  0  1  0  0  3  0  0  0  0  0  0
  191.1840  170.8240  142.4540 C   0  0  0  0  0  1  0  0  0  0  0  0
  188.5050  176.8540  146.3910 C   0  0  0  0  0  3  0  0  0  0  0  0
  188.0950  176.3830  142.7700 C   0  0  0  0  0  0  0  0  0  0  0  0
  190.5420  172.0850  143.0010 C   0  0  2  0  0  3  0  0  0  0  0  0
  186.2540  177.9930  146.5290 C   0  0  0  0  0  0  0  0  0  0  0  0
  187.8590  176.9920  143.9670 C   0  0  0  0  0  0  0  0  0  0  0  0
  190.1270  176.1770  144.7680 C   0  0  0  0  0  2  0  0  0  0  0  0
  187.2910  177.3450  147.0490 C   0  0  0  0  0  3  0  0  0  0  0  0
  188.4060  175.0520  140.2880 C   0  0  0  0  0  0  0  0  0  0  0  0
  189.1700  175.4550  142.5920 C   0  0  0  0  0  0  0  0  0  0  0  0
  188.7720  176.7010  145.0960 C   0  0  0  0  0  0  0  0  0  0  0  0
  189.5370  173.4460  138.9200 N   0  0  0  0  0  0  0  0  0  0  0  0
  187.3990  176.0010  140.4620 C   0  0  0  0  0  3  0  0  0  0  0  0
  188.5650  174.3840  139.0590 C   0  0  0  0  0  0  0  0  0  0  0  0
  189.5770  172.2160  145.2780 C   0  0  0  0  0  1  0  0  0  0  0  0
  185.1760  178.4070  147.4640 C   0  0  0  0  0  1  0  0  0  0  0  0
  186.1090  178.4130  145.1320 C   0  0  0  0  0  2  0  0  0  0  0  0
  187.2410  176.6410  141.6830 C   0  0  0  0  0  3  0  0  0  0  0  0
  190.3690  173.1190  139.9410 C   0  0  0  0  0  3  0  0  0  0  0  0
  189.2790  174.7520  141.3610 C   0  0  0  0  0  0  0  0  0  0  0  0
  191.5620  173.5650  144.6510 C   0  0  0  0  0  2  0  0  0  0  0  0
  1 27  1  0  0  0  0
  2  1  1  6  0  0  0
  2 11  1  0  0  0  0
  2  7  1  0  0  0  0
  3 14  1  6  0  0  0
  4 24  1  0  0  0  0
  5 21  1  0  0  0  0
  6 28  1  0  0  0  0
  6 22  1  1  0  0  0
  7  3  1  0  0  0  0
  7 28  1  1  0  0  0
  9 15  1  0  0  0  0
 10 13  1  0  0  0  0
 11  8  1  6  0  0  0
 11  6  1  0  0  0  0
 12 15  2  0  0  0  0
 12 23  1  0  0  0  0
 13  4  2  0  0  0  0
 13 18  1  0  0  0  0
 14 18  1  0  0  0  0
 16 20  2  0  0  0  0
 16 27  1  0  0  0  0
 17 10  1  0  0  0  0
 17  3  1  0  0  0  0
 18  9  2  0  0  0  0
 19 21  2  0  0  0  0
 19 26  1  0  0  0  0
 20 25  1  0  0  0  0
 21 16  1  0  0  0  0
 24 12  1  0  0  0  0
 25 10  2  0  0  0  0
 26  1  2  0  0  0  0
 27 17  2  0  0  0  0
M  END
>  <MODEL>
7

>  <REMARK>
 VINA RESULT:      -8.0      2.982      6.029
  Name = 
  0 active torsions:
  status: ('A' for Active; 'I' for Inactive)
                            x       y       z     vdW  Elec       q    Type
                         _______ _______ _______ _____ _____    ______ ____

>  <TORSDO>
F 0

$$$$
=
 OpenBabel11052418063D

 28 33  0  0  1  0  0  0  0  0999 V2000
  188.4130  175.3990  142.9680 C   0  0  0  0  0  0  0  0  0  0  0  0
  188.7620  174.4910  141.8310 C   0  0  1  0  0  3  0  0  0  0  0  0
  191.1730  174.8870  142.5610 C   0  0  1  0  0  3  0  0  0  0  0  0
  193.9370  175.9000  145.7280 C   0  0  0  0  0  3  0  0  0  0  0  0
  187.1390  177.7310  146.3150 C   0  0  0  0  0  1  0  0  0  0  0  0
  189.6010  172.2270  141.5040 C   0  0  2  0  0  3  0  0  0  0  0  0
  190.2240  174.5870  141.4160 C   0  0  1  0  0  3  0  0  0  0  0  0
  187.1520  172.6020  141.6670 C   0  0  0  0  0  1  0  0  0  0  0  0
  194.5210  173.8740  143.4300 C   0  0  0  0  0  3  0  0  0  0  0  0
  191.7010  175.8380  144.7300 C   0  0  0  0  0  0  0  0  0  0  0  0
  188.5100  173.0340  142.1850 C   0  0  2  0  0  3  0  0  0  0  0  0
  195.7730  174.1760  145.6040 C   0  0  0  0  0  0  0  0  0  0  0  0
  193.0050  175.4460  144.6720 C   0  0  0  0  0  0  0  0  0  0  0  0
  192.6390  174.7650  142.2540 C   0  0  0  0  0  2  0  0  0  0  0  0
  195.5260  173.5630  144.4510 C   0  0  0  0  0  3  0  0  0  0  0  0
  188.9780  176.5650  145.0190 C   0  0  0  0  0  0  0  0  0  0  0  0
  190.7600  175.4890  143.7090 C   0  0  0  0  0  0  0  0  0  0  0  0
  193.4540  174.6680  143.4950 C   0  0  0  0  0  0  0  0  0  0  0  0
  186.7200  176.5170  144.2270 N   0  0  0  0  0  0  0  0  0  0  0  0
  189.9180  176.9450  145.9760 C   0  0  0  0  0  3  0  0  0  0  0  0
  187.6220  176.9200  145.1590 C   0  0  0  0  0  0  0  0  0  0  0  0
  190.3740  171.4420  142.5460 C   0  0  0  0  0  1  0  0  0  0  0  0
  196.8980  173.6520  146.4220 C   0  0  0  0  0  1  0  0  0  0  0  0
  195.0950  175.3730  146.1100 C   0  0  0  0  0  2  0  0  0  0  0  0
  191.2490  176.5760  145.8380 C   0  0  0  0  0  3  0  0  0  0  0  0
  187.0800  175.7680  143.1550 C   0  0  0  0  0  3  0  0  0  0  0  0
  189.3880  175.8090  143.8960 C   0  0  0  0  0  0  0  0  0  0  0  0
  190.5260  173.2200  140.8220 C   0  0  0  0  0  2  0  0  0  0  0  0
  1 26  2  0  0  0  0
  1 27  1  0  0  0  0
  2 11  1  0  0  0  0
  2  1  1  1  0  0  0
  3 14  1  6  0  0  0
  3 17  1  0  0  0  0
  4 24  1  0  0  0  0
  6 11  1  0  0  0  0
  6 22  1  1  0  0  0
  7 28  1  1  0  0  0
  7  2  1  0  0  0  0
  7  3  1  0  0  0  0
  9 18  2  0  0  0  0
  9 15  1  0  0  0  0
 10 25  1  0  0  0  0
 11  8  1  6  0  0  0
 12 24  1  0  0  0  0
 12 23  1  0  0  0  0
 13 10  1  0  0  0  0
 13  4  2  0  0  0  0
 14 18  1  0  0  0  0
 15 12  2  0  0  0  0
 16 21  1  0  0  0  0
 16 20  1  0  0  0  0
 17 27  1  0  0  0  0
 17 10  2  0  0  0  0
 18 13  1  0  0  0  0
 19 21  2  0  0  0  0
 21  5  1  0  0  0  0
 25 20  2  0  0  0  0
 26 19  1  0  0  0  0
 27 16  2  0  0  0  0
 28  6  1  0  0  0  0
M  END
>  <MODEL>
8

>  <REMARK>
 VINA RESULT:      -7.7      2.761      5.440
  Name = 
  0 active torsions:
  status: ('A' for Active; 'I' for Inactive)
                            x       y       z     vdW  Elec       q    Type
                         _______ _______ _______ _____ _____    ______ ____

>  <TORSDO>
F 0

$$$$
=
 OpenBabel11052418063D

 28 33  0  0  1  0  0  0  0  0999 V2000
  188.8470  174.8250  142.0290 C   0  0  0  0  0  0  0  0  0  0  0  0
  188.6220  175.9420  142.9980 C   0  0  1  0  0  3  0  0  0  0  0  0
  190.5450  174.8880  144.3000 C   0  0  1  0  0  3  0  0  0  0  0  0
  194.1270  172.4660  144.2510 C   0  0  0  0  0  3  0  0  0  0  0  0
  189.4650  171.9010  138.9730 C   0  0  0  0  0  1  0  0  0  0  0  0
  189.7360  177.9930  143.6980 C   0  0  2  0  0  3  0  0  0  0  0  0
  189.2590  175.6910  144.3590 C   0  0  1  0  0  3  0  0  0  0  0  0
  188.1230  178.0710  141.8120 C   0  0  0  0  0  1  0  0  0  0  0  0
  193.6620  174.9270  146.1100 C   0  0  0  0  0  3  0  0  0  0  0  0
  192.0210  173.2550  143.2800 C   0  0  0  0  0  0  0  0  0  0  0  0
  189.2050  177.2500  142.4860 C   0  0  2  0  0  3  0  0  0  0  0  0
  195.8380  173.7590  145.5770 C   0  0  0  0  0  0  0  0  0  0  0  0
  192.9660  173.3840  144.2520 C   0  0  0  0  0  0  0  0  0  0  0  0
  191.3330  174.8080  145.5770 C   0  0  0  0  0  2  0  0  0  0  0  0
  195.1130  174.7210  146.1380 C   0  0  0  0  0  3  0  0  0  0  0  0
  190.1920  173.0180  141.1280 C   0  0  0  0  0  0  0  0  0  0  0  0
  190.8420  174.0660  143.2570 C   0  0  0  0  0  0  0  0  0  0  0  0
  192.7350  174.3730  145.3310 C   0  0  0  0  0  0  0  0  0  0  0  0
  188.2060  173.7360  140.0020 N   0  0  0  0  0  0  0  0  0  0  0  0
  191.3170  172.1970  141.1950 C   0  0  0  0  0  3  0  0  0  0  0  0
  189.2810  172.9090  140.0600 C   0  0  0  0  0  0  0  0  0  0  0  0
  191.2150  178.2690  143.5130 C   0  0  0  0  0  1  0  0  0  0  0  0
  197.3040  173.7890  145.8190 C   0  0  0  0  0  1  0  0  0  0  0  0
  195.3220  172.6210  144.8120 C   0  0  0  0  0  2  0  0  0  0  0  0
  192.2180  172.3240  142.2440 C   0  0  0  0  0  3  0  0  0  0  0  0
  187.9780  174.6840  140.9460 C   0  0  0  0  0  3  0  0  0  0  0  0
  189.9640  173.9780  142.1430 C   0  0  0  0  0  0  0  0  0  0  0  0
  189.5310  177.0860  144.8990 C   0  0  0  0  0  2  0  0  0  0  0  0
  1 27  1  0  0  0  0
  2  1  1  6  0  0  0
  2  7  1  0  0  0  0
  3  7  1  0  0  0  0
  3 14  1  1  0  0  0
  4 13  2  0  0  0  0
  4 24  1  0  0  0  0
  5 21  1  0  0  0  0
  6 22  1  6  0  0  0
  6 28  1  0  0  0  0
  7 28  1  6  0  0  0
  9 15  1  0  0  0  0
 10 13  1  0  0  0  0
 11  8  1  1  0  0  0
 11  2  1  0  0  0  0
 11  6  1  0  0  0  0
 12 23  1  0  0  0  0
 12 15  2  0  0  0  0
 13 18  1  0  0  0  0
 16 20  2  0  0  0  0
 16 27  1  0  0  0  0
 17 10  1  0  0  0  0
 17  3  1  0  0  0  0
 18 14  1  0  0  0  0
 18  9  2  0  0  0  0
 19 21  2  0  0  0  0
 19 26  1  0  0  0  0
 20 25  1  0  0  0  0
 21 16  1  0  0  0  0
 24 12  1  0  0  0  0
 25 10  2  0  0  0  0
 26  1  2  0  0  0  0
 27 17  2  0  0  0  0
M  END
>  <MODEL>
9

>  <REMARK>
 VINA RESULT:      -7.5      3.209      4.746
  Name = 
  0 active torsions:
  status: ('A' for Active; 'I' for Inactive)
                            x       y       z     vdW  Elec       q    Type
                         _______ _______ _______ _____ _____    ______ ____

>  <TORSDO>
F 0

$$$$
