=
 OpenBabel11052419103D

 32 38  0  0  1  0  0  0  0  0999 V2000
  189.0470  175.4090  144.3750 C   0  0  1  0  0  3  0  0  0  0  0  0
  186.9390  176.7120  144.2010 C   0  0  1  0  0  3  0  0  0  0  0  0
  190.3750  175.3610  145.1280 C   0  0  0  0  0  2  0  0  0  0  0  0
  188.1750  176.4820  145.0250 C   0  0  1  0  0  3  0  0  0  0  0  0
  186.1070  177.8170  144.8330 C   0  0  1  0  0  3  0  0  0  0  0  0
  185.1650  177.8220  139.7890 C   0  0  0  0  0  3  0  0  0  0  0  0
  187.3900  177.2230  142.8340 C   0  0  1  0  0  3  0  0  0  0  0  0
  183.9000  178.3190  141.7950 C   0  0  0  0  0  3  0  0  0  0  0  0
  185.0060  177.9830  142.5800 C   0  0  0  0  0  0  0  0  0  0  0  0
  186.8000  178.2360  147.1440 C   0  0  2  0  0  3  0  0  0  0  0  0
  187.8180  175.9890  146.4220 C   0  0  2  0  0  3  0  0  0  0  0  0
  184.9220  178.0570  144.0120 N   0  0  0  0  0  2  0  0  0  0  0  0
  186.6830  176.7280  147.1620 C   0  0  2  0  0  3  0  0  0  0  0  0
  189.0960  175.9030  147.2600 C   0  0  0  0  0  2  0  0  0  0  0  0
  188.3440  176.3060  142.2030 N   0  0  0  0  0  0  0  0  0  0  0  0
  186.1640  178.7970  148.3980 C   0  0  0  0  0  1  0  0  0  0  0  0
  189.1870  175.5610  142.8670 C   0  0  0  0  0  0  0  0  0  0  0  0
  186.1960  177.5320  141.9650 C   0  0  0  0  0  0  0  0  0  0  0  0
  185.7250  177.5670  146.2940 C   0  0  2  0  0  3  0  0  0  0  0  0
  190.1160  174.9700  146.5890 C   0  0  0  0  0  2  0  0  0  0  0  0
  183.9800  178.2380  140.4020 C   0  0  0  0  0  3  0  0  0  0  0  0
  186.2730  177.4750  140.5670 C   0  0  0  0  0  3  0  0  0  0  0  0
  190.5830  172.5630  140.9510 C   0  0  0  0  0  0  0  0  0  0  0  0
  190.1970  171.3130  140.4810 O   0  0  0  0  0  1  0  0  0  0  0  0
  190.0890  174.6550  142.1110 C   0  0  0  0  0  0  0  0  0  0  0  0
  191.8900  173.0010  140.7230 C   0  0  0  0  0  3  0  0  0  0  0  0
  191.4070  175.0700  141.8650 C   0  0  0  0  0  3  0  0  0  0  0  0
  189.6740  173.3830  141.6420 C   0  0  0  0  0  0  0  0  0  0  0  0
  188.2700  172.9010  141.8260 C   0  0  0  0  0  1  0  0  0  0  0  0
  192.3060  174.2550  141.1760 C   0  0  0  0  0  0  0  0  0  0  0  0
  194.0790  175.8670  141.4230 N   0  0  0  0  0  2  0  0  0  0  0  0
  193.6720  174.7370  140.9460 C   0  0  0  0  0  3  0  0  0  0  0  0
  1  4  1  0  0  0  0
  1  3  1  1  0  0  0
  2  5  1  0  0  0  0
  2  4  1  0  0  0  0
  3 20  1  0  0  0  0
  4 11  1  0  0  0  0
  5 19  1  0  0  0  0
  6 21  2  0  0  0  0
  6 22  1  0  0  0  0
  7  2  1  0  0  0  0
  8  9  2  0  0  0  0
  9 12  1  0  0  0  0
 10 13  1  0  0  0  0
 10 16  1  0  0  0  0
 11 13  1  0  0  0  0
 11 14  1  0  0  0  0
 12  5  1  0  0  0  0
 15  7  1  0  0  0  0
 15 17  2  0  0  0  0
 17  1  1  0  0  0  0
 18  9  1  0  0  0  0
 18  7  1  0  0  0  0
 19 10  1  0  0  0  0
 19 13  1  0  0  0  0
 20 14  1  0  0  0  0
 21  8  1  0  0  0  0
 22 18  2  0  0  0  0
 23 28  1  0  0  0  0
 24 23  1  0  0  0  0
 25 17  1  0  0  0  0
 26 23  2  0  0  0  0
 26 30  1  0  0  0  0
 27 25  1  0  0  0  0
 28 29  1  0  0  0  0
 28 25  2  0  0  0  0
 30 27  2  0  0  0  0
 32 30  1  0  0  0  0
 32 31  2  0  0  0  0
M  END
>  <MODEL>
1

>  <REMARK>
 VINA RESULT:      -8.8      0.000      0.000
  Name = 
  2 active torsions:
  status: ('A' for Active; 'I' for Inactive)
    1  A    between atoms: C_15  and  C_26
    2  A    between atoms: C_16  and  C_27
                            x       y       z     vdW  Elec       q    Type
                         _______ _______ _______ _____ _____    ______ ____

>  <TORSDO>
F 2

$$$$
=
 OpenBabel11052419103D

 32 38  0  0  1  0  0  0  0  0999 V2000
  191.7080  174.8460  145.6690 C   0  0  1  0  0  3  0  0  0  0  0  0
  189.9820  174.9820  143.8870 C   0  0  1  0  0  3  0  0  0  0  0  0
  192.3720  175.6710  146.7700 C   0  0  0  0  0  2  0  0  0  0  0  0
  190.5440  175.6590  145.1060 C   0  0  1  0  0  3  0  0  0  0  0  0
  188.8580  175.8290  143.3090 C   0  0  1  0  0  3  0  0  0  0  0  0
  190.9540  173.1550  139.4650 C   0  0  0  0  0  3  0  0  0  0  0  0
  191.0910  174.9410  142.8370 C   0  0  1  0  0  3  0  0  0  0  0  0
  188.7400  173.9760  140.0080 C   0  0  0  0  0  3  0  0  0  0  0  0
  189.2250  174.4990  141.2090 C   0  0  0  0  0  0  0  0  0  0  0  0
  188.0810  177.4930  144.9300 C   0  0  2  0  0  3  0  0  0  0  0  0
  189.4940  175.7660  146.2060 C   0  0  2  0  0  3  0  0  0  0  0  0
  188.3360  175.1810  142.1080 N   0  0  0  0  0  2  0  0  0  0  0  0
  188.0880  176.2520  145.7940 C   0  0  2  0  0  3  0  0  0  0  0  0
  190.0700  176.5800  147.3660 C   0  0  0  0  0  2  0  0  0  0  0  0
  192.3000  174.2930  143.3530 N   0  0  0  0  0  0  0  0  0  0  0  0
  186.8050  178.2660  145.1840 C   0  0  0  0  0  1  0  0  0  0  0  0
  192.6680  174.3310  144.6060 C   0  0  0  0  0  0  0  0  0  0  0  0
  190.5830  174.3230  141.5570 C   0  0  0  0  0  0  0  0  0  0  0  0
  187.7340  176.1490  144.2980 C   0  0  2  0  0  3  0  0  0  0  0  0
  191.3580  175.9270  147.8930 C   0  0  0  0  0  2  0  0  0  0  0  0
  189.6040  173.3040  139.1370 C   0  0  0  0  0  3  0  0  0  0  0  0
  191.4460  173.6670  140.6680 C   0  0  0  0  0  3  0  0  0  0  0  0
  196.3120  173.5010  145.4110 C   0  0  0  0  0  0  0  0  0  0  0  0
  197.5670  174.0970  145.4490 O   0  0  0  0  0  1  0  0  0  0  0  0
  193.9050  173.6140  145.0100 C   0  0  0  0  0  0  0  0  0  0  0  0
  196.1890  172.1530  145.7540 C   0  0  0  0  0  3  0  0  0  0  0  0
  193.8110  172.2580  145.3620 C   0  0  0  0  0  3  0  0  0  0  0  0
  195.1760  174.2410  145.0390 C   0  0  0  0  0  0  0  0  0  0  0  0
  195.3380  175.6950  144.7260 C   0  0  0  0  0  1  0  0  0  0  0  0
  194.9400  171.5270  145.7330 C   0  0  0  0  0  0  0  0  0  0  0  0
  195.7440  169.4520  146.6560 N   0  0  0  0  0  2  0  0  0  0  0  0
  194.7870  170.1130  146.0910 C   0  0  0  0  0  3  0  0  0  0  0  0
  1  3  1  1  0  0  0
  2  4  1  0  0  0  0
  3 20  1  0  0  0  0
  4  1  1  0  0  0  0
  4 11  1  0  0  0  0
  5  2  1  0  0  0  0
  5 19  1  0  0  0  0
  6 22  1  0  0  0  0
  7 15  1  0  0  0  0
  7  2  1  0  0  0  0
  8  9  2  0  0  0  0
  9 18  1  0  0  0  0
  9 12  1  0  0  0  0
 10 16  1  0  0  0  0
 10 13  1  0  0  0  0
 11 14  1  0  0  0  0
 12  5  1  0  0  0  0
 13 11  1  0  0  0  0
 14 20  1  0  0  0  0
 15 17  2  0  0  0  0
 17 25  1  0  0  0  0
 17  1  1  0  0  0  0
 18  7  1  0  0  0  0
 19 10  1  0  0  0  0
 19 13  1  0  0  0  0
 21  6  2  0  0  0  0
 21  8  1  0  0  0  0
 22 18  2  0  0  0  0
 23 24  1  0  0  0  0
 23 26  1  0  0  0  0
 25 28  1  0  0  0  0
 25 27  2  0  0  0  0
 27 30  1  0  0  0  0
 28 23  2  0  0  0  0
 29 28  1  0  0  0  0
 30 26  2  0  0  0  0
 30 32  1  0  0  0  0
 32 31  2  0  0  0  0
M  END
>  <MODEL>
2

>  <REMARK>
 VINA RESULT:      -8.5      3.663      5.389
  Name = 
  2 active torsions:
  status: ('A' for Active; 'I' for Inactive)
    1  A    between atoms: C_15  and  C_26
    2  A    between atoms: C_16  and  C_27
                            x       y       z     vdW  Elec       q    Type
                         _______ _______ _______ _____ _____    ______ ____

>  <TORSDO>
F 2

$$$$
=
 OpenBabel11052419103D

 32 38  0  0  1  0  0  0  0  0999 V2000
  189.2470  175.5320  144.6540 C   0  0  1  0  0  3  0  0  0  0  0  0
  187.1170  176.7600  144.3000 C   0  0  1  0  0  3  0  0  0  0  0  0
  190.5020  175.5210  145.5250 C   0  0  0  0  0  2  0  0  0  0  0  0
  188.2800  176.5640  145.2320 C   0  0  1  0  0  3  0  0  0  0  0  0
  186.1900  177.8270  144.8640 C   0  0  1  0  0  3  0  0  0  0  0  0
  185.7130  177.8610  139.7550 C   0  0  0  0  0  3  0  0  0  0  0  0
  187.6720  177.3040  142.9860 C   0  0  1  0  0  3  0  0  0  0  0  0
  184.2530  178.2880  141.6420 C   0  0  0  0  0  3  0  0  0  0  0  0
  185.2940  177.9810  142.5210 C   0  0  0  0  0  0  0  0  0  0  0  0
  186.6550  178.2400  147.2330 C   0  0  2  0  0  3  0  0  0  0  0  0
  187.8160  176.0410  146.5860 C   0  0  2  0  0  3  0  0  0  0  0  0
  185.0780  178.0340  143.9400 N   0  0  0  0  0  2  0  0  0  0  0  0
  186.5920  176.7300  147.2260 C   0  0  2  0  0  3  0  0  0  0  0  0
  189.0140  175.9900  147.5360 C   0  0  0  0  0  2  0  0  0  0  0  0
  188.7130  176.4300  142.4350 N   0  0  0  0  0  0  0  0  0  0  0  0
  185.8860  178.7630  148.4280 C   0  0  0  0  0  1  0  0  0  0  0  0
  189.5180  175.7070  143.1670 C   0  0  0  0  0  0  0  0  0  0  0  0
  186.5510  177.5810  142.0130 C   0  0  0  0  0  0  0  0  0  0  0  0
  185.6870  177.5440  146.2820 C   0  0  2  0  0  3  0  0  0  0  0  0
  190.1250  175.1030  146.9530 C   0  0  0  0  0  2  0  0  0  0  0  0
  184.4620  178.2270  140.2610 C   0  0  0  0  0  3  0  0  0  0  0  0
  186.7580  177.5450  140.6280 C   0  0  0  0  0  3  0  0  0  0  0  0
  192.7480  174.3980  141.5990 C   0  0  0  0  0  0  0  0  0  0  0  0
  194.0650  174.7820  141.3720 O   0  0  0  0  0  1  0  0  0  0  0  0
  190.5180  174.8440  142.4890 C   0  0  0  0  0  0  0  0  0  0  0  0
  192.3210  173.1430  141.1600 C   0  0  0  0  0  3  0  0  0  0  0  0
  190.1160  173.5750  142.0400 C   0  0  0  0  0  3  0  0  0  0  0  0
  191.8560  175.2550  142.2660 C   0  0  0  0  0  0  0  0  0  0  0  0
  192.3620  176.5720  142.7640 C   0  0  0  0  0  1  0  0  0  0  0  0
  191.0050  172.7260  141.3800 C   0  0  0  0  0  0  0  0  0  0  0  0
  190.4410  170.4130  141.7460 N   0  0  0  0  0  2  0  0  0  0  0  0
  190.5350  171.4120  140.9310 C   0  0  0  0  0  3  0  0  0  0  0  0
  1  4  1  0  0  0  0
  1  3  1  1  0  0  0
  2  5  1  0  0  0  0
  2  4  1  0  0  0  0
  3 20  1  0  0  0  0
  4 11  1  0  0  0  0
  5 19  1  0  0  0  0
  6 21  2  0  0  0  0
  6 22  1  0  0  0  0
  7  2  1  0  0  0  0
  8  9  2  0  0  0  0
  9 12  1  0  0  0  0
 10 16  1  0  0  0  0
 11 13  1  0  0  0  0
 11 14  1  0  0  0  0
 12  5  1  0  0  0  0
 13 10  1  0  0  0  0
 15  7  1  0  0  0  0
 15 17  2  0  0  0  0
 17  1  1  0  0  0  0
 18  9  1  0  0  0  0
 18  7  1  0  0  0  0
 19 13  1  0  0  0  0
 19 10  1  0  0  0  0
 20 14  1  0  0  0  0
 21  8  1  0  0  0  0
 22 18  2  0  0  0  0
 23 28  1  0  0  0  0
 24 23  1  0  0  0  0
 25 17  1  0  0  0  0
 26 30  1  0  0  0  0
 26 23  2  0  0  0  0
 27 25  1  0  0  0  0
 28 25  2  0  0  0  0
 28 29  1  0  0  0  0
 30 27  2  0  0  0  0
 32 30  1  0  0  0  0
 32 31  2  0  0  0  0
M  END
>  <MODEL>
3

>  <REMARK>
 VINA RESULT:      -8.4      1.554      2.175
  Name = 
  2 active torsions:
  status: ('A' for Active; 'I' for Inactive)
    1  A    between atoms: C_15  and  C_26
    2  A    between atoms: C_16  and  C_27
                            x       y       z     vdW  Elec       q    Type
                         _______ _______ _______ _____ _____    ______ ____

>  <TORSDO>
F 2

$$$$
=
 OpenBabel11052419103D

 32 38  0  0  1  0  0  0  0  0999 V2000
  188.9810  174.5300  143.2230 C   0  0  1  0  0  3  0  0  0  0  0  0
  191.3680  173.8650  143.4110 C   0  0  1  0  0  3  0  0  0  0  0  0
  187.8650  174.7390  142.2010 C   0  0  0  0  0  2  0  0  0  0  0  0
  190.1730  173.9050  142.4990 C   0  0  1  0  0  3  0  0  0  0  0  0
  192.5590  173.2880  142.6610 C   0  0  1  0  0  3  0  0  0  0  0  0
  194.3550  176.4470  146.2840 C   0  0  0  0  0  3  0  0  0  0  0  0
  191.7220  175.3080  143.7630 C   0  0  1  0  0  3  0  0  0  0  0  0
  195.1100  174.3990  145.2310 C   0  0  0  0  0  3  0  0  0  0  0  0
  193.9410  174.3560  144.4690 C   0  0  0  0  0  0  0  0  0  0  0  0
  191.8460  172.1370  140.6200 C   0  0  2  0  0  3  0  0  0  0  0  0
  189.7590  172.5010  142.0760 C   0  0  2  0  0  3  0  0  0  0  0  0
  193.7240  173.2790  143.5430 N   0  0  0  0  0  2  0  0  0  0  0  0
  190.8810  171.5430  141.6210 C   0  0  2  0  0  3  0  0  0  0  0  0
  188.6330  172.6050  141.0450 C   0  0  0  0  0  2  0  0  0  0  0  0
  190.5780  176.0210  144.3400 N   0  0  0  0  0  0  0  0  0  0  0  0
  192.3860  171.0330  139.7360 C   0  0  0  0  0  1  0  0  0  0  0  0
  189.3340  175.7730  144.0280 C   0  0  0  0  0  0  0  0  0  0  0  0
  192.9530  175.3530  144.6360 C   0  0  0  0  0  0  0  0  0  0  0  0
  192.3150  171.9050  142.0520 C   0  0  2  0  0  3  0  0  0  0  0  0
  187.4410  173.3790  141.6290 C   0  0  0  0  0  2  0  0  0  0  0  0
  195.3160  175.4430  146.1380 C   0  0  0  0  0  3  0  0  0  0  0  0
  193.1780  176.4070  145.5310 C   0  0  0  0  0  3  0  0  0  0  0  0
  186.8310  177.0640  146.6120 C   0  0  0  0  0  0  0  0  0  0  0  0
  186.4330  176.8450  147.9260 O   0  0  0  0  0  1  0  0  0  0  0  0
  188.2600  176.5490  144.7000 C   0  0  0  0  0  0  0  0  0  0  0  0
  186.1880  178.0530  145.8630 C   0  0  0  0  0  3  0  0  0  0  0  0
  187.5990  177.5510  143.9710 C   0  0  0  0  0  3  0  0  0  0  0  0
  187.8690  176.3080  146.0410 C   0  0  0  0  0  0  0  0  0  0  0  0
  188.5660  175.2910  146.8880 C   0  0  0  0  0  1  0  0  0  0  0  0
  186.5710  178.3020  144.5430 C   0  0  0  0  0  0  0  0  0  0  0  0
  185.0710  180.1660  144.2630 N   0  0  0  0  0  2  0  0  0  0  0  0
  185.9120  179.3370  143.7380 C   0  0  0  0  0  3  0  0  0  0  0  0
  1  3  1  6  0  0  0
  1 17  1  0  0  0  0
  2  7  1  0  0  0  0
  4  1  1  0  0  0  0
  4  2  1  0  0  0  0
  5  2  1  0  0  0  0
  5 12  1  0  0  0  0
  7 15  1  0  0  0  0
  7 18  1  0  0  0  0
  8 21  2  0  0  0  0
  9 18  2  0  0  0  0
  9  8  1  0  0  0  0
 10 13  1  0  0  0  0
 10 19  1  0  0  0  0
 11  4  1  0  0  0  0
 12  9  1  0  0  0  0
 13 19  1  0  0  0  0
 13 11  1  0  0  0  0
 14 20  1  0  0  0  0
 14 11  1  0  0  0  0
 16 10  1  0  0  0  0
 17 15  2  0  0  0  0
 17 25  1  0  0  0  0
 18 22  1  0  0  0  0
 19  5  1  0  0  0  0
 20  3  1  0  0  0  0
 21  6  1  0  0  0  0
 22  6  2  0  0  0  0
 23 24  1  0  0  0  0
 25 28  2  0  0  0  0
 26 23  2  0  0  0  0
 27 30  2  0  0  0  0
 27 25  1  0  0  0  0
 28 23  1  0  0  0  0
 28 29  1  0  0  0  0
 30 26  1  0  0  0  0
 32 31  2  0  0  0  0
 32 30  1  0  0  0  0
M  END
>  <MODEL>
4

>  <REMARK>
 VINA RESULT:      -8.2      2.825      8.138
  Name = 
  2 active torsions:
  status: ('A' for Active; 'I' for Inactive)
    1  A    between atoms: C_15  and  C_26
    2  A    between atoms: C_16  and  C_27
                            x       y       z     vdW  Elec       q    Type
                         _______ _______ _______ _____ _____    ______ ____

>  <TORSDO>
F 2

$$$$
=
 OpenBabel11052419103D

 32 38  0  0  1  0  0  0  0  0999 V2000
  190.3240  175.7580  145.0190 C   0  0  1  0  0  3  0  0  0  0  0  0
  191.2610  174.1410  143.3830 C   0  0  1  0  0  3  0  0  0  0  0  0
  190.2140  176.0300  146.5180 C   0  0  0  0  0  2  0  0  0  0  0  0
  191.2740  174.5790  144.8210 C   0  0  1  0  0  3  0  0  0  0  0  0
  192.1720  172.9350  143.2120 C   0  0  1  0  0  3  0  0  0  0  0  0
  188.5110  172.6660  139.6270 C   0  0  0  0  0  3  0  0  0  0  0  0
  189.8430  173.6740  143.0610 C   0  0  1  0  0  3  0  0  0  0  0  0
  190.8430  172.0250  139.7840 C   0  0  0  0  0  3  0  0  0  0  0  0
  190.9030  172.5480  141.0780 C   0  0  0  0  0  0  0  0  0  0  0  0
  193.6760  172.6840  145.1290 C   0  0  2  0  0  3  0  0  0  0  0  0
  192.6640  175.0440  145.2390 C   0  0  2  0  0  3  0  0  0  0  0  0
  192.1320  172.4950  141.8200 N   0  0  0  0  0  2  0  0  0  0  0  0
  193.8580  174.1540  144.8300 C   0  0  2  0  0  3  0  0  0  0  0  0
  192.6560  175.3460  146.7390 C   0  0  0  0  0  2  0  0  0  0  0  0
  188.8510  174.7120  143.3590 N   0  0  0  0  0  0  0  0  0  0  0  0
  195.0310  172.0600  145.3880 C   0  0  0  0  0  1  0  0  0  0  0  0
  188.9850  175.5950  144.3130 C   0  0  0  0  0  0  0  0  0  0  0  0
  189.7630  173.1630  141.6440 C   0  0  0  0  0  0  0  0  0  0  0  0
  193.6130  173.1570  143.6810 C   0  0  2  0  0  3  0  0  0  0  0  0
  191.5970  176.4100  147.0670 C   0  0  0  0  0  2  0  0  0  0  0  0
  189.6490  172.0850  139.0590 C   0  0  0  0  0  3  0  0  0  0  0  0
  188.5650  173.1980  140.9180 C   0  0  0  0  0  3  0  0  0  0  0  0
  186.5630  178.4950  143.7380 C   0  0  0  0  0  0  0  0  0  0  0  0
  186.2010  179.4160  142.7620 O   0  0  0  0  0  1  0  0  0  0  0  0
  187.9190  176.6120  144.5000 C   0  0  0  0  0  0  0  0  0  0  0  0
  185.9110  178.5220  144.9730 C   0  0  0  0  0  3  0  0  0  0  0  0
  187.2450  176.6600  145.7310 C   0  0  0  0  0  3  0  0  0  0  0  0
  187.5670  177.5430  143.4910 C   0  0  0  0  0  0  0  0  0  0  0  0
  188.2110  177.5130  142.1400 C   0  0  0  0  0  1  0  0  0  0  0  0
  186.2470  177.6050  145.9720 C   0  0  0  0  0  0  0  0  0  0  0  0
  184.8160  178.5960  147.6380 N   0  0  0  0  0  2  0  0  0  0  0  0
  185.5730  177.6130  147.2750 C   0  0  0  0  0  3  0  0  0  0  0  0
  1  3  1  1  0  0  0
  2  4  1  0  0  0  0
  3 20  1  0  0  0  0
  4  1  1  0  0  0  0
  4 11  1  0  0  0  0
  5  2  1  0  0  0  0
  5 19  1  0  0  0  0
  6 22  1  0  0  0  0
  7 15  1  0  0  0  0
  7  2  1  0  0  0  0
  8  9  2  0  0  0  0
  9 18  1  0  0  0  0
  9 12  1  0  0  0  0
 10 16  1  0  0  0  0
 11 14  1  0  0  0  0
 12  5  1  0  0  0  0
 13 10  1  0  0  0  0
 13 11  1  0  0  0  0
 14 20  1  0  0  0  0
 15 17  2  0  0  0  0
 17 25  1  0  0  0  0
 17  1  1  0  0  0  0
 18  7  1  0  0  0  0
 19 13  1  0  0  0  0
 19 10  1  0  0  0  0
 21  6  2  0  0  0  0
 21  8  1  0  0  0  0
 22 18  2  0  0  0  0
 23 26  1  0  0  0  0
 24 23  1  0  0  0  0
 25 27  2  0  0  0  0
 26 30  2  0  0  0  0
 27 30  1  0  0  0  0
 28 23  2  0  0  0  0
 28 25  1  0  0  0  0
 29 28  1  0  0  0  0
 30 32  1  0  0  0  0
 32 31  2  0  0  0  0
M  END
>  <MODEL>
5

>  <REMARK>
 VINA RESULT:      -8.1      2.735      7.064
  Name = 
  2 active torsions:
  status: ('A' for Active; 'I' for Inactive)
    1  A    between atoms: C_15  and  C_26
    2  A    between atoms: C_16  and  C_27
                            x       y       z     vdW  Elec       q    Type
                         _______ _______ _______ _____ _____    ______ ____

>  <TORSDO>
F 2

$$$$
=
 OpenBabel11052419103D

 32 38  0  0  1  0  0  0  0  0999 V2000
  188.9000  174.4340  143.1680 C   0  0  1  0  0  3  0  0  0  0  0  0
  191.2470  173.8050  143.6830 C   0  0  1  0  0  3  0  0  0  0  0  0
  187.8890  174.4860  142.0240 C   0  0  0  0  0  2  0  0  0  0  0  0
  190.1450  173.7080  142.6650 C   0  0  1  0  0  3  0  0  0  0  0  0
  192.4950  173.1210  143.1470 C   0  0  1  0  0  3  0  0  0  0  0  0
  193.9850  176.7910  146.4100 C   0  0  0  0  0  3  0  0  0  0  0  0
  191.5870  175.2850  143.8470 C   0  0  1  0  0  3  0  0  0  0  0  0
  194.8070  174.6070  145.7540 C   0  0  0  0  0  3  0  0  0  0  0  0
  193.7150  174.4500  144.8970 C   0  0  0  0  0  0  0  0  0  0  0  0
  191.9640  171.6760  141.2420 C   0  0  2  0  0  3  0  0  0  0  0  0
  189.7530  172.2550  142.4190 C   0  0  2  0  0  3  0  0  0  0  0  0
  193.5710  173.2450  144.1270 N   0  0  0  0  0  2  0  0  0  0  0  0
  190.8990  171.2400  142.2230 C   0  0  2  0  0  3  0  0  0  0  0  0
  188.7320  172.2020  141.2810 C   0  0  0  0  0  2  0  0  0  0  0  0
  190.4040  176.0760  144.1980 N   0  0  0  0  0  0  0  0  0  0  0  0
  192.5690  170.4510  140.5900 C   0  0  0  0  0  1  0  0  0  0  0  0
  189.1920  175.7840  143.8080 C   0  0  0  0  0  0  0  0  0  0  0  0
  192.7300  175.4600  144.8170 C   0  0  0  0  0  0  0  0  0  0  0  0
  192.2900  171.6620  142.7310 C   0  0  2  0  0  3  0  0  0  0  0  0
  187.5010  173.0560  141.6250 C   0  0  0  0  0  2  0  0  0  0  0  0
  194.9410  175.7760  146.5090 C   0  0  0  0  0  3  0  0  0  0  0  0
  192.8850  176.6370  145.5610 C   0  0  0  0  0  3  0  0  0  0  0  0
  186.4900  178.4860  143.9210 C   0  0  0  0  0  0  0  0  0  0  0  0
  185.9530  179.5020  143.1380 O   0  0  0  0  0  1  0  0  0  0  0  0
  188.0710  176.6530  144.2500 C   0  0  0  0  0  0  0  0  0  0  0  0
  185.9710  178.2650  145.1980 C   0  0  0  0  0  3  0  0  0  0  0  0
  187.5270  176.4510  145.5290 C   0  0  0  0  0  3  0  0  0  0  0  0
  187.5390  177.6840  143.4360 C   0  0  0  0  0  0  0  0  0  0  0  0
  188.0370  177.9190  142.0450 C   0  0  0  0  0  1  0  0  0  0  0  0
  186.4850  177.2470  146.0060 C   0  0  0  0  0  0  0  0  0  0  0  0
  185.9410  177.9180  148.2540 N   0  0  0  0  0  2  0  0  0  0  0  0
  185.9540  176.9950  147.3490 C   0  0  0  0  0  3  0  0  0  0  0  0
  1  3  1  6  0  0  0
  1 17  1  0  0  0  0
  2  7  1  0  0  0  0
  4  1  1  0  0  0  0
  4  2  1  0  0  0  0
  5  2  1  0  0  0  0
  5 12  1  0  0  0  0
  6 21  1  0  0  0  0
  7 15  1  0  0  0  0
  7 18  1  0  0  0  0
  8 21  2  0  0  0  0
  9  8  1  0  0  0  0
 10 13  1  0  0  0  0
 10 19  1  0  0  0  0
 11  4  1  0  0  0  0
 12  9  1  0  0  0  0
 13 11  1  0  0  0  0
 13 19  1  0  0  0  0
 14 20  1  0  0  0  0
 14 11  1  0  0  0  0
 16 10  1  0  0  0  0
 17 15  2  0  0  0  0
 17 25  1  0  0  0  0
 18  9  2  0  0  0  0
 18 22  1  0  0  0  0
 19  5  1  0  0  0  0
 20  3  1  0  0  0  0
 22  6  2  0  0  0  0
 23 26  1  0  0  0  0
 24 23  1  0  0  0  0
 25 27  2  0  0  0  0
 26 30  2  0  0  0  0
 27 30  1  0  0  0  0
 28 23  2  0  0  0  0
 28 25  1  0  0  0  0
 29 28  1  0  0  0  0
 30 32  1  0  0  0  0
 32 31  2  0  0  0  0
M  END
>  <MODEL>
6

>  <REMARK>
 VINA RESULT:      -8.0      2.890      8.078
  Name = 
  2 active torsions:
  status: ('A' for Active; 'I' for Inactive)
    1  A    between atoms: C_15  and  C_26
    2  A    between atoms: C_16  and  C_27
                            x       y       z     vdW  Elec       q    Type
                         _______ _______ _______ _____ _____    ______ ____

>  <TORSDO>
F 2

$$$$
=
 OpenBabel11052419103D

 32 38  0  0  1  0  0  0  0  0999 V2000
  191.2940  174.4340  145.3910 C   0  0  1  0  0  3  0  0  0  0  0  0
  189.6570  174.8360  143.5660 C   0  0  1  0  0  3  0  0  0  0  0  0
  192.0010  175.1310  146.5520 C   0  0  0  0  0  2  0  0  0  0  0  0
  190.2420  175.3910  144.8350 C   0  0  1  0  0  3  0  0  0  0  0  0
  188.6490  175.8230  142.9980 C   0  0  1  0  0  3  0  0  0  0  0  0
  190.5900  173.1250  139.0890 C   0  0  0  0  0  3  0  0  0  0  0  0
  190.7910  174.7260  142.5500 C   0  0  1  0  0  3  0  0  0  0  0  0
  188.4550  174.1500  139.6050 C   0  0  0  0  0  3  0  0  0  0  0  0
  188.9490  174.5620  140.8450 C   0  0  0  0  0  0  0  0  0  0  0  0
  187.9920  177.4830  144.6760 C   0  0  2  0  0  3  0  0  0  0  0  0
  189.1700  175.5570  145.9060 C   0  0  2  0  0  3  0  0  0  0  0  0
  188.1060  175.2920  141.7500 N   0  0  0  0  0  2  0  0  0  0  0  0
  187.8380  176.2090  145.4760 C   0  0  2  0  0  3  0  0  0  0  0  0
  189.7870  176.2510  147.1230 C   0  0  0  0  0  2  0  0  0  0  0  0
  191.9070  173.9300  143.0700 N   0  0  0  0  0  0  0  0  0  0  0  0
  186.7960  178.3750  144.9290 C   0  0  0  0  0  1  0  0  0  0  0  0
  192.2320  173.8700  144.3340 C   0  0  0  0  0  0  0  0  0  0  0  0
  190.2690  174.2260  141.2260 C   0  0  0  0  0  0  0  0  0  0  0  0
  187.5290  176.2150  143.9660 C   0  0  2  0  0  3  0  0  0  0  0  0
  190.9790  175.4400  147.6560 C   0  0  0  0  0  2  0  0  0  0  0  0
  189.2750  173.4320  138.7290 C   0  0  0  0  0  3  0  0  0  0  0  0
  191.0890  173.5250  140.3320 C   0  0  0  0  0  3  0  0  0  0  0  0
  194.4210  170.8320  145.1020 C   0  0  0  0  0  0  0  0  0  0  0  0
  194.3860  169.4430  145.0550 O   0  0  0  0  0  1  0  0  0  0  0  0
  193.3720  173.0070  144.7390 C   0  0  0  0  0  0  0  0  0  0  0  0
  195.5750  171.4670  145.5650 C   0  0  0  0  0  3  0  0  0  0  0  0
  194.5460  173.6200  145.2060 C   0  0  0  0  0  3  0  0  0  0  0  0
  193.3140  171.5920  144.6850 C   0  0  0  0  0  0  0  0  0  0  0  0
  192.1130  170.8780  144.1490 C   0  0  0  0  0  1  0  0  0  0  0  0
  195.6430  172.8620  145.6170 C   0  0  0  0  0  0  0  0  0  0  0  0
  197.6780  174.1060  145.2780 N   0  0  0  0  0  2  0  0  0  0  0  0
  196.8450  173.5510  146.0970 C   0  0  0  0  0  3  0  0  0  0  0  0
  1  3  1  1  0  0  0
  2  4  1  0  0  0  0
  3 20  1  0  0  0  0
  4  1  1  0  0  0  0
  4 11  1  0  0  0  0
  5  2  1  0  0  0  0
  5 19  1  0  0  0  0
  6 22  1  0  0  0  0
  7 15  1  0  0  0  0
  7  2  1  0  0  0  0
  8  9  2  0  0  0  0
  9 18  1  0  0  0  0
  9 12  1  0  0  0  0
 10 16  1  0  0  0  0
 10 13  1  0  0  0  0
 11 14  1  0  0  0  0
 12  5  1  0  0  0  0
 13 11  1  0  0  0  0
 14 20  1  0  0  0  0
 15 17  2  0  0  0  0
 17 25  1  0  0  0  0
 17  1  1  0  0  0  0
 18  7  1  0  0  0  0
 19 10  1  0  0  0  0
 19 13  1  0  0  0  0
 21  6  2  0  0  0  0
 21  8  1  0  0  0  0
 22 18  2  0  0  0  0
 23 26  1  0  0  0  0
 24 23  1  0  0  0  0
 25 27  2  0  0  0  0
 26 30  2  0  0  0  0
 27 30  1  0  0  0  0
 28 25  1  0  0  0  0
 28 23  2  0  0  0  0
 29 28  1  0  0  0  0
 30 32  1  0  0  0  0
 31 32  2  0  0  0  0
M  END
>  <MODEL>
7

>  <REMARK>
 VINA RESULT:      -8.0      3.221      4.726
  Name = 
  2 active torsions:
  status: ('A' for Active; 'I' for Inactive)
    1  A    between atoms: C_15  and  C_26
    2  A    between atoms: C_16  and  C_27
                            x       y       z     vdW  Elec       q    Type
                         _______ _______ _______ _____ _____    ______ ____

>  <TORSDO>
F 2

$$$$
=
 OpenBabel11052419103D

 32 38  0  0  1  0  0  0  0  0999 V2000
  187.4610  176.6580  141.4300 C   0  0  1  0  0  3  0  0  0  0  0  0
  185.8060  177.6670  142.9840 C   0  0  1  0  0  3  0  0  0  0  0  0
  187.5640  175.8220  140.1560 C   0  0  0  0  0  2  0  0  0  0  0  0
  185.9910  177.0180  141.6410 C   0  0  1  0  0  3  0  0  0  0  0  0
  184.3320  177.9730  143.2000 C   0  0  1  0  0  3  0  0  0  0  0  0
  186.4870  177.2630  147.8020 C   0  0  0  0  0  3  0  0  0  0  0  0
  186.2070  176.6440  144.0440 C   0  0  1  0  0  3  0  0  0  0  0  0
  184.6930  178.6280  146.9140 C   0  0  0  0  0  3  0  0  0  0  0  0
  184.9410  178.1270  145.6340 C   0  0  0  0  0  0  0  0  0  0  0  0
  183.0890  177.8740  141.0920 C   0  0  2  0  0  3  0  0  0  0  0  0
  185.5920  177.9640  140.5150 C   0  0  2  0  0  3  0  0  0  0  0  0
  184.1540  178.5760  144.5190 N   0  0  0  0  0  2  0  0  0  0  0  0
  184.2630  178.7320  140.6780 C   0  0  2  0  0  3  0  0  0  0  0  0
  185.6670  177.2130  139.1840 C   0  0  0  0  0  2  0  0  0  0  0  0
  187.5680  176.1440  143.8260 N   0  0  0  0  0  0  0  0  0  0  0  0
  181.8150  178.4760  140.5390 C   0  0  0  0  0  1  0  0  0  0  0  0
  188.1200  176.0270  142.6480 C   0  0  0  0  0  0  0  0  0  0  0  0
  185.9940  177.2060  145.4290 C   0  0  0  0  0  0  0  0  0  0  0  0
  183.6970  178.8360  142.1070 C   0  0  2  0  0  3  0  0  0  0  0  0
  187.0820  176.6560  138.9610 C   0  0  0  0  0  2  0  0  0  0  0  0
  185.4660  178.1970  147.9960 C   0  0  0  0  0  3  0  0  0  0  0  0
  186.7480  176.7630  146.5230 C   0  0  0  0  0  3  0  0  0  0  0  0
  191.9380  175.8450  142.6090 C   0  0  0  0  0  0  0  0  0  0  0  0
  193.0540  176.6570  142.7690 O   0  0  0  0  0  1  0  0  0  0  0  0
  189.5160  175.5280  142.5600 C   0  0  0  0  0  0  0  0  0  0  0  0
  192.1190  174.4870  142.3350 C   0  0  0  0  0  3  0  0  0  0  0  0
  189.7280  174.1670  142.2890 C   0  0  0  0  0  3  0  0  0  0  0  0
  190.6410  176.3750  142.7250 C   0  0  0  0  0  0  0  0  0  0  0  0
  190.4860  177.8240  143.0660 C   0  0  0  0  0  1  0  0  0  0  0  0
  191.0160  173.6430  142.1770 C   0  0  0  0  0  0  0  0  0  0  0  0
  190.7240  171.3080  142.6930 N   0  0  0  0  0  2  0  0  0  0  0  0
  191.1820  172.2140  141.8920 C   0  0  0  0  0  3  0  0  0  0  0  0
  1  3  1  6  0  0  0
  1  4  1  0  0  0  0
  1 17  1  0  0  0  0
  2  5  1  0  0  0  0
  2  7  1  0  0  0  0
  4  2  1  0  0  0  0
  5 12  1  0  0  0  0
  6 21  1  0  0  0  0
  7 18  1  0  0  0  0
  8 21  2  0  0  0  0
  9  8  1  0  0  0  0
 10 19  1  0  0  0  0
 11 13  1  0  0  0  0
 11  4  1  0  0  0  0
 12  9  1  0  0  0  0
 13 10  1  0  0  0  0
 13 19  1  0  0  0  0
 14 11  1  0  0  0  0
 15  7  1  0  0  0  0
 16 10  1  0  0  0  0
 17 15  2  0  0  0  0
 18  9  2  0  0  0  0
 18 22  1  0  0  0  0
 19  5  1  0  0  0  0
 20 14  1  0  0  0  0
 20  3  1  0  0  0  0
 22  6  2  0  0  0  0
 23 28  1  0  0  0  0
 23 24  1  0  0  0  0
 25 17  1  0  0  0  0
 25 28  2  0  0  0  0
 26 23  2  0  0  0  0
 27 25  1  0  0  0  0
 28 29  1  0  0  0  0
 30 27  2  0  0  0  0
 30 26  1  0  0  0  0
 32 30  1  0  0  0  0
 32 31  2  0  0  0  0
M  END
>  <MODEL>
8

>  <REMARK>
 VINA RESULT:      -7.8      2.128      5.153
  Name = 
  2 active torsions:
  status: ('A' for Active; 'I' for Inactive)
    1  A    between atoms: C_15  and  C_26
    2  A    between atoms: C_16  and  C_27
                            x       y       z     vdW  Elec       q    Type
                         _______ _______ _______ _____ _____    ______ ____

>  <TORSDO>
F 2

$$$$
=
 OpenBabel11052419103D

 32 38  0  0  1  0  0  0  0  0999 V2000
  191.4190  176.3610  145.2420 C   0  0  1  0  0  3  0  0  0  0  0  0
  192.4820  175.3520  143.2360 C   0  0  1  0  0  3  0  0  0  0  0  0
  191.5210  176.4070  146.7660 C   0  0  0  0  0  2  0  0  0  0  0  0
  192.6340  175.6020  144.7100 C   0  0  1  0  0  3  0  0  0  0  0  0
  193.6740  174.5520  142.7320 C   0  0  1  0  0  3  0  0  0  0  0  0
  189.6620  173.4760  139.7180 C   0  0  0  0  0  3  0  0  0  0  0  0
  191.2470  174.4750  143.0460 C   0  0  1  0  0  3  0  0  0  0  0  0
  192.0620  173.6460  139.4250 C   0  0  0  0  0  3  0  0  0  0  0  0
  192.2030  174.0070  140.7680 C   0  0  0  0  0  0  0  0  0  0  0  0
  195.5200  174.6050  144.3410 C   0  0  2  0  0  3  0  0  0  0  0  0
  193.8620  176.4570  144.9980 C   0  0  2  0  0  3  0  0  0  0  0  0
  193.5060  174.2870  141.3050 N   0  0  0  0  0  2  0  0  0  0  0  0
  195.1720  176.0750  144.2750 C   0  0  2  0  0  3  0  0  0  0  0  0
  194.0490  176.5660  146.5130 C   0  0  0  0  0  2  0  0  0  0  0  0
  190.0570  175.0770  143.6570 N   0  0  0  0  0  0  0  0  0  0  0  0
  197.0250  174.4490  144.2910 C   0  0  0  0  0  1  0  0  0  0  0  0
  190.0900  175.8380  144.7180 C   0  0  0  0  0  0  0  0  0  0  0  0
  191.0600  174.1330  141.5880 C   0  0  0  0  0  0  0  0  0  0  0  0
  195.0340  175.1920  143.0200 C   0  0  2  0  0  3  0  0  0  0  0  0
  192.7940  177.1650  147.1670 C   0  0  0  0  0  2  0  0  0  0  0  0
  190.7930  173.3820  138.9020 C   0  0  0  0  0  3  0  0  0  0  0  0
  189.7950  173.8450  141.0600 C   0  0  0  0  0  3  0  0  0  0  0  0
  186.9870  176.5240  146.8420 C   0  0  0  0  0  0  0  0  0  0  0  0
  186.3700  176.0980  148.0130 O   0  0  0  0  0  1  0  0  0  0  0  0
  188.8160  176.4080  145.2280 C   0  0  0  0  0  0  0  0  0  0  0  0
  186.3840  177.5300  146.0840 C   0  0  0  0  0  3  0  0  0  0  0  0
  188.1900  177.4230  144.4870 C   0  0  0  0  0  3  0  0  0  0  0  0
  188.2040  175.9570  146.4240 C   0  0  0  0  0  0  0  0  0  0  0  0
  188.8440  174.9160  147.2870 C   0  0  0  0  0  1  0  0  0  0  0  0
  186.9840  177.9850  144.9060 C   0  0  0  0  0  0  0  0  0  0  0  0
  186.3170  178.9590  142.8060 N   0  0  0  0  0  2  0  0  0  0  0  0
  186.3710  179.0420  144.0950 C   0  0  0  0  0  3  0  0  0  0  0  0
  1  3  1  1  0  0  0
  2  4  1  0  0  0  0
  3 20  1  0  0  0  0
  4 11  1  0  0  0  0
  4  1  1  0  0  0  0
  5 19  1  0  0  0  0
  5  2  1  0  0  0  0
  6 22  1  0  0  0  0
  7  2  1  0  0  0  0
  7 15  1  0  0  0  0
  8  9  2  0  0  0  0
  9 12  1  0  0  0  0
  9 18  1  0  0  0  0
 11 14  1  0  0  0  0
 12  5  1  0  0  0  0
 13 10  1  0  0  0  0
 13 11  1  0  0  0  0
 14 20  1  0  0  0  0
 15 17  2  0  0  0  0
 16 10  1  0  0  0  0
 17 25  1  0  0  0  0
 17  1  1  0  0  0  0
 18  7  1  0  0  0  0
 19 13  1  0  0  0  0
 19 10  1  0  0  0  0
 21  8  1  0  0  0  0
 21  6  2  0  0  0  0
 22 18  2  0  0  0  0
 23 24  1  0  0  0  0
 25 28  2  0  0  0  0
 26 23  2  0  0  0  0
 27 30  2  0  0  0  0
 27 25  1  0  0  0  0
 28 23  1  0  0  0  0
 28 29  1  0  0  0  0
 30 26  1  0  0  0  0
 31 32  2  0  0  0  0
 32 30  1  0  0  0  0
M  END
>  <MODEL>
9

>  <REMARK>
 VINA RESULT:      -7.8      2.783      7.216
  Name = 
  2 active torsions:
  status: ('A' for Active; 'I' for Inactive)
    1  A    between atoms: C_15  and  C_26
    2  A    between atoms: C_16  and  C_27
                            x       y       z     vdW  Elec       q    Type
                         _______ _______ _______ _____ _____    ______ ____

>  <TORSDO>
F 2

$$$$
