=
 OpenBabel11052417153D

 30 34  0  0  1  0  0  0  0  0999 V2000
  189.9480  177.9140  143.2340 C   0  0  0  0  0  2  0  0  0  0  0  0
  191.3010  177.4880  142.8980 N   0  0  0  0  0  2  0  0  0  0  0  0
  193.1760  176.1660  143.2590 O   0  0  0  0  0  0  0  0  0  0  0  0
  192.0050  176.4700  143.6150 C   0  0  0  0  0  0  0  0  0  0  0  0
  191.3750  175.7730  144.7920 C   0  0  1  0  0  3  0  0  0  0  0  0
  189.6860  172.5620  145.2490 O   0  0  0  0  0  1  0  0  0  0  0  0
  191.0550  174.3220  144.4240 C   0  0  2  0  0  3  0  0  0  0  0  0
  189.8400  174.2660  143.5070 C   0  0  2  0  0  3  0  0  0  0  0  0
  189.7040  173.9370  144.9970 C   0  0  1  0  0  3  0  0  0  0  0  0
  188.8430  172.5860  142.1290 O   0  0  0  0  0  0  0  0  0  0  0  0
  189.9030  173.0670  142.6080 C   0  0  0  0  0  0  0  0  0  0  0  0
  191.1590  172.5070  142.2410 N   0  0  0  0  0  1  0  0  0  0  0  0
  191.3270  176.2440  147.5240 S   0  0  0  0  0  1  0  0  0  0  0  0
  192.2880  175.8540  146.0270 C   0  0  1  0  0  3  0  0  0  0  0  0
  193.0180  174.5440  146.2690 C   0  0  0  0  0  1  0  0  0  0  0  0
  189.1990  178.3420  141.9810 C   0  0  0  0  0  2  0  0  0  0  0  0
  187.9030  177.5630  141.8340 C   0  0  0  0  0  2  0  0  0  0  0  0
  186.7800  178.4900  141.7570 N   0  0  0  0  0  0  0  0  0  0  0  0
  185.6170  178.0800  142.5880 C   0  0  1  0  0  0  0  0  0  0  0  0
  184.3460  178.1820  141.7820 C   0  0  0  0  0  2  0  0  0  0  0  0
  185.6550  177.7560  141.1570 C   0  0  1  0  0  3  0  0  0  0  0  0
  185.7100  176.7450  143.3430 C   0  0  0  0  0  2  0  0  0  0  0  0
  186.1500  178.5720  147.5200 C   0  0  1  0  0  3  0  0  0  0  0  0
  187.5600  176.6430  146.7710 C   0  0  0  0  0  2  0  0  0  0  0  0
  184.7640  178.7540  147.6850 O   0  0  0  0  0  0  0  0  0  0  0  0
  185.9260  176.9510  144.8090 C   0  0  0  0  0  0  0  0  0  0  0  0
  186.5080  177.1090  147.7710 C   0  0  0  0  0  2  0  0  0  0  0  0
  185.2370  178.7930  146.3570 C   0  0  2  0  0  3  0  0  0  0  0  0
  187.0920  176.5320  145.3360 C   0  0  0  0  0  3  0  0  0  0  0  0
  184.8050  177.5170  145.6370 C   0  0  0  0  0  2  0  0  0  0  0  0
  2  1  1  0  0  0  0
  2  4  1  0  0  0  0
  3  4  2  0  0  0  0
  5  4  1  6  0  0  0
  5 14  1  0  0  0  0
  7  5  1  1  0  0  0
  7  9  1  0  0  0  0
  8 11  1  6  0  0  0
  8  7  1  0  0  0  0
  8  9  1  0  0  0  0
  9  6  1  6  0  0  0
 10 11  2  0  0  0  0
 12 11  1  0  0  0  0
 14 15  1  1  0  0  0
 14 13  1  0  0  0  0
 16  1  1  0  0  0  0
 17 16  1  0  0  0  0
 18 17  1  0  0  0  0
 18 19  1  0  0  0  0
 19 22  1  1  0  0  0
 20 19  1  0  0  0  0
 21 18  1  0  0  0  0
 21 20  1  6  0  0  0
 21 19  1  0  0  0  0
 22 26  1  0  0  0  0
 23 25  1  0  0  0  0
 23 27  1  6  0  0  0
 24 27  1  0  0  0  0
 26 29  2  0  0  0  0
 26 30  1  0  0  0  0
 28 30  1  6  0  0  0
 28 23  1  0  0  0  0
 28 25  1  0  0  0  0
 29 24  1  0  0  0  0
M  END
>  <MODEL>
1

>  <REMARK>
 VINA RESULT:      -6.4      0.000      0.000
  Name = 
  10 active torsions:
  status: ('A' for Active; 'I' for Inactive)
    1  A    between atoms: C_3  and  C_11
    2  A    between atoms: C_3  and  C_19
    3  A    between atoms: C_4  and  C_13
    4  A    between atoms: N_7  and  C_16
    5  A    between atoms: C_8  and  C_13
    6  A    between atoms: C_9  and  C_17
    7  A    between atoms: N_10  and  C_15
    8  A    between atoms: C_13  and  C_30
    9  A    between atoms: C_15  and  C_26
   10  A    between atoms: C_16  and  C_26
                            x       y       z     vdW  Elec       q    Type
                         _______ _______ _______ _____ _____    ______ ____

>  <TORSDO>
F 10

$$$$
=
 OpenBabel11052417153D

 30 34  0  0  1  0  0  0  0  0999 V2000
  190.5700  173.8000  142.0520 C   0  0  0  0  0  2  0  0  0  0  0  0
  191.2820  173.0700  143.0930 N   0  0  0  0  0  2  0  0  0  0  0  0
  192.6670  172.9970  144.9550 O   0  0  0  0  0  0  0  0  0  0  0  0
  192.0810  173.7070  144.0940 C   0  0  0  0  0  0  0  0  0  0  0  0
  192.2430  175.2040  144.1210 C   0  0  1  0  0  3  0  0  0  0  0  0
  190.0490  177.5190  145.9100 O   0  0  0  0  0  1  0  0  0  0  0  0
  191.5730  175.7750  145.3730 C   0  0  2  0  0  3  0  0  0  0  0  0
  190.2260  175.1030  145.6040 C   0  0  2  0  0  3  0  0  0  0  0  0
  190.2990  176.5020  144.9840 C   0  0  1  0  0  3  0  0  0  0  0  0
  188.6910  174.8770  147.4240 O   0  0  0  0  0  0  0  0  0  0  0  0
  189.8790  175.0870  147.0630 C   0  0  0  0  0  0  0  0  0  0  0  0
  190.8970  175.2420  148.0470 N   0  0  0  0  0  1  0  0  0  0  0  0
  194.2140  175.9910  142.3370 S   0  0  0  0  0  1  0  0  0  0  0  0
  193.7280  175.5950  144.0470 C   0  0  1  0  0  3  0  0  0  0  0  0
  194.0300  176.8080  144.9100 C   0  0  0  0  0  1  0  0  0  0  0  0
  189.1500  173.2730  141.9100 C   0  0  0  0  0  2  0  0  0  0  0  0
  188.1370  174.3390  142.2910 C   0  0  0  0  0  2  0  0  0  0  0  0
  188.6270  175.6500  141.8800 N   0  0  0  0  0  0  0  0  0  0  0  0
  187.6950  176.7600  142.2150 C   0  0  1  0  0  0  0  0  0  0  0  0
  187.5150  177.6610  141.0190 C   0  0  0  0  0  2  0  0  0  0  0  0
  187.6860  176.1660  140.8730 C   0  0  1  0  0  3  0  0  0  0  0  0
  186.3510  176.3970  142.8640 C   0  0  0  0  0  2  0  0  0  0  0  0
  184.8760  178.0020  146.8930 C   0  0  1  0  0  3  0  0  0  0  0  0
  184.9780  179.4530  144.8550 C   0  0  0  0  0  2  0  0  0  0  0  0
  185.8450  177.2960  147.6310 O   0  0  0  0  0  0  0  0  0  0  0  0
  186.0570  177.2620  144.0490 C   0  0  0  0  0  0  0  0  0  0  0  0
  185.5110  179.2420  146.2670 C   0  0  0  0  0  2  0  0  0  0  0  0
  185.4490  176.7070  146.4130 C   0  0  2  0  0  3  0  0  0  0  0  0
  185.4100  178.4230  143.8340 C   0  0  0  0  0  3  0  0  0  0  0  0
  186.5810  176.8500  145.3980 C   0  0  0  0  0  2  0  0  0  0  0  0
  1  2  1  0  0  0  0
  2  4  1  0  0  0  0
  4  3  2  0  0  0  0
  5  4  1  1  0  0  0
  7  5  1  6  0  0  0
  7  8  1  0  0  0  0
  8 11  1  1  0  0  0
  9  7  1  0  0  0  0
  9  8  1  0  0  0  0
  9  6  1  1  0  0  0
 11 10  2  0  0  0  0
 11 12  1  0  0  0  0
 13 14  1  0  0  0  0
 14  5  1  0  0  0  0
 14 15  1  1  0  0  0
 16  1  1  0  0  0  0
 16 17  1  0  0  0  0
 18 19  1  0  0  0  0
 18 17  1  0  0  0  0
 19 22  1  1  0  0  0
 20 19  1  0  0  0  0
 21 20  1  6  0  0  0
 21 18  1  0  0  0  0
 21 19  1  0  0  0  0
 22 26  1  0  0  0  0
 23 27  1  6  0  0  0
 23 25  1  0  0  0  0
 24 27  1  0  0  0  0
 26 30  1  0  0  0  0
 28 30  1  6  0  0  0
 28 23  1  0  0  0  0
 28 25  1  0  0  0  0
 29 26  2  0  0  0  0
 29 24  1  0  0  0  0
M  END
>  <MODEL>
2

>  <REMARK>
 VINA RESULT:      -6.4      2.340      3.516
  Name = 
  10 active torsions:
  status: ('A' for Active; 'I' for Inactive)
    1  A    between atoms: C_3  and  C_11
    2  A    between atoms: C_3  and  C_19
    3  A    between atoms: C_4  and  C_13
    4  A    between atoms: N_7  and  C_16
    5  A    between atoms: C_8  and  C_13
    6  A    between atoms: C_9  and  C_17
    7  A    between atoms: N_10  and  C_15
    8  A    between atoms: C_13  and  C_30
    9  A    between atoms: C_15  and  C_26
   10  A    between atoms: C_16  and  C_26
                            x       y       z     vdW  Elec       q    Type
                         _______ _______ _______ _____ _____    ______ ____

>  <TORSDO>
F 10

$$$$
=
 OpenBabel11052417153D

 30 34  0  0  1  0  0  0  0  0999 V2000
  187.8480  175.2480  141.5630 C   0  0  0  0  0  2  0  0  0  0  0  0
  188.6960  176.4260  141.6880 N   0  0  0  0  0  2  0  0  0  0  0  0
  189.2040  178.4900  142.6240 O   0  0  0  0  0  0  0  0  0  0  0  0
  188.4180  177.5050  142.5840 C   0  0  0  0  0  0  0  0  0  0  0  0
  187.1950  177.4870  143.4640 C   0  0  1  0  0  3  0  0  0  0  0  0
  186.6850  176.9680  147.0470 O   0  0  0  0  0  1  0  0  0  0  0  0
  187.6140  177.5390  144.9350 C   0  0  2  0  0  3  0  0  0  0  0  0
  188.2690  176.2270  145.3440 C   0  0  2  0  0  3  0  0  0  0  0  0
  186.8160  176.5220  145.7290 C   0  0  1  0  0  3  0  0  0  0  0  0
  189.6600  177.6100  146.7120 O   0  0  0  0  0  0  0  0  0  0  0  0
  189.2620  176.4450  146.4470 C   0  0  0  0  0  0  0  0  0  0  0  0
  189.7090  175.3510  147.2410 N   0  0  0  0  0  1  0  0  0  0  0  0
  184.7050  178.0150  142.3660 S   0  0  0  0  0  1  0  0  0  0  0  0
  186.2470  178.6420  143.1050 C   0  0  1  0  0  3  0  0  0  0  0  0
  185.8780  179.4630  144.3290 C   0  0  0  0  0  1  0  0  0  0  0  0
  188.5130  174.2050  140.6780 C   0  0  0  0  0  2  0  0  0  0  0  0
  189.3530  173.2480  141.5060 C   0  0  0  0  0  2  0  0  0  0  0  0
  188.8340  173.1940  142.8680 N   0  0  0  0  0  0  0  0  0  0  0  0
  189.8950  173.2820  143.9070 C   0  0  1  0  0  0  0  0  0  0  0  0
  189.6870  172.2110  144.9490 C   0  0  0  0  0  2  0  0  0  0  0  0
  189.3770  171.9750  143.4880 C   0  0  1  0  0  3  0  0  0  0  0  0
  191.3560  173.3470  143.4390 C   0  0  0  0  0  2  0  0  0  0  0  0
  193.2890  176.3770  146.2780 C   0  0  1  0  0  3  0  0  0  0  0  0
  192.1210  177.0950  144.1830 C   0  0  0  0  0  2  0  0  0  0  0  0
  194.4060  175.5600  146.5340 O   0  0  0  0  0  0  0  0  0  0  0  0
  192.0700  174.5290  144.0130 C   0  0  0  0  0  0  0  0  0  0  0  0
  193.4540  177.0590  144.9210 C   0  0  0  0  0  2  0  0  0  0  0  0
  193.2110  174.8860  146.2130 C   0  0  2  0  0  3  0  0  0  0  0  0
  191.5980  175.7540  143.7140 C   0  0  0  0  0  3  0  0  0  0  0  0
  193.3290  174.3040  144.8060 C   0  0  0  0  0  2  0  0  0  0  0  0
  1  2  1  0  0  0  0
  2  4  1  0  0  0  0
  4  3  2  0  0  0  0
  5  4  1  6  0  0  0
  7  5  1  6  0  0  0
  7  8  1  0  0  0  0
  7  9  1  0  0  0  0
  8  9  1  0  0  0  0
  8 11  1  1  0  0  0
  9  6  1  1  0  0  0
 11 10  2  0  0  0  0
 11 12  1  0  0  0  0
 13 14  1  0  0  0  0
 14  5  1  0  0  0  0
 14 15  1  1  0  0  0
 16 17  1  0  0  0  0
 16  1  1  0  0  0  0
 17 18  1  0  0  0  0
 18 21  1  0  0  0  0
 18 19  1  0  0  0  0
 19 22  1  6  0  0  0
 19 20  1  0  0  0  0
 21 19  1  0  0  0  0
 21 20  1  1  0  0  0
 22 26  1  0  0  0  0
 23 27  1  6  0  0  0
 23 25  1  0  0  0  0
 24 27  1  0  0  0  0
 26 30  1  0  0  0  0
 28 30  1  6  0  0  0
 28 23  1  0  0  0  0
 28 25  1  0  0  0  0
 29 26  2  0  0  0  0
 29 24  1  0  0  0  0
M  END
>  <MODEL>
3

>  <REMARK>
 VINA RESULT:      -6.3      2.797      6.426
  Name = 
  10 active torsions:
  status: ('A' for Active; 'I' for Inactive)
    1  A    between atoms: C_3  and  C_11
    2  A    between atoms: C_3  and  C_19
    3  A    between atoms: C_4  and  C_13
    4  A    between atoms: N_7  and  C_16
    5  A    between atoms: C_8  and  C_13
    6  A    between atoms: C_9  and  C_17
    7  A    between atoms: N_10  and  C_15
    8  A    between atoms: C_13  and  C_30
    9  A    between atoms: C_15  and  C_26
   10  A    between atoms: C_16  and  C_26
                            x       y       z     vdW  Elec       q    Type
                         _______ _______ _______ _____ _____    ______ ____

>  <TORSDO>
F 10

$$$$
=
 OpenBabel11052417153D

 30 34  0  0  1  0  0  0  0  0999 V2000
  190.0640  174.0440  144.5880 C   0  0  0  0  0  2  0  0  0  0  0  0
  189.7030  173.8180  145.9810 N   0  0  0  0  0  2  0  0  0  0  0  0
  188.7320  174.4990  147.9770 O   0  0  0  0  0  0  0  0  0  0  0  0
  189.0000  174.7760  146.7770 C   0  0  0  0  0  0  0  0  0  0  0  0
  188.5940  176.1100  146.2060 C   0  0  1  0  0  3  0  0  0  0  0  0
  186.5650  178.2270  148.3910 O   0  0  0  0  0  1  0  0  0  0  0  0
  187.2810  176.5680  146.8450 C   0  0  2  0  0  3  0  0  0  0  0  0
  186.6480  177.6750  146.0140 C   0  0  2  0  0  3  0  0  0  0  0  0
  187.4110  178.0100  147.3000 C   0  0  1  0  0  3  0  0  0  0  0  0
  184.5630  176.6100  146.5000 O   0  0  0  0  0  0  0  0  0  0  0  0
  185.1550  177.6680  146.1610 C   0  0  0  0  0  0  0  0  0  0  0  0
  184.4080  178.8670  145.9810 N   0  0  0  0  0  1  0  0  0  0  0  0
  191.0140  176.5100  147.4980 S   0  0  0  0  0  1  0  0  0  0  0  0
  189.7100  177.1490  146.4000 C   0  0  1  0  0  3  0  0  0  0  0  0
  190.3570  177.5280  145.0780 C   0  0  0  0  0  1  0  0  0  0  0  0
  190.4230  172.7300  143.9110 C   0  0  0  0  0  2  0  0  0  0  0  0
  189.4120  172.3840  142.8310 C   0  0  0  0  0  2  0  0  0  0  0  0
  189.8190  172.9870  141.5670 N   0  0  0  0  0  0  0  0  0  0  0  0
  188.8940  174.0510  141.0950 C   0  0  1  0  0  0  0  0  0  0  0  0
  188.5680  173.8420  139.6370 C   0  0  0  0  0  2  0  0  0  0  0  0
  188.7670  172.6810  140.5850 C   0  0  1  0  0  3  0  0  0  0  0  0
  187.6340  174.3280  141.9280 C   0  0  0  0  0  2  0  0  0  0  0  0
  186.0510  178.6270  141.9080 C   0  0  1  0  0  3  0  0  0  0  0  0
  188.5030  178.1260  141.9880 C   0  0  0  0  0  2  0  0  0  0  0  0
  184.9720  178.3290  142.7610 O   0  0  0  0  0  0  0  0  0  0  0  0
  187.4390  175.7920  142.1680 C   0  0  0  0  0  0  0  0  0  0  0  0
  187.3320  178.7610  142.7290 C   0  0  0  0  0  2  0  0  0  0  0  0
  185.4290  177.2680  141.9530 C   0  0  2  0  0  3  0  0  0  0  0  0
  188.4570  176.6190  141.8620 C   0  0  0  0  0  3  0  0  0  0  0  0
  186.1700  176.2590  142.8270 C   0  0  0  0  0  2  0  0  0  0  0  0
  1  2  1  0  0  0  0
  2  4  1  0  0  0  0
  4  3  2  0  0  0  0
  5 14  1  0  0  0  0
  5  4  1  1  0  0  0
  7  5  1  6  0  0  0
  7  9  1  0  0  0  0
  8 11  1  1  0  0  0
  8  7  1  0  0  0  0
  8  9  1  0  0  0  0
  9  6  1  1  0  0  0
 11 10  2  0  0  0  0
 12 11  1  0  0  0  0
 14 15  1  6  0  0  0
 14 13  1  0  0  0  0
 16  1  1  0  0  0  0
 17 16  1  0  0  0  0
 18 17  1  0  0  0  0
 19 18  1  0  0  0  0
 19 22  1  1  0  0  0
 20 19  1  0  0  0  0
 21 20  1  6  0  0  0
 21 19  1  0  0  0  0
 21 18  1  0  0  0  0
 22 26  1  0  0  0  0
 23 28  1  0  0  0  0
 23 27  1  1  0  0  0
 23 25  1  0  0  0  0
 24 27  1  0  0  0  0
 26 30  1  0  0  0  0
 28 25  1  0  0  0  0
 28 30  1  1  0  0  0
 29 24  1  0  0  0  0
 29 26  2  0  0  0  0
M  END
>  <MODEL>
4

>  <REMARK>
 VINA RESULT:      -6.2      2.593      5.414
  Name = 
  10 active torsions:
  status: ('A' for Active; 'I' for Inactive)
    1  A    between atoms: C_3  and  C_11
    2  A    between atoms: C_3  and  C_19
    3  A    between atoms: C_4  and  C_13
    4  A    between atoms: N_7  and  C_16
    5  A    between atoms: C_8  and  C_13
    6  A    between atoms: C_9  and  C_17
    7  A    between atoms: N_10  and  C_15
    8  A    between atoms: C_13  and  C_30
    9  A    between atoms: C_15  and  C_26
   10  A    between atoms: C_16  and  C_26
                            x       y       z     vdW  Elec       q    Type
                         _______ _______ _______ _____ _____    ______ ____

>  <TORSDO>
F 10

$$$$
=
 OpenBabel11052417153D

 30 34  0  0  1  0  0  0  0  0999 V2000
  189.9690  177.4580  143.3680 C   0  0  0  0  0  2  0  0  0  0  0  0
  191.0940  176.6980  142.8390 N   0  0  0  0  0  2  0  0  0  0  0  0
  192.1850  174.6940  142.4070 O   0  0  0  0  0  0  0  0  0  0  0  0
  191.1710  175.2700  142.8850 C   0  0  0  0  0  0  0  0  0  0  0  0
  190.0700  174.4540  143.5100 C   0  0  1  0  0  3  0  0  0  0  0  0
  187.3210  172.6760  141.8800 O   0  0  0  0  0  1  0  0  0  0  0  0
  189.4700  173.5100  142.4660 C   0  0  2  0  0  3  0  0  0  0  0  0
  189.0330  174.2930  141.2350 C   0  0  2  0  0  3  0  0  0  0  0  0
  188.0000  173.8350  142.2700 C   0  0  1  0  0  3  0  0  0  0  0  0
  188.3870  173.7150  139.0070 O   0  0  0  0  0  0  0  0  0  0  0  0
  189.1030  173.4380  140.0040 C   0  0  0  0  0  0  0  0  0  0  0  0
  190.0210  172.3520  139.9330 N   0  0  0  0  0  1  0  0  0  0  0  0
  192.0560  174.4980  145.4440 S   0  0  0  0  0  1  0  0  0  0  0  0
  190.5880  173.6850  144.7360 C   0  0  1  0  0  3  0  0  0  0  0  0
  189.5340  173.5950  145.8260 C   0  0  0  0  0  1  0  0  0  0  0  0
  189.3150  178.2760  142.2660 C   0  0  0  0  0  2  0  0  0  0  0  0
  188.0540  177.5950  141.7620 C   0  0  0  0  0  2  0  0  0  0  0  0
  186.9500  178.5480  141.7560 N   0  0  0  0  0  0  0  0  0  0  0  0
  185.8170  178.1430  142.6300 C   0  0  1  0  0  0  0  0  0  0  0  0
  184.5130  178.2910  141.8840 C   0  0  0  0  0  2  0  0  0  0  0  0
  185.7830  177.8520  141.1920 C   0  0  1  0  0  3  0  0  0  0  0  0
  185.9120  176.7900  143.3490 C   0  0  0  0  0  2  0  0  0  0  0  0
  186.0420  178.5110  147.5920 C   0  0  1  0  0  3  0  0  0  0  0  0
  187.4400  176.5440  146.9250 C   0  0  0  0  0  2  0  0  0  0  0  0
  184.6550  178.7450  147.6370 O   0  0  0  0  0  0  0  0  0  0  0  0
  186.0030  176.9570  144.8330 C   0  0  0  0  0  0  0  0  0  0  0  0
  186.3210  177.0300  147.8390 C   0  0  0  0  0  2  0  0  0  0  0  0
  185.2460  178.7920  146.3580 C   0  0  2  0  0  3  0  0  0  0  0  0
  187.1000  176.4810  145.4520 C   0  0  0  0  0  3  0  0  0  0  0  0
  184.8340  177.5490  145.5710 C   0  0  0  0  0  2  0  0  0  0  0  0
  2  4  1  0  0  0  0
  2  1  1  0  0  0  0
  3  4  2  0  0  0  0
  5  4  1  6  0  0  0
  5 14  1  0  0  0  0
  7  5  1  1  0  0  0
  8 11  1  6  0  0  0
  8  9  1  0  0  0  0
  8  7  1  0  0  0  0
  9  6  1  6  0  0  0
  9  7  1  0  0  0  0
 10 11  2  0  0  0  0
 12 11  1  0  0  0  0
 14 13  1  0  0  0  0
 14 15  1  1  0  0  0
 16  1  1  0  0  0  0
 17 16  1  0  0  0  0
 18 17  1  0  0  0  0
 18 19  1  0  0  0  0
 19 22  1  1  0  0  0
 20 19  1  0  0  0  0
 21 18  1  0  0  0  0
 21 20  1  6  0  0  0
 21 19  1  0  0  0  0
 22 26  1  0  0  0  0
 23 25  1  0  0  0  0
 23 27  1  6  0  0  0
 24 27  1  0  0  0  0
 26 29  2  0  0  0  0
 26 30  1  0  0  0  0
 28 30  1  6  0  0  0
 28 23  1  0  0  0  0
 28 25  1  0  0  0  0
 29 24  1  0  0  0  0
M  END
>  <MODEL>
5

>  <REMARK>
 VINA RESULT:      -6.1      1.484      1.906
  Name = 
  10 active torsions:
  status: ('A' for Active; 'I' for Inactive)
    1  A    between atoms: C_3  and  C_11
    2  A    between atoms: C_3  and  C_19
    3  A    between atoms: C_4  and  C_13
    4  A    between atoms: N_7  and  C_16
    5  A    between atoms: C_8  and  C_13
    6  A    between atoms: C_9  and  C_17
    7  A    between atoms: N_10  and  C_15
    8  A    between atoms: C_13  and  C_30
    9  A    between atoms: C_15  and  C_26
   10  A    between atoms: C_16  and  C_26
                            x       y       z     vdW  Elec       q    Type
                         _______ _______ _______ _____ _____    ______ ____

>  <TORSDO>
F 10

$$$$
=
 OpenBabel11052417153D

 30 34  0  0  1  0  0  0  0  0999 V2000
  187.7690  176.4050  141.6160 C   0  0  0  0  0  2  0  0  0  0  0  0
  187.3800  175.0510  141.9870 N   0  0  0  0  0  2  0  0  0  0  0  0
  187.6950  172.7500  141.9460 O   0  0  0  0  0  0  0  0  0  0  0  0
  188.1050  173.8860  141.5830 C   0  0  0  0  0  0  0  0  0  0  0  0
  189.3350  173.9980  140.7210 C   0  0  1  0  0  3  0  0  0  0  0  0
  192.7190  174.2490  142.0850 O   0  0  0  0  0  1  0  0  0  0  0  0
  190.5520  173.4730  141.4860 C   0  0  2  0  0  3  0  0  0  0  0  0
  190.4680  173.8740  142.9520 C   0  0  2  0  0  3  0  0  0  0  0  0
  191.3800  174.6410  141.9900 C   0  0  1  0  0  3  0  0  0  0  0  0
  191.6170  173.2280  144.9470 O   0  0  0  0  0  0  0  0  0  0  0  0
  191.1770  172.8780  143.8210 C   0  0  0  0  0  0  0  0  0  0  0  0
  191.2990  171.5200  143.4080 N   0  0  0  0  0  1  0  0  0  0  0  0
  188.1750  174.2570  138.2160 S   0  0  0  0  0  1  0  0  0  0  0  0
  189.1400  173.2540  139.3900 C   0  0  1  0  0  3  0  0  0  0  0  0
  190.4700  172.9200  138.7360 C   0  0  0  0  0  1  0  0  0  0  0  0
  186.5410  177.2910  141.4760 C   0  0  0  0  0  2  0  0  0  0  0  0
  185.6400  177.1640  142.6930 C   0  0  0  0  0  2  0  0  0  0  0  0
  185.6940  178.3960  143.4730 N   0  0  0  0  0  0  0  0  0  0  0  0
  186.3310  178.2220  144.8060 C   0  0  1  0  0  0  0  0  0  0  0  0
  185.4820  178.8710  145.8710 C   0  0  0  0  0  2  0  0  0  0  0  0
  184.8700  178.1820  144.6730 C   0  0  1  0  0  3  0  0  0  0  0  0
  186.7740  176.8090  145.2120 C   0  0  0  0  0  2  0  0  0  0  0  0
  191.0450  176.6380  146.8570 C   0  0  1  0  0  3  0  0  0  0  0  0
  190.5200  177.7320  144.6670 C   0  0  0  0  0  2  0  0  0  0  0  0
  190.9010  175.3250  147.3450 O   0  0  0  0  0  0  0  0  0  0  0  0
  188.2600  176.7130  145.3510 C   0  0  0  0  0  0  0  0  0  0  0  0
  191.2810  176.6010  145.3480 C   0  0  0  0  0  2  0  0  0  0  0  0
  189.7210  176.0940  147.2870 C   0  0  2  0  0  3  0  0  0  0  0  0
  189.0130  177.6030  144.6760 C   0  0  0  0  0  3  0  0  0  0  0  0
  188.8450  175.5790  146.1470 C   0  0  0  0  0  2  0  0  0  0  0  0
  1  2  1  0  0  0  0
  4  3  2  0  0  0  0
  4  2  1  0  0  0  0
  5  4  1  1  0  0  0
  7  5  1  6  0  0  0
  7  9  1  0  0  0  0
  7  8  1  0  0  0  0
  8 11  1  1  0  0  0
  9  6  1  1  0  0  0
  9  8  1  0  0  0  0
 11 10  2  0  0  0  0
 12 11  1  0  0  0  0
 13 14  1  0  0  0  0
 14 15  1  6  0  0  0
 14  5  1  0  0  0  0
 16  1  1  0  0  0  0
 16 17  1  0  0  0  0
 17 18  1  0  0  0  0
 18 21  1  0  0  0  0
 18 19  1  0  0  0  0
 19 22  1  1  0  0  0
 19 20  1  0  0  0  0
 21 19  1  0  0  0  0
 21 20  1  1  0  0  0
 22 26  1  0  0  0  0
 23 27  1  6  0  0  0
 23 28  1  0  0  0  0
 23 25  1  0  0  0  0
 24 29  1  0  0  0  0
 24 27  1  0  0  0  0
 26 30  1  0  0  0  0
 28 30  1  6  0  0  0
 28 25  1  0  0  0  0
 29 26  2  0  0  0  0
M  END
>  <MODEL>
6

>  <REMARK>
 VINA RESULT:      -6.0      2.854      4.689
  Name = 
  10 active torsions:
  status: ('A' for Active; 'I' for Inactive)
    1  A    between atoms: C_3  and  C_11
    2  A    between atoms: C_3  and  C_19
    3  A    between atoms: C_4  and  C_13
    4  A    between atoms: N_7  and  C_16
    5  A    between atoms: C_8  and  C_13
    6  A    between atoms: C_9  and  C_17
    7  A    between atoms: N_10  and  C_15
    8  A    between atoms: C_13  and  C_30
    9  A    between atoms: C_15  and  C_26
   10  A    between atoms: C_16  and  C_26
                            x       y       z     vdW  Elec       q    Type
                         _______ _______ _______ _____ _____    ______ ____

>  <TORSDO>
F 10

$$$$
=
 OpenBabel11052417153D

 30 34  0  0  1  0  0  0  0  0999 V2000
  189.4220  172.8400  141.5700 C   0  0  0  0  0  2  0  0  0  0  0  0
  189.1200  172.9110  142.9940 N   0  0  0  0  0  2  0  0  0  0  0  0
  189.7630  173.1960  145.2070 O   0  0  0  0  0  0  0  0  0  0  0  0
  190.1110  173.1550  143.9960 C   0  0  0  0  0  0  0  0  0  0  0  0
  191.5580  173.3460  143.6260 C   0  0  1  0  0  3  0  0  0  0  0  0
  193.5790  176.3840  143.3800 O   0  0  0  0  0  1  0  0  0  0  0  0
  192.0360  174.7220  144.0950 C   0  0  2  0  0  3  0  0  0  0  0  0
  191.2050  175.8200  143.4440 C   0  0  2  0  0  3  0  0  0  0  0  0
  192.6060  175.4920  142.9180 C   0  0  1  0  0  3  0  0  0  0  0  0
  191.3340  176.9230  145.5610 O   0  0  0  0  0  0  0  0  0  0  0  0
  191.1370  177.0330  144.3230 C   0  0  0  0  0  0  0  0  0  0  0  0
  190.9140  178.3210  143.7570 N   0  0  0  0  0  1  0  0  0  0  0  0
  193.3560  171.3640  142.8980 S   0  0  0  0  0  1  0  0  0  0  0  0
  192.4250  172.2180  144.2100 C   0  0  1  0  0  3  0  0  0  0  0  0
  193.4250  172.7490  145.2220 C   0  0  0  0  0  1  0  0  0  0  0  0
  189.0270  174.1360  140.8780 C   0  0  0  0  0  2  0  0  0  0  0  0
  187.9920  174.8910  141.6940 C   0  0  0  0  0  2  0  0  0  0  0  0
  188.2450  176.3250  141.5990 N   0  0  0  0  0  0  0  0  0  0  0  0
  187.4160  177.1330  142.5340 C   0  0  1  0  0  0  0  0  0  0  0  0
  186.8010  178.2980  141.8000 C   0  0  0  0  0  2  0  0  0  0  0  0
  186.9970  176.9530  141.1390 C   0  0  1  0  0  3  0  0  0  0  0  0
  186.3850  176.3950  143.4010 C   0  0  0  0  0  2  0  0  0  0  0  0
  185.8120  178.8650  147.2150 C   0  0  1  0  0  3  0  0  0  0  0  0
  187.8740  177.4980  146.8290 C   0  0  0  0  0  2  0  0  0  0  0  0
  184.4440  178.5480  147.3220 O   0  0  0  0  0  0  0  0  0  0  0  0
  186.3980  176.8850  144.8140 C   0  0  0  0  0  0  0  0  0  0  0  0
  186.6500  177.6910  147.7170 C   0  0  0  0  0  2  0  0  0  0  0  0
  184.9740  178.5560  146.0160 C   0  0  2  0  0  3  0  0  0  0  0  0
  187.5910  177.0070  145.4260 C   0  0  0  0  0  3  0  0  0  0  0  0
  185.0870  177.1180  145.5150 C   0  0  0  0  0  2  0  0  0  0  0  0
  1  2  1  0  0  0  0
  2  4  1  0  0  0  0
  4  3  2  0  0  0  0
  5  4  1  1  0  0  0
  5 14  1  0  0  0  0
  7  5  1  6  0  0  0
  8  7  1  0  0  0  0
  8 11  1  1  0  0  0
  9  6  1  1  0  0  0
  9  8  1  0  0  0  0
  9  7  1  0  0  0  0
 11 10  2  0  0  0  0
 12 11  1  0  0  0  0
 13 14  1  0  0  0  0
 14 15  1  1  0  0  0
 16  1  1  0  0  0  0
 16 17  1  0  0  0  0
 18 17  1  0  0  0  0
 18 19  1  0  0  0  0
 19 22  1  1  0  0  0
 20 19  1  0  0  0  0
 21 18  1  0  0  0  0
 21 20  1  6  0  0  0
 21 19  1  0  0  0  0
 22 26  1  0  0  0  0
 23 25  1  0  0  0  0
 23 27  1  1  0  0  0
 24 27  1  0  0  0  0
 26 29  2  0  0  0  0
 26 30  1  0  0  0  0
 28 30  1  1  0  0  0
 28 23  1  0  0  0  0
 28 25  1  0  0  0  0
 29 24  1  0  0  0  0
M  END
>  <MODEL>
7

>  <REMARK>
 VINA RESULT:      -6.0      1.961      3.499
  Name = 
  10 active torsions:
  status: ('A' for Active; 'I' for Inactive)
    1  A    between atoms: C_3  and  C_11
    2  A    between atoms: C_3  and  C_19
    3  A    between atoms: C_4  and  C_13
    4  A    between atoms: N_7  and  C_16
    5  A    between atoms: C_8  and  C_13
    6  A    between atoms: C_9  and  C_17
    7  A    between atoms: N_10  and  C_15
    8  A    between atoms: C_13  and  C_30
    9  A    between atoms: C_15  and  C_26
   10  A    between atoms: C_16  and  C_26
                            x       y       z     vdW  Elec       q    Type
                         _______ _______ _______ _____ _____    ______ ____

>  <TORSDO>
F 10

$$$$
=
 OpenBabel11052417153D

 30 34  0  0  1  0  0  0  0  0999 V2000
  192.5300  175.5660  143.9830 C   0  0  0  0  0  2  0  0  0  0  0  0
  192.7630  175.4380  142.5500 N   0  0  0  0  0  2  0  0  0  0  0  0
  192.4960  174.3300  140.5270 O   0  0  0  0  0  0  0  0  0  0  0  0
  192.2420  174.3650  141.7610 C   0  0  0  0  0  0  0  0  0  0  0  0
  191.4110  173.2750  142.3870 C   0  0  1  0  0  3  0  0  0  0  0  0
  187.8530  172.4310  142.3820 O   0  0  0  0  0  1  0  0  0  0  0  0
  189.9860  173.3270  141.8320 C   0  0  2  0  0  3  0  0  0  0  0  0
  189.2060  174.4610  142.4830 C   0  0  2  0  0  3  0  0  0  0  0  0
  188.9960  173.0130  142.9380 C   0  0  1  0  0  3  0  0  0  0  0  0
  187.1590  175.6070  142.0250 O   0  0  0  0  0  0  0  0  0  0  0  0
  188.1470  174.9820  141.5580 C   0  0  0  0  0  0  0  0  0  0  0  0
  188.2840  174.8320  140.1480 N   0  0  0  0  0  1  0  0  0  0  0  0
  192.2240  170.9890  143.7280 S   0  0  0  0  0  1  0  0  0  0  0  0
  192.0570  171.8980  142.1600 C   0  0  1  0  0  3  0  0  0  0  0  0
  191.2330  171.0450  141.2100 C   0  0  0  0  0  1  0  0  0  0  0  0
  192.0440  176.9680  144.3190 C   0  0  0  0  0  2  0  0  0  0  0  0
  191.1290  176.9460  145.5320 C   0  0  0  0  0  2  0  0  0  0  0  0
  190.4100  175.6780  145.5810 N   0  0  0  0  0  0  0  0  0  0  0  0
  189.0970  175.7710  146.2750 C   0  0  1  0  0  0  0  0  0  0  0  0
  188.9560  174.6390  147.2630 C   0  0  0  0  0  2  0  0  0  0  0  0
  190.2860  175.3070  146.9990 C   0  0  1  0  0  3  0  0  0  0  0  0
  188.7060  177.1210  146.8930 C   0  0  0  0  0  2  0  0  0  0  0  0
  184.9760  178.8570  144.8810 C   0  0  1  0  0  3  0  0  0  0  0  0
  185.1640  178.6730  147.3710 C   0  0  0  0  0  2  0  0  0  0  0  0
  184.9920  177.9160  143.8350 O   0  0  0  0  0  0  0  0  0  0  0  0
  187.3000  177.5010  146.5500 C   0  0  0  0  0  0  0  0  0  0  0  0
  184.3920  178.2160  146.1390 C   0  0  0  0  0  2  0  0  0  0  0  0
  186.2440  178.2290  144.4010 C   0  0  2  0  0  3  0  0  0  0  0  0
  186.5830  178.1610  147.4790 C   0  0  0  0  0  3  0  0  0  0  0  0
  186.7240  177.0450  145.2370 C   0  0  0  0  0  2  0  0  0  0  0  0
  1 16  1  0  0  0  0
  2  1  1  0  0  0  0
  3  4  2  0  0  0  0
  4  2  1  0  0  0  0
  5  4  1  6  0  0  0
  7  5  1  1  0  0  0
  7  8  1  0  0  0  0
  7  9  1  0  0  0  0
  8 11  1  6  0  0  0
  8  9  1  0  0  0  0
  9  6  1  6  0  0  0
 11 10  2  0  0  0  0
 12 11  1  0  0  0  0
 14 15  1  6  0  0  0
 14  5  1  0  0  0  0
 14 13  1  0  0  0  0
 16 17  1  0  0  0  0
 17 18  1  0  0  0  0
 18 19  1  0  0  0  0
 18 21  1  0  0  0  0
 19 22  1  1  0  0  0
 19 21  1  0  0  0  0
 19 20  1  0  0  0  0
 21 20  1  6  0  0  0
 23 27  1  1  0  0  0
 24 29  1  0  0  0  0
 25 28  1  0  0  0  0
 25 23  1  0  0  0  0
 26 22  1  0  0  0  0
 26 29  2  0  0  0  0
 27 24  1  0  0  0  0
 28 23  1  0  0  0  0
 28 30  1  1  0  0  0
 30 26  1  0  0  0  0
M  END
>  <MODEL>
8

>  <REMARK>
 VINA RESULT:      -6.0      2.595      4.277
  Name = 
  10 active torsions:
  status: ('A' for Active; 'I' for Inactive)
    1  A    between atoms: C_3  and  C_11
    2  A    between atoms: C_3  and  C_19
    3  A    between atoms: C_4  and  C_13
    4  A    between atoms: N_7  and  C_16
    5  A    between atoms: C_8  and  C_13
    6  A    between atoms: C_9  and  C_17
    7  A    between atoms: N_10  and  C_15
    8  A    between atoms: C_13  and  C_30
    9  A    between atoms: C_15  and  C_26
   10  A    between atoms: C_16  and  C_26
                            x       y       z     vdW  Elec       q    Type
                         _______ _______ _______ _____ _____    ______ ____

>  <TORSDO>
F 10

$$$$
=
 OpenBabel11052417153D

 30 34  0  0  1  0  0  0  0  0999 V2000
  191.8490  174.2930  142.4180 C   0  0  0  0  0  2  0  0  0  0  0  0
  192.1550  173.1790  143.3050 N   0  0  0  0  0  2  0  0  0  0  0  0
  193.3880  172.2090  145.0180 O   0  0  0  0  0  0  0  0  0  0  0  0
  193.1880  173.2220  144.2950 C   0  0  0  0  0  0  0  0  0  0  0  0
  194.0430  174.4490  144.4700 C   0  0  1  0  0  3  0  0  0  0  0  0
  194.1920  177.1880  146.8890 O   0  0  0  0  0  1  0  0  0  0  0  0
  193.6970  175.1370  145.7930 C   0  0  2  0  0  3  0  0  0  0  0  0
  192.4640  176.0140  145.6260 C   0  0  2  0  0  3  0  0  0  0  0  0
  193.8630  176.6380  145.6460 C   0  0  1  0  0  3  0  0  0  0  0  0
  190.9740  177.1290  147.1260 O   0  0  0  0  0  0  0  0  0  0  0  0
  191.7110  176.1310  146.9180 C   0  0  0  0  0  0  0  0  0  0  0  0
  191.7750  175.0880  147.8860 N   0  0  0  0  0  1  0  0  0  0  0  0
  196.4300  175.2460  143.3060 S   0  0  0  0  0  1  0  0  0  0  0  0
  195.5360  174.0900  144.3920 C   0  0  1  0  0  3  0  0  0  0  0  0
  196.1930  174.1340  145.7610 C   0  0  0  0  0  1  0  0  0  0  0  0
  190.4230  174.1840  141.9000 C   0  0  0  0  0  2  0  0  0  0  0  0
  189.6150  175.4140  142.2770 C   0  0  0  0  0  2  0  0  0  0  0  0
  190.3290  176.1760  143.2960 N   0  0  0  0  0  0  0  0  0  0  0  0
  189.5330  177.3000  143.8570 C   0  0  1  0  0  0  0  0  0  0  0  0
  190.3670  178.5570  143.8880 C   0  0  0  0  0  2  0  0  0  0  0  0
  190.4940  177.5420  142.7750 C   0  0  1  0  0  3  0  0  0  0  0  0
  188.1370  177.5550  143.2700 C   0  0  0  0  0  2  0  0  0  0  0  0
  184.9530  178.7350  146.3450 C   0  0  1  0  0  3  0  0  0  0  0  0
  186.4920  176.7960  146.7200 C   0  0  0  0  0  2  0  0  0  0  0  0
  183.9870  179.0310  145.3650 O   0  0  0  0  0  0  0  0  0  0  0  0
  187.0790  177.5340  144.3280 C   0  0  0  0  0  0  0  0  0  0  0  0
  185.0400  177.2220  146.5380 C   0  0  0  0  0  2  0  0  0  0  0  0
  185.3310  179.2040  144.9770 C   0  0  2  0  0  3  0  0  0  0  0  0
  187.3710  176.9310  145.4960 C   0  0  0  0  0  3  0  0  0  0  0  0
  185.7190  178.0900  144.0070 C   0  0  0  0  0  2  0  0  0  0  0  0
  1  2  1  0  0  0  0
  2  4  1  0  0  0  0
  4  3  2  0  0  0  0
  5  4  1  1  0  0  0
  7  5  1  6  0  0  0
  8  9  1  0  0  0  0
  8  7  1  0  0  0  0
  8 11  1  1  0  0  0
  9  7  1  0  0  0  0
  9  6  1  1  0  0  0
 11 10  2  0  0  0  0
 11 12  1  0  0  0  0
 13 14  1  0  0  0  0
 14  5  1  0  0  0  0
 14 15  1  1  0  0  0
 16 17  1  0  0  0  0
 16  1  1  0  0  0  0
 17 18  1  0  0  0  0
 18 19  1  0  0  0  0
 19 22  1  6  0  0  0
 19 20  1  0  0  0  0
 21 18  1  0  0  0  0
 21 19  1  0  0  0  0
 21 20  1  1  0  0  0
 22 26  1  0  0  0  0
 23 27  1  6  0  0  0
 25 23  1  0  0  0  0
 26 29  2  0  0  0  0
 27 24  1  0  0  0  0
 28 30  1  6  0  0  0
 28 25  1  0  0  0  0
 28 23  1  0  0  0  0
 29 24  1  0  0  0  0
 30 26  1  0  0  0  0
M  END
>  <MODEL>
9

>  <REMARK>
 VINA RESULT:      -5.9      2.556      4.171
  Name = 
  10 active torsions:
  status: ('A' for Active; 'I' for Inactive)
    1  A    between atoms: C_3  and  C_11
    2  A    between atoms: C_3  and  C_19
    3  A    between atoms: C_4  and  C_13
    4  A    between atoms: N_7  and  C_16
    5  A    between atoms: C_8  and  C_13
    6  A    between atoms: C_9  and  C_17
    7  A    between atoms: N_10  and  C_15
    8  A    between atoms: C_13  and  C_30
    9  A    between atoms: C_15  and  C_26
   10  A    between atoms: C_16  and  C_26
                            x       y       z     vdW  Elec       q    Type
                         _______ _______ _______ _____ _____    ______ ____

>  <TORSDO>
F 10

$$$$
