=
 OpenBabel11052421303D

 32 38  0  0  1  0  0  0  0  0999 V2000
  185.6370  176.5650  143.8170 C   0  0  0  0  0  3  0  0  0  0  0  0
  190.4550  175.1930  142.8410 C   0  0  0  0  0  0  0  0  0  0  0  0
  192.5700  175.2650  144.0390 C   0  0  0  0  0  0  0  0  0  0  0  0
  191.8730  175.7010  145.1880 C   0  0  0  0  0  0  0  0  0  0  0  0
  188.3730  175.9680  143.9580 C   0  0  0  0  0  0  0  0  0  0  0  0
  188.5250  175.9060  141.4470 C   0  0  0  0  0  2  0  0  0  0  0  0
  194.6490  175.3570  145.3000 C   0  0  0  0  0  0  0  0  0  0  0  0
  186.3660  176.3520  142.6430 C   0  0  0  0  0  3  0  0  0  0  0  0
  189.6670  175.0080  141.6470 N   0  0  0  0  0  0  0  0  0  0  0  0
  189.6100  173.7060  140.9630 C   0  0  2  0  0  3  0  0  0  0  0  0
  192.5830  174.5710  141.6430 C   0  0  0  0  0  3  0  0  0  0  0  0
  193.9490  175.7860  146.4310 C   0  0  0  0  0  3  0  0  0  0  0  0
  187.7260  176.0420  142.7100 C   0  0  0  0  0  0  0  0  0  0  0  0
  192.5650  175.9570  146.3740 C   0  0  0  0  0  3  0  0  0  0  0  0
  187.6380  176.1870  145.1320 C   0  0  0  0  0  3  0  0  0  0  0  0
  186.2710  176.4790  145.0610 C   0  0  0  0  0  0  0  0  0  0  0  0
  190.8870  172.9910  140.9460 N   0  0  0  0  0  0  0  0  0  0  0  0
  192.1410  173.6620  140.7800 C   0  0  0  0  0  3  0  0  0  0  0  0
  189.8170  175.6690  144.0040 C   0  0  0  0  0  0  0  0  0  0  0  0
  190.5320  175.8920  145.1380 N   0  0  0  0  0  0  0  0  0  0  0  0
  196.0250  175.1910  145.3570 O   0  0  0  0  0  1  0  0  0  0  0  0
  191.8520  174.9930  142.8550 C   0  0  0  0  0  0  0  0  0  0  0  0
  193.9640  175.0980  144.1110 C   0  0  0  0  0  3  0  0  0  0  0  0
  188.0970  172.9330  139.5770 O   0  0  0  0  0  1  0  0  0  0  0  0
  189.0770  173.8150  139.6620 O   0  0  0  0  0  0  0  0  0  0  0  0
  190.1450  170.9490  141.8050 O   0  0  0  0  0  1  0  0  0  0  0  0
  190.8480  171.5500  140.7590 C   0  0  0  0  0  2  0  0  0  0  0  0
  185.4890  176.7220  146.3060 C   0  0  0  0  0  2  0  0  0  0  0  0
  185.4800  179.2150  146.2130 C   0  0  1  0  0  3  0  0  0  0  0  0
  184.6190  177.9650  146.1630 C   0  0  2  0  0  3  0  0  0  0  0  0
  184.6640  178.8150  147.4210 C   0  0  1  0  0  3  0  0  0  0  0  0
  186.0540  179.3920  147.6060 C   0  0  0  0  0  2  0  0  0  0  0  0
  1 16  1  0  0  0  0
  2 22  2  0  0  0  0
  2 19  1  0  0  0  0
  3 23  2  0  0  0  0
  3  4  1  0  0  0  0
  4 14  2  0  0  0  0
  5 19  1  0  0  0  0
  5 15  1  0  0  0  0
  6  9  1  0  0  0  0
  6 13  1  0  0  0  0
  7 21  1  0  0  0  0
  7 12  2  0  0  0  0
  8 13  1  0  0  0  0
  8  1  2  0  0  0  0
  9  2  1  0  0  0  0
 10 25  1  6  0  0  0
 10  9  1  0  0  0  0
 11 22  1  0  0  0  0
 13  5  2  0  0  0  0
 14 12  1  0  0  0  0
 16 15  2  0  0  0  0
 16 28  1  0  0  0  0
 17 10  1  0  0  0  0
 18 17  1  0  0  0  0
 18 11  2  0  0  0  0
 19 20  2  0  0  0  0
 20  4  1  0  0  0  0
 22  3  1  0  0  0  0
 23  7  1  0  0  0  0
 24 25  1  0  0  0  0
 27 17  1  0  0  0  0
 27 26  1  0  0  0  0
 29 31  1  0  0  0  0
 29 32  1  1  0  0  0
 30 29  1  0  0  0  0
 30 28  1  1  0  0  0
 30 31  1  0  0  0  0
 31 32  1  1  0  0  0
M  END
>  <MODEL>
1

>  <REMARK>
 VINA RESULT:      -8.1      0.000      0.000
  Name = 
  4 active torsions:
  status: ('A' for Active; 'I' for Inactive)
    1  A    between atoms: C_10  and  C_19
    2  A    between atoms: O_13  and  C_15
    3  A    between atoms: C_19  and  C_24
    4  A    between atoms: C_25  and  N_26
                            x       y       z     vdW  Elec       q    Type
                         _______ _______ _______ _____ _____    ______ ____

>  <TORSDO>
F 4

$$$$
=
 OpenBabel11052421303D

 32 38  0  0  1  0  0  0  0  0999 V2000
  188.4110  177.5470  146.5550 C   0  0  0  0  0  3  0  0  0  0  0  0
  191.8930  174.0790  145.1790 C   0  0  0  0  0  0  0  0  0  0  0  0
  191.9080  172.0560  143.8310 C   0  0  0  0  0  0  0  0  0  0  0  0
  190.5750  172.3320  143.4520 C   0  0  0  0  0  0  0  0  0  0  0  0
  189.8050  175.4130  145.3880 C   0  0  0  0  0  0  0  0  0  0  0  0
  191.6130  175.5950  147.1290 C   0  0  0  0  0  2  0  0  0  0  0  0
  191.8520  170.0480  142.4580 C   0  0  0  0  0  0  0  0  0  0  0  0
  189.6390  177.1410  147.0870 C   0  0  0  0  0  3  0  0  0  0  0  0
  192.4930  174.9920  146.1220 N   0  0  0  0  0  0  0  0  0  0  0  0
  193.7240  175.7300  145.7950 C   0  0  2  0  0  3  0  0  0  0  0  0
  193.9630  172.6430  145.1170 C   0  0  0  0  0  3  0  0  0  0  0  0
  190.5350  170.3310  142.0890 C   0  0  0  0  0  3  0  0  0  0  0  0
  190.3420  176.0880  146.5000 C   0  0  0  0  0  0  0  0  0  0  0  0
  189.8980  171.4700  142.5850 C   0  0  0  0  0  3  0  0  0  0  0  0
  188.5710  175.8210  144.8610 C   0  0  0  0  0  3  0  0  0  0  0  0
  187.8790  176.8900  145.4410 C   0  0  0  0  0  0  0  0  0  0  0  0
  194.6950  174.9470  145.0290 N   0  0  0  0  0  0  0  0  0  0  0  0
  194.9190  173.5530  145.2680 C   0  0  0  0  0  3  0  0  0  0  0  0
  190.5510  174.2830  144.8020 C   0  0  0  0  0  0  0  0  0  0  0  0
  189.9390  173.4230  143.9450 N   0  0  0  0  0  0  0  0  0  0  0  0
  192.4810  168.9130  141.9660 O   0  0  0  0  0  1  0  0  0  0  0  0
  192.5810  172.9470  144.6920 C   0  0  0  0  0  0  0  0  0  0  0  0
  192.5350  170.9050  143.3240 C   0  0  0  0  0  3  0  0  0  0  0  0
  194.5440  177.5660  146.6660 O   0  0  0  0  0  1  0  0  0  0  0  0
  194.3220  176.2940  146.9410 O   0  0  0  0  0  0  0  0  0  0  0  0
  196.9380  175.0860  144.3870 O   0  0  0  0  0  1  0  0  0  0  0  0
  195.6800  175.6780  144.2480 C   0  0  0  0  0  2  0  0  0  0  0  0
  186.5620  177.3200  144.8900 C   0  0  0  0  0  2  0  0  0  0  0  0
  184.5750  178.7010  145.4970 C   0  0  1  0  0  3  0  0  0  0  0  0
  186.0890  178.6030  145.5610 C   0  0  2  0  0  3  0  0  0  0  0  0
  185.4230  179.5340  144.5620 C   0  0  1  0  0  3  0  0  0  0  0  0
  184.1320  178.9150  144.0620 C   0  0  0  0  0  2  0  0  0  0  0  0
  1  8  1  0  0  0  0
  2  9  1  0  0  0  0
  3 22  1  0  0  0  0
  4  3  1  0  0  0  0
  4 20  1  0  0  0  0
  5 13  1  0  0  0  0
  7 23  1  0  0  0  0
  9  6  1  0  0  0  0
 10  9  1  0  0  0  0
 10 25  1  1  0  0  0
 11 18  2  0  0  0  0
 12  7  2  0  0  0  0
 12 14  1  0  0  0  0
 13  8  2  0  0  0  0
 13  6  1  0  0  0  0
 14  4  2  0  0  0  0
 15  5  2  0  0  0  0
 15 16  1  0  0  0  0
 16  1  2  0  0  0  0
 17 18  1  0  0  0  0
 17 10  1  0  0  0  0
 19  2  1  0  0  0  0
 19  5  1  0  0  0  0
 20 19  2  0  0  0  0
 21  7  1  0  0  0  0
 22 11  1  0  0  0  0
 22  2  2  0  0  0  0
 23  3  2  0  0  0  0
 24 25  1  0  0  0  0
 27 26  1  0  0  0  0
 27 17  1  0  0  0  0
 28 16  1  0  0  0  0
 29 32  1  6  0  0  0
 29 30  1  0  0  0  0
 30 28  1  6  0  0  0
 31 32  1  6  0  0  0
 31 29  1  0  0  0  0
 31 30  1  0  0  0  0
M  END
>  <MODEL>
2

>  <REMARK>
 VINA RESULT:      -7.8      2.612      5.339
  Name = 
  4 active torsions:
  status: ('A' for Active; 'I' for Inactive)
    1  A    between atoms: C_10  and  C_19
    2  A    between atoms: O_13  and  C_15
    3  A    between atoms: C_19  and  C_24
    4  A    between atoms: C_25  and  N_26
                            x       y       z     vdW  Elec       q    Type
                         _______ _______ _______ _____ _____    ______ ____

>  <TORSDO>
F 4

$$$$
=
 OpenBabel11052421303D

 32 38  0  0  1  0  0  0  0  0999 V2000
  187.7250  176.5040  146.8160 C   0  0  0  0  0  3  0  0  0  0  0  0
  190.8400  174.4610  143.3270 C   0  0  0  0  0  0  0  0  0  0  0  0
  190.6410  173.7420  141.0130 C   0  0  0  0  0  0  0  0  0  0  0  0
  189.3340  174.2790  140.9880 C   0  0  0  0  0  0  0  0  0  0  0  0
  188.8910  175.4970  144.4740 C   0  0  0  0  0  0  0  0  0  0  0  0
  190.7350  174.4270  145.8100 C   0  0  0  0  0  2  0  0  0  0  0  0
  190.3730  173.0540  138.6950 C   0  0  0  0  0  0  0  0  0  0  0  0
  188.9170  175.7770  146.8870 C   0  0  0  0  0  3  0  0  0  0  0  0
  191.5380  174.5370  144.5880 N   0  0  0  0  0  0  0  0  0  0  0  0
  192.8280  175.2350  144.7060 C   0  0  2  0  0  3  0  0  0  0  0  0
  192.7620  173.2560  142.2320 C   0  0  0  0  0  3  0  0  0  0  0  0
  189.0830  173.5890  138.6800 C   0  0  0  0  0  3  0  0  0  0  0  0
  189.5080  175.2850  145.7210 C   0  0  0  0  0  0  0  0  0  0  0  0
  188.5660  174.2010  139.8230 C   0  0  0  0  0  3  0  0  0  0  0  0
  187.6940  176.2230  144.4090 C   0  0  0  0  0  3  0  0  0  0  0  0
  187.1150  176.7310  145.5770 C   0  0  0  0  0  0  0  0  0  0  0  0
  193.7090  175.0490  143.5520 N   0  0  0  0  0  0  0  0  0  0  0  0
  193.8030  173.8050  142.8500 C   0  0  0  0  0  3  0  0  0  0  0  0
  189.5170  174.9420  143.2580 C   0  0  0  0  0  0  0  0  0  0  0  0
  188.8130  174.8550  142.0990 N   0  0  0  0  0  0  0  0  0  0  0  0
  190.8840  172.4440  137.5580 O   0  0  0  0  0  1  0  0  0  0  0  0
  191.4090  173.8470  142.1920 C   0  0  0  0  0  0  0  0  0  0  0  0
  191.1480  173.1290  139.8540 C   0  0  0  0  0  3  0  0  0  0  0  0
  193.6690  176.0470  146.5610 O   0  0  0  0  0  1  0  0  0  0  0  0
  193.4950  174.9130  145.9070 O   0  0  0  0  0  0  0  0  0  0  0  0
  196.0000  175.5020  143.6230 O   0  0  0  0  0  1  0  0  0  0  0  0
  194.7470  176.0430  143.3320 C   0  0  0  0  0  2  0  0  0  0  0  0
  185.8370  177.4950  145.5120 C   0  0  0  0  0  2  0  0  0  0  0  0
  185.9150  179.0400  143.5550 C   0  0  1  0  0  3  0  0  0  0  0  0
  185.4060  177.7030  144.0660 C   0  0  2  0  0  3  0  0  0  0  0  0
  184.4600  178.8850  143.9380 C   0  0  1  0  0  3  0  0  0  0  0  0
  185.1940  180.1710  144.2640 C   0  0  0  0  0  2  0  0  0  0  0  0
  1  8  1  0  0  0  0
  2  9  1  0  0  0  0
  3 22  1  0  0  0  0
  4  3  1  0  0  0  0
  4 20  1  0  0  0  0
  5 13  1  0  0  0  0
  7 23  1  0  0  0  0
  9 10  1  0  0  0  0
  9  6  1  0  0  0  0
 10 25  1  1  0  0  0
 11 18  2  0  0  0  0
 12  7  2  0  0  0  0
 12 14  1  0  0  0  0
 13  6  1  0  0  0  0
 13  8  2  0  0  0  0
 14  4  2  0  0  0  0
 15  5  2  0  0  0  0
 15 16  1  0  0  0  0
 16  1  2  0  0  0  0
 17 10  1  0  0  0  0
 18 17  1  0  0  0  0
 19  2  1  0  0  0  0
 19  5  1  0  0  0  0
 20 19  2  0  0  0  0
 21  7  1  0  0  0  0
 22 11  1  0  0  0  0
 22  2  2  0  0  0  0
 23  3  2  0  0  0  0
 25 24  1  0  0  0  0
 27 17  1  0  0  0  0
 27 26  1  0  0  0  0
 28 16  1  0  0  0  0
 29 31  1  0  0  0  0
 29 30  1  0  0  0  0
 29 32  1  1  0  0  0
 30 28  1  1  0  0  0
 31 30  1  0  0  0  0
 31 32  1  1  0  0  0
M  END
>  <MODEL>
3

>  <REMARK>
 VINA RESULT:      -7.6      1.955      5.111
  Name = 
  4 active torsions:
  status: ('A' for Active; 'I' for Inactive)
    1  A    between atoms: C_10  and  C_19
    2  A    between atoms: O_13  and  C_15
    3  A    between atoms: C_19  and  C_24
    4  A    between atoms: C_25  and  N_26
                            x       y       z     vdW  Elec       q    Type
                         _______ _______ _______ _____ _____    ______ ____

>  <TORSDO>
F 4

$$$$
=
 OpenBabel11052421303D

 32 38  0  0  1  0  0  0  0  0999 V2000
  189.1660  177.4920  146.8690 C   0  0  0  0  0  3  0  0  0  0  0  0
  192.0240  174.6080  143.7780 C   0  0  0  0  0  0  0  0  0  0  0  0
  191.6130  173.1200  141.8990 C   0  0  0  0  0  0  0  0  0  0  0  0
  190.2570  173.5160  141.9180 C   0  0  0  0  0  0  0  0  0  0  0  0
  190.1290  175.8280  144.8300 C   0  0  0  0  0  0  0  0  0  0  0  0
  192.2560  175.4270  146.1130 C   0  0  0  0  0  2  0  0  0  0  0  0
  191.1290  171.6560  140.0180 C   0  0  0  0  0  0  0  0  0  0  0  0
  190.4390  176.9260  146.9740 C   0  0  0  0  0  3  0  0  0  0  0  0
  192.8690  175.1670  144.8060 N   0  0  0  0  0  0  0  0  0  0  0  0
  194.0630  175.9580  144.4690 C   0  0  2  0  0  3  0  0  0  0  0  0
  193.9220  173.2450  142.8340 C   0  0  0  0  0  3  0  0  0  0  0  0
  189.7910  172.0550  140.0450 C   0  0  0  0  0  3  0  0  0  0  0  0
  190.9280  176.1070  145.9540 C   0  0  0  0  0  0  0  0  0  0  0  0
  189.3570  172.9830  140.9920 C   0  0  0  0  0  3  0  0  0  0  0  0
  188.8510  176.3950  144.7310 C   0  0  0  0  0  3  0  0  0  0  0  0
  188.3730  177.2310  145.7470 C   0  0  0  0  0  0  0  0  0  0  0  0
  194.7990  175.4500  143.3100 N   0  0  0  0  0  0  0  0  0  0  0  0
  194.9570  174.0510  143.0520 C   0  0  0  0  0  3  0  0  0  0  0  0
  190.6540  174.9350  143.7780 C   0  0  0  0  0  0  0  0  0  0  0  0
  189.8190  174.4000  142.8480 N   0  0  0  0  0  0  0  0  0  0  0  0
  191.5590  170.7300  139.0770 O   0  0  0  0  0  1  0  0  0  0  0  0
  192.5120  173.6830  142.8300 C   0  0  0  0  0  0  0  0  0  0  0  0
  192.0360  172.1850  140.9400 C   0  0  0  0  0  3  0  0  0  0  0  0
  194.9240  177.4090  145.8680 O   0  0  0  0  0  1  0  0  0  0  0  0
  194.9200  176.1210  145.5780 O   0  0  0  0  0  0  0  0  0  0  0  0
  195.1640  176.6190  141.3200 O   0  0  0  0  0  1  0  0  0  0  0  0
  195.6630  176.3820  142.6020 C   0  0  0  0  0  2  0  0  0  0  0  0
  187.0100  177.8270  145.6500 C   0  0  0  0  0  2  0  0  0  0  0  0
  184.7290  177.2440  146.4760 C   0  0  1  0  0  3  0  0  0  0  0  0
  186.1770  177.4700  146.8740 C   0  0  2  0  0  3  0  0  0  0  0  0
  185.1300  178.5330  147.1570 C   0  0  1  0  0  3  0  0  0  0  0  0
  184.1030  178.5560  146.0410 C   0  0  0  0  0  2  0  0  0  0  0  0
  1  8  1  0  0  0  0
  2 19  1  0  0  0  0
  2  9  1  0  0  0  0
  3  4  1  0  0  0  0
  3 22  1  0  0  0  0
  4 20  1  0  0  0  0
  5 13  1  0  0  0  0
  7 12  2  0  0  0  0
  7 23  1  0  0  0  0
  9  6  1  0  0  0  0
 10  9  1  0  0  0  0
 10 25  1  1  0  0  0
 11 18  2  0  0  0  0
 12 14  1  0  0  0  0
 13  6  1  0  0  0  0
 13  8  2  0  0  0  0
 14  4  2  0  0  0  0
 15  5  2  0  0  0  0
 15 16  1  0  0  0  0
 16  1  2  0  0  0  0
 17 10  1  0  0  0  0
 18 17  1  0  0  0  0
 19  5  1  0  0  0  0
 20 19  2  0  0  0  0
 21  7  1  0  0  0  0
 22 11  1  0  0  0  0
 22  2  2  0  0  0  0
 23  3  2  0  0  0  0
 25 24  1  0  0  0  0
 26 27  1  0  0  0  0
 27 17  1  0  0  0  0
 28 16  1  0  0  0  0
 29 32  1  6  0  0  0
 29 30  1  0  0  0  0
 29 31  1  0  0  0  0
 30 28  1  6  0  0  0
 30 31  1  0  0  0  0
 31 32  1  6  0  0  0
M  END
>  <MODEL>
4

>  <REMARK>
 VINA RESULT:      -7.6      1.930      5.168
  Name = 
  4 active torsions:
  status: ('A' for Active; 'I' for Inactive)
    1  A    between atoms: C_10  and  C_19
    2  A    between atoms: O_13  and  C_15
    3  A    between atoms: C_19  and  C_24
    4  A    between atoms: C_25  and  N_26
                            x       y       z     vdW  Elec       q    Type
                         _______ _______ _______ _____ _____    ______ ____

>  <TORSDO>
F 4

$$$$
=
 OpenBabel11052421303D

 32 38  0  0  1  0  0  0  0  0999 V2000
  186.6350  177.6280  143.1530 C   0  0  0  0  0  3  0  0  0  0  0  0
  190.9680  174.9330  143.0450 C   0  0  0  0  0  0  0  0  0  0  0  0
  193.0600  174.9350  144.2830 C   0  0  0  0  0  0  0  0  0  0  0  0
  192.5080  175.8970  145.1590 C   0  0  0  0  0  0  0  0  0  0  0  0
  189.1510  176.5090  143.6780 C   0  0  0  0  0  0  0  0  0  0  0  0
  189.2390  175.5310  141.3620 C   0  0  0  0  0  2  0  0  0  0  0  0
  195.1230  174.9870  145.5730 C   0  0  0  0  0  0  0  0  0  0  0  0
  187.2710  176.8530  142.1790 C   0  0  0  0  0  3  0  0  0  0  0  0
  190.1370  174.5240  141.9380 N   0  0  0  0  0  0  0  0  0  0  0  0
  189.7580  173.1150  141.7460 C   0  0  2  0  0  3  0  0  0  0  0  0
  192.8630  173.4570  142.2850 C   0  0  0  0  0  3  0  0  0  0  0  0
  194.5660  175.9360  146.4340 C   0  0  0  0  0  3  0  0  0  0  0  0
  188.5190  176.2830  142.4420 C   0  0  0  0  0  0  0  0  0  0  0  0
  193.2620  176.3890  146.2280 C   0  0  0  0  0  3  0  0  0  0  0  0
  188.5110  177.2910  144.6500 C   0  0  0  0  0  3  0  0  0  0  0  0
  187.2520  177.8440  144.3900 C   0  0  0  0  0  0  0  0  0  0  0  0
  190.8270  172.1670  142.0650 N   0  0  0  0  0  0  0  0  0  0  0  0
  192.2020  172.4290  141.7630 C   0  0  0  0  0  3  0  0  0  0  0  0
  190.4830  175.9220  143.9230 C   0  0  0  0  0  0  0  0  0  0  0  0
  191.2500  176.3600  144.9560 N   0  0  0  0  0  0  0  0  0  0  0  0
  196.4210  174.5400  145.7780 O   0  0  0  0  0  1  0  0  0  0  0  0
  192.2770  174.4360  143.2220 C   0  0  0  0  0  0  0  0  0  0  0  0
  194.3740  174.4890  144.5040 C   0  0  0  0  0  3  0  0  0  0  0  0
  187.9500  172.6490  140.5980 O   0  0  0  0  0  1  0  0  0  0  0  0
  189.2430  172.8770  140.4550 O   0  0  0  0  0  0  0  0  0  0  0  0
  190.8130  169.9420  141.3540 O   0  0  0  0  0  1  0  0  0  0  0  0
  190.4410  170.8030  142.3880 C   0  0  0  0  0  2  0  0  0  0  0  0
  186.5740  178.6840  145.4170 C   0  0  0  0  0  2  0  0  0  0  0  0
  184.8580  177.2190  146.4830 C   0  0  1  0  0  3  0  0  0  0  0  0
  186.2270  177.8560  146.6480 C   0  0  2  0  0  3  0  0  0  0  0  0
  185.0240  178.4290  147.3760 C   0  0  1  0  0  3  0  0  0  0  0  0
  183.7840  178.2910  146.5130 C   0  0  0  0  0  2  0  0  0  0  0  0
  1 16  1  0  0  0  0
  2 22  2  0  0  0  0
  2 19  1  0  0  0  0
  3 23  2  0  0  0  0
  3  4  1  0  0  0  0
  4 14  2  0  0  0  0
  5 19  1  0  0  0  0
  5 15  1  0  0  0  0
  6  9  1  0  0  0  0
  6 13  1  0  0  0  0
  7 21  1  0  0  0  0
  7 12  2  0  0  0  0
  8 13  1  0  0  0  0
  8  1  2  0  0  0  0
  9  2  1  0  0  0  0
 10 25  1  6  0  0  0
 10  9  1  0  0  0  0
 10 17  1  0  0  0  0
 11 22  1  0  0  0  0
 13  5  2  0  0  0  0
 14 12  1  0  0  0  0
 16 15  2  0  0  0  0
 16 28  1  0  0  0  0
 17 27  1  0  0  0  0
 18 17  1  0  0  0  0
 18 11  2  0  0  0  0
 19 20  2  0  0  0  0
 20  4  1  0  0  0  0
 22  3  1  0  0  0  0
 23  7  1  0  0  0  0
 25 24  1  0  0  0  0
 26 27  1  0  0  0  0
 29 32  1  6  0  0  0
 29 30  1  0  0  0  0
 29 31  1  0  0  0  0
 30 28  1  6  0  0  0
 30 31  1  0  0  0  0
 31 32  1  6  0  0  0
M  END
>  <MODEL>
5

>  <REMARK>
 VINA RESULT:      -7.5      1.105      1.301
  Name = 
  4 active torsions:
  status: ('A' for Active; 'I' for Inactive)
    1  A    between atoms: C_10  and  C_19
    2  A    between atoms: O_13  and  C_15
    3  A    between atoms: C_19  and  C_24
    4  A    between atoms: C_25  and  N_26
                            x       y       z     vdW  Elec       q    Type
                         _______ _______ _______ _____ _____    ______ ____

>  <TORSDO>
F 4

$$$$
=
 OpenBabel11052421303D

 32 38  0  0  1  0  0  0  0  0999 V2000
  191.3450  172.8170  140.1340 C   0  0  0  0  0  3  0  0  0  0  0  0
  189.4740  176.1400  143.5270 C   0  0  0  0  0  0  0  0  0  0  0  0
  187.4510  177.4710  143.7380 C   0  0  0  0  0  0  0  0  0  0  0  0
  186.9330  176.8130  142.5990 C   0  0  0  0  0  0  0  0  0  0  0  0
  189.7430  174.5920  141.5990 C   0  0  0  0  0  0  0  0  0  0  0  0
  191.7590  175.4400  142.8430 C   0  0  0  0  0  2  0  0  0  0  0  0
  185.3960  178.7650  143.8890 C   0  0  0  0  0  0  0  0  0  0  0  0
  191.9200  173.6290  141.1160 C   0  0  0  0  0  3  0  0  0  0  0  0
  190.8180  175.7850  143.9140 N   0  0  0  0  0  0  0  0  0  0  0  0
  191.1100  175.2410  145.2500 C   0  0  2  0  0  3  0  0  0  0  0  0
  189.2880  177.8310  145.3850 C   0  0  0  0  0  3  0  0  0  0  0  0
  184.8930  178.1080  142.7640 C   0  0  0  0  0  3  0  0  0  0  0  0
  191.1240  174.5050  141.8570 C   0  0  0  0  0  0  0  0  0  0  0  0
  185.6590  177.1340  142.1220 C   0  0  0  0  0  3  0  0  0  0  0  0
  189.1720  173.7790  140.6100 C   0  0  0  0  0  3  0  0  0  0  0  0
  189.9700  172.8890  139.8830 C   0  0  0  0  0  0  0  0  0  0  0  0
  190.3280  175.8580  146.3230 N   0  0  0  0  0  0  0  0  0  0  0  0
  190.0120  177.2540  146.3390 C   0  0  0  0  0  3  0  0  0  0  0  0
  188.9260  175.5460  142.3730 C   0  0  0  0  0  0  0  0  0  0  0  0
  187.6770  175.8820  141.9540 N   0  0  0  0  0  0  0  0  0  0  0  0
  184.6330  179.7350  144.5250 O   0  0  0  0  0  1  0  0  0  0  0  0
  188.7310  177.1210  144.2170 C   0  0  0  0  0  0  0  0  0  0  0  0
  186.6670  178.4500  144.3740 C   0  0  0  0  0  3  0  0  0  0  0  0
  192.8680  174.0290  145.7480 O   0  0  0  0  0  1  0  0  0  0  0  0
  192.4890  175.2780  145.5470 O   0  0  0  0  0  0  0  0  0  0  0  0
  188.9250  174.4530  147.5540 O   0  0  0  0  0  1  0  0  0  0  0  0
  190.1620  175.1010  147.5530 C   0  0  0  0  0  2  0  0  0  0  0  0
  189.3670  172.0310  138.8250 C   0  0  0  0  0  2  0  0  0  0  0  0
  190.8630  170.9790  137.1270 C   0  0  1  0  0  3  0  0  0  0  0  0
  190.2680  170.8410  138.5170 C   0  0  2  0  0  3  0  0  0  0  0  0
  189.7190  170.0190  137.3630 C   0  0  1  0  0  3  0  0  0  0  0  0
  189.7730  170.8280  136.0820 C   0  0  0  0  0  2  0  0  0  0  0  0
  1  8  1  0  0  0  0
  2  9  1  0  0  0  0
  2 22  1  0  0  0  0
  3 22  2  0  0  0  0
  3 23  1  0  0  0  0
  4  3  1  0  0  0  0
  5 13  1  0  0  0  0
  5 19  1  0  0  0  0
  6  9  1  0  0  0  0
  7 23  2  0  0  0  0
  7 21  1  0  0  0  0
  8 13  2  0  0  0  0
  9 10  1  0  0  0  0
 10 25  1  1  0  0  0
 10 17  1  0  0  0  0
 11 18  2  0  0  0  0
 12  7  1  0  0  0  0
 13  6  1  0  0  0  0
 14  4  1  0  0  0  0
 14 12  2  0  0  0  0
 15  5  2  0  0  0  0
 16  1  2  0  0  0  0
 16 15  1  0  0  0  0
 17 18  1  0  0  0  0
 17 27  1  0  0  0  0
 19  2  2  0  0  0  0
 20 19  1  0  0  0  0
 20  4  2  0  0  0  0
 22 11  1  0  0  0  0
 25 24  1  0  0  0  0
 27 26  1  0  0  0  0
 28 16  1  0  0  0  0
 29 32  1  6  0  0  0
 29 31  1  0  0  0  0
 29 30  1  0  0  0  0
 30 28  1  6  0  0  0
 31 32  1  6  0  0  0
 31 30  1  0  0  0  0
M  END
>  <MODEL>
6

>  <REMARK>
 VINA RESULT:      -7.4      2.944      7.928
  Name = 
  4 active torsions:
  status: ('A' for Active; 'I' for Inactive)
    1  A    between atoms: C_10  and  C_19
    2  A    between atoms: O_13  and  C_15
    3  A    between atoms: C_19  and  C_24
    4  A    between atoms: C_25  and  N_26
                            x       y       z     vdW  Elec       q    Type
                         _______ _______ _______ _____ _____    ______ ____

>  <TORSDO>
F 4

$$$$
=
 OpenBabel11052421303D

 32 38  0  0  1  0  0  0  0  0999 V2000
  183.5930  178.1730  140.3790 C   0  0  0  0  0  3  0  0  0  0  0  0
  187.9160  176.6860  142.6470 C   0  0  0  0  0  0  0  0  0  0  0  0
  188.9060  176.9290  144.8540 C   0  0  0  0  0  0  0  0  0  0  0  0
  187.7020  177.5200  145.2980 C   0  0  0  0  0  0  0  0  0  0  0  0
  185.6500  177.6070  142.1970 C   0  0  0  0  0  0  0  0  0  0  0  0
  187.2560  177.1940  140.3050 C   0  0  0  0  0  2  0  0  0  0  0  0
  189.8300  177.2000  147.0890 C   0  0  0  0  0  0  0  0  0  0  0  0
  184.8550  177.7990  139.9100 C   0  0  0  0  0  3  0  0  0  0  0  0
  187.9790  176.3340  141.2480 N   0  0  0  0  0  0  0  0  0  0  0  0
  188.2310  174.9490  140.8190 C   0  0  2  0  0  3  0  0  0  0  0  0
  190.2800  175.9060  143.0410 C   0  0  0  0  0  3  0  0  0  0  0  0
  188.6350  177.7820  147.5180 C   0  0  0  0  0  3  0  0  0  0  0  0
  185.8790  177.5030  140.8120 C   0  0  0  0  0  0  0  0  0  0  0  0
  187.5730  177.9410  146.6250 C   0  0  0  0  0  3  0  0  0  0  0  0
  184.3840  177.9860  142.6630 C   0  0  0  0  0  3  0  0  0  0  0  0
  183.3550  178.2630  141.7550 C   0  0  0  0  0  0  0  0  0  0  0  0
  189.2050  174.2410  141.6520 N   0  0  0  0  0  0  0  0  0  0  0  0
  190.3630  174.8840  142.1950 C   0  0  0  0  0  3  0  0  0  0  0  0
  186.7550  177.3190  143.1320 C   0  0  0  0  0  0  0  0  0  0  0  0
  186.6730  177.7000  144.4340 N   0  0  0  0  0  0  0  0  0  0  0  0
  190.8850  177.0460  147.9780 O   0  0  0  0  0  1  0  0  0  0  0  0
  189.0100  176.4920  143.5170 C   0  0  0  0  0  0  0  0  0  0  0  0
  189.9660  176.7760  145.7650 C   0  0  0  0  0  3  0  0  0  0  0  0
  187.8720  173.8940  138.9320 O   0  0  0  0  0  1  0  0  0  0  0  0
  188.5850  174.8740  139.4560 O   0  0  0  0  0  0  0  0  0  0  0  0
  187.8890  172.3400  141.9910 O   0  0  0  0  0  1  0  0  0  0  0  0
  189.1660  172.7880  141.6430 C   0  0  0  0  0  2  0  0  0  0  0  0
  182.0100  178.6760  142.2470 C   0  0  0  0  0  2  0  0  0  0  0  0
  179.7670  179.4580  141.4820 C   0  0  1  0  0  3  0  0  0  0  0  0
  180.9850  178.6270  141.1200 C   0  0  2  0  0  3  0  0  0  0  0  0
  179.7030  177.9500  141.5720 C   0  0  1  0  0  3  0  0  0  0  0  0
  179.0130  178.7990  142.6230 C   0  0  0  0  0  2  0  0  0  0  0  0
  1 16  1  0  0  0  0
  2 19  2  0  0  0  0
  2 22  1  0  0  0  0
  3  4  1  0  0  0  0
  3 23  1  0  0  0  0
  4 14  1  0  0  0  0
  5 15  1  0  0  0  0
  5 19  1  0  0  0  0
  6 13  1  0  0  0  0
  6  9  1  0  0  0  0
  7 12  1  0  0  0  0
  7 21  1  0  0  0  0
  8  1  2  0  0  0  0
  8 13  1  0  0  0  0
  9  2  1  0  0  0  0
 10 25  1  6  0  0  0
 10  9  1  0  0  0  0
 10 17  1  0  0  0  0
 11 22  1  0  0  0  0
 13  5  2  0  0  0  0
 14 12  2  0  0  0  0
 16 28  1  0  0  0  0
 16 15  2  0  0  0  0
 17 18  1  0  0  0  0
 18 11  2  0  0  0  0
 19 20  1  0  0  0  0
 20  4  2  0  0  0  0
 22  3  2  0  0  0  0
 23  7  2  0  0  0  0
 24 25  1  0  0  0  0
 27 17  1  0  0  0  0
 27 26  1  0  0  0  0
 29 31  1  0  0  0  0
 29 32  1  1  0  0  0
 30 29  1  0  0  0  0
 30 31  1  0  0  0  0
 30 28  1  1  0  0  0
 31 32  1  1  0  0  0
M  END
>  <MODEL>
7

>  <REMARK>
 VINA RESULT:      -7.2      3.324      4.484
  Name = 
  4 active torsions:
  status: ('A' for Active; 'I' for Inactive)
    1  A    between atoms: C_10  and  C_19
    2  A    between atoms: O_13  and  C_15
    3  A    between atoms: C_19  and  C_24
    4  A    between atoms: C_25  and  N_26
                            x       y       z     vdW  Elec       q    Type
                         _______ _______ _______ _____ _____    ______ ____

>  <TORSDO>
F 4

$$$$
=
 OpenBabel11052421303D

 32 38  0  0  1  0  0  0  0  0999 V2000
  196.1830  173.9370  146.1600 C   0  0  0  0  0  3  0  0  0  0  0  0
  191.5870  174.6750  144.0670 C   0  0  0  0  0  0  0  0  0  0  0  0
  190.3240  173.6980  142.2340 C   0  0  0  0  0  0  0  0  0  0  0  0
  191.3370  172.7240  142.0910 C   0  0  0  0  0  0  0  0  0  0  0  0
  193.8260  173.7640  144.6510 C   0  0  0  0  0  0  0  0  0  0  0  0
  193.1960  176.1120  145.3010 C   0  0  0  0  0  2  0  0  0  0  0  0
  189.1120  172.6650  140.3940 C   0  0  0  0  0  0  0  0  0  0  0  0
  195.2890  175.0110  146.1370 C   0  0  0  0  0  3  0  0  0  0  0  0
  191.8110  175.6890  145.0680 N   0  0  0  0  0  0  0  0  0  0  0  0
  190.8650  175.8910  146.1770 C   0  0  2  0  0  3  0  0  0  0  0  0
  189.4010  175.7170  143.3710 C   0  0  0  0  0  3  0  0  0  0  0  0
  190.1190  171.7060  140.2630 C   0  0  0  0  0  3  0  0  0  0  0  0
  194.1070  174.9240  145.3980 C   0  0  0  0  0  0  0  0  0  0  0  0
  191.2280  171.7350  141.1100 C   0  0  0  0  0  3  0  0  0  0  0  0
  194.7290  172.6920  144.6740 C   0  0  0  0  0  3  0  0  0  0  0  0
  195.9020  172.7760  145.4320 C   0  0  0  0  0  0  0  0  0  0  0  0
  189.4610  175.7420  145.7900 N   0  0  0  0  0  0  0  0  0  0  0  0
  188.9590  176.1960  144.5290 C   0  0  0  0  0  3  0  0  0  0  0  0
  192.5870  173.7050  143.8530 C   0  0  0  0  0  0  0  0  0  0  0  0
  192.4290  172.7550  142.8930 N   0  0  0  0  0  0  0  0  0  0  0  0
  188.0110  172.6360  139.5480 O   0  0  0  0  0  1  0  0  0  0  0  0
  190.4420  174.6770  143.2430 C   0  0  0  0  0  0  0  0  0  0  0  0
  189.2130  173.6560  141.3730 C   0  0  0  0  0  3  0  0  0  0  0  0
  191.3490  176.8320  148.0960 O   0  0  0  0  0  1  0  0  0  0  0  0
  191.0770  177.1200  146.8370 O   0  0  0  0  0  0  0  0  0  0  0  0
  189.0020  174.4120  147.6560 O   0  0  0  0  0  1  0  0  0  0  0  0
  188.5040  175.4300  146.8400 C   0  0  0  0  0  2  0  0  0  0  0  0
  196.8680  171.6410  145.4500 C   0  0  0  0  0  2  0  0  0  0  0  0
  195.6010  169.7180  146.4090 C   0  0  1  0  0  3  0  0  0  0  0  0
  196.1630  170.3270  145.1370 C   0  0  2  0  0  3  0  0  0  0  0  0
  196.8650  169.1540  145.7990 C   0  0  1  0  0  3  0  0  0  0  0  0
  196.7360  169.2600  147.3070 C   0  0  0  0  0  2  0  0  0  0  0  0
  2  9  1  0  0  0  0
  3 22  1  0  0  0  0
  4  3  1  0  0  0  0
  4 20  1  0  0  0  0
  5 15  2  0  0  0  0
  5 13  1  0  0  0  0
  6 13  1  0  0  0  0
  7 23  1  0  0  0  0
  8  1  1  0  0  0  0
  9  6  1  0  0  0  0
  9 10  1  0  0  0  0
 10 25  1  6  0  0  0
 11 18  2  0  0  0  0
 12  7  2  0  0  0  0
 12 14  1  0  0  0  0
 13  8  2  0  0  0  0
 14  4  2  0  0  0  0
 15 16  1  0  0  0  0
 16 28  1  0  0  0  0
 16  1  2  0  0  0  0
 17 10  1  0  0  0  0
 17 27  1  0  0  0  0
 18 17  1  0  0  0  0
 19  2  1  0  0  0  0
 19  5  1  0  0  0  0
 20 19  2  0  0  0  0
 21  7  1  0  0  0  0
 22 11  1  0  0  0  0
 22  2  2  0  0  0  0
 23  3  2  0  0  0  0
 25 24  1  0  0  0  0
 27 26  1  0  0  0  0
 29 32  1  1  0  0  0
 30 28  1  1  0  0  0
 30 31  1  0  0  0  0
 30 29  1  0  0  0  0
 31 29  1  0  0  0  0
 31 32  1  1  0  0  0
M  END
>  <MODEL>
8

>  <REMARK>
 VINA RESULT:      -7.0      3.234      8.457
  Name = 
  4 active torsions:
  status: ('A' for Active; 'I' for Inactive)
    1  A    between atoms: C_10  and  C_19
    2  A    between atoms: O_13  and  C_15
    3  A    between atoms: C_19  and  C_24
    4  A    between atoms: C_25  and  N_26
                            x       y       z     vdW  Elec       q    Type
                         _______ _______ _______ _____ _____    ______ ____

>  <TORSDO>
F 4

$$$$
=
 OpenBabel11052421303D

 32 38  0  0  1  0  0  0  0  0999 V2000
  193.2070  173.4460  143.6050 C   0  0  0  0  0  3  0  0  0  0  0  0
  188.6990  175.7810  144.1300 C   0  0  0  0  0  0  0  0  0  0  0  0
  187.6550  177.2140  145.7940 C   0  0  0  0  0  0  0  0  0  0  0  0
  188.8870  177.2610  146.4850 C   0  0  0  0  0  0  0  0  0  0  0  0
  191.0470  175.0240  144.4450 C   0  0  0  0  0  0  0  0  0  0  0  0
  189.4810  173.7340  142.9570 C   0  0  0  0  0  2  0  0  0  0  0  0
  186.6780  178.6530  147.4950 C   0  0  0  0  0  0  0  0  0  0  0  0
  191.9360  173.2330  143.0640 C   0  0  0  0  0  3  0  0  0  0  0  0
  188.6580  174.9480  142.9520 N   0  0  0  0  0  0  0  0  0  0  0  0
  188.3090  175.5030  141.6340 C   0  0  2  0  0  3  0  0  0  0  0  0
  186.2680  176.3980  143.8880 C   0  0  0  0  0  3  0  0  0  0  0  0
  187.9010  178.6940  148.1690 C   0  0  0  0  0  3  0  0  0  0  0  0
  190.8600  174.0260  143.4700 C   0  0  0  0  0  0  0  0  0  0  0  0
  189.0020  178.0010  147.6650 C   0  0  0  0  0  3  0  0  0  0  0  0
  192.3230  175.2300  144.9880 C   0  0  0  0  0  3  0  0  0  0  0  0
  193.4030  174.4460  144.5640 C   0  0  0  0  0  0  0  0  0  0  0  0
  187.2520  176.5150  141.6810 N   0  0  0  0  0  0  0  0  0  0  0  0
  186.1320  176.4160  142.5660 C   0  0  0  0  0  3  0  0  0  0  0  0
  189.8900  175.8290  144.8810 C   0  0  0  0  0  0  0  0  0  0  0  0
  189.9570  176.5730  146.0170 N   0  0  0  0  0  0  0  0  0  0  0  0
  185.5840  179.3410  148.0000 O   0  0  0  0  0  1  0  0  0  0  0  0
  187.5630  176.4770  144.5940 C   0  0  0  0  0  0  0  0  0  0  0  0
  186.5550  177.9170  146.3140 C   0  0  0  0  0  3  0  0  0  0  0  0
  188.9310  174.5410  139.7660 O   0  0  0  0  0  1  0  0  0  0  0  0
  187.9990  174.4930  140.7000 O   0  0  0  0  0  0  0  0  0  0  0  0
  185.9600  178.1450  140.6160 O   0  0  0  0  0  1  0  0  0  0  0  0
  187.1740  177.4560  140.5750 C   0  0  0  0  0  2  0  0  0  0  0  0
  194.7580  174.6560  145.1460 C   0  0  0  0  0  2  0  0  0  0  0  0
  196.3380  172.7540  145.4780 C   0  0  1  0  0  3  0  0  0  0  0  0
  195.7800  173.7480  144.4740 C   0  0  2  0  0  3  0  0  0  0  0  0
  197.1660  173.9490  145.0620 C   0  0  1  0  0  3  0  0  0  0  0  0
  197.1890  173.4800  146.5040 C   0  0  0  0  0  2  0  0  0  0  0  0
  1 16  1  0  0  0  0
  2 22  2  0  0  0  0
  2 19  1  0  0  0  0
  3 23  2  0  0  0  0
  3  4  1  0  0  0  0
  4 14  2  0  0  0  0
  5 19  1  0  0  0  0
  5 15  1  0  0  0  0
  6 13  1  0  0  0  0
  7 21  1  0  0  0  0
  7 12  2  0  0  0  0
  8 13  1  0  0  0  0
  8  1  2  0  0  0  0
  9  6  1  0  0  0  0
  9  2  1  0  0  0  0
 10 25  1  6  0  0  0
 10 17  1  0  0  0  0
 10  9  1  0  0  0  0
 11 22  1  0  0  0  0
 13  5  2  0  0  0  0
 14 12  1  0  0  0  0
 16 15  2  0  0  0  0
 16 28  1  0  0  0  0
 17 18  1  0  0  0  0
 18 11  2  0  0  0  0
 19 20  2  0  0  0  0
 20  4  1  0  0  0  0
 22  3  1  0  0  0  0
 23  7  1  0  0  0  0
 24 25  1  0  0  0  0
 27 26  1  0  0  0  0
 27 17  1  0  0  0  0
 29 32  1  1  0  0  0
 30 31  1  0  0  0  0
 30 28  1  1  0  0  0
 30 29  1  0  0  0  0
 31 29  1  0  0  0  0
 31 32  1  1  0  0  0
M  END
>  <MODEL>
9

>  <REMARK>
 VINA RESULT:      -6.7      2.728      7.150
  Name = 
  4 active torsions:
  status: ('A' for Active; 'I' for Inactive)
    1  A    between atoms: C_10  and  C_19
    2  A    between atoms: O_13  and  C_15
    3  A    between atoms: C_19  and  C_24
    4  A    between atoms: C_25  and  N_26
                            x       y       z     vdW  Elec       q    Type
                         _______ _______ _______ _____ _____    ______ ____

>  <TORSDO>
F 4

$$$$
