=
 OpenBabel11052419053D

 32 35  0  0  1  0  0  0  0  0999 V2000
  189.1050  174.8690  144.6140 O   0  0  0  0  0  0  0  0  0  0  0  0
  189.6880  176.0230  145.1700 C   0  0  1  0  0  3  0  0  0  0  0  0
  187.5970  176.6180  142.9820 O   0  0  0  0  0  0  0  0  0  0  0  0
  186.3300  177.5740  147.7450 C   0  0  0  0  0  3  0  0  0  0  0  0
  188.8950  177.3240  144.9230 C   0  0  1  0  0  3  0  0  0  0  0  0
  185.1510  177.1570  145.6740 C   0  0  0  0  0  3  0  0  0  0  0  0
  186.3660  177.1410  144.9840 C   0  0  0  0  0  0  0  0  0  0  0  0
  188.5910  177.5170  143.4150 C   0  0  1  0  0  3  0  0  0  0  0  0
  190.0450  174.3510  143.7770 N   0  0  0  0  0  0  0  0  0  0  0  0
  186.3680  177.0880  143.4820 C   0  0  0  0  0  2  0  0  0  0  0  0
  189.9030  174.9730  142.4620 C   0  0  0  0  0  2  0  0  0  0  0  0
  189.7220  172.9460  143.6090 C   0  0  0  0  0  1  0  0  0  0  0  0
  189.7900  177.5320  142.4530 C   0  0  0  0  0  2  0  0  0  0  0  0
  187.5800  177.3400  145.6750 C   0  0  0  0  0  0  0  0  0  0  0  0
  190.6820  176.2840  142.4370 C   0  0  0  0  0  2  0  0  0  0  0  0
  185.1340  177.3600  147.0550 C   0  0  0  0  0  3  0  0  0  0  0  0
  187.5460  177.5720  147.0550 C   0  0  0  0  0  3  0  0  0  0  0  0
  190.0880  174.8260  147.2490 O   0  0  0  0  0  1  0  0  0  0  0  0
  190.5830  175.8410  146.4270 C   0  0  1  0  0  0  0  0  0  0  0  0
  194.1500  176.0810  145.0130 C   0  0  0  0  0  3  0  0  0  0  0  0
  193.9030  173.9400  146.0960 C   0  0  0  0  0  3  0  0  0  0  0  0
  192.0150  175.4850  146.0290 C   0  0  0  0  0  0  0  0  0  0  0  0
  194.6990  174.8490  145.3880 C   0  0  0  0  0  0  0  0  0  0  0  0
  192.5820  174.2570  146.4160 C   0  0  0  0  0  3  0  0  0  0  0  0
  192.8290  176.4060  145.3310 C   0  0  0  0  0  0  0  0  0  0  0  0
  192.3420  177.6510  144.9550 O   0  0  0  0  0  1  0  0  0  0  0  0
  196.9140  173.6340  145.9330 C   0  0  0  0  0  1  0  0  0  0  0  0
  196.6400  174.9840  143.9730 N   0  0  0  0  0  2  0  0  0  0  0  0
  196.0990  174.5150  145.0490 C   0  0  0  0  0  0  0  0  0  0  0  0
  190.5540  177.1570  147.2290 C   0  0  0  0  0  2  0  0  0  0  0  0
  191.4200  177.1370  148.4860 C   0  0  0  0  0  2  0  0  0  0  0  0
  191.0650  178.2960  149.3960 C   0  0  0  0  0  1  0  0  0  0  0  0
  1  2  1  0  0  0  0
  2 19  1  1  0  0  0
  3  8  1  0  0  0  0
  3 10  1  0  0  0  0
  5  2  1  0  0  0  0
  5 14  1  1  0  0  0
  6 16  2  0  0  0  0
  7  6  1  0  0  0  0
  7 14  2  0  0  0  0
  8 13  1  6  0  0  0
  8  5  1  0  0  0  0
  9  1  1  0  0  0  0
 10  7  1  0  0  0  0
 11  9  1  0  0  0  0
 12  9  1  0  0  0  0
 14 17  1  0  0  0  0
 15 13  1  0  0  0  0
 15 11  1  0  0  0  0
 16  4  1  0  0  0  0
 17  4  2  0  0  0  0
 19 30  1  0  0  0  0
 19 18  1  1  0  0  0
 20 25  2  0  0  0  0
 20 23  1  0  0  0  0
 21 24  1  0  0  0  0
 22 24  2  0  0  0  0
 22 19  1  0  0  0  0
 23 21  2  0  0  0  0
 25 22  1  0  0  0  0
 26 25  1  0  0  0  0
 28 29  2  0  0  0  0
 29 23  1  0  0  0  0
 29 27  1  0  0  0  0
 30 31  1  0  0  0  0
 31 32  1  0  0  0  0
M  END
>  <MODEL>
1

>  <REMARK>
 VINA RESULT:      -7.8      0.000      0.000
  Name = 
  5 active torsions:
  status: ('A' for Active; 'I' for Inactive)
    1  A    between atoms: C_1  and  C_4
    2  A    between atoms: C_1  and  C_27
    3  A    between atoms: C_5  and  C_27
    4  A    between atoms: C_16  and  C_27
    5  A    between atoms: C_19  and  C_26
                            x       y       z     vdW  Elec       q    Type
                         _______ _______ _______ _____ _____    ______ ____

>  <TORSDO>
F 5

$$$$
=
 OpenBabel11052419053D

 32 35  0  0  1  0  0  0  0  0999 V2000
  187.3570  175.5440  143.6900 O   0  0  0  0  0  0  0  0  0  0  0  0
  188.2530  176.4350  144.3110 C   0  0  1  0  0  3  0  0  0  0  0  0
  186.1070  177.8290  142.5880 O   0  0  0  0  0  0  0  0  0  0  0  0
  185.6780  178.1670  147.5790 C   0  0  0  0  0  3  0  0  0  0  0  0
  187.7570  177.8950  144.3840 C   0  0  1  0  0  3  0  0  0  0  0  0
  184.1940  178.3770  145.6810 C   0  0  0  0  0  3  0  0  0  0  0  0
  185.2800  178.2320  144.8130 C   0  0  0  0  0  0  0  0  0  0  0  0
  187.3260  178.4110  142.9880 C   0  0  1  0  0  3  0  0  0  0  0  0
  188.0460  175.0000  142.6500 N   0  0  0  0  0  0  0  0  0  0  0  0
  185.0890  178.4470  143.3380 C   0  0  0  0  0  2  0  0  0  0  0  0
  187.8930  175.8600  141.4790 C   0  0  0  0  0  2  0  0  0  0  0  0
  187.3900  173.7450  142.3310 C   0  0  0  0  0  1  0  0  0  0  0  0
  188.3720  178.3470  141.8620 C   0  0  0  0  0  2  0  0  0  0  0  0
  186.5810  178.0500  145.3270 C   0  0  0  0  0  0  0  0  0  0  0  0
  188.9440  176.9650  141.5240 C   0  0  0  0  0  2  0  0  0  0  0  0
  184.3910  178.3310  147.0620 C   0  0  0  0  0  3  0  0  0  0  0  0
  186.7680  178.0360  146.7150 C   0  0  0  0  0  3  0  0  0  0  0  0
  188.5240  175.2840  146.4370 O   0  0  0  0  0  1  0  0  0  0  0  0
  189.2270  175.8520  145.3720 C   0  0  1  0  0  0  0  0  0  0  0  0
  192.0540  174.1290  143.4170 C   0  0  0  0  0  3  0  0  0  0  0  0
  190.7560  172.4300  144.5350 C   0  0  0  0  0  3  0  0  0  0  0  0
  190.1220  174.7770  144.7560 C   0  0  0  0  0  0  0  0  0  0  0  0
  191.8310  172.7770  143.7070 C   0  0  0  0  0  0  0  0  0  0  0  0
  189.9180  173.4170  145.0560 C   0  0  0  0  0  3  0  0  0  0  0  0
  191.2190  175.1220  143.9350 C   0  0  0  0  0  0  0  0  0  0  0  0
  191.4990  176.4490  143.6340 O   0  0  0  0  0  1  0  0  0  0  0  0
  192.5030  170.2930  143.4730 C   0  0  0  0  0  1  0  0  0  0  0  0
  193.7040  172.0550  142.3810 N   0  0  0  0  0  2  0  0  0  0  0  0
  192.7200  171.7330  143.1540 C   0  0  0  0  0  0  0  0  0  0  0  0
  190.0770  177.0110  145.9290 C   0  0  0  0  0  2  0  0  0  0  0  0
  190.5430  176.8040  147.3680 C   0  0  0  0  0  2  0  0  0  0  0  0
  191.9890  176.3520  147.4000 C   0  0  0  0  0  1  0  0  0  0  0  0
  1  2  1  0  0  0  0
  2  5  1  0  0  0  0
  2 19  1  1  0  0  0
  3  8  1  0  0  0  0
  3 10  1  0  0  0  0
  5 14  1  1  0  0  0
  6 16  2  0  0  0  0
  7 14  2  0  0  0  0
  7  6  1  0  0  0  0
  8 13  1  6  0  0  0
  8  5  1  0  0  0  0
  9  1  1  0  0  0  0
 10  7  1  0  0  0  0
 11 15  1  0  0  0  0
 11  9  1  0  0  0  0
 12  9  1  0  0  0  0
 14 17  1  0  0  0  0
 15 13  1  0  0  0  0
 16  4  1  0  0  0  0
 17  4  2  0  0  0  0
 19 30  1  0  0  0  0
 19 18  1  1  0  0  0
 20 23  2  0  0  0  0
 20 25  1  0  0  0  0
 21 24  2  0  0  0  0
 22 24  1  0  0  0  0
 22 19  1  0  0  0  0
 23 21  1  0  0  0  0
 25 22  2  0  0  0  0
 26 25  1  0  0  0  0
 28 29  2  0  0  0  0
 29 27  1  0  0  0  0
 29 23  1  0  0  0  0
 30 31  1  0  0  0  0
 31 32  1  0  0  0  0
M  END
>  <MODEL>
2

>  <REMARK>
 VINA RESULT:      -7.4      2.296      2.620
  Name = 
  5 active torsions:
  status: ('A' for Active; 'I' for Inactive)
    1  A    between atoms: C_1  and  C_4
    2  A    between atoms: C_1  and  C_27
    3  A    between atoms: C_5  and  C_27
    4  A    between atoms: C_16  and  C_27
    5  A    between atoms: C_19  and  C_26
                            x       y       z     vdW  Elec       q    Type
                         _______ _______ _______ _____ _____    ______ ____

>  <TORSDO>
F 5

$$$$
=
 OpenBabel11052419053D

 32 35  0  0  1  0  0  0  0  0999 V2000
  191.0950  174.9890  143.0880 O   0  0  0  0  0  0  0  0  0  0  0  0
  191.4870  174.8010  144.4270 C   0  0  1  0  0  3  0  0  0  0  0  0
  192.3160  172.4950  142.5530 O   0  0  0  0  0  0  0  0  0  0  0  0
  195.9180  175.5880  144.1870 C   0  0  0  0  0  3  0  0  0  0  0  0
  192.5970  173.7480  144.6280 C   0  0  1  0  0  3  0  0  0  0  0  0
  195.6300  174.0710  142.3250 C   0  0  0  0  0  3  0  0  0  0  0  0
  194.4050  173.6530  142.8520 C   0  0  0  0  0  0  0  0  0  0  0  0
  192.2220  172.4020  143.9560 C   0  0  1  0  0  3  0  0  0  0  0  0
  189.7600  174.7260  143.0570 N   0  0  0  0  0  0  0  0  0  0  0  0
  193.6860  172.4890  142.2300 C   0  0  0  0  0  2  0  0  0  0  0  0
  189.5640  173.2940  142.8410 C   0  0  0  0  0  2  0  0  0  0  0  0
  189.2330  175.3980  141.8840 C   0  0  0  0  0  1  0  0  0  0  0  0
  190.8990  171.7470  144.3860 C   0  0  0  0  0  2  0  0  0  0  0  0
  193.9250  174.2050  144.0580 C   0  0  0  0  0  0  0  0  0  0  0  0
  189.6200  172.5690  144.1820 C   0  0  0  0  0  2  0  0  0  0  0  0
  196.3790  175.0480  142.9840 C   0  0  0  0  0  3  0  0  0  0  0  0
  194.7000  175.1620  144.7240 C   0  0  0  0  0  3  0  0  0  0  0  0
  192.0360  177.1100  144.9570 O   0  0  0  0  0  1  0  0  0  0  0  0
  191.3150  176.0000  145.4000 C   0  0  1  0  0  0  0  0  0  0  0  0
  187.6280  176.0750  146.4880 C   0  0  0  0  0  3  0  0  0  0  0  0
  188.0220  177.9350  145.0030 C   0  0  0  0  0  3  0  0  0  0  0  0
  189.8440  176.3950  145.5220 C   0  0  0  0  0  0  0  0  0  0  0  0
  187.1460  177.2040  145.8140 C   0  0  0  0  0  0  0  0  0  0  0  0
  189.3530  177.5380  144.8630 C   0  0  0  0  0  3  0  0  0  0  0  0
  188.9590  175.6730  146.3540 C   0  0  0  0  0  0  0  0  0  0  0  0
  189.3910  174.5590  147.0630 O   0  0  0  0  0  1  0  0  0  0  0  0
  185.2730  178.9530  145.4710 C   0  0  0  0  0  1  0  0  0  0  0  0
  184.8760  176.8370  146.5240 N   0  0  0  0  0  2  0  0  0  0  0  0
  185.7350  177.6230  145.9630 C   0  0  0  0  0  0  0  0  0  0  0  0
  191.8800  175.5840  146.7730 C   0  0  0  0  0  2  0  0  0  0  0  0
  192.4810  176.7390  147.5720 C   0  0  0  0  0  2  0  0  0  0  0  0
  191.5130  177.2090  148.6390 C   0  0  0  0  0  1  0  0  0  0  0  0
  1  2  1  0  0  0  0
  2  5  1  0  0  0  0
  2 19  1  6  0  0  0
  3  8  1  0  0  0  0
  4 17  1  0  0  0  0
  5 14  1  6  0  0  0
  6  7  2  0  0  0  0
  6 16  1  0  0  0  0
  7 14  1  0  0  0  0
  8 13  1  6  0  0  0
  8  5  1  0  0  0  0
  9  1  1  0  0  0  0
 10  3  1  0  0  0  0
 10  7  1  0  0  0  0
 11  9  1  0  0  0  0
 11 15  1  0  0  0  0
 12  9  1  0  0  0  0
 14 17  2  0  0  0  0
 15 13  1  0  0  0  0
 16  4  2  0  0  0  0
 19 18  1  6  0  0  0
 19 22  1  0  0  0  0
 19 30  1  0  0  0  0
 21 23  1  0  0  0  0
 22 25  2  0  0  0  0
 23 29  1  0  0  0  0
 23 20  2  0  0  0  0
 24 21  2  0  0  0  0
 24 22  1  0  0  0  0
 25 20  1  0  0  0  0
 25 26  1  0  0  0  0
 27 29  1  0  0  0  0
 29 28  2  0  0  0  0
 30 31  1  0  0  0  0
 31 32  1  0  0  0  0
M  END
>  <MODEL>
3

>  <REMARK>
 VINA RESULT:      -7.2      2.120      6.913
  Name = 
  5 active torsions:
  status: ('A' for Active; 'I' for Inactive)
    1  A    between atoms: C_1  and  C_4
    2  A    between atoms: C_1  and  C_27
    3  A    between atoms: C_5  and  C_27
    4  A    between atoms: C_16  and  C_27
    5  A    between atoms: C_19  and  C_26
                            x       y       z     vdW  Elec       q    Type
                         _______ _______ _______ _____ _____    ______ ____

>  <TORSDO>
F 5

$$$$
=
 OpenBabel11052419053D

 32 35  0  0  1  0  0  0  0  0999 V2000
  190.3290  175.0600  142.5880 O   0  0  0  0  0  0  0  0  0  0  0  0
  191.1900  174.8550  143.6820 C   0  0  1  0  0  3  0  0  0  0  0  0
  191.5200  172.7710  141.4320 O   0  0  0  0  0  0  0  0  0  0  0  0
  195.1390  176.2070  141.9850 C   0  0  0  0  0  3  0  0  0  0  0  0
  192.3980  173.9420  143.3850 C   0  0  1  0  0  3  0  0  0  0  0  0
  194.3580  174.7630  140.2080 C   0  0  0  0  0  3  0  0  0  0  0  0
  193.4510  174.1670  141.0880 C   0  0  0  0  0  0  0  0  0  0  0  0
  191.9440  172.5960  142.7640 C   0  0  1  0  0  3  0  0  0  0  0  0
  189.1050  174.6320  143.0010 N   0  0  0  0  0  0  0  0  0  0  0  0
  192.6780  172.9550  140.6520 C   0  0  0  0  0  2  0  0  0  0  0  0
  188.9880  173.2000  142.7350 C   0  0  0  0  0  2  0  0  0  0  0  0
  188.1280  175.2920  142.1540 C   0  0  0  0  0  1  0  0  0  0  0  0
  190.9350  171.7580  143.5660 C   0  0  0  0  0  2  0  0  0  0  0  0
  193.3810  174.5920  142.4320 C   0  0  0  0  0  0  0  0  0  0  0  0
  189.5920  172.4200  143.8990 C   0  0  0  0  0  2  0  0  0  0  0  0
  195.1920  175.7910  140.6520 C   0  0  0  0  0  3  0  0  0  0  0  0
  194.2430  175.6030  142.8710 C   0  0  0  0  0  3  0  0  0  0  0  0
  191.8860  177.1130  144.2590 O   0  0  0  0  0  1  0  0  0  0  0  0
  191.2590  175.9710  144.7620 C   0  0  1  0  0  0  0  0  0  0  0  0
  187.9040  175.9660  146.6410 C   0  0  0  0  0  3  0  0  0  0  0  0
  187.9940  177.9330  145.2480 C   0  0  0  0  0  3  0  0  0  0  0  0
  189.8580  176.3570  145.2350 C   0  0  0  0  0  0  0  0  0  0  0  0
  187.3050  177.1430  146.1760 C   0  0  0  0  0  0  0  0  0  0  0  0
  189.2540  177.5470  144.7880 C   0  0  0  0  0  3  0  0  0  0  0  0
  189.1660  175.5740  146.1860 C   0  0  0  0  0  0  0  0  0  0  0  0
  189.7240  174.4090  146.6970 O   0  0  0  0  0  1  0  0  0  0  0  0
  185.7720  178.8550  147.3590 C   0  0  0  0  0  1  0  0  0  0  0  0
  184.9490  176.7770  146.4950 N   0  0  0  0  0  2  0  0  0  0  0  0
  185.9700  177.5500  146.6650 C   0  0  0  0  0  0  0  0  0  0  0  0
  192.1030  175.4450  145.9390 C   0  0  0  0  0  2  0  0  0  0  0  0
  193.1160  176.4530  146.4760 C   0  0  0  0  0  2  0  0  0  0  0  0
  194.5150  175.8710  146.4420 C   0  0  0  0  0  1  0  0  0  0  0  0
  1  9  1  0  0  0  0
  1  2  1  0  0  0  0
  2 19  1  6  0  0  0
  3  8  1  0  0  0  0
  4 17  1  0  0  0  0
  5 14  1  6  0  0  0
  5  2  1  0  0  0  0
  6 16  1  0  0  0  0
  6  7  2  0  0  0  0
  7 14  1  0  0  0  0
  8  5  1  0  0  0  0
  8 13  1  1  0  0  0
 10  7  1  0  0  0  0
 10  3  1  0  0  0  0
 11  9  1  0  0  0  0
 11 15  1  0  0  0  0
 12  9  1  0  0  0  0
 13 15  1  0  0  0  0
 14 17  2  0  0  0  0
 16  4  2  0  0  0  0
 19 18  1  6  0  0  0
 19 22  1  0  0  0  0
 19 30  1  0  0  0  0
 21 23  1  0  0  0  0
 22 25  2  0  0  0  0
 23 20  2  0  0  0  0
 23 29  1  0  0  0  0
 24 22  1  0  0  0  0
 24 21  2  0  0  0  0
 25 20  1  0  0  0  0
 25 26  1  0  0  0  0
 28 29  2  0  0  0  0
 29 27  1  0  0  0  0
 30 31  1  0  0  0  0
 32 31  1  0  0  0  0
M  END
>  <MODEL>
4

>  <REMARK>
 VINA RESULT:      -7.2      2.517      6.860
  Name = 
  5 active torsions:
  status: ('A' for Active; 'I' for Inactive)
    1  A    between atoms: C_1  and  C_4
    2  A    between atoms: C_1  and  C_27
    3  A    between atoms: C_5  and  C_27
    4  A    between atoms: C_16  and  C_27
    5  A    between atoms: C_19  and  C_26
                            x       y       z     vdW  Elec       q    Type
                         _______ _______ _______ _____ _____    ______ ____

>  <TORSDO>
F 5

$$$$
=
 OpenBabel11052419053D

 32 35  0  0  1  0  0  0  0  0999 V2000
  190.5530  175.8600  143.1710 O   0  0  0  0  0  0  0  0  0  0  0  0
  189.7190  175.0860  144.0010 C   0  0  1  0  0  3  0  0  0  0  0  0
  188.6290  175.4540  141.1390 O   0  0  0  0  0  0  0  0  0  0  0  0
  190.4410  170.9410  142.3880 C   0  0  0  0  0  3  0  0  0  0  0  0
  188.6850  174.2250  143.2460 C   0  0  1  0  0  3  0  0  0  0  0  0
  190.0510  172.1590  140.3350 C   0  0  0  0  0  3  0  0  0  0  0  0
  189.4490  173.1910  141.0590 C   0  0  0  0  0  0  0  0  0  0  0  0
  187.8560  175.0830  142.2570 C   0  0  1  0  0  3  0  0  0  0  0  0
  190.3640  177.1490  143.5640 N   0  0  0  0  0  0  0  0  0  0  0  0
  188.7590  174.3090  140.3300 C   0  0  0  0  0  2  0  0  0  0  0  0
  189.2310  177.7070  142.8290 C   0  0  0  0  0  2  0  0  0  0  0  0
  191.5390  177.8880  143.1380 C   0  0  0  0  0  1  0  0  0  0  0  0
  187.0980  176.2880  142.8380 C   0  0  0  0  0  2  0  0  0  0  0  0
  189.3410  173.1050  142.4630 C   0  0  0  0  0  0  0  0  0  0  0  0
  187.9360  177.3540  143.5540 C   0  0  0  0  0  2  0  0  0  0  0  0
  190.5590  171.0420  140.9990 C   0  0  0  0  0  3  0  0  0  0  0  0
  189.8270  171.9650  143.1140 C   0  0  0  0  0  3  0  0  0  0  0  0
  189.7550  173.4260  145.7780 O   0  0  0  0  0  1  0  0  0  0  0  0
  190.2820  174.6580  145.3850 C   0  0  1  0  0  0  0  0  0  0  0  0
  194.0210  175.4060  145.8740 C   0  0  0  0  0  3  0  0  0  0  0  0
  193.8080  173.2470  144.8210 C   0  0  0  0  0  3  0  0  0  0  0  0
  191.8050  174.5410  145.3410 C   0  0  0  0  0  0  0  0  0  0  0  0
  194.6230  174.2590  145.3420 C   0  0  0  0  0  0  0  0  0  0  0  0
  192.4190  173.3850  144.8250 C   0  0  0  0  0  3  0  0  0  0  0  0
  192.6310  175.5510  145.8830 C   0  0  0  0  0  0  0  0  0  0  0  0
  192.0860  176.6980  146.4440 O   0  0  0  0  0  1  0  0  0  0  0  0
  196.7630  173.0490  146.1380 C   0  0  0  0  0  1  0  0  0  0  0  0
  196.8270  174.9160  144.6370 N   0  0  0  0  0  2  0  0  0  0  0  0
  196.0940  174.1150  145.3390 C   0  0  0  0  0  0  0  0  0  0  0  0
  189.8490  175.7120  146.4230 C   0  0  0  0  0  2  0  0  0  0  0  0
  188.5620  175.3600  147.1660 C   0  0  0  0  0  2  0  0  0  0  0  0
  187.4890  176.3950  146.8930 C   0  0  0  0  0  1  0  0  0  0  0  0
  1  9  1  0  0  0  0
  1  2  1  0  0  0  0
  2 19  1  6  0  0  0
  3  8  1  0  0  0  0
  4 17  1  0  0  0  0
  5 14  1  6  0  0  0
  5  2  1  0  0  0  0
  6 16  1  0  0  0  0
  6  7  2  0  0  0  0
  7 14  1  0  0  0  0
  8 13  1  1  0  0  0
  8  5  1  0  0  0  0
 10  7  1  0  0  0  0
 10  3  1  0  0  0  0
 11 15  1  0  0  0  0
 11  9  1  0  0  0  0
 12  9  1  0  0  0  0
 13 15  1  0  0  0  0
 14 17  2  0  0  0  0
 16  4  2  0  0  0  0
 19 18  1  1  0  0  0
 19 30  1  0  0  0  0
 20 25  1  0  0  0  0
 21 24  2  0  0  0  0
 21 23  1  0  0  0  0
 22 19  1  0  0  0  0
 22 25  2  0  0  0  0
 23 20  2  0  0  0  0
 24 22  1  0  0  0  0
 25 26  1  0  0  0  0
 28 29  2  0  0  0  0
 29 23  1  0  0  0  0
 29 27  1  0  0  0  0
 30 31  1  0  0  0  0
 32 31  1  0  0  0  0
M  END
>  <MODEL>
5

>  <REMARK>
 VINA RESULT:      -7.1      1.795      4.244
  Name = 
  5 active torsions:
  status: ('A' for Active; 'I' for Inactive)
    1  A    between atoms: C_1  and  C_4
    2  A    between atoms: C_1  and  C_27
    3  A    between atoms: C_5  and  C_27
    4  A    between atoms: C_16  and  C_27
    5  A    between atoms: C_19  and  C_26
                            x       y       z     vdW  Elec       q    Type
                         _______ _______ _______ _____ _____    ______ ____

>  <TORSDO>
F 5

$$$$
=
 OpenBabel11052419053D

 32 35  0  0  1  0  0  0  0  0999 V2000
  191.2710  176.4000  144.5560 O   0  0  0  0  0  0  0  0  0  0  0  0
  190.5860  175.1850  144.3700 C   0  0  1  0  0  3  0  0  0  0  0  0
  188.9520  177.3140  145.8900 O   0  0  0  0  0  0  0  0  0  0  0  0
  187.6330  176.2980  141.1530 C   0  0  0  0  0  3  0  0  0  0  0  0
  189.0560  175.2780  144.5500 C   0  0  1  0  0  3  0  0  0  0  0  0
  187.3350  178.1400  142.6920 C   0  0  0  0  0  3  0  0  0  0  0  0
  187.9410  177.3940  143.7060 C   0  0  0  0  0  0  0  0  0  0  0  0
  188.6900  175.9300  145.9080 C   0  0  1  0  0  3  0  0  0  0  0  0
  192.1660  176.1660  145.5540 N   0  0  0  0  0  0  0  0  0  0  0  0
  187.9410  177.9150  145.1160 C   0  0  0  0  0  2  0  0  0  0  0  0
  191.5180  176.4160  146.8400 C   0  0  0  0  0  2  0  0  0  0  0  0
  193.2110  177.1650  145.4150 C   0  0  0  0  0  1  0  0  0  0  0  0
  189.2520  175.2710  147.1780 C   0  0  0  0  0  2  0  0  0  0  0  0
  188.4020  176.0860  143.4480 C   0  0  0  0  0  0  0  0  0  0  0  0
  190.7780  175.1580  147.2840 C   0  0  0  0  0  2  0  0  0  0  0  0
  187.1940  177.5980  141.4140 C   0  0  0  0  0  3  0  0  0  0  0  0
  188.2260  175.5430  142.1690 C   0  0  0  0  0  3  0  0  0  0  0  0
  191.4050  174.6510  142.1430 O   0  0  0  0  0  1  0  0  0  0  0  0
  191.2330  174.1320  143.4280 C   0  0  1  0  0  0  0  0  0  0  0  0
  195.0290  173.8760  143.9860 C   0  0  0  0  0  3  0  0  0  0  0  0
  193.9290  172.3890  145.5350 C   0  0  0  0  0  3  0  0  0  0  0  0
  192.5970  173.6920  143.9580 C   0  0  0  0  0  0  0  0  0  0  0  0
  195.1110  172.9390  145.0240 C   0  0  0  0  0  0  0  0  0  0  0  0
  192.6910  172.7640  145.0130 C   0  0  0  0  0  3  0  0  0  0  0  0
  193.7920  174.2580  143.4590 C   0  0  0  0  0  0  0  0  0  0  0  0
  193.7660  175.2080  142.4460 O   0  0  0  0  0  1  0  0  0  0  0  0
  196.8960  171.1310  145.4960 C   0  0  0  0  0  1  0  0  0  0  0  0
  197.1880  173.4210  146.1380 N   0  0  0  0  0  2  0  0  0  0  0  0
  196.4240  172.5430  145.5760 C   0  0  0  0  0  0  0  0  0  0  0  0
  190.2760  172.9270  143.3300 C   0  0  0  0  0  2  0  0  0  0  0  0
  190.2060  172.3020  141.9380 C   0  0  0  0  0  2  0  0  0  0  0  0
  190.4430  170.8070  142.0130 C   0  0  0  0  0  1  0  0  0  0  0  0
  1  9  1  0  0  0  0
  2 19  1  6  0  0  0
  2  5  1  0  0  0  0
  2  1  1  0  0  0  0
  3  8  1  0  0  0  0
  4 16  2  0  0  0  0
  4 17  1  0  0  0  0
  5 14  1  6  0  0  0
  5  8  1  0  0  0  0
  6  7  2  0  0  0  0
  7 10  1  0  0  0  0
  8 13  1  1  0  0  0
  9 11  1  0  0  0  0
 10  3  1  0  0  0  0
 11 15  1  0  0  0  0
 12  9  1  0  0  0  0
 13 15  1  0  0  0  0
 14  7  1  0  0  0  0
 16  6  1  0  0  0  0
 17 14  2  0  0  0  0
 19 18  1  6  0  0  0
 19 22  1  0  0  0  0
 20 23  1  0  0  0  0
 22 24  2  0  0  0  0
 23 21  2  0  0  0  0
 23 29  1  0  0  0  0
 24 21  1  0  0  0  0
 25 22  1  0  0  0  0
 25 20  2  0  0  0  0
 26 25  1  0  0  0  0
 27 29  1  0  0  0  0
 29 28  2  0  0  0  0
 30 19  1  0  0  0  0
 31 32  1  0  0  0  0
 31 30  1  0  0  0  0
M  END
>  <MODEL>
6

>  <REMARK>
 VINA RESULT:      -7.0      2.101      4.387
  Name = 
  5 active torsions:
  status: ('A' for Active; 'I' for Inactive)
    1  A    between atoms: C_1  and  C_4
    2  A    between atoms: C_1  and  C_27
    3  A    between atoms: C_5  and  C_27
    4  A    between atoms: C_16  and  C_27
    5  A    between atoms: C_19  and  C_26
                            x       y       z     vdW  Elec       q    Type
                         _______ _______ _______ _____ _____    ______ ____

>  <TORSDO>
F 5

$$$$
=
 OpenBabel11052419053D

 32 35  0  0  1  0  0  0  0  0999 V2000
  190.3880  175.1250  142.6230 O   0  0  0  0  0  0  0  0  0  0  0  0
  191.3130  174.7930  143.6310 C   0  0  1  0  0  3  0  0  0  0  0  0
  191.3280  172.8460  141.2390 O   0  0  0  0  0  0  0  0  0  0  0  0
  195.2080  175.9980  141.7120 C   0  0  0  0  0  3  0  0  0  0  0  0
  192.4290  173.8260  143.1840 C   0  0  1  0  0  3  0  0  0  0  0  0
  194.1970  174.7280  139.9180 C   0  0  0  0  0  3  0  0  0  0  0  0
  193.3200  174.1350  140.8290 C   0  0  0  0  0  0  0  0  0  0  0  0
  191.8370  172.5560  142.5200 C   0  0  1  0  0  3  0  0  0  0  0  0
  189.1720  174.7510  143.1060 N   0  0  0  0  0  0  0  0  0  0  0  0
  192.4330  173.0060  140.3820 C   0  0  0  0  0  2  0  0  0  0  0  0
  188.9370  173.3500  142.7630 C   0  0  0  0  0  2  0  0  0  0  0  0
  188.1820  175.5270  142.3800 C   0  0  0  0  0  1  0  0  0  0  0  0
  190.8360  171.7330  143.3470 C   0  0  0  0  0  2  0  0  0  0  0  0
  193.3800  174.4730  142.1970 C   0  0  0  0  0  0  0  0  0  0  0  0
  189.5710  172.4570  143.8250 C   0  0  0  0  0  2  0  0  0  0  0  0
  195.1310  175.6690  140.3560 C   0  0  0  0  0  3  0  0  0  0  0  0
  194.3410  175.3960  142.6280 C   0  0  0  0  0  3  0  0  0  0  0  0
  192.1880  176.9660  144.2840 O   0  0  0  0  0  1  0  0  0  0  0  0
  191.5390  175.8280  144.7680 C   0  0  1  0  0  0  0  0  0  0  0  0
  188.3300  177.8040  145.5290 C   0  0  0  0  0  3  0  0  0  0  0  0
  188.3190  175.7920  146.8600 C   0  0  0  0  0  3  0  0  0  0  0  0
  190.2090  176.2570  145.3870 C   0  0  0  0  0  0  0  0  0  0  0  0
  187.6960  176.9840  146.4710 C   0  0  0  0  0  0  0  0  0  0  0  0
  189.5550  175.4320  146.3210 C   0  0  0  0  0  3  0  0  0  0  0  0
  189.5670  177.4500  144.9850 C   0  0  0  0  0  0  0  0  0  0  0  0
  190.1400  178.2870  144.0370 O   0  0  0  0  0  1  0  0  0  0  0  0
  185.1190  176.7910  146.5050 C   0  0  0  0  0  1  0  0  0  0  0  0
  186.3190  178.2100  148.0170 N   0  0  0  0  0  2  0  0  0  0  0  0
  186.3860  177.3670  147.0400 C   0  0  0  0  0  0  0  0  0  0  0  0
  192.4480  175.1790  145.8310 C   0  0  0  0  0  2  0  0  0  0  0  0
  193.5220  176.1130  146.3830 C   0  0  0  0  0  2  0  0  0  0  0  0
  194.9030  175.5400  146.1380 C   0  0  0  0  0  1  0  0  0  0  0  0
  1  9  1  0  0  0  0
  1  2  1  0  0  0  0
  2 19  1  6  0  0  0
  3  8  1  0  0  0  0
  4 17  1  0  0  0  0
  5 14  1  6  0  0  0
  5  2  1  0  0  0  0
  6 16  1  0  0  0  0
  6  7  2  0  0  0  0
  7 14  1  0  0  0  0
  8  5  1  0  0  0  0
  8 13  1  1  0  0  0
 10  7  1  0  0  0  0
 10  3  1  0  0  0  0
 11  9  1  0  0  0  0
 11 15  1  0  0  0  0
 12  9  1  0  0  0  0
 13 15  1  0  0  0  0
 14 17  2  0  0  0  0
 16  4  2  0  0  0  0
 19 18  1  6  0  0  0
 19 22  1  0  0  0  0
 19 30  1  0  0  0  0
 20 23  1  0  0  0  0
 22 24  2  0  0  0  0
 23 21  2  0  0  0  0
 23 29  1  0  0  0  0
 24 21  1  0  0  0  0
 25 22  1  0  0  0  0
 25 20  2  0  0  0  0
 26 25  1  0  0  0  0
 27 29  1  0  0  0  0
 29 28  2  0  0  0  0
 30 31  1  0  0  0  0
 32 31  1  0  0  0  0
M  END
>  <MODEL>
7

>  <REMARK>
 VINA RESULT:      -7.0      2.632      6.725
  Name = 
  5 active torsions:
  status: ('A' for Active; 'I' for Inactive)
    1  A    between atoms: C_1  and  C_4
    2  A    between atoms: C_1  and  C_27
    3  A    between atoms: C_5  and  C_27
    4  A    between atoms: C_16  and  C_27
    5  A    between atoms: C_19  and  C_26
                            x       y       z     vdW  Elec       q    Type
                         _______ _______ _______ _____ _____    ______ ____

>  <TORSDO>
F 5

$$$$
=
 OpenBabel11052419053D

 32 35  0  0  1  0  0  0  0  0999 V2000
  191.9250  174.6450  146.3010 O   0  0  0  0  0  0  0  0  0  0  0  0
  191.5890  174.4530  144.9470 C   0  0  1  0  0  3  0  0  0  0  0  0
  194.6200  174.7290  145.4480 O   0  0  0  0  0  0  0  0  0  0  0  0
  192.8450  170.1730  144.3070 C   0  0  0  0  0  3  0  0  0  0  0  0
  192.7590  173.9860  144.0570 C   0  0  1  0  0  3  0  0  0  0  0  0
  194.8090  171.0570  145.4090 C   0  0  0  0  0  3  0  0  0  0  0  0
  194.3990  172.3570  145.1010 C   0  0  0  0  0  0  0  0  0  0  0  0
  193.9860  174.9210  144.2060 C   0  0  1  0  0  3  0  0  0  0  0  0
  191.6150  175.9420  146.5730 N   0  0  0  0  0  0  0  0  0  0  0  0
  195.3220  173.5120  145.3690 C   0  0  0  0  0  2  0  0  0  0  0  0
  192.7630  176.7830  146.2410 C   0  0  0  0  0  2  0  0  0  0  0  0
  191.4380  176.0320  148.0120 C   0  0  0  0  0  1  0  0  0  0  0  0
  193.7680  176.4160  143.9140 C   0  0  0  0  0  2  0  0  0  0  0  0
  193.1990  172.5750  144.3910 C   0  0  0  0  0  0  0  0  0  0  0  0
  192.7140  177.1410  144.7590 C   0  0  0  0  0  2  0  0  0  0  0  0
  194.0260  169.9670  145.0250 C   0  0  0  0  0  3  0  0  0  0  0  0
  192.4390  171.4710  143.9850 C   0  0  0  0  0  3  0  0  0  0  0  0
  189.6920  172.9960  145.3880 O   0  0  0  0  0  1  0  0  0  0  0  0
  190.1160  174.0820  144.6190 C   0  0  1  0  0  0  0  0  0  0  0  0
  188.1400  177.3540  144.1970 C   0  0  0  0  0  3  0  0  0  0  0  0
  187.5080  176.3470  146.2960 C   0  0  0  0  0  3  0  0  0  0  0  0
  189.1830  175.2620  144.8920 C   0  0  0  0  0  0  0  0  0  0  0  0
  187.3740  177.3880  145.3690 C   0  0  0  0  0  0  0  0  0  0  0  0
  188.3960  175.2970  146.0580 C   0  0  0  0  0  3  0  0  0  0  0  0
  189.0310  176.3050  143.9510 C   0  0  0  0  0  0  0  0  0  0  0  0
  189.7490  176.3090  142.7620 O   0  0  0  0  0  1  0  0  0  0  0  0
  185.9410  178.7940  146.9970 C   0  0  0  0  0  1  0  0  0  0  0  0
  186.0240  179.2430  144.6440 N   0  0  0  0  0  2  0  0  0  0  0  0
  186.4340  178.5010  145.6200 C   0  0  0  0  0  0  0  0  0  0  0  0
  190.0470  173.6690  143.1350 C   0  0  0  0  0  2  0  0  0  0  0  0
  189.0540  172.5450  142.8490 C   0  0  0  0  0  2  0  0  0  0  0  0
  187.8980  173.0550  142.0130 C   0  0  0  0  0  1  0  0  0  0  0  0
  1  9  1  0  0  0  0
  2 19  1  1  0  0  0
  2  1  1  0  0  0  0
  4 16  1  0  0  0  0
  5  8  1  0  0  0  0
  5 14  1  1  0  0  0
  5  2  1  0  0  0  0
  7 10  1  0  0  0  0
  7  6  1  0  0  0  0
  8 13  1  1  0  0  0
  8  3  1  0  0  0  0
  9 12  1  0  0  0  0
 10  3  1  0  0  0  0
 11  9  1  0  0  0  0
 13 15  1  0  0  0  0
 14  7  2  0  0  0  0
 15 11  1  0  0  0  0
 16  6  2  0  0  0  0
 17  4  2  0  0  0  0
 17 14  1  0  0  0  0
 19 22  1  0  0  0  0
 19 18  1  1  0  0  0
 20 23  1  0  0  0  0
 22 24  2  0  0  0  0
 23 29  1  0  0  0  0
 23 21  2  0  0  0  0
 24 21  1  0  0  0  0
 25 20  2  0  0  0  0
 25 22  1  0  0  0  0
 26 25  1  0  0  0  0
 28 29  2  0  0  0  0
 29 27  1  0  0  0  0
 30 19  1  0  0  0  0
 31 30  1  0  0  0  0
 32 31  1  0  0  0  0
M  END
>  <MODEL>
8

>  <REMARK>
 VINA RESULT:      -6.9      2.396      7.315
  Name = 
  5 active torsions:
  status: ('A' for Active; 'I' for Inactive)
    1  A    between atoms: C_1  and  C_4
    2  A    between atoms: C_1  and  C_27
    3  A    between atoms: C_5  and  C_27
    4  A    between atoms: C_16  and  C_27
    5  A    between atoms: C_19  and  C_26
                            x       y       z     vdW  Elec       q    Type
                         _______ _______ _______ _____ _____    ______ ____

>  <TORSDO>
F 5

$$$$
=
 OpenBabel11052419053D

 32 35  0  0  1  0  0  0  0  0999 V2000
  190.0490  177.1150  144.8710 O   0  0  0  0  0  0  0  0  0  0  0  0
  189.2510  176.0460  144.4210 C   0  0  1  0  0  3  0  0  0  0  0  0
  188.3180  177.2510  147.1030 O   0  0  0  0  0  0  0  0  0  0  0  0
  185.5530  178.2100  143.0230 C   0  0  0  0  0  3  0  0  0  0  0  0
  187.8590  175.9630  145.0820 C   0  0  1  0  0  3  0  0  0  0  0  0
  185.8750  179.2280  145.1940 C   0  0  0  0  0  3  0  0  0  0  0  0
  186.7020  178.1660  145.5710 C   0  0  0  0  0  0  0  0  0  0  0  0
  187.9710  175.9710  146.6280 C   0  0  1  0  0  3  0  0  0  0  0  0
  191.1840  176.5430  145.3570 N   0  0  0  0  0  0  0  0  0  0  0  0
  187.1680  178.0560  146.9950 C   0  0  0  0  0  2  0  0  0  0  0  0
  190.9770  176.1980  146.7620 C   0  0  0  0  0  2  0  0  0  0  0  0
  192.2090  177.5710  145.3300 C   0  0  0  0  0  1  0  0  0  0  0  0
  188.8410  174.8800  147.2750 C   0  0  0  0  0  2  0  0  0  0  0  0
  186.9640  177.1130  144.6690 C   0  0  0  0  0  0  0  0  0  0  0  0
  190.3150  174.8270  146.8520 C   0  0  0  0  0  2  0  0  0  0  0  0
  185.3120  179.2560  143.9160 C   0  0  0  0  0  3  0  0  0  0  0  0
  186.3690  177.1400  143.4020 C   0  0  0  0  0  3  0  0  0  0  0  0
  189.5490  176.5720  142.0660 O   0  0  0  0  0  1  0  0  0  0  0  0
  189.5010  175.5190  142.9810 C   0  0  1  0  0  0  0  0  0  0  0  0
  192.1510  172.7580  143.3510 C   0  0  0  0  0  3  0  0  0  0  0  0
  193.1130  174.5700  142.0830 C   0  0  0  0  0  3  0  0  0  0  0  0
  190.8210  174.7510  142.9030 C   0  0  0  0  0  0  0  0  0  0  0  0
  193.2420  173.3020  142.6620 C   0  0  0  0  0  0  0  0  0  0  0  0
  191.9170  175.2820  142.1990 C   0  0  0  0  0  3  0  0  0  0  0  0
  190.9510  173.4630  143.4700 C   0  0  0  0  0  0  0  0  0  0  0  0
  189.8930  172.8670  144.1440 O   0  0  0  0  0  1  0  0  0  0  0  0
  195.0580  171.7830  143.6970 C   0  0  0  0  0  1  0  0  0  0  0  0
  195.1580  172.5360  141.4250 N   0  0  0  0  0  2  0  0  0  0  0  0
  194.5070  172.5470  142.5410 C   0  0  0  0  0  0  0  0  0  0  0  0
  188.3200  174.6070  142.5940 C   0  0  0  0  0  2  0  0  0  0  0  0
  188.1730  174.3860  141.0900 C   0  0  0  0  0  2  0  0  0  0  0  0
  188.4410  172.9370  140.7360 C   0  0  0  0  0  1  0  0  0  0  0  0
  1  9  1  0  0  0  0
  2 19  1  6  0  0  0
  2  1  1  0  0  0  0
  2  5  1  0  0  0  0
  4 17  2  0  0  0  0
  4 16  1  0  0  0  0
  5 14  1  6  0  0  0
  5  8  1  0  0  0  0
  6  7  1  0  0  0  0
  7 10  1  0  0  0  0
  8  3  1  0  0  0  0
  8 13  1  6  0  0  0
  9 11  1  0  0  0  0
 10  3  1  0  0  0  0
 11 15  1  0  0  0  0
 12  9  1  0  0  0  0
 14  7  2  0  0  0  0
 15 13  1  0  0  0  0
 16  6  2  0  0  0  0
 17 14  1  0  0  0  0
 19 18  1  6  0  0  0
 20 25  1  0  0  0  0
 21 24  2  0  0  0  0
 21 23  1  0  0  0  0
 22 19  1  0  0  0  0
 22 25  2  0  0  0  0
 23 20  2  0  0  0  0
 24 22  1  0  0  0  0
 25 26  1  0  0  0  0
 28 29  2  0  0  0  0
 29 23  1  0  0  0  0
 29 27  1  0  0  0  0
 30 19  1  0  0  0  0
 31 30  1  0  0  0  0
 32 31  1  0  0  0  0
M  END
>  <MODEL>
9

>  <REMARK>
 VINA RESULT:      -6.8      2.190      4.506
  Name = 
  5 active torsions:
  status: ('A' for Active; 'I' for Inactive)
    1  A    between atoms: C_1  and  C_4
    2  A    between atoms: C_1  and  C_27
    3  A    between atoms: C_5  and  C_27
    4  A    between atoms: C_16  and  C_27
    5  A    between atoms: C_19  and  C_26
                            x       y       z     vdW  Elec       q    Type
                         _______ _______ _______ _____ _____    ______ ____

>  <TORSDO>
F 5

$$$$
