=
 OpenBabel11052417293D

 25 28  0  0  1  0  0  0  0  0999 V2000
  186.7460  176.8070  143.9410 C   0  0  0  0  0  0  0  0  0  0  0  0
  187.8770  175.8270  143.8170 C   0  0  0  0  0  0  0  0  0  0  0  0
  186.3970  176.8320  141.5020 N   0  0  0  0  0  0  0  0  0  0  0  0
  186.1770  177.2870  145.1260 C   0  0  0  0  0  0  0  0  0  0  0  0
  184.7830  178.4170  147.2640 C   0  0  0  0  0  3  0  0  0  0  0  0
  187.3780  176.0410  141.2970 N   0  0  0  0  0  0  0  0  0  0  0  0
  185.0850  178.1230  144.9040 C   0  0  0  0  0  0  0  0  0  0  0  0
  184.3730  178.7000  145.9530 C   0  0  0  0  0  3  0  0  0  0  0  0
  189.2870  174.7830  142.0820 C   0  0  2  0  0  3  0  0  0  0  0  0
  189.6440  174.3020  140.4300 Cl  0  0  0  0  0  0  0  0  0  0  0  0
  189.3820  176.4400  144.6330 S   0  0  0  0  0  0  0  0  0  0  0  0
  185.8800  177.5680  147.5020 C   0  0  0  0  0  3  0  0  0  0  0  0
  186.0680  177.2570  142.8230 C   0  0  0  0  0  0  0  0  0  0  0  0
  184.7840  178.2660  143.2520 S   0  0  0  0  0  0  0  0  0  0  0  0
  190.1570  174.3210  143.1300 N   0  0  0  0  0  0  0  0  0  0  0  0
  186.5840  176.9940  146.4310 C   0  0  0  0  0  3  0  0  0  0  0  0
  190.2460  174.8970  144.2930 C   0  0  0  0  0  0  0  0  0  0  0  0
  188.2080  175.5320  142.3630 C   0  0  0  0  0  0  0  0  0  0  0  0
  191.0260  174.2410  145.3800 C   0  0  0  0  0  2  0  0  0  0  0  0
  192.3870  174.7600  145.4030 N   0  0  0  0  0  2  0  0  0  0  0  0
  192.8320  175.7320  146.3540 C   0  0  0  0  0  0  0  0  0  0  0  0
  192.0150  176.2440  147.1670 O   0  0  0  0  0  0  0  0  0  0  0  0
  194.2430  176.1370  146.3750 C   0  0  0  0  0  0  0  0  0  0  0  0
  195.2680  175.1720  146.1670 N   0  0  0  0  0  2  0  0  0  0  0  0
  194.5650  177.3690  146.5910 N   0  0  0  0  0  1  0  0  0  0  0  0
  1  4  1  0  0  0  0
  2  1  1  0  0  0  0
  2 11  1  0  0  0  0
  3 13  1  0  0  0  0
  4 16  1  0  0  0  0
  5 12  1  0  0  0  0
  6  3  2  0  0  0  0
  6 18  1  0  0  0  0
  7  4  2  0  0  0  0
  7  8  1  0  0  0  0
  8  5  2  0  0  0  0
  9 10  1  1  0  0  0
  9 18  1  0  0  0  0
  9 15  1  0  0  0  0
 13 14  1  0  0  0  0
 13  1  2  0  0  0  0
 14  7  1  0  0  0  0
 15 17  2  0  0  0  0
 16 12  2  0  0  0  0
 17 11  1  0  0  0  0
 17 19  1  0  0  0  0
 18  2  2  0  0  0  0
 19 20  1  0  0  0  0
 20 21  1  0  0  0  0
 21 23  1  0  0  0  0
 21 22  2  0  0  0  0
 23 25  1  0  0  0  0
 24 23  2  0  0  0  0
M  END
>  <MODEL>
1

>  <REMARK>
 VINA RESULT:      -7.4      0.000      0.000
  Name = 
  3 active torsions:
  status: ('A' for Active; 'I' for Inactive)
    1  A    between atoms: C_2  and  C_21
    2  A    between atoms: C_6  and  N_15
    3  A    between atoms: C_6  and  C_23
                            x       y       z     vdW  Elec       q    Type
                         _______ _______ _______ _____ _____    ______ ____

>  <TORSDO>
F 3

$$$$
=
 OpenBabel11052417293D

 25 28  0  0  1  0  0  0  0  0999 V2000
  186.7520  176.8600  143.4630 C   0  0  0  0  0  0  0  0  0  0  0  0
  187.9050  175.9320  143.7110 C   0  0  0  0  0  0  0  0  0  0  0  0
  186.9380  176.5680  141.0240 N   0  0  0  0  0  0  0  0  0  0  0  0
  185.9270  177.4530  144.4270 C   0  0  0  0  0  0  0  0  0  0  0  0
  184.0770  178.7630  146.0540 C   0  0  0  0  0  3  0  0  0  0  0  0
  187.9590  175.8080  141.1370 N   0  0  0  0  0  0  0  0  0  0  0  0
  184.8910  178.1980  143.8710 C   0  0  0  0  0  0  0  0  0  0  0  0
  183.9550  178.8620  144.6600 C   0  0  0  0  0  3  0  0  0  0  0  0
  189.6820  174.7560  142.4660 C   0  0  2  0  0  3  0  0  0  0  0  0
  190.4000  174.0950  141.0050 Cl  0  0  0  0  0  0  0  0  0  0  0  0
  189.1830  176.7170  144.7400 S   0  0  0  0  0  0  0  0  0  0  0  0
  185.1170  178.0080  146.6280 C   0  0  0  0  0  3  0  0  0  0  0  0
  186.3210  177.1340  142.1780 C   0  0  0  0  0  0  0  0  0  0  0  0
  184.9510  178.1210  142.1890 S   0  0  0  0  0  0  0  0  0  0  0  0
  190.3150  174.4720  143.7250 N   0  0  0  0  0  0  0  0  0  0  0  0
  186.0490  177.3430  145.8150 C   0  0  0  0  0  3  0  0  0  0  0  0
  190.1360  175.1900  144.7960 C   0  0  0  0  0  0  0  0  0  0  0  0
  188.5500  175.4780  142.4110 C   0  0  0  0  0  0  0  0  0  0  0  0
  190.6770  174.7130  146.1000 C   0  0  0  0  0  2  0  0  0  0  0  0
  191.9600  175.3480  146.3710 N   0  0  0  0  0  2  0  0  0  0  0  0
  193.2100  174.7680  145.9890 C   0  0  0  0  0  0  0  0  0  0  0  0
  193.2440  173.6200  145.4680 O   0  0  0  0  0  0  0  0  0  0  0  0
  194.4570  175.5110  146.2120 C   0  0  0  0  0  0  0  0  0  0  0  0
  194.4140  176.8860  146.5770 N   0  0  0  0  0  1  0  0  0  0  0  0
  195.6000  174.9260  146.0710 N   0  0  0  0  0  2  0  0  0  0  0  0
  1  2  1  0  0  0  0
  1  4  1  0  0  0  0
  2 11  1  0  0  0  0
  3  6  2  0  0  0  0
  3 13  1  0  0  0  0
  4 16  1  0  0  0  0
  5 12  1  0  0  0  0
  6 18  1  0  0  0  0
  7  4  2  0  0  0  0
  7  8  1  0  0  0  0
  8  5  2  0  0  0  0
  9 10  1  1  0  0  0
  9 15  1  0  0  0  0
 11 17  1  0  0  0  0
 13 14  1  0  0  0  0
 13  1  2  0  0  0  0
 14  7  1  0  0  0  0
 15 17  2  0  0  0  0
 16 12  2  0  0  0  0
 17 19  1  0  0  0  0
 18  9  1  0  0  0  0
 18  2  2  0  0  0  0
 19 20  1  0  0  0  0
 21 23  1  0  0  0  0
 21 20  1  0  0  0  0
 22 21  2  0  0  0  0
 23 24  1  0  0  0  0
 25 23  2  0  0  0  0
M  END
>  <MODEL>
2

>  <REMARK>
 VINA RESULT:      -7.4      1.014      1.258
  Name = 
  3 active torsions:
  status: ('A' for Active; 'I' for Inactive)
    1  A    between atoms: C_2  and  C_21
    2  A    between atoms: C_6  and  N_15
    3  A    between atoms: C_6  and  C_23
                            x       y       z     vdW  Elec       q    Type
                         _______ _______ _______ _____ _____    ______ ____

>  <TORSDO>
F 3

$$$$
=
 OpenBabel11052417293D

 25 28  0  0  1  0  0  0  0  0999 V2000
  185.8900  177.5770  143.8260 C   0  0  0  0  0  0  0  0  0  0  0  0
  186.7070  176.7480  142.8780 C   0  0  0  0  0  0  0  0  0  0  0  0
  184.5880  178.5520  141.9750 N   0  0  0  0  0  0  0  0  0  0  0  0
  185.9330  177.5420  145.2250 C   0  0  0  0  0  0  0  0  0  0  0  0
  185.7210  177.7120  148.0020 C   0  0  0  0  0  3  0  0  0  0  0  0
  185.2660  177.9240  141.0930 N   0  0  0  0  0  0  0  0  0  0  0  0
  184.9880  178.3760  145.8180 C   0  0  0  0  0  0  0  0  0  0  0  0
  184.8620  178.4800  147.2010 C   0  0  0  0  0  3  0  0  0  0  0  0
  187.1100  176.4970  140.4560 C   0  0  2  0  0  3  0  0  0  0  0  0
  186.6870  176.7110  138.7650 Cl  0  0  0  0  0  0  0  0  0  0  0  0
  188.4890  177.0210  143.1190 S   0  0  0  0  0  0  0  0  0  0  0  0
  186.6750  176.8610  147.4140 C   0  0  0  0  0  3  0  0  0  0  0  0
  184.8940  178.4160  143.3610 C   0  0  0  0  0  0  0  0  0  0  0  0
  184.0670  179.1500  144.6370 S   0  0  0  0  0  0  0  0  0  0  0  0
  188.2490  175.6790  140.7760 N   0  0  0  0  0  0  0  0  0  0  0  0
  186.7840  176.7680  146.0180 C   0  0  0  0  0  3  0  0  0  0  0  0
  188.8910  175.7520  141.9050 C   0  0  0  0  0  0  0  0  0  0  0  0
  186.3690  177.0540  141.4280 C   0  0  0  0  0  0  0  0  0  0  0  0
  189.9340  174.7380  142.2260 C   0  0  0  0  0  2  0  0  0  0  0  0
  190.0560  174.5840  143.6690 N   0  0  0  0  0  2  0  0  0  0  0  0
  191.2370  174.9440  144.3910 C   0  0  0  0  0  0  0  0  0  0  0  0
  192.2650  175.3350  143.7730 O   0  0  0  0  0  0  0  0  0  0  0  0
  191.2520  174.8490  145.8570 C   0  0  0  0  0  0  0  0  0  0  0  0
  192.4880  174.8690  146.5620 N   0  0  0  0  0  1  0  0  0  0  0  0
  190.1460  174.7380  146.5150 N   0  0  0  0  0  2  0  0  0  0  0  0
  1  4  1  0  0  0  0
  2 11  1  0  0  0  0
  2  1  1  0  0  0  0
  3 13  1  0  0  0  0
  4  7  2  0  0  0  0
  4 16  1  0  0  0  0
  6 18  1  0  0  0  0
  6  3  2  0  0  0  0
  7  8  1  0  0  0  0
  8  5  2  0  0  0  0
  9 10  1  1  0  0  0
  9 15  1  0  0  0  0
  9 18  1  0  0  0  0
 12  5  1  0  0  0  0
 13  1  2  0  0  0  0
 13 14  1  0  0  0  0
 14  7  1  0  0  0  0
 15 17  2  0  0  0  0
 16 12  2  0  0  0  0
 17 19  1  0  0  0  0
 17 11  1  0  0  0  0
 18  2  2  0  0  0  0
 19 20  1  0  0  0  0
 20 21  1  0  0  0  0
 21 23  1  0  0  0  0
 22 21  2  0  0  0  0
 23 25  2  0  0  0  0
 23 24  1  0  0  0  0
M  END
>  <MODEL>
3

>  <REMARK>
 VINA RESULT:      -7.1      1.840      2.630
  Name = 
  3 active torsions:
  status: ('A' for Active; 'I' for Inactive)
    1  A    between atoms: C_2  and  C_21
    2  A    between atoms: C_6  and  N_15
    3  A    between atoms: C_6  and  C_23
                            x       y       z     vdW  Elec       q    Type
                         _______ _______ _______ _____ _____    ______ ____

>  <TORSDO>
F 3

$$$$
=
 OpenBabel11052417293D

 25 28  0  0  1  0  0  0  0  0999 V2000
  187.3310  177.5880  144.4160 C   0  0  0  0  0  0  0  0  0  0  0  0
  188.8100  177.3680  144.5440 C   0  0  0  0  0  0  0  0  0  0  0  0
  187.0590  177.7250  146.8610 N   0  0  0  0  0  0  0  0  0  0  0  0
  186.6060  177.7590  143.2300 C   0  0  0  0  0  0  0  0  0  0  0  0
  184.8600  178.1720  141.0920 C   0  0  0  0  0  3  0  0  0  0  0  0
  188.2980  177.4910  147.0670 N   0  0  0  0  0  0  0  0  0  0  0  0
  185.2580  178.0280  143.4520 C   0  0  0  0  0  0  0  0  0  0  0  0
  184.3660  178.2370  142.4030 C   0  0  0  0  0  3  0  0  0  0  0  0
  190.5060  176.9060  146.2760 C   0  0  2  0  0  3  0  0  0  0  0  0
  191.0870  176.8750  147.9340 Cl  0  0  0  0  0  0  0  0  0  0  0  0
  189.3390  175.8670  143.6640 S   0  0  0  0  0  0  0  0  0  0  0  0
  186.2220  177.9070  140.8550 C   0  0  0  0  0  3  0  0  0  0  0  0
  186.5360  177.7570  145.5350 C   0  0  0  0  0  0  0  0  0  0  0  0
  184.9370  178.0870  145.1060 S   0  0  0  0  0  0  0  0  0  0  0  0
  191.4340  176.5970  145.2220 N   0  0  0  0  0  0  0  0  0  0  0  0
  187.1060  177.7020  141.9260 C   0  0  0  0  0  3  0  0  0  0  0  0
  191.0680  176.2070  144.0360 C   0  0  0  0  0  0  0  0  0  0  0  0
  189.2360  177.2440  145.9980 C   0  0  0  0  0  0  0  0  0  0  0  0
  192.0850  176.0950  142.9520 C   0  0  0  0  0  2  0  0  0  0  0  0
  193.4110  175.9180  143.5260 N   0  0  0  0  0  2  0  0  0  0  0  0
  194.6140  176.1530  142.7890 C   0  0  0  0  0  0  0  0  0  0  0  0
  194.5610  176.4440  141.5630 O   0  0  0  0  0  0  0  0  0  0  0  0
  195.9150  176.0450  143.4630 C   0  0  0  0  0  0  0  0  0  0  0  0
  197.0070  176.8550  143.0430 N   0  0  0  0  0  2  0  0  0  0  0  0
  196.0790  175.2100  144.4350 N   0  0  0  0  0  1  0  0  0  0  0  0
  1  2  2  0  0  0  0
  1 13  1  0  0  0  0
  2 18  1  0  0  0  0
  3  6  1  0  0  0  0
  4  7  1  0  0  0  0
  4  1  1  0  0  0  0
  5  8  1  0  0  0  0
  7 14  1  0  0  0  0
  8  7  2  0  0  0  0
  9 10  1  6  0  0  0
 11 17  1  0  0  0  0
 11  2  1  0  0  0  0
 12  5  2  0  0  0  0
 12 16  1  0  0  0  0
 13  3  2  0  0  0  0
 14 13  1  0  0  0  0
 15  9  1  0  0  0  0
 16  4  2  0  0  0  0
 17 15  2  0  0  0  0
 18  9  1  0  0  0  0
 18  6  2  0  0  0  0
 19 20  1  0  0  0  0
 19 17  1  0  0  0  0
 21 23  1  0  0  0  0
 21 20  1  0  0  0  0
 22 21  2  0  0  0  0
 23 25  1  0  0  0  0
 24 23  2  0  0  0  0
M  END
>  <MODEL>
4

>  <REMARK>
 VINA RESULT:      -7.1      3.275      4.169
  Name = 
  3 active torsions:
  status: ('A' for Active; 'I' for Inactive)
    1  A    between atoms: C_2  and  C_21
    2  A    between atoms: C_6  and  N_15
    3  A    between atoms: C_6  and  C_23
                            x       y       z     vdW  Elec       q    Type
                         _______ _______ _______ _____ _____    ______ ____

>  <TORSDO>
F 3

$$$$
=
 OpenBabel11052417293D

 25 28  0  0  1  0  0  0  0  0999 V2000
  186.8650  176.8390  143.6290 C   0  0  0  0  0  0  0  0  0  0  0  0
  188.0450  175.9520  143.9000 C   0  0  0  0  0  0  0  0  0  0  0  0
  187.0580  176.4880  141.1980 N   0  0  0  0  0  0  0  0  0  0  0  0
  186.0240  177.4320  144.5780 C   0  0  0  0  0  0  0  0  0  0  0  0
  184.1360  178.7300  146.1730 C   0  0  0  0  0  3  0  0  0  0  0  0
  188.1020  175.7620  141.3300 N   0  0  0  0  0  0  0  0  0  0  0  0
  184.9650  178.1310  144.0040 C   0  0  0  0  0  0  0  0  0  0  0  0
  184.0100  178.7880  144.7770 C   0  0  0  0  0  3  0  0  0  0  0  0
  189.8550  174.7960  142.6840 C   0  0  2  0  0  3  0  0  0  0  0  0
  190.5910  174.1190  141.2400 Cl  0  0  0  0  0  0  0  0  0  0  0  0
  189.3000  176.8010  144.9060 S   0  0  0  0  0  0  0  0  0  0  0  0
  185.1980  178.0210  146.7650 C   0  0  0  0  0  3  0  0  0  0  0  0
  186.4250  177.0660  142.3380 C   0  0  0  0  0  0  0  0  0  0  0  0
  185.0270  178.0120  142.3240 S   0  0  0  0  0  0  0  0  0  0  0  0
  190.4970  174.5650  143.9500 N   0  0  0  0  0  0  0  0  0  0  0  0
  186.1490  177.3630  145.9690 C   0  0  0  0  0  3  0  0  0  0  0  0
  190.2980  175.3050  145.0010 C   0  0  0  0  0  0  0  0  0  0  0  0
  188.7030  175.4830  142.6120 C   0  0  0  0  0  0  0  0  0  0  0  0
  190.8540  174.8800  146.3160 C   0  0  0  0  0  2  0  0  0  0  0  0
  190.5220  175.8600  147.3410 N   0  0  0  0  0  2  0  0  0  0  0  0
  191.4720  176.7950  147.8590 C   0  0  0  0  0  0  0  0  0  0  0  0
  192.6790  176.7400  147.4950 O   0  0  0  0  0  0  0  0  0  0  0  0
  191.0400  177.8160  148.8220 C   0  0  0  0  0  0  0  0  0  0  0  0
  189.9220  178.6460  148.5310 N   0  0  0  0  0  2  0  0  0  0  0  0
  191.6760  177.9730  149.9360 N   0  0  0  0  0  1  0  0  0  0  0  0
  1  2  1  0  0  0  0
  1  4  1  0  0  0  0
  2 11  1  0  0  0  0
  3  6  2  0  0  0  0
  3 13  1  0  0  0  0
  4 16  1  0  0  0  0
  5 12  1  0  0  0  0
  6 18  1  0  0  0  0
  7  4  2  0  0  0  0
  7  8  1  0  0  0  0
  8  5  2  0  0  0  0
  9 10  1  1  0  0  0
  9 15  1  0  0  0  0
 11 17  1  0  0  0  0
 13  1  2  0  0  0  0
 14 13  1  0  0  0  0
 14  7  1  0  0  0  0
 15 17  2  0  0  0  0
 16 12  2  0  0  0  0
 17 19  1  0  0  0  0
 18  9  1  0  0  0  0
 18  2  2  0  0  0  0
 19 20  1  0  0  0  0
 20 21  1  0  0  0  0
 21 23  1  0  0  0  0
 22 21  2  0  0  0  0
 23 25  1  0  0  0  0
 24 23  2  0  0  0  0
M  END
>  <MODEL>
5

>  <REMARK>
 VINA RESULT:      -7.0      1.865      2.138
  Name = 
  3 active torsions:
  status: ('A' for Active; 'I' for Inactive)
    1  A    between atoms: C_2  and  C_21
    2  A    between atoms: C_6  and  N_15
    3  A    between atoms: C_6  and  C_23
                            x       y       z     vdW  Elec       q    Type
                         _______ _______ _______ _____ _____    ______ ____

>  <TORSDO>
F 3

$$$$
=
 OpenBabel11052417293D

 25 28  0  0  1  0  0  0  0  0999 V2000
  186.5390  176.7400  143.3250 C   0  0  0  0  0  0  0  0  0  0  0  0
  187.5150  175.6040  143.2150 C   0  0  0  0  0  0  0  0  0  0  0  0
  186.5490  177.0890  140.8860 N   0  0  0  0  0  0  0  0  0  0  0  0
  185.8850  177.1770  144.4840 C   0  0  0  0  0  0  0  0  0  0  0  0
  184.3870  178.2840  146.5620 C   0  0  0  0  0  3  0  0  0  0  0  0
  187.4180  176.1710  140.7020 N   0  0  0  0  0  0  0  0  0  0  0  0
  184.9760  178.2030  144.2400 C   0  0  0  0  0  0  0  0  0  0  0  0
  184.2170  178.7730  145.2590 C   0  0  0  0  0  3  0  0  0  0  0  0
  188.9830  174.5340  141.5450 C   0  0  2  0  0  3  0  0  0  0  0  0
  189.4960  174.1830  139.9020 Cl  0  0  0  0  0  0  0  0  0  0  0  0
  188.9630  175.8640  144.2830 S   0  0  0  0  0  0  0  0  0  0  0  0
  185.2990  177.2430  146.8210 C   0  0  0  0  0  3  0  0  0  0  0  0
  186.1030  177.4160  142.2010 C   0  0  0  0  0  0  0  0  0  0  0  0
  184.9380  178.5730  142.5960 S   0  0  0  0  0  0  0  0  0  0  0  0
  189.6150  173.8220  142.6230 N   0  0  0  0  0  0  0  0  0  0  0  0
  186.0530  176.6790  145.7790 C   0  0  0  0  0  3  0  0  0  0  0  0
  189.6230  174.2440  143.8540 C   0  0  0  0  0  0  0  0  0  0  0  0
  188.0010  175.4180  141.7870 C   0  0  0  0  0  0  0  0  0  0  0  0
  190.1320  173.3520  144.9340 C   0  0  0  0  0  2  0  0  0  0  0  0
  191.5560  173.1070  144.7520 N   0  0  0  0  0  2  0  0  0  0  0  0
  192.5670  173.8610  145.4270 C   0  0  0  0  0  0  0  0  0  0  0  0
  192.2480  174.8410  146.1530 O   0  0  0  0  0  0  0  0  0  0  0  0
  193.9800  173.4930  145.2650 C   0  0  0  0  0  0  0  0  0  0  0  0
  194.4300  172.1980  145.6470 N   0  0  0  0  0  1  0  0  0  0  0  0
  194.8240  174.3440  144.7840 N   0  0  0  0  0  2  0  0  0  0  0  0
  1  4  1  0  0  0  0
  2  1  1  0  0  0  0
  2 11  1  0  0  0  0
  3 13  1  0  0  0  0
  4 16  1  0  0  0  0
  5 12  1  0  0  0  0
  6  3  2  0  0  0  0
  6 18  1  0  0  0  0
  7  4  2  0  0  0  0
  7  8  1  0  0  0  0
  8  5  2  0  0  0  0
  9 10  1  6  0  0  0
  9 18  1  0  0  0  0
  9 15  1  0  0  0  0
 13 14  1  0  0  0  0
 13  1  2  0  0  0  0
 14  7  1  0  0  0  0
 15 17  2  0  0  0  0
 16 12  2  0  0  0  0
 17 11  1  0  0  0  0
 17 19  1  0  0  0  0
 18  2  2  0  0  0  0
 20 19  1  0  0  0  0
 20 21  1  0  0  0  0
 21 22  2  0  0  0  0
 23 21  1  0  0  0  0
 23 24  1  0  0  0  0
 25 23  2  0  0  0  0
M  END
>  <MODEL>
6

>  <REMARK>
 VINA RESULT:      -7.0      1.370      1.469
  Name = 
  3 active torsions:
  status: ('A' for Active; 'I' for Inactive)
    1  A    between atoms: C_2  and  C_21
    2  A    between atoms: C_6  and  N_15
    3  A    between atoms: C_6  and  C_23
                            x       y       z     vdW  Elec       q    Type
                         _______ _______ _______ _____ _____    ______ ____

>  <TORSDO>
F 3

$$$$
=
 OpenBabel11052417293D

 25 28  0  0  1  0  0  0  0  0999 V2000
  188.1610  176.0440  144.6340 C   0  0  0  0  0  0  0  0  0  0  0  0
  186.8260  176.6380  144.2890 C   0  0  0  0  0  0  0  0  0  0  0  0
  187.8310  176.4940  147.0330 N   0  0  0  0  0  0  0  0  0  0  0  0
  189.0450  175.3990  143.7600 C   0  0  0  0  0  0  0  0  0  0  0  0
  191.0140  174.0340  142.3290 C   0  0  0  0  0  3  0  0  0  0  0  0
  186.7060  177.0640  146.8290 N   0  0  0  0  0  0  0  0  0  0  0  0
  190.1670  174.8840  144.4040 C   0  0  0  0  0  0  0  0  0  0  0  0
  191.1640  174.2000  143.7140 C   0  0  0  0  0  3  0  0  0  0  0  0
  185.0080  177.9300  145.3440 C   0  0  2  0  0  3  0  0  0  0  0  0
  184.1110  178.5340  146.7280 Cl  0  0  0  0  0  0  0  0  0  0  0  0
  186.9790  177.9350  143.0250 S   0  0  0  0  0  0  0  0  0  0  0  0
  189.8820  174.5440  141.6680 C   0  0  0  0  0  3  0  0  0  0  0  0
  188.6010  175.9910  145.9440 C   0  0  0  0  0  0  0  0  0  0  0  0
  190.0810  175.1870  146.0600 S   0  0  0  0  0  0  0  0  0  0  0  0
  184.4720  178.1640  144.0300 N   0  0  0  0  0  0  0  0  0  0  0  0
  188.8860  175.2290  142.3820 C   0  0  0  0  0  3  0  0  0  0  0  0
  185.1910  178.1290  142.9450 C   0  0  0  0  0  0  0  0  0  0  0  0
  186.1460  177.2370  145.5100 C   0  0  0  0  0  0  0  0  0  0  0  0
  184.5200  178.1920  141.6160 C   0  0  0  0  0  2  0  0  0  0  0  0
  183.1080  178.5060  141.7820 N   0  0  0  0  0  2  0  0  0  0  0  0
  182.1090  178.1120  140.8370 C   0  0  0  0  0  0  0  0  0  0  0  0
  182.4410  177.5410  139.7640 O   0  0  0  0  0  0  0  0  0  0  0  0
  180.6930  178.3830  141.1190 C   0  0  0  0  0  0  0  0  0  0  0  0
  179.6860  177.9290  140.2220 N   0  0  0  0  0  2  0  0  0  0  0  0
  180.3530  179.0430  142.1770 N   0  0  0  0  0  1  0  0  0  0  0  0
  1 13  1  0  0  0  0
  2  1  2  0  0  0  0
  2 18  1  0  0  0  0
  4  7  1  0  0  0  0
  4  1  1  0  0  0  0
  5  8  1  0  0  0  0
  6  3  1  0  0  0  0
  7 14  1  0  0  0  0
  8  7  2  0  0  0  0
  9 18  1  0  0  0  0
  9 10  1  1  0  0  0
 11  2  1  0  0  0  0
 12  5  2  0  0  0  0
 12 16  1  0  0  0  0
 13 14  1  0  0  0  0
 13  3  2  0  0  0  0
 15  9  1  0  0  0  0
 16  4  2  0  0  0  0
 17 11  1  0  0  0  0
 17 15  2  0  0  0  0
 18  6  2  0  0  0  0
 19 20  1  0  0  0  0
 19 17  1  0  0  0  0
 21 23  1  0  0  0  0
 21 20  1  0  0  0  0
 22 21  2  0  0  0  0
 23 25  1  0  0  0  0
 24 23  2  0  0  0  0
M  END
>  <MODEL>
7

>  <REMARK>
 VINA RESULT:      -7.0      4.421      8.654
  Name = 
  3 active torsions:
  status: ('A' for Active; 'I' for Inactive)
    1  A    between atoms: C_2  and  C_21
    2  A    between atoms: C_6  and  N_15
    3  A    between atoms: C_6  and  C_23
                            x       y       z     vdW  Elec       q    Type
                         _______ _______ _______ _____ _____    ______ ____

>  <TORSDO>
F 3

$$$$
=
 OpenBabel11052417293D

 25 28  0  0  1  0  0  0  0  0999 V2000
  185.9530  177.5680  143.8100 C   0  0  0  0  0  0  0  0  0  0  0  0
  186.7300  176.7110  142.8530 C   0  0  0  0  0  0  0  0  0  0  0  0
  184.6830  178.6080  141.9730 N   0  0  0  0  0  0  0  0  0  0  0  0
  186.0020  177.5220  145.2090 C   0  0  0  0  0  0  0  0  0  0  0  0
  185.8120  177.6840  147.9890 C   0  0  0  0  0  3  0  0  0  0  0  0
  185.3300  177.9570  141.0840 N   0  0  0  0  0  0  0  0  0  0  0  0
  185.0960  178.3910  145.8130 C   0  0  0  0  0  0  0  0  0  0  0  0
  184.9820  178.4920  147.1970 C   0  0  0  0  0  3  0  0  0  0  0  0
  187.1090  176.4590  140.4280 C   0  0  2  0  0  3  0  0  0  0  0  0
  186.6860  176.7010  138.7400 Cl  0  0  0  0  0  0  0  0  0  0  0  0
  188.5230  176.9080  143.0860 S   0  0  0  0  0  0  0  0  0  0  0  0
  186.7270  176.7970  147.3900 C   0  0  0  0  0  3  0  0  0  0  0  0
  184.9900  178.4510  143.3570 C   0  0  0  0  0  0  0  0  0  0  0  0
  184.2020  179.2100  144.6420 S   0  0  0  0  0  0  0  0  0  0  0  0
  188.2150  175.5920  140.7360 N   0  0  0  0  0  0  0  0  0  0  0  0
  186.8250  176.7080  145.9930 C   0  0  0  0  0  3  0  0  0  0  0  0
  188.8650  175.6320  141.8620 C   0  0  0  0  0  0  0  0  0  0  0  0
  186.3970  177.0410  141.4070 C   0  0  0  0  0  0  0  0  0  0  0  0
  189.8670  174.5730  142.1710 C   0  0  0  0  0  2  0  0  0  0  0  0
  190.1740  173.8090  140.9700 N   0  0  0  0  0  2  0  0  0  0  0  0
  190.0000  172.3920  140.8860 C   0  0  0  0  0  0  0  0  0  0  0  0
  189.6480  171.7340  141.9020 O   0  0  0  0  0  0  0  0  0  0  0  0
  190.2420  171.7030  139.6110 C   0  0  0  0  0  0  0  0  0  0  0  0
  191.5280  171.1680  139.3200 N   0  0  0  0  0  1  0  0  0  0  0  0
  189.2920  171.5850  138.7430 N   0  0  0  0  0  2  0  0  0  0  0  0
  1  4  1  0  0  0  0
  2 11  1  0  0  0  0
  2  1  1  0  0  0  0
  3 13  1  0  0  0  0
  4  7  2  0  0  0  0
  4 16  1  0  0  0  0
  6 18  1  0  0  0  0
  6  3  2  0  0  0  0
  7  8  1  0  0  0  0
  8  5  2  0  0  0  0
  9 10  1  1  0  0  0
  9 15  1  0  0  0  0
  9 18  1  0  0  0  0
 12  5  1  0  0  0  0
 13  1  2  0  0  0  0
 13 14  1  0  0  0  0
 14  7  1  0  0  0  0
 15 17  2  0  0  0  0
 16 12  2  0  0  0  0
 17 19  1  0  0  0  0
 17 11  1  0  0  0  0
 18  2  2  0  0  0  0
 20 19  1  0  0  0  0
 21 20  1  0  0  0  0
 21 22  2  0  0  0  0
 23 21  1  0  0  0  0
 24 23  1  0  0  0  0
 25 23  2  0  0  0  0
M  END
>  <MODEL>
8

>  <REMARK>
 VINA RESULT:      -6.8      3.588      4.514
  Name = 
  3 active torsions:
  status: ('A' for Active; 'I' for Inactive)
    1  A    between atoms: C_2  and  C_21
    2  A    between atoms: C_6  and  N_15
    3  A    between atoms: C_6  and  C_23
                            x       y       z     vdW  Elec       q    Type
                         _______ _______ _______ _____ _____    ______ ____

>  <TORSDO>
F 3

$$$$
=
 OpenBabel11052417293D

 25 28  0  0  1  0  0  0  0  0999 V2000
  192.0820  176.2910  145.0390 C   0  0  0  0  0  0  0  0  0  0  0  0
  190.6430  176.1430  144.6390 C   0  0  0  0  0  0  0  0  0  0  0  0
  191.4880  176.4240  147.4260 N   0  0  0  0  0  0  0  0  0  0  0  0
  193.2000  176.2120  144.1990 C   0  0  0  0  0  0  0  0  0  0  0  0
  195.6370  176.0790  142.8450 C   0  0  0  0  0  3  0  0  0  0  0  0
  190.2370  176.3560  147.1760 N   0  0  0  0  0  0  0  0  0  0  0  0
  194.4060  176.3090  144.8890 C   0  0  0  0  0  0  0  0  0  0  0  0
  195.6350  176.2460  144.2380 C   0  0  0  0  0  3  0  0  0  0  0  0
  188.3860  176.3030  145.6240 C   0  0  2  0  0  3  0  0  0  0  0  0
  187.2600  176.3210  146.9720 Cl  0  0  0  0  0  0  0  0  0  0  0  0
  190.1630  177.3870  143.4030 S   0  0  0  0  0  0  0  0  0  0  0  0
  194.4250  175.9740  142.1370 C   0  0  0  0  0  3  0  0  0  0  0  0
  192.4440  176.4180  146.3670 C   0  0  0  0  0  0  0  0  0  0  0  0
  194.1220  176.4650  146.5430 S   0  0  0  0  0  0  0  0  0  0  0  0
  187.8510  176.2830  144.2890 N   0  0  0  0  0  0  0  0  0  0  0  0
  193.1960  176.0360  142.8120 C   0  0  0  0  0  3  0  0  0  0  0  0
  188.5250  176.6560  143.2400 C   0  0  0  0  0  0  0  0  0  0  0  0
  189.7120  176.2730  145.8340 C   0  0  0  0  0  0  0  0  0  0  0  0
  187.9610  176.4210  141.8810 C   0  0  0  0  0  2  0  0  0  0  0  0
  186.5290  176.6890  141.8810 N   0  0  0  0  0  2  0  0  0  0  0  0
  185.9860  178.0110  141.9420 C   0  0  0  0  0  0  0  0  0  0  0  0
  186.7490  179.0040  142.0900 O   0  0  0  0  0  0  0  0  0  0  0  0
  184.5340  178.2070  141.8420 C   0  0  0  0  0  0  0  0  0  0  0  0
  183.9240  178.3920  140.5700 N   0  0  0  0  0  2  0  0  0  0  0  0
  183.8020  178.2210  142.9070 N   0  0  0  0  0  1  0  0  0  0  0  0
  1 13  1  0  0  0  0
  2  1  2  0  0  0  0
  2 18  1  0  0  0  0
  4  7  1  0  0  0  0
  4  1  1  0  0  0  0
  5  8  1  0  0  0  0
  6  3  1  0  0  0  0
  7 14  1  0  0  0  0
  8  7  2  0  0  0  0
  9 18  1  0  0  0  0
  9 10  1  1  0  0  0
 11  2  1  0  0  0  0
 12 16  1  0  0  0  0
 12  5  2  0  0  0  0
 13 14  1  0  0  0  0
 13  3  2  0  0  0  0
 15  9  1  0  0  0  0
 16  4  2  0  0  0  0
 17 11  1  0  0  0  0
 17 15  2  0  0  0  0
 18  6  2  0  0  0  0
 19 17  1  0  0  0  0
 20 19  1  0  0  0  0
 20 21  1  0  0  0  0
 21 22  2  0  0  0  0
 23 21  1  0  0  0  0
 23 25  1  0  0  0  0
 24 23  2  0  0  0  0
M  END
>  <MODEL>
9

>  <REMARK>
 VINA RESULT:      -6.7      3.374      8.032
  Name = 
  3 active torsions:
  status: ('A' for Active; 'I' for Inactive)
    1  A    between atoms: C_2  and  C_21
    2  A    between atoms: C_6  and  N_15
    3  A    between atoms: C_6  and  C_23
                            x       y       z     vdW  Elec       q    Type
                         _______ _______ _______ _____ _____    ______ ____

>  <TORSDO>
F 3

$$$$
