=
 OpenBabel11052417083D

 30 32  0  0  1  0  0  0  0  0999 V2000
  187.9500  176.2620  146.2580 C   0  0  2  0  0  3  0  0  0  0  0  0
  185.0560  177.2480  145.9680 C   0  0  2  0  0  3  0  0  0  0  0  0
  186.5320  176.3830  144.1150 C   0  0  0  0  0  2  0  0  0  0  0  0
  187.1420  179.0540  148.1970 C   0  0  0  0  0  2  0  0  0  0  0  0
  187.5610  177.0830  144.9900 C   0  0  1  0  0  0  0  0  0  0  0  0
  186.0280  179.3070  147.1900 C   0  0  0  0  0  2  0  0  0  0  0  0
  184.0090  178.3440  146.0970 C   0  0  0  0  0  2  0  0  0  0  0  0
  188.1620  178.0580  147.6610 C   0  0  0  0  0  2  0  0  0  0  0  0
  187.5660  176.8000  147.5080 O   0  0  0  0  0  0  0  0  0  0  0  0
  185.0190  178.1590  147.2070 C   0  0  1  0  0  3  0  0  0  0  0  0
  185.8780  178.6880  144.0630 O   0  0  0  0  0  1  0  0  0  0  0  0
  186.1200  177.6030  144.9130 C   0  0  2  0  0  0  0  0  0  0  0  0
  189.0720  174.3400  147.3930 C   0  0  0  0  0  1  0  0  0  0  0  0
  189.2260  175.3820  146.2870 C   0  0  2  0  0  0  0  0  0  0  0  0
  190.4760  176.2750  146.5290 C   0  0  2  0  0  3  0  0  0  0  0  0
  191.5650  176.0370  145.4830 C   0  0  0  0  0  2  0  0  0  0  0  0
  192.6530  175.1410  146.0440 C   0  0  0  0  0  1  0  0  0  0  0  0
  191.0660  176.1590  147.9080 C   0  0  0  0  0  3  0  0  0  0  0  0
  191.4230  177.2420  148.5950 C   0  0  0  0  0  2  0  0  0  0  0  0
  189.3320  174.6520  144.9370 C   0  0  0  0  0  2  0  0  0  0  0  0
  189.6260  173.2940  145.0990 O   0  0  0  0  0  0  0  0  0  0  0  0
  190.3290  172.9420  143.9470 C   0  0  1  0  0  3  0  0  0  0  0  0
  191.4420  171.9810  144.3090 C   0  0  0  0  0  1  0  0  0  0  0  0
  189.2020  172.1410  142.7710 S   0  0  0  0  0  1  0  0  0  0  0  0
  189.6450  178.3190  145.0280 O   0  0  0  0  0  1  0  0  0  0  0  0
  188.5750  177.9490  144.2140 C   0  0  1  0  0  3  0  0  0  0  0  0
  189.0950  177.3070  142.9330 C   0  0  0  0  0  2  0  0  0  0  0  0
  188.8020  178.1600  141.7060 C   0  0  0  0  0  2  0  0  0  0  0  0
  187.5060  176.4260  140.6880 O   0  0  0  0  0  1  0  0  0  0  0  0
  187.4800  177.7680  141.0650 C   0  0  0  0  0  2  0  0  0  0  0  0
  1 14  1  1  0  0  0
  1  9  1  0  0  0  0
  2  7  1  6  0  0  0
  2 10  1  0  0  0  0
  3 12  1  0  0  0  0
  3  5  1  0  0  0  0
  5 26  1  6  0  0  0
  5  1  1  0  0  0  0
  6 10  1  0  0  0  0
  6  4  1  0  0  0  0
  8  4  1  0  0  0  0
  9  8  1  0  0  0  0
 10  7  1  6  0  0  0
 12 11  1  6  0  0  0
 12  5  1  0  0  0  0
 12  2  1  0  0  0  0
 14 15  1  0  0  0  0
 14 13  1  1  0  0  0
 15 16  1  6  0  0  0
 15 18  1  0  0  0  0
 16 17  1  0  0  0  0
 18 19  2  0  0  0  0
 20 21  1  0  0  0  0
 20 14  1  0  0  0  0
 22 23  1  1  0  0  0
 22 21  1  0  0  0  0
 24 22  1  0  0  0  0
 26 25  1  1  0  0  0
 27 26  1  0  0  0  0
 28 27  1  0  0  0  0
 29 30  1  0  0  0  0
 30 28  1  0  0  0  0
M  END
>  <MODEL>
1

>  <REMARK>
 VINA RESULT:      -6.2      0.000      0.000
  Name = 
  11 active torsions:
  status: ('A' for Active; 'I' for Inactive)
    1  A    between atoms: C_2  and  C_14
    2  A    between atoms: C_3  and  O_19
    3  A    between atoms: C_4  and  C_22
    4  A    between atoms: C_6  and  C_12
    5  A    between atoms: C_6  and  C_17
    6  A    between atoms: C_12  and  C_13
    7  A    between atoms: C_14  and  C_20
    8  A    between atoms: C_14  and  C_22
    9  A    between atoms: C_17  and  C_21
   10  A    between atoms: O_19  and  C_29
   11  A    between atoms: C_22  and  C_29
                            x       y       z     vdW  Elec       q    Type
                         _______ _______ _______ _____ _____    ______ ____

>  <TORSDO>
F 11

$$$$
=
 OpenBabel11052417083D

 30 32  0  0  1  0  0  0  0  0999 V2000
  188.6820  175.2580  143.9330 C   0  0  2  0  0  3  0  0  0  0  0  0
  189.4810  172.3330  143.4430 C   0  0  2  0  0  3  0  0  0  0  0  0
  190.3220  173.8210  145.2970 C   0  0  0  0  0  2  0  0  0  0  0  0
  189.0770  174.3820  140.5750 C   0  0  0  0  0  2  0  0  0  0  0  0
  190.1640  174.8340  144.1740 C   0  0  1  0  0  0  0  0  0  0  0  0
  189.9670  173.2520  141.0760 C   0  0  0  0  0  2  0  0  0  0  0  0
  190.0870  171.2550  142.5580 C   0  0  0  0  0  2  0  0  0  0  0  0
  188.8380  175.4260  141.6560 C   0  0  0  0  0  2  0  0  0  0  0  0
  188.0990  174.8680  142.7060 O   0  0  0  0  0  0  0  0  0  0  0  0
  189.1630  172.2790  141.9380 C   0  0  1  0  0  3  0  0  0  0  0  0
  191.8810  173.0980  143.6260 O   0  0  0  0  0  1  0  0  0  0  0  0
  190.5300  173.3780  143.8640 C   0  0  2  0  0  0  0  0  0  0  0  0
  188.8940  177.7470  144.0010 C   0  0  0  0  0  1  0  0  0  0  0  0
  188.1060  176.5600  144.5480 C   0  0  2  0  0  0  0  0  0  0  0  0
  188.1970  176.4930  146.0990 C   0  0  2  0  0  3  0  0  0  0  0  0
  186.8370  176.6960  146.7650 C   0  0  0  0  0  2  0  0  0  0  0  0
  186.7500  178.0770  147.3870 C   0  0  0  0  0  1  0  0  0  0  0  0
  189.2010  177.4370  146.7040 C   0  0  0  0  0  3  0  0  0  0  0  0
  190.2560  176.9790  147.3740 C   0  0  0  0  0  2  0  0  0  0  0  0
  186.6420  176.6930  144.0950 C   0  0  0  0  0  2  0  0  0  0  0  0
  186.4350  177.8440  143.3280 O   0  0  0  0  0  0  0  0  0  0  0  0
  185.2190  178.3580  143.7760 C   0  0  1  0  0  3  0  0  0  0  0  0
  185.3990  179.8070  144.1760 C   0  0  0  0  0  1  0  0  0  0  0  0
  183.9880  178.2500  142.4470 S   0  0  0  0  0  1  0  0  0  0  0  0
  192.2970  175.6070  145.0270 O   0  0  0  0  0  1  0  0  0  0  0  0
  191.3450  175.8160  144.0290 C   0  0  1  0  0  3  0  0  0  0  0  0
  192.0140  175.7920  142.6600 C   0  0  0  0  0  2  0  0  0  0  0  0
  193.5170  176.0230  142.7540 C   0  0  0  0  0  2  0  0  0  0  0  0
  194.9280  176.7140  140.9500 O   0  0  0  0  0  1  0  0  0  0  0  0
  194.2160  175.6300  141.4630 C   0  0  0  0  0  2  0  0  0  0  0  0
  1  5  1  0  0  0  0
  1 14  1  6  0  0  0
  2  7  1  6  0  0  0
  2 12  1  0  0  0  0
  4  6  1  0  0  0  0
  4  8  1  0  0  0  0
  5 26  1  6  0  0  0
  5  3  1  0  0  0  0
  8  9  1  0  0  0  0
  9  1  1  0  0  0  0
 10  6  1  6  0  0  0
 10  7  1  0  0  0  0
 10  2  1  0  0  0  0
 12 11  1  6  0  0  0
 12  5  1  0  0  0  0
 12  3  1  0  0  0  0
 14 13  1  6  0  0  0
 14 15  1  0  0  0  0
 15 18  1  1  0  0  0
 15 16  1  0  0  0  0
 16 17  1  0  0  0  0
 18 19  2  0  0  0  0
 20 14  1  0  0  0  0
 21 22  1  0  0  0  0
 21 20  1  0  0  0  0
 22 23  1  6  0  0  0
 24 22  1  0  0  0  0
 26 25  1  1  0  0  0
 27 28  1  0  0  0  0
 27 26  1  0  0  0  0
 29 30  1  0  0  0  0
 30 28  1  0  0  0  0
M  END
>  <MODEL>
2

>  <REMARK>
 VINA RESULT:      -6.1      2.869      6.242
  Name = 
  11 active torsions:
  status: ('A' for Active; 'I' for Inactive)
    1  A    between atoms: C_2  and  C_14
    2  A    between atoms: C_3  and  O_19
    3  A    between atoms: C_4  and  C_22
    4  A    between atoms: C_6  and  C_12
    5  A    between atoms: C_6  and  C_17
    6  A    between atoms: C_12  and  C_13
    7  A    between atoms: C_14  and  C_20
    8  A    between atoms: C_14  and  C_22
    9  A    between atoms: C_17  and  C_21
   10  A    between atoms: O_19  and  C_29
   11  A    between atoms: C_22  and  C_29
                            x       y       z     vdW  Elec       q    Type
                         _______ _______ _______ _____ _____    ______ ____

>  <TORSDO>
F 11

$$$$
=
 OpenBabel11052417083D

 30 32  0  0  1  0  0  0  0  0999 V2000
  188.9570  175.3230  143.9900 C   0  0  2  0  0  3  0  0  0  0  0  0
  189.4760  172.4400  143.0670 C   0  0  2  0  0  3  0  0  0  0  0  0
  190.7610  173.6960  144.8360 C   0  0  0  0  0  2  0  0  0  0  0  0
  188.6050  174.7890  140.5560 C   0  0  0  0  0  2  0  0  0  0  0  0
  190.4320  174.8260  143.8730 C   0  0  1  0  0  0  0  0  0  0  0  0
  189.5160  173.5840  140.7490 C   0  0  0  0  0  2  0  0  0  0  0  0
  189.8280  171.4400  141.9760 C   0  0  0  0  0  2  0  0  0  0  0  0
  188.6520  175.7230  141.7570 C   0  0  0  0  0  2  0  0  0  0  0  0
  188.1140  175.0830  142.8810 O   0  0  0  0  0  0  0  0  0  0  0  0
  188.8540  172.5540  141.6640 C   0  0  1  0  0  3  0  0  0  0  0  0
  191.9010  173.0990  142.8140 O   0  0  0  0  0  1  0  0  0  0  0  0
  190.6450  173.3990  143.3550 C   0  0  2  0  0  0  0  0  0  0  0  0
  189.1520  177.8100  144.1360 C   0  0  0  0  0  1  0  0  0  0  0  0
  188.5920  176.5720  144.8320 C   0  0  2  0  0  0  0  0  0  0  0  0
  189.1730  176.4250  146.2680 C   0  0  2  0  0  3  0  0  0  0  0  0
  188.2340  175.6490  147.1920 C   0  0  0  0  0  2  0  0  0  0  0  0
  188.9080  174.3860  147.6940 C   0  0  0  0  0  1  0  0  0  0  0  0
  189.5600  177.7260  146.9180 C   0  0  0  0  0  3  0  0  0  0  0  0
  190.4230  177.7570  147.9300 C   0  0  0  0  0  2  0  0  0  0  0  0
  187.0580  176.6860  144.8750 C   0  0  0  0  0  2  0  0  0  0  0  0
  186.6340  178.0190  144.9080 O   0  0  0  0  0  0  0  0  0  0  0  0
  185.5520  178.0270  145.7880 C   0  0  1  0  0  3  0  0  0  0  0  0
  185.9450  178.7410  147.0640 C   0  0  0  0  0  1  0  0  0  0  0  0
  184.1540  178.8930  145.0210 S   0  0  0  0  0  1  0  0  0  0  0  0
  191.2380  176.7700  142.6710 O   0  0  0  0  0  1  0  0  0  0  0  0
  191.6100  175.7770  143.5770 C   0  0  1  0  0  3  0  0  0  0  0  0
  192.2280  176.4110  144.8180 C   0  0  0  0  0  2  0  0  0  0  0  0
  193.7310  176.6110  144.6690 C   0  0  0  0  0  2  0  0  0  0  0  0
  194.8920  175.5530  146.4730 O   0  0  0  0  0  1  0  0  0  0  0  0
  194.4010  176.7780  146.0230 C   0  0  0  0  0  2  0  0  0  0  0  0
  1 14  1  6  0  0  0
  2  7  1  6  0  0  0
  2 12  1  0  0  0  0
  4  6  1  0  0  0  0
  4  8  1  0  0  0  0
  5 26  1  6  0  0  0
  5  1  1  0  0  0  0
  5  3  1  0  0  0  0
  8  9  1  0  0  0  0
  9  1  1  0  0  0  0
 10  6  1  6  0  0  0
 10  7  1  0  0  0  0
 10  2  1  0  0  0  0
 12 11  1  6  0  0  0
 12  5  1  0  0  0  0
 12  3  1  0  0  0  0
 14 13  1  6  0  0  0
 14 20  1  0  0  0  0
 14 15  1  0  0  0  0
 15 18  1  1  0  0  0
 15 16  1  0  0  0  0
 16 17  1  0  0  0  0
 18 19  2  0  0  0  0
 20 21  1  0  0  0  0
 21 22  1  0  0  0  0
 22 23  1  1  0  0  0
 24 22  1  0  0  0  0
 26 25  1  6  0  0  0
 26 27  1  0  0  0  0
 28 27  1  0  0  0  0
 28 30  1  0  0  0  0
 30 29  1  0  0  0  0
M  END
>  <MODEL>
3

>  <REMARK>
 VINA RESULT:      -6.1      2.671      6.245
  Name = 
  11 active torsions:
  status: ('A' for Active; 'I' for Inactive)
    1  A    between atoms: C_2  and  C_14
    2  A    between atoms: C_3  and  O_19
    3  A    between atoms: C_4  and  C_22
    4  A    between atoms: C_6  and  C_12
    5  A    between atoms: C_6  and  C_17
    6  A    between atoms: C_12  and  C_13
    7  A    between atoms: C_14  and  C_20
    8  A    between atoms: C_14  and  C_22
    9  A    between atoms: C_17  and  C_21
   10  A    between atoms: O_19  and  C_29
   11  A    between atoms: C_22  and  C_29
                            x       y       z     vdW  Elec       q    Type
                         _______ _______ _______ _____ _____    ______ ____

>  <TORSDO>
F 11

$$$$
=
 OpenBabel11052417083D

 30 32  0  0  1  0  0  0  0  0999 V2000
  190.4610  175.7750  143.7800 C   0  0  2  0  0  3  0  0  0  0  0  0
  188.8370  177.7600  142.0900 C   0  0  2  0  0  3  0  0  0  0  0  0
  189.9330  178.2360  144.3100 C   0  0  0  0  0  2  0  0  0  0  0  0
  187.6440  174.4220  142.2190 C   0  0  0  0  0  2  0  0  0  0  0  0
  189.5200  176.7860  144.5070 C   0  0  1  0  0  0  0  0  0  0  0  0
  187.1030  175.8450  142.1800 C   0  0  0  0  0  2  0  0  0  0  0  0
  187.5390  178.1720  141.4100 C   0  0  0  0  0  2  0  0  0  0  0  0
  188.8200  174.2980  143.1770 C   0  0  0  0  0  2  0  0  0  0  0  0
  189.9040  175.0470  142.7040 O   0  0  0  0  0  0  0  0  0  0  0  0
  187.9940  176.7330  141.3130 C   0  0  1  0  0  3  0  0  0  0  0  0
  187.5400  178.2840  144.1930 O   0  0  0  0  0  1  0  0  0  0  0  0
  188.6870  177.7200  143.6220 C   0  0  2  0  0  0  0  0  0  0  0  0
  191.0840  173.7170  145.0510 C   0  0  0  0  0  1  0  0  0  0  0  0
  191.6070  175.0550  144.5350 C   0  0  2  0  0  0  0  0  0  0  0  0
  192.1090  175.9500  145.7050 C   0  0  2  0  0  3  0  0  0  0  0  0
  193.3820  176.7120  145.3410 C   0  0  0  0  0  2  0  0  0  0  0  0
  194.2970  176.8250  146.5460 C   0  0  0  0  0  1  0  0  0  0  0  0
  192.3120  175.2180  147.0040 C   0  0  0  0  0  3  0  0  0  0  0  0
  191.4880  175.4040  148.0320 C   0  0  0  0  0  2  0  0  0  0  0  0
  192.7420  174.7840  143.5330 C   0  0  0  0  0  2  0  0  0  0  0  0
  193.0480  173.4220  143.4460 O   0  0  0  0  0  0  0  0  0  0  0  0
  194.4410  173.3690  143.4430 C   0  0  1  0  0  3  0  0  0  0  0  0
  194.9940  174.6350  142.8230 C   0  0  0  0  0  1  0  0  0  0  0  0
  195.0460  173.2220  145.1480 S   0  0  0  0  0  1  0  0  0  0  0  0
  189.0810  177.5360  146.7690 O   0  0  0  0  0  1  0  0  0  0  0  0
  188.8730  176.4860  145.8750 C   0  0  1  0  0  3  0  0  0  0  0  0
  187.3880  176.1500  145.8040 C   0  0  0  0  0  2  0  0  0  0  0  0
  186.6150  176.7250  146.9840 C   0  0  0  0  0  2  0  0  0  0  0  0
  184.9540  178.4320  146.7600 O   0  0  0  0  0  1  0  0  0  0  0  0
  185.1870  177.0670  146.5920 C   0  0  0  0  0  2  0  0  0  0  0  0
  1  5  1  0  0  0  0
  1 14  1  1  0  0  0
  2  7  1  6  0  0  0
  2 12  1  0  0  0  0
  3  5  1  0  0  0  0
  4  8  1  0  0  0  0
  5 26  1  1  0  0  0
  6  4  1  0  0  0  0
  9  8  1  0  0  0  0
  9  1  1  0  0  0  0
 10  7  1  6  0  0  0
 10  2  1  0  0  0  0
 10  6  1  0  0  0  0
 12 11  1  1  0  0  0
 12  3  1  0  0  0  0
 12  5  1  0  0  0  0
 14 13  1  1  0  0  0
 14 15  1  0  0  0  0
 15 16  1  6  0  0  0
 15 18  1  0  0  0  0
 16 17  1  0  0  0  0
 18 19  2  0  0  0  0
 20 14  1  0  0  0  0
 21 20  1  0  0  0  0
 22 23  1  1  0  0  0
 22 21  1  0  0  0  0
 22 24  1  0  0  0  0
 26 25  1  1  0  0  0
 27 26  1  0  0  0  0
 27 28  1  0  0  0  0
 30 29  1  0  0  0  0
 30 28  1  0  0  0  0
M  END
>  <MODEL>
4

>  <REMARK>
 VINA RESULT:      -5.8      2.312      4.478
  Name = 
  11 active torsions:
  status: ('A' for Active; 'I' for Inactive)
    1  A    between atoms: C_2  and  C_14
    2  A    between atoms: C_3  and  O_19
    3  A    between atoms: C_4  and  C_22
    4  A    between atoms: C_6  and  C_12
    5  A    between atoms: C_6  and  C_17
    6  A    between atoms: C_12  and  C_13
    7  A    between atoms: C_14  and  C_20
    8  A    between atoms: C_14  and  C_22
    9  A    between atoms: C_17  and  C_21
   10  A    between atoms: O_19  and  C_29
   11  A    between atoms: C_22  and  C_29
                            x       y       z     vdW  Elec       q    Type
                         _______ _______ _______ _____ _____    ______ ____

>  <TORSDO>
F 11

$$$$
=
 OpenBabel11052417083D

 30 32  0  0  1  0  0  0  0  0999 V2000
  188.7360  176.8080  144.5590 C   0  0  2  0  0  3  0  0  0  0  0  0
  191.7900  177.0370  144.7950 C   0  0  2  0  0  3  0  0  0  0  0  0
  190.4660  176.8540  142.6560 C   0  0  0  0  0  2  0  0  0  0  0  0
  190.1490  175.0170  147.2050 C   0  0  0  0  0  2  0  0  0  0  0  0
  189.6290  175.9840  143.5800 C   0  0  1  0  0  0  0  0  0  0  0  0
  191.4430  175.0430  146.4020 C   0  0  0  0  0  2  0  0  0  0  0  0
  193.1250  176.5050  145.2930 C   0  0  0  0  0  2  0  0  0  0  0  0
  188.9510  175.3920  146.3440 C   0  0  0  0  0  2  0  0  0  0  0  0
  189.0550  176.7260  145.9340 O   0  0  0  0  0  0  0  0  0  0  0  0
  191.9320  176.4790  146.2220 C   0  0  1  0  0  3  0  0  0  0  0  0
  191.9250  175.0460  143.2470 O   0  0  0  0  0  1  0  0  0  0  0  0
  191.1470  176.0850  143.7700 C   0  0  2  0  0  0  0  0  0  0  0  0
  186.5150  175.7520  144.1200 C   0  0  0  0  0  1  0  0  0  0  0  0
  187.2430  177.0870  144.2480 C   0  0  2  0  0  0  0  0  0  0  0  0
  187.1270  177.9180  142.9380 C   0  0  2  0  0  3  0  0  0  0  0  0
  186.1250  179.0640  143.0700 C   0  0  0  0  0  2  0  0  0  0  0  0
  184.7730  178.6550  142.5170 C   0  0  0  0  0  1  0  0  0  0  0  0
  186.8050  177.1050  141.7130 C   0  0  0  0  0  3  0  0  0  0  0  0
  187.3990  177.3540  140.5490 C   0  0  0  0  0  2  0  0  0  0  0  0
  186.6450  177.8600  145.4360 C   0  0  0  0  0  2  0  0  0  0  0  0
  185.8810  177.0320  146.2660 O   0  0  0  0  0  0  0  0  0  0  0  0
  185.1800  177.9070  147.0950 C   0  0  1  0  0  3  0  0  0  0  0  0
  186.1380  178.9240  147.6800 C   0  0  0  0  0  1  0  0  0  0  0  0
  183.9060  178.7670  146.1290 S   0  0  0  0  0  1  0  0  0  0  0  0
  189.4830  174.5950  141.6000 O   0  0  0  0  0  1  0  0  0  0  0  0
  189.1680  174.6490  142.9570 C   0  0  1  0  0  3  0  0  0  0  0  0
  189.7050  173.4110  143.6650 C   0  0  0  0  0  2  0  0  0  0  0  0
  189.0920  172.1290  143.1180 C   0  0  0  0  0  2  0  0  0  0  0  0
  191.3910  171.4830  142.9810 O   0  0  0  0  0  1  0  0  0  0  0  0
  190.1350  171.2760  142.4130 C   0  0  0  0  0  2  0  0  0  0  0  0
  1 14  1  1  0  0  0
  1  9  1  0  0  0  0
  2  7  1  6  0  0  0
  2 10  1  0  0  0  0
  3  5  1  0  0  0  0
  3 12  1  0  0  0  0
  5 26  1  6  0  0  0
  5 12  1  0  0  0  0
  5  1  1  0  0  0  0
  6  4  1  0  0  0  0
  8  4  1  0  0  0  0
  9  8  1  0  0  0  0
 10  7  1  6  0  0  0
 10  6  1  0  0  0  0
 12 11  1  6  0  0  0
 12  2  1  0  0  0  0
 14 13  1  6  0  0  0
 14 20  1  0  0  0  0
 15 18  1  6  0  0  0
 15 16  1  0  0  0  0
 15 14  1  0  0  0  0
 17 16  1  0  0  0  0
 19 18  2  0  0  0  0
 20 21  1  0  0  0  0
 21 22  1  0  0  0  0
 22 23  1  6  0  0  0
 24 22  1  0  0  0  0
 26 25  1  6  0  0  0
 26 27  1  0  0  0  0
 28 27  1  0  0  0  0
 30 29  1  0  0  0  0
 30 28  1  0  0  0  0
M  END
>  <MODEL>
5

>  <REMARK>
 VINA RESULT:      -5.7      2.409      6.265
  Name = 
  11 active torsions:
  status: ('A' for Active; 'I' for Inactive)
    1  A    between atoms: C_2  and  C_14
    2  A    between atoms: C_3  and  O_19
    3  A    between atoms: C_4  and  C_22
    4  A    between atoms: C_6  and  C_12
    5  A    between atoms: C_6  and  C_17
    6  A    between atoms: C_12  and  C_13
    7  A    between atoms: C_14  and  C_20
    8  A    between atoms: C_14  and  C_22
    9  A    between atoms: C_17  and  C_21
   10  A    between atoms: O_19  and  C_29
   11  A    between atoms: C_22  and  C_29
                            x       y       z     vdW  Elec       q    Type
                         _______ _______ _______ _____ _____    ______ ____

>  <TORSDO>
F 11

$$$$
=
 OpenBabel11052417083D

 30 32  0  0  1  0  0  0  0  0999 V2000
  191.8670  176.4640  143.9100 C   0  0  2  0  0  3  0  0  0  0  0  0
  194.4900  175.4340  142.6870 C   0  0  2  0  0  3  0  0  0  0  0  0
  192.1630  174.6510  142.1090 C   0  0  0  0  0  2  0  0  0  0  0  0
  194.5140  176.1290  146.1650 C   0  0  0  0  0  2  0  0  0  0  0  0
  192.0010  174.9420  143.5930 C   0  0  1  0  0  0  0  0  0  0  0  0
  195.0970  175.1250  145.1800 C   0  0  0  0  0  2  0  0  0  0  0  0
  195.8510  174.7710  142.8340 C   0  0  0  0  0  2  0  0  0  0  0  0
  193.0480  176.4140  145.8700 C   0  0  0  0  0  2  0  0  0  0  0  0
  192.9260  177.0590  144.6330 O   0  0  0  0  0  0  0  0  0  0  0  0
  195.4240  175.8050  143.8520 C   0  0  1  0  0  3  0  0  0  0  0  0
  193.6480  173.1040  143.1790 O   0  0  0  0  0  1  0  0  0  0  0  0
  193.3460  174.4630  143.0350 C   0  0  2  0  0  0  0  0  0  0  0  0
  190.6650  178.6410  144.1540 C   0  0  0  0  0  1  0  0  0  0  0  0
  190.4800  177.1260  144.1140 C   0  0  2  0  0  0  0  0  0  0  0  0
  189.8380  176.6040  145.4310 C   0  0  2  0  0  3  0  0  0  0  0  0
  188.3720  176.2160  145.2410 C   0  0  0  0  0  2  0  0  0  0  0  0
  187.4620  177.2420  145.8900 C   0  0  0  0  0  1  0  0  0  0  0  0
  189.9650  177.5430  146.5990 C   0  0  0  0  0  3  0  0  0  0  0  0
  190.4570  177.1280  147.7630 C   0  0  0  0  0  2  0  0  0  0  0  0
  189.6010  176.7710  142.9020 C   0  0  0  0  0  2  0  0  0  0  0  0
  189.1960  177.9110  142.2000 O   0  0  0  0  0  0  0  0  0  0  0  0
  188.0280  177.5280  141.5410 C   0  0  1  0  0  3  0  0  0  0  0  0
  187.8970  176.0200  141.5820 C   0  0  0  0  0  1  0  0  0  0  0  0
  186.5940  178.2780  142.3640 S   0  0  0  0  0  1  0  0  0  0  0  0
  191.0910  174.2120  145.7170 O   0  0  0  0  0  1  0  0  0  0  0  0
  191.2310  173.8570  144.3760 C   0  0  1  0  0  3  0  0  0  0  0  0
  189.8710  173.5070  143.7850 C   0  0  0  0  0  2  0  0  0  0  0  0
  189.6720  172.0010  143.6620 C   0  0  0  0  0  2  0  0  0  0  0  0
  189.5390  172.3350  141.2980 O   0  0  0  0  0  1  0  0  0  0  0  0
  190.0700  171.5040  142.2820 C   0  0  0  0  0  2  0  0  0  0  0  0
  1 14  1  1  0  0  0
  1  9  1  0  0  0  0
  2  7  1  6  0  0  0
  2 12  1  0  0  0  0
  2 10  1  0  0  0  0
  3 12  1  0  0  0  0
  3  5  1  0  0  0  0
  5  1  1  0  0  0  0
  5 26  1  1  0  0  0
  6  4  1  0  0  0  0
  8  4  1  0  0  0  0
  9  8  1  0  0  0  0
 10  7  1  6  0  0  0
 10  6  1  0  0  0  0
 12 11  1  1  0  0  0
 12  5  1  0  0  0  0
 14 13  1  1  0  0  0
 14 15  1  0  0  0  0
 15 16  1  6  0  0  0
 15 18  1  0  0  0  0
 16 17  1  0  0  0  0
 18 19  2  0  0  0  0
 20 14  1  0  0  0  0
 21 20  1  0  0  0  0
 22 23  1  1  0  0  0
 22 21  1  0  0  0  0
 22 24  1  0  0  0  0
 26 25  1  1  0  0  0
 27 26  1  0  0  0  0
 28 27  1  0  0  0  0
 29 30  1  0  0  0  0
 30 28  1  0  0  0  0
M  END
>  <MODEL>
6

>  <REMARK>
 VINA RESULT:      -5.6      2.710      6.547
  Name = 
  11 active torsions:
  status: ('A' for Active; 'I' for Inactive)
    1  A    between atoms: C_2  and  C_14
    2  A    between atoms: C_3  and  O_19
    3  A    between atoms: C_4  and  C_22
    4  A    between atoms: C_6  and  C_12
    5  A    between atoms: C_6  and  C_17
    6  A    between atoms: C_12  and  C_13
    7  A    between atoms: C_14  and  C_20
    8  A    between atoms: C_14  and  C_22
    9  A    between atoms: C_17  and  C_21
   10  A    between atoms: O_19  and  C_29
   11  A    between atoms: C_22  and  C_29
                            x       y       z     vdW  Elec       q    Type
                         _______ _______ _______ _____ _____    ______ ____

>  <TORSDO>
F 11

$$$$
=
 OpenBabel11052417083D

 30 32  0  0  1  0  0  0  0  0999 V2000
  189.3780  176.8080  144.5310 C   0  0  2  0  0  3  0  0  0  0  0  0
  191.6910  177.2540  146.5020 C   0  0  2  0  0  3  0  0  0  0  0  0
  191.8450  177.2880  143.9850 C   0  0  0  0  0  2  0  0  0  0  0  0
  189.3190  174.7600  147.3600 C   0  0  0  0  0  2  0  0  0  0  0  0
  190.7820  176.2200  144.1870 C   0  0  1  0  0  0  0  0  0  0  0  0
  190.8180  175.0160  147.4560 C   0  0  0  0  0  2  0  0  0  0  0  0
  192.5790  176.7660  147.6370 C   0  0  0  0  0  2  0  0  0  0  0  0
  188.7710  175.1590  145.9980 C   0  0  0  0  0  2  0  0  0  0  0  0
  188.8770  176.5450  145.8270 O   0  0  0  0  0  0  0  0  0  0  0  0
  191.0920  176.4990  147.7020 C   0  0  1  0  0  3  0  0  0  0  0  0
  192.9810  175.5410  145.1690 O   0  0  0  0  0  1  0  0  0  0  0  0
  191.8930  176.4190  145.2250 C   0  0  2  0  0  0  0  0  0  0  0  0
  188.8870  177.8550  142.3160 C   0  0  0  0  0  1  0  0  0  0  0  0
  188.2960  177.0050  143.4380 C   0  0  2  0  0  0  0  0  0  0  0  0
  187.0420  177.6860  144.0570 C   0  0  2  0  0  3  0  0  0  0  0  0
  185.9080  176.6900  144.3010 C   0  0  0  0  0  2  0  0  0  0  0  0
  185.4610  176.7400  145.7500 C   0  0  0  0  0  1  0  0  0  0  0  0
  186.5230  178.8610  143.2730 C   0  0  0  0  0  3  0  0  0  0  0  0
  185.6070  179.6770  143.7870 C   0  0  0  0  0  2  0  0  0  0  0  0
  187.9380  175.6210  142.8680 C   0  0  0  0  0  2  0  0  0  0  0  0
  188.0060  175.5990  141.4710 O   0  0  0  0  0  0  0  0  0  0  0  0
  188.4890  174.3280  141.1590 C   0  0  1  0  0  3  0  0  0  0  0  0
  187.6180  173.2800  141.8200 C   0  0  0  0  0  1  0  0  0  0  0  0
  188.4530  174.0920  139.3590 S   0  0  0  0  0  1  0  0  0  0  0  0
  191.8170  175.2190  142.2380 O   0  0  0  0  0  1  0  0  0  0  0  0
  190.9660  174.9620  143.3120 C   0  0  1  0  0  3  0  0  0  0  0  0
  191.4500  173.7350  144.0760 C   0  0  0  0  0  2  0  0  0  0  0  0
  190.4750  172.5710  143.9640 C   0  0  0  0  0  2  0  0  0  0  0  0
  190.1360  170.9190  142.2680 O   0  0  0  0  0  1  0  0  0  0  0  0
  191.0740  171.4250  143.1660 C   0  0  0  0  0  2  0  0  0  0  0  0
  1 14  1  6  0  0  0
  1  9  1  0  0  0  0
  2  7  1  1  0  0  0
  2 10  1  0  0  0  0
  3  5  1  0  0  0  0
  3 12  1  0  0  0  0
  4  6  1  0  0  0  0
  5 26  1  6  0  0  0
  5  1  1  0  0  0  0
  5 12  1  0  0  0  0
  7 10  1  0  0  0  0
  8  4  1  0  0  0  0
  9  8  1  0  0  0  0
 10  6  1  6  0  0  0
 12 11  1  1  0  0  0
 12  2  1  0  0  0  0
 14 13  1  6  0  0  0
 14 15  1  0  0  0  0
 15 18  1  6  0  0  0
 15 16  1  0  0  0  0
 16 17  1  0  0  0  0
 18 19  2  0  0  0  0
 20 14  1  0  0  0  0
 21 20  1  0  0  0  0
 22 21  1  0  0  0  0
 22 23  1  1  0  0  0
 24 22  1  0  0  0  0
 26 25  1  6  0  0  0
 26 27  1  0  0  0  0
 28 27  1  0  0  0  0
 29 30  1  0  0  0  0
 30 28  1  0  0  0  0
M  END
>  <MODEL>
7

>  <REMARK>
 VINA RESULT:      -5.6      2.130      5.568
  Name = 
  11 active torsions:
  status: ('A' for Active; 'I' for Inactive)
    1  A    between atoms: C_2  and  C_14
    2  A    between atoms: C_3  and  O_19
    3  A    between atoms: C_4  and  C_22
    4  A    between atoms: C_6  and  C_12
    5  A    between atoms: C_6  and  C_17
    6  A    between atoms: C_12  and  C_13
    7  A    between atoms: C_14  and  C_20
    8  A    between atoms: C_14  and  C_22
    9  A    between atoms: C_17  and  C_21
   10  A    between atoms: O_19  and  C_29
   11  A    between atoms: C_22  and  C_29
                            x       y       z     vdW  Elec       q    Type
                         _______ _______ _______ _____ _____    ______ ____

>  <TORSDO>
F 11

$$$$
=
 OpenBabel11052417083D

 30 32  0  0  1  0  0  0  0  0999 V2000
  190.5800  175.8310  142.9500 C   0  0  2  0  0  3  0  0  0  0  0  0
  188.6060  177.9450  141.9150 C   0  0  2  0  0  3  0  0  0  0  0  0
  190.2600  178.2390  143.7970 C   0  0  0  0  0  2  0  0  0  0  0  0
  187.4250  174.6050  142.0880 C   0  0  0  0  0  2  0  0  0  0  0  0
  189.8850  176.7770  143.9790 C   0  0  1  0  0  0  0  0  0  0  0  0
  186.9210  176.0250  142.3080 C   0  0  0  0  0  2  0  0  0  0  0  0
  187.1840  178.4090  141.6390 C   0  0  0  0  0  2  0  0  0  0  0  0
  188.8100  174.4050  142.6870 C   0  0  0  0  0  2  0  0  0  0  0  0
  189.7450  175.1930  142.0050 O   0  0  0  0  0  0  0  0  0  0  0  0
  187.5690  176.9840  141.3100 C   0  0  1  0  0  3  0  0  0  0  0  0
  187.9220  178.2910  144.3220 O   0  0  0  0  0  1  0  0  0  0  0  0
  188.8660  177.7790  143.4240 C   0  0  2  0  0  0  0  0  0  0  0  0
  192.1430  174.0230  142.2220 C   0  0  0  0  0  1  0  0  0  0  0  0
  191.8710  175.0540  143.3150 C   0  0  2  0  0  0  0  0  0  0  0  0
  191.6970  174.3690  144.7000 C   0  0  2  0  0  3  0  0  0  0  0  0
  192.9420  174.5150  145.5750 C   0  0  0  0  0  2  0  0  0  0  0  0
  192.5930  175.1910  146.8870 C   0  0  0  0  0  1  0  0  0  0  0  0
  191.2950  172.9200  144.6320 C   0  0  0  0  0  3  0  0  0  0  0  0
  190.0830  172.5260  145.0130 C   0  0  0  0  0  2  0  0  0  0  0  0
  193.0380  176.0560  143.3460 C   0  0  0  0  0  2  0  0  0  0  0  0
  193.9030  175.8830  142.2600 O   0  0  0  0  0  0  0  0  0  0  0  0
  195.1810  176.0410  142.7950 C   0  0  1  0  0  3  0  0  0  0  0  0
  195.6880  174.7050  143.2970 C   0  0  0  0  0  1  0  0  0  0  0  0
  196.3030  176.6650  141.5110 S   0  0  0  0  0  1  0  0  0  0  0  0
  189.9650  177.3860  146.3230 O   0  0  0  0  0  1  0  0  0  0  0  0
  189.6170  176.3630  145.4410 C   0  0  1  0  0  3  0  0  0  0  0  0
  188.1870  175.9090  145.7100 C   0  0  0  0  0  2  0  0  0  0  0  0
  187.7180  176.2960  147.1070 C   0  0  0  0  0  2  0  0  0  0  0  0
  186.1340  177.8780  147.9490 O   0  0  0  0  0  1  0  0  0  0  0  0
  186.2810  176.7910  147.0880 C   0  0  0  0  0  2  0  0  0  0  0  0
  1 14  1  1  0  0  0
  1  5  1  0  0  0  0
  2  7  1  1  0  0  0
  2 12  1  0  0  0  0
  3  5  1  0  0  0  0
  4  6  1  0  0  0  0
  4  8  1  0  0  0  0
  5 26  1  1  0  0  0
  9  8  1  0  0  0  0
  9  1  1  0  0  0  0
 10  7  1  1  0  0  0
 10  2  1  0  0  0  0
 10  6  1  0  0  0  0
 12  3  1  0  0  0  0
 12  5  1  0  0  0  0
 12 11  1  1  0  0  0
 14 13  1  6  0  0  0
 14 20  1  0  0  0  0
 14 15  1  0  0  0  0
 15 18  1  6  0  0  0
 15 16  1  0  0  0  0
 16 17  1  0  0  0  0
 18 19  2  0  0  0  0
 21 22  1  0  0  0  0
 21 20  1  0  0  0  0
 22 23  1  6  0  0  0
 24 22  1  0  0  0  0
 26 27  1  0  0  0  0
 26 25  1  1  0  0  0
 27 28  1  0  0  0  0
 30 28  1  0  0  0  0
 30 29  1  0  0  0  0
M  END
>  <MODEL>
8

>  <REMARK>
 VINA RESULT:      -5.5      2.698      5.109
  Name = 
  11 active torsions:
  status: ('A' for Active; 'I' for Inactive)
    1  A    between atoms: C_2  and  C_14
    2  A    between atoms: C_3  and  O_19
    3  A    between atoms: C_4  and  C_22
    4  A    between atoms: C_6  and  C_12
    5  A    between atoms: C_6  and  C_17
    6  A    between atoms: C_12  and  C_13
    7  A    between atoms: C_14  and  C_20
    8  A    between atoms: C_14  and  C_22
    9  A    between atoms: C_17  and  C_21
   10  A    between atoms: O_19  and  C_29
   11  A    between atoms: C_22  and  C_29
                            x       y       z     vdW  Elec       q    Type
                         _______ _______ _______ _____ _____    ______ ____

>  <TORSDO>
F 11

$$$$
=
 OpenBabel11052417083D

 30 32  0  0  1  0  0  0  0  0999 V2000
  192.2490  174.1890  143.8080 C   0  0  2  0  0  3  0  0  0  0  0  0
  190.3780  174.4290  141.3840 C   0  0  2  0  0  3  0  0  0  0  0  0
  191.3890  176.3380  142.6860 C   0  0  0  0  0  2  0  0  0  0  0  0
  189.6500  171.8570  143.7160 C   0  0  0  0  0  2  0  0  0  0  0  0
  191.1760  175.3220  143.7970 C   0  0  1  0  0  0  0  0  0  0  0  0
  188.9210  172.8520  142.8220 C   0  0  0  0  0  2  0  0  0  0  0  0
  189.0400  174.1650  140.7100 C   0  0  0  0  0  2  0  0  0  0  0  0
  190.8270  172.5070  144.4290 C   0  0  0  0  0  2  0  0  0  0  0  0
  191.8020  172.8850  143.4970 O   0  0  0  0  0  0  0  0  0  0  0  0
  189.6870  173.0610  141.5170 C   0  0  1  0  0  3  0  0  0  0  0  0
  189.0120  176.0420  142.7660 O   0  0  0  0  0  1  0  0  0  0  0  0
  190.2280  175.3700  142.5930 C   0  0  2  0  0  0  0  0  0  0  0  0
  192.9940  174.1270  146.1920 C   0  0  0  0  0  1  0  0  0  0  0  0
  193.4790  174.2530  144.7500 C   0  0  2  0  0  0  0  0  0  0  0  0
  194.2400  175.5920  144.5300 C   0  0  2  0  0  3  0  0  0  0  0  0
  195.4210  175.4320  143.5730 C   0  0  0  0  0  2  0  0  0  0  0  0
  195.1210  176.0960  142.2420 C   0  0  0  0  0  1  0  0  0  0  0  0
  194.7030  176.2590  145.7960 C   0  0  0  0  0  3  0  0  0  0  0  0
  194.6830  177.5840  145.9210 C   0  0  0  0  0  2  0  0  0  0  0  0
  194.3860  173.0530  144.4310 C   0  0  0  0  0  2  0  0  0  0  0  0
  194.7850  172.3770  145.5890 O   0  0  0  0  0  0  0  0  0  0  0  0
  196.1550  172.1730  145.4290 C   0  0  1  0  0  3  0  0  0  0  0  0
  196.9170  173.2410  146.1860 C   0  0  0  0  0  1  0  0  0  0  0  0
  196.6050  170.5390  146.0780 S   0  0  0  0  0  1  0  0  0  0  0  0
  190.5590  177.3020  145.0520 O   0  0  0  0  0  1  0  0  0  0  0  0
  190.5690  175.9080  145.0890 C   0  0  1  0  0  3  0  0  0  0  0  0
  189.1760  175.3860  145.4180 C   0  0  0  0  0  2  0  0  0  0  0  0
  188.7270  175.7950  146.8150 C   0  0  0  0  0  2  0  0  0  0  0  0
  187.3130  177.4370  145.8020 O   0  0  0  0  0  1  0  0  0  0  0  0
  187.3540  176.4480  146.7830 C   0  0  0  0  0  2  0  0  0  0  0  0
  1 14  1  1  0  0  0
  2  7  1  6  0  0  0
  2 10  1  0  0  0  0
  2 12  1  0  0  0  0
  3  5  1  0  0  0  0
  4  8  1  0  0  0  0
  5  1  1  0  0  0  0
  5 26  1  1  0  0  0
  6  4  1  0  0  0  0
  9  1  1  0  0  0  0
  9  8  1  0  0  0  0
 10  7  1  6  0  0  0
 10  6  1  0  0  0  0
 12  3  1  0  0  0  0
 12 11  1  1  0  0  0
 12  5  1  0  0  0  0
 14 13  1  1  0  0  0
 15 16  1  6  0  0  0
 15 14  1  0  0  0  0
 15 18  1  0  0  0  0
 17 16  1  0  0  0  0
 18 19  2  0  0  0  0
 20 14  1  0  0  0  0
 20 21  1  0  0  0  0
 22 21  1  0  0  0  0
 22 24  1  0  0  0  0
 22 23  1  1  0  0  0
 26 25  1  6  0  0  0
 26 27  1  0  0  0  0
 27 28  1  0  0  0  0
 29 30  1  0  0  0  0
 30 28  1  0  0  0  0
M  END
>  <MODEL>
9

>  <REMARK>
 VINA RESULT:      -5.5      3.091      5.818
  Name = 
  11 active torsions:
  status: ('A' for Active; 'I' for Inactive)
    1  A    between atoms: C_2  and  C_14
    2  A    between atoms: C_3  and  O_19
    3  A    between atoms: C_4  and  C_22
    4  A    between atoms: C_6  and  C_12
    5  A    between atoms: C_6  and  C_17
    6  A    between atoms: C_12  and  C_13
    7  A    between atoms: C_14  and  C_20
    8  A    between atoms: C_14  and  C_22
    9  A    between atoms: C_17  and  C_21
   10  A    between atoms: O_19  and  C_29
   11  A    between atoms: C_22  and  C_29
                            x       y       z     vdW  Elec       q    Type
                         _______ _______ _______ _____ _____    ______ ____

>  <TORSDO>
F 11

$$$$
