=
 OpenBabel11052421373D

 32 35  0  0  1  0  0  0  0  0999 V2000
  190.6160  175.9880  144.3390 C   0  0  0  0  0  0  0  0  0  0  0  0
  190.7260  170.8280  142.2820 O   0  0  0  0  0  0  0  0  0  0  0  0
  191.8250  170.6820  143.1410 C   0  0  0  0  0  2  0  0  0  0  0  0
  188.2440  177.3710  143.8160 C   0  0  0  0  0  0  0  0  0  0  0  0
  189.5600  175.3570  143.5970 N   0  0  0  0  0  0  0  0  0  0  0  0
  189.8210  171.6680  142.9500 C   0  0  0  0  0  2  0  0  0  0  0  0
  189.3460  173.9250  143.7700 C   0  0  0  0  0  2  0  0  0  0  0  0
  190.3580  173.1010  143.0040 C   0  0  1  0  0  3  0  0  0  0  0  0
  192.3950  174.4980  143.4790 C   0  0  1  0  0  3  0  0  0  0  0  0
  188.4180  176.1610  143.2360 C   0  0  0  0  0  0  0  0  0  0  0  0
  189.1990  177.8580  144.7780 N   0  0  0  0  0  0  0  0  0  0  0  0
  192.6100  171.9870  143.1790 C   0  0  0  0  0  2  0  0  0  0  0  0
  191.7240  173.1300  143.7100 C   0  0  2  0  0  3  0  0  0  0  0  0
  190.3120  177.2390  145.0350 C   0  0  0  0  0  3  0  0  0  0  0  0
  191.8420  175.5600  144.3220 N   0  0  0  0  0  0  0  0  0  0  0  0
  195.8150  174.7610  145.2850 C   0  0  0  0  0  0  0  0  0  0  0  0
  196.5380  175.4340  144.3920 C   0  0  0  0  0  3  0  0  0  0  0  0
  194.5880  175.5000  142.8130 N   0  0  0  0  0  0  0  0  0  0  0  0
  196.5780  176.6680  142.3830 O   0  0  0  0  0  0  0  0  0  0  0  0
  195.9220  175.9140  143.1500 C   0  0  0  0  0  0  0  0  0  0  0  0
  194.3320  174.6010  145.1160 C   0  0  0  0  0  2  0  0  0  0  0  0
  196.4050  174.3140  146.4190 F   0  0  0  0  0  0  0  0  0  0  0  0
  194.0600  175.8280  141.4920 C   0  0  0  0  0  1  0  0  0  0  0  0
  193.9290  174.4720  143.6360 C   0  0  1  0  0  3  0  0  0  0  0  0
  187.8940  175.8630  140.8280 C   0  0  0  0  0  1  0  0  0  0  0  0
  187.4170  175.6270  142.2500 C   0  0  0  0  0  2  0  0  0  0  0  0
  187.0480  178.2220  143.5150 C   0  0  0  0  0  2  0  0  0  0  0  0
  185.3760  179.7300  144.5740 C   0  0  0  0  0  1  0  0  0  0  0  0
  186.2500  178.5040  144.7780 C   0  0  1  0  0  3  0  0  0  0  0  0
  185.3860  177.2960  145.1000 C   0  0  0  0  0  2  0  0  0  0  0  0
  185.3150  177.0540  146.6000 C   0  0  0  0  0  2  0  0  0  0  0  0
  186.7010  176.8340  147.1740 C   0  0  0  0  0  1  0  0  0  0  0  0
  1 14  1  0  0  0  0
  2  6  1  0  0  0  0
  2  3  1  0  0  0  0
  3 12  1  0  0  0  0
  4 11  1  0  0  0  0
  5  7  1  0  0  0  0
  5  1  1  0  0  0  0
  8  6  1  1  0  0  0
  8 13  1  0  0  0  0
  8  7  1  0  0  0  0
  9 24  1  0  0  0  0
  9 13  1  0  0  0  0
  9 15  1  1  0  0  0
 10  5  1  0  0  0  0
 10  4  2  0  0  0  0
 11 14  2  0  0  0  0
 13 12  1  6  0  0  0
 15  1  2  0  0  0  0
 16 22  1  0  0  0  0
 17 16  2  0  0  0  0
 18 20  1  0  0  0  0
 18 24  1  0  0  0  0
 19 20  2  0  0  0  0
 20 17  1  0  0  0  0
 21 16  1  0  0  0  0
 23 18  1  0  0  0  0
 24 21  1  1  0  0  0
 25 26  1  0  0  0  0
 26 10  1  0  0  0  0
 27  4  1  0  0  0  0
 27 29  1  0  0  0  0
 29 28  1  6  0  0  0
 29 30  1  0  0  0  0
 30 31  1  0  0  0  0
 31 32  1  0  0  0  0
M  END
>  <MODEL>
1

>  <REMARK>
 VINA RESULT:      -7.2      0.000      0.000
  Name = 
  6 active torsions:
  status: ('A' for Active; 'I' for Inactive)
    1  A    between atoms: C_1  and  C_10
    2  A    between atoms: C_8  and  C_19
    3  A    between atoms: C_10  and  C_24
    4  A    between atoms: C_12  and  C_21
    5  A    between atoms: C_16  and  C_32
    6  A    between atoms: C_19  and  C_24
                            x       y       z     vdW  Elec       q    Type
                         _______ _______ _______ _____ _____    ______ ____

>  <TORSDO>
F 6

$$$$
=
 OpenBabel11052421373D

 32 35  0  0  1  0  0  0  0  0999 V2000
  189.5570  175.2950  144.7810 C   0  0  0  0  0  0  0  0  0  0  0  0
  190.0700  173.5030  139.5470 O   0  0  0  0  0  0  0  0  0  0  0  0
  190.7910  172.4600  140.1460 C   0  0  0  0  0  2  0  0  0  0  0  0
  187.6000  177.2610  145.1240 C   0  0  0  0  0  0  0  0  0  0  0  0
  188.7890  175.7540  143.6570 N   0  0  0  0  0  0  0  0  0  0  0  0
  189.0400  173.8270  140.4450 C   0  0  0  0  0  2  0  0  0  0  0  0
  188.4440  174.7980  142.6110 C   0  0  0  0  0  2  0  0  0  0  0  0
  189.6080  174.5220  141.6850 C   0  0  1  0  0  3  0  0  0  0  0  0
  191.4330  174.4350  143.4150 C   0  0  1  0  0  3  0  0  0  0  0  0
  187.8930  176.8660  143.8640 C   0  0  0  0  0  0  0  0  0  0  0  0
  188.1890  176.5850  146.2510 N   0  0  0  0  0  0  0  0  0  0  0  0
  191.5900  173.0110  141.3210 C   0  0  0  0  0  2  0  0  0  0  0  0
  190.6430  173.6160  142.3740 C   0  0  2  0  0  3  0  0  0  0  0  0
  189.1040  175.6730  146.1210 C   0  0  0  0  0  3  0  0  0  0  0  0
  190.6860  174.6640  144.6530 N   0  0  0  0  0  0  0  0  0  0  0  0
  194.0780  172.4780  145.4640 C   0  0  0  0  0  0  0  0  0  0  0  0
  195.1390  173.2770  145.3650 C   0  0  0  0  0  3  0  0  0  0  0  0
  193.8390  174.8780  143.9340 N   0  0  0  0  0  0  0  0  0  0  0  0
  196.0020  175.3690  144.7030 O   0  0  0  0  0  0  0  0  0  0  0  0
  195.0340  174.5630  144.6680 C   0  0  0  0  0  0  0  0  0  0  0  0
  192.7240  172.9280  144.9970 C   0  0  0  0  0  2  0  0  0  0  0  0
  194.1980  171.2870  146.0990 F   0  0  0  0  0  0  0  0  0  0  0  0
  193.8210  176.0710  143.0930 C   0  0  0  0  0  1  0  0  0  0  0  0
  192.8120  173.8370  143.7590 C   0  0  1  0  0  3  0  0  0  0  0  0
  188.3210  178.2770  141.8660 C   0  0  0  0  0  1  0  0  0  0  0  0
  187.2670  177.5440  142.6770 C   0  0  0  0  0  2  0  0  0  0  0  0
  186.6350  178.3750  145.3930 C   0  0  0  0  0  2  0  0  0  0  0  0
  185.5250  178.2440  147.6160 C   0  0  0  0  0  1  0  0  0  0  0  0
  185.4160  177.8690  146.1480 C   0  0  1  0  0  3  0  0  0  0  0  0
  184.1660  178.4860  145.5440 C   0  0  0  0  0  2  0  0  0  0  0  0
  184.4790  179.1910  144.2330 C   0  0  0  0  0  2  0  0  0  0  0  0
  183.8120  178.4830  143.0690 C   0  0  0  0  0  1  0  0  0  0  0  0
  1 14  1  0  0  0  0
  2  3  1  0  0  0  0
  2  6  1  0  0  0  0
  3 12  1  0  0  0  0
  4 27  1  0  0  0  0
  4 11  1  0  0  0  0
  5 10  1  0  0  0  0
  5  1  1  0  0  0  0
  7  5  1  0  0  0  0
  8  6  1  6  0  0  0
  8 13  1  0  0  0  0
  8  7  1  0  0  0  0
  9 24  1  0  0  0  0
  9 15  1  1  0  0  0
 10  4  2  0  0  0  0
 13 12  1  6  0  0  0
 13  9  1  0  0  0  0
 14 11  2  0  0  0  0
 15  1  2  0  0  0  0
 16 22  1  0  0  0  0
 17 16  2  0  0  0  0
 18 20  1  0  0  0  0
 20 19  2  0  0  0  0
 20 17  1  0  0  0  0
 21 16  1  0  0  0  0
 23 18  1  0  0  0  0
 24 18  1  0  0  0  0
 24 21  1  1  0  0  0
 25 26  1  0  0  0  0
 26 10  1  0  0  0  0
 27 29  1  0  0  0  0
 29 28  1  1  0  0  0
 30 29  1  0  0  0  0
 31 30  1  0  0  0  0
 32 31  1  0  0  0  0
M  END
>  <MODEL>
2

>  <REMARK>
 VINA RESULT:      -7.1      1.909      2.500
  Name = 
  6 active torsions:
  status: ('A' for Active; 'I' for Inactive)
    1  A    between atoms: C_1  and  C_10
    2  A    between atoms: C_8  and  C_19
    3  A    between atoms: C_10  and  C_24
    4  A    between atoms: C_12  and  C_21
    5  A    between atoms: C_16  and  C_32
    6  A    between atoms: C_19  and  C_24
                            x       y       z     vdW  Elec       q    Type
                         _______ _______ _______ _____ _____    ______ ____

>  <TORSDO>
F 6

$$$$
=
 OpenBabel11052421373D

 32 35  0  0  1  0  0  0  0  0999 V2000
  190.9930  175.4100  145.4120 C   0  0  0  0  0  0  0  0  0  0  0  0
  190.7820  171.5160  141.4540 O   0  0  0  0  0  0  0  0  0  0  0  0
  191.9050  171.0070  142.1210 C   0  0  0  0  0  2  0  0  0  0  0  0
  188.6690  176.9500  145.6180 C   0  0  0  0  0  0  0  0  0  0  0  0
  189.8800  175.1610  144.5380 N   0  0  0  0  0  0  0  0  0  0  0  0
  189.9430  172.0400  142.4500 C   0  0  0  0  0  2  0  0  0  0  0  0
  189.6060  173.7860  144.1320 C   0  0  0  0  0  2  0  0  0  0  0  0
  190.5480  173.3140  143.0460 C   0  0  1  0  0  3  0  0  0  0  0  0
  192.6660  174.3460  143.9300 C   0  0  1  0  0  3  0  0  0  0  0  0
  188.7630  176.0720  144.5920 C   0  0  0  0  0  0  0  0  0  0  0  0
  189.6820  176.9810  146.6400 N   0  0  0  0  0  0  0  0  0  0  0  0
  192.7510  172.1650  142.6360 C   0  0  0  0  0  2  0  0  0  0  0  0
  191.9400  173.0190  143.6290 C   0  0  2  0  0  3  0  0  0  0  0  0
  190.7740  176.2820  146.5670 C   0  0  0  0  0  3  0  0  0  0  0  0
  192.1960  174.9920  145.1580 N   0  0  0  0  0  0  0  0  0  0  0  0
  196.1860  174.0750  145.5290 C   0  0  0  0  0  0  0  0  0  0  0  0
  196.8990  174.8830  144.7460 C   0  0  0  0  0  3  0  0  0  0  0  0
  194.8740  175.3610  143.3410 N   0  0  0  0  0  0  0  0  0  0  0  0
  196.9030  176.4990  143.0290 O   0  0  0  0  0  0  0  0  0  0  0  0
  196.2460  175.6350  143.6690 C   0  0  0  0  0  0  0  0  0  0  0  0
  194.6890  174.0210  145.4260 C   0  0  0  0  0  2  0  0  0  0  0  0
  196.8090  173.3770  146.5090 F   0  0  0  0  0  0  0  0  0  0  0  0
  194.2960  175.9770  142.1510 C   0  0  0  0  0  1  0  0  0  0  0  0
  194.2010  174.2180  143.9810 C   0  0  1  0  0  3  0  0  0  0  0  0
  188.1710  176.7050  142.2660 C   0  0  0  0  0  1  0  0  0  0  0  0
  187.7010  176.0080  143.5310 C   0  0  0  0  0  2  0  0  0  0  0  0
  187.5020  177.8810  145.7490 C   0  0  0  0  0  2  0  0  0  0  0  0
  186.3510  178.4160  147.8880 C   0  0  0  0  0  1  0  0  0  0  0  0
  186.5190  177.3770  146.7930 C   0  0  1  0  0  3  0  0  0  0  0  0
  185.1820  177.1030  146.1240 C   0  0  0  0  0  2  0  0  0  0  0  0
  184.2700  178.3180  146.2000 C   0  0  0  0  0  2  0  0  0  0  0  0
  184.0610  178.9200  144.8230 C   0  0  0  0  0  1  0  0  0  0  0  0
  1 14  1  0  0  0  0
  2  3  1  0  0  0  0
  2  6  1  0  0  0  0
  3 12  1  0  0  0  0
  4 27  1  0  0  0  0
  4 11  1  0  0  0  0
  5 10  1  0  0  0  0
  5  1  1  0  0  0  0
  7  5  1  0  0  0  0
  8  6  1  1  0  0  0
  8 13  1  0  0  0  0
  8  7  1  0  0  0  0
  9 24  1  0  0  0  0
  9 15  1  1  0  0  0
 10  4  2  0  0  0  0
 13 12  1  6  0  0  0
 13  9  1  0  0  0  0
 14 11  2  0  0  0  0
 15  1  2  0  0  0  0
 16 22  1  0  0  0  0
 17 16  2  0  0  0  0
 18 20  1  0  0  0  0
 18 24  1  0  0  0  0
 19 20  2  0  0  0  0
 20 17  1  0  0  0  0
 21 16  1  0  0  0  0
 23 18  1  0  0  0  0
 24 21  1  1  0  0  0
 25 26  1  0  0  0  0
 26 10  1  0  0  0  0
 27 29  1  0  0  0  0
 29 28  1  1  0  0  0
 30 31  1  0  0  0  0
 30 29  1  0  0  0  0
 32 31  1  0  0  0  0
M  END
>  <MODEL>
3

>  <REMARK>
 VINA RESULT:      -7.1      1.116      1.541
  Name = 
  6 active torsions:
  status: ('A' for Active; 'I' for Inactive)
    1  A    between atoms: C_1  and  C_10
    2  A    between atoms: C_8  and  C_19
    3  A    between atoms: C_10  and  C_24
    4  A    between atoms: C_12  and  C_21
    5  A    between atoms: C_16  and  C_32
    6  A    between atoms: C_19  and  C_24
                            x       y       z     vdW  Elec       q    Type
                         _______ _______ _______ _____ _____    ______ ____

>  <TORSDO>
F 6

$$$$
=
 OpenBabel11052421373D

 32 35  0  0  1  0  0  0  0  0999 V2000
  188.4980  175.6110  142.8230 C   0  0  0  0  0  0  0  0  0  0  0  0
  193.9390  175.8970  143.9080 O   0  0  0  0  0  0  0  0  0  0  0  0
  194.0600  175.7550  142.5170 C   0  0  0  0  0  2  0  0  0  0  0  0
  186.8700  176.4340  144.9410 C   0  0  0  0  0  0  0  0  0  0  0  0
  189.0860  176.0570  144.0560 N   0  0  0  0  0  0  0  0  0  0  0  0
  192.7890  176.6730  144.1200 C   0  0  0  0  0  2  0  0  0  0  0  0
  190.3470  176.7880  144.0020 C   0  0  0  0  0  2  0  0  0  0  0  0
  191.5300  175.8700  143.7860 C   0  0  1  0  0  3  0  0  0  0  0  0
  190.4840  174.3270  142.0950 C   0  0  1  0  0  3  0  0  0  0  0  0
  188.2020  176.3360  145.1610 C   0  0  0  0  0  0  0  0  0  0  0  0
  186.3390  176.2480  143.6160 N   0  0  0  0  0  0  0  0  0  0  0  0
  192.9740  174.8130  142.0130 C   0  0  0  0  0  2  0  0  0  0  0  0
  191.5790  175.3880  142.3260 C   0  0  2  0  0  3  0  0  0  0  0  0
  187.0700  175.8600  142.6150 C   0  0  0  0  0  3  0  0  0  0  0  0
  189.1460  174.9040  141.9470 N   0  0  0  0  0  0  0  0  0  0  0  0
  189.9110  172.6390  138.6530 C   0  0  0  0  0  0  0  0  0  0  0  0
  190.2170  171.3700  138.9230 C   0  0  0  0  0  3  0  0  0  0  0  0
  190.7620  171.9730  141.2980 N   0  0  0  0  0  0  0  0  0  0  0  0
  190.7160  169.7460  140.5580 O   0  0  0  0  0  0  0  0  0  0  0  0
  190.5680  170.9680  140.2890 C   0  0  0  0  0  0  0  0  0  0  0  0
  189.7790  173.6530  139.7520 C   0  0  0  0  0  2  0  0  0  0  0  0
  189.6030  172.9940  137.3830 F   0  0  0  0  0  0  0  0  0  0  0  0
  191.2940  171.5740  142.5980 C   0  0  0  0  0  1  0  0  0  0  0  0
  190.7670  173.3910  140.9030 C   0  0  1  0  0  3  0  0  0  0  0  0
  189.1620  175.2260  147.1630 C   0  0  0  0  0  1  0  0  0  0  0  0
  188.7760  176.5530  146.5330 C   0  0  0  0  0  2  0  0  0  0  0  0
  185.9160  176.7740  146.0450 C   0  0  0  0  0  2  0  0  0  0  0  0
  184.0230  178.2210  146.7620 C   0  0  0  0  0  1  0  0  0  0  0  0
  184.9980  177.9160  145.6380 C   0  0  1  0  0  3  0  0  0  0  0  0
  185.8400  179.1430  145.3300 C   0  0  0  0  0  2  0  0  0  0  0  0
  185.4410  179.7650  144.0010 C   0  0  0  0  0  2  0  0  0  0  0  0
  184.2900  179.0010  143.3740 C   0  0  0  0  0  1  0  0  0  0  0  0
  1  5  1  0  0  0  0
  2  6  1  0  0  0  0
  3  2  1  0  0  0  0
  4 10  2  0  0  0  0
  4 27  1  0  0  0  0
  5 10  1  0  0  0  0
  7  5  1  0  0  0  0
  8  7  1  6  0  0  0
  8  6  1  0  0  0  0
  9 15  1  6  0  0  0
  9 13  1  0  0  0  0
 10 26  1  0  0  0  0
 11  4  1  0  0  0  0
 12  3  1  0  0  0  0
 13 12  1  1  0  0  0
 13  8  1  0  0  0  0
 14  1  1  0  0  0  0
 14 11  2  0  0  0  0
 15  1  2  0  0  0  0
 16 17  2  0  0  0  0
 16 21  1  0  0  0  0
 17 20  1  0  0  0  0
 18 23  1  0  0  0  0
 20 19  2  0  0  0  0
 20 18  1  0  0  0  0
 22 16  1  0  0  0  0
 24 21  1  6  0  0  0
 24 18  1  0  0  0  0
 24  9  1  0  0  0  0
 26 25  1  0  0  0  0
 29 27  1  0  0  0  0
 29 28  1  1  0  0  0
 30 29  1  0  0  0  0
 31 30  1  0  0  0  0
 32 31  1  0  0  0  0
M  END
>  <MODEL>
4

>  <REMARK>
 VINA RESULT:      -7.0      2.966      5.316
  Name = 
  6 active torsions:
  status: ('A' for Active; 'I' for Inactive)
    1  A    between atoms: C_1  and  C_10
    2  A    between atoms: C_8  and  C_19
    3  A    between atoms: C_10  and  C_24
    4  A    between atoms: C_12  and  C_21
    5  A    between atoms: C_16  and  C_32
    6  A    between atoms: C_19  and  C_24
                            x       y       z     vdW  Elec       q    Type
                         _______ _______ _______ _____ _____    ______ ____

>  <TORSDO>
F 6

$$$$
=
 OpenBabel11052421373D

 32 35  0  0  1  0  0  0  0  0999 V2000
  188.8770  175.4900  142.3030 C   0  0  0  0  0  0  0  0  0  0  0  0
  194.0050  175.7720  144.4240 O   0  0  0  0  0  0  0  0  0  0  0  0
  194.3900  175.4450  143.1150 C   0  0  0  0  0  2  0  0  0  0  0  0
  186.9090  176.6280  143.9290 C   0  0  0  0  0  0  0  0  0  0  0  0
  189.2330  176.0790  143.5650 N   0  0  0  0  0  0  0  0  0  0  0  0
  192.8780  176.6000  144.3010 C   0  0  0  0  0  2  0  0  0  0  0  0
  190.5170  176.7630  143.6770 C   0  0  0  0  0  2  0  0  0  0  0  0
  191.6690  175.7930  143.8210 C   0  0  1  0  0  3  0  0  0  0  0  0
  190.8980  174.0690  142.1580 C   0  0  1  0  0  3  0  0  0  0  0  0
  188.1640  176.5250  144.4250 C   0  0  0  0  0  0  0  0  0  0  0  0
  186.6410  176.2830  142.5580 N   0  0  0  0  0  0  0  0  0  0  0  0
  193.3770  174.4730  142.5220 C   0  0  0  0  0  2  0  0  0  0  0  0
  191.9800  175.1210  142.4720 C   0  0  2  0  0  3  0  0  0  0  0  0
  187.5340  175.7470  141.7820 C   0  0  0  0  0  3  0  0  0  0  0  0
  189.6480  174.6570  141.6720 N   0  0  0  0  0  0  0  0  0  0  0  0
  191.0820  172.0950  138.8270 C   0  0  0  0  0  0  0  0  0  0  0  0
  191.0930  170.8360  139.2620 C   0  0  0  0  0  3  0  0  0  0  0  0
  191.0180  171.6240  141.6440 N   0  0  0  0  0  0  0  0  0  0  0  0
  190.8370  169.3530  141.0780 O   0  0  0  0  0  0  0  0  0  0  0  0
  190.9670  170.5470  140.6950 C   0  0  0  0  0  0  0  0  0  0  0  0
  190.8010  173.2340  139.7630 C   0  0  0  0  0  2  0  0  0  0  0  0
  191.2140  172.3430  137.5020 F   0  0  0  0  0  0  0  0  0  0  0  0
  191.0830  171.3080  143.0680 C   0  0  0  0  0  1  0  0  0  0  0  0
  191.3610  172.9760  141.1730 C   0  0  1  0  0  3  0  0  0  0  0  0
  188.5700  175.6660  146.7180 C   0  0  0  0  0  1  0  0  0  0  0  0
  188.4670  176.9050  145.8470 C   0  0  0  0  0  2  0  0  0  0  0  0
  185.7750  177.1360  144.7670 C   0  0  0  0  0  2  0  0  0  0  0  0
  184.0670  178.6820  143.8250 C   0  0  0  0  0  1  0  0  0  0  0  0
  185.4580  178.5850  144.4300 C   0  0  1  0  0  3  0  0  0  0  0  0
  185.5330  179.4170  145.6990 C   0  0  0  0  0  2  0  0  0  0  0  0
  185.2930  178.5610  146.9330 C   0  0  0  0  0  2  0  0  0  0  0  0
  186.3070  178.8810  148.0150 C   0  0  0  0  0  1  0  0  0  0  0  0
  1  5  1  0  0  0  0
  3  2  1  0  0  0  0
  4 10  2  0  0  0  0
  4 27  1  0  0  0  0
  5  7  1  0  0  0  0
  5 10  1  0  0  0  0
  6  2  1  0  0  0  0
  8  7  1  6  0  0  0
  8  6  1  0  0  0  0
  9 15  1  6  0  0  0
  9 13  1  0  0  0  0
 10 26  1  0  0  0  0
 11  4  1  0  0  0  0
 12  3  1  0  0  0  0
 13 12  1  1  0  0  0
 13  8  1  0  0  0  0
 14  1  1  0  0  0  0
 14 11  2  0  0  0  0
 15  1  2  0  0  0  0
 16 17  2  0  0  0  0
 16 21  1  0  0  0  0
 17 20  1  0  0  0  0
 18 23  1  0  0  0  0
 20 19  2  0  0  0  0
 20 18  1  0  0  0  0
 22 16  1  0  0  0  0
 24 21  1  6  0  0  0
 24 18  1  0  0  0  0
 24  9  1  0  0  0  0
 26 25  1  0  0  0  0
 29 28  1  1  0  0  0
 29 27  1  0  0  0  0
 29 30  1  0  0  0  0
 30 31  1  0  0  0  0
 31 32  1  0  0  0  0
M  END
>  <MODEL>
5

>  <REMARK>
 VINA RESULT:      -6.9      2.850      4.989
  Name = 
  6 active torsions:
  status: ('A' for Active; 'I' for Inactive)
    1  A    between atoms: C_1  and  C_10
    2  A    between atoms: C_8  and  C_19
    3  A    between atoms: C_10  and  C_24
    4  A    between atoms: C_12  and  C_21
    5  A    between atoms: C_16  and  C_32
    6  A    between atoms: C_19  and  C_24
                            x       y       z     vdW  Elec       q    Type
                         _______ _______ _______ _____ _____    ______ ____

>  <TORSDO>
F 6

$$$$
=
 OpenBabel11052421373D

 32 35  0  0  1  0  0  0  0  0999 V2000
  190.0200  174.1060  144.7670 C   0  0  0  0  0  0  0  0  0  0  0  0
  190.3950  173.4300  139.2650 O   0  0  0  0  0  0  0  0  0  0  0  0
  190.9030  172.1710  139.6170 C   0  0  0  0  0  2  0  0  0  0  0  0
  188.4240  176.2660  145.5420 C   0  0  0  0  0  0  0  0  0  0  0  0
  189.3830  174.9270  143.7750 N   0  0  0  0  0  0  0  0  0  0  0  0
  189.4070  173.7290  140.2170 C   0  0  0  0  0  2  0  0  0  0  0  0
  188.9130  174.2970  142.5460 C   0  0  0  0  0  2  0  0  0  0  0  0
  190.0440  174.0270  141.5760 C   0  0  1  0  0  3  0  0  0  0  0  0
  191.7640  173.2440  143.2380 C   0  0  1  0  0  3  0  0  0  0  0  0
  188.6870  176.1080  144.2240 C   0  0  0  0  0  0  0  0  0  0  0  0
  188.8460  175.2680  146.4900 N   0  0  0  0  0  0  0  0  0  0  0  0
  191.7440  172.3040  140.8810 C   0  0  0  0  0  2  0  0  0  0  0  0
  190.8810  172.8240  142.0450 C   0  0  2  0  0  3  0  0  0  0  0  0
  189.5930  174.2590  146.1590 C   0  0  0  0  0  3  0  0  0  0  0  0
  191.0250  173.3280  144.4990 N   0  0  0  0  0  0  0  0  0  0  0  0
  193.9140  170.3760  144.7130 C   0  0  0  0  0  0  0  0  0  0  0  0
  195.0890  170.9810  144.8810 C   0  0  0  0  0  3  0  0  0  0  0  0
  194.1620  173.1130  143.9340 N   0  0  0  0  0  0  0  0  0  0  0  0
  196.3090  172.9990  144.8780 O   0  0  0  0  0  0  0  0  0  0  0  0
  195.2350  172.4100  144.5820 C   0  0  0  0  0  0  0  0  0  0  0  0
  192.6840  171.1600  144.3550 C   0  0  0  0  0  2  0  0  0  0  0  0
  193.8010  169.0530  144.9810 F   0  0  0  0  0  0  0  0  0  0  0  0
  194.3910  174.4790  143.4740 C   0  0  0  0  0  1  0  0  0  0  0  0
  193.0050  172.3510  143.4360 C   0  0  1  0  0  3  0  0  0  0  0  0
  189.4110  177.9330  142.7050 C   0  0  0  0  0  1  0  0  0  0  0  0
  188.2310  177.1270  143.2180 C   0  0  0  0  0  2  0  0  0  0  0  0
  187.6590  177.4490  146.0530 C   0  0  0  0  0  2  0  0  0  0  0  0
  185.9250  177.5910  147.8330 C   0  0  0  0  0  1  0  0  0  0  0  0
  186.2450  177.0510  146.4490 C   0  0  1  0  0  3  0  0  0  0  0  0
  185.2680  177.6150  145.4310 C   0  0  0  0  0  2  0  0  0  0  0  0
  185.2370  179.1350  145.4810 C   0  0  0  0  0  2  0  0  0  0  0  0
  185.4100  179.7230  144.0940 C   0  0  0  0  0  1  0  0  0  0  0  0
  1 14  1  0  0  0  0
  2  3  1  0  0  0  0
  2  6  1  0  0  0  0
  3 12  1  0  0  0  0
  4 27  1  0  0  0  0
  4 11  1  0  0  0  0
  5 10  1  0  0  0  0
  5  1  1  0  0  0  0
  7  5  1  0  0  0  0
  8  6  1  6  0  0  0
  8 13  1  0  0  0  0
  8  7  1  0  0  0  0
  9 24  1  0  0  0  0
  9 15  1  1  0  0  0
 10  4  2  0  0  0  0
 13 12  1  6  0  0  0
 13  9  1  0  0  0  0
 14 11  2  0  0  0  0
 15  1  2  0  0  0  0
 16 17  2  0  0  0  0
 16 22  1  0  0  0  0
 18 20  1  0  0  0  0
 20 19  2  0  0  0  0
 20 17  1  0  0  0  0
 21 16  1  0  0  0  0
 23 18  1  0  0  0  0
 24 18  1  0  0  0  0
 24 21  1  1  0  0  0
 25 26  1  0  0  0  0
 26 10  1  0  0  0  0
 27 29  1  0  0  0  0
 29 28  1  1  0  0  0
 30 31  1  0  0  0  0
 30 29  1  0  0  0  0
 32 31  1  0  0  0  0
M  END
>  <MODEL>
6

>  <REMARK>
 VINA RESULT:      -6.7      2.334      3.126
  Name = 
  6 active torsions:
  status: ('A' for Active; 'I' for Inactive)
    1  A    between atoms: C_1  and  C_10
    2  A    between atoms: C_8  and  C_19
    3  A    between atoms: C_10  and  C_24
    4  A    between atoms: C_12  and  C_21
    5  A    between atoms: C_16  and  C_32
    6  A    between atoms: C_19  and  C_24
                            x       y       z     vdW  Elec       q    Type
                         _______ _______ _______ _____ _____    ______ ____

>  <TORSDO>
F 6

$$$$
=
 OpenBabel11052421373D

 32 35  0  0  1  0  0  0  0  0999 V2000
  190.5950  174.9660  144.4630 C   0  0  0  0  0  0  0  0  0  0  0  0
  191.5300  170.8560  140.8430 O   0  0  0  0  0  0  0  0  0  0  0  0
  192.6320  170.5950  141.6710 C   0  0  0  0  0  2  0  0  0  0  0  0
  188.0400  176.0840  144.2810 C   0  0  0  0  0  0  0  0  0  0  0  0
  189.6570  174.4710  143.4940 N   0  0  0  0  0  0  0  0  0  0  0  0
  190.4990  171.2860  141.6930 C   0  0  0  0  0  2  0  0  0  0  0  0
  189.6690  173.0470  143.1760 C   0  0  0  0  0  2  0  0  0  0  0  0
  190.8040  172.6810  142.2440 C   0  0  1  0  0  3  0  0  0  0  0  0
  192.5930  174.1220  143.2710 C   0  0  1  0  0  3  0  0  0  0  0  0
  188.4060  175.1740  143.3490 C   0  0  0  0  0  0  0  0  0  0  0  0
  188.8980  176.3560  145.4040 N   0  0  0  0  0  0  0  0  0  0  0  0
  193.2020  171.9130  142.1800 C   0  0  0  0  0  2  0  0  0  0  0  0
  192.1430  172.6720  143.0020 C   0  0  2  0  0  3  0  0  0  0  0  0
  190.0930  175.8570  145.5110 C   0  0  0  0  0  3  0  0  0  0  0  0
  191.8740  174.7510  144.3800 N   0  0  0  0  0  0  0  0  0  0  0  0
  195.8770  174.6560  145.2590 C   0  0  0  0  0  0  0  0  0  0  0  0
  196.5480  175.4770  144.4530 C   0  0  0  0  0  3  0  0  0  0  0  0
  194.6700  175.4280  142.7870 N   0  0  0  0  0  0  0  0  0  0  0  0
  196.5170  176.8560  142.5400 O   0  0  0  0  0  0  0  0  0  0  0  0
  195.9280  175.9720  143.2190 C   0  0  0  0  0  0  0  0  0  0  0  0
  194.4330  174.3320  145.0050 C   0  0  0  0  0  2  0  0  0  0  0  0
  196.4710  174.1990  146.3870 F   0  0  0  0  0  0  0  0  0  0  0  0
  194.1600  175.7890  141.4680 C   0  0  0  0  0  1  0  0  0  0  0  0
  194.1100  174.2690  143.5020 C   0  0  1  0  0  3  0  0  0  0  0  0
  188.0210  175.5290  140.9220 C   0  0  0  0  0  1  0  0  0  0  0  0
  187.5090  174.8580  142.1840 C   0  0  0  0  0  2  0  0  0  0  0  0
  186.7270  176.8020  144.2030 C   0  0  0  0  0  2  0  0  0  0  0  0
  186.7260  178.6570  142.5460 C   0  0  0  0  0  1  0  0  0  0  0  0
  186.9350  178.2950  144.0060 C   0  0  1  0  0  3  0  0  0  0  0  0
  185.9480  179.0530  144.8780 C   0  0  0  0  0  2  0  0  0  0  0  0
  184.7670  178.1760  145.2620 C   0  0  0  0  0  2  0  0  0  0  0  0
  184.3910  178.3870  146.7160 C   0  0  0  0  0  1  0  0  0  0  0  0
  1 14  1  0  0  0  0
  2  3  1  0  0  0  0
  2  6  1  0  0  0  0
  3 12  1  0  0  0  0
  4 11  1  0  0  0  0
  5  1  1  0  0  0  0
  7  5  1  0  0  0  0
  8  6  1  1  0  0  0
  8 13  1  0  0  0  0
  8  7  1  0  0  0  0
  9 24  1  0  0  0  0
  9 15  1  1  0  0  0
 10  5  1  0  0  0  0
 10  4  2  0  0  0  0
 11 14  2  0  0  0  0
 13 12  1  6  0  0  0
 13  9  1  0  0  0  0
 15  1  2  0  0  0  0
 16 22  1  0  0  0  0
 17 16  2  0  0  0  0
 18 20  1  0  0  0  0
 18 24  1  0  0  0  0
 19 20  2  0  0  0  0
 20 17  1  0  0  0  0
 21 16  1  0  0  0  0
 23 18  1  0  0  0  0
 24 21  1  1  0  0  0
 25 26  1  0  0  0  0
 26 10  1  0  0  0  0
 27  4  1  0  0  0  0
 29 28  1  6  0  0  0
 29 27  1  0  0  0  0
 29 30  1  0  0  0  0
 30 31  1  0  0  0  0
 31 32  1  0  0  0  0
M  END
>  <MODEL>
7

>  <REMARK>
 VINA RESULT:      -6.7      1.058      1.242
  Name = 
  6 active torsions:
  status: ('A' for Active; 'I' for Inactive)
    1  A    between atoms: C_1  and  C_10
    2  A    between atoms: C_8  and  C_19
    3  A    between atoms: C_10  and  C_24
    4  A    between atoms: C_12  and  C_21
    5  A    between atoms: C_16  and  C_32
    6  A    between atoms: C_19  and  C_24
                            x       y       z     vdW  Elec       q    Type
                         _______ _______ _______ _____ _____    ______ ____

>  <TORSDO>
F 6

$$$$
=
 OpenBabel11052421373D

 32 35  0  0  1  0  0  0  0  0999 V2000
  191.5390  176.4620  144.2460 C   0  0  0  0  0  0  0  0  0  0  0  0
  188.7510  172.6620  141.3040 O   0  0  0  0  0  0  0  0  0  0  0  0
  187.8670  173.7260  141.0710 C   0  0  0  0  0  2  0  0  0  0  0  0
  194.1550  175.7130  144.8840 C   0  0  0  0  0  0  0  0  0  0  0  0
  192.0510  175.1900  143.8180 N   0  0  0  0  0  0  0  0  0  0  0  0
  190.0360  173.2240  141.3330 C   0  0  0  0  0  2  0  0  0  0  0  0
  191.6160  174.6610  142.5300 C   0  0  0  0  0  2  0  0  0  0  0  0
  190.2270  174.0630  142.5990 C   0  0  1  0  0  3  0  0  0  0  0  0
  189.1600  175.7980  144.0770 C   0  0  1  0  0  3  0  0  0  0  0  0
  193.3550  174.7960  144.2920 C   0  0  0  0  0  0  0  0  0  0  0  0
  193.7020  177.0690  145.0510 N   0  0  0  0  0  0  0  0  0  0  0  0
  187.7800  174.5910  142.3220 C   0  0  0  0  0  2  0  0  0  0  0  0
  189.1640  175.1720  142.6670 C   0  0  2  0  0  3  0  0  0  0  0  0
  192.4910  177.4430  144.7690 C   0  0  0  0  0  3  0  0  0  0  0  0
  190.2690  176.7300  144.2950 N   0  0  0  0  0  0  0  0  0  0  0  0
  186.4930  178.6080  144.1630 C   0  0  0  0  0  0  0  0  0  0  0  0
  186.1150  178.5800  145.4400 C   0  0  0  0  0  3  0  0  0  0  0  0
  187.6930  176.6820  145.8980 N   0  0  0  0  0  0  0  0  0  0  0  0
  186.5040  177.7550  147.6150 O   0  0  0  0  0  0  0  0  0  0  0  0
  186.7720  177.6710  146.3860 C   0  0  0  0  0  0  0  0  0  0  0  0
  187.6830  177.8240  143.6910 C   0  0  0  0  0  2  0  0  0  0  0  0
  185.8650  179.4440  143.3020 F   0  0  0  0  0  0  0  0  0  0  0  0
  188.1920  175.6660  146.8210 C   0  0  0  0  0  1  0  0  0  0  0  0
  187.8340  176.4920  144.4450 C   0  0  1  0  0  3  0  0  0  0  0  0
  193.1140  172.4430  145.0480 C   0  0  0  0  0  1  0  0  0  0  0  0
  193.8220  173.3820  144.0870 C   0  0  0  0  0  2  0  0  0  0  0  0
  195.5370  175.3660  145.3460 C   0  0  0  0  0  2  0  0  0  0  0  0
  196.9510  176.1730  143.4640 C   0  0  0  0  0  1  0  0  0  0  0  0
  196.4110  174.9440  144.1760 C   0  0  1  0  0  3  0  0  0  0  0  0
  197.5610  174.0960  144.6960 C   0  0  0  0  0  2  0  0  0  0  0  0
  197.1910  173.4090  146.0010 C   0  0  0  0  0  2  0  0  0  0  0  0
  196.8270  171.9570  145.7610 C   0  0  0  0  0  1  0  0  0  0  0  0
  1 15  2  0  0  0  0
  1 14  1  0  0  0  0
  2  6  1  0  0  0  0
  3  2  1  0  0  0  0
  3 12  1  0  0  0  0
  4 11  1  0  0  0  0
  4 27  1  0  0  0  0
  5  1  1  0  0  0  0
  5 10  1  0  0  0  0
  7  8  1  0  0  0  0
  7  5  1  0  0  0  0
  8  6  1  6  0  0  0
  8 13  1  0  0  0  0
  9 15  1  6  0  0  0
  9 24  1  0  0  0  0
 10  4  2  0  0  0  0
 13 12  1  1  0  0  0
 13  9  1  0  0  0  0
 14 11  2  0  0  0  0
 16 17  2  0  0  0  0
 17 20  1  0  0  0  0
 18 20  1  0  0  0  0
 18 23  1  0  0  0  0
 20 19  2  0  0  0  0
 21 16  1  0  0  0  0
 22 16  1  0  0  0  0
 24 21  1  6  0  0  0
 24 18  1  0  0  0  0
 26 10  1  0  0  0  0
 26 25  1  0  0  0  0
 29 28  1  1  0  0  0
 29 30  1  0  0  0  0
 29 27  1  0  0  0  0
 30 31  1  0  0  0  0
 32 31  1  0  0  0  0
M  END
>  <MODEL>
8

>  <REMARK>
 VINA RESULT:      -6.7      3.153      7.749
  Name = 
  6 active torsions:
  status: ('A' for Active; 'I' for Inactive)
    1  A    between atoms: C_1  and  C_10
    2  A    between atoms: C_8  and  C_19
    3  A    between atoms: C_10  and  C_24
    4  A    between atoms: C_12  and  C_21
    5  A    between atoms: C_16  and  C_32
    6  A    between atoms: C_19  and  C_24
                            x       y       z     vdW  Elec       q    Type
                         _______ _______ _______ _____ _____    ______ ____

>  <TORSDO>
F 6

$$$$
=
 OpenBabel11052421373D

 32 35  0  0  1  0  0  0  0  0999 V2000
  190.2040  175.9180  143.1020 C   0  0  0  0  0  0  0  0  0  0  0  0
  194.5780  175.6490  146.5170 O   0  0  0  0  0  0  0  0  0  0  0  0
  195.3090  175.6650  145.3200 C   0  0  0  0  0  2  0  0  0  0  0  0
  187.8100  176.6040  144.3710 C   0  0  0  0  0  0  0  0  0  0  0  0
  190.1810  176.1660  144.5170 N   0  0  0  0  0  0  0  0  0  0  0  0
  193.4680  176.4800  146.3040 C   0  0  0  0  0  2  0  0  0  0  0  0
  191.3420  176.7980  145.1330 C   0  0  0  0  0  2  0  0  0  0  0  0
  192.4820  175.8230  145.3360 C   0  0  1  0  0  3  0  0  0  0  0  0
  192.2850  174.5800  143.1570 C   0  0  1  0  0  3  0  0  0  0  0  0
  188.8980  176.3780  145.1430 C   0  0  0  0  0  0  0  0  0  0  0  0
  187.9290  176.6210  142.9370 N   0  0  0  0  0  0  0  0  0  0  0  0
  194.5520  174.8770  144.2580 C   0  0  0  0  0  2  0  0  0  0  0  0
  193.1750  175.5170  143.9970 C   0  0  2  0  0  3  0  0  0  0  0  0
  189.0260  176.3000  142.3210 C   0  0  0  0  0  3  0  0  0  0  0  0
  191.1660  175.2720  142.5150 N   0  0  0  0  0  0  0  0  0  0  0  0
  193.7170  173.7130  139.6610 C   0  0  0  0  0  0  0  0  0  0  0  0
  193.4960  172.4010  139.5990 C   0  0  0  0  0  3  0  0  0  0  0  0
  192.4980  172.4270  141.9020 N   0  0  0  0  0  0  0  0  0  0  0  0
  192.4630  170.5070  140.5520 O   0  0  0  0  0  0  0  0  0  0  0  0
  192.7890  171.7170  140.6870 C   0  0  0  0  0  0  0  0  0  0  0  0
  193.1300  174.5440  140.7640 C   0  0  0  0  0  2  0  0  0  0  0  0
  194.3840  174.3240  138.6530 F   0  0  0  0  0  0  0  0  0  0  0  0
  191.9660  171.6870  143.0420 C   0  0  0  0  0  1  0  0  0  0  0  0
  193.0590  173.7740  142.0950 C   0  0  1  0  0  3  0  0  0  0  0  0
  188.9440  174.9750  147.1900 C   0  0  0  0  0  1  0  0  0  0  0  0
  188.7970  176.3830  146.6420 C   0  0  0  0  0  2  0  0  0  0  0  0
  186.4660  176.8830  144.9740 C   0  0  0  0  0  2  0  0  0  0  0  0
  184.6240  177.9430  143.6800 C   0  0  0  0  0  1  0  0  0  0  0  0
  185.9030  178.1980  144.4600 C   0  0  1  0  0  3  0  0  0  0  0  0
  185.6190  179.1120  145.6410 C   0  0  0  0  0  2  0  0  0  0  0  0
  185.4320  178.3130  146.9210 C   0  0  0  0  0  2  0  0  0  0  0  0
  186.3150  178.8560  148.0280 C   0  0  0  0  0  1  0  0  0  0  0  0
  1  5  1  0  0  0  0
  3  2  1  0  0  0  0
  4 27  1  0  0  0  0
  4 10  2  0  0  0  0
  5  7  1  0  0  0  0
  5 10  1  0  0  0  0
  6  2  1  0  0  0  0
  8  7  1  6  0  0  0
  8  6  1  0  0  0  0
  9 15  1  6  0  0  0
  9 13  1  0  0  0  0
 10 26  1  0  0  0  0
 11  4  1  0  0  0  0
 12  3  1  0  0  0  0
 13 12  1  1  0  0  0
 13  8  1  0  0  0  0
 14 11  2  0  0  0  0
 14  1  1  0  0  0  0
 15  1  2  0  0  0  0
 16 21  1  0  0  0  0
 17 16  2  0  0  0  0
 17 20  1  0  0  0  0
 18 24  1  0  0  0  0
 18 23  1  0  0  0  0
 19 20  2  0  0  0  0
 20 18  1  0  0  0  0
 22 16  1  0  0  0  0
 24 21  1  6  0  0  0
 24  9  1  0  0  0  0
 26 25  1  0  0  0  0
 29 28  1  1  0  0  0
 29 27  1  0  0  0  0
 29 30  1  0  0  0  0
 30 31  1  0  0  0  0
 31 32  1  0  0  0  0
M  END
>  <MODEL>
9

>  <REMARK>
 VINA RESULT:      -6.6      2.502      4.358
  Name = 
  6 active torsions:
  status: ('A' for Active; 'I' for Inactive)
    1  A    between atoms: C_1  and  C_10
    2  A    between atoms: C_8  and  C_19
    3  A    between atoms: C_10  and  C_24
    4  A    between atoms: C_12  and  C_21
    5  A    between atoms: C_16  and  C_32
    6  A    between atoms: C_19  and  C_24
                            x       y       z     vdW  Elec       q    Type
                         _______ _______ _______ _____ _____    ______ ____

>  <TORSDO>
F 6

$$$$
