=
 OpenBabel11052419533D

 37 42  0  0  1  0  0  0  0  0999 V2000
  188.6180  174.9470  140.0590 C   0  0  0  0  0  2  0  0  0  0  0  0
  188.0090  176.6670  144.5350 C   0  0  1  0  0  3  0  0  0  0  0  0
  188.8430  173.7860  139.0600 C   0  0  1  0  0  0  0  0  0  0  0  0
  189.3090  173.5150  143.5330 O   0  0  0  0  0  0  0  0  0  0  0  0
  185.6020  177.4780  144.1470 C   0  0  1  0  0  3  0  0  0  0  0  0
  188.2380  175.3690  143.7990 C   0  0  2  0  0  3  0  0  0  0  0  0
  190.1620  173.0260  139.2240 C   0  0  2  0  0  3  0  0  0  0  0  0
  187.0350  177.4400  143.6030 C   0  0  2  0  0  3  0  0  0  0  0  0
  189.4610  174.7360  144.0440 O   0  0  0  0  0  0  0  0  0  0  0  0
  185.5440  178.0570  145.5650 C   0  0  0  0  0  2  0  0  0  0  0  0
  188.0970  172.5430  139.5230 C   0  0  0  0  0  2  0  0  0  0  0  0
  187.0730  176.7100  142.2500 C   0  0  2  0  0  3  0  0  0  0  0  0
  186.7420  177.6770  146.4440 C   0  0  0  0  0  2  0  0  0  0  0  0
  189.4110  171.9640  140.0310 C   0  0  2  0  0  3  0  0  0  0  0  0
  189.4360  173.6000  142.1180 C   0  0  1  0  0  3  0  0  0  0  0  0
  187.4430  176.4210  145.9430 C   0  0  2  0  0  3  0  0  0  0  0  0
  188.2600  175.7800  142.3690 C   0  0  2  0  0  3  0  0  0  0  0  0
  184.7850  178.2370  143.3070 O   0  0  0  0  0  1  0  0  0  0  0  0
  189.4480  172.1560  141.5650 C   0  0  0  0  0  2  0  0  0  0  0  0
  191.3170  173.7620  139.9050 C   0  0  0  0  0  1  0  0  0  0  0  0
  188.3210  174.5210  141.5130 C   0  0  1  0  0  3  0  0  0  0  0  0
  189.6750  173.9500  136.9420 C   0  0  0  0  0  1  0  0  0  0  0  0
  188.5180  174.0970  137.7230 O   0  0  0  0  0  0  0  0  0  0  0  0
  188.5590  176.0600  146.9070 C   0  0  0  0  0  2  0  0  0  0  0  0
  189.6340  177.1320  146.8800 C   0  0  0  0  0  2  0  0  0  0  0  0
  191.5220  175.6310  147.1290 C   0  0  0  0  0  3  0  0  0  0  0  0
  191.4310  177.0380  145.0860 C   0  0  0  0  0  3  0  0  0  0  0  0
  192.7180  177.1500  144.7340 C   0  0  0  0  0  3  0  0  0  0  0  0
  195.0520  177.5550  145.3870 O   0  0  0  0  0  1  0  0  0  0  0  0
  193.8980  175.8390  146.4770 C   0  0  0  0  0  3  0  0  0  0  0  0
  193.8890  176.8200  145.5720 C   0  0  0  0  0  0  0  0  0  0  0  0
  190.9150  176.5590  146.3860 C   0  0  0  0  0  0  0  0  0  0  0  0
  192.7540  174.9070  146.6970 C   0  0  0  0  0  2  0  0  0  0  0  0
  187.1950  177.6840  141.0720 C   0  0  0  0  0  2  0  0  0  0  0  0
  184.7950  177.8650  140.3880 O   0  0  0  0  0  1  0  0  0  0  0  0
  186.1040  177.5390  140.0560 C   0  0  0  0  0  0  0  0  0  0  0  0
  186.3840  177.1030  138.8370 C   0  0  0  0  0  2  0  0  0  0  0  0
  1 21  1  0  0  0  0
  2 16  1  0  0  0  0
  3  7  1  0  0  0  0
  3 11  1  0  0  0  0
  3  1  1  0  0  0  0
  4  9  1  0  0  0  0
  5 10  1  0  0  0  0
  6  9  1  0  0  0  0
  6  2  1  0  0  0  0
  7 20  1  0  0  0  0
  7 14  1  0  0  0  0
  8  5  1  0  0  0  0
  8  2  1  0  0  0  0
 10 13  1  0  0  0  0
 11 14  1  0  0  0  0
 12 17  1  0  0  0  0
 12  8  1  0  0  0  0
 14 19  1  0  0  0  0
 15  4  1  0  0  0  0
 16 13  1  0  0  0  0
 16 24  1  0  0  0  0
 17  6  1  0  0  0  0
 18  5  1  0  0  0  0
 19 15  1  0  0  0  0
 21 15  1  0  0  0  0
 21 17  1  0  0  0  0
 22 23  1  0  0  0  0
 23  3  1  0  0  0  0
 25 24  1  0  0  0  0
 27 32  1  0  0  0  0
 28 27  2  0  0  0  0
 28 31  1  0  0  0  0
 29 31  1  0  0  0  0
 30 33  1  0  0  0  0
 31 30  2  0  0  0  0
 32 25  1  0  0  0  0
 32 26  2  0  0  0  0
 33 26  1  0  0  0  0
 34 12  1  0  0  0  0
 36 35  1  0  0  0  0
 36 34  1  0  0  0  0
 37 36  2  0  0  0  0
M  END
>  <MODEL>
1

>  <REMARK>
 VINA RESULT:      -8.3      0.000      0.000
  Name = 
  6 active torsions:
  status: ('A' for Active; 'I' for Inactive)
    1  A    between atoms: C_5  and  O_23
    2  A    between atoms: C_20  and  C_25
    3  A    between atoms: C_21  and  C_25
    4  A    between atoms: C_22  and  C_28
    5  A    between atoms: C_22  and  C_37
    6  A    between atoms: C_31  and  C_37
                            x       y       z     vdW  Elec       q    Type
                         _______ _______ _______ _____ _____    ______ ____

>  <TORSDO>
F 6

$$$$
=
 OpenBabel11052419533D

 37 42  0  0  1  0  0  0  0  0999 V2000
  186.2490  176.6840  143.8640 C   0  0  0  0  0  2  0  0  0  0  0  0
  190.5420  174.6070  144.6540 C   0  0  1  0  0  3  0  0  0  0  0  0
  185.2210  177.8210  144.0780 C   0  0  1  0  0  0  0  0  0  0  0  0
  188.9340  177.1510  146.5420 O   0  0  0  0  0  0  0  0  0  0  0  0
  191.3640  174.8420  142.2310 C   0  0  1  0  0  3  0  0  0  0  0  0
  189.7380  175.8240  145.0450 C   0  0  2  0  0  3  0  0  0  0  0  0
  184.7170  177.9880  145.5140 C   0  0  2  0  0  3  0  0  0  0  0  0
  190.2070  174.4250  143.1480 C   0  0  2  0  0  3  0  0  0  0  0  0
  189.3550  175.8970  146.3880 O   0  0  0  0  0  0  0  0  0  0  0  0
  192.6610  174.1020  142.5750 C   0  0  0  0  0  2  0  0  0  0  0  0
  185.9370  179.1590  144.2000 C   0  0  0  0  0  2  0  0  0  0  0  0
  188.9710  175.2990  142.8780 C   0  0  2  0  0  3  0  0  0  0  0  0
  192.8570  173.8490  144.0750 C   0  0  0  0  0  2  0  0  0  0  0  0
  185.7440  179.1050  145.7100 C   0  0  2  0  0  3  0  0  0  0  0  0
  187.6300  177.2600  145.9820 C   0  0  1  0  0  3  0  0  0  0  0  0
  192.0400  174.8120  144.9290 C   0  0  2  0  0  3  0  0  0  0  0  0
  188.4830  175.6780  144.2600 C   0  0  2  0  0  3  0  0  0  0  0  0
  191.0360  174.5990  140.8970 O   0  0  0  0  0  1  0  0  0  0  0  0
  187.0850  178.6630  146.3400 C   0  0  0  0  0  2  0  0  0  0  0  0
  184.7990  176.7680  146.4330 C   0  0  0  0  0  1  0  0  0  0  0  0
  187.6550  176.9430  144.4470 C   0  0  1  0  0  3  0  0  0  0  0  0
  184.7970  178.2400  141.8760 C   0  0  0  0  0  1  0  0  0  0  0  0
  184.2080  177.8830  143.0990 O   0  0  0  0  0  0  0  0  0  0  0  0
  192.3510  174.5590  146.3930 C   0  0  0  0  0  2  0  0  0  0  0  0
  193.1400  175.7240  146.9640 C   0  0  0  0  0  2  0  0  0  0  0  0
  194.5290  177.0480  145.4820 C   0  0  0  0  0  3  0  0  0  0  0  0
  195.4280  174.8700  146.2660 C   0  0  0  0  0  3  0  0  0  0  0  0
  196.2850  174.5270  145.2960 C   0  0  0  0  0  3  0  0  0  0  0  0
  196.7780  174.3170  142.8980 O   0  0  0  0  0  1  0  0  0  0  0  0
  196.1130  176.4120  143.6940 C   0  0  0  0  0  3  0  0  0  0  0  0
  196.3740  175.1290  143.9490 C   0  0  0  0  0  0  0  0  0  0  0  0
  194.3930  175.9230  146.1890 C   0  0  0  0  0  0  0  0  0  0  0  0
  195.7760  177.4130  144.7480 C   0  0  0  0  0  2  0  0  0  0  0  0
  187.9110  174.5610  142.0530 C   0  0  0  0  0  2  0  0  0  0  0  0
  188.1270  174.1750  139.5910 O   0  0  0  0  0  1  0  0  0  0  0  0
  187.8140  175.0350  140.6350 C   0  0  0  0  0  0  0  0  0  0  0  0
  187.4260  176.2740  140.3730 C   0  0  0  0  0  2  0  0  0  0  0  0
  1  3  1  0  0  0  0
  1 21  1  0  0  0  0
  2 16  1  0  0  0  0
  2  6  1  0  0  0  0
  3 11  1  0  0  0  0
  3  7  1  0  0  0  0
  5 10  1  0  0  0  0
  5  8  1  0  0  0  0
  6  9  1  0  0  0  0
  7 14  1  0  0  0  0
  7 20  1  0  0  0  0
  8  2  1  0  0  0  0
  9  4  1  0  0  0  0
 10 13  1  0  0  0  0
 11 14  1  0  0  0  0
 12  8  1  0  0  0  0
 12 17  1  0  0  0  0
 13 16  1  0  0  0  0
 14 19  1  0  0  0  0
 15 19  1  0  0  0  0
 15  4  1  0  0  0  0
 16 24  1  0  0  0  0
 17 21  1  0  0  0  0
 17  6  1  0  0  0  0
 18  5  1  0  0  0  0
 21 15  1  0  0  0  0
 22 23  1  0  0  0  0
 23  3  1  0  0  0  0
 24 25  1  0  0  0  0
 26 32  2  0  0  0  0
 28 27  2  0  0  0  0
 29 31  1  0  0  0  0
 30 31  2  0  0  0  0
 30 33  1  0  0  0  0
 31 28  1  0  0  0  0
 32 27  1  0  0  0  0
 32 25  1  0  0  0  0
 33 26  1  0  0  0  0
 34 12  1  0  0  0  0
 35 36  1  0  0  0  0
 36 34  1  0  0  0  0
 37 36  2  0  0  0  0
M  END
>  <MODEL>
2

>  <REMARK>
 VINA RESULT:      -8.3      2.114      5.752
  Name = 
  6 active torsions:
  status: ('A' for Active; 'I' for Inactive)
    1  A    between atoms: C_5  and  O_23
    2  A    between atoms: C_20  and  C_25
    3  A    between atoms: C_21  and  C_25
    4  A    between atoms: C_22  and  C_28
    5  A    between atoms: C_22  and  C_37
    6  A    between atoms: C_31  and  C_37
                            x       y       z     vdW  Elec       q    Type
                         _______ _______ _______ _____ _____    ______ ____

>  <TORSDO>
F 6

$$$$
=
 OpenBabel11052419533D

 37 42  0  0  1  0  0  0  0  0999 V2000
  194.9300  174.3050  142.5110 C   0  0  0  0  0  2  0  0  0  0  0  0
  190.2860  175.5930  142.8910 C   0  0  1  0  0  3  0  0  0  0  0  0
  196.3010  173.9400  143.1280 C   0  0  1  0  0  0  0  0  0  0  0  0
  192.8500  175.8060  145.3420 O   0  0  0  0  0  0  0  0  0  0  0  0
  189.3580  173.4170  141.8900 C   0  0  1  0  0  3  0  0  0  0  0  0
  191.4930  175.2910  143.7460 C   0  0  2  0  0  3  0  0  0  0  0  0
  196.9730  175.0510  143.9390 C   0  0  2  0  0  3  0  0  0  0  0  0
  190.3860  174.5450  141.7480 C   0  0  2  0  0  3  0  0  0  0  0  0
  192.0100  176.3680  144.4740 O   0  0  0  0  0  0  0  0  0  0  0  0
  187.9260  173.9560  141.9860 C   0  0  0  0  0  2  0  0  0  0  0  0
  196.1050  173.1520  144.4150 C   0  0  0  0  0  2  0  0  0  0  0  0
  191.8140  173.9780  141.8150 C   0  0  2  0  0  3  0  0  0  0  0  0
  187.8070  175.2730  142.7610 C   0  0  0  0  0  2  0  0  0  0  0  0
  196.4160  174.4110  145.2130 C   0  0  2  0  0  3  0  0  0  0  0  0
  194.0490  175.4680  144.6540 C   0  0  1  0  0  3  0  0  0  0  0  0
  188.9850  175.4920  143.7020 C   0  0  2  0  0  3  0  0  0  0  0  0
  192.5370  174.9190  142.7540 C   0  0  2  0  0  3  0  0  0  0  0  0
  189.4480  172.5410  140.8070 O   0  0  0  0  0  1  0  0  0  0  0  0
  195.0750  174.9970  145.7120 C   0  0  0  0  0  2  0  0  0  0  0  0
  196.5690  176.4920  143.6240 C   0  0  0  0  0  1  0  0  0  0  0  0
  193.7630  174.4300  143.5150 C   0  0  1  0  0  3  0  0  0  0  0  0
  196.3950  172.5420  141.3270 C   0  0  0  0  0  1  0  0  0  0  0  0
  197.1710  173.2580  142.2520 O   0  0  0  0  0  0  0  0  0  0  0  0
  188.7530  176.7660  144.4950 C   0  0  0  0  0  2  0  0  0  0  0  0
  187.8730  176.4760  145.6980 C   0  0  0  0  0  2  0  0  0  0  0  0
  185.9520  177.4220  146.8360 C   0  0  0  0  0  3  0  0  0  0  0  0
  186.7490  178.5600  144.7780 C   0  0  0  0  0  3  0  0  0  0  0  0
  185.6490  179.1730  144.3220 C   0  0  0  0  0  3  0  0  0  0  0  0
  183.2460  179.0860  143.8190 O   0  0  0  0  0  1  0  0  0  0  0  0
  183.9240  178.5550  145.9920 C   0  0  0  0  0  3  0  0  0  0  0  0
  184.2600  178.9160  144.7520 C   0  0  0  0  0  0  0  0  0  0  0  0
  186.8000  177.5000  145.8070 C   0  0  0  0  0  0  0  0  0  0  0  0
  184.9010  178.4440  147.1140 C   0  0  0  0  0  2  0  0  0  0  0  0
  192.4690  173.8970  140.4310 C   0  0  0  0  0  2  0  0  0  0  0  0
  193.6610  172.3230  138.8960 O   0  0  0  0  0  1  0  0  0  0  0  0
  192.9620  172.5280  140.0790 C   0  0  0  0  0  0  0  0  0  0  0  0
  192.7400  171.5100  140.8950 C   0  0  0  0  0  2  0  0  0  0  0  0
  1  3  1  0  0  0  0
  1 21  1  0  0  0  0
  2 16  1  0  0  0  0
  2  6  1  0  0  0  0
  3  7  1  0  0  0  0
  3 11  1  0  0  0  0
  5 10  1  0  0  0  0
  6  9  1  0  0  0  0
  7 14  1  0  0  0  0
  8 12  1  0  0  0  0
  8  5  1  0  0  0  0
  8  2  1  0  0  0  0
  9  4  1  0  0  0  0
 10 13  1  0  0  0  0
 11 14  1  0  0  0  0
 12 17  1  0  0  0  0
 13 16  1  0  0  0  0
 14 19  1  0  0  0  0
 15  4  1  0  0  0  0
 15 19  1  0  0  0  0
 16 24  1  0  0  0  0
 17 21  1  0  0  0  0
 17  6  1  0  0  0  0
 18  5  1  0  0  0  0
 20  7  1  0  0  0  0
 21 15  1  0  0  0  0
 22 23  1  0  0  0  0
 23  3  1  0  0  0  0
 24 25  1  0  0  0  0
 25 32  1  0  0  0  0
 26 33  1  0  0  0  0
 27 32  1  0  0  0  0
 28 31  1  0  0  0  0
 28 27  2  0  0  0  0
 29 31  1  0  0  0  0
 30 33  1  0  0  0  0
 31 30  2  0  0  0  0
 32 26  2  0  0  0  0
 34 12  1  0  0  0  0
 35 36  1  0  0  0  0
 36 34  1  0  0  0  0
 36 37  2  0  0  0  0
M  END
>  <MODEL>
3

>  <REMARK>
 VINA RESULT:      -8.2      2.767      7.062
  Name = 
  6 active torsions:
  status: ('A' for Active; 'I' for Inactive)
    1  A    between atoms: C_5  and  O_23
    2  A    between atoms: C_20  and  C_25
    3  A    between atoms: C_21  and  C_25
    4  A    between atoms: C_22  and  C_28
    5  A    between atoms: C_22  and  C_37
    6  A    between atoms: C_31  and  C_37
                            x       y       z     vdW  Elec       q    Type
                         _______ _______ _______ _____ _____    ______ ____

>  <TORSDO>
F 6

$$$$
=
 OpenBabel11052419533D

 37 42  0  0  1  0  0  0  0  0999 V2000
  187.0030  178.0430  145.3300 C   0  0  0  0  0  2  0  0  0  0  0  0
  189.0280  175.0960  142.0770 C   0  0  1  0  0  3  0  0  0  0  0  0
  185.7810  178.7740  145.9370 C   0  0  1  0  0  0  0  0  0  0  0  0
  185.8760  176.7290  141.9240 O   0  0  0  0  0  0  0  0  0  0  0  0
  189.6900  173.2900  143.7790 C   0  0  1  0  0  3  0  0  0  0  0  0
  187.6900  175.6880  142.4500 C   0  0  2  0  0  3  0  0  0  0  0  0
  185.1000  179.7900  145.0160 C   0  0  2  0  0  3  0  0  0  0  0  0
  189.6790  174.7880  143.4530 C   0  0  2  0  0  3  0  0  0  0  0  0
  187.1380  176.5800  141.5250 O   0  0  0  0  0  0  0  0  0  0  0  0
  190.3720  172.4690  142.6780 C   0  0  0  0  0  2  0  0  0  0  0  0
  184.5430  177.8950  145.8430 C   0  0  0  0  0  2  0  0  0  0  0  0
  188.8520  175.5560  144.4970 C   0  0  2  0  0  3  0  0  0  0  0  0
  190.1190  172.9960  141.2600 C   0  0  0  0  0  2  0  0  0  0  0  0
  184.0680  178.7200  144.6540 C   0  0  2  0  0  3  0  0  0  0  0  0
  185.8580  177.6060  143.0440 C   0  0  1  0  0  3  0  0  0  0  0  0
  188.8630  173.8550  141.1850 C   0  0  2  0  0  3  0  0  0  0  0  0
  187.9910  176.4860  143.6690 C   0  0  2  0  0  3  0  0  0  0  0  0
  190.3420  173.0630  144.9920 O   0  0  0  0  0  1  0  0  0  0  0  0
  184.3780  177.9160  143.3690 C   0  0  0  0  0  2  0  0  0  0  0  0
  185.9410  180.3890  143.8870 C   0  0  0  0  0  1  0  0  0  0  0  0
  186.6750  177.0010  144.2380 C   0  0  1  0  0  3  0  0  0  0  0  0
  186.3320  178.1330  148.0560 C   0  0  0  0  0  1  0  0  0  0  0  0
  185.9730  179.2300  147.2580 O   0  0  0  0  0  0  0  0  0  0  0  0
  188.6310  174.2650  139.7420 C   0  0  0  0  0  2  0  0  0  0  0  0
  188.1910  173.0620  138.9260 C   0  0  0  0  0  2  0  0  0  0  0  0
  189.6590  171.8510  137.4230 C   0  0  0  0  0  3  0  0  0  0  0  0
  188.9630  174.1400  136.7590 C   0  0  0  0  0  3  0  0  0  0  0  0
  189.9610  174.5430  135.9610 C   0  0  0  0  0  3  0  0  0  0  0  0
  192.3730  174.7260  135.5350 O   0  0  0  0  0  1  0  0  0  0  0  0
  191.4980  172.5990  135.9500 C   0  0  0  0  0  3  0  0  0  0  0  0
  191.2890  173.9110  135.8280 C   0  0  0  0  0  0  0  0  0  0  0  0
  188.9850  172.9770  137.6710 C   0  0  0  0  0  0  0  0  0  0  0  0
  190.4060  171.6020  136.1550 C   0  0  0  0  0  2  0  0  0  0  0  0
  189.7380  176.3000  145.5030 C   0  0  0  0  0  2  0  0  0  0  0  0
  190.7960  175.8020  147.7140 O   0  0  0  0  0  1  0  0  0  0  0  0
  189.6810  175.7350  146.8880 C   0  0  0  0  0  0  0  0  0  0  0  0
  188.5660  175.1740  147.3330 C   0  0  0  0  0  2  0  0  0  0  0  0
  1  3  1  0  0  0  0
  2  6  1  0  0  0  0
  2  8  1  0  0  0  0
  3 23  1  0  0  0  0
  4 15  1  0  0  0  0
  5 18  1  0  0  0  0
  6 17  1  0  0  0  0
  7  3  1  0  0  0  0
  8  5  1  0  0  0  0
  8 12  1  0  0  0  0
  9  4  1  0  0  0  0
  9  6  1  0  0  0  0
 10  5  1  0  0  0  0
 11  3  1  0  0  0  0
 12 34  1  0  0  0  0
 13 10  1  0  0  0  0
 14  7  1  0  0  0  0
 14 11  1  0  0  0  0
 15 19  1  0  0  0  0
 15 21  1  0  0  0  0
 16 13  1  0  0  0  0
 16  2  1  0  0  0  0
 17 21  1  0  0  0  0
 17 12  1  0  0  0  0
 19 14  1  0  0  0  0
 20  7  1  0  0  0  0
 21  1  1  0  0  0  0
 23 22  1  0  0  0  0
 24 16  1  0  0  0  0
 25 24  1  0  0  0  0
 26 32  2  0  0  0  0
 27 32  1  0  0  0  0
 28 27  2  0  0  0  0
 29 31  1  0  0  0  0
 30 33  1  0  0  0  0
 31 30  2  0  0  0  0
 31 28  1  0  0  0  0
 32 25  1  0  0  0  0
 33 26  1  0  0  0  0
 34 36  1  0  0  0  0
 36 37  2  0  0  0  0
 36 35  1  0  0  0  0
M  END
>  <MODEL>
4

>  <REMARK>
 VINA RESULT:      -8.1      2.259      8.156
  Name = 
  6 active torsions:
  status: ('A' for Active; 'I' for Inactive)
    1  A    between atoms: C_5  and  O_23
    2  A    between atoms: C_20  and  C_25
    3  A    between atoms: C_21  and  C_25
    4  A    between atoms: C_22  and  C_28
    5  A    between atoms: C_22  and  C_37
    6  A    between atoms: C_31  and  C_37
                            x       y       z     vdW  Elec       q    Type
                         _______ _______ _______ _____ _____    ______ ____

>  <TORSDO>
F 6

$$$$
=
 OpenBabel11052419533D

 37 42  0  0  1  0  0  0  0  0999 V2000
  195.0650  173.1900  143.2890 C   0  0  0  0  0  2  0  0  0  0  0  0
  190.8000  175.3110  142.4660 C   0  0  1  0  0  3  0  0  0  0  0  0
  196.2880  172.8840  144.1860 C   0  0  1  0  0  0  0  0  0  0  0  0
  193.2110  176.0830  144.9580 O   0  0  0  0  0  0  0  0  0  0  0  0
  189.4750  173.1150  142.3020 C   0  0  1  0  0  3  0  0  0  0  0  0
  191.8640  175.1910  143.5300 C   0  0  2  0  0  3  0  0  0  0  0  0
  197.1410  174.0970  144.5690 C   0  0  2  0  0  3  0  0  0  0  0  0
  190.7320  173.8790  141.8650 C   0  0  2  0  0  3  0  0  0  0  0  0
  192.5630  176.3650  143.8290 O   0  0  0  0  0  0  0  0  0  0  0  0
  188.1930  173.8870  141.9720 C   0  0  0  0  0  2  0  0  0  0  0  0
  195.8550  172.7600  145.6390 C   0  0  0  0  0  2  0  0  0  0  0  0
  191.9950  173.1520  142.3540 C   0  0  2  0  0  3  0  0  0  0  0  0
  188.3210  175.4070  142.1290 C   0  0  0  0  0  2  0  0  0  0  0  0
  196.3900  174.1620  145.9010 C   0  0  2  0  0  3  0  0  0  0  0  0
  194.3440  175.2820  144.6390 C   0  0  1  0  0  3  0  0  0  0  0  0
  189.4660  175.7910  143.0580 C   0  0  2  0  0  3  0  0  0  0  0  0
  192.8540  174.2580  142.9280 C   0  0  2  0  0  3  0  0  0  0  0  0
  189.4310  171.8640  141.6860 O   0  0  0  0  0  1  0  0  0  0  0  0
  195.1830  175.1290  145.9290 C   0  0  0  0  0  2  0  0  0  0  0  0
  197.0780  175.3170  143.6480 C   0  0  0  0  0  1  0  0  0  0  0  0
  193.9010  173.9280  143.9840 C   0  0  1  0  0  3  0  0  0  0  0  0
  196.5350  171.3070  142.5560 C   0  0  0  0  0  1  0  0  0  0  0  0
  197.0350  171.7560  143.7880 O   0  0  0  0  0  0  0  0  0  0  0  0
  189.4750  177.2990  143.2320 C   0  0  0  0  0  2  0  0  0  0  0  0
  189.1260  177.6580  144.6660 C   0  0  0  0  0  2  0  0  0  0  0  0
  186.8770  178.2870  144.0120 C   0  0  0  0  0  3  0  0  0  0  0  0
  187.1310  176.7910  145.9780 C   0  0  0  0  0  3  0  0  0  0  0  0
  186.0250  177.0360  146.6920 C   0  0  0  0  0  3  0  0  0  0  0  0
  184.4440  178.6620  147.6360 O   0  0  0  0  0  1  0  0  0  0  0  0
  184.8360  178.7350  145.3330 C   0  0  0  0  0  3  0  0  0  0  0  0
  185.0980  178.1720  146.5140 C   0  0  0  0  0  0  0  0  0  0  0  0
  187.6530  177.6090  144.8620 C   0  0  0  0  0  0  0  0  0  0  0  0
  185.3860  178.2350  144.0390 C   0  0  0  0  0  2  0  0  0  0  0  0
  192.6910  172.3820  141.2250 C   0  0  0  0  0  2  0  0  0  0  0  0
  192.9440  170.0410  140.3810 O   0  0  0  0  0  1  0  0  0  0  0  0
  192.7470  170.9030  141.4520 C   0  0  0  0  0  0  0  0  0  0  0  0
  192.6150  170.4120  142.6750 C   0  0  0  0  0  2  0  0  0  0  0  0
  1 21  1  0  0  0  0
  1  3  1  0  0  0  0
  2 16  1  0  0  0  0
  2  6  1  0  0  0  0
  3  7  1  0  0  0  0
  3 11  1  0  0  0  0
  6  9  1  0  0  0  0
  7 14  1  0  0  0  0
  8  5  1  0  0  0  0
  8 12  1  0  0  0  0
  8  2  1  0  0  0  0
  9  4  1  0  0  0  0
 10 13  1  0  0  0  0
 10  5  1  0  0  0  0
 11 14  1  0  0  0  0
 12 17  1  0  0  0  0
 13 16  1  0  0  0  0
 14 19  1  0  0  0  0
 15  4  1  0  0  0  0
 15 19  1  0  0  0  0
 16 24  1  0  0  0  0
 17  6  1  0  0  0  0
 17 21  1  0  0  0  0
 18  5  1  0  0  0  0
 20  7  1  0  0  0  0
 21 15  1  0  0  0  0
 22 23  1  0  0  0  0
 23  3  1  0  0  0  0
 24 25  1  0  0  0  0
 25 32  1  0  0  0  0
 26 33  1  0  0  0  0
 26 32  2  0  0  0  0
 27 28  2  0  0  0  0
 30 31  2  0  0  0  0
 31 28  1  0  0  0  0
 31 29  1  0  0  0  0
 32 27  1  0  0  0  0
 33 30  1  0  0  0  0
 34 36  1  0  0  0  0
 34 12  1  0  0  0  0
 35 36  1  0  0  0  0
 36 37  2  0  0  0  0
M  END
>  <MODEL>
5

>  <REMARK>
 VINA RESULT:      -8.1      3.059      7.342
  Name = 
  6 active torsions:
  status: ('A' for Active; 'I' for Inactive)
    1  A    between atoms: C_5  and  O_23
    2  A    between atoms: C_20  and  C_25
    3  A    between atoms: C_21  and  C_25
    4  A    between atoms: C_22  and  C_28
    5  A    between atoms: C_22  and  C_37
    6  A    between atoms: C_31  and  C_37
                            x       y       z     vdW  Elec       q    Type
                         _______ _______ _______ _____ _____    ______ ____

>  <TORSDO>
F 6

$$$$
=
 OpenBabel11052419533D

 37 42  0  0  1  0  0  0  0  0999 V2000
  193.9800  172.6920  142.2630 C   0  0  0  0  0  2  0  0  0  0  0  0
  191.0520  174.7580  145.5070 C   0  0  1  0  0  3  0  0  0  0  0  0
  194.4210  172.4060  140.8080 C   0  0  1  0  0  0  0  0  0  0  0  0
  190.4880  174.2260  142.0400 O   0  0  0  0  0  0  0  0  0  0  0  0
  192.8550  176.2900  146.5070 C   0  0  1  0  0  3  0  0  0  0  0  0
  191.2490  174.6370  144.0150 C   0  0  2  0  0  3  0  0  0  0  0  0
  193.4060  171.6450  139.9510 C   0  0  2  0  0  3  0  0  0  0  0  0
  192.5020  174.8690  146.0530 C   0  0  2  0  0  3  0  0  0  0  0  0
  190.2470  173.9510  143.3210 O   0  0  0  0  0  0  0  0  0  0  0  0
  191.8610  176.8230  147.5440 C   0  0  0  0  0  2  0  0  0  0  0  0
  194.1950  173.6360  139.9400 C   0  0  0  0  0  2  0  0  0  0  0  0
  193.4240  174.4320  144.9020 C   0  0  2  0  0  3  0  0  0  0  0  0
  190.4130  176.3760  147.3070 C   0  0  0  0  0  2  0  0  0  0  0  0
  192.9420  172.9830  139.3720 C   0  0  2  0  0  3  0  0  0  0  0  0
  191.5810  173.4250  141.6050 C   0  0  1  0  0  3  0  0  0  0  0  0
  190.1700  175.9670  145.8600 C   0  0  2  0  0  3  0  0  0  0  0  0
  192.4810  173.8110  143.8940 C   0  0  2  0  0  3  0  0  0  0  0  0
  194.1420  176.3210  147.0460 O   0  0  0  0  0  1  0  0  0  0  0  0
  191.7190  173.6170  140.0770 C   0  0  0  0  0  2  0  0  0  0  0  0
  192.3760  170.7830  140.6840 C   0  0  0  0  0  1  0  0  0  0  0  0
  192.8760  173.7600  142.4240 C   0  0  1  0  0  3  0  0  0  0  0  0
  196.5750  172.7470  141.4790 C   0  0  0  0  0  1  0  0  0  0  0  0
  195.7470  171.9420  140.6810 O   0  0  0  0  0  0  0  0  0  0  0  0
  188.7020  175.6220  145.6840 C   0  0  0  0  0  2  0  0  0  0  0  0
  187.9110  176.0950  146.8910 C   0  0  0  0  0  2  0  0  0  0  0  0
  185.9830  177.4990  147.3280 C   0  0  0  0  0  3  0  0  0  0  0  0
  187.2340  177.8830  145.2180 C   0  0  0  0  0  3  0  0  0  0  0  0
  186.3100  178.4150  144.4080 C   0  0  0  0  0  3  0  0  0  0  0  0
  184.0230  178.3770  143.5090 O   0  0  0  0  0  1  0  0  0  0  0  0
  184.2800  178.4820  145.8300 C   0  0  0  0  0  3  0  0  0  0  0  0
  184.8490  178.4170  144.6250 C   0  0  0  0  0  0  0  0  0  0  0  0
  186.9820  177.1880  146.4990 C   0  0  0  0  0  0  0  0  0  0  0  0
  185.0490  178.6410  147.0990 C   0  0  0  0  0  2  0  0  0  0  0  0
  194.5150  173.4630  145.3720 C   0  0  0  0  0  2  0  0  0  0  0  0
  196.9040  173.5300  146.1110 O   0  0  0  0  0  1  0  0  0  0  0  0
  195.8980  174.0320  145.2960 C   0  0  0  0  0  0  0  0  0  0  0  0
  196.1680  175.0120  144.4470 C   0  0  0  0  0  2  0  0  0  0  0  0
  1 21  1  0  0  0  0
  2 16  1  0  0  0  0
  2  8  1  0  0  0  0
  3  1  1  0  0  0  0
  4  9  1  0  0  0  0
  5 18  1  0  0  0  0
  5 10  1  0  0  0  0
  6  2  1  0  0  0  0
  7 20  1  0  0  0  0
  7  3  1  0  0  0  0
  8  5  1  0  0  0  0
  9  6  1  0  0  0  0
 11  3  1  0  0  0  0
 12 34  1  0  0  0  0
 12  8  1  0  0  0  0
 13 10  1  0  0  0  0
 14 11  1  0  0  0  0
 14  7  1  0  0  0  0
 14 19  1  0  0  0  0
 15  4  1  0  0  0  0
 15 21  1  0  0  0  0
 16 13  1  0  0  0  0
 17  6  1  0  0  0  0
 17 12  1  0  0  0  0
 19 15  1  0  0  0  0
 21 17  1  0  0  0  0
 23  3  1  0  0  0  0
 23 22  1  0  0  0  0
 24 16  1  0  0  0  0
 24 25  1  0  0  0  0
 27 32  1  0  0  0  0
 28 31  1  0  0  0  0
 28 27  2  0  0  0  0
 29 31  1  0  0  0  0
 30 33  1  0  0  0  0
 31 30  2  0  0  0  0
 32 25  1  0  0  0  0
 32 26  2  0  0  0  0
 33 26  1  0  0  0  0
 36 34  1  0  0  0  0
 36 35  1  0  0  0  0
 37 36  2  0  0  0  0
M  END
>  <MODEL>
6

>  <REMARK>
 VINA RESULT:      -8.0      2.609      6.900
  Name = 
  6 active torsions:
  status: ('A' for Active; 'I' for Inactive)
    1  A    between atoms: C_5  and  O_23
    2  A    between atoms: C_20  and  C_25
    3  A    between atoms: C_21  and  C_25
    4  A    between atoms: C_22  and  C_28
    5  A    between atoms: C_22  and  C_37
    6  A    between atoms: C_31  and  C_37
                            x       y       z     vdW  Elec       q    Type
                         _______ _______ _______ _____ _____    ______ ____

>  <TORSDO>
F 6

$$$$
=
 OpenBabel11052419533D

 37 42  0  0  1  0  0  0  0  0999 V2000
  192.8420  171.8910  142.3690 C   0  0  0  0  0  2  0  0  0  0  0  0
  191.0580  174.4910  146.0340 C   0  0  1  0  0  3  0  0  0  0  0  0
  192.8310  171.4230  140.8940 C   0  0  1  0  0  0  0  0  0  0  0  0
  189.4930  173.6330  142.9620 O   0  0  0  0  0  0  0  0  0  0  0  0
  193.1290  175.9920  146.2840 C   0  0  1  0  0  3  0  0  0  0  0  0
  190.8090  174.1980  144.5740 C   0  0  2  0  0  3  0  0  0  0  0  0
  191.5840  170.6460  140.4620 C   0  0  2  0  0  3  0  0  0  0  0  0
  192.6080  174.5580  146.1260 C   0  0  2  0  0  3  0  0  0  0  0  0
  189.6250  173.5140  144.2820 O   0  0  0  0  0  0  0  0  0  0  0  0
  192.4980  176.7000  147.4880 C   0  0  0  0  0  2  0  0  0  0  0  0
  192.4060  172.5650  139.9830 C   0  0  0  0  0  2  0  0  0  0  0  0
  193.1390  173.9380  144.8240 C   0  0  2  0  0  3  0  0  0  0  0  0
  191.0290  176.3320  147.7290 C   0  0  0  0  0  2  0  0  0  0  0  0
  191.0190  171.9440  139.8790 C   0  0  2  0  0  3  0  0  0  0  0  0
  190.3830  172.7160  142.3360 C   0  0  1  0  0  3  0  0  0  0  0  0
  190.3610  175.7880  146.4720 C   0  0  2  0  0  3  0  0  0  0  0  0
  191.9220  173.2800  144.2090 C   0  0  2  0  0  3  0  0  0  0  0  0
  194.5170  175.9900  146.4270 O   0  0  0  0  0  1  0  0  0  0  0  0
  190.0780  172.7330  140.8190 C   0  0  0  0  0  2  0  0  0  0  0  0
  190.7810  169.9420  141.5560 C   0  0  0  0  0  1  0  0  0  0  0  0
  191.8710  173.0450  142.7050 C   0  0  1  0  0  3  0  0  0  0  0  0
  194.8330  170.5720  141.5800 C   0  0  0  0  0  1  0  0  0  0  0  0
  194.0450  170.8560  140.4540 O   0  0  0  0  0  0  0  0  0  0  0  0
  188.8940  175.5310  146.7650 C   0  0  0  0  0  2  0  0  0  0  0  0
  188.1430  176.8480  146.8480 C   0  0  0  0  0  2  0  0  0  0  0  0
  187.2250  176.5910  144.6190 C   0  0  0  0  0  3  0  0  0  0  0  0
  185.6430  177.0880  146.4670 C   0  0  0  0  0  3  0  0  0  0  0  0
  184.6230  177.6910  145.8420 C   0  0  0  0  0  3  0  0  0  0  0  0
  183.8390  179.3400  144.1980 O   0  0  0  0  0  1  0  0  0  0  0  0
  185.3410  177.7030  143.4690 C   0  0  0  0  0  3  0  0  0  0  0  0
  184.6330  178.2330  144.4680 C   0  0  0  0  0  0  0  0  0  0  0  0
  186.9900  176.8400  145.9100 C   0  0  0  0  0  0  0  0  0  0  0  0
  186.1450  176.4530  143.5980 C   0  0  0  0  0  2  0  0  0  0  0  0
  194.2850  172.9510  145.0790 C   0  0  0  0  0  2  0  0  0  0  0  0
  196.6520  172.4550  144.4410 O   0  0  0  0  0  1  0  0  0  0  0  0
  195.5260  173.2560  144.2990 C   0  0  0  0  0  0  0  0  0  0  0  0
  195.5530  174.2860  143.4670 C   0  0  0  0  0  2  0  0  0  0  0  0
  1 21  1  0  0  0  0
  2  8  1  0  0  0  0
  2 16  1  0  0  0  0
  3  1  1  0  0  0  0
  4  9  1  0  0  0  0
  5 18  1  0  0  0  0
  5 10  1  0  0  0  0
  6  2  1  0  0  0  0
  7  3  1  0  0  0  0
  7 20  1  0  0  0  0
  8  5  1  0  0  0  0
  9  6  1  0  0  0  0
 10 13  1  0  0  0  0
 11  3  1  0  0  0  0
 12 34  1  0  0  0  0
 12  8  1  0  0  0  0
 14 11  1  0  0  0  0
 14  7  1  0  0  0  0
 14 19  1  0  0  0  0
 15 21  1  0  0  0  0
 15  4  1  0  0  0  0
 16 24  1  0  0  0  0
 16 13  1  0  0  0  0
 17  6  1  0  0  0  0
 17 12  1  0  0  0  0
 19 15  1  0  0  0  0
 21 17  1  0  0  0  0
 23  3  1  0  0  0  0
 23 22  1  0  0  0  0
 24 25  1  0  0  0  0
 26 32  2  0  0  0  0
 28 27  2  0  0  0  0
 29 31  1  0  0  0  0
 30 33  1  0  0  0  0
 30 31  2  0  0  0  0
 31 28  1  0  0  0  0
 32 27  1  0  0  0  0
 32 25  1  0  0  0  0
 33 26  1  0  0  0  0
 36 35  1  0  0  0  0
 36 34  1  0  0  0  0
 37 36  2  0  0  0  0
M  END
>  <MODEL>
7

>  <REMARK>
 VINA RESULT:      -7.9      2.470      6.694
  Name = 
  6 active torsions:
  status: ('A' for Active; 'I' for Inactive)
    1  A    between atoms: C_5  and  O_23
    2  A    between atoms: C_20  and  C_25
    3  A    between atoms: C_21  and  C_25
    4  A    between atoms: C_22  and  C_28
    5  A    between atoms: C_22  and  C_37
    6  A    between atoms: C_31  and  C_37
                            x       y       z     vdW  Elec       q    Type
                         _______ _______ _______ _____ _____    ______ ____

>  <TORSDO>
F 6

$$$$
=
 OpenBabel11052419533D

 37 42  0  0  1  0  0  0  0  0999 V2000
  192.6090  172.6680  141.5950 C   0  0  0  0  0  2  0  0  0  0  0  0
  190.8700  174.4710  145.7290 C   0  0  1  0  0  3  0  0  0  0  0  0
  192.5650  172.4850  140.0590 C   0  0  1  0  0  0  0  0  0  0  0  0
  189.2330  174.1550  142.5910 O   0  0  0  0  0  0  0  0  0  0  0  0
  192.9040  175.9660  146.2060 C   0  0  1  0  0  3  0  0  0  0  0  0
  190.5830  174.4500  144.2470 C   0  0  2  0  0  3  0  0  0  0  0  0
  191.3270  171.7640  139.5190 C   0  0  2  0  0  3  0  0  0  0  0  0
  192.4190  174.5710  145.7930 C   0  0  2  0  0  3  0  0  0  0  0  0
  189.4100  173.7940  143.8610 O   0  0  0  0  0  0  0  0  0  0  0  0
  192.2920  176.4140  147.5380 C   0  0  0  0  0  2  0  0  0  0  0  0
  192.0810  173.7640  139.3910 C   0  0  0  0  0  2  0  0  0  0  0  0
  192.9260  174.2250  144.3840 C   0  0  2  0  0  3  0  0  0  0  0  0
  190.8420  175.9590  147.7420 C   0  0  0  0  0  2  0  0  0  0  0  0
  190.7090  173.1280  139.2070 C   0  0  2  0  0  3  0  0  0  0  0  0
  190.1290  173.4030  141.7810 C   0  0  1  0  0  3  0  0  0  0  0  0
  190.1510  175.6400  146.4230 C   0  0  2  0  0  3  0  0  0  0  0  0
  191.7090  173.6550  143.6870 C   0  0  2  0  0  3  0  0  0  0  0  0
  194.2960  175.9830  146.3100 O   0  0  0  0  0  1  0  0  0  0  0  0
  189.7760  173.6950  140.3030 C   0  0  0  0  0  2  0  0  0  0  0  0
  190.5790  170.8390  140.4810 C   0  0  0  0  0  1  0  0  0  0  0  0
  191.6180  173.7050  142.1670 C   0  0  1  0  0  3  0  0  0  0  0  0
  194.7850  172.9640  139.8460 C   0  0  0  0  0  1  0  0  0  0  0  0
  193.7800  172.0520  139.4890 O   0  0  0  0  0  0  0  0  0  0  0  0
  188.7010  175.2830  146.6980 C   0  0  0  0  0  2  0  0  0  0  0  0
  187.8840  176.5480  146.8910 C   0  0  0  0  0  2  0  0  0  0  0  0
  186.0590  176.9340  145.3420 C   0  0  0  0  0  3  0  0  0  0  0  0
  188.3390  177.6090  144.6280 C   0  0  0  0  0  3  0  0  0  0  0  0
  188.2700  177.5520  143.2920 C   0  0  0  0  0  3  0  0  0  0  0  0
  187.5630  176.3510  141.2690 O   0  0  0  0  0  1  0  0  0  0  0  0
  185.9340  176.8310  142.8750 C   0  0  0  0  0  3  0  0  0  0  0  0
  187.2110  176.8990  142.4940 C   0  0  0  0  0  0  0  0  0  0  0  0
  187.3690  177.0300  145.5820 C   0  0  0  0  0  0  0  0  0  0  0  0
  185.4050  177.4740  144.1140 C   0  0  0  0  0  2  0  0  0  0  0  0
  194.1060  173.2460  144.4190 C   0  0  0  0  0  2  0  0  0  0  0  0
  196.4250  172.9100  143.5420 O   0  0  0  0  0  1  0  0  0  0  0  0
  195.3120  173.7310  143.6740 C   0  0  0  0  0  0  0  0  0  0  0  0
  195.3190  174.9400  143.1350 C   0  0  0  0  0  2  0  0  0  0  0  0
  1 21  1  0  0  0  0
  2  8  1  0  0  0  0
  2 16  1  0  0  0  0
  3  1  1  0  0  0  0
  4  9  1  0  0  0  0
  5 18  1  0  0  0  0
  5 10  1  0  0  0  0
  6  2  1  0  0  0  0
  7  3  1  0  0  0  0
  7 20  1  0  0  0  0
  8  5  1  0  0  0  0
  9  6  1  0  0  0  0
 10 13  1  0  0  0  0
 11  3  1  0  0  0  0
 12 34  1  0  0  0  0
 12  8  1  0  0  0  0
 14 11  1  0  0  0  0
 14  7  1  0  0  0  0
 14 19  1  0  0  0  0
 15 21  1  0  0  0  0
 15  4  1  0  0  0  0
 16 24  1  0  0  0  0
 16 13  1  0  0  0  0
 17  6  1  0  0  0  0
 17 12  1  0  0  0  0
 19 15  1  0  0  0  0
 21 17  1  0  0  0  0
 23 22  1  0  0  0  0
 23  3  1  0  0  0  0
 24 25  1  0  0  0  0
 26 32  2  0  0  0  0
 27 32  1  0  0  0  0
 28 27  2  0  0  0  0
 29 31  1  0  0  0  0
 30 33  1  0  0  0  0
 31 30  2  0  0  0  0
 31 28  1  0  0  0  0
 32 25  1  0  0  0  0
 33 26  1  0  0  0  0
 35 36  1  0  0  0  0
 36 34  1  0  0  0  0
 37 36  2  0  0  0  0
M  END
>  <MODEL>
8

>  <REMARK>
 VINA RESULT:      -7.8      2.248      6.055
  Name = 
  6 active torsions:
  status: ('A' for Active; 'I' for Inactive)
    1  A    between atoms: C_5  and  O_23
    2  A    between atoms: C_20  and  C_25
    3  A    between atoms: C_21  and  C_25
    4  A    between atoms: C_22  and  C_28
    5  A    between atoms: C_22  and  C_37
    6  A    between atoms: C_31  and  C_37
                            x       y       z     vdW  Elec       q    Type
                         _______ _______ _______ _____ _____    ______ ____

>  <TORSDO>
F 6

$$$$
=
 OpenBabel11052419533D

 37 42  0  0  1  0  0  0  0  0999 V2000
  187.6110  177.6330  145.2430 C   0  0  0  0  0  2  0  0  0  0  0  0
  189.9480  174.7950  142.1030 C   0  0  1  0  0  3  0  0  0  0  0  0
  186.3180  178.2520  145.8230 C   0  0  1  0  0  0  0  0  0  0  0  0
  186.6400  176.0750  141.8920 O   0  0  0  0  0  0  0  0  0  0  0  0
  190.7950  173.1360  143.8740 C   0  0  1  0  0  3  0  0  0  0  0  0
  188.5540  175.2550  142.4550 C   0  0  2  0  0  3  0  0  0  0  0  0
  185.5350  179.1530  144.8650 C   0  0  2  0  0  3  0  0  0  0  0  0
  190.6250  174.6110  143.4890 C   0  0  2  0  0  3  0  0  0  0  0  0
  187.9120  176.0460  141.4970 O   0  0  0  0  0  0  0  0  0  0  0  0
  191.5630  172.3510  142.8040 C   0  0  0  0  0  2  0  0  0  0  0  0
  185.1800  177.2430  145.7650 C   0  0  0  0  0  2  0  0  0  0  0  0
  189.7170  175.3260  144.5040 C   0  0  2  0  0  3  0  0  0  0  0  0
  191.2590  172.7930  141.3680 C   0  0  0  0  0  2  0  0  0  0  0  0
  184.6240  177.9660  144.5450 C   0  0  2  0  0  3  0  0  0  0  0  0
  186.5260  176.9880  142.9770 C   0  0  1  0  0  3  0  0  0  0  0  0
  189.9190  173.5100  141.2610 C   0  0  2  0  0  3  0  0  0  0  0  0
  188.7650  176.1260  143.6420 C   0  0  2  0  0  3  0  0  0  0  0  0
  191.4640  173.0270  145.0930 O   0  0  0  0  0  1  0  0  0  0  0  0
  185.0210  177.1500  143.2930 C   0  0  0  0  0  2  0  0  0  0  0  0
  186.3100  179.7940  143.7120 C   0  0  0  0  0  1  0  0  0  0  0  0
  187.4000  176.5200  144.1920 C   0  0  1  0  0  3  0  0  0  0  0  0
  185.9110  177.8540  148.0320 C   0  0  0  0  0  1  0  0  0  0  0  0
  186.4560  178.7760  147.1250 O   0  0  0  0  0  0  0  0  0  0  0  0
  189.6480  173.8360  139.8030 C   0  0  0  0  0  2  0  0  0  0  0  0
  189.0830  172.6180  139.0950 C   0  0  0  0  0  2  0  0  0  0  0  0
  189.3030  172.6870  136.6810 C   0  0  0  0  0  3  0  0  0  0  0  0
  191.1890  171.7320  137.9840 C   0  0  0  0  0  3  0  0  0  0  0  0
  191.7710  170.8990  137.1130 C   0  0  0  0  0  3  0  0  0  0  0  0
  191.5500  169.1510  135.4010 O   0  0  0  0  0  1  0  0  0  0  0  0
  190.3810  171.1480  135.0750 C   0  0  0  0  0  3  0  0  0  0  0  0
  191.1970  170.4200  135.8390 C   0  0  0  0  0  0  0  0  0  0  0  0
  189.8510  172.3460  137.8510 C   0  0  0  0  0  0  0  0  0  0  0  0
  190.0120  172.5630  135.3740 C   0  0  0  0  0  2  0  0  0  0  0  0
  190.5160  176.1990  145.4790 C   0  0  0  0  0  2  0  0  0  0  0  0
  191.1750  176.3490  147.8880 O   0  0  0  0  0  1  0  0  0  0  0  0
  190.3410  175.8120  146.9150 C   0  0  0  0  0  0  0  0  0  0  0  0
  189.3880  174.9610  147.2630 C   0  0  0  0  0  2  0  0  0  0  0  0
  1  3  1  0  0  0  0
  2  6  1  0  0  0  0
  2  8  1  0  0  0  0
  3 23  1  0  0  0  0
  4 15  1  0  0  0  0
  5 18  1  0  0  0  0
  6 17  1  0  0  0  0
  7  3  1  0  0  0  0
  8  5  1  0  0  0  0
  8 12  1  0  0  0  0
  9  4  1  0  0  0  0
  9  6  1  0  0  0  0
 10  5  1  0  0  0  0
 11  3  1  0  0  0  0
 12 34  1  0  0  0  0
 13 10  1  0  0  0  0
 14  7  1  0  0  0  0
 14 11  1  0  0  0  0
 15 19  1  0  0  0  0
 15 21  1  0  0  0  0
 16 13  1  0  0  0  0
 16  2  1  0  0  0  0
 17 21  1  0  0  0  0
 17 12  1  0  0  0  0
 19 14  1  0  0  0  0
 20  7  1  0  0  0  0
 21  1  1  0  0  0  0
 23 22  1  0  0  0  0
 24 16  1  0  0  0  0
 25 24  1  0  0  0  0
 26 32  2  0  0  0  0
 28 27  2  0  0  0  0
 29 31  1  0  0  0  0
 30 33  1  0  0  0  0
 30 31  2  0  0  0  0
 31 28  1  0  0  0  0
 32 27  1  0  0  0  0
 32 25  1  0  0  0  0
 33 26  1  0  0  0  0
 34 36  1  0  0  0  0
 36 37  2  0  0  0  0
 36 35  1  0  0  0  0
M  END
>  <MODEL>
9

>  <REMARK>
 VINA RESULT:      -7.6      2.360      8.379
  Name = 
  6 active torsions:
  status: ('A' for Active; 'I' for Inactive)
    1  A    between atoms: C_5  and  O_23
    2  A    between atoms: C_20  and  C_25
    3  A    between atoms: C_21  and  C_25
    4  A    between atoms: C_22  and  C_28
    5  A    between atoms: C_22  and  C_37
    6  A    between atoms: C_31  and  C_37
                            x       y       z     vdW  Elec       q    Type
                         _______ _______ _______ _____ _____    ______ ____

>  <TORSDO>
F 6

$$$$
