=
 OpenBabel11052420193D

 34 39  0  0  1  0  0  0  0  0999 V2000
  187.2400  177.5830  144.2310 C   0  0  1  0  0  3  0  0  0  0  0  0
  184.7530  178.0770  141.5320 C   0  0  0  0  0  3  0  0  0  0  0  0
  184.4800  178.2540  143.8710 C   0  0  0  0  0  3  0  0  0  0  0  0
  186.8500  177.9650  146.7110 C   0  0  0  0  0  3  0  0  0  0  0  0
  184.5880  178.5300  147.4750 C   0  0  0  0  0  3  0  0  0  0  0  0
  185.9770  178.0910  147.7180 C   0  0  0  0  0  3  0  0  0  0  0  0
  184.9940  178.3830  145.0870 C   0  0  0  0  0  0  0  0  0  0  0  0
  186.4900  178.3590  145.2970 C   0  0  2  0  0  3  0  0  0  0  0  0
  184.1150  178.6560  146.2330 C   0  0  0  0  0  3  0  0  0  0  0  0
  185.2670  177.8550  140.1780 C   0  0  0  0  0  3  0  0  0  0  0  0
  186.4030  177.2900  139.7810 C   0  0  0  0  0  0  0  0  0  0  0  0
  187.4190  176.6890  140.6480 C   0  0  0  0  0  3  0  0  0  0  0  0
  185.3340  177.9260  142.7210 C   0  0  1  0  0  3  0  0  0  0  0  0
  187.5540  176.7650  141.9660 C   0  0  0  0  0  3  0  0  0  0  0  0
  186.7290  177.4600  142.9760 C   0  0  0  0  0  0  0  0  0  0  0  0
  186.6260  177.1740  138.3140 C   0  0  0  0  0  2  0  0  0  0  0  0
  186.9690  175.8610  137.9900 O   0  0  0  0  0  1  0  0  0  0  0  0
  188.6480  177.1470  144.5490 C   0  0  0  0  0  2  0  0  0  0  0  0
  191.8150  173.2690  144.9230 C   0  0  0  0  0  2  0  0  0  0  0  0
  191.2240  176.1140  144.8570 N   0  0  0  0  0  0  0  0  0  0  0  0
  195.2460  174.9930  144.5140 C   0  0  2  0  0  0  0  0  0  0  0  0
  188.7280  175.6280  144.6350 C   0  0  2  0  0  3  0  0  0  0  0  0
  195.4320  175.2720  143.1560 O   0  0  0  0  0  1  0  0  0  0  0  0
  194.1430  173.9770  144.6590 C   0  0  0  0  0  3  0  0  0  0  0  0
  192.8590  174.3320  144.7460 C   0  0  0  0  0  0  0  0  0  0  0  0
  189.2080  175.2230  146.0290 C   0  0  0  0  0  2  0  0  0  0  0  0
  193.5300  176.8320  144.7700 C   0  0  0  0  0  2  0  0  0  0  0  0
  192.4760  175.7660  144.8270 C   0  0  0  0  0  0  0  0  0  0  0  0
  194.8790  176.2900  145.2470 C   0  0  0  0  0  2  0  0  0  0  0  0
  190.1460  175.1250  144.8530 C   0  0  2  0  0  0  0  0  0  0  0  0
  190.4700  173.7210  144.3560 C   0  0  0  0  0  2  0  0  0  0  0  0
  196.5080  174.4290  145.0980 C   0  0  0  0  0  0  0  0  0  0  0  0
  197.7170  174.5920  144.4290 O   0  0  0  0  0  0  0  0  0  0  0  0
  196.4940  173.8340  146.2090 O   0  0  0  0  0  1  0  0  0  0  0  0
  1 18  1  6  0  0  0
  1  8  1  0  0  0  0
  3  7  2  0  0  0  0
  4  6  2  0  0  0  0
  5  6  1  0  0  0  0
  7  8  1  0  0  0  0
  7  9  1  0  0  0  0
  8  4  1  1  0  0  0
  9  5  2  0  0  0  0
 10  2  2  0  0  0  0
 11 10  1  0  0  0  0
 11 12  2  0  0  0  0
 12 14  1  0  0  0  0
 13  2  1  1  0  0  0
 13 15  1  0  0  0  0
 13  3  1  0  0  0  0
 14 15  2  0  0  0  0
 15  1  1  0  0  0  0
 16 11  1  0  0  0  0
 17 16  1  0  0  0  0
 21 23  1  6  0  0  0
 21 24  1  0  0  0  0
 21 32  1  0  0  0  0
 21 29  1  0  0  0  0
 22 18  1  1  0  0  0
 22 30  1  0  0  0  0
 22 26  1  0  0  0  0
 24 25  2  0  0  0  0
 25 28  1  0  0  0  0
 25 19  1  0  0  0  0
 27 28  1  0  0  0  0
 27 29  1  0  0  0  0
 28 20  2  0  0  0  0
 30 31  1  6  0  0  0
 30 20  1  0  0  0  0
 30 26  1  0  0  0  0
 31 19  1  0  0  0  0
 32 34  1  0  0  0  0
 33 32  2  0  0  0  0
M  END
>  <MODEL>
1

>  <REMARK>
 VINA RESULT:      -9.4      0.000      0.000
  Name = 
  4 active torsions:
  status: ('A' for Active; 'I' for Inactive)
    1  A    between atoms: C_1  and  C_9
    2  A    between atoms: C_3  and  C_25
    3  A    between atoms: C_7  and  C_11
    4  A    between atoms: C_8  and  C_9
                            x       y       z     vdW  Elec       q    Type
                         _______ _______ _______ _____ _____    ______ ____

>  <TORSDO>
F 4

$$$$
=
 OpenBabel11052420193D

 34 39  0  0  1  0  0  0  0  0999 V2000
  187.2440  176.8920  144.3150 C   0  0  1  0  0  3  0  0  0  0  0  0
  185.1190  178.2160  141.5860 C   0  0  0  0  0  3  0  0  0  0  0  0
  184.7780  178.2940  143.9210 C   0  0  0  0  0  3  0  0  0  0  0  0
  186.8360  177.1880  146.8040 C   0  0  0  0  0  3  0  0  0  0  0  0
  184.7630  178.2760  147.5380 C   0  0  0  0  0  3  0  0  0  0  0  0
  185.9740  177.4690  147.7890 C   0  0  0  0  0  3  0  0  0  0  0  0
  185.2430  178.1960  145.1600 C   0  0  0  0  0  0  0  0  0  0  0  0
  186.6670  177.7620  145.4160 C   0  0  2  0  0  3  0  0  0  0  0  0
  184.4060  178.6100  146.2950 C   0  0  0  0  0  3  0  0  0  0  0  0
  185.6290  177.9620  140.2360 C   0  0  0  0  0  3  0  0  0  0  0  0
  186.5960  177.1460  139.8310 C   0  0  0  0  0  0  0  0  0  0  0  0
  187.3720  176.2380  140.6790 C   0  0  0  0  0  3  0  0  0  0  0  0
  185.5770  177.8330  142.7770 C   0  0  1  0  0  3  0  0  0  0  0  0
  187.4530  176.1820  142.0020 C   0  0  0  0  0  3  0  0  0  0  0  0
  186.7860  176.9970  143.0380 C   0  0  0  0  0  0  0  0  0  0  0  0
  186.8590  177.0790  138.3680 C   0  0  0  0  0  2  0  0  0  0  0  0
  186.9500  175.7470  137.9640 O   0  0  0  0  0  1  0  0  0  0  0  0
  188.4690  176.0780  144.6420 C   0  0  0  0  0  2  0  0  0  0  0  0
  193.1810  176.3170  146.3600 C   0  0  0  0  0  2  0  0  0  0  0  0
  191.1060  175.1580  144.6880 N   0  0  0  0  0  0  0  0  0  0  0  0
  194.6750  172.9980  145.0720 C   0  0  2  0  0  0  0  0  0  0  0  0
  189.4160  176.8760  145.5310 C   0  0  2  0  0  3  0  0  0  0  0  0
  194.2140  171.9660  145.8970 O   0  0  0  0  0  1  0  0  0  0  0  0
  194.4590  174.3150  145.7690 C   0  0  0  0  0  3  0  0  0  0  0  0
  193.3150  174.9940  145.6660 C   0  0  0  0  0  0  0  0  0  0  0  0
  190.4640  177.5700  144.6610 C   0  0  0  0  0  2  0  0  0  0  0  0
  192.4200  173.2640  143.9610 C   0  0  0  0  0  2  0  0  0  0  0  0
  192.2410  174.5280  144.7490 C   0  0  0  0  0  0  0  0  0  0  0  0
  193.9040  172.9620  143.7460 C   0  0  0  0  0  2  0  0  0  0  0  0
  190.8460  176.3620  145.4780 C   0  0  2  0  0  0  0  0  0  0  0  0
  191.7220  176.6150  146.7000 C   0  0  0  0  0  2  0  0  0  0  0  0
  196.1410  172.8210  144.8030 C   0  0  0  0  0  0  0  0  0  0  0  0
  197.0770  173.4600  145.6090 O   0  0  0  0  0  1  0  0  0  0  0  0
  196.5390  172.0720  143.8710 O   0  0  0  0  0  0  0  0  0  0  0  0
  1 18  1  6  0  0  0
  1  8  1  0  0  0  0
  3  7  2  0  0  0  0
  4  6  2  0  0  0  0
  5  6  1  0  0  0  0
  7  8  1  0  0  0  0
  7  9  1  0  0  0  0
  8  4  1  1  0  0  0
  9  5  2  0  0  0  0
 10  2  2  0  0  0  0
 11 10  1  0  0  0  0
 11 12  2  0  0  0  0
 12 14  1  0  0  0  0
 13  2  1  6  0  0  0
 13 15  1  0  0  0  0
 13  3  1  0  0  0  0
 14 15  2  0  0  0  0
 15  1  1  0  0  0  0
 16 11  1  0  0  0  0
 17 16  1  0  0  0  0
 19 31  1  0  0  0  0
 20 28  2  0  0  0  0
 20 30  1  0  0  0  0
 21 24  1  0  0  0  0
 21 23  1  1  0  0  0
 22 18  1  6  0  0  0
 25 24  2  0  0  0  0
 25 19  1  0  0  0  0
 26 22  1  0  0  0  0
 27 28  1  0  0  0  0
 28 25  1  0  0  0  0
 29 27  1  0  0  0  0
 29 21  1  0  0  0  0
 30 26  1  6  0  0  0
 30 22  1  0  0  0  0
 30 31  1  0  0  0  0
 32 21  1  0  0  0  0
 32 33  1  0  0  0  0
 34 32  2  0  0  0  0
M  END
>  <MODEL>
2

>  <REMARK>
 VINA RESULT:      -8.9      1.194      1.886
  Name = 
  4 active torsions:
  status: ('A' for Active; 'I' for Inactive)
    1  A    between atoms: C_1  and  C_9
    2  A    between atoms: C_3  and  C_25
    3  A    between atoms: C_7  and  C_11
    4  A    between atoms: C_8  and  C_9
                            x       y       z     vdW  Elec       q    Type
                         _______ _______ _______ _____ _____    ______ ____

>  <TORSDO>
F 4

$$$$
=
 OpenBabel11052420193D

 34 39  0  0  1  0  0  0  0  0999 V2000
  188.3810  176.2430  145.0990 C   0  0  1  0  0  3  0  0  0  0  0  0
  187.0630  176.5190  141.6500 C   0  0  0  0  0  3  0  0  0  0  0  0
  186.3230  177.5800  143.6250 C   0  0  0  0  0  3  0  0  0  0  0  0
  187.5890  177.5710  147.1140 C   0  0  0  0  0  3  0  0  0  0  0  0
  185.6480  179.0500  146.8600 C   0  0  0  0  0  3  0  0  0  0  0  0
  186.6270  178.3100  147.6800 C   0  0  0  0  0  3  0  0  0  0  0  0
  186.5290  177.9570  144.8800 C   0  0  0  0  0  0  0  0  0  0  0  0
  187.7810  177.5370  145.6150 C   0  0  2  0  0  3  0  0  0  0  0  0
  185.5890  178.8760  145.5370 C   0  0  0  0  0  3  0  0  0  0  0  0
  187.7550  175.6870  140.6620 C   0  0  0  0  0  3  0  0  0  0  0  0
  188.6170  174.6910  140.8420 C   0  0  0  0  0  0  0  0  0  0  0  0
  189.0490  174.1450  142.1300 C   0  0  0  0  0  3  0  0  0  0  0  0
  187.2200  176.6190  142.9690 C   0  0  1  0  0  3  0  0  0  0  0  0
  188.8760  174.6300  143.3520 C   0  0  0  0  0  3  0  0  0  0  0  0
  188.1900  175.8560  143.8090 C   0  0  0  0  0  0  0  0  0  0  0  0
  189.1240  174.0060  139.6220 C   0  0  0  0  0  2  0  0  0  0  0  0
  188.3020  174.3040  138.5350 O   0  0  0  0  0  1  0  0  0  0  0  0
  189.3600  175.5260  145.9940 C   0  0  0  0  0  2  0  0  0  0  0  0
  194.3680  175.8830  146.0200 C   0  0  0  0  0  2  0  0  0  0  0  0
  191.8880  174.5100  145.3790 N   0  0  0  0  0  0  0  0  0  0  0  0
  195.4330  172.3050  145.0330 C   0  0  2  0  0  0  0  0  0  0  0  0
  190.5270  176.4400  146.3470 C   0  0  2  0  0  3  0  0  0  0  0  0
  195.2860  171.4830  146.1550 O   0  0  0  0  0  1  0  0  0  0  0  0
  195.4270  173.7440  145.4750 C   0  0  0  0  0  3  0  0  0  0  0  0
  194.2970  174.4420  145.6070 C   0  0  0  0  0  0  0  0  0  0  0  0
  191.2220  176.8950  145.0640 C   0  0  0  0  0  2  0  0  0  0  0  0
  192.9350  172.4490  144.6740 C   0  0  0  0  0  2  0  0  0  0  0  0
  192.9950  173.8520  145.2010 C   0  0  0  0  0  0  0  0  0  0  0  0
  194.2750  172.0390  144.0610 C   0  0  0  0  0  2  0  0  0  0  0  0
  191.8730  175.8600  145.9450 C   0  0  2  0  0  0  0  0  0  0  0  0
  193.0920  176.3110  146.7410 C   0  0  0  0  0  2  0  0  0  0  0  0
  196.7360  172.0090  144.3500 C   0  0  0  0  0  0  0  0  0  0  0  0
  197.5330  170.9610  144.7980 O   0  0  0  0  0  1  0  0  0  0  0  0
  197.1050  172.6800  143.3490 O   0  0  0  0  0  0  0  0  0  0  0  0
  1  8  1  0  0  0  0
  1 18  1  6  0  0  0
  3  7  2  0  0  0  0
  4  6  2  0  0  0  0
  5  6  1  0  0  0  0
  7  9  1  0  0  0  0
  7  8  1  0  0  0  0
  8  4  1  1  0  0  0
  9  5  2  0  0  0  0
 10 11  1  0  0  0  0
 10  2  2  0  0  0  0
 11 12  2  0  0  0  0
 12 14  1  0  0  0  0
 13  2  1  1  0  0  0
 13  3  1  0  0  0  0
 13 15  1  0  0  0  0
 14 15  2  0  0  0  0
 15  1  1  0  0  0  0
 16 11  1  0  0  0  0
 17 16  1  0  0  0  0
 19 31  1  0  0  0  0
 20 30  1  0  0  0  0
 21 24  1  0  0  0  0
 21 23  1  1  0  0  0
 22 18  1  6  0  0  0
 24 25  2  0  0  0  0
 25 19  1  0  0  0  0
 26 22  1  0  0  0  0
 27 28  1  0  0  0  0
 28 20  2  0  0  0  0
 28 25  1  0  0  0  0
 29 27  1  0  0  0  0
 29 21  1  0  0  0  0
 30 26  1  6  0  0  0
 30 22  1  0  0  0  0
 30 31  1  0  0  0  0
 32 33  1  0  0  0  0
 32 21  1  0  0  0  0
 34 32  2  0  0  0  0
M  END
>  <MODEL>
3

>  <REMARK>
 VINA RESULT:      -8.5      1.738      2.839
  Name = 
  4 active torsions:
  status: ('A' for Active; 'I' for Inactive)
    1  A    between atoms: C_1  and  C_9
    2  A    between atoms: C_3  and  C_25
    3  A    between atoms: C_7  and  C_11
    4  A    between atoms: C_8  and  C_9
                            x       y       z     vdW  Elec       q    Type
                         _______ _______ _______ _____ _____    ______ ____

>  <TORSDO>
F 4

$$$$
=
 OpenBabel11052420193D

 34 39  0  0  1  0  0  0  0  0999 V2000
  192.0350  174.5140  144.5640 C   0  0  1  0  0  3  0  0  0  0  0  0
  193.0480  174.6770  141.0060 C   0  0  0  0  0  3  0  0  0  0  0  0
  193.8720  175.8930  142.8550 C   0  0  0  0  0  3  0  0  0  0  0  0
  193.1210  175.7690  146.4870 C   0  0  0  0  0  3  0  0  0  0  0  0
  194.8840  177.4000  145.9830 C   0  0  0  0  0  3  0  0  0  0  0  0
  193.8890  176.7890  146.8880 C   0  0  0  0  0  3  0  0  0  0  0  0
  194.0090  176.0510  144.1650 C   0  0  0  0  0  0  0  0  0  0  0  0
  193.3020  175.1280  145.1300 C   0  0  2  0  0  3  0  0  0  0  0  0
  194.9350  177.0640  144.6920 C   0  0  0  0  0  3  0  0  0  0  0  0
  192.2960  173.7900  140.1140 C   0  0  0  0  0  3  0  0  0  0  0  0
  191.1720  173.1170  140.3350 C   0  0  0  0  0  0  0  0  0  0  0  0
  190.3690  173.1510  141.5590 C   0  0  0  0  0  3  0  0  0  0  0  0
  192.9110  174.9260  142.3070 C   0  0  1  0  0  3  0  0  0  0  0  0
  190.6710  173.6490  142.7510 C   0  0  0  0  0  3  0  0  0  0  0  0
  191.8930  174.3320  143.2230 C   0  0  0  0  0  0  0  0  0  0  0  0
  190.6260  172.3200  139.2020 C   0  0  0  0  0  2  0  0  0  0  0  0
  189.2820  172.0270  139.4340 O   0  0  0  0  0  1  0  0  0  0  0  0
  191.0520  173.9250  145.5430 C   0  0  0  0  0  2  0  0  0  0  0  0
  187.8370  177.6300  146.6120 C   0  0  0  0  0  2  0  0  0  0  0  0
  188.8060  175.4690  144.9290 N   0  0  0  0  0  0  0  0  0  0  0  0
  185.9400  178.0370  143.2730 C   0  0  2  0  0  0  0  0  0  0  0  0
  190.6690  174.9560  146.5980 C   0  0  2  0  0  3  0  0  0  0  0  0
  186.7660  178.7380  142.3880 O   0  0  0  0  0  1  0  0  0  0  0  0
  186.4600  178.2170  144.6750 C   0  0  0  0  0  3  0  0  0  0  0  0
  187.3890  177.4140  145.1970 C   0  0  0  0  0  0  0  0  0  0  0  0
  189.3170  174.5820  147.2060 C   0  0  0  0  0  2  0  0  0  0  0  0
  187.3290  175.9340  143.0740 C   0  0  0  0  0  2  0  0  0  0  0  0
  187.8630  176.2210  144.4460 C   0  0  0  0  0  0  0  0  0  0  0  0
  185.9410  176.5510  142.8890 C   0  0  0  0  0  2  0  0  0  0  0  0
  189.4120  175.7310  146.2350 C   0  0  2  0  0  0  0  0  0  0  0  0
  189.2650  177.1310  146.8200 C   0  0  0  0  0  2  0  0  0  0  0  0
  184.5400  178.5710  143.1990 C   0  0  0  0  0  0  0  0  0  0  0  0
  184.0650  179.4160  144.1960 O   0  0  0  0  0  1  0  0  0  0  0  0
  183.7950  178.2900  142.2220 O   0  0  0  0  0  0  0  0  0  0  0  0
  1  8  1  0  0  0  0
  1 18  1  1  0  0  0
  3  7  2  0  0  0  0
  4  6  2  0  0  0  0
  5  6  1  0  0  0  0
  7  9  1  0  0  0  0
  7  8  1  0  0  0  0
  8  4  1  1  0  0  0
  9  5  2  0  0  0  0
 10 11  1  0  0  0  0
 10  2  2  0  0  0  0
 11 12  2  0  0  0  0
 12 14  1  0  0  0  0
 13  2  1  6  0  0  0
 13  3  1  0  0  0  0
 13 15  1  0  0  0  0
 14 15  2  0  0  0  0
 15  1  1  0  0  0  0
 16 17  1  0  0  0  0
 16 11  1  0  0  0  0
 19 31  1  0  0  0  0
 20 30  1  0  0  0  0
 21 23  1  6  0  0  0
 21 24  1  0  0  0  0
 22 18  1  6  0  0  0
 22 26  1  0  0  0  0
 24 25  2  0  0  0  0
 25 19  1  0  0  0  0
 27 28  1  0  0  0  0
 28 20  2  0  0  0  0
 28 25  1  0  0  0  0
 29 27  1  0  0  0  0
 29 21  1  0  0  0  0
 30 22  1  0  0  0  0
 30 31  1  1  0  0  0
 30 26  1  0  0  0  0
 32 21  1  0  0  0  0
 32 33  1  0  0  0  0
 34 32  2  0  0  0  0
M  END
>  <MODEL>
4

>  <REMARK>
 VINA RESULT:      -8.3      3.459      7.900
  Name = 
  4 active torsions:
  status: ('A' for Active; 'I' for Inactive)
    1  A    between atoms: C_1  and  C_9
    2  A    between atoms: C_3  and  C_25
    3  A    between atoms: C_7  and  C_11
    4  A    between atoms: C_8  and  C_9
                            x       y       z     vdW  Elec       q    Type
                         _______ _______ _______ _____ _____    ______ ____

>  <TORSDO>
F 4

$$$$
=
 OpenBabel11052420193D

 34 39  0  0  1  0  0  0  0  0999 V2000
  194.1800  174.0120  143.9900 C   0  0  1  0  0  3  0  0  0  0  0  0
  197.2310  172.0630  144.7700 C   0  0  0  0  0  3  0  0  0  0  0  0
  196.9530  173.8810  143.2890 C   0  0  0  0  0  3  0  0  0  0  0  0
  194.0550  176.0570  142.4890 C   0  0  0  0  0  3  0  0  0  0  0  0
  196.0670  176.7430  141.2630 C   0  0  0  0  0  3  0  0  0  0  0  0
  194.6120  176.7880  141.5160 C   0  0  0  0  0  3  0  0  0  0  0  0
  196.2550  174.9240  142.8590 C   0  0  0  0  0  0  0  0  0  0  0  0
  194.8940  175.2320  143.4380 C   0  0  2  0  0  3  0  0  0  0  0  0
  196.8450  175.8540  141.8860 C   0  0  0  0  0  3  0  0  0  0  0  0
  197.0320  170.9720  145.7270 C   0  0  0  0  0  2  0  0  0  0  0  0
  195.9050  170.4310  146.1780 C   0  0  0  0  0  0  0  0  0  0  0  0
  194.5480  170.7880  145.7620 C   0  0  0  0  0  3  0  0  0  0  0  0
  196.3620  172.9080  144.2180 C   0  0  0  0  0  0  0  0  0  0  0  0
  194.1300  171.8290  145.0520 C   0  0  0  0  0  3  0  0  0  0  0  0
  194.8870  172.9440  144.4490 C   0  0  0  0  0  0  0  0  0  0  0  0
  196.0330  169.2930  147.1300 C   0  0  0  0  0  2  0  0  0  0  0  0
  194.7700  168.9120  147.5830 O   0  0  0  0  0  1  0  0  0  0  0  0
  192.6920  174.1160  144.2070 C   0  0  0  0  0  2  0  0  0  0  0  0
  189.2760  177.3500  145.9620 C   0  0  0  0  0  2  0  0  0  0  0  0
  190.1830  175.3360  144.0740 N   0  0  0  0  0  0  0  0  0  0  0  0
  186.7300  177.4810  143.0620 C   0  0  2  0  0  0  0  0  0  0  0  0
  192.3860  175.0890  145.3390 C   0  0  2  0  0  3  0  0  0  0  0  0
  187.2660  178.2860  142.0510 O   0  0  0  0  0  1  0  0  0  0  0  0
  187.4830  177.7370  144.3420 C   0  0  0  0  0  3  0  0  0  0  0  0
  188.5960  177.0690  144.6550 C   0  0  0  0  0  0  0  0  0  0  0  0
  191.2420  174.5360  146.1880 C   0  0  0  0  0  2  0  0  0  0  0  0
  188.3240  175.5870  142.5500 C   0  0  0  0  0  2  0  0  0  0  0  0
  189.0710  175.9500  143.7990 C   0  0  0  0  0  0  0  0  0  0  0  0
  186.8570  176.0090  142.6510 C   0  0  0  0  0  2  0  0  0  0  0  0
  190.9900  175.6830  145.2440 C   0  0  2  0  0  0  0  0  0  0  0  0
  190.7720  177.0520  145.8790 C   0  0  0  0  0  2  0  0  0  0  0  0
  185.2830  177.8190  143.2720 C   0  0  0  0  0  0  0  0  0  0  0  0
  184.4260  177.9160  142.1810 O   0  0  0  0  0  0  0  0  0  0  0  0
  184.8230  177.9850  144.4340 O   0  0  0  0  0  1  0  0  0  0  0  0
  1 18  1  1  0  0  0
  1 15  1  0  0  0  0
  2 10  1  0  0  0  0
  3 13  1  0  0  0  0
  5  6  1  0  0  0  0
  5  9  2  0  0  0  0
  6  4  2  0  0  0  0
  7  3  2  0  0  0  0
  7  8  1  0  0  0  0
  8  4  1  6  0  0  0
  8  1  1  0  0  0  0
  9  7  1  0  0  0  0
 10 11  1  0  0  0  0
 11 16  1  0  0  0  0
 12 11  2  0  0  0  0
 13 15  1  0  0  0  0
 13  2  2  0  0  0  0
 14 12  1  0  0  0  0
 15 14  2  0  0  0  0
 16 17  1  0  0  0  0
 20 30  1  0  0  0  0
 21 23  1  6  0  0  0
 21 32  1  0  0  0  0
 21 24  1  0  0  0  0
 22 18  1  6  0  0  0
 22 26  1  0  0  0  0
 24 25  2  0  0  0  0
 25 19  1  0  0  0  0
 27 29  1  0  0  0  0
 27 28  1  0  0  0  0
 28 20  2  0  0  0  0
 28 25  1  0  0  0  0
 29 21  1  0  0  0  0
 30 22  1  0  0  0  0
 30 31  1  1  0  0  0
 30 26  1  0  0  0  0
 31 19  1  0  0  0  0
 32 34  1  0  0  0  0
 33 32  2  0  0  0  0
M  END
>  <MODEL>
5

>  <REMARK>
 VINA RESULT:      -8.2      2.968     10.005
  Name = 
  4 active torsions:
  status: ('A' for Active; 'I' for Inactive)
    1  A    between atoms: C_1  and  C_9
    2  A    between atoms: C_3  and  C_25
    3  A    between atoms: C_7  and  C_11
    4  A    between atoms: C_8  and  C_9
                            x       y       z     vdW  Elec       q    Type
                         _______ _______ _______ _____ _____    ______ ____

>  <TORSDO>
F 4

$$$$
=
 OpenBabel11052420193D

 34 39  0  0  1  0  0  0  0  0999 V2000
  187.4610  177.5100  144.2630 C   0  0  1  0  0  3  0  0  0  0  0  0
  184.8590  177.9360  141.6620 C   0  0  0  0  0  3  0  0  0  0  0  0
  184.6780  178.1370  144.0080 C   0  0  0  0  0  3  0  0  0  0  0  0
  187.1660  177.9150  146.7530 C   0  0  0  0  0  3  0  0  0  0  0  0
  184.9280  178.4550  147.6020 C   0  0  0  0  0  3  0  0  0  0  0  0
  186.3330  178.0400  147.7930 C   0  0  0  0  0  3  0  0  0  0  0  0
  185.2390  178.2870  145.2010 C   0  0  0  0  0  0  0  0  0  0  0  0
  186.7430  178.2880  145.3500 C   0  0  2  0  0  3  0  0  0  0  0  0
  184.4040  178.5600  146.3790 C   0  0  0  0  0  3  0  0  0  0  0  0
  185.3210  177.7060  140.2910 C   0  0  0  0  0  3  0  0  0  0  0  0
  186.4480  177.1530  139.8550 C   0  0  0  0  0  0  0  0  0  0  0  0
  187.5070  176.5790  140.6860 C   0  0  0  0  0  3  0  0  0  0  0  0
  185.4900  177.8080  142.8280 C   0  0  1  0  0  3  0  0  0  0  0  0
  187.6950  176.6720  141.9960 C   0  0  0  0  0  3  0  0  0  0  0  0
  186.9010  177.3650  143.0310 C   0  0  0  0  0  0  0  0  0  0  0  0
  186.6120  177.0240  138.3810 C   0  0  0  0  0  2  0  0  0  0  0  0
  187.0680  175.7440  138.0660 O   0  0  0  0  0  1  0  0  0  0  0  0
  188.8860  177.1000  144.5280 C   0  0  0  0  0  2  0  0  0  0  0  0
  190.3720  172.3040  144.6220 C   0  0  0  0  0  2  0  0  0  0  0  0
  190.1990  174.9220  143.3710 N   0  0  0  0  0  0  0  0  0  0  0  0
  191.5230  171.7490  140.9780 C   0  0  2  0  0  0  0  0  0  0  0  0
  188.9270  175.8400  145.3850 C   0  0  2  0  0  3  0  0  0  0  0  0
  190.3830  171.5890  140.1830 O   0  0  0  0  0  1  0  0  0  0  0  0
  191.1430  171.5560  142.4230 C   0  0  0  0  0  3  0  0  0  0  0  0
  190.7000  172.5610  143.1810 C   0  0  0  0  0  0  0  0  0  0  0  0
  190.3730  175.5430  145.7830 C   0  0  0  0  0  2  0  0  0  0  0  0
  191.1210  174.2300  141.2470 C   0  0  0  0  0  2  0  0  0  0  0  0
  190.6800  173.9510  142.6540 C   0  0  0  0  0  0  0  0  0  0  0  0
  192.0940  173.1560  140.7580 C   0  0  0  0  0  2  0  0  0  0  0  0
  189.6960  174.7050  144.7290 C   0  0  2  0  0  0  0  0  0  0  0  0
  189.3150  173.2840  145.1280 C   0  0  0  0  0  2  0  0  0  0  0  0
  192.5550  170.7260  140.6030 C   0  0  0  0  0  0  0  0  0  0  0  0
  192.1700  169.4180  140.3290 O   0  0  0  0  0  0  0  0  0  0  0  0
  193.7700  171.0450  140.5020 O   0  0  0  0  0  1  0  0  0  0  0  0
  1 18  1  6  0  0  0
  1  8  1  0  0  0  0
  3  7  2  0  0  0  0
  4  6  2  0  0  0  0
  5  6  1  0  0  0  0
  7  8  1  0  0  0  0
  7  9  1  0  0  0  0
  8  4  1  1  0  0  0
  9  5  2  0  0  0  0
 10  2  2  0  0  0  0
 11 10  1  0  0  0  0
 11 12  2  0  0  0  0
 12 14  1  0  0  0  0
 13  2  1  1  0  0  0
 13 15  1  0  0  0  0
 13  3  1  0  0  0  0
 14 15  2  0  0  0  0
 15  1  1  0  0  0  0
 16 11  1  0  0  0  0
 17 16  1  0  0  0  0
 19 31  1  0  0  0  0
 20 30  1  0  0  0  0
 21 23  1  6  0  0  0
 21 24  1  0  0  0  0
 22 18  1  6  0  0  0
 22 26  1  0  0  0  0
 24 25  2  0  0  0  0
 25 19  1  0  0  0  0
 27 28  1  0  0  0  0
 28 25  1  0  0  0  0
 28 20  2  0  0  0  0
 29 21  1  0  0  0  0
 29 27  1  0  0  0  0
 30 31  1  1  0  0  0
 30 22  1  0  0  0  0
 30 26  1  0  0  0  0
 32 21  1  0  0  0  0
 33 32  2  0  0  0  0
 34 32  1  0  0  0  0
M  END
>  <MODEL>
6

>  <REMARK>
 VINA RESULT:      -8.2      2.767      3.317
  Name = 
  4 active torsions:
  status: ('A' for Active; 'I' for Inactive)
    1  A    between atoms: C_1  and  C_9
    2  A    between atoms: C_3  and  C_25
    3  A    between atoms: C_7  and  C_11
    4  A    between atoms: C_8  and  C_9
                            x       y       z     vdW  Elec       q    Type
                         _______ _______ _______ _____ _____    ______ ____

>  <TORSDO>
F 4

$$$$
=
 OpenBabel11052420193D

 34 39  0  0  1  0  0  0  0  0999 V2000
  189.1500  175.8900  144.4210 C   0  0  1  0  0  3  0  0  0  0  0  0
  186.5980  178.5140  144.9840 C   0  0  0  0  0  3  0  0  0  0  0  0
  188.3630  177.8160  146.3880 C   0  0  0  0  0  3  0  0  0  0  0  0
  191.1010  175.3480  145.9540 C   0  0  0  0  0  3  0  0  0  0  0  0
  191.2580  176.5020  148.1140 C   0  0  0  0  0  3  0  0  0  0  0  0
  191.6420  175.4280  147.1750 C   0  0  0  0  0  3  0  0  0  0  0  0
  189.5170  177.1850  146.5670 C   0  0  0  0  0  0  0  0  0  0  0  0
  190.1510  176.4040  145.4390 C   0  0  2  0  0  3  0  0  0  0  0  0
  190.2450  177.3260  147.8360 C   0  0  0  0  0  3  0  0  0  0  0  0
  185.6240  178.6630  143.8990 C   0  0  0  0  0  3  0  0  0  0  0  0
  185.3730  177.8660  142.8660 C   0  0  0  0  0  0  0  0  0  0  0  0
  186.0100  176.5760  142.5950 C   0  0  0  0  0  3  0  0  0  0  0  0
  187.5930  177.6430  145.1490 C   0  0  1  0  0  3  0  0  0  0  0  0
  187.0850  176.0330  143.1510 C   0  0  0  0  0  3  0  0  0  0  0  0
  187.9710  176.5390  144.2180 C   0  0  0  0  0  0  0  0  0  0  0  0
  184.2810  178.2780  141.9430 C   0  0  0  0  0  2  0  0  0  0  0  0
  184.6270  177.9620  140.6290 O   0  0  0  0  0  1  0  0  0  0  0  0
  189.5980  174.7790  143.5060 C   0  0  0  0  0  2  0  0  0  0  0  0
  194.3490  174.5380  141.8990 C   0  0  0  0  0  2  0  0  0  0  0  0
  192.1680  173.6910  143.6230 N   0  0  0  0  0  0  0  0  0  0  0  0
  196.0210  172.4110  144.6540 C   0  0  2  0  0  0  0  0  0  0  0  0
  190.5720  175.3100  142.4610 C   0  0  2  0  0  3  0  0  0  0  0  0
  196.2290  173.2310  145.7680 O   0  0  0  0  0  1  0  0  0  0  0  0
  195.7630  173.2780  143.4500 C   0  0  0  0  0  3  0  0  0  0  0  0
  194.5390  173.7050  143.1320 C   0  0  0  0  0  0  0  0  0  0  0  0
  190.9500  174.1830  141.5000 C   0  0  0  0  0  2  0  0  0  0  0  0
  193.5290  172.3040  145.0600 C   0  0  0  0  0  2  0  0  0  0  0  0
  193.3530  173.2350  143.8960 C   0  0  0  0  0  0  0  0  0  0  0  0
  194.8200  171.4950  144.9220 C   0  0  0  0  0  2  0  0  0  0  0  0
  191.9380  174.6470  142.5390 C   0  0  2  0  0  0  0  0  0  0  0  0
  193.1310  175.4500  142.0340 C   0  0  0  0  0  2  0  0  0  0  0  0
  197.2410  171.5740  144.4000 C   0  0  0  0  0  0  0  0  0  0  0  0
  197.6530  170.6420  145.3470 O   0  0  0  0  0  1  0  0  0  0  0  0
  197.8820  171.6820  143.3210 O   0  0  0  0  0  0  0  0  0  0  0  0
  1 18  1  6  0  0  0
  1  8  1  0  0  0  0
  3  7  2  0  0  0  0
  4  6  2  0  0  0  0
  6  5  1  0  0  0  0
  7  9  1  0  0  0  0
  8  4  1  1  0  0  0
  8  7  1  0  0  0  0
  9  5  2  0  0  0  0
 10  2  2  0  0  0  0
 11 10  1  0  0  0  0
 12 11  2  0  0  0  0
 12 14  1  0  0  0  0
 13  2  1  1  0  0  0
 13  3  1  0  0  0  0
 14 15  2  0  0  0  0
 15  1  1  0  0  0  0
 15 13  1  0  0  0  0
 16 11  1  0  0  0  0
 17 16  1  0  0  0  0
 19 31  1  0  0  0  0
 19 25  1  0  0  0  0
 20 28  2  0  0  0  0
 21 29  1  0  0  0  0
 21 23  1  1  0  0  0
 22 30  1  0  0  0  0
 22 18  1  1  0  0  0
 24 21  1  0  0  0  0
 25 24  2  0  0  0  0
 25 28  1  0  0  0  0
 26 22  1  0  0  0  0
 28 27  1  0  0  0  0
 29 27  1  0  0  0  0
 30 26  1  6  0  0  0
 30 20  1  0  0  0  0
 31 30  1  0  0  0  0
 32 21  1  0  0  0  0
 32 33  1  0  0  0  0
 34 32  2  0  0  0  0
M  END
>  <MODEL>
7

>  <REMARK>
 VINA RESULT:      -8.1      2.207      3.977
  Name = 
  4 active torsions:
  status: ('A' for Active; 'I' for Inactive)
    1  A    between atoms: C_1  and  C_9
    2  A    between atoms: C_3  and  C_25
    3  A    between atoms: C_7  and  C_11
    4  A    between atoms: C_8  and  C_9
                            x       y       z     vdW  Elec       q    Type
                         _______ _______ _______ _____ _____    ______ ____

>  <TORSDO>
F 4

$$$$
=
 OpenBabel11052420193D

 34 39  0  0  1  0  0  0  0  0999 V2000
  192.1490  173.8370  143.7260 C   0  0  1  0  0  3  0  0  0  0  0  0
  192.6900  174.0400  140.0680 C   0  0  0  0  0  3  0  0  0  0  0  0
  194.1540  174.6060  141.8320 C   0  0  0  0  0  3  0  0  0  0  0  0
  193.8760  174.3290  145.5230 C   0  0  0  0  0  3  0  0  0  0  0  0
  196.0640  175.2070  144.8440 C   0  0  0  0  0  3  0  0  0  0  0  0
  195.0300  174.9180  145.8580 C   0  0  0  0  0  3  0  0  0  0  0  0
  194.5050  174.5350  143.1100 C   0  0  0  0  0  0  0  0  0  0  0  0
  193.6150  173.8420  144.1160 C   0  0  2  0  0  3  0  0  0  0  0  0
  195.8150  175.0410  143.5430 C   0  0  0  0  0  3  0  0  0  0  0  0
  191.5420  173.6280  139.2560 C   0  0  0  0  0  3  0  0  0  0  0  0
  190.2800  173.4170  139.6130 C   0  0  0  0  0  0  0  0  0  0  0  0
  189.7170  173.6040  140.9520 C   0  0  0  0  0  3  0  0  0  0  0  0
  192.8270  174.1580  141.3880 C   0  0  1  0  0  3  0  0  0  0  0  0
  190.3380  173.7960  142.1080 C   0  0  0  0  0  3  0  0  0  0  0  0
  191.7800  173.8920  142.4180 C   0  0  0  0  0  0  0  0  0  0  0  0
  189.3250  173.0390  138.5360 C   0  0  0  0  0  2  0  0  0  0  0  0
  188.1950  172.4400  139.0930 O   0  0  0  0  0  1  0  0  0  0  0  0
  191.1430  173.5550  144.8120 C   0  0  0  0  0  2  0  0  0  0  0  0
  188.6280  177.6900  146.1490 C   0  0  0  0  0  2  0  0  0  0  0  0
  188.9840  175.3050  144.5280 N   0  0  0  0  0  0  0  0  0  0  0  0
  186.0990  178.0630  143.2560 C   0  0  2  0  0  0  0  0  0  0  0  0
  191.1050  174.7020  145.8140 C   0  0  2  0  0  3  0  0  0  0  0  0
  186.7780  178.5900  142.1520 O   0  0  0  0  0  1  0  0  0  0  0  0
  186.9280  178.2870  144.4930 C   0  0  0  0  0  3  0  0  0  0  0  0
  187.8630  177.4200  144.8880 C   0  0  0  0  0  0  0  0  0  0  0  0
  189.8880  174.5410  146.7260 C   0  0  0  0  0  2  0  0  0  0  0  0
  187.1920  175.7990  142.9840 C   0  0  0  0  0  2  0  0  0  0  0  0
  188.0390  176.1250  144.1780 C   0  0  0  0  0  0  0  0  0  0  0  0
  185.8670  176.5630  143.0320 C   0  0  0  0  0  2  0  0  0  0  0  0
  189.8840  175.5920  145.6460 C   0  0  2  0  0  0  0  0  0  0  0  0
  190.0100  177.0400  146.1040 C   0  0  0  0  0  2  0  0  0  0  0  0
  184.7770  178.7540  143.4210 C   0  0  0  0  0  0  0  0  0  0  0  0
  183.6660  178.3080  142.7140 O   0  0  0  0  0  0  0  0  0  0  0  0
  184.6520  179.7180  144.2230 O   0  0  0  0  0  1  0  0  0  0  0  0
  1  8  1  0  0  0  0
  1 18  1  6  0  0  0
  3  7  2  0  0  0  0
  4  6  2  0  0  0  0
  5  6  1  0  0  0  0
  7  9  1  0  0  0  0
  7  8  1  0  0  0  0
  8  4  1  1  0  0  0
  9  5  2  0  0  0  0
 10 11  1  0  0  0  0
 10  2  2  0  0  0  0
 11 12  2  0  0  0  0
 12 14  1  0  0  0  0
 13  2  1  6  0  0  0
 13  3  1  0  0  0  0
 13 15  1  0  0  0  0
 14 15  2  0  0  0  0
 15  1  1  0  0  0  0
 16 17  1  0  0  0  0
 16 11  1  0  0  0  0
 20 30  1  0  0  0  0
 21 23  1  6  0  0  0
 21 32  1  0  0  0  0
 21 24  1  0  0  0  0
 22 18  1  6  0  0  0
 22 26  1  0  0  0  0
 24 25  2  0  0  0  0
 25 19  1  0  0  0  0
 27 29  1  0  0  0  0
 27 28  1  0  0  0  0
 28 20  2  0  0  0  0
 28 25  1  0  0  0  0
 29 21  1  0  0  0  0
 30 22  1  0  0  0  0
 30 31  1  1  0  0  0
 30 26  1  0  0  0  0
 31 19  1  0  0  0  0
 32 34  1  0  0  0  0
 33 32  2  0  0  0  0
M  END
>  <MODEL>
8

>  <REMARK>
 VINA RESULT:      -8.0      3.692      8.078
  Name = 
  4 active torsions:
  status: ('A' for Active; 'I' for Inactive)
    1  A    between atoms: C_1  and  C_9
    2  A    between atoms: C_3  and  C_25
    3  A    between atoms: C_7  and  C_11
    4  A    between atoms: C_8  and  C_9
                            x       y       z     vdW  Elec       q    Type
                         _______ _______ _______ _____ _____    ______ ____

>  <TORSDO>
F 4

$$$$
=
 OpenBabel11052420193D

 34 39  0  0  1  0  0  0  0  0999 V2000
  191.7830  173.0940  143.0470 C   0  0  1  0  0  3  0  0  0  0  0  0
  195.4010  172.7780  142.3240 C   0  0  0  0  0  3  0  0  0  0  0  0
  193.5880  172.9890  140.8270 C   0  0  0  0  0  3  0  0  0  0  0  0
  189.9450  173.4780  141.3370 C   0  0  0  0  0  3  0  0  0  0  0  0
  190.5290  173.4580  138.9540 C   0  0  0  0  0  3  0  0  0  0  0  0
  189.5500  173.4160  140.0590 C   0  0  0  0  0  3  0  0  0  0  0  0
  192.3240  173.3090  140.5810 C   0  0  0  0  0  0  0  0  0  0  0  0
  191.3940  173.6940  141.7090 C   0  0  2  0  0  3  0  0  0  0  0  0
  191.8410  173.3930  139.1960 C   0  0  0  0  0  3  0  0  0  0  0  0
  196.2520  172.6360  143.5090 C   0  0  0  0  0  2  0  0  0  0  0  0
  195.9190  172.3740  144.7680 C   0  0  0  0  0  0  0  0  0  0  0  0
  194.5680  172.1080  145.2680 C   0  0  0  0  0  3  0  0  0  0  0  0
  194.0760  172.8450  142.2050 C   0  0  0  0  0  0  0  0  0  0  0  0
  193.3980  172.2810  144.6680 C   0  0  0  0  0  3  0  0  0  0  0  0
  193.0790  172.7790  143.3140 C   0  0  0  0  0  0  0  0  0  0  0  0
  197.0300  172.2510  145.7510 C   0  0  0  0  0  2  0  0  0  0  0  0
  197.1180  173.4160  146.5140 O   0  0  0  0  0  1  0  0  0  0  0  0
  190.7320  173.0640  144.1270 C   0  0  0  0  0  2  0  0  0  0  0  0
  188.9580  177.4650  145.7690 C   0  0  0  0  0  2  0  0  0  0  0  0
  188.8010  175.0830  144.1120 N   0  0  0  0  0  0  0  0  0  0  0  0
  186.1680  178.2130  143.2070 C   0  0  2  0  0  0  0  0  0  0  0  0
  190.9660  174.1890  145.1280 C   0  0  2  0  0  3  0  0  0  0  0  0
  186.7710  178.6680  142.0300 O   0  0  0  0  0  1  0  0  0  0  0  0
  187.1620  178.3060  144.3350 C   0  0  0  0  0  3  0  0  0  0  0  0
  188.0170  177.3190  144.6100 C   0  0  0  0  0  0  0  0  0  0  0  0
  189.8570  174.1700  146.1810 C   0  0  0  0  0  2  0  0  0  0  0  0
  186.9150  175.8320  142.8000 C   0  0  0  0  0  2  0  0  0  0  0  0
  187.9360  176.0250  143.8820 C   0  0  0  0  0  0  0  0  0  0  0  0
  185.7160  176.7590  143.0100 C   0  0  0  0  0  2  0  0  0  0  0  0
  189.8600  175.2320  145.1120 C   0  0  2  0  0  0  0  0  0  0  0  0
  190.2270  176.6430  145.5540 C   0  0  0  0  0  2  0  0  0  0  0  0
  184.9770  179.0660  143.5350 C   0  0  0  0  0  0  0  0  0  0  0  0
  183.7060  178.6700  143.1320 O   0  0  0  0  0  0  0  0  0  0  0  0
  185.1100  180.1260  144.2020 O   0  0  0  0  0  1  0  0  0  0  0  0
  1 15  1  0  0  0  0
  1 18  1  1  0  0  0
  2 10  1  0  0  0  0
  3 13  1  0  0  0  0
  5  9  2  0  0  0  0
  5  6  1  0  0  0  0
  6  4  2  0  0  0  0
  7  3  2  0  0  0  0
  7  8  1  0  0  0  0
  8  4  1  6  0  0  0
  8  1  1  0  0  0  0
  9  7  1  0  0  0  0
 10 11  1  0  0  0  0
 11 12  2  0  0  0  0
 11 16  1  0  0  0  0
 13  2  2  0  0  0  0
 13 15  1  0  0  0  0
 14 12  1  0  0  0  0
 15 14  2  0  0  0  0
 16 17  1  0  0  0  0
 20 30  1  0  0  0  0
 21 23  1  6  0  0  0
 21 32  1  0  0  0  0
 21 24  1  0  0  0  0
 22 18  1  6  0  0  0
 22 26  1  0  0  0  0
 24 25  2  0  0  0  0
 25 19  1  0  0  0  0
 27 29  1  0  0  0  0
 27 28  1  0  0  0  0
 28 20  2  0  0  0  0
 28 25  1  0  0  0  0
 29 21  1  0  0  0  0
 30 22  1  0  0  0  0
 30 31  1  1  0  0  0
 30 26  1  0  0  0  0
 31 19  1  0  0  0  0
 32 34  1  0  0  0  0
 33 32  2  0  0  0  0
M  END
>  <MODEL>
9

>  <REMARK>
 VINA RESULT:      -7.8      3.061      9.289
  Name = 
  4 active torsions:
  status: ('A' for Active; 'I' for Inactive)
    1  A    between atoms: C_1  and  C_9
    2  A    between atoms: C_3  and  C_25
    3  A    between atoms: C_7  and  C_11
    4  A    between atoms: C_8  and  C_9
                            x       y       z     vdW  Elec       q    Type
                         _______ _______ _______ _____ _____    ______ ____

>  <TORSDO>
F 4

$$$$
