=
 OpenBabel11052418163D

 28 29  0  0  1  0  0  0  0  0999 V2000
  190.0070  176.6920  144.0830 C   0  0  0  0  0  2  0  0  0  0  0  0
  191.8880  175.7570  145.5350 C   0  0  2  0  0  0  0  0  0  0  0  0
  189.8290  174.9730  146.7930 C   0  0  0  0  0  0  0  0  0  0  0  0
  191.1690  176.0860  147.1830 S   0  0  0  0  0  0  0  0  0  0  0  0
  189.1040  174.5260  147.6670 O   0  0  0  0  0  0  0  0  0  0  0  0
  189.6560  174.6010  145.3600 C   0  0  2  0  0  3  0  0  0  0  0  0
  191.2190  174.6640  143.3150 C   0  0  0  0  0  1  0  0  0  0  0  0
  189.7330  173.0860  145.1870 C   0  0  0  0  0  1  0  0  0  0  0  0
  192.6260  177.0160  145.0930 C   0  0  0  0  0  1  0  0  0  0  0  0
  190.7090  175.4040  144.5590 C   0  0  1  0  0  0  0  0  0  0  0  0
  192.9770  174.6680  145.6330 C   0  0  0  0  0  2  0  0  0  0  0  0
  194.3140  175.0210  144.9940 C   0  0  0  0  0  2  0  0  0  0  0  0
  195.3830  174.9270  145.9730 N   0  0  0  0  0  2  0  0  0  0  0  0
  196.2300  173.8100  146.0150 C   0  0  0  0  0  0  0  0  0  0  0  0
  196.9590  172.8520  146.0510 C   0  0  0  0  0  3  0  0  0  0  0  0
  189.8530  176.7770  142.5620 C   0  0  0  0  0  2  0  0  0  0  0  0
  188.4740  177.2910  142.1440 C   0  0  1  0  0  3  0  0  0  0  0  0
  187.7120  176.2550  141.3290 C   0  0  0  0  0  2  0  0  0  0  0  0
  188.2580  174.9880  141.5390 O   0  0  0  0  0  1  0  0  0  0  0  0
  187.6400  177.7250  143.3440 C   0  0  0  0  0  2  0  0  0  0  0  0
  186.2210  177.1730  143.2770 C   0  0  0  0  0  2  0  0  0  0  0  0
  184.0390  178.5540  146.1390 C   0  0  0  0  0  2  0  0  0  0  0  0
  185.5430  177.2290  144.6360 C   0  0  2  0  0  3  0  0  0  0  0  0
  185.9710  177.3170  147.0770 C   0  0  0  0  0  0  0  0  0  0  0  0
  184.7540  178.5330  144.7880 C   0  0  0  0  0  2  0  0  0  0  0  0
  186.6010  177.1150  145.7320 C   0  0  0  0  0  2  0  0  0  0  0  0
  186.2590  176.5840  148.0080 O   0  0  0  0  0  0  0  0  0  0  0  0
  185.0460  178.4770  147.2850 C   0  0  0  0  0  2  0  0  0  0  0  0
  1 10  1  0  0  0  0
  2  9  1  6  0  0  0
  2 11  1  0  0  0  0
  2  4  1  0  0  0  0
  3  4  1  0  0  0  0
  3  5  2  0  0  0  0
  6  8  1  1  0  0  0
  6  3  1  0  0  0  0
 10  7  1  6  0  0  0
 10  6  1  0  0  0  0
 10  2  1  0  0  0  0
 12 11  1  0  0  0  0
 12 13  1  0  0  0  0
 13 14  1  0  0  0  0
 14 15  3  0  0  0  0
 16  1  1  0  0  0  0
 17 18  1  1  0  0  0
 17 16  1  0  0  0  0
 17 20  1  0  0  0  0
 18 19  1  0  0  0  0
 21 20  1  0  0  0  0
 22 28  1  0  0  0  0
 23 21  1  6  0  0  0
 23 25  1  0  0  0  0
 23 26  1  0  0  0  0
 24 28  1  0  0  0  0
 24 27  2  0  0  0  0
 25 22  1  0  0  0  0
 26 24  1  0  0  0  0
M  END
>  <MODEL>
1

>  <REMARK>
 VINA RESULT:      -6.3      0.000      0.000
  Name = 
  11 active torsions:
  status: ('A' for Active; 'I' for Inactive)
    1  A    between atoms: C_1  and  C_11
    2  A    between atoms: C_5  and  C_25
    3  A    between atoms: N_6  and  C_8
    4  A    between atoms: N_6  and  C_22
    5  A    between atoms: C_8  and  C_11
    6  A    between atoms: C_9  and  C_18
    7  A    between atoms: C_10  and  C_17
    8  A    between atoms: C_10  and  C_25
    9  A    between atoms: C_14  and  C_18
   10  A    between atoms: C_14  and  C_25
   11  A    between atoms: C_17  and  C_27
                            x       y       z     vdW  Elec       q    Type
                         _______ _______ _______ _____ _____    ______ ____

>  <TORSDO>
F 11

$$$$
=
 OpenBabel11052418163D

 28 29  0  0  1  0  0  0  0  0999 V2000
  189.2100  176.5730  146.2430 C   0  0  0  0  0  2  0  0  0  0  0  0
  191.4220  175.9620  145.1240 C   0  0  2  0  0  0  0  0  0  0  0  0
  189.8620  174.2030  144.1730 C   0  0  0  0  0  0  0  0  0  0  0  0
  191.3030  174.1410  145.2250 S   0  0  0  0  0  0  0  0  0  0  0  0
  189.4470  173.2020  143.6100 O   0  0  0  0  0  0  0  0  0  0  0  0
  189.2090  175.5320  143.9980 C   0  0  2  0  0  3  0  0  0  0  0  0
  190.0110  177.9540  144.3400 C   0  0  0  0  0  1  0  0  0  0  0  0
  189.1590  175.9130  142.5200 C   0  0  0  0  0  1  0  0  0  0  0  0
  192.0270  176.4590  146.4330 C   0  0  0  0  0  1  0  0  0  0  0  0
  189.9730  176.5270  144.9040 C   0  0  1  0  0  0  0  0  0  0  0  0
  192.4350  176.3730  144.0340 C   0  0  0  0  0  2  0  0  0  0  0  0
  193.8560  176.6220  144.5230 C   0  0  0  0  0  2  0  0  0  0  0  0
  194.8020  175.8480  143.7370 N   0  0  0  0  0  2  0  0  0  0  0  0
  196.0670  176.3600  143.4180 C   0  0  0  0  0  0  0  0  0  0  0  0
  197.1550  176.8010  143.1450 C   0  0  0  0  0  3  0  0  0  0  0  0
  188.0860  177.6130  146.2710 C   0  0  0  0  0  2  0  0  0  0  0  0
  186.7480  177.0130  146.7090 C   0  0  1  0  0  3  0  0  0  0  0  0
  186.0000  177.9410  147.6550 C   0  0  0  0  0  2  0  0  0  0  0  0
  186.8900  178.8350  148.2490 O   0  0  0  0  0  1  0  0  0  0  0  0
  185.8650  176.6600  145.5180 C   0  0  0  0  0  2  0  0  0  0  0  0
  185.3920  177.9050  144.7760 C   0  0  0  0  0  2  0  0  0  0  0  0
  186.1790  177.7030  141.0070 C   0  0  0  0  0  2  0  0  0  0  0  0
  185.1720  177.6170  143.3000 C   0  0  2  0  0  3  0  0  0  0  0  0
  183.7760  178.2130  141.3380 C   0  0  0  0  0  0  0  0  0  0  0  0
  186.3950  178.0410  142.4820 C   0  0  0  0  0  2  0  0  0  0  0  0
  183.9260  178.3630  142.8220 C   0  0  0  0  0  2  0  0  0  0  0  0
  182.6850  177.9690  140.8520 O   0  0  0  0  0  0  0  0  0  0  0  0
  184.9640  178.4460  140.4550 C   0  0  0  0  0  2  0  0  0  0  0  0
  1 16  1  0  0  0  0
  2  4  1  0  0  0  0
  2  9  1  1  0  0  0
  3  4  1  0  0  0  0
  5  3  2  0  0  0  0
  6  8  1  6  0  0  0
  6  3  1  0  0  0  0
  6 10  1  0  0  0  0
 10  7  1  6  0  0  0
 10  2  1  0  0  0  0
 10  1  1  0  0  0  0
 11 12  1  0  0  0  0
 11  2  1  0  0  0  0
 13 12  1  0  0  0  0
 14 13  1  0  0  0  0
 15 14  3  0  0  0  0
 16 17  1  0  0  0  0
 17 20  1  6  0  0  0
 17 18  1  0  0  0  0
 18 19  1  0  0  0  0
 21 20  1  0  0  0  0
 22 25  1  0  0  0  0
 23 21  1  1  0  0  0
 24 26  1  0  0  0  0
 25 23  1  0  0  0  0
 26 23  1  0  0  0  0
 27 24  2  0  0  0  0
 28 22  1  0  0  0  0
 28 24  1  0  0  0  0
M  END
>  <MODEL>
2

>  <REMARK>
 VINA RESULT:      -6.3      2.282      4.222
  Name = 
  11 active torsions:
  status: ('A' for Active; 'I' for Inactive)
    1  A    between atoms: C_1  and  C_11
    2  A    between atoms: C_5  and  C_25
    3  A    between atoms: N_6  and  C_8
    4  A    between atoms: N_6  and  C_22
    5  A    between atoms: C_8  and  C_11
    6  A    between atoms: C_9  and  C_18
    7  A    between atoms: C_10  and  C_17
    8  A    between atoms: C_10  and  C_25
    9  A    between atoms: C_14  and  C_18
   10  A    between atoms: C_14  and  C_25
   11  A    between atoms: C_17  and  C_27
                            x       y       z     vdW  Elec       q    Type
                         _______ _______ _______ _____ _____    ______ ____

>  <TORSDO>
F 11

$$$$
=
 OpenBabel11052418163D

 28 29  0  0  1  0  0  0  0  0999 V2000
  188.1850  176.4770  143.2120 C   0  0  0  0  0  2  0  0  0  0  0  0
  190.0370  176.3190  144.9630 C   0  0  2  0  0  0  0  0  0  0  0  0
  189.7100  173.8820  144.3370 C   0  0  0  0  0  0  0  0  0  0  0  0
  189.4760  174.8160  145.8400 S   0  0  0  0  0  0  0  0  0  0  0  0
  189.7650  172.6630  144.3530 O   0  0  0  0  0  0  0  0  0  0  0  0
  189.8590  174.6600  143.0740 C   0  0  2  0  0  3  0  0  0  0  0  0
  190.5010  177.1010  142.5660 C   0  0  0  0  0  1  0  0  0  0  0  0
  191.1830  174.3250  142.3910 C   0  0  0  0  0  1  0  0  0  0  0  0
  189.3190  177.5120  145.5840 C   0  0  0  0  0  1  0  0  0  0  0  0
  189.6740  176.1510  143.4430 C   0  0  1  0  0  0  0  0  0  0  0  0
  191.5360  176.5680  145.2330 C   0  0  0  0  0  2  0  0  0  0  0  0
  191.9980  176.2890  146.6580 C   0  0  0  0  0  2  0  0  0  0  0  0
  193.1900  175.4590  146.6480 N   0  0  0  0  0  2  0  0  0  0  0  0
  193.2440  174.2770  145.8960 C   0  0  0  0  0  0  0  0  0  0  0  0
  193.2890  173.2610  145.2510 C   0  0  0  0  0  3  0  0  0  0  0  0
  187.9390  177.3830  142.0020 C   0  0  0  0  0  2  0  0  0  0  0  0
  186.5070  177.9220  141.9600 C   0  0  1  0  0  3  0  0  0  0  0  0
  185.9480  177.9210  140.5440 C   0  0  0  0  0  2  0  0  0  0  0  0
  186.7900  177.1970  139.7000 O   0  0  0  0  0  1  0  0  0  0  0  0
  185.5790  177.1460  142.8870 C   0  0  0  0  0  2  0  0  0  0  0  0
  184.9180  178.0550  143.9160 C   0  0  0  0  0  2  0  0  0  0  0  0
  186.3700  176.7120  147.2250 C   0  0  0  0  0  2  0  0  0  0  0  0
  185.6900  178.0600  145.2250 C   0  0  2  0  0  3  0  0  0  0  0  0
  185.8100  179.1150  147.4670 C   0  0  0  0  0  0  0  0  0  0  0  0
  185.5510  176.7100  145.9350 C   0  0  0  0  0  2  0  0  0  0  0  0
  185.1660  179.1860  146.1150 C   0  0  0  0  0  2  0  0  0  0  0  0
  186.2180  180.1280  148.0090 O   0  0  0  0  0  0  0  0  0  0  0  0
  185.8730  177.7970  148.1780 C   0  0  0  0  0  2  0  0  0  0  0  0
  1 10  1  0  0  0  0
  2 11  1  0  0  0  0
  2  9  1  1  0  0  0
  2  4  1  0  0  0  0
  3  5  2  0  0  0  0
  3  4  1  0  0  0  0
  6  8  1  1  0  0  0
  6 10  1  0  0  0  0
  6  3  1  0  0  0  0
 10  7  1  6  0  0  0
 10  2  1  0  0  0  0
 11 12  1  0  0  0  0
 13 12  1  0  0  0  0
 14 13  1  0  0  0  0
 15 14  3  0  0  0  0
 16  1  1  0  0  0  0
 17 18  1  6  0  0  0
 17 16  1  0  0  0  0
 17 20  1  0  0  0  0
 19 18  1  0  0  0  0
 20 21  1  0  0  0  0
 22 28  1  0  0  0  0
 23 21  1  6  0  0  0
 23 25  1  0  0  0  0
 23 26  1  0  0  0  0
 24 27  2  0  0  0  0
 24 28  1  0  0  0  0
 25 22  1  0  0  0  0
 26 24  1  0  0  0  0
M  END
>  <MODEL>
3

>  <REMARK>
 VINA RESULT:      -6.3      1.901      2.627
  Name = 
  11 active torsions:
  status: ('A' for Active; 'I' for Inactive)
    1  A    between atoms: C_1  and  C_11
    2  A    between atoms: C_5  and  C_25
    3  A    between atoms: N_6  and  C_8
    4  A    between atoms: N_6  and  C_22
    5  A    between atoms: C_8  and  C_11
    6  A    between atoms: C_9  and  C_18
    7  A    between atoms: C_10  and  C_17
    8  A    between atoms: C_10  and  C_25
    9  A    between atoms: C_14  and  C_18
   10  A    between atoms: C_14  and  C_25
   11  A    between atoms: C_17  and  C_27
                            x       y       z     vdW  Elec       q    Type
                         _______ _______ _______ _____ _____    ______ ____

>  <TORSDO>
F 11

$$$$
=
 OpenBabel11052418163D

 28 29  0  0  1  0  0  0  0  0999 V2000
  190.7250  176.7920  144.0550 C   0  0  0  0  0  2  0  0  0  0  0  0
  192.3630  175.2260  145.2320 C   0  0  2  0  0  0  0  0  0  0  0  0
  191.3770  176.5050  147.1890 C   0  0  0  0  0  0  0  0  0  0  0  0
  193.0140  176.3830  146.4890 S   0  0  0  0  0  0  0  0  0  0  0  0
  191.1990  176.9560  148.3090 O   0  0  0  0  0  0  0  0  0  0  0  0
  190.2460  176.0090  146.3530 C   0  0  2  0  0  3  0  0  0  0  0  0
  190.1030  174.4040  144.3450 C   0  0  0  0  0  1  0  0  0  0  0  0
  189.4730  174.9180  147.0910 C   0  0  0  0  0  1  0  0  0  0  0  0
  193.1890  175.4100  143.9640 C   0  0  0  0  0  1  0  0  0  0  0  0
  190.8500  175.5760  144.9960 C   0  0  1  0  0  0  0  0  0  0  0  0
  192.6150  173.7670  145.6670 C   0  0  0  0  0  2  0  0  0  0  0  0
  193.4660  172.9390  144.7120 C   0  0  0  0  0  2  0  0  0  0  0  0
  194.3900  172.1010  145.4570 N   0  0  0  0  0  2  0  0  0  0  0  0
  195.7110  172.5090  145.6900 C   0  0  0  0  0  0  0  0  0  0  0  0
  196.8460  172.8600  145.8890 C   0  0  0  0  0  3  0  0  0  0  0  0
  190.0930  176.4540  142.7020 C   0  0  0  0  0  2  0  0  0  0  0  0
  188.9200  177.3760  142.3620 C   0  0  1  0  0  3  0  0  0  0  0  0
  187.9310  176.7020  141.4210 C   0  0  0  0  0  2  0  0  0  0  0  0
  188.0070  175.3160  141.5630 O   0  0  0  0  0  1  0  0  0  0  0  0
  188.1980  177.8640  143.6120 C   0  0  0  0  0  2  0  0  0  0  0  0
  186.7210  178.1260  143.3470 C   0  0  0  0  0  2  0  0  0  0  0  0
  184.0420  178.6690  146.0660 C   0  0  0  0  0  2  0  0  0  0  0  0
  185.8790  177.8370  144.5800 C   0  0  2  0  0  3  0  0  0  0  0  0
  185.9910  177.4810  147.0320 C   0  0  0  0  0  0  0  0  0  0  0  0
  184.9130  178.9930  144.8530 C   0  0  0  0  0  2  0  0  0  0  0  0
  186.8020  177.6190  145.7790 C   0  0  0  0  0  2  0  0  0  0  0  0
  186.2570  176.6120  147.8450 O   0  0  0  0  0  0  0  0  0  0  0  0
  184.9030  178.4720  147.3120 C   0  0  0  0  0  2  0  0  0  0  0  0
  1 10  1  0  0  0  0
  2  9  1  6  0  0  0
  2 11  1  0  0  0  0
  2  4  1  0  0  0  0
  3  5  2  0  0  0  0
  4  3  1  0  0  0  0
  6  8  1  1  0  0  0
  6  3  1  0  0  0  0
 10  7  1  6  0  0  0
 10  2  1  0  0  0  0
 10  6  1  0  0  0  0
 12 13  1  0  0  0  0
 12 11  1  0  0  0  0
 13 14  1  0  0  0  0
 14 15  3  0  0  0  0
 16  1  1  0  0  0  0
 17 18  1  6  0  0  0
 17 16  1  0  0  0  0
 17 20  1  0  0  0  0
 18 19  1  0  0  0  0
 21 20  1  0  0  0  0
 22 28  1  0  0  0  0
 23 21  1  6  0  0  0
 23 25  1  0  0  0  0
 23 26  1  0  0  0  0
 24 28  1  0  0  0  0
 24 27  2  0  0  0  0
 25 22  1  0  0  0  0
 26 24  1  0  0  0  0
M  END
>  <MODEL>
4

>  <REMARK>
 VINA RESULT:      -6.2      1.261      1.450
  Name = 
  11 active torsions:
  status: ('A' for Active; 'I' for Inactive)
    1  A    between atoms: C_1  and  C_11
    2  A    between atoms: C_5  and  C_25
    3  A    between atoms: N_6  and  C_8
    4  A    between atoms: N_6  and  C_22
    5  A    between atoms: C_8  and  C_11
    6  A    between atoms: C_9  and  C_18
    7  A    between atoms: C_10  and  C_17
    8  A    between atoms: C_10  and  C_25
    9  A    between atoms: C_14  and  C_18
   10  A    between atoms: C_14  and  C_25
   11  A    between atoms: C_17  and  C_27
                            x       y       z     vdW  Elec       q    Type
                         _______ _______ _______ _____ _____    ______ ____

>  <TORSDO>
F 11

$$$$
=
 OpenBabel11052418163D

 28 29  0  0  1  0  0  0  0  0999 V2000
  188.5970  175.1120  143.1910 C   0  0  0  0  0  2  0  0  0  0  0  0
  187.2300  177.1000  144.0260 C   0  0  2  0  0  0  0  0  0  0  0  0
  189.0550  176.9570  145.7820 C   0  0  0  0  0  0  0  0  0  0  0  0
  187.2830  176.7530  145.8200 S   0  0  0  0  0  0  0  0  0  0  0  0
  189.6940  177.1280  146.8080 O   0  0  0  0  0  0  0  0  0  0  0  0
  189.7100  176.9340  144.4430 C   0  0  2  0  0  3  0  0  0  0  0  0
  188.8460  177.3020  142.0460 C   0  0  0  0  0  1  0  0  0  0  0  0
  190.4860  178.2270  144.2040 C   0  0  0  0  0  1  0  0  0  0  0  0
  186.0560  176.3240  143.4390 C   0  0  0  0  0  1  0  0  0  0  0  0
  188.5990  176.6390  143.4080 C   0  0  1  0  0  0  0  0  0  0  0  0
  186.8920  178.5860  143.7780 C   0  0  0  0  0  2  0  0  0  0  0  0
  185.4920  178.8560  143.2420 C   0  0  0  0  0  2  0  0  0  0  0  0
  184.7090  179.5900  144.2220 N   0  0  0  0  0  2  0  0  0  0  0  0
  184.3040  178.9880  145.4220 C   0  0  0  0  0  0  0  0  0  0  0  0
  183.9560  178.4700  146.4520 C   0  0  0  0  0  3  0  0  0  0  0  0
  189.3990  174.6680  141.9650 C   0  0  0  0  0  2  0  0  0  0  0  0
  190.0410  173.2920  142.1560 C   0  0  1  0  0  3  0  0  0  0  0  0
  190.7470  172.8220  140.8920 C   0  0  0  0  0  2  0  0  0  0  0  0
  190.5040  173.7160  139.8490 O   0  0  0  0  0  1  0  0  0  0  0  0
  191.0120  173.2750  143.3310 C   0  0  0  0  0  2  0  0  0  0  0  0
  192.3040  174.0160  143.0090 C   0  0  0  0  0  2  0  0  0  0  0  0
  192.6830  174.9620  146.7270 C   0  0  0  0  0  2  0  0  0  0  0  0
  192.9570  174.5590  144.2700 C   0  0  2  0  0  3  0  0  0  0  0  0
  193.8760  176.6120  145.3140 C   0  0  0  0  0  0  0  0  0  0  0  0
  191.9970  174.4570  145.4580 C   0  0  0  0  0  2  0  0  0  0  0  0
  193.3660  176.0130  144.0380 C   0  0  0  0  0  2  0  0  0  0  0  0
  194.8850  177.2970  145.3120 O   0  0  0  0  0  0  0  0  0  0  0  0
  193.0890  176.4270  146.5750 C   0  0  0  0  0  2  0  0  0  0  0  0
  1 10  1  0  0  0  0
  2  9  1  6  0  0  0
  2  4  1  0  0  0  0
  3  4  1  0  0  0  0
  3  5  2  0  0  0  0
  6  8  1  6  0  0  0
  6  3  1  0  0  0  0
 10  7  1  6  0  0  0
 10  2  1  0  0  0  0
 10  6  1  0  0  0  0
 11  2  1  0  0  0  0
 12 11  1  0  0  0  0
 12 13  1  0  0  0  0
 13 14  1  0  0  0  0
 14 15  3  0  0  0  0
 16 17  1  0  0  0  0
 16  1  1  0  0  0  0
 17 18  1  6  0  0  0
 17 20  1  0  0  0  0
 19 18  1  0  0  0  0
 21 20  1  0  0  0  0
 23 21  1  6  0  0  0
 23 25  1  0  0  0  0
 24 28  1  0  0  0  0
 25 22  1  0  0  0  0
 26 23  1  0  0  0  0
 26 24  1  0  0  0  0
 27 24  2  0  0  0  0
 28 22  1  0  0  0  0
M  END
>  <MODEL>
5

>  <REMARK>
 VINA RESULT:      -6.2      3.136      7.181
  Name = 
  11 active torsions:
  status: ('A' for Active; 'I' for Inactive)
    1  A    between atoms: C_1  and  C_11
    2  A    between atoms: C_5  and  C_25
    3  A    between atoms: N_6  and  C_8
    4  A    between atoms: N_6  and  C_22
    5  A    between atoms: C_8  and  C_11
    6  A    between atoms: C_9  and  C_18
    7  A    between atoms: C_10  and  C_17
    8  A    between atoms: C_10  and  C_25
    9  A    between atoms: C_14  and  C_18
   10  A    between atoms: C_14  and  C_25
   11  A    between atoms: C_17  and  C_27
                            x       y       z     vdW  Elec       q    Type
                         _______ _______ _______ _____ _____    ______ ____

>  <TORSDO>
F 11

$$$$
=
 OpenBabel11052418163D

 28 29  0  0  1  0  0  0  0  0999 V2000
  189.2380  174.8680  144.7690 C   0  0  0  0  0  2  0  0  0  0  0  0
  189.6240  174.4940  142.2730 C   0  0  2  0  0  0  0  0  0  0  0  0
  189.2320  176.9980  142.3620 C   0  0  0  0  0  0  0  0  0  0  0  0
  188.3590  175.6350  141.6110 S   0  0  0  0  0  0  0  0  0  0  0  0
  189.0130  178.1520  142.0270 O   0  0  0  0  0  0  0  0  0  0  0  0
  190.2520  176.6610  143.3960 C   0  0  2  0  0  3  0  0  0  0  0  0
  191.5580  174.5140  143.9560 C   0  0  0  0  0  1  0  0  0  0  0  0
  191.6190  177.2140  143.0000 C   0  0  0  0  0  1  0  0  0  0  0  0
  188.9460  173.1550  142.5400 C   0  0  0  0  0  1  0  0  0  0  0  0
  190.1990  175.1270  143.5910 C   0  0  1  0  0  0  0  0  0  0  0  0
  190.6900  174.1950  141.1970 C   0  0  0  0  0  2  0  0  0  0  0  0
  190.4620  172.9240  140.3870 C   0  0  0  0  0  2  0  0  0  0  0  0
  190.3860  173.2360  138.9700 N   0  0  0  0  0  2  0  0  0  0  0  0
  189.2050  173.7330  138.4010 C   0  0  0  0  0  0  0  0  0  0  0  0
  188.1900  174.1590  137.9120 C   0  0  0  0  0  3  0  0  0  0  0  0
  189.9550  174.5930  146.0940 C   0  0  0  0  0  2  0  0  0  0  0  0
  189.5890  175.6110  147.1760 C   0  0  1  0  0  3  0  0  0  0  0  0
  190.8260  176.1480  147.8820 C   0  0  0  0  0  2  0  0  0  0  0  0
  191.9170  175.3170  147.6300 O   0  0  0  0  0  1  0  0  0  0  0  0
  188.7660  176.7650  146.6170 C   0  0  0  0  0  2  0  0  0  0  0  0
  187.3520  176.7800  147.1870 C   0  0  0  0  0  2  0  0  0  0  0  0
  184.1550  178.6630  146.1410 C   0  0  0  0  0  2  0  0  0  0  0  0
  186.4880  177.8200  146.4930 C   0  0  2  0  0  3  0  0  0  0  0  0
  185.7810  178.6650  144.2710 C   0  0  0  0  0  0  0  0  0  0  0  0
  185.0080  177.5830  146.8060 C   0  0  0  0  0  2  0  0  0  0  0  0
  186.7310  177.7520  144.9850 C   0  0  0  0  0  2  0  0  0  0  0  0
  186.1780  179.3810  143.3670 O   0  0  0  0  0  0  0  0  0  0  0  0
  184.3250  178.6280  144.6230 C   0  0  0  0  0  2  0  0  0  0  0  0
  1 16  1  0  0  0  0
  2  9  1  1  0  0  0
  2 10  1  0  0  0  0
  3  6  1  0  0  0  0
  4  2  1  0  0  0  0
  4  3  1  0  0  0  0
  5  3  2  0  0  0  0
  6  8  1  6  0  0  0
  6 10  1  0  0  0  0
 10  7  1  1  0  0  0
 10  1  1  0  0  0  0
 11  2  1  0  0  0  0
 12 11  1  0  0  0  0
 13 12  1  0  0  0  0
 14 13  1  0  0  0  0
 15 14  3  0  0  0  0
 17 16  1  6  0  0  0
 17 18  1  0  0  0  0
 19 18  1  0  0  0  0
 20 17  1  0  0  0  0
 20 21  1  0  0  0  0
 22 25  1  0  0  0  0
 23 25  1  0  0  0  0
 23 21  1  1  0  0  0
 24 28  1  0  0  0  0
 24 26  1  0  0  0  0
 26 23  1  0  0  0  0
 27 24  2  0  0  0  0
 28 22  1  0  0  0  0
M  END
>  <MODEL>
6

>  <REMARK>
 VINA RESULT:      -6.1      3.132      5.452
  Name = 
  11 active torsions:
  status: ('A' for Active; 'I' for Inactive)
    1  A    between atoms: C_1  and  C_11
    2  A    between atoms: C_5  and  C_25
    3  A    between atoms: N_6  and  C_8
    4  A    between atoms: N_6  and  C_22
    5  A    between atoms: C_8  and  C_11
    6  A    between atoms: C_9  and  C_18
    7  A    between atoms: C_10  and  C_17
    8  A    between atoms: C_10  and  C_25
    9  A    between atoms: C_14  and  C_18
   10  A    between atoms: C_14  and  C_25
   11  A    between atoms: C_17  and  C_27
                            x       y       z     vdW  Elec       q    Type
                         _______ _______ _______ _____ _____    ______ ____

>  <TORSDO>
F 11

$$$$
=
 OpenBabel11052418163D

 28 29  0  0  1  0  0  0  0  0999 V2000
  191.6350  177.1240  144.0910 C   0  0  0  0  0  2  0  0  0  0  0  0
  192.7650  174.8860  144.5730 C   0  0  2  0  0  0  0  0  0  0  0  0
  194.7630  176.3910  144.1490 C   0  0  0  0  0  0  0  0  0  0  0  0
  194.0940  174.9590  143.3200 S   0  0  0  0  0  0  0  0  0  0  0  0
  195.9010  176.7750  143.9290 O   0  0  0  0  0  0  0  0  0  0  0  0
  193.8790  177.0770  145.1340 C   0  0  2  0  0  3  0  0  0  0  0  0
  191.7870  176.3410  146.4440 C   0  0  0  0  0  1  0  0  0  0  0  0
  194.5420  177.1230  146.5080 C   0  0  0  0  0  1  0  0  0  0  0  0
  191.5260  174.3070  143.9000 C   0  0  0  0  0  1  0  0  0  0  0  0
  192.5140  176.3480  145.0920 C   0  0  1  0  0  0  0  0  0  0  0  0
  193.1290  173.8750  145.6810 C   0  0  0  0  0  2  0  0  0  0  0  0
  194.2820  172.9350  145.3540 C   0  0  0  0  0  2  0  0  0  0  0  0
  193.8370  171.5530  145.4050 N   0  0  0  0  0  2  0  0  0  0  0  0
  193.3410  170.9090  144.2620 C   0  0  0  0  0  0  0  0  0  0  0  0
  192.9150  170.3580  143.2790 C   0  0  0  0  0  3  0  0  0  0  0  0
  190.4130  177.7860  144.7360 C   0  0  0  0  0  2  0  0  0  0  0  0
  189.1110  177.4350  144.0120 C   0  0  1  0  0  3  0  0  0  0  0  0
  189.3450  177.1800  142.5300 C   0  0  0  0  0  2  0  0  0  0  0  0
  188.9400  178.2880  141.7860 O   0  0  0  0  0  1  0  0  0  0  0  0
  188.4140  176.2360  144.6430 C   0  0  0  0  0  2  0  0  0  0  0  0
  187.9920  176.5190  146.0800 C   0  0  0  0  0  2  0  0  0  0  0  0
  185.1400  178.6420  147.5700 C   0  0  0  0  0  2  0  0  0  0  0  0
  186.8860  177.5600  146.1360 C   0  0  2  0  0  3  0  0  0  0  0  0
  184.6860  178.1870  145.1770 C   0  0  0  0  0  0  0  0  0  0  0  0
  186.2170  177.5590  147.5130 C   0  0  0  0  0  2  0  0  0  0  0  0
  185.8590  177.2620  145.0440 C   0  0  0  0  0  2  0  0  0  0  0  0
  184.2090  178.7200  144.1900 O   0  0  0  0  0  0  0  0  0  0  0  0
  184.0590  178.3840  146.5230 C   0  0  0  0  0  2  0  0  0  0  0  0
  1 16  1  0  0  0  0
  1 10  1  0  0  0  0
  2  9  1  6  0  0  0
  2 10  1  0  0  0  0
  2 11  1  0  0  0  0
  3  6  1  0  0  0  0
  4  3  1  0  0  0  0
  4  2  1  0  0  0  0
  5  3  2  0  0  0  0
  6  8  1  1  0  0  0
 10  6  1  0  0  0  0
 10  7  1  1  0  0  0
 12 13  1  0  0  0  0
 12 11  1  0  0  0  0
 14 13  1  0  0  0  0
 15 14  3  0  0  0  0
 17 18  1  6  0  0  0
 17 20  1  0  0  0  0
 17 16  1  0  0  0  0
 19 18  1  0  0  0  0
 20 21  1  0  0  0  0
 23 21  1  1  0  0  0
 23 25  1  0  0  0  0
 24 28  1  0  0  0  0
 25 22  1  0  0  0  0
 26 24  1  0  0  0  0
 26 23  1  0  0  0  0
 27 24  2  0  0  0  0
 28 22  1  0  0  0  0
M  END
>  <MODEL>
7

>  <REMARK>
 VINA RESULT:      -6.1      2.722      3.697
  Name = 
  11 active torsions:
  status: ('A' for Active; 'I' for Inactive)
    1  A    between atoms: C_1  and  C_11
    2  A    between atoms: C_5  and  C_25
    3  A    between atoms: N_6  and  C_8
    4  A    between atoms: N_6  and  C_22
    5  A    between atoms: C_8  and  C_11
    6  A    between atoms: C_9  and  C_18
    7  A    between atoms: C_10  and  C_17
    8  A    between atoms: C_10  and  C_25
    9  A    between atoms: C_14  and  C_18
   10  A    between atoms: C_14  and  C_25
   11  A    between atoms: C_17  and  C_27
                            x       y       z     vdW  Elec       q    Type
                         _______ _______ _______ _____ _____    ______ ____

>  <TORSDO>
F 11

$$$$
=
 OpenBabel11052418163D

 28 29  0  0  1  0  0  0  0  0999 V2000
  189.0910  177.0490  143.2820 C   0  0  0  0  0  2  0  0  0  0  0  0
  190.6820  176.4360  145.1830 C   0  0  2  0  0  0  0  0  0  0  0  0
  190.4890  174.2310  143.9430 C   0  0  0  0  0  0  0  0  0  0  0  0
  190.0300  174.7760  145.5800 S   0  0  0  0  0  0  0  0  0  0  0  0
  190.5620  173.0440  143.6690 O   0  0  0  0  0  0  0  0  0  0  0  0
  190.7990  175.2900  142.9410 C   0  0  2  0  0  3  0  0  0  0  0  0
  191.4640  177.7700  143.1370 C   0  0  0  0  0  1  0  0  0  0  0  0
  192.2110  175.1080  142.3890 C   0  0  0  0  0  1  0  0  0  0  0  0
  189.8650  177.4550  145.9690 C   0  0  0  0  0  1  0  0  0  0  0  0
  190.5390  176.6500  143.6330 C   0  0  1  0  0  0  0  0  0  0  0  0
  192.1250  176.5860  145.7120 C   0  0  0  0  0  2  0  0  0  0  0  0
  192.6570  175.3960  146.5010 C   0  0  0  0  0  2  0  0  0  0  0  0
  194.0820  175.2350  146.2700 N   0  0  0  0  0  2  0  0  0  0  0  0
  194.7170  175.8680  145.1920 C   0  0  0  0  0  0  0  0  0  0  0  0
  195.2610  176.4120  144.2650 C   0  0  0  0  0  3  0  0  0  0  0  0
  188.9880  177.9550  142.0510 C   0  0  0  0  0  2  0  0  0  0  0  0
  187.5370  178.2170  141.6420 C   0  0  1  0  0  3  0  0  0  0  0  0
  186.9240  177.0110  140.9450 C   0  0  0  0  0  2  0  0  0  0  0  0
  186.5600  177.3480  139.6410 O   0  0  0  0  0  1  0  0  0  0  0  0
  186.6750  178.6260  142.8300 C   0  0  0  0  0  2  0  0  0  0  0  0
  185.5000  177.6770  143.0290 C   0  0  0  0  0  2  0  0  0  0  0  0
  184.0650  178.6640  146.4690 C   0  0  0  0  0  2  0  0  0  0  0  0
  185.1390  177.5470  144.5000 C   0  0  2  0  0  3  0  0  0  0  0  0
  186.0960  177.2770  146.7720 C   0  0  0  0  0  0  0  0  0  0  0  0
  184.4640  178.8270  145.0020 C   0  0  0  0  0  2  0  0  0  0  0  0
  186.4060  177.2610  145.3050 C   0  0  0  0  0  2  0  0  0  0  0  0
  186.5470  176.4140  147.5060 O   0  0  0  0  0  0  0  0  0  0  0  0
  185.2950  178.4090  147.3380 C   0  0  0  0  0  2  0  0  0  0  0  0
  1 10  1  0  0  0  0
  2  4  1  0  0  0  0
  2 11  1  0  0  0  0
  2  9  1  1  0  0  0
  3  4  1  0  0  0  0
  5  3  2  0  0  0  0
  6  8  1  1  0  0  0
  6 10  1  0  0  0  0
  6  3  1  0  0  0  0
 10  7  1  6  0  0  0
 10  2  1  0  0  0  0
 11 12  1  0  0  0  0
 13 12  1  0  0  0  0
 14 13  1  0  0  0  0
 15 14  3  0  0  0  0
 16  1  1  0  0  0  0
 17 18  1  1  0  0  0
 17 16  1  0  0  0  0
 17 20  1  0  0  0  0
 19 18  1  0  0  0  0
 20 21  1  0  0  0  0
 22 28  1  0  0  0  0
 23 21  1  6  0  0  0
 23 25  1  0  0  0  0
 23 26  1  0  0  0  0
 24 28  1  0  0  0  0
 24 27  2  0  0  0  0
 25 22  1  0  0  0  0
 26 24  1  0  0  0  0
M  END
>  <MODEL>
8

>  <REMARK>
 VINA RESULT:      -6.0      1.663      2.272
  Name = 
  11 active torsions:
  status: ('A' for Active; 'I' for Inactive)
    1  A    between atoms: C_1  and  C_11
    2  A    between atoms: C_5  and  C_25
    3  A    between atoms: N_6  and  C_8
    4  A    between atoms: N_6  and  C_22
    5  A    between atoms: C_8  and  C_11
    6  A    between atoms: C_9  and  C_18
    7  A    between atoms: C_10  and  C_17
    8  A    between atoms: C_10  and  C_25
    9  A    between atoms: C_14  and  C_18
   10  A    between atoms: C_14  and  C_25
   11  A    between atoms: C_17  and  C_27
                            x       y       z     vdW  Elec       q    Type
                         _______ _______ _______ _____ _____    ______ ____

>  <TORSDO>
F 11

$$$$
=
 OpenBabel11052418163D

 28 29  0  0  1  0  0  0  0  0999 V2000
  191.8340  175.8520  143.5760 C   0  0  0  0  0  2  0  0  0  0  0  0
  193.4510  174.2580  144.7440 C   0  0  2  0  0  0  0  0  0  0  0  0
  193.7470  176.3780  146.1050 C   0  0  0  0  0  0  0  0  0  0  0  0
  194.8270  175.4200  145.0550 S   0  0  0  0  0  0  0  0  0  0  0  0
  194.1920  177.2020  146.8880 O   0  0  0  0  0  0  0  0  0  0  0  0
  192.2840  176.1080  145.9960 C   0  0  2  0  0  3  0  0  0  0  0  0
  190.9160  174.1190  145.1010 C   0  0  0  0  0  1  0  0  0  0  0  0
  191.7130  175.7000  147.3520 C   0  0  0  0  0  1  0  0  0  0  0  0
  193.6350  173.6870  143.3420 C   0  0  0  0  0  1  0  0  0  0  0  0
  192.1060  175.0610  144.8710 C   0  0  1  0  0  0  0  0  0  0  0  0
  193.5540  173.0410  145.6880 C   0  0  0  0  0  2  0  0  0  0  0  0
  193.7630  171.6970  145.0010 C   0  0  0  0  0  2  0  0  0  0  0  0
  194.9910  171.0780  145.4670 N   0  0  0  0  0  2  0  0  0  0  0  0
  196.1730  171.8210  145.5940 C   0  0  0  0  0  0  0  0  0  0  0  0
  197.1900  172.4580  145.7030 C   0  0  0  0  0  3  0  0  0  0  0  0
  190.3840  175.7540  143.0930 C   0  0  0  0  0  2  0  0  0  0  0  0
  189.7430  177.1290  142.8940 C   0  0  1  0  0  3  0  0  0  0  0  0
  188.5120  177.0500  142.0020 C   0  0  0  0  0  2  0  0  0  0  0  0
  188.0130  178.3310  141.7640 O   0  0  0  0  0  1  0  0  0  0  0  0
  189.3830  177.7880  144.2210 C   0  0  0  0  0  2  0  0  0  0  0  0
  188.3430  176.9810  144.9880 C   0  0  0  0  0  2  0  0  0  0  0  0
  185.7090  178.5360  147.3350 C   0  0  0  0  0  2  0  0  0  0  0  0
  187.1780  177.8560  145.4230 C   0  0  2  0  0  3  0  0  0  0  0  0
  184.7630  178.2890  145.0580 C   0  0  0  0  0  0  0  0  0  0  0  0
  186.8490  177.6170  146.9000 C   0  0  0  0  0  2  0  0  0  0  0  0
  185.9620  177.5470  144.5500 C   0  0  0  0  0  2  0  0  0  0  0  0
  184.0180  178.8600  144.2790 O   0  0  0  0  0  0  0  0  0  0  0  0
  184.4470  178.2550  146.5220 C   0  0  0  0  0  2  0  0  0  0  0  0
  1 10  1  0  0  0  0
  2  9  1  6  0  0  0
  2 10  1  0  0  0  0
  2  4  1  0  0  0  0
  2 11  1  0  0  0  0
  3  5  2  0  0  0  0
  4  3  1  0  0  0  0
  6  3  1  0  0  0  0
  6  8  1  1  0  0  0
 10  7  1  1  0  0  0
 10  6  1  0  0  0  0
 12 13  1  0  0  0  0
 12 11  1  0  0  0  0
 13 14  1  0  0  0  0
 14 15  3  0  0  0  0
 16  1  1  0  0  0  0
 17 18  1  6  0  0  0
 17 16  1  0  0  0  0
 17 20  1  0  0  0  0
 19 18  1  0  0  0  0
 20 21  1  0  0  0  0
 23 21  1  6  0  0  0
 23 25  1  0  0  0  0
 24 28  1  0  0  0  0
 25 22  1  0  0  0  0
 26 24  1  0  0  0  0
 26 23  1  0  0  0  0
 27 24  2  0  0  0  0
 28 22  1  0  0  0  0
M  END
>  <MODEL>
9

>  <REMARK>
 VINA RESULT:      -6.0      2.278      2.919
  Name = 
  11 active torsions:
  status: ('A' for Active; 'I' for Inactive)
    1  A    between atoms: C_1  and  C_11
    2  A    between atoms: C_5  and  C_25
    3  A    between atoms: N_6  and  C_8
    4  A    between atoms: N_6  and  C_22
    5  A    between atoms: C_8  and  C_11
    6  A    between atoms: C_9  and  C_18
    7  A    between atoms: C_10  and  C_17
    8  A    between atoms: C_10  and  C_25
    9  A    between atoms: C_14  and  C_18
   10  A    between atoms: C_14  and  C_25
   11  A    between atoms: C_17  and  C_27
                            x       y       z     vdW  Elec       q    Type
                         _______ _______ _______ _____ _____    ______ ____

>  <TORSDO>
F 11

$$$$
