=
 OpenBabel11052419053D

 32 36  0  0  1  0  0  0  0  0999 V2000
  191.4290  176.6180  144.0420 C   0  0  0  0  0  0  0  0  0  0  0  0
  192.5090  174.5350  143.1480 C   0  0  1  0  0  3  0  0  0  0  0  0
  191.6310  177.7490  144.5620 O   0  0  0  0  0  0  0  0  0  0  0  0
  192.3720  175.5370  144.2160 N   0  0  0  0  0  0  0  0  0  0  0  0
  192.3900  173.1220  143.7530 C   0  0  1  0  0  3  0  0  0  0  0  0
  190.2150  172.2010  139.3790 C   0  0  0  0  0  2  0  0  0  0  0  0
  191.4750  174.7430  142.0190 C   0  0  2  0  0  3  0  0  0  0  0  0
  191.1780  171.0280  141.0620 C   0  0  0  0  0  2  0  0  0  0  0  0
  191.3210  172.2350  141.9870 C   0  0  1  0  0  3  0  0  0  0  0  0
  193.3040  175.4160  145.3590 C   0  0  2  0  0  3  0  0  0  0  0  0
  192.4870  172.1270  142.7620 O   0  0  0  0  0  0  0  0  0  0  0  0
  193.2960  173.9850  145.9240 C   0  0  0  0  0  2  0  0  0  0  0  0
  190.1740  175.0620  142.6030 N   0  0  0  0  0  2  0  0  0  0  0  0
  190.2320  176.4220  143.1440 C   0  0  1  0  0  3  0  0  0  0  0  0
  191.4030  173.5000  141.1260 C   0  0  1  0  0  3  0  0  0  0  0  0
  193.4500  172.9180  144.8370 C   0  0  2  0  0  3  0  0  0  0  0  0
  190.0010  171.1550  140.2990 O   0  0  0  0  0  0  0  0  0  0  0  0
  190.2650  173.5460  140.1090 C   0  0  0  0  0  2  0  0  0  0  0  0
  186.8200  177.9100  144.0470 C   0  0  0  0  0  0  0  0  0  0  0  0
  185.6190  179.0630  143.3670 S   0  0  0  0  0  1  0  0  0  0  0  0
  187.5290  176.3700  145.7850 C   0  0  0  0  0  3  0  0  0  0  0  0
  188.9530  176.7430  143.8620 C   0  0  0  0  0  0  0  0  0  0  0  0
  186.5870  177.2700  145.2800 C   0  0  0  0  0  0  0  0  0  0  0  0
  188.7040  176.1100  145.0820 C   0  0  0  0  0  3  0  0  0  0  0  0
  188.0070  177.6490  143.3400 C   0  0  0  0  0  0  0  0  0  0  0  0
  188.2430  178.2840  142.1240 O   0  0  0  0  0  1  0  0  0  0  0  0
  185.5390  178.5040  147.0010 O   0  0  0  0  0  1  0  0  0  0  0  0
  185.3320  177.4990  146.0550 C   0  0  0  0  0  2  0  0  0  0  0  0
  194.8650  172.9140  144.2630 C   0  0  0  0  0  2  0  0  0  0  0  0
  195.7990  172.8470  145.2960 O   0  0  0  0  0  1  0  0  0  0  0  0
  193.0420  176.4000  146.5000 C   0  0  0  0  0  2  0  0  0  0  0  0
  194.2150  177.0680  146.8620 O   0  0  0  0  0  1  0  0  0  0  0  0
  1  4  1  0  0  0  0
  1  3  2  0  0  0  0
  2  5  1  0  0  0  0
  2  4  1  1  0  0  0
  4 10  1  0  0  0  0
  5 11  1  6  0  0  0
  5 16  1  0  0  0  0
  6 18  1  0  0  0  0
  6 17  1  0  0  0  0
  7 13  1  1  0  0  0
  7  2  1  0  0  0  0
  9  8  1  6  0  0  0
  9 11  1  0  0  0  0
 10 12  1  0  0  0  0
 10 31  1  1  0  0  0
 13 14  1  0  0  0  0
 14 22  1  1  0  0  0
 14  1  1  0  0  0  0
 15 18  1  6  0  0  0
 15  9  1  0  0  0  0
 15  7  1  0  0  0  0
 16 29  1  6  0  0  0
 16 12  1  0  0  0  0
 17  8  1  0  0  0  0
 19 23  1  0  0  0  0
 20 19  1  0  0  0  0
 22 24  2  0  0  0  0
 23 21  2  0  0  0  0
 23 28  1  0  0  0  0
 24 21  1  0  0  0  0
 25 22  1  0  0  0  0
 25 19  2  0  0  0  0
 26 25  1  0  0  0  0
 28 27  1  0  0  0  0
 29 30  1  0  0  0  0
 31 32  1  0  0  0  0
M  END
>  <MODEL>
1

>  <REMARK>
 VINA RESULT:      -7.0      0.000      0.000
  Name = 
  4 active torsions:
  status: ('A' for Active; 'I' for Inactive)
    1  A    between atoms: C_13  and  C_29
    2  A    between atoms: CA_14  and  C_21
    3  A    between atoms: C_16  and  CA_27
    4  A    between atoms: C_19  and  C_26
                            x       y       z     vdW  Elec       q    Type
                         _______ _______ _______ _____ _____    ______ ____

>  <TORSDO>
F 4

$$$$
=
 OpenBabel11052419053D

 32 36  0  0  1  0  0  0  0  0999 V2000
  190.9180  174.6510  144.7480 C   0  0  0  0  0  0  0  0  0  0  0  0
  188.6560  175.7420  144.7300 C   0  0  1  0  0  3  0  0  0  0  0  0
  191.6660  173.8270  145.3400 O   0  0  0  0  0  0  0  0  0  0  0  0
  189.8760  175.3590  145.4570 N   0  0  0  0  0  0  0  0  0  0  0  0
  188.3720  177.2400  144.9620 C   0  0  1  0  0  3  0  0  0  0  0  0
  186.7190  176.9260  140.2840 C   0  0  0  0  0  2  0  0  0  0  0  0
  188.7540  175.4240  143.2210 C   0  0  2  0  0  3  0  0  0  0  0  0
  186.5030  178.3200  142.0580 C   0  0  0  0  0  2  0  0  0  0  0  0
  187.5650  177.6150  142.8990 C   0  0  1  0  0  3  0  0  0  0  0  0
  189.8950  175.6390  146.9090 C   0  0  2  0  0  3  0  0  0  0  0  0
  187.2270  177.6620  144.2610 O   0  0  0  0  0  0  0  0  0  0  0  0
  189.5080  177.1000  147.1910 C   0  0  0  0  0  2  0  0  0  0  0  0
  190.0810  175.7910  142.7300 N   0  0  0  0  0  2  0  0  0  0  0  0
  191.0500  174.8250  143.2540 C   0  0  1  0  0  3  0  0  0  0  0  0
  187.6480  176.1520  142.4500 C   0  0  1  0  0  3  0  0  0  0  0  0
  188.2340  177.5270  146.4580 C   0  0  2  0  0  3  0  0  0  0  0  0
  186.8640  178.2650  140.6980 O   0  0  0  0  0  0  0  0  0  0  0  0
  187.7950  176.0520  140.9330 C   0  0  0  0  0  2  0  0  0  0  0  0
  194.2960  175.3660  141.2960 C   0  0  0  0  0  0  0  0  0  0  0  0
  194.9800  175.0000  139.6740 S   0  0  0  0  0  1  0  0  0  0  0  0
  194.5020  176.3410  143.5100 C   0  0  0  0  0  3  0  0  0  0  0  0
  192.4420  175.2360  142.8750 C   0  0  0  0  0  0  0  0  0  0  0  0
  195.0560  176.0580  142.2590 C   0  0  0  0  0  0  0  0  0  0  0  0
  193.2050  175.9320  143.8160 C   0  0  0  0  0  3  0  0  0  0  0  0
  192.9900  174.9510  141.6070 C   0  0  0  0  0  0  0  0  0  0  0  0
  192.2380  174.2620  140.6590 O   0  0  0  0  0  1  0  0  0  0  0  0
  197.0070  177.0710  143.1250 O   0  0  0  0  0  1  0  0  0  0  0  0
  196.4400  176.5380  141.9680 C   0  0  0  0  0  2  0  0  0  0  0  0
  186.9990  176.8590  147.0590 C   0  0  0  0  0  2  0  0  0  0  0  0
  186.1480  177.8250  147.5950 O   0  0  0  0  0  1  0  0  0  0  0  0
  191.2270  175.3380  147.5980 C   0  0  0  0  0  2  0  0  0  0  0  0
  192.0770  176.4460  147.5470 O   0  0  0  0  0  1  0  0  0  0  0  0
  1  3  2  0  0  0  0
  1  4  1  0  0  0  0
  2  5  1  0  0  0  0
  2  4  1  1  0  0  0
  4 10  1  0  0  0  0
  5 11  1  6  0  0  0
  5 16  1  0  0  0  0
  6 17  1  0  0  0  0
  6 18  1  0  0  0  0
  7 13  1  6  0  0  0
  7  2  1  0  0  0  0
  9  8  1  6  0  0  0
  9 11  1  0  0  0  0
 10 12  1  0  0  0  0
 10 31  1  6  0  0  0
 13 14  1  0  0  0  0
 14 22  1  1  0  0  0
 14  1  1  0  0  0  0
 15 18  1  6  0  0  0
 15  9  1  0  0  0  0
 15  7  1  0  0  0  0
 16 29  1  1  0  0  0
 16 12  1  0  0  0  0
 17  8  1  0  0  0  0
 19 25  2  0  0  0  0
 19 23  1  0  0  0  0
 20 19  1  0  0  0  0
 21 24  1  0  0  0  0
 22 24  2  0  0  0  0
 23 21  2  0  0  0  0
 25 22  1  0  0  0  0
 26 25  1  0  0  0  0
 28 23  1  0  0  0  0
 28 27  1  0  0  0  0
 29 30  1  0  0  0  0
 32 31  1  0  0  0  0
M  END
>  <MODEL>
2

>  <REMARK>
 VINA RESULT:      -7.0      3.155      6.703
  Name = 
  4 active torsions:
  status: ('A' for Active; 'I' for Inactive)
    1  A    between atoms: C_13  and  C_29
    2  A    between atoms: CA_14  and  C_21
    3  A    between atoms: C_16  and  CA_27
    4  A    between atoms: C_19  and  C_26
                            x       y       z     vdW  Elec       q    Type
                         _______ _______ _______ _____ _____    ______ ____

>  <TORSDO>
F 4

$$$$
=
 OpenBabel11052419053D

 32 36  0  0  1  0  0  0  0  0999 V2000
  190.8570  174.7430  144.7820 C   0  0  0  0  0  0  0  0  0  0  0  0
  188.9400  174.6710  143.1610 C   0  0  1  0  0  3  0  0  0  0  0  0
  191.1860  174.8740  145.9920 O   0  0  0  0  0  0  0  0  0  0  0  0
  189.6420  175.3360  144.2700 N   0  0  0  0  0  0  0  0  0  0  0  0
  188.6590  175.6980  142.0450 C   0  0  1  0  0  3  0  0  0  0  0  0
  189.4260  171.7190  139.1660 C   0  0  0  0  0  2  0  0  0  0  0  0
  189.7290  173.4610  142.6150 C   0  0  2  0  0  3  0  0  0  0  0  0
  188.4640  173.7630  138.9940 C   0  0  0  0  0  2  0  0  0  0  0  0
  188.9560  174.2470  140.3560 C   0  0  1  0  0  3  0  0  0  0  0  0
  188.9800  176.5220  144.8550 C   0  0  2  0  0  3  0  0  0  0  0  0
  188.0110  175.1010  140.9480 O   0  0  0  0  0  0  0  0  0  0  0  0
  188.5840  177.5250  143.7580 C   0  0  0  0  0  2  0  0  0  0  0  0
  191.1470  173.8050  142.5220 N   0  0  0  0  0  2  0  0  0  0  0  0
  191.6950  173.8700  143.8800 C   0  0  1  0  0  3  0  0  0  0  0  0
  189.1660  173.0250  141.2580 C   0  0  1  0  0  3  0  0  0  0  0  0
  187.8390  176.8660  142.5950 C   0  0  2  0  0  3  0  0  0  0  0  0
  189.4270  172.9130  138.4180 O   0  0  0  0  0  0  0  0  0  0  0  0
  190.0140  171.9660  140.5580 C   0  0  0  0  0  2  0  0  0  0  0  0
  195.4410  174.2580  144.5780 C   0  0  0  0  0  0  0  0  0  0  0  0
  196.7060  173.5400  145.6350 S   0  0  0  0  0  1  0  0  0  0  0  0
  194.7620  175.8240  142.8510 C   0  0  0  0  0  3  0  0  0  0  0  0
  193.1190  174.3410  143.8360 C   0  0  0  0  0  0  0  0  0  0  0  0
  195.7590  175.2870  143.6710 C   0  0  0  0  0  0  0  0  0  0  0  0
  193.4520  175.3560  142.9340 C   0  0  0  0  0  3  0  0  0  0  0  0
  194.1190  173.7880  144.6630 C   0  0  0  0  0  0  0  0  0  0  0  0
  193.8000  172.7750  145.5630 O   0  0  0  0  0  1  0  0  0  0  0  0
  197.1230  177.1730  143.2650 O   0  0  0  0  0  1  0  0  0  0  0  0
  197.1520  175.8030  143.5290 C   0  0  0  0  0  2  0  0  0  0  0  0
  186.4330  176.4360  143.0100 C   0  0  0  0  0  2  0  0  0  0  0  0
  185.4850  177.2680  142.4150 O   0  0  0  0  0  1  0  0  0  0  0  0
  189.8040  177.2510  145.9180 C   0  0  0  0  0  2  0  0  0  0  0  0
  189.0550  177.4500  147.0810 O   0  0  0  0  0  1  0  0  0  0  0  0
  1  3  2  0  0  0  0
  2  4  1  1  0  0  0
  4  1  1  0  0  0  0
  4 10  1  0  0  0  0
  5 11  1  6  0  0  0
  5 16  1  0  0  0  0
  5  2  1  0  0  0  0
  6 18  1  0  0  0  0
  7 13  1  6  0  0  0
  7  2  1  0  0  0  0
  9  8  1  6  0  0  0
  9 11  1  0  0  0  0
  9 15  1  0  0  0  0
 10 31  1  1  0  0  0
 12 10  1  0  0  0  0
 13 14  1  0  0  0  0
 14 22  1  6  0  0  0
 14  1  1  0  0  0  0
 15 18  1  6  0  0  0
 15  7  1  0  0  0  0
 16 29  1  1  0  0  0
 16 12  1  0  0  0  0
 17  8  1  0  0  0  0
 17  6  1  0  0  0  0
 19 25  1  0  0  0  0
 19 20  1  0  0  0  0
 21 24  2  0  0  0  0
 21 23  1  0  0  0  0
 22 25  2  0  0  0  0
 23 19  2  0  0  0  0
 24 22  1  0  0  0  0
 25 26  1  0  0  0  0
 27 28  1  0  0  0  0
 28 23  1  0  0  0  0
 30 29  1  0  0  0  0
 31 32  1  0  0  0  0
M  END
>  <MODEL>
3

>  <REMARK>
 VINA RESULT:      -6.8      3.131      6.613
  Name = 
  4 active torsions:
  status: ('A' for Active; 'I' for Inactive)
    1  A    between atoms: C_13  and  C_29
    2  A    between atoms: CA_14  and  C_21
    3  A    between atoms: C_16  and  CA_27
    4  A    between atoms: C_19  and  C_26
                            x       y       z     vdW  Elec       q    Type
                         _______ _______ _______ _____ _____    ______ ____

>  <TORSDO>
F 4

$$$$
=
 OpenBabel11052419053D

 32 36  0  0  1  0  0  0  0  0999 V2000
  191.9700  174.7290  145.9580 C   0  0  0  0  0  0  0  0  0  0  0  0
  189.6360  175.1050  145.1120 C   0  0  1  0  0  3  0  0  0  0  0  0
  192.6790  174.4940  146.9740 O   0  0  0  0  0  0  0  0  0  0  0  0
  190.7060  175.4190  146.0720 N   0  0  0  0  0  0  0  0  0  0  0  0
  189.0940  176.4150  144.5040 C   0  0  1  0  0  3  0  0  0  0  0  0
  188.5880  173.5170  140.4970 C   0  0  0  0  0  2  0  0  0  0  0  0
  190.1130  174.1370  144.0060 C   0  0  2  0  0  3  0  0  0  0  0  0
  187.7830  175.4930  141.2600 C   0  0  0  0  0  2  0  0  0  0  0  0
  188.7210  175.5520  142.4640 C   0  0  1  0  0  3  0  0  0  0  0  0
  190.3600  176.3560  147.1630 C   0  0  2  0  0  3  0  0  0  0  0  0
  188.0850  176.1640  143.5560 O   0  0  0  0  0  0  0  0  0  0  0  0
  189.7130  177.6340  146.6040 C   0  0  0  0  0  2  0  0  0  0  0  0
  191.4490  174.5280  143.5590 N   0  0  0  0  0  2  0  0  0  0  0  0
  192.4060  174.1920  144.6160 C   0  0  1  0  0  3  0  0  0  0  0  0
  189.1130  174.1200  142.8450 C   0  0  1  0  0  3  0  0  0  0  0  0
  188.5860  177.3410  145.6110 C   0  0  2  0  0  3  0  0  0  0  0  0
  188.4420  174.8810  140.1770 O   0  0  0  0  0  0  0  0  0  0  0  0
  189.6070  173.3440  141.6260 C   0  0  0  0  0  2  0  0  0  0  0  0
  196.2030  174.4860  144.2130 C   0  0  0  0  0  0  0  0  0  0  0  0
  197.6890  173.5730  144.6510 S   0  0  0  0  0  1  0  0  0  0  0  0
  195.1170  176.3870  143.1640 C   0  0  0  0  0  3  0  0  0  0  0  0
  193.7730  174.6890  144.2480 C   0  0  0  0  0  0  0  0  0  0  0  0
  196.2850  175.6990  143.5030 C   0  0  0  0  0  0  0  0  0  0  0  0
  193.8700  175.8860  143.5350 C   0  0  0  0  0  3  0  0  0  0  0  0
  194.9450  173.9830  144.5890 C   0  0  0  0  0  0  0  0  0  0  0  0
  194.8600  172.7870  145.2960 O   0  0  0  0  0  1  0  0  0  0  0  0
  197.9400  175.7370  141.8170 O   0  0  0  0  0  1  0  0  0  0  0  0
  197.5960  176.2610  143.0630 C   0  0  0  0  0  2  0  0  0  0  0  0
  187.3580  176.7710  146.3180 C   0  0  0  0  0  2  0  0  0  0  0  0
  186.8970  177.6740  147.2750 O   0  0  0  0  0  1  0  0  0  0  0  0
  191.5350  176.7480  148.0610 C   0  0  0  0  0  2  0  0  0  0  0  0
  191.2070  177.8440  148.8620 O   0  0  0  0  0  1  0  0  0  0  0  0
  1  4  1  0  0  0  0
  1  3  2  0  0  0  0
  2  4  1  1  0  0  0
  4 10  1  0  0  0  0
  5 11  1  6  0  0  0
  5  2  1  0  0  0  0
  5 16  1  0  0  0  0
  6 18  1  0  0  0  0
  7 13  1  6  0  0  0
  7  2  1  0  0  0  0
  9  8  1  6  0  0  0
  9 15  1  0  0  0  0
  9 11  1  0  0  0  0
 10 31  1  6  0  0  0
 12 10  1  0  0  0  0
 13 14  1  0  0  0  0
 14 22  1  6  0  0  0
 14  1  1  0  0  0  0
 15 18  1  6  0  0  0
 15  7  1  0  0  0  0
 16 29  1  1  0  0  0
 16 12  1  0  0  0  0
 17  6  1  0  0  0  0
 17  8  1  0  0  0  0
 19 25  1  0  0  0  0
 19 20  1  0  0  0  0
 21 23  1  0  0  0  0
 21 24  2  0  0  0  0
 22 25  2  0  0  0  0
 23 19  2  0  0  0  0
 24 22  1  0  0  0  0
 25 26  1  0  0  0  0
 27 28  1  0  0  0  0
 28 23  1  0  0  0  0
 29 30  1  0  0  0  0
 31 32  1  0  0  0  0
M  END
>  <MODEL>
4

>  <REMARK>
 VINA RESULT:      -6.7      3.388      6.810
  Name = 
  4 active torsions:
  status: ('A' for Active; 'I' for Inactive)
    1  A    between atoms: C_13  and  C_29
    2  A    between atoms: CA_14  and  C_21
    3  A    between atoms: C_16  and  CA_27
    4  A    between atoms: C_19  and  C_26
                            x       y       z     vdW  Elec       q    Type
                         _______ _______ _______ _____ _____    ______ ____

>  <TORSDO>
F 4

$$$$
=
 OpenBabel11052419053D

 32 36  0  0  1  0  0  0  0  0999 V2000
  189.5850  174.2150  143.6180 C   0  0  0  0  0  0  0  0  0  0  0  0
  192.0950  174.1950  143.5280 C   0  0  1  0  0  3  0  0  0  0  0  0
  188.5370  173.5360  143.4440 O   0  0  0  0  0  0  0  0  0  0  0  0
  190.7980  173.9150  142.8920 N   0  0  0  0  0  0  0  0  0  0  0  0
  192.9720  175.0160  142.5610 C   0  0  1  0  0  3  0  0  0  0  0  0
  194.5270  177.0500  146.8220 C   0  0  0  0  0  2  0  0  0  0  0  0
  191.9330  174.9220  144.8810 C   0  0  2  0  0  3  0  0  0  0  0  0
  195.2370  176.8830  144.6760 C   0  0  0  0  0  2  0  0  0  0  0  0
  193.9450  176.2490  144.1670 C   0  0  1  0  0  3  0  0  0  0  0  0
  190.8410  173.2360  141.5770 C   0  0  2  0  0  3  0  0  0  0  0  0
  194.2160  175.3330  143.1380 O   0  0  0  0  0  0  0  0  0  0  0  0
  191.7940  173.9640  140.6150 C   0  0  0  0  0  2  0  0  0  0  0  0
  190.9040  175.9530  144.7610 N   0  0  0  0  0  2  0  0  0  0  0  0
  189.5980  175.2930  144.6730 C   0  0  1  0  0  3  0  0  0  0  0  0
  193.2730  175.5140  145.3320 C   0  0  1  0  0  3  0  0  0  0  0  0
  193.1580  174.2590  141.2440 C   0  0  2  0  0  3  0  0  0  0  0  0
  194.9410  177.8000  145.7030 O   0  0  0  0  0  0  0  0  0  0  0  0
  193.1590  176.4170  146.5580 C   0  0  0  0  0  2  0  0  0  0  0  0
  186.5990  177.6290  145.1330 C   0  0  0  0  0  0  0  0  0  0  0  0
  185.4040  178.0710  146.4030 S   0  0  0  0  0  1  0  0  0  0  0  0
  187.5030  177.8870  142.8950 C   0  0  0  0  0  3  0  0  0  0  0  0
  188.5240  176.3120  144.4250 C   0  0  0  0  0  0  0  0  0  0  0  0
  186.5590  178.2370  143.8640 C   0  0  0  0  0  0  0  0  0  0  0  0
  188.4770  176.9300  143.1730 C   0  0  0  0  0  3  0  0  0  0  0  0
  187.5800  176.6630  145.4120 C   0  0  0  0  0  0  0  0  0  0  0  0
  187.6190  176.0560  146.6640 O   0  0  0  0  0  1  0  0  0  0  0  0
  184.3860  178.6810  143.0490 O   0  0  0  0  0  1  0  0  0  0  0  0
  185.5490  179.2840  143.5280 C   0  0  0  0  0  2  0  0  0  0  0  0
  193.9730  172.9810  141.4260 C   0  0  0  0  0  2  0  0  0  0  0  0
  195.2270  173.1260  140.8360 O   0  0  0  0  0  1  0  0  0  0  0  0
  189.4790  173.0790  140.8990 C   0  0  0  0  0  2  0  0  0  0  0  0
  189.1910  174.1830  140.0930 O   0  0  0  0  0  1  0  0  0  0  0  0
  1 14  1  0  0  0  0
  2  4  1  6  0  0  0
  2  7  1  0  0  0  0
  3  1  2  0  0  0  0
  4  1  1  0  0  0  0
  5 11  1  1  0  0  0
  5  2  1  0  0  0  0
  7 13  1  6  0  0  0
  7 15  1  0  0  0  0
  8 17  1  0  0  0  0
  9  8  1  1  0  0  0
  9 15  1  0  0  0  0
 10 31  1  6  0  0  0
 10  4  1  0  0  0  0
 11  9  1  0  0  0  0
 12 16  1  0  0  0  0
 12 10  1  0  0  0  0
 14 22  1  6  0  0  0
 14 13  1  0  0  0  0
 15 18  1  1  0  0  0
 16 29  1  1  0  0  0
 16  5  1  0  0  0  0
 17  6  1  0  0  0  0
 18  6  1  0  0  0  0
 19 25  1  0  0  0  0
 19 20  1  0  0  0  0
 21 24  2  0  0  0  0
 21 23  1  0  0  0  0
 22 25  2  0  0  0  0
 23 19  2  0  0  0  0
 24 22  1  0  0  0  0
 25 26  1  0  0  0  0
 27 28  1  0  0  0  0
 28 23  1  0  0  0  0
 30 29  1  0  0  0  0
 32 31  1  0  0  0  0
M  END
>  <MODEL>
5

>  <REMARK>
 VINA RESULT:      -6.7      2.079      4.921
  Name = 
  4 active torsions:
  status: ('A' for Active; 'I' for Inactive)
    1  A    between atoms: C_13  and  C_29
    2  A    between atoms: CA_14  and  C_21
    3  A    between atoms: C_16  and  CA_27
    4  A    between atoms: C_19  and  C_26
                            x       y       z     vdW  Elec       q    Type
                         _______ _______ _______ _____ _____    ______ ____

>  <TORSDO>
F 4

$$$$
=
 OpenBabel11052419053D

 32 36  0  0  1  0  0  0  0  0999 V2000
  189.7000  174.5240  145.0630 C   0  0  0  0  0  0  0  0  0  0  0  0
  188.1900  174.7980  143.0750 C   0  0  1  0  0  3  0  0  0  0  0  0
  189.7700  174.5410  146.3210 O   0  0  0  0  0  0  0  0  0  0  0  0
  188.7050  175.3000  144.3590 N   0  0  0  0  0  0  0  0  0  0  0  0
  188.2820  175.9150  142.0160 C   0  0  1  0  0  3  0  0  0  0  0  0
  189.1920  172.0390  139.0380 C   0  0  0  0  0  2  0  0  0  0  0  0
  188.9330  173.5270  142.6070 C   0  0  2  0  0  3  0  0  0  0  0  0
  188.5350  174.1990  138.8390 C   0  0  0  0  0  2  0  0  0  0  0  0
  188.7700  174.5350  140.3110 C   0  0  1  0  0  3  0  0  0  0  0  0
  188.0730  176.5280  144.8890 C   0  0  2  0  0  3  0  0  0  0  0  0
  187.8250  175.4720  140.7600 O   0  0  0  0  0  0  0  0  0  0  0  0
  188.0460  177.6350  143.8220 C   0  0  0  0  0  2  0  0  0  0  0  0
  190.3670  173.6860  142.8440 N   0  0  0  0  0  2  0  0  0  0  0  0
  190.6080  173.6010  144.2870 C   0  0  1  0  0  3  0  0  0  0  0  0
  188.6340  173.2480  141.1310 C   0  0  1  0  0  3  0  0  0  0  0  0
  187.5020  177.1480  142.4760 C   0  0  2  0  0  3  0  0  0  0  0  0
  189.4960  173.2640  138.4090 O   0  0  0  0  0  0  0  0  0  0  0  0
  189.4850  172.1270  140.5380 C   0  0  0  0  0  2  0  0  0  0  0  0
  194.3430  173.1660  145.0120 C   0  0  0  0  0  0  0  0  0  0  0  0
  195.5420  171.8400  145.2120 S   0  0  0  0  0  1  0  0  0  0  0  0
  193.7890  175.5290  144.9570 C   0  0  0  0  0  3  0  0  0  0  0  0
  192.0520  173.8820  144.5830 C   0  0  0  0  0  0  0  0  0  0  0  0
  194.7350  174.5140  145.1260 C   0  0  0  0  0  0  0  0  0  0  0  0
  192.4570  175.2150  144.6890 C   0  0  0  0  0  3  0  0  0  0  0  0
  193.0000  172.8510  144.7450 C   0  0  0  0  0  0  0  0  0  0  0  0
  192.6090  171.5190  144.6380 O   0  0  0  0  0  1  0  0  0  0  0  0
  196.7920  175.1930  144.1830 O   0  0  0  0  0  1  0  0  0  0  0  0
  196.1530  174.8980  145.3870 C   0  0  0  0  0  2  0  0  0  0  0  0
  186.0000  176.8840  142.5490 C   0  0  0  0  0  2  0  0  0  0  0  0
  185.3350  177.6490  141.5930 O   0  0  0  0  0  1  0  0  0  0  0  0
  188.7240  177.0800  146.1580 C   0  0  0  0  0  2  0  0  0  0  0  0
  187.7560  177.5420  147.0550 O   0  0  0  0  0  1  0  0  0  0  0  0
  1  3  2  0  0  0  0
  2  4  1  1  0  0  0
  4 10  1  0  0  0  0
  4  1  1  0  0  0  0
  5 11  1  6  0  0  0
  5 16  1  0  0  0  0
  5  2  1  0  0  0  0
  6 18  1  0  0  0  0
  7 13  1  6  0  0  0
  7  2  1  0  0  0  0
  9  8  1  6  0  0  0
  9 11  1  0  0  0  0
  9 15  1  0  0  0  0
 10 31  1  1  0  0  0
 12 10  1  0  0  0  0
 13 14  1  0  0  0  0
 14 22  1  6  0  0  0
 14  1  1  0  0  0  0
 15 18  1  6  0  0  0
 15  7  1  0  0  0  0
 16 29  1  1  0  0  0
 16 12  1  0  0  0  0
 17  8  1  0  0  0  0
 17  6  1  0  0  0  0
 19 23  1  0  0  0  0
 19 20  1  0  0  0  0
 21 23  2  0  0  0  0
 22 24  2  0  0  0  0
 22 25  1  0  0  0  0
 23 28  1  0  0  0  0
 24 21  1  0  0  0  0
 25 19  2  0  0  0  0
 26 25  1  0  0  0  0
 27 28  1  0  0  0  0
 30 29  1  0  0  0  0
 31 32  1  0  0  0  0
M  END
>  <MODEL>
6

>  <REMARK>
 VINA RESULT:      -6.5      3.062      6.636
  Name = 
  4 active torsions:
  status: ('A' for Active; 'I' for Inactive)
    1  A    between atoms: C_13  and  C_29
    2  A    between atoms: CA_14  and  C_21
    3  A    between atoms: C_16  and  CA_27
    4  A    between atoms: C_19  and  C_26
                            x       y       z     vdW  Elec       q    Type
                         _______ _______ _______ _____ _____    ______ ____

>  <TORSDO>
F 4

$$$$
=
 OpenBabel11052419053D

 32 36  0  0  1  0  0  0  0  0999 V2000
  191.7570  176.6700  143.6540 C   0  0  0  0  0  0  0  0  0  0  0  0
  192.6960  174.4100  143.0930 C   0  0  1  0  0  3  0  0  0  0  0  0
  192.0240  177.8270  144.0800 O   0  0  0  0  0  0  0  0  0  0  0  0
  192.5580  175.5300  144.0370 N   0  0  0  0  0  0  0  0  0  0  0  0
  192.3680  173.0880  143.8170 C   0  0  1  0  0  3  0  0  0  0  0  0
  190.5580  171.9090  139.3390 C   0  0  0  0  0  2  0  0  0  0  0  0
  191.8080  174.5920  141.8410 C   0  0  2  0  0  3  0  0  0  0  0  0
  191.2180  170.8400  141.2250 C   0  0  0  0  0  2  0  0  0  0  0  0
  191.3950  172.1200  142.0380 C   0  0  1  0  0  3  0  0  0  0  0  0
  193.3530  175.4460  145.2820 C   0  0  2  0  0  3  0  0  0  0  0  0
  192.4590  171.9870  142.9450 O   0  0  0  0  0  0  0  0  0  0  0  0
  193.1370  174.0930  145.9790 C   0  0  0  0  0  2  0  0  0  0  0  0
  190.4960  175.0930  142.2440 N   0  0  0  0  0  2  0  0  0  0  0  0
  190.6420  176.4930  142.6530 C   0  0  1  0  0  3  0  0  0  0  0  0
  191.6950  173.2720  141.0720 C   0  0  1  0  0  3  0  0  0  0  0  0
  193.2870  172.9050  145.0260 C   0  0  2  0  0  3  0  0  0  0  0  0
  190.1440  170.9940  140.3280 O   0  0  0  0  0  0  0  0  0  0  0  0
  190.6770  173.3140  139.9350 C   0  0  0  0  0  2  0  0  0  0  0  0
  187.6230  177.1480  144.9160 C   0  0  0  0  0  0  0  0  0  0  0  0
  187.0080  176.6590  146.5330 S   0  0  0  0  0  1  0  0  0  0  0  0
  187.3950  178.4150  142.8580 C   0  0  0  0  0  3  0  0  0  0  0  0
  189.3390  177.0090  143.1890 C   0  0  0  0  0  0  0  0  0  0  0  0
  186.8940  178.0400  144.1070 C   0  0  0  0  0  0  0  0  0  0  0  0
  188.6090  177.9020  142.4020 C   0  0  0  0  0  3  0  0  0  0  0  0
  188.8450  176.6290  144.4540 C   0  0  0  0  0  0  0  0  0  0  0  0
  189.5660  175.7430  145.2490 O   0  0  0  0  0  1  0  0  0  0  0  0
  185.4040  179.8670  143.9410 O   0  0  0  0  0  1  0  0  0  0  0  0
  185.6020  178.6340  144.5640 C   0  0  0  0  0  2  0  0  0  0  0  0
  194.7440  172.7040  144.6150 C   0  0  0  0  0  2  0  0  0  0  0  0
  195.4730  172.1830  145.6830 O   0  0  0  0  0  1  0  0  0  0  0  0
  193.0830  176.5690  146.2850 C   0  0  0  0  0  2  0  0  0  0  0  0
  194.2790  177.0920  146.7830 O   0  0  0  0  0  1  0  0  0  0  0  0
  1  4  1  0  0  0  0
  1  3  2  0  0  0  0
  2  5  1  0  0  0  0
  2  4  1  1  0  0  0
  4 10  1  0  0  0  0
  5 11  1  6  0  0  0
  5 16  1  0  0  0  0
  6 18  1  0  0  0  0
  6 17  1  0  0  0  0
  7 13  1  1  0  0  0
  7  2  1  0  0  0  0
  9  8  1  6  0  0  0
  9 11  1  0  0  0  0
 10 12  1  0  0  0  0
 10 31  1  1  0  0  0
 13 14  1  0  0  0  0
 14 22  1  1  0  0  0
 14  1  1  0  0  0  0
 15 18  1  6  0  0  0
 15  7  1  0  0  0  0
 15  9  1  0  0  0  0
 16 29  1  6  0  0  0
 16 12  1  0  0  0  0
 17  8  1  0  0  0  0
 19 20  1  0  0  0  0
 21 23  1  0  0  0  0
 22 25  2  0  0  0  0
 23 28  1  0  0  0  0
 23 19  2  0  0  0  0
 24 21  2  0  0  0  0
 24 22  1  0  0  0  0
 25 19  1  0  0  0  0
 25 26  1  0  0  0  0
 27 28  1  0  0  0  0
 29 30  1  0  0  0  0
 31 32  1  0  0  0  0
M  END
>  <MODEL>
7

>  <REMARK>
 VINA RESULT:      -6.4      1.308      1.628
  Name = 
  4 active torsions:
  status: ('A' for Active; 'I' for Inactive)
    1  A    between atoms: C_13  and  C_29
    2  A    between atoms: CA_14  and  C_21
    3  A    between atoms: C_16  and  CA_27
    4  A    between atoms: C_19  and  C_26
                            x       y       z     vdW  Elec       q    Type
                         _______ _______ _______ _____ _____    ______ ____

>  <TORSDO>
F 4

$$$$
=
 OpenBabel11052419053D

 32 36  0  0  1  0  0  0  0  0999 V2000
  188.2470  175.9940  145.3750 C   0  0  0  0  0  0  0  0  0  0  0  0
  186.5330  176.7210  143.6900 C   0  0  1  0  0  3  0  0  0  0  0  0
  188.4370  175.6170  146.5630 O   0  0  0  0  0  0  0  0  0  0  0  0
  187.1280  176.8410  145.0300 N   0  0  0  0  0  0  0  0  0  0  0  0
  186.4300  178.1200  143.0500 C   0  0  1  0  0  3  0  0  0  0  0  0
  187.3580  175.5190  138.9160 C   0  0  0  0  0  2  0  0  0  0  0  0
  187.3280  175.7540  142.7850 C   0  0  2  0  0  3  0  0  0  0  0  0
  186.5110  177.5440  139.4780 C   0  0  0  0  0  2  0  0  0  0  0  0
  186.8600  177.4180  140.9600 C   0  0  1  0  0  3  0  0  0  0  0  0
  186.4530  177.7600  145.9730 C   0  0  2  0  0  3  0  0  0  0  0  0
  185.8900  178.0540  141.7520 O   0  0  0  0  0  0  0  0  0  0  0  0
  186.2320  179.1390  145.3300 C   0  0  0  0  0  2  0  0  0  0  0  0
  188.7600  175.9840  142.9660 N   0  0  0  0  0  2  0  0  0  0  0  0
  189.1470  175.4710  144.2820 C   0  0  1  0  0  3  0  0  0  0  0  0
  186.9100  175.9290  141.3210 C   0  0  1  0  0  3  0  0  0  0  0  0
  185.6010  179.0500  143.9380 C   0  0  2  0  0  3  0  0  0  0  0  0
  187.4980  176.9040  138.7040 O   0  0  0  0  0  0  0  0  0  0  0  0
  187.7870  175.1550  140.3400 C   0  0  0  0  0  2  0  0  0  0  0  0
  192.8630  175.1650  145.1560 C   0  0  0  0  0  0  0  0  0  0  0  0
  194.0510  173.8930  145.6080 S   0  0  0  0  0  1  0  0  0  0  0  0
  192.3210  177.4840  144.6820 C   0  0  0  0  0  3  0  0  0  0  0  0
  190.5860  175.7980  144.5580 C   0  0  0  0  0  0  0  0  0  0  0  0
  193.2580  176.5120  145.0440 C   0  0  0  0  0  0  0  0  0  0  0  0
  190.9940  177.1290  144.4430 C   0  0  0  0  0  3  0  0  0  0  0  0
  191.5250  174.8090  144.9170 C   0  0  0  0  0  0  0  0  0  0  0  0
  191.1310  173.4790  145.0310 O   0  0  0  0  0  1  0  0  0  0  0  0
  195.4000  176.7900  144.0870 O   0  0  0  0  0  1  0  0  0  0  0  0
  194.6720  176.9350  145.2680 C   0  0  0  0  0  2  0  0  0  0  0  0
  184.1400  178.6150  144.0200 C   0  0  0  0  0  2  0  0  0  0  0  0
  183.5810  179.0440  145.2230 O   0  0  0  0  0  1  0  0  0  0  0  0
  187.1770  177.9460  147.3080 C   0  0  0  0  0  2  0  0  0  0  0  0
  186.2830  177.8550  148.3780 O   0  0  0  0  0  1  0  0  0  0  0  0
  1  3  2  0  0  0  0
  2  4  1  1  0  0  0
  4  1  1  0  0  0  0
  4 10  1  0  0  0  0
  5 11  1  6  0  0  0
  5  2  1  0  0  0  0
  5 16  1  0  0  0  0
  6 18  1  0  0  0  0
  7 13  1  6  0  0  0
  7  2  1  0  0  0  0
  9  8  1  6  0  0  0
  9 15  1  0  0  0  0
  9 11  1  0  0  0  0
 10 31  1  1  0  0  0
 12 10  1  0  0  0  0
 13 14  1  0  0  0  0
 14 22  1  1  0  0  0
 14  1  1  0  0  0  0
 15 18  1  6  0  0  0
 15  7  1  0  0  0  0
 16 29  1  1  0  0  0
 16 12  1  0  0  0  0
 17  6  1  0  0  0  0
 17  8  1  0  0  0  0
 19 20  1  0  0  0  0
 21 23  2  0  0  0  0
 22 25  1  0  0  0  0
 23 19  1  0  0  0  0
 23 28  1  0  0  0  0
 24 22  2  0  0  0  0
 24 21  1  0  0  0  0
 25 26  1  0  0  0  0
 25 19  2  0  0  0  0
 27 28  1  0  0  0  0
 29 30  1  0  0  0  0
 31 32  1  0  0  0  0
M  END
>  <MODEL>
8

>  <REMARK>
 VINA RESULT:      -6.2      3.275      7.149
  Name = 
  4 active torsions:
  status: ('A' for Active; 'I' for Inactive)
    1  A    between atoms: C_13  and  C_29
    2  A    between atoms: CA_14  and  C_21
    3  A    between atoms: C_16  and  CA_27
    4  A    between atoms: C_19  and  C_26
                            x       y       z     vdW  Elec       q    Type
                         _______ _______ _______ _____ _____    ______ ____

>  <TORSDO>
F 4

$$$$
=
 OpenBabel11052419053D

 32 36  0  0  1  0  0  0  0  0999 V2000
  190.2960  172.9300  143.7240 C   0  0  0  0  0  0  0  0  0  0  0  0
  192.4270  173.1760  142.4190 C   0  0  1  0  0  3  0  0  0  0  0  0
  189.2930  172.1970  143.9430 O   0  0  0  0  0  0  0  0  0  0  0  0
  190.9830  172.8960  142.4530 N   0  0  0  0  0  0  0  0  0  0  0  0
  192.7140  174.2490  141.3490 C   0  0  1  0  0  3  0  0  0  0  0  0
  196.2050  175.5740  144.6310 C   0  0  0  0  0  2  0  0  0  0  0  0
  192.9680  173.6110  143.7990 C   0  0  2  0  0  3  0  0  0  0  0  0
  195.7500  175.8920  142.4340 C   0  0  0  0  0  2  0  0  0  0  0  0
  194.3700  175.2420  142.4980 C   0  0  1  0  0  3  0  0  0  0  0  0
  190.3580  172.4900  141.1750 C   0  0  2  0  0  3  0  0  0  0  0  0
  194.0830  174.5720  141.2970 O   0  0  0  0  0  0  0  0  0  0  0  0
  190.7130  173.4790  140.0530 C   0  0  0  0  0  2  0  0  0  0  0  0
  192.0260  174.5390  144.4210 N   0  0  0  0  0  2  0  0  0  0  0  0
  190.8430  173.7830  144.8420 C   0  0  1  0  0  3  0  0  0  0  0  0
  194.3600  174.2350  143.6530 C   0  0  1  0  0  3  0  0  0  0  0  0
  192.2120  173.7810  139.9810 C   0  0  2  0  0  3  0  0  0  0  0  0
  196.0140  176.5610  143.6440 O   0  0  0  0  0  0  0  0  0  0  0  0
  194.8800  174.8720  144.9400 C   0  0  0  0  0  2  0  0  0  0  0  0
  188.2020  176.5430  145.1120 C   0  0  0  0  0  0  0  0  0  0  0  0
  187.4200  177.7800  144.0680 S   0  0  0  0  0  1  0  0  0  0  0  0
  188.4600  175.4420  147.2600 C   0  0  0  0  0  3  0  0  0  0  0  0
  189.7990  174.7190  145.3760 C   0  0  0  0  0  0  0  0  0  0  0  0
  187.8470  176.4170  146.4690 C   0  0  0  0  0  0  0  0  0  0  0  0
  189.4300  174.6000  146.7180 C   0  0  0  0  0  3  0  0  0  0  0  0
  189.1820  175.6960  144.5670 C   0  0  0  0  0  0  0  0  0  0  0  0
  189.5390  175.8210  143.2270 O   0  0  0  0  0  1  0  0  0  0  0  0
  185.5330  176.7610  146.8010 O   0  0  0  0  0  1  0  0  0  0  0  0
  186.7970  177.2790  147.0870 C   0  0  0  0  0  2  0  0  0  0  0  0
  192.9950  172.5780  139.4620 C   0  0  0  0  0  2  0  0  0  0  0  0
  192.4180  172.1050  138.2850 O   0  0  0  0  0  1  0  0  0  0  0  0
  188.8380  172.3310  141.2330 C   0  0  0  0  0  2  0  0  0  0  0  0
  188.1990  173.4240  140.6420 O   0  0  0  0  0  1  0  0  0  0  0  0
  1  3  2  0  0  0  0
  1 14  1  0  0  0  0
  2  4  1  1  0  0  0
  2  7  1  0  0  0  0
  4  1  1  0  0  0  0
  5 11  1  6  0  0  0
  5  2  1  0  0  0  0
  6 18  1  0  0  0  0
  7 13  1  6  0  0  0
  8 17  1  0  0  0  0
  9  8  1  6  0  0  0
  9 15  1  0  0  0  0
 10 31  1  1  0  0  0
 10  4  1  0  0  0  0
 11  9  1  0  0  0  0
 12 10  1  0  0  0  0
 13 14  1  0  0  0  0
 14 22  1  6  0  0  0
 15  7  1  0  0  0  0
 15 18  1  1  0  0  0
 16 29  1  1  0  0  0
 16 12  1  0  0  0  0
 16  5  1  0  0  0  0
 17  6  1  0  0  0  0
 19 23  1  0  0  0  0
 20 19  1  0  0  0  0
 22 24  2  0  0  0  0
 23 28  1  0  0  0  0
 23 21  2  0  0  0  0
 24 21  1  0  0  0  0
 25 19  2  0  0  0  0
 25 22  1  0  0  0  0
 26 25  1  0  0  0  0
 27 28  1  0  0  0  0
 30 29  1  0  0  0  0
 32 31  1  0  0  0  0
M  END
>  <MODEL>
9

>  <REMARK>
 VINA RESULT:      -6.2      2.209      4.933
  Name = 
  4 active torsions:
  status: ('A' for Active; 'I' for Inactive)
    1  A    between atoms: C_13  and  C_29
    2  A    between atoms: CA_14  and  C_21
    3  A    between atoms: C_16  and  CA_27
    4  A    between atoms: C_19  and  C_26
                            x       y       z     vdW  Elec       q    Type
                         _______ _______ _______ _____ _____    ______ ____

>  <TORSDO>
F 4

$$$$
