=
 OpenBabel11052417543D

 31 34  0  0  1  0  0  0  0  0999 V2000
  185.5550  178.2010  140.8940 C   0  0  0  0  0  0  0  0  0  0  0  0
  187.3280  177.1790  144.0140 C   0  0  0  0  0  0  0  0  0  0  0  0
  186.5260  177.8960  145.0850 C   0  0  1  0  0  3  0  0  0  0  0  0
  184.4470  177.5650  146.6020 C   0  0  0  0  0  2  0  0  0  0  0  0
  186.9740  177.2990  142.6520 C   0  0  0  0  0  0  0  0  0  0  0  0
  186.2940  177.5050  139.9330 C   0  0  0  0  0  3  0  0  0  0  0  0
  185.1510  177.2280  145.2730 C   0  0  0  0  0  2  0  0  0  0  0  0
  189.1750  175.6970  143.3890 C   0  0  0  0  0  0  0  0  0  0  0  0
  184.5100  178.9750  140.5140 F   0  0  0  0  0  0  0  0  0  0  0  0
  188.6330  177.6090  146.5120 C   0  0  0  0  0  2  0  0  0  0  0  0
  185.0470  178.7630  147.3410 C   0  0  0  0  0  2  0  0  0  0  0  0
  188.8000  175.8110  142.0450 C   0  0  0  0  0  3  0  0  0  0  0  0
  188.4460  176.3890  144.3720 C   0  0  0  0  0  0  0  0  0  0  0  0
  185.8940  178.1000  142.2460 C   0  0  0  0  0  3  0  0  0  0  0  0
  187.1070  178.8630  148.5480 O   0  0  0  0  0  0  0  0  0  0  0  0
  187.7170  176.6030  141.6710 C   0  0  0  0  0  0  0  0  0  0  0  0
  187.3730  176.7080  140.3210 C   0  0  0  0  0  3  0  0  0  0  0  0
  188.8490  176.2770  145.8140 C   0  0  0  0  0  2  0  0  0  0  0  0
  187.2360  178.0040  146.3690 N   0  0  0  0  0  0  0  0  0  0  0  0
  186.5170  178.5550  147.4770 C   0  0  0  0  0  0  0  0  0  0  0  0
  192.0520  176.3540  143.2820 O   0  0  0  0  0  0  0  0  0  0  0  0
  191.6820  175.2140  143.6770 C   0  0  0  0  0  0  0  0  0  0  0  0
  190.2920  174.8790  143.7790 N   0  0  0  0  0  2  0  0  0  0  0  0
  192.1770  173.3630  145.0530 O   0  0  0  0  0  1  0  0  0  0  0  0
  192.7020  174.1900  144.0590 C   0  0  2  0  0  3  0  0  0  0  0  0
  195.2000  174.1760  143.9060 C   0  0  0  0  0  1  0  0  0  0  0  0
  193.9950  174.8510  144.5440 C   0  0  2  0  0  3  0  0  0  0  0  0
  194.0970  174.7460  145.9440 O   0  0  0  0  0  0  0  0  0  0  0  0
  193.9620  176.0310  146.5180 C   0  0  1  0  0  3  0  0  0  0  0  0
  194.5680  177.1290  145.6520 C   0  0  0  0  0  1  0  0  0  0  0  0
  192.6330  176.3240  146.8450 O   0  0  0  0  0  1  0  0  0  0  0  0
  1 14  1  0  0  0  0
  2 13  2  0  0  0  0
  2  3  1  0  0  0  0
  3  7  1  1  0  0  0
  3 19  1  0  0  0  0
  4 11  1  0  0  0  0
  5  2  1  0  0  0  0
  6 17  1  0  0  0  0
  6  1  2  0  0  0  0
  7  4  1  0  0  0  0
  8 23  1  0  0  0  0
  8 13  1  0  0  0  0
  9  1  1  0  0  0  0
 11 20  1  0  0  0  0
 12  8  2  0  0  0  0
 13 18  1  0  0  0  0
 14  5  2  0  0  0  0
 16 12  1  0  0  0  0
 16  5  1  0  0  0  0
 17 16  2  0  0  0  0
 18 10  1  0  0  0  0
 19 10  1  0  0  0  0
 19 20  1  0  0  0  0
 20 15  2  0  0  0  0
 21 22  2  0  0  0  0
 22 23  1  0  0  0  0
 22 25  1  0  0  0  0
 25 27  1  0  0  0  0
 25 24  1  1  0  0  0
 27 26  1  6  0  0  0
 27 28  1  0  0  0  0
 28 29  1  0  0  0  0
 29 30  1  6  0  0  0
 29 31  1  0  0  0  0
M  END
>  <MODEL>
1

>  <REMARK>
 VINA RESULT:      -7.8      0.000      0.000
  Name = 
  5 active torsions:
  status: ('A' for Active; 'I' for Inactive)
    1  A    between atoms: C_1  and  O_24
    2  A    between atoms: C_9  and  C_22
    3  A    between atoms: C_15  and  N_23
    4  A    between atoms: C_19  and  C_22
    5  A    between atoms: C_19  and  O_24
                            x       y       z     vdW  Elec       q    Type
                         _______ _______ _______ _____ _____    ______ ____

>  <TORSDO>
F 5

$$$$
=
 OpenBabel11052417543D

 31 34  0  0  1  0  0  0  0  0999 V2000
  185.8100  178.1870  146.4890 C   0  0  0  0  0  0  0  0  0  0  0  0
  188.7240  176.6250  144.7580 C   0  0  0  0  0  0  0  0  0  0  0  0
  189.8080  176.7150  145.8170 C   0  0  1  0  0  3  0  0  0  0  0  0
  190.7710  175.3920  147.8310 C   0  0  0  0  0  2  0  0  0  0  0  0
  187.4240  177.1130  145.0200 C   0  0  0  0  0  0  0  0  0  0  0  0
  184.8240  178.0620  145.5060 C   0  0  0  0  0  3  0  0  0  0  0  0
  189.5440  175.7110  146.9540 C   0  0  0  0  0  2  0  0  0  0  0  0
  188.0020  175.9420  142.5190 C   0  0  0  0  0  0  0  0  0  0  0  0
  185.5110  178.7640  147.6770 F   0  0  0  0  0  0  0  0  0  0  0  0
  191.4180  176.4810  143.8400 C   0  0  0  0  0  2  0  0  0  0  0  0
  191.9320  176.3730  147.6620 C   0  0  0  0  0  2  0  0  0  0  0  0
  186.7150  176.4130  142.8010 C   0  0  0  0  0  3  0  0  0  0  0  0
  189.0100  176.0570  143.4940 C   0  0  0  0  0  0  0  0  0  0  0  0
  187.1030  177.7160  146.2470 C   0  0  0  0  0  3  0  0  0  0  0  0
  193.4460  176.5540  145.8220 O   0  0  0  0  0  0  0  0  0  0  0  0
  186.4200  176.9960  144.0310 C   0  0  0  0  0  0  0  0  0  0  0  0
  185.1290  177.4680  144.2800 C   0  0  0  0  0  3  0  0  0  0  0  0
  190.3950  175.5630  143.1950 C   0  0  0  0  0  2  0  0  0  0  0  0
  191.1650  176.5480  145.2750 N   0  0  0  0  0  0  0  0  0  0  0  0
  192.2490  176.4960  146.2090 C   0  0  0  0  0  0  0  0  0  0  0  0
  187.8920  173.0870  141.7760 O   0  0  0  0  0  0  0  0  0  0  0  0
  188.2840  173.9410  140.9340 C   0  0  0  0  0  0  0  0  0  0  0  0
  188.3100  175.3380  141.2510 N   0  0  0  0  0  2  0  0  0  0  0  0
  187.9300  172.4260  139.1600 O   0  0  0  0  0  1  0  0  0  0  0  0
  188.7210  173.5000  139.5740 C   0  0  2  0  0  3  0  0  0  0  0  0
  190.8600  173.5660  138.2780 C   0  0  0  0  0  1  0  0  0  0  0  0
  190.2000  173.1060  139.5680 C   0  0  2  0  0  3  0  0  0  0  0  0
  190.3290  171.7080  139.6770 O   0  0  0  0  0  0  0  0  0  0  0  0
  191.0450  171.3970  140.8560 C   0  0  1  0  0  3  0  0  0  0  0  0
  191.7820  172.6000  141.4310 C   0  0  0  0  0  1  0  0  0  0  0  0
  190.2310  170.7970  141.8230 O   0  0  0  0  0  1  0  0  0  0  0  0
  1  9  1  0  0  0  0
  2  5  1  0  0  0  0
  2  3  1  0  0  0  0
  3  7  1  1  0  0  0
  5 14  2  0  0  0  0
  6  1  2  0  0  0  0
  7  4  1  0  0  0  0
  8 12  2  0  0  0  0
  8 13  1  0  0  0  0
 10 19  1  0  0  0  0
 11  4  1  0  0  0  0
 12 16  1  0  0  0  0
 13  2  2  0  0  0  0
 14  1  1  0  0  0  0
 15 20  2  0  0  0  0
 16 17  2  0  0  0  0
 16  5  1  0  0  0  0
 17  6  1  0  0  0  0
 18 13  1  0  0  0  0
 18 10  1  0  0  0  0
 19  3  1  0  0  0  0
 19 20  1  0  0  0  0
 20 11  1  0  0  0  0
 22 23  1  0  0  0  0
 22 21  2  0  0  0  0
 23  8  1  0  0  0  0
 25 24  1  1  0  0  0
 25 22  1  0  0  0  0
 27 26  1  6  0  0  0
 27 25  1  0  0  0  0
 27 28  1  0  0  0  0
 28 29  1  0  0  0  0
 29 30  1  1  0  0  0
 29 31  1  0  0  0  0
M  END
>  <MODEL>
2

>  <REMARK>
 VINA RESULT:      -7.6      3.235      5.480
  Name = 
  5 active torsions:
  status: ('A' for Active; 'I' for Inactive)
    1  A    between atoms: C_1  and  O_24
    2  A    between atoms: C_9  and  C_22
    3  A    between atoms: C_15  and  N_23
    4  A    between atoms: C_19  and  C_22
    5  A    between atoms: C_19  and  O_24
                            x       y       z     vdW  Elec       q    Type
                         _______ _______ _______ _____ _____    ______ ____

>  <TORSDO>
F 5

$$$$
=
 OpenBabel11052417543D

 31 34  0  0  1  0  0  0  0  0999 V2000
  193.8250  174.7720  145.5910 C   0  0  0  0  0  0  0  0  0  0  0  0
  190.5010  174.9670  143.9080 C   0  0  0  0  0  0  0  0  0  0  0  0
  190.5940  173.8460  142.8890 C   0  0  1  0  0  3  0  0  0  0  0  0
  190.1500  171.3010  142.6490 C   0  0  0  0  0  2  0  0  0  0  0  0
  191.5790  175.2350  144.7800 C   0  0  0  0  0  0  0  0  0  0  0  0
  193.6990  175.7900  146.5400 C   0  0  0  0  0  3  0  0  0  0  0  0
  190.5150  172.4730  143.5810 C   0  0  0  0  0  2  0  0  0  0  0  0
  189.2260  176.7800  144.9500 C   0  0  0  0  0  0  0  0  0  0  0  0
  194.9700  174.0520  145.5200 F   0  0  0  0  0  0  0  0  0  0  0  0
  188.7300  175.1190  141.6790 C   0  0  0  0  0  2  0  0  0  0  0  0
  190.2770  171.6240  141.1590 C   0  0  0  0  0  2  0  0  0  0  0  0
  190.2960  177.0210  145.8200 C   0  0  0  0  0  3  0  0  0  0  0  0
  189.3320  175.7600  143.9880 C   0  0  0  0  0  0  0  0  0  0  0  0
  192.7720  174.4960  144.7160 C   0  0  0  0  0  3  0  0  0  0  0  0
  188.8340  172.9780  139.8210 O   0  0  0  0  0  0  0  0  0  0  0  0
  191.4640  176.2660  145.7410 C   0  0  0  0  0  0  0  0  0  0  0  0
  192.5200  176.5360  146.6150 C   0  0  0  0  0  3  0  0  0  0  0  0
  188.1910  175.5040  143.0460 C   0  0  0  0  0  2  0  0  0  0  0  0
  189.5930  173.9510  141.8160 N   0  0  0  0  0  0  0  0  0  0  0  0
  189.5200  172.8760  140.8730 C   0  0  0  0  0  0  0  0  0  0  0  0
  186.9850  176.4940  146.8510 O   0  0  0  0  0  0  0  0  0  0  0  0
  186.9290  177.3660  145.9410 C   0  0  0  0  0  0  0  0  0  0  0  0
  188.0180  177.5570  145.0290 N   0  0  0  0  0  2  0  0  0  0  0  0
  184.5940  177.5190  146.2410 O   0  0  0  0  0  1  0  0  0  0  0  0
  185.7160  178.2290  145.8100 C   0  0  2  0  0  3  0  0  0  0  0  0
  185.2970  180.2050  144.3320 C   0  0  0  0  0  1  0  0  0  0  0  0
  185.5250  178.7010  144.3670 C   0  0  2  0  0  3  0  0  0  0  0  0
  184.4170  178.0550  143.7880 O   0  0  0  0  0  0  0  0  0  0  0  0
  184.3820  178.3400  142.4040 C   0  0  1  0  0  3  0  0  0  0  0  0
  185.4960  177.6450  141.6320 C   0  0  0  0  0  1  0  0  0  0  0  0
  183.1310  178.0630  141.8410 O   0  0  0  0  0  1  0  0  0  0  0  0
  1  6  1  0  0  0  0
  2 13  2  0  0  0  0
  2  5  1  0  0  0  0
  3  7  1  1  0  0  0
  3  2  1  0  0  0  0
  4  7  1  0  0  0  0
  5 16  2  0  0  0  0
  6 17  2  0  0  0  0
  8 23  1  0  0  0  0
  8 12  2  0  0  0  0
  9  1  1  0  0  0  0
 10 19  1  0  0  0  0
 10 18  1  0  0  0  0
 11  4  1  0  0  0  0
 13  8  1  0  0  0  0
 14  5  1  0  0  0  0
 14  1  2  0  0  0  0
 15 20  2  0  0  0  0
 16 12  1  0  0  0  0
 16 17  1  0  0  0  0
 18 13  1  0  0  0  0
 19  3  1  0  0  0  0
 20 11  1  0  0  0  0
 20 19  1  0  0  0  0
 22 21  2  0  0  0  0
 23 22  1  0  0  0  0
 25 22  1  0  0  0  0
 25 24  1  6  0  0  0
 27 26  1  1  0  0  0
 27 25  1  0  0  0  0
 28 27  1  0  0  0  0
 29 30  1  6  0  0  0
 29 28  1  0  0  0  0
 31 29  1  0  0  0  0
M  END
>  <MODEL>
3

>  <REMARK>
 VINA RESULT:      -7.6      3.623      8.151
  Name = 
  5 active torsions:
  status: ('A' for Active; 'I' for Inactive)
    1  A    between atoms: C_1  and  O_24
    2  A    between atoms: C_9  and  C_22
    3  A    between atoms: C_15  and  N_23
    4  A    between atoms: C_19  and  C_22
    5  A    between atoms: C_19  and  O_24
                            x       y       z     vdW  Elec       q    Type
                         _______ _______ _______ _____ _____    ______ ____

>  <TORSDO>
F 5

$$$$
=
 OpenBabel11052417543D

 31 34  0  0  1  0  0  0  0  0999 V2000
  185.0060  178.0940  146.3190 C   0  0  0  0  0  0  0  0  0  0  0  0
  187.9850  177.0290  144.3400 C   0  0  0  0  0  0  0  0  0  0  0  0
  187.3820  176.7710  142.9710 C   0  0  1  0  0  3  0  0  0  0  0  0
  186.8160  178.0010  140.7560 C   0  0  0  0  0  2  0  0  0  0  0  0
  187.1730  177.4680  145.4100 C   0  0  0  0  0  0  0  0  0  0  0  0
  185.5940  178.3530  147.5600 C   0  0  0  0  0  3  0  0  0  0  0  0
  187.0070  178.0980  142.2830 C   0  0  0  0  0  2  0  0  0  0  0  0
  189.9390  177.0880  145.8160 C   0  0  0  0  0  0  0  0  0  0  0  0
  183.6740  178.2720  146.1520 F   0  0  0  0  0  0  0  0  0  0  0  0
  189.4620  175.3260  142.5950 C   0  0  0  0  0  2  0  0  0  0  0  0
  186.6770  176.5700  140.2330 C   0  0  0  0  0  2  0  0  0  0  0  0
  189.1250  177.5410  146.8600 C   0  0  0  0  0  3  0  0  0  0  0  0
  189.3670  176.8220  144.5580 C   0  0  0  0  0  0  0  0  0  0  0  0
  185.7910  177.6530  145.2500 C   0  0  0  0  0  3  0  0  0  0  0  0
  188.3870  174.9180  140.0020 O   0  0  0  0  0  0  0  0  0  0  0  0
  187.7580  177.7270  146.6710 C   0  0  0  0  0  0  0  0  0  0  0  0
  186.9670  178.1690  147.7350 C   0  0  0  0  0  3  0  0  0  0  0  0
  190.2340  176.3270  143.4370 C   0  0  0  0  0  2  0  0  0  0  0  0
  188.2420  175.9550  142.1010 N   0  0  0  0  0  0  0  0  0  0  0  0
  187.8170  175.7580  140.7480 C   0  0  0  0  0  0  0  0  0  0  0  0
  191.3990  174.5590  146.2530 O   0  0  0  0  0  0  0  0  0  0  0  0
  192.0250  175.6550  146.2570 C   0  0  0  0  0  0  0  0  0  0  0  0
  191.3510  176.8950  146.0070 N   0  0  0  0  0  2  0  0  0  0  0  0
  193.8780  176.9440  146.9440 O   0  0  0  0  0  1  0  0  0  0  0  0
  193.4970  175.6710  146.5140 C   0  0  2  0  0  3  0  0  0  0  0  0
  195.5480  174.5260  145.6520 C   0  0  0  0  0  1  0  0  0  0  0  0
  194.2830  175.2750  145.2630 C   0  0  2  0  0  3  0  0  0  0  0  0
  194.6360  176.4230  144.5280 O   0  0  0  0  0  0  0  0  0  0  0  0
  195.1740  176.0310  143.2810 C   0  0  1  0  0  3  0  0  0  0  0  0
  194.1370  176.0420  142.1640 C   0  0  0  0  0  1  0  0  0  0  0  0
  196.2970  176.7880  142.9310 O   0  0  0  0  0  1  0  0  0  0  0  0
  1  6  1  0  0  0  0
  2 13  2  0  0  0  0
  2  5  1  0  0  0  0
  3  7  1  6  0  0  0
  3  2  1  0  0  0  0
  4  7  1  0  0  0  0
  5 16  2  0  0  0  0
  6 17  2  0  0  0  0
  8 23  1  0  0  0  0
  8 12  2  0  0  0  0
  9  1  1  0  0  0  0
 10 18  1  0  0  0  0
 11 20  1  0  0  0  0
 11  4  1  0  0  0  0
 13  8  1  0  0  0  0
 14  5  1  0  0  0  0
 14  1  2  0  0  0  0
 15 20  2  0  0  0  0
 16 12  1  0  0  0  0
 16 17  1  0  0  0  0
 18 13  1  0  0  0  0
 19 10  1  0  0  0  0
 19  3  1  0  0  0  0
 20 19  1  0  0  0  0
 21 22  2  0  0  0  0
 22 25  1  0  0  0  0
 23 22  1  0  0  0  0
 25 24  1  6  0  0  0
 27 26  1  1  0  0  0
 27 25  1  0  0  0  0
 28 27  1  0  0  0  0
 29 30  1  6  0  0  0
 29 28  1  0  0  0  0
 31 29  1  0  0  0  0
M  END
>  <MODEL>
4

>  <REMARK>
 VINA RESULT:      -7.6      2.212      4.735
  Name = 
  5 active torsions:
  status: ('A' for Active; 'I' for Inactive)
    1  A    between atoms: C_1  and  O_24
    2  A    between atoms: C_9  and  C_22
    3  A    between atoms: C_15  and  N_23
    4  A    between atoms: C_19  and  C_22
    5  A    between atoms: C_19  and  O_24
                            x       y       z     vdW  Elec       q    Type
                         _______ _______ _______ _____ _____    ______ ____

>  <TORSDO>
F 5

$$$$
=
 OpenBabel11052417543D

 31 34  0  0  1  0  0  0  0  0999 V2000
  191.7810  173.1570  140.6270 C   0  0  0  0  0  0  0  0  0  0  0  0
  190.0870  174.9210  143.4460 C   0  0  0  0  0  0  0  0  0  0  0  0
  191.1770  174.9530  144.5020 C   0  0  1  0  0  3  0  0  0  0  0  0
  193.1780  176.4070  145.2860 C   0  0  0  0  0  2  0  0  0  0  0  0
  190.3260  174.3280  142.1860 C   0  0  0  0  0  0  0  0  0  0  0  0
  190.7680  173.1700  139.6640 C   0  0  0  0  0  3  0  0  0  0  0  0
  192.2770  175.9600  144.1180 C   0  0  0  0  0  2  0  0  0  0  0  0
  187.8100  175.4790  142.7350 C   0  0  0  0  0  0  0  0  0  0  0  0
  192.9760  172.5870  140.3440 F   0  0  0  0  0  0  0  0  0  0  0  0
  189.2390  175.2740  146.1440 C   0  0  0  0  0  2  0  0  0  0  0  0
  193.0680  175.5270  146.5320 C   0  0  0  0  0  2  0  0  0  0  0  0
  188.0700  174.9050  141.4850 C   0  0  0  0  0  3  0  0  0  0  0  0
  188.8150  175.4780  143.7190 C   0  0  0  0  0  0  0  0  0  0  0  0
  191.5610  173.7330  141.8820 C   0  0  0  0  0  3  0  0  0  0  0  0
  191.2770  175.4310  148.1110 O   0  0  0  0  0  0  0  0  0  0  0  0
  189.3070  174.3310  141.2060 C   0  0  0  0  0  0  0  0  0  0  0  0
  189.5340  173.7550  139.9530 C   0  0  0  0  0  3  0  0  0  0  0  0
  188.5400  176.0830  145.0650 C   0  0  0  0  0  2  0  0  0  0  0  0
  190.6680  175.2230  145.8550 N   0  0  0  0  0  0  0  0  0  0  0  0
  191.6300  175.3940  146.9020 C   0  0  0  0  0  0  0  0  0  0  0  0
  186.9050  178.2350  142.1840 O   0  0  0  0  0  0  0  0  0  0  0  0
  186.1390  177.4300  142.7810 C   0  0  0  0  0  0  0  0  0  0  0  0
  186.5340  176.0740  143.0270 N   0  0  0  0  0  2  0  0  0  0  0  0
  184.2040  178.6640  142.2380 O   0  0  0  0  0  1  0  0  0  0  0  0
  184.7890  177.8840  143.2360 C   0  0  2  0  0  3  0  0  0  0  0  0
  185.2170  180.1280  144.2560 C   0  0  0  0  0  1  0  0  0  0  0  0
  184.8820  178.6730  144.5440 C   0  0  2  0  0  3  0  0  0  0  0  0
  185.8820  178.1260  145.3700 O   0  0  0  0  0  0  0  0  0  0  0  0
  185.2740  177.4470  146.4500 C   0  0  1  0  0  3  0  0  0  0  0  0
  186.2070  177.2860  147.6440 C   0  0  0  0  0  1  0  0  0  0  0  0
  184.0660  178.0410  146.8320 O   0  0  0  0  0  1  0  0  0  0  0  0
  1 14  1  0  0  0  0
  2 13  2  0  0  0  0
  2  3  1  0  0  0  0
  3  7  1  6  0  0  0
  3 19  1  0  0  0  0
  4 11  1  0  0  0  0
  5  2  1  0  0  0  0
  6 17  1  0  0  0  0
  6  1  2  0  0  0  0
  7  4  1  0  0  0  0
  8 23  1  0  0  0  0
  8 13  1  0  0  0  0
  9  1  1  0  0  0  0
 11 20  1  0  0  0  0
 12  8  2  0  0  0  0
 13 18  1  0  0  0  0
 14  5  2  0  0  0  0
 16 12  1  0  0  0  0
 16  5  1  0  0  0  0
 17 16  2  0  0  0  0
 18 10  1  0  0  0  0
 19 10  1  0  0  0  0
 19 20  1  0  0  0  0
 20 15  2  0  0  0  0
 21 22  2  0  0  0  0
 22 23  1  0  0  0  0
 22 25  1  0  0  0  0
 25 24  1  6  0  0  0
 25 27  1  0  0  0  0
 27 26  1  6  0  0  0
 27 28  1  0  0  0  0
 28 29  1  0  0  0  0
 29 31  1  0  0  0  0
 29 30  1  1  0  0  0
M  END
>  <MODEL>
5

>  <REMARK>
 VINA RESULT:      -7.5      3.249      6.860
  Name = 
  5 active torsions:
  status: ('A' for Active; 'I' for Inactive)
    1  A    between atoms: C_1  and  O_24
    2  A    between atoms: C_9  and  C_22
    3  A    between atoms: C_15  and  N_23
    4  A    between atoms: C_19  and  C_22
    5  A    between atoms: C_19  and  O_24
                            x       y       z     vdW  Elec       q    Type
                         _______ _______ _______ _____ _____    ______ ____

>  <TORSDO>
F 5

$$$$
=
 OpenBabel11052417543D

 31 34  0  0  1  0  0  0  0  0999 V2000
  184.6420  178.0860  146.0750 C   0  0  0  0  0  0  0  0  0  0  0  0
  187.4540  176.4910  144.2100 C   0  0  0  0  0  0  0  0  0  0  0  0
  186.9990  176.6320  142.7680 C   0  0  1  0  0  3  0  0  0  0  0  0
  187.1110  178.2900  140.7750 C   0  0  0  0  0  2  0  0  0  0  0  0
  186.6550  176.9860  145.2650 C   0  0  0  0  0  0  0  0  0  0  0  0
  185.1000  177.9690  147.3900 C   0  0  0  0  0  3  0  0  0  0  0  0
  187.1070  178.0970  142.3050 C   0  0  0  0  0  2  0  0  0  0  0  0
  189.1220  175.7460  145.8410 C   0  0  0  0  0  0  0  0  0  0  0  0
  183.4480  178.6730  145.8250 F   0  0  0  0  0  0  0  0  0  0  0  0
  188.6280  174.7070  142.3230 C   0  0  0  0  0  2  0  0  0  0  0  0
  186.6540  177.0600  139.9890 C   0  0  0  0  0  2  0  0  0  0  0  0
  188.3290  176.2590  146.8740 C   0  0  0  0  0  3  0  0  0  0  0  0
  188.6800  175.8530  144.5100 C   0  0  0  0  0  0  0  0  0  0  0  0
  185.4140  177.5960  145.0180 C   0  0  0  0  0  3  0  0  0  0  0  0
  187.8540  175.0280  139.6130 O   0  0  0  0  0  0  0  0  0  0  0  0
  187.1070  176.8700  146.6000 C   0  0  0  0  0  0  0  0  0  0  0  0
  186.3300  177.3620  147.6520 C   0  0  0  0  0  3  0  0  0  0  0  0
  189.5230  175.2970  143.4000 C   0  0  0  0  0  2  0  0  0  0  0  0
  187.7110  175.7360  141.8440 N   0  0  0  0  0  0  0  0  0  0  0  0
  187.4410  175.8790  140.4460 C   0  0  0  0  0  0  0  0  0  0  0  0
  191.7810  177.0060  146.0940 O   0  0  0  0  0  0  0  0  0  0  0  0
  191.6660  175.7530  146.1970 C   0  0  0  0  0  0  0  0  0  0  0  0
  190.3850  175.1170  146.1200 N   0  0  0  0  0  2  0  0  0  0  0  0
  193.9220  175.7110  146.8870 O   0  0  0  0  0  1  0  0  0  0  0  0
  192.8810  174.9100  146.4150 C   0  0  2  0  0  3  0  0  0  0  0  0
  193.6500  172.7470  145.4190 C   0  0  0  0  0  1  0  0  0  0  0  0
  193.2990  174.1970  145.1270 C   0  0  2  0  0  3  0  0  0  0  0  0
  194.4200  174.8360  144.5620 O   0  0  0  0  0  0  0  0  0  0  0  0
  194.0060  175.6040  143.4500 C   0  0  1  0  0  3  0  0  0  0  0  0
  195.1710  176.0400  142.5700 C   0  0  0  0  0  1  0  0  0  0  0  0
  193.0240  174.9520  142.6960 O   0  0  0  0  0  1  0  0  0  0  0  0
  1  6  1  0  0  0  0
  2 13  2  0  0  0  0
  2  5  1  0  0  0  0
  3  7  1  6  0  0  0
  3  2  1  0  0  0  0
  4  7  1  0  0  0  0
  5 16  2  0  0  0  0
  6 17  2  0  0  0  0
  8 23  1  0  0  0  0
  8 12  2  0  0  0  0
  9  1  1  0  0  0  0
 10 18  1  0  0  0  0
 11 20  1  0  0  0  0
 11  4  1  0  0  0  0
 13  8  1  0  0  0  0
 14  5  1  0  0  0  0
 14  1  2  0  0  0  0
 15 20  2  0  0  0  0
 16 12  1  0  0  0  0
 16 17  1  0  0  0  0
 18 13  1  0  0  0  0
 19 10  1  0  0  0  0
 19  3  1  0  0  0  0
 20 19  1  0  0  0  0
 21 22  2  0  0  0  0
 22 25  1  0  0  0  0
 23 22  1  0  0  0  0
 25 24  1  6  0  0  0
 27 26  1  1  0  0  0
 27 25  1  0  0  0  0
 28 27  1  0  0  0  0
 29 30  1  6  0  0  0
 29 28  1  0  0  0  0
 31 29  1  0  0  0  0
M  END
>  <MODEL>
6

>  <REMARK>
 VINA RESULT:      -7.4      2.094      4.621
  Name = 
  5 active torsions:
  status: ('A' for Active; 'I' for Inactive)
    1  A    between atoms: C_1  and  O_24
    2  A    between atoms: C_9  and  C_22
    3  A    between atoms: C_15  and  N_23
    4  A    between atoms: C_19  and  C_22
    5  A    between atoms: C_19  and  O_24
                            x       y       z     vdW  Elec       q    Type
                         _______ _______ _______ _____ _____    ______ ____

>  <TORSDO>
F 5

$$$$
=
 OpenBabel11052417543D

 31 34  0  0  1  0  0  0  0  0999 V2000
  186.6990  177.9120  146.5010 C   0  0  0  0  0  0  0  0  0  0  0  0
  189.3570  176.3070  144.4320 C   0  0  0  0  0  0  0  0  0  0  0  0
  190.5970  176.5250  145.2810 C   0  0  1  0  0  3  0  0  0  0  0  0
  191.9420  175.4150  147.2020 C   0  0  0  0  0  2  0  0  0  0  0  0
  188.0970  176.7710  144.8700 C   0  0  0  0  0  0  0  0  0  0  0  0
  185.5710  177.6690  145.7120 C   0  0  0  0  0  3  0  0  0  0  0  0
  190.5730  175.6140  146.5220 C   0  0  0  0  0  2  0  0  0  0  0  0
  188.3080  175.4090  142.4090 C   0  0  0  0  0  0  0  0  0  0  0  0
  186.5740  178.5790  147.6730 F   0  0  0  0  0  0  0  0  0  0  0  0
  191.8660  176.1760  143.0850 C   0  0  0  0  0  2  0  0  0  0  0  0
  193.0110  176.4170  146.7610 C   0  0  0  0  0  2  0  0  0  0  0  0
  187.0640  175.8580  142.8660 C   0  0  0  0  0  3  0  0  0  0  0  0
  189.4570  175.6420  143.1870 C   0  0  0  0  0  0  0  0  0  0  0  0
  187.9550  177.4660  146.0820 C   0  0  0  0  0  3  0  0  0  0  0  0
  194.1890  176.4890  144.6830 O   0  0  0  0  0  0  0  0  0  0  0  0
  186.9500  176.5350  144.0770 C   0  0  0  0  0  0  0  0  0  0  0  0
  185.6960  176.9830  144.5030 C   0  0  0  0  0  3  0  0  0  0  0  0
  190.7950  175.1710  142.6980 C   0  0  0  0  0  2  0  0  0  0  0  0
  191.8520  176.3590  144.5320 N   0  0  0  0  0  0  0  0  0  0  0  0
  193.0760  176.4240  145.2710 C   0  0  0  0  0  0  0  0  0  0  0  0
  187.9350  172.5290  141.8800 O   0  0  0  0  0  0  0  0  0  0  0  0
  188.2800  173.3000  140.9430 C   0  0  0  0  0  0  0  0  0  0  0  0
  188.4300  174.7090  141.1590 N   0  0  0  0  0  2  0  0  0  0  0  0
  189.3300  171.6070  139.6780 O   0  0  0  0  0  1  0  0  0  0  0  0
  188.5300  172.7470  139.5770 C   0  0  2  0  0  3  0  0  0  0  0  0
  188.1940  174.3180  137.6590 C   0  0  0  0  0  1  0  0  0  0  0  0
  189.1960  173.7860  138.6720 C   0  0  2  0  0  3  0  0  0  0  0  0
  190.2800  173.2070  137.9840 O   0  0  0  0  0  0  0  0  0  0  0  0
  190.4820  173.8970  136.7680 C   0  0  1  0  0  3  0  0  0  0  0  0
  191.7670  174.7170  136.7640 C   0  0  0  0  0  1  0  0  0  0  0  0
  190.4290  173.0410  135.6620 O   0  0  0  0  0  1  0  0  0  0  0  0
  1  9  1  0  0  0  0
  2  5  1  0  0  0  0
  2  3  1  0  0  0  0
  3  7  1  1  0  0  0
  5 14  2  0  0  0  0
  6  1  2  0  0  0  0
  7  4  1  0  0  0  0
  8 12  2  0  0  0  0
  8 13  1  0  0  0  0
 10 19  1  0  0  0  0
 11  4  1  0  0  0  0
 12 16  1  0  0  0  0
 13  2  2  0  0  0  0
 14  1  1  0  0  0  0
 15 20  2  0  0  0  0
 16 17  2  0  0  0  0
 16  5  1  0  0  0  0
 17  6  1  0  0  0  0
 18 10  1  0  0  0  0
 18 13  1  0  0  0  0
 19 20  1  0  0  0  0
 19  3  1  0  0  0  0
 20 11  1  0  0  0  0
 22 23  1  0  0  0  0
 22 21  2  0  0  0  0
 23  8  1  0  0  0  0
 25 24  1  1  0  0  0
 25 22  1  0  0  0  0
 27 26  1  6  0  0  0
 27 25  1  0  0  0  0
 28 27  1  0  0  0  0
 29 30  1  1  0  0  0
 29 28  1  0  0  0  0
 31 29  1  0  0  0  0
M  END
>  <MODEL>
7

>  <REMARK>
 VINA RESULT:      -7.0      3.602      6.423
  Name = 
  5 active torsions:
  status: ('A' for Active; 'I' for Inactive)
    1  A    between atoms: C_1  and  O_24
    2  A    between atoms: C_9  and  C_22
    3  A    between atoms: C_15  and  N_23
    4  A    between atoms: C_19  and  C_22
    5  A    between atoms: C_19  and  O_24
                            x       y       z     vdW  Elec       q    Type
                         _______ _______ _______ _____ _____    ______ ____

>  <TORSDO>
F 5

$$$$
=
 OpenBabel11052417543D

 31 34  0  0  1  0  0  0  0  0999 V2000
  191.4290  171.5030  142.4820 C   0  0  0  0  0  0  0  0  0  0  0  0
  191.2760  174.8590  144.1040 C   0  0  0  0  0  0  0  0  0  0  0  0
  192.7220  175.0820  144.5120 C   0  0  1  0  0  3  0  0  0  0  0  0
  194.9490  176.0420  143.5900 C   0  0  0  0  0  2  0  0  0  0  0  0
  190.8940  173.6760  143.4350 C   0  0  0  0  0  0  0  0  0  0  0  0
  190.0970  171.3390  142.0910 C   0  0  0  0  0  3  0  0  0  0  0  0
  193.5970  175.3700  143.2790 C   0  0  0  0  0  2  0  0  0  0  0  0
  188.9610  175.6510  143.9980 C   0  0  0  0  0  0  0  0  0  0  0  0
  192.3370  170.5340  142.2110 F   0  0  0  0  0  0  0  0  0  0  0  0
  191.7380  176.7560  146.1820 C   0  0  0  0  0  2  0  0  0  0  0  0
  195.3490  175.9860  145.0650 C   0  0  0  0  0  2  0  0  0  0  0  0
  188.6020  174.4810  143.3180 C   0  0  0  0  0  3  0  0  0  0  0  0
  190.2960  175.8350  144.4000 C   0  0  0  0  0  0  0  0  0  0  0  0
  191.8250  172.6640  143.1510 C   0  0  0  0  0  3  0  0  0  0  0  0
  194.4430  177.2450  146.8820 O   0  0  0  0  0  0  0  0  0  0  0  0
  189.5480  173.4980  143.0390 C   0  0  0  0  0  0  0  0  0  0  0  0
  189.1590  172.3350  142.3700 C   0  0  0  0  0  3  0  0  0  0  0  0
  190.6850  177.0840  145.1370 C   0  0  0  0  0  2  0  0  0  0  0  0
  192.8840  176.1330  145.5270 N   0  0  0  0  0  0  0  0  0  0  0  0
  194.2190  176.5020  145.8900 C   0  0  0  0  0  0  0  0  0  0  0  0
  187.4040  176.0460  146.4760 O   0  0  0  0  0  0  0  0  0  0  0  0
  187.2180  176.8090  145.4890 C   0  0  0  0  0  0  0  0  0  0  0  0
  187.9860  176.6690  144.2870 N   0  0  0  0  0  2  0  0  0  0  0  0
  184.9980  177.3590  146.0670 O   0  0  0  0  0  1  0  0  0  0  0  0
  186.1880  177.8890  145.5660 C   0  0  2  0  0  3  0  0  0  0  0  0
  185.5880  179.9970  144.3580 C   0  0  0  0  0  1  0  0  0  0  0  0
  185.9510  178.5290  144.1960 C   0  0  2  0  0  3  0  0  0  0  0  0
  184.9040  177.8670  143.5270 O   0  0  0  0  0  0  0  0  0  0  0  0
  185.2330  177.7390  142.1590 C   0  0  1  0  0  3  0  0  0  0  0  0
  184.1230  178.2320  141.2380 C   0  0  0  0  0  1  0  0  0  0  0  0
  186.4520  178.3540  141.8510 O   0  0  0  0  0  1  0  0  0  0  0  0
  1 14  1  0  0  0  0
  2 13  2  0  0  0  0
  2  3  1  0  0  0  0
  3  7  1  6  0  0  0
  3 19  1  0  0  0  0
  4 11  1  0  0  0  0
  5  2  1  0  0  0  0
  6 17  1  0  0  0  0
  6  1  2  0  0  0  0
  7  4  1  0  0  0  0
  8 23  1  0  0  0  0
  8 13  1  0  0  0  0
  9  1  1  0  0  0  0
 11 20  1  0  0  0  0
 12  8  2  0  0  0  0
 13 18  1  0  0  0  0
 14  5  2  0  0  0  0
 16 12  1  0  0  0  0
 16  5  1  0  0  0  0
 17 16  2  0  0  0  0
 18 10  1  0  0  0  0
 19 20  1  0  0  0  0
 19 10  1  0  0  0  0
 20 15  2  0  0  0  0
 22 25  1  0  0  0  0
 22 21  2  0  0  0  0
 23 22  1  0  0  0  0
 25 24  1  6  0  0  0
 27 26  1  1  0  0  0
 27 25  1  0  0  0  0
 28 27  1  0  0  0  0
 29 30  1  6  0  0  0
 29 28  1  0  0  0  0
 31 29  1  0  0  0  0
M  END
>  <MODEL>
8

>  <REMARK>
 VINA RESULT:      -6.9      3.322      7.567
  Name = 
  5 active torsions:
  status: ('A' for Active; 'I' for Inactive)
    1  A    between atoms: C_1  and  O_24
    2  A    between atoms: C_9  and  C_22
    3  A    between atoms: C_15  and  N_23
    4  A    between atoms: C_19  and  C_22
    5  A    between atoms: C_19  and  O_24
                            x       y       z     vdW  Elec       q    Type
                         _______ _______ _______ _____ _____    ______ ____

>  <TORSDO>
F 5

$$$$
=
 OpenBabel11052417543D

 31 34  0  0  1  0  0  0  0  0999 V2000
  190.9340  173.3060  139.6580 C   0  0  0  0  0  0  0  0  0  0  0  0
  191.3890  174.7370  143.0740 C   0  0  0  0  0  0  0  0  0  0  0  0
  192.8980  174.6870  143.2410 C   0  0  1  0  0  3  0  0  0  0  0  0
  195.0230  176.1000  142.7720 C   0  0  0  0  0  2  0  0  0  0  0  0
  190.7850  174.2810  141.8820 C   0  0  0  0  0  0  0  0  0  0  0  0
  189.5460  173.3930  139.5200 C   0  0  0  0  0  3  0  0  0  0  0  0
  193.5780  175.7530  142.3620 C   0  0  0  0  0  2  0  0  0  0  0  0
  189.1790  175.3140  143.9580 C   0  0  0  0  0  0  0  0  0  0  0  0
  191.6830  172.7940  138.6520 F   0  0  0  0  0  0  0  0  0  0  0  0
  192.3790  174.7980  145.7470 C   0  0  0  0  0  2  0  0  0  0  0  0
  195.6580  175.0950  143.7370 C   0  0  0  0  0  2  0  0  0  0  0  0
  188.5970  174.8750  142.7630 C   0  0  0  0  0  3  0  0  0  0  0  0
  190.5740  175.2350  144.1180 C   0  0  0  0  0  0  0  0  0  0  0  0
  191.5500  173.7470  140.8330 C   0  0  0  0  0  3  0  0  0  0  0  0
  195.1980  174.8000  146.0630 O   0  0  0  0  0  0  0  0  0  0  0  0
  189.3810  174.3600  141.7340 C   0  0  0  0  0  0  0  0  0  0  0  0
  188.7710  173.9190  140.5560 C   0  0  0  0  0  3  0  0  0  0  0  0
  191.2030  175.6960  145.4010 C   0  0  0  0  0  2  0  0  0  0  0  0
  193.3310  174.8080  144.6420 N   0  0  0  0  0  0  0  0  0  0  0  0
  194.7380  174.8940  144.8930 C   0  0  0  0  0  0  0  0  0  0  0  0
  188.4900  178.1340  144.4960 O   0  0  0  0  0  0  0  0  0  0  0  0
  188.0900  177.2290  145.2790 C   0  0  0  0  0  0  0  0  0  0  0  0
  188.3730  175.8470  145.0230 N   0  0  0  0  0  2  0  0  0  0  0  0
  187.0000  176.4330  147.2150 O   0  0  0  0  0  1  0  0  0  0  0  0
  187.2960  177.5910  146.4930 C   0  0  2  0  0  3  0  0  0  0  0  0
  185.1150  178.4830  147.3340 C   0  0  0  0  0  1  0  0  0  0  0  0
  186.0080  178.3260  146.1130 C   0  0  2  0  0  3  0  0  0  0  0  0
  185.3120  177.6040  145.1240 O   0  0  0  0  0  0  0  0  0  0  0  0
  184.6090  178.5080  144.2960 C   0  0  1  0  0  3  0  0  0  0  0  0
  185.3990  179.7800  144.0110 C   0  0  0  0  0  1  0  0  0  0  0  0
  184.1780  177.9070  143.1080 O   0  0  0  0  0  1  0  0  0  0  0  0
  1 14  1  0  0  0  0
  2  3  1  0  0  0  0
  2 13  2  0  0  0  0
  3  7  1  6  0  0  0
  3 19  1  0  0  0  0
  4 11  1  0  0  0  0
  5  2  1  0  0  0  0
  6  1  2  0  0  0  0
  6 17  1  0  0  0  0
  7  4  1  0  0  0  0
  8 13  1  0  0  0  0
  8 23  1  0  0  0  0
  9  1  1  0  0  0  0
 11 20  1  0  0  0  0
 12  8  2  0  0  0  0
 13 18  1  0  0  0  0
 14  5  2  0  0  0  0
 16  5  1  0  0  0  0
 16 12  1  0  0  0  0
 17 16  2  0  0  0  0
 18 10  1  0  0  0  0
 19 20  1  0  0  0  0
 19 10  1  0  0  0  0
 20 15  2  0  0  0  0
 21 22  2  0  0  0  0
 22 25  1  0  0  0  0
 23 22  1  0  0  0  0
 25 24  1  6  0  0  0
 27 25  1  0  0  0  0
 27 26  1  1  0  0  0
 28 27  1  0  0  0  0
 29 30  1  6  0  0  0
 29 28  1  0  0  0  0
 31 29  1  0  0  0  0
M  END
>  <MODEL>
9

>  <REMARK>
 VINA RESULT:      -6.8      3.016      7.333
  Name = 
  5 active torsions:
  status: ('A' for Active; 'I' for Inactive)
    1  A    between atoms: C_1  and  O_24
    2  A    between atoms: C_9  and  C_22
    3  A    between atoms: C_15  and  N_23
    4  A    between atoms: C_19  and  C_22
    5  A    between atoms: C_19  and  O_24
                            x       y       z     vdW  Elec       q    Type
                         _______ _______ _______ _____ _____    ______ ____

>  <TORSDO>
F 5

$$$$
