=
 OpenBabel11052418123D

 28 32  0  0  1  0  0  0  0  0999 V2000
  186.3720  177.7630  145.3400 N   0  0  0  0  0  0  0  0  0  0  0  0
  189.2200  174.4510  143.6820 C   0  0  0  0  0  3  0  0  0  0  0  0
  186.3150  177.9170  140.7450 C   0  0  0  0  0  1  0  0  0  0  0  0
  190.3200  176.5250  143.0670 C   0  0  0  0  0  0  0  0  0  0  0  0
  187.7990  176.3660  142.8110 C   0  0  1  0  0  3  0  0  0  0  0  0
  191.6270  174.6430  143.8640 C   0  0  0  0  0  0  0  0  0  0  0  0
  189.1330  175.7800  143.2370 C   0  0  0  0  0  0  0  0  0  0  0  0
  188.9760  178.2490  141.8790 C   0  0  0  0  0  2  0  0  0  0  0  0
  191.5560  175.9590  143.3980 C   0  0  0  0  0  3  0  0  0  0  0  0
  185.3950  177.9860  143.0570 C   0  0  2  0  0  3  0  0  0  0  0  0
  186.6500  175.8990  143.7310 C   0  0  0  0  0  2  0  0  0  0  0  0
  190.2830  177.9500  142.6000 C   0  0  0  0  0  2  0  0  0  0  0  0
  185.3490  179.8000  144.4670 C   0  0  0  0  0  2  0  0  0  0  0  0
  186.5910  178.3770  142.1750 C   0  0  1  0  0  3  0  0  0  0  0  0
  184.6350  179.1060  143.4710 O   0  0  0  0  0  0  0  0  0  0  0  0
  193.1780  173.9440  144.2750 Cl  0  0  0  0  0  0  0  0  0  0  0  0
  190.4600  173.8890  144.0000 C   0  0  0  0  0  3  0  0  0  0  0  0
  187.8530  177.8390  142.7230 N   0  0  1  0  0  0  0  0  0  0  0  0
  185.5350  178.9100  145.6910 C   0  0  0  0  0  2  0  0  0  0  0  0
  185.7410  177.0360  144.2280 C   0  0  1  0  0  3  0  0  0  0  0  0
  186.3580  176.8780  146.5000 C   0  0  0  0  0  2  0  0  0  0  0  0
  187.7530  176.6990  147.0960 C   0  0  2  0  0  3  0  0  0  0  0  0
  190.4890  175.8560  147.2110 C   0  0  0  0  0  0  0  0  0  0  0  0
  188.8170  177.4790  146.3200 C   0  0  0  0  0  2  0  0  0  0  0  0
  188.1250  175.2470  147.2500 C   0  0  0  0  0  3  0  0  0  0  0  0
  189.4030  174.8670  147.3290 C   0  0  0  0  0  3  0  0  0  0  0  0
  191.6860  175.4800  147.3060 O   0  0  0  0  0  0  0  0  0  0  0  0
  190.1750  177.3110  147.0020 C   0  0  0  0  0  2  0  0  0  0  0  0
  1 19  1  0  0  0  0
  1 21  1  0  0  0  0
  2 17  1  0  0  0  0
  4  7  1  0  0  0  0
  4  9  2  0  0  0  0
  5  7  1  0  0  0  0
  5 11  1  1  0  0  0
  6 17  2  0  0  0  0
  6 16  1  0  0  0  0
  7  2  2  0  0  0  0
  8 12  1  0  0  0  0
  9  6  1  0  0  0  0
 10 15  1  1  0  0  0
 10 20  1  0  0  0  0
 12  4  1  0  0  0  0
 13 19  1  0  0  0  0
 14  3  1  6  0  0  0
 14 18  1  0  0  0  0
 14 10  1  0  0  0  0
 15 13  1  0  0  0  0
 18  8  1  6  0  0  0
 18  5  1  0  0  0  0
 20 11  1  6  0  0  0
 20  1  1  0  0  0  0
 22 21  1  6  0  0  0
 22 25  1  0  0  0  0
 23 27  2  0  0  0  0
 23 26  1  0  0  0  0
 24 28  1  0  0  0  0
 24 22  1  0  0  0  0
 25 26  2  0  0  0  0
 28 23  1  0  0  0  0
M  END
>  <MODEL>
1

>  <REMARK>
 VINA RESULT:      -8.0      0.000      0.000
  Name = 
  2 active torsions:
  status: ('A' for Active; 'I' for Inactive)
    1  A    between atoms: N_1  and  C_2
    2  A    between atoms: C_2  and  C_3
                            x       y       z     vdW  Elec       q    Type
                         _______ _______ _______ _____ _____    ______ ____

>  <TORSDO>
F 2

$$$$
=
 OpenBabel11052418123D

 28 32  0  0  1  0  0  0  0  0999 V2000
  189.8190  176.2760  146.5300 N   0  0  0  0  0  0  0  0  0  0  0  0
  187.4030  178.7050  143.3540 C   0  0  0  0  0  3  0  0  0  0  0  0
  191.9570  175.9560  142.4730 C   0  0  0  0  0  1  0  0  0  0  0  0
  187.1470  176.3990  142.6400 C   0  0  0  0  0  0  0  0  0  0  0  0
  189.4220  177.1710  143.4600 C   0  0  1  0  0  3  0  0  0  0  0  0
  185.2660  177.9270  142.5210 C   0  0  0  0  0  0  0  0  0  0  0  0
  187.9510  177.4220  143.1880 C   0  0  0  0  0  0  0  0  0  0  0  0
  189.2020  175.0170  142.4030 C   0  0  0  0  0  2  0  0  0  0  0  0
  185.8070  176.6530  142.3280 C   0  0  0  0  0  3  0  0  0  0  0  0
  191.7370  176.2110  144.9400 C   0  0  2  0  0  3  0  0  0  0  0  0
  189.9140  177.9460  144.7020 C   0  0  0  0  0  2  0  0  0  0  0  0
  187.6800  175.0110  142.4480 C   0  0  0  0  0  2  0  0  0  0  0  0
  191.5170  174.5240  146.4840 C   0  0  0  0  0  2  0  0  0  0  0  0
  191.1710  175.4990  143.7010 C   0  0  1  0  0  3  0  0  0  0  0  0
  192.4430  175.3330  145.7960 O   0  0  0  0  0  0  0  0  0  0  0  0
  183.5890  178.2340  142.1260 Cl  0  0  0  0  0  0  0  0  0  0  0  0
  186.0660  178.9540  143.0280 C   0  0  0  0  0  3  0  0  0  0  0  0
  189.7170  175.7280  143.5750 N   0  0  1  0  0  0  0  0  0  0  0  0
  190.6250  175.3880  147.3670 C   0  0  0  0  0  2  0  0  0  0  0  0
  190.7160  177.0910  145.6990 C   0  0  1  0  0  3  0  0  0  0  0  0
  189.1300  177.1820  147.4430 C   0  0  0  0  0  2  0  0  0  0  0  0
  187.8100  177.6830  146.8580 C   0  0  2  0  0  3  0  0  0  0  0  0
  184.9710  177.9940  146.6280 C   0  0  0  0  0  0  0  0  0  0  0  0
  187.0730  178.6210  147.8180 C   0  0  0  0  0  2  0  0  0  0  0  0
  186.9280  176.5550  146.3910 C   0  0  0  0  0  3  0  0  0  0  0  0
  185.6090  176.7180  146.2630 C   0  0  0  0  0  3  0  0  0  0  0  0
  183.7290  178.1340  146.4830 O   0  0  0  0  0  0  0  0  0  0  0  0
  185.7970  179.1370  147.1510 C   0  0  0  0  0  2  0  0  0  0  0  0
  1 19  1  0  0  0  0
  1 21  1  0  0  0  0
  4  7  2  0  0  0  0
  5 18  1  0  0  0  0
  5 11  1  1  0  0  0
  6 17  1  0  0  0  0
  7  2  1  0  0  0  0
  7  5  1  0  0  0  0
  8 12  1  0  0  0  0
  9  6  2  0  0  0  0
  9  4  1  0  0  0  0
 10 20  1  0  0  0  0
 10 15  1  1  0  0  0
 12  4  1  0  0  0  0
 13 19  1  0  0  0  0
 14  3  1  6  0  0  0
 14 10  1  0  0  0  0
 15 13  1  0  0  0  0
 16  6  1  0  0  0  0
 17  2  2  0  0  0  0
 18  8  1  6  0  0  0
 18 14  1  0  0  0  0
 20 11  1  6  0  0  0
 20  1  1  0  0  0  0
 22 21  1  1  0  0  0
 22 24  1  0  0  0  0
 23 28  1  0  0  0  0
 25 22  1  0  0  0  0
 26 25  2  0  0  0  0
 26 23  1  0  0  0  0
 27 23  2  0  0  0  0
 28 24  1  0  0  0  0
M  END
>  <MODEL>
2

>  <REMARK>
 VINA RESULT:      -7.3      2.637      5.536
  Name = 
  2 active torsions:
  status: ('A' for Active; 'I' for Inactive)
    1  A    between atoms: N_1  and  C_2
    2  A    between atoms: C_2  and  C_3
                            x       y       z     vdW  Elec       q    Type
                         _______ _______ _______ _____ _____    ______ ____

>  <TORSDO>
F 2

$$$$
=
 OpenBabel11052418123D

 28 32  0  0  1  0  0  0  0  0999 V2000
  192.5280  175.2700  145.5400 N   0  0  0  0  0  0  0  0  0  0  0  0
  189.2440  177.6470  143.2170 C   0  0  0  0  0  3  0  0  0  0  0  0
  193.0930  174.5670  141.0320 C   0  0  0  0  0  1  0  0  0  0  0  0
  188.6670  175.3220  142.8230 C   0  0  0  0  0  0  0  0  0  0  0  0
  191.1130  175.9980  142.7370 C   0  0  1  0  0  3  0  0  0  0  0  0
  186.9230  176.9550  143.2420 C   0  0  0  0  0  0  0  0  0  0  0  0
  189.6510  176.3240  142.9730 C   0  0  0  0  0  0  0  0  0  0  0  0
  190.4550  173.8020  141.9980 C   0  0  0  0  0  2  0  0  0  0  0  0
  187.3140  175.6400  142.9760 C   0  0  0  0  0  3  0  0  0  0  0  0
  193.7620  174.9870  143.3930 C   0  0  2  0  0  3  0  0  0  0  0  0
  192.0380  176.8150  143.6650 C   0  0  0  0  0  2  0  0  0  0  0  0
  189.0470  173.8940  142.5680 C   0  0  0  0  0  2  0  0  0  0  0  0
  194.0350  173.4150  145.0470 C   0  0  0  0  0  2  0  0  0  0  0  0
  192.7710  174.2370  142.4880 C   0  0  1  0  0  3  0  0  0  0  0  0
  194.6900  174.1200  144.0180 O   0  0  0  0  0  0  0  0  0  0  0  0
  185.2270  177.3430  143.4310 Cl  0  0  0  0  0  0  0  0  0  0  0  0
  187.8880  177.9590  143.3570 C   0  0  0  0  0  3  0  0  0  0  0  0
  191.3750  174.5490  142.8570 N   0  0  1  0  0  0  0  0  0  0  0  0
  193.5420  174.3860  146.1130 C   0  0  0  0  0  2  0  0  0  0  0  0
  193.1060  175.9750  144.3860 C   0  0  1  0  0  3  0  0  0  0  0  0
  192.2370  176.2730  146.5590 C   0  0  0  0  0  2  0  0  0  0  0  0
  190.7880  176.1960  147.0370 C   0  0  2  0  0  3  0  0  0  0  0  0
  187.9320  176.3130  146.8420 C   0  0  0  0  0  0  0  0  0  0  0  0
  190.0270  175.0370  146.3880 C   0  0  0  0  0  2  0  0  0  0  0  0
  190.0620  177.5050  146.8690 C   0  0  0  0  0  3  0  0  0  0  0  0
  188.7290  177.5520  146.8050 C   0  0  0  0  0  3  0  0  0  0  0  0
  186.6760  176.3790  146.7980 O   0  0  0  0  0  0  0  0  0  0  0  0
  188.6080  174.9750  146.9540 C   0  0  0  0  0  2  0  0  0  0  0  0
  1 19  1  0  0  0  0
  1 21  1  0  0  0  0
  2 17  1  0  0  0  0
  4  7  1  0  0  0  0
  4  9  2  0  0  0  0
  5 18  1  0  0  0  0
  5  7  1  0  0  0  0
  5 11  1  1  0  0  0
  6 17  2  0  0  0  0
  6 16  1  0  0  0  0
  7  2  2  0  0  0  0
  8 12  1  0  0  0  0
  9  6  1  0  0  0  0
 10 15  1  1  0  0  0
 10 20  1  0  0  0  0
 12  4  1  0  0  0  0
 13 19  1  0  0  0  0
 14  3  1  6  0  0  0
 14 18  1  0  0  0  0
 14 10  1  0  0  0  0
 15 13  1  0  0  0  0
 18  8  1  6  0  0  0
 20 11  1  6  0  0  0
 20  1  1  0  0  0  0
 22 21  1  6  0  0  0
 23 28  1  0  0  0  0
 24 28  1  0  0  0  0
 24 22  1  0  0  0  0
 25 22  1  0  0  0  0
 26 23  1  0  0  0  0
 26 25  2  0  0  0  0
 27 23  2  0  0  0  0
M  END
>  <MODEL>
3

>  <REMARK>
 VINA RESULT:      -7.1      2.959      5.956
  Name = 
  2 active torsions:
  status: ('A' for Active; 'I' for Inactive)
    1  A    between atoms: N_1  and  C_2
    2  A    between atoms: C_2  and  C_3
                            x       y       z     vdW  Elec       q    Type
                         _______ _______ _______ _____ _____    ______ ____

>  <TORSDO>
F 2

$$$$
=
 OpenBabel11052418123D

 28 32  0  0  1  0  0  0  0  0999 V2000
  189.9620  174.0620  141.7900 N   0  0  0  0  0  0  0  0  0  0  0  0
  188.5660  175.0430  146.1400 C   0  0  0  0  0  3  0  0  0  0  0  0
  193.2270  172.7210  144.7370 C   0  0  0  0  0  1  0  0  0  0  0  0
  190.4470  176.5360  145.7820 C   0  0  0  0  0  0  0  0  0  0  0  0
  190.6180  174.1450  144.9440 C   0  0  1  0  0  3  0  0  0  0  0  0
  188.4760  177.3210  146.9570 C   0  0  0  0  0  0  0  0  0  0  0  0
  189.8420  175.2730  145.5970 C   0  0  0  0  0  0  0  0  0  0  0  0
  192.5740  175.5510  144.9460 C   0  0  0  0  0  2  0  0  0  0  0  0
  189.7540  177.5550  146.4430 C   0  0  0  0  0  3  0  0  0  0  0  0
  191.7320  172.5920  142.7500 C   0  0  2  0  0  3  0  0  0  0  0  0
  189.6980  173.2280  144.1080 C   0  0  0  0  0  2  0  0  0  0  0  0
  191.8040  176.8360  145.2180 C   0  0  0  0  0  2  0  0  0  0  0  0
  192.0860  173.5610  140.6970 C   0  0  0  0  0  2  0  0  0  0  0  0
  192.5690  173.5380  143.6270 C   0  0  1  0  0  3  0  0  0  0  0  0
  192.2960  172.4000  141.4670 O   0  0  0  0  0  0  0  0  0  0  0  0
  187.6180  178.6030  147.7840 Cl  0  0  0  0  0  0  0  0  0  0  0  0
  187.8850  176.0640  146.8100 C   0  0  0  0  0  3  0  0  0  0  0  0
  191.7460  174.6540  144.1380 N   0  0  1  0  0  0  0  0  0  0  0  0
  190.5920  173.7910  140.4980 C   0  0  0  0  0  2  0  0  0  0  0  0
  190.2240  172.9320  142.6940 C   0  0  1  0  0  3  0  0  0  0  0  0
  188.5250  174.0960  141.5440 C   0  0  0  0  0  2  0  0  0  0  0  0
  187.9270  175.4670  141.8530 C   0  0  2  0  0  3  0  0  0  0  0  0
  187.0940  177.6850  143.4650 C   0  0  0  0  0  0  0  0  0  0  0  0
  188.9740  176.4470  142.3880 C   0  0  0  0  0  2  0  0  0  0  0  0
  186.7290  175.3760  142.7620 C   0  0  0  0  0  3  0  0  0  0  0  0
  186.3340  176.4240  143.4900 C   0  0  0  0  0  3  0  0  0  0  0  0
  186.6960  178.6660  144.1440 O   0  0  0  0  0  0  0  0  0  0  0  0
  188.3280  177.8140  142.6150 C   0  0  0  0  0  2  0  0  0  0  0  0
  1 20  1  0  0  0  0
  2 17  1  0  0  0  0
  4  9  2  0  0  0  0
  5 11  1  6  0  0  0
  5  7  1  0  0  0  0
  6 16  1  0  0  0  0
  7  4  1  0  0  0  0
  7  2  2  0  0  0  0
  8 12  1  0  0  0  0
  9  6  1  0  0  0  0
 10 15  1  6  0  0  0
 10 14  1  0  0  0  0
 12  4  1  0  0  0  0
 13 15  1  0  0  0  0
 14 18  1  0  0  0  0
 14  3  1  1  0  0  0
 17  6  2  0  0  0  0
 18  5  1  0  0  0  0
 18  8  1  1  0  0  0
 19 13  1  0  0  0  0
 19  1  1  0  0  0  0
 20 10  1  0  0  0  0
 20 11  1  1  0  0  0
 21  1  1  0  0  0  0
 22 21  1  1  0  0  0
 22 24  1  0  0  0  0
 22 25  1  0  0  0  0
 23 26  1  0  0  0  0
 23 27  2  0  0  0  0
 24 28  1  0  0  0  0
 25 26  2  0  0  0  0
 28 23  1  0  0  0  0
M  END
>  <MODEL>
4

>  <REMARK>
 VINA RESULT:      -6.6      2.889      6.155
  Name = 
  2 active torsions:
  status: ('A' for Active; 'I' for Inactive)
    1  A    between atoms: N_1  and  C_2
    2  A    between atoms: C_2  and  C_3
                            x       y       z     vdW  Elec       q    Type
                         _______ _______ _______ _____ _____    ______ ____

>  <TORSDO>
F 2

$$$$
=
 OpenBabel11052418123D

 28 32  0  0  1  0  0  0  0  0999 V2000
  189.7180  173.5920  141.2180 N   0  0  0  0  0  0  0  0  0  0  0  0
  189.7020  173.8900  145.8810 C   0  0  0  0  0  3  0  0  0  0  0  0
  191.9550  169.9670  142.9470 C   0  0  0  0  0  1  0  0  0  0  0  0
  192.0360  174.1960  145.2860 C   0  0  0  0  0  0  0  0  0  0  0  0
  190.6930  172.4250  144.0590 C   0  0  1  0  0  3  0  0  0  0  0  0
  191.0430  175.5350  147.0490 C   0  0  0  0  0  0  0  0  0  0  0  0
  190.7970  173.5550  145.0670 C   0  0  0  0  0  0  0  0  0  0  0  0
  193.0830  172.5210  143.7740 C   0  0  0  0  0  2  0  0  0  0  0  0
  192.1460  175.1930  146.2620 C   0  0  0  0  0  3  0  0  0  0  0  0
  190.4230  171.2100  141.4290 C   0  0  2  0  0  3  0  0  0  0  0  0
  189.3170  172.4100  143.3590 C   0  0  0  0  0  2  0  0  0  0  0  0
  193.2350  173.8800  144.4420 C   0  0  0  0  0  2  0  0  0  0  0  0
  191.0080  172.3780  139.5390 C   0  0  0  0  0  2  0  0  0  0  0  0
  191.7540  171.2810  142.1960 C   0  0  1  0  0  3  0  0  0  0  0  0
  190.6070  171.1200  140.0290 O   0  0  0  0  0  0  0  0  0  0  0  0
  191.1910  176.7820  148.2670 Cl  0  0  0  0  0  0  0  0  0  0  0  0
  189.8240  174.8790  146.8620 C   0  0  0  0  0  3  0  0  0  0  0  0
  191.7960  172.4650  143.0780 N   0  0  1  0  0  0  0  0  0  0  0  0
  189.9090  173.4060  139.7800 C   0  0  0  0  0  2  0  0  0  0  0  0
  189.3930  172.2930  141.8270 C   0  0  1  0  0  3  0  0  0  0  0  0
  188.5450  174.4460  141.3670 C   0  0  0  0  0  2  0  0  0  0  0  0
  188.8860  175.7650  142.0590 C   0  0  2  0  0  3  0  0  0  0  0  0
  189.6970  177.4980  144.1920 C   0  0  0  0  0  0  0  0  0  0  0  0
  190.3660  175.8520  142.4400 C   0  0  0  0  0  2  0  0  0  0  0  0
  187.9880  176.0400  143.2370 C   0  0  0  0  0  3  0  0  0  0  0  0
  188.3650  176.8700  144.2130 C   0  0  0  0  0  3  0  0  0  0  0  0
  190.0270  178.2910  145.1110 O   0  0  0  0  0  0  0  0  0  0  0  0
  190.6550  177.2170  143.0670 C   0  0  0  0  0  2  0  0  0  0  0  0
  1 21  1  0  0  0  0
  1 20  1  0  0  0  0
  2 17  1  0  0  0  0
  4  9  2  0  0  0  0
  5 11  1  6  0  0  0
  5  7  1  0  0  0  0
  6 16  1  0  0  0  0
  7  4  1  0  0  0  0
  7  2  2  0  0  0  0
  8 12  1  0  0  0  0
  9  6  1  0  0  0  0
 10 15  1  6  0  0  0
 10 20  1  0  0  0  0
 10 14  1  0  0  0  0
 12  4  1  0  0  0  0
 13 19  1  0  0  0  0
 13 15  1  0  0  0  0
 14  3  1  1  0  0  0
 14 18  1  0  0  0  0
 17  6  2  0  0  0  0
 18  8  1  1  0  0  0
 18  5  1  0  0  0  0
 19  1  1  0  0  0  0
 20 11  1  1  0  0  0
 22 21  1  1  0  0  0
 22 24  1  0  0  0  0
 22 25  1  0  0  0  0
 23 26  1  0  0  0  0
 23 27  2  0  0  0  0
 24 28  1  0  0  0  0
 25 26  2  0  0  0  0
 28 23  1  0  0  0  0
M  END
>  <MODEL>
5

>  <REMARK>
 VINA RESULT:      -6.5      3.373      6.164
  Name = 
  2 active torsions:
  status: ('A' for Active; 'I' for Inactive)
    1  A    between atoms: N_1  and  C_2
    2  A    between atoms: C_2  and  C_3
                            x       y       z     vdW  Elec       q    Type
                         _______ _______ _______ _____ _____    ______ ____

>  <TORSDO>
F 2

$$$$
=
 OpenBabel11052418123D

 28 32  0  0  1  0  0  0  0  0999 V2000
  193.0280  173.5660  144.2630 N   0  0  0  0  0  0  0  0  0  0  0  0
  189.7750  175.5510  146.9660 C   0  0  0  0  0  3  0  0  0  0  0  0
  194.6260  177.5960  145.7950 C   0  0  0  0  0  1  0  0  0  0  0  0
  189.8890  177.0080  145.0270 C   0  0  0  0  0  0  0  0  0  0  0  0
  192.0550  176.1030  145.9950 C   0  0  1  0  0  3  0  0  0  0  0  0
  187.7440  176.4790  146.0290 C   0  0  0  0  0  0  0  0  0  0  0  0
  190.5400  176.1860  145.9730 C   0  0  0  0  0  0  0  0  0  0  0  0
  192.1280  177.8300  144.3170 C   0  0  0  0  0  2  0  0  0  0  0  0
  188.4960  177.1350  145.0500 C   0  0  0  0  0  3  0  0  0  0  0  0
  194.6910  175.1860  145.1710 C   0  0  2  0  0  3  0  0  0  0  0  0
  192.5450  174.6990  146.4130 C   0  0  0  0  0  2  0  0  0  0  0  0
  190.6570  177.7030  143.9430 C   0  0  0  0  0  2  0  0  0  0  0  0
  195.0190  174.3170  143.0690 C   0  0  0  0  0  2  0  0  0  0  0  0
  194.1170  176.5620  144.7920 C   0  0  1  0  0  3  0  0  0  0  0  0
  195.6650  174.7320  144.2500 O   0  0  0  0  0  0  0  0  0  0  0  0
  186.0020  176.6450  146.0490 Cl  0  0  0  0  0  0  0  0  0  0  0  0
  188.3840  175.6930  146.9890 C   0  0  0  0  0  3  0  0  0  0  0  0
  192.6430  176.5160  144.7050 N   0  0  1  0  0  0  0  0  0  0  0  0
  194.0990  173.1390  143.3640 C   0  0  0  0  0  2  0  0  0  0  0  0
  193.6260  174.1110  145.4910 C   0  0  1  0  0  3  0  0  0  0  0  0
  192.3010  172.3570  144.6350 C   0  0  0  0  0  2  0  0  0  0  0  0
  190.9630  172.2500  143.9050 C   0  0  2  0  0  3  0  0  0  0  0  0
  189.0150  172.7670  141.8690 C   0  0  0  0  0  0  0  0  0  0  0  0
  191.1030  171.5760  142.5370 C   0  0  0  0  0  2  0  0  0  0  0  0
  190.2610  173.5790  143.8050 C   0  0  0  0  0  3  0  0  0  0  0  0
  189.3350  173.8010  142.8680 C   0  0  0  0  0  3  0  0  0  0  0  0
  188.1280  172.9900  141.0050 O   0  0  0  0  0  0  0  0  0  0  0  0
  189.7250  171.4420  141.8890 C   0  0  0  0  0  2  0  0  0  0  0  0
  1 21  1  0  0  0  0
  1 20  1  0  0  0  0
  2 17  1  0  0  0  0
  4  9  2  0  0  0  0
  4  7  1  0  0  0  0
  5 11  1  6  0  0  0
  6 16  1  0  0  0  0
  6 17  2  0  0  0  0
  7  5  1  0  0  0  0
  7  2  2  0  0  0  0
  9  6  1  0  0  0  0
 10 15  1  6  0  0  0
 10 20  1  0  0  0  0
 12  8  1  0  0  0  0
 12  4  1  0  0  0  0
 13 19  1  0  0  0  0
 13 15  1  0  0  0  0
 14 10  1  0  0  0  0
 14  3  1  1  0  0  0
 18  8  1  1  0  0  0
 18 14  1  0  0  0  0
 18  5  1  0  0  0  0
 19  1  1  0  0  0  0
 20 11  1  1  0  0  0
 22 21  1  6  0  0  0
 23 28  1  0  0  0  0
 23 26  1  0  0  0  0
 24 22  1  0  0  0  0
 25 22  1  0  0  0  0
 26 25  2  0  0  0  0
 27 23  2  0  0  0  0
 28 24  1  0  0  0  0
M  END
>  <MODEL>
6

>  <REMARK>
 VINA RESULT:      -6.5      3.521      7.041
  Name = 
  2 active torsions:
  status: ('A' for Active; 'I' for Inactive)
    1  A    between atoms: N_1  and  C_2
    2  A    between atoms: C_2  and  C_3
                            x       y       z     vdW  Elec       q    Type
                         _______ _______ _______ _____ _____    ______ ____

>  <TORSDO>
F 2

$$$$
=
 OpenBabel11052418123D

 28 32  0  0  1  0  0  0  0  0999 V2000
  187.5260  176.6500  143.1000 N   0  0  0  0  0  0  0  0  0  0  0  0
  191.7670  176.7450  145.0590 C   0  0  0  0  0  3  0  0  0  0  0  0
  187.1550  178.3230  147.3660 C   0  0  0  0  0  1  0  0  0  0  0  0
  190.5730  175.0620  146.3380 C   0  0  0  0  0  0  0  0  0  0  0  0
  189.3520  177.1950  145.6990 C   0  0  1  0  0  3  0  0  0  0  0  0
  192.8960  174.7120  145.7340 C   0  0  0  0  0  0  0  0  0  0  0  0
  190.5770  176.3000  145.6590 C   0  0  0  0  0  0  0  0  0  0  0  0
  188.3450  175.6680  147.2670 C   0  0  0  0  0  2  0  0  0  0  0  0
  191.7250  174.2690  146.3560 C   0  0  0  0  0  3  0  0  0  0  0  0
  186.7120  178.1430  144.9230 C   0  0  2  0  0  3  0  0  0  0  0  0
  189.1760  177.9820  144.3820 C   0  0  0  0  0  2  0  0  0  0  0  0
  189.3280  174.5380  146.9900 C   0  0  0  0  0  2  0  0  0  0  0  0
  185.2200  176.7290  143.8950 C   0  0  0  0  0  2  0  0  0  0  0  0
  186.9790  177.3430  146.2080 C   0  0  1  0  0  3  0  0  0  0  0  0
  185.3800  178.0080  144.4660 O   0  0  0  0  0  0  0  0  0  0  0  0
  194.3320  173.7120  145.7630 Cl  0  0  0  0  0  0  0  0  0  0  0  0
  192.9170  175.9520  145.0910 C   0  0  0  0  0  3  0  0  0  0  0  0
  188.1320  176.4340  146.0380 N   0  0  1  0  0  0  0  0  0  0  0  0
  186.1270  176.5840  142.6790 C   0  0  0  0  0  2  0  0  0  0  0  0
  187.7530  177.9230  143.8000 C   0  0  1  0  0  3  0  0  0  0  0  0
  188.3200  176.6810  141.8760 C   0  0  0  0  0  2  0  0  0  0  0  0
  189.1160  175.3920  141.6810 C   0  0  2  0  0  3  0  0  0  0  0  0
  189.6100  172.5700  141.6510 C   0  0  0  0  0  0  0  0  0  0  0  0
  188.5660  174.5410  140.5330 C   0  0  0  0  0  2  0  0  0  0  0  0
  189.2390  174.5990  142.9560 C   0  0  0  0  0  3  0  0  0  0  0  0
  189.4950  173.2880  142.9310 C   0  0  0  0  0  3  0  0  0  0  0  0
  189.8690  171.3380  141.6490 O   0  0  0  0  0  0  0  0  0  0  0  0
  189.4430  173.3020  140.3480 C   0  0  0  0  0  2  0  0  0  0  0  0
  1 20  1  0  0  0  0
  2 17  2  0  0  0  0
  2  7  1  0  0  0  0
  4  9  1  0  0  0  0
  4 12  1  0  0  0  0
  5 11  1  6  0  0  0
  5 18  1  0  0  0  0
  6 16  1  0  0  0  0
  6  9  2  0  0  0  0
  7  5  1  0  0  0  0
  7  4  2  0  0  0  0
 10 15  1  6  0  0  0
 10 14  1  0  0  0  0
 12  8  1  0  0  0  0
 13 15  1  0  0  0  0
 14  3  1  1  0  0  0
 17  6  1  0  0  0  0
 18 14  1  0  0  0  0
 18  8  1  1  0  0  0
 19  1  1  0  0  0  0
 19 13  1  0  0  0  0
 20 11  1  1  0  0  0
 20 10  1  0  0  0  0
 21  1  1  0  0  0  0
 22 21  1  1  0  0  0
 22 25  1  0  0  0  0
 23 26  1  0  0  0  0
 24 22  1  0  0  0  0
 26 25  2  0  0  0  0
 27 23  2  0  0  0  0
 28 24  1  0  0  0  0
 28 23  1  0  0  0  0
M  END
>  <MODEL>
7

>  <REMARK>
 VINA RESULT:      -6.5      2.244      4.534
  Name = 
  2 active torsions:
  status: ('A' for Active; 'I' for Inactive)
    1  A    between atoms: N_1  and  C_2
    2  A    between atoms: C_2  and  C_3
                            x       y       z     vdW  Elec       q    Type
                         _______ _______ _______ _____ _____    ______ ____

>  <TORSDO>
F 2

$$$$
=
 OpenBabel11052418123D

 28 32  0  0  1  0  0  0  0  0999 V2000
  190.8910  173.8970  144.8980 N   0  0  0  0  0  0  0  0  0  0  0  0
  187.0170  176.1310  143.5450 C   0  0  0  0  0  3  0  0  0  0  0  0
  190.4670  177.7600  147.3550 C   0  0  0  0  0  1  0  0  0  0  0  0
  188.8150  177.5910  142.8150 C   0  0  0  0  0  0  0  0  0  0  0  0
  188.9920  176.4930  145.0980 C   0  0  1  0  0  3  0  0  0  0  0  0
  186.8790  177.2400  141.3960 C   0  0  0  0  0  0  0  0  0  0  0  0
  188.2770  176.7060  143.7770 C   0  0  0  0  0  0  0  0  0  0  0  0
  190.5510  178.2230  144.4820 C   0  0  0  0  0  2  0  0  0  0  0  0
  188.1220  177.8370  141.6250 C   0  0  0  0  0  3  0  0  0  0  0  0
  190.9620  175.3600  146.9150 C   0  0  2  0  0  3  0  0  0  0  0  0
  188.8170  175.0490  145.6160 C   0  0  0  0  0  2  0  0  0  0  0  0
  190.1590  178.2270  143.0110 C   0  0  0  0  0  2  0  0  0  0  0  0
  192.9270  174.4850  146.1070 C   0  0  0  0  0  2  0  0  0  0  0  0
  191.0600  176.7830  146.3420 C   0  0  1  0  0  3  0  0  0  0  0  0
  192.2240  174.8320  147.2780 O   0  0  0  0  0  0  0  0  0  0  0  0
  186.0200  177.5550  139.9040 Cl  0  0  0  0  0  0  0  0  0  0  0  0
  186.3250  176.3920  142.3580 C   0  0  0  0  0  3  0  0  0  0  0  0
  190.4180  176.8660  145.0130 N   0  0  1  0  0  0  0  0  0  0  0  0
  192.1820  173.3880  145.3570 C   0  0  0  0  0  2  0  0  0  0  0  0
  190.1280  174.3780  146.0600 C   0  0  1  0  0  3  0  0  0  0  0  0
  190.1710  172.7520  144.3500 C   0  0  0  0  0  2  0  0  0  0  0  0
  189.8880  172.9190  142.8580 C   0  0  2  0  0  3  0  0  0  0  0  0
  188.7100  174.0470  140.5020 C   0  0  0  0  0  0  0  0  0  0  0  0
  190.4110  174.2510  142.3160 C   0  0  0  0  0  2  0  0  0  0  0  0
  188.4320  172.7140  142.5290 C   0  0  0  0  0  3  0  0  0  0  0  0
  187.8990  173.2220  141.4140 C   0  0  0  0  0  3  0  0  0  0  0  0
  188.1940  174.5020  139.4490 O   0  0  0  0  0  0  0  0  0  0  0  0
  190.1550  174.3280  140.8100 C   0  0  0  0  0  2  0  0  0  0  0  0
  1 19  1  0  0  0  0
  1 20  1  0  0  0  0
  2  7  1  0  0  0  0
  4 12  1  0  0  0  0
  4  7  2  0  0  0  0
  5 11  1  6  0  0  0
  6  9  2  0  0  0  0
  6 17  1  0  0  0  0
  7  5  1  0  0  0  0
  9  4  1  0  0  0  0
 10 15  1  6  0  0  0
 12  8  1  0  0  0  0
 13 15  1  0  0  0  0
 14 10  1  0  0  0  0
 14  3  1  1  0  0  0
 16  6  1  0  0  0  0
 17  2  2  0  0  0  0
 18  8  1  1  0  0  0
 18  5  1  0  0  0  0
 18 14  1  0  0  0  0
 19 13  1  0  0  0  0
 20 11  1  6  0  0  0
 20 10  1  0  0  0  0
 21  1  1  0  0  0  0
 22 21  1  1  0  0  0
 23 28  1  0  0  0  0
 23 26  1  0  0  0  0
 24 22  1  0  0  0  0
 25 22  1  0  0  0  0
 26 25  2  0  0  0  0
 27 23  2  0  0  0  0
 28 24  1  0  0  0  0
M  END
>  <MODEL>
8

>  <REMARK>
 VINA RESULT:      -6.4      2.994      6.068
  Name = 
  2 active torsions:
  status: ('A' for Active; 'I' for Inactive)
    1  A    between atoms: N_1  and  C_2
    2  A    between atoms: C_2  and  C_3
                            x       y       z     vdW  Elec       q    Type
                         _______ _______ _______ _____ _____    ______ ____

>  <TORSDO>
F 2

$$$$
=
 OpenBabel11052418123D

 28 32  0  0  1  0  0  0  0  0999 V2000
  189.3900  176.2170  143.6670 N   0  0  0  0  0  0  0  0  0  0  0  0
  192.2940  172.7180  144.7390 C   0  0  0  0  0  3  0  0  0  0  0  0
  189.0430  172.9560  140.4440 C   0  0  0  0  0  1  0  0  0  0  0  0
  193.2490  173.6670  142.7190 C   0  0  0  0  0  0  0  0  0  0  0  0
  190.7280  173.3980  142.8610 C   0  0  1  0  0  3  0  0  0  0  0  0
  194.6960  172.9560  144.5310 C   0  0  0  0  0  0  0  0  0  0  0  0
  192.1130  173.2970  143.4720 C   0  0  0  0  0  0  0  0  0  0  0  0
  191.7480  173.9840  140.7590 C   0  0  0  0  0  2  0  0  0  0  0  0
  194.5290  173.5120  143.2600 C   0  0  0  0  0  3  0  0  0  0  0  0
  188.2640  174.7070  142.0340 C   0  0  2  0  0  3  0  0  0  0  0  0
  189.6630  173.7670  143.9170 C   0  0  0  0  0  2  0  0  0  0  0  0
  193.1110  174.2950  141.3640 C   0  0  0  0  0  2  0  0  0  0  0  0
  188.2140  176.9750  141.6670 C   0  0  0  0  0  2  0  0  0  0  0  0
  189.3830  174.3140  141.0550 C   0  0  1  0  0  3  0  0  0  0  0  0
  187.4760  175.7800  141.5550 O   0  0  0  0  0  0  0  0  0  0  0  0
  196.3020  172.7650  145.1990 Cl  0  0  0  0  0  0  0  0  0  0  0  0
  193.5790  172.5550  145.2680 C   0  0  0  0  0  3  0  0  0  0  0  0
  190.7020  174.3360  141.7200 N   0  0  1  0  0  0  0  0  0  0  0  0
  188.5200  177.2640  143.1320 C   0  0  0  0  0  2  0  0  0  0  0  0
  188.7300  174.9150  143.4940 C   0  0  1  0  0  3  0  0  0  0  0  0
  189.4920  176.4650  145.1010 C   0  0  0  0  0  2  0  0  0  0  0  0
  190.9320  176.7440  145.5290 C   0  0  2  0  0  3  0  0  0  0  0  0
  193.6990  176.1840  146.0220 C   0  0  0  0  0  0  0  0  0  0  0  0
  191.9090  176.6710  144.3520 C   0  0  0  0  0  2  0  0  0  0  0  0
  191.3680  175.8660  146.6730 C   0  0  0  0  0  3  0  0  0  0  0  0
  192.6610  175.6330  146.9100 C   0  0  0  0  0  3  0  0  0  0  0  0
  194.9120  175.9670  146.2720 O   0  0  0  0  0  0  0  0  0  0  0  0
  193.3180  177.0230  144.8330 C   0  0  0  0  0  2  0  0  0  0  0  0
  1 21  1  0  0  0  0
  2 17  1  0  0  0  0
  4  9  2  0  0  0  0
  4  7  1  0  0  0  0
  5  7  1  0  0  0  0
  5 11  1  1  0  0  0
  6 16  1  0  0  0  0
  6 17  2  0  0  0  0
  7  2  2  0  0  0  0
  8 12  1  0  0  0  0
  9  6  1  0  0  0  0
 10 15  1  6  0  0  0
 10 20  1  0  0  0  0
 12  4  1  0  0  0  0
 13 19  1  0  0  0  0
 14  3  1  1  0  0  0
 14 18  1  0  0  0  0
 14 10  1  0  0  0  0
 15 13  1  0  0  0  0
 18  8  1  6  0  0  0
 18  5  1  0  0  0  0
 19  1  1  0  0  0  0
 20  1  1  0  0  0  0
 20 11  1  6  0  0  0
 22 21  1  6  0  0  0
 22 25  1  0  0  0  0
 23 27  2  0  0  0  0
 23 26  1  0  0  0  0
 24 28  1  0  0  0  0
 24 22  1  0  0  0  0
 25 26  2  0  0  0  0
 28 23  1  0  0  0  0
M  END
>  <MODEL>
9

>  <REMARK>
 VINA RESULT:      -6.3      2.656      4.102
  Name = 
  2 active torsions:
  status: ('A' for Active; 'I' for Inactive)
    1  A    between atoms: N_1  and  C_2
    2  A    between atoms: C_2  and  C_3
                            x       y       z     vdW  Elec       q    Type
                         _______ _______ _______ _____ _____    ______ ____

>  <TORSDO>
F 2

$$$$
