=
 OpenBabel11052418353D

 34 40  0  0  1  0  0  0  0  0999 V2000
  191.4970  173.1770  141.2460 N   0  0  1  0  0  0  0  0  0  0  0  0
  189.3500  173.2980  142.3070 C   0  0  1  0  0  3  0  0  0  0  0  0
  191.4500  174.0560  143.5910 C   0  0  0  0  0  0  0  0  0  0  0  0
  191.6240  174.9590  145.8400 C   0  0  0  0  0  0  0  0  0  0  0  0
  189.5360  173.2110  139.8180 C   0  0  0  0  0  3  0  0  0  0  0  0
  188.7690  173.1370  140.9200 C   0  0  0  0  0  3  0  0  0  0  0  0
  189.6850  176.1290  144.4120 S   0  0  0  0  0  0  0  0  0  0  0  0
  190.7400  173.9660  142.2370 C   0  0  1  0  0  3  0  0  0  0  0  0
  190.9010  175.9980  147.0940 S   0  0  0  0  0  0  0  0  0  0  0  0
  191.0050  173.5420  139.9220 C   0  0  0  0  0  2  0  0  0  0  0  0
  192.6870  173.3810  143.7960 C   0  0  0  0  0  0  0  0  0  0  0  0
  192.9220  173.4340  141.3270 C   0  0  0  0  0  2  0  0  0  0  0  0
  188.4490  173.9770  143.0980 F   0  0  0  0  0  0  0  0  0  0  0  0
  192.7320  174.1610  146.0970 C   0  0  0  0  0  3  0  0  0  0  0  0
  193.2900  173.3720  145.0820 C   0  0  0  0  0  0  0  0  0  0  0  0
  189.3200  175.9690  146.1870 C   0  0  1  0  0  3  0  0  0  0  0  0
  191.0050  174.9380  144.6010 C   0  0  0  0  0  0  0  0  0  0  0  0
  193.4120  172.7930  142.6140 C   0  0  0  0  0  2  0  0  0  0  0  0
  195.5710  170.4690  145.9810 C   0  0  0  0  0  0  0  0  0  0  0  0
  196.8090  171.1110  146.0700 C   0  0  0  0  0  3  0  0  0  0  0  0
  194.5060  172.5800  145.3990 C   0  0  0  0  0  0  0  0  0  0  0  0
  196.9000  172.4840  145.8340 C   0  0  0  0  0  3  0  0  0  0  0  0
  194.4260  171.2000  145.6530 C   0  0  0  0  0  3  0  0  0  0  0  0
  195.7550  173.2150  145.5040 C   0  0  0  0  0  3  0  0  0  0  0  0
  195.4800  169.1380  146.2150 F   0  0  0  0  0  0  0  0  0  0  0  0
  188.4860  177.0780  146.6130 N   0  0  0  0  0  2  0  0  0  0  0  0
  187.1180  176.5860  146.6670 C   0  0  0  0  0  2  0  0  0  0  0  0
  186.6750  178.5440  145.0270 C   0  0  0  0  0  2  0  0  0  0  0  0
  186.1880  177.5980  146.0870 C   0  0  0  0  0  0  0  0  0  0  0  0
  185.6470  178.6740  143.8910 C   0  0  1  0  0  3  0  0  0  0  0  0
  184.2120  178.7500  144.3410 C   0  0  1  0  0  3  0  0  0  0  0  0
  184.0040  178.6840  145.8620 C   0  0  0  0  0  2  0  0  0  0  0  0
  184.9130  177.6640  146.4840 C   0  0  0  0  0  3  0  0  0  0  0  0
  184.9630  179.8980  144.0230 O   0  0  0  0  0  0  0  0  0  0  0  0
  1 10  1  6  0  0  0
  1 12  1  0  0  0  0
  1  8  1  0  0  0  0
  2 13  1  1  0  0  0
  3 11  2  0  0  0  0
  3 17  1  0  0  0  0
  4 14  1  0  0  0  0
  4  9  1  0  0  0  0
  5 10  1  0  0  0  0
  5  6  2  0  0  0  0
  6  2  1  0  0  0  0
  7 17  1  0  0  0  0
  7 16  1  0  0  0  0
  8  2  1  0  0  0  0
  8  3  1  1  0  0  0
 11 15  1  0  0  0  0
 12 18  1  0  0  0  0
 15 21  1  0  0  0  0
 15 14  2  0  0  0  0
 16 26  1  1  0  0  0
 16  9  1  0  0  0  0
 17  4  2  0  0  0  0
 18 11  1  0  0  0  0
 19 20  1  0  0  0  0
 19 25  1  0  0  0  0
 21 24  2  0  0  0  0
 21 23  1  0  0  0  0
 22 20  2  0  0  0  0
 23 19  2  0  0  0  0
 24 22  1  0  0  0  0
 26 27  1  0  0  0  0
 28 29  1  0  0  0  0
 29 33  2  0  0  0  0
 29 27  1  0  0  0  0
 30 34  1  0  0  0  0
 30 31  1  0  0  0  0
 30 28  1  1  0  0  0
 31 32  1  1  0  0  0
 32 33  1  0  0  0  0
 34 31  1  0  0  0  0
M  END
>  <MODEL>
1

>  <REMARK>
 VINA RESULT:      -8.4      0.000      0.000
  Name = 
  4 active torsions:
  status: ('A' for Active; 'I' for Inactive)
    1  A    between atoms: C_3  and  C_13
    2  A    between atoms: C_3  and  N_17
    3  A    between atoms: C_12  and  C_28
    4  A    between atoms: N_17  and  C_29
                            x       y       z     vdW  Elec       q    Type
                         _______ _______ _______ _____ _____    ______ ____

>  <TORSDO>
F 4

$$$$
=
 OpenBabel11052418353D

 34 40  0  0  1  0  0  0  0  0999 V2000
  188.7830  174.0880  141.4600 N   0  0  1  0  0  0  0  0  0  0  0  0
  191.1030  174.6850  141.5530 C   0  0  1  0  0  3  0  0  0  0  0  0
  189.5740  175.2020  143.5600 C   0  0  0  0  0  0  0  0  0  0  0  0
  190.1370  176.2390  145.6840 C   0  0  0  0  0  0  0  0  0  0  0  0
  190.3020  172.9340  139.9630 C   0  0  0  0  0  3  0  0  0  0  0  0
  191.2850  173.7550  140.3750 C   0  0  0  0  0  3  0  0  0  0  0  0
  191.8620  174.3110  144.9950 S   0  0  0  0  0  0  0  0  0  0  0  0
  189.8990  174.2420  142.4120 C   0  0  1  0  0  3  0  0  0  0  0  0
  191.3350  176.4160  146.9900 S   0  0  0  0  0  0  0  0  0  0  0  0
  188.9990  172.8500  140.7200 C   0  0  0  0  0  2  0  0  0  0  0  0
  188.3160  175.8680  143.6000 C   0  0  0  0  0  0  0  0  0  0  0  0
  187.5010  174.0370  142.1370 C   0  0  0  0  0  2  0  0  0  0  0  0
  192.2870  174.7600  142.2550 F   0  0  0  0  0  0  0  0  0  0  0  0
  188.9890  177.0200  145.6300 C   0  0  0  0  0  3  0  0  0  0  0  0
  188.0550  176.8410  144.6010 C   0  0  0  0  0  0  0  0  0  0  0  0
  192.6090  175.7000  145.9000 C   0  0  1  0  0  3  0  0  0  0  0  0
  190.4180  175.3190  144.6870 C   0  0  0  0  0  0  0  0  0  0  0  0
  187.2220  175.4370  142.6580 C   0  0  0  0  0  2  0  0  0  0  0  0
  184.6470  178.2100  145.5770 C   0  0  0  0  0  0  0  0  0  0  0  0
  184.4600  179.1950  144.6050 C   0  0  0  0  0  3  0  0  0  0  0  0
  186.8210  177.6680  144.6240 C   0  0  0  0  0  0  0  0  0  0  0  0
  185.4420  179.4160  143.6380 C   0  0  0  0  0  3  0  0  0  0  0  0
  185.8180  177.4470  145.5820 C   0  0  0  0  0  3  0  0  0  0  0  0
  186.6140  178.6540  143.6450 C   0  0  0  0  0  3  0  0  0  0  0  0
  183.6920  177.9910  146.5130 F   0  0  0  0  0  0  0  0  0  0  0  0
  193.7260  175.2190  146.6930 N   0  0  0  0  0  2  0  0  0  0  0  0
  194.9370  175.7600  146.0970 C   0  0  0  0  0  2  0  0  0  0  0  0
  195.7010  174.5670  143.9260 C   0  0  0  0  0  2  0  0  0  0  0  0
  195.7050  174.6720  145.4240 C   0  0  0  0  0  0  0  0  0  0  0  0
  197.1150  174.2900  143.3910 C   0  0  1  0  0  3  0  0  0  0  0  0
  197.9160  173.3000  144.1950 C   0  0  1  0  0  3  0  0  0  0  0  0
  197.1920  172.7260  145.4230 C   0  0  0  0  0  2  0  0  0  0  0  0
  196.4170  173.7940  146.1380 C   0  0  0  0  0  3  0  0  0  0  0  0
  197.2170  172.9330  143.0290 O   0  0  0  0  0  0  0  0  0  0  0  0
  1 10  1  1  0  0  0
  1 12  1  0  0  0  0
  1  8  1  0  0  0  0
  2 13  1  1  0  0  0
  2  8  1  0  0  0  0
  3 11  2  0  0  0  0
  3 17  1  0  0  0  0
  4  9  1  0  0  0  0
  5  6  2  0  0  0  0
  5 10  1  0  0  0  0
  6  2  1  0  0  0  0
  7 16  1  0  0  0  0
  8  3  1  1  0  0  0
 11 15  1  0  0  0  0
 12 18  1  0  0  0  0
 14  4  1  0  0  0  0
 15 21  1  0  0  0  0
 15 14  2  0  0  0  0
 16 26  1  1  0  0  0
 16  9  1  0  0  0  0
 17  7  1  0  0  0  0
 17  4  2  0  0  0  0
 18 11  1  0  0  0  0
 19 23  1  0  0  0  0
 19 25  1  0  0  0  0
 20 19  2  0  0  0  0
 21 23  2  0  0  0  0
 22 24  2  0  0  0  0
 22 20  1  0  0  0  0
 24 21  1  0  0  0  0
 27 26  1  0  0  0  0
 28 29  1  0  0  0  0
 29 27  1  0  0  0  0
 29 33  2  0  0  0  0
 30 28  1  1  0  0  0
 30 31  1  0  0  0  0
 31 32  1  1  0  0  0
 32 33  1  0  0  0  0
 34 30  1  0  0  0  0
 34 31  1  0  0  0  0
M  END
>  <MODEL>
2

>  <REMARK>
 VINA RESULT:      -8.4      3.427      8.691
  Name = 
  4 active torsions:
  status: ('A' for Active; 'I' for Inactive)
    1  A    between atoms: C_3  and  C_13
    2  A    between atoms: C_3  and  N_17
    3  A    between atoms: C_12  and  C_28
    4  A    between atoms: N_17  and  C_29
                            x       y       z     vdW  Elec       q    Type
                         _______ _______ _______ _____ _____    ______ ____

>  <TORSDO>
F 4

$$$$
=
 OpenBabel11052418353D

 34 40  0  0  1  0  0  0  0  0999 V2000
  191.9110  176.4230  145.3380 N   0  0  1  0  0  0  0  0  0  0  0  0
  192.0370  174.0410  145.0970 C   0  0  1  0  0  3  0  0  0  0  0  0
  190.2340  175.3570  143.8120 C   0  0  0  0  0  0  0  0  0  0  0  0
  188.5450  174.5310  142.2740 C   0  0  0  0  0  0  0  0  0  0  0  0
  194.0100  175.3470  145.9000 C   0  0  0  0  0  3  0  0  0  0  0  0
  193.4150  174.1550  145.7120 C   0  0  0  0  0  3  0  0  0  0  0  0
  190.9780  173.5430  141.7520 S   0  0  0  0  0  0  0  0  0  0  0  0
  191.6640  175.3460  144.3610 C   0  0  1  0  0  3  0  0  0  0  0  0
  188.1390  173.3770  140.9780 S   0  0  0  0  0  0  0  0  0  0  0  0
  193.3530  176.6200  145.4250 C   0  0  0  0  0  2  0  0  0  0  0  0
  189.2940  176.3160  144.2850 C   0  0  0  0  0  0  0  0  0  0  0  0
  191.2700  177.6640  144.9440 C   0  0  0  0  0  2  0  0  0  0  0  0
  191.9920  172.9200  144.2970 F   0  0  0  0  0  0  0  0  0  0  0  0
  187.5830  175.3450  142.8600 C   0  0  0  0  0  3  0  0  0  0  0  0
  187.9400  176.2580  143.8610 C   0  0  0  0  0  0  0  0  0  0  0  0
  189.6110  172.3930  141.4120 C   0  0  1  0  0  3  0  0  0  0  0  0
  189.8580  174.5520  142.7140 C   0  0  0  0  0  0  0  0  0  0  0  0
  189.7750  177.4670  145.1310 C   0  0  0  0  0  2  0  0  0  0  0  0
  185.7070  179.2720  144.4650 C   0  0  0  0  0  0  0  0  0  0  0  0
  184.9170  178.8190  145.5240 C   0  0  0  0  0  3  0  0  0  0  0  0
  186.8800  177.1400  144.4140 C   0  0  0  0  0  0  0  0  0  0  0  0
  185.1070  177.5350  146.0360 C   0  0  0  0  0  3  0  0  0  0  0  0
  186.6870  178.4390  143.9180 C   0  0  0  0  0  3  0  0  0  0  0  0
  186.0860  176.7010  145.4870 C   0  0  0  0  0  3  0  0  0  0  0  0
  185.5260  180.5210  143.9700 F   0  0  0  0  0  0  0  0  0  0  0  0
  189.9700  171.5250  140.3050 N   0  0  0  0  0  2  0  0  0  0  0  0
  190.8820  172.2740  139.4550 C   0  0  0  0  0  2  0  0  0  0  0  0
  189.9820  173.7780  137.5450 C   0  0  0  0  0  2  0  0  0  0  0  0
  190.3060  172.4150  138.0860 C   0  0  0  0  0  0  0  0  0  0  0  0
  190.4480  173.9160  136.0870 C   0  0  1  0  0  3  0  0  0  0  0  0
  190.2030  172.7060  135.2250 C   0  0  1  0  0  3  0  0  0  0  0  0
  189.5270  171.5260  135.9410 C   0  0  0  0  0  2  0  0  0  0  0  0
  190.0900  171.3410  137.3200 C   0  0  0  0  0  3  0  0  0  0  0  0
  189.3340  173.8140  135.2320 O   0  0  0  0  0  0  0  0  0  0  0  0
  1 12  1  6  0  0  0
  1 10  1  0  0  0  0
  2 13  1  6  0  0  0
  2  6  1  0  0  0  0
  3 11  1  0  0  0  0
  4 17  1  0  0  0  0
  4 14  2  0  0  0  0
  6  5  2  0  0  0  0
  7 17  1  0  0  0  0
  8  3  1  1  0  0  0
  8  2  1  0  0  0  0
  8  1  1  0  0  0  0
  9 16  1  0  0  0  0
  9  4  1  0  0  0  0
 10  5  1  0  0  0  0
 11 18  1  0  0  0  0
 12 18  1  0  0  0  0
 14 15  1  0  0  0  0
 15 11  2  0  0  0  0
 15 21  1  0  0  0  0
 16 26  1  6  0  0  0
 16  7  1  0  0  0  0
 17  3  2  0  0  0  0
 19 20  1  0  0  0  0
 20 22  2  0  0  0  0
 21 24  2  0  0  0  0
 23 21  1  0  0  0  0
 23 19  2  0  0  0  0
 24 22  1  0  0  0  0
 25 19  1  0  0  0  0
 27 26  1  0  0  0  0
 28 29  1  0  0  0  0
 29 27  1  0  0  0  0
 30 28  1  1  0  0  0
 31 34  1  0  0  0  0
 31 32  1  1  0  0  0
 31 30  1  0  0  0  0
 32 33  1  0  0  0  0
 33 29  2  0  0  0  0
 34 30  1  0  0  0  0
M  END
>  <MODEL>
3

>  <REMARK>
 VINA RESULT:      -8.2      3.382      8.883
  Name = 
  4 active torsions:
  status: ('A' for Active; 'I' for Inactive)
    1  A    between atoms: C_3  and  C_13
    2  A    between atoms: C_3  and  N_17
    3  A    between atoms: C_12  and  C_28
    4  A    between atoms: N_17  and  C_29
                            x       y       z     vdW  Elec       q    Type
                         _______ _______ _______ _____ _____    ______ ____

>  <TORSDO>
F 4

$$$$
=
 OpenBabel11052418353D

 34 40  0  0  1  0  0  0  0  0999 V2000
  191.7640  176.4420  145.2350 N   0  0  1  0  0  0  0  0  0  0  0  0
  191.8420  174.0560  145.0210 C   0  0  1  0  0  3  0  0  0  0  0  0
  190.1700  175.4080  143.6030 C   0  0  0  0  0  0  0  0  0  0  0  0
  188.5710  174.6140  141.9550 C   0  0  0  0  0  0  0  0  0  0  0  0
  193.7880  175.3150  145.9510 C   0  0  0  0  0  3  0  0  0  0  0  0
  193.1760  174.1370  145.7290 C   0  0  0  0  0  3  0  0  0  0  0  0
  191.0070  173.5560  141.6130 S   0  0  0  0  0  0  0  0  0  0  0  0
  191.5570  175.3630  144.2510 C   0  0  1  0  0  3  0  0  0  0  0  0
  188.2250  173.4600  140.6420 S   0  0  0  0  0  0  0  0  0  0  0  0
  193.2020  176.6010  145.4220 C   0  0  0  0  0  2  0  0  0  0  0  0
  189.2260  176.3960  144.0020 C   0  0  0  0  0  0  0  0  0  0  0  0
  191.1870  177.6960  144.7890 C   0  0  0  0  0  2  0  0  0  0  0  0
  191.8220  172.9290  144.2270 F   0  0  0  0  0  0  0  0  0  0  0  0
  187.5930  175.4590  142.4670 C   0  0  0  0  0  3  0  0  0  0  0  0
  187.9040  176.3700  143.4850 C   0  0  0  0  0  0  0  0  0  0  0  0
  189.6350  172.4410  141.1850 C   0  0  1  0  0  3  0  0  0  0  0  0
  189.8500  174.6030  142.4860 C   0  0  0  0  0  0  0  0  0  0  0  0
  189.6780  177.5410  144.8720 C   0  0  0  0  0  2  0  0  0  0  0  0
  184.9860  177.7940  145.4580 C   0  0  0  0  0  0  0  0  0  0  0  0
  184.7630  178.9980  144.7870 C   0  0  0  0  0  3  0  0  0  0  0  0
  186.8320  177.2850  143.9560 C   0  0  0  0  0  0  0  0  0  0  0  0
  185.5630  179.3470  143.6970 C   0  0  0  0  0  3  0  0  0  0  0  0
  186.0110  176.9400  145.0410 C   0  0  0  0  0  3  0  0  0  0  0  0
  186.5890  178.4940  143.2820 C   0  0  0  0  0  3  0  0  0  0  0  0
  184.2070  177.4520  146.5130 F   0  0  0  0  0  0  0  0  0  0  0  0
  190.0470  171.5540  140.1120 N   0  0  0  0  0  2  0  0  0  0  0  0
  189.2950  171.9410  138.9280 C   0  0  0  0  0  2  0  0  0  0  0  0
  191.5250  171.2590  137.7950 C   0  0  0  0  0  2  0  0  0  0  0  0
  190.0630  171.5890  137.6980 C   0  0  0  0  0  0  0  0  0  0  0  0
  191.8680  170.0270  136.9420 C   0  0  1  0  0  3  0  0  0  0  0  0
  191.1920  169.9780  135.5970 C   0  0  1  0  0  3  0  0  0  0  0  0
  190.2650  171.1660  135.2940 C   0  0  0  0  0  2  0  0  0  0  0  0
  189.4620  171.5430  136.5050 C   0  0  0  0  0  3  0  0  0  0  0  0
  192.5100  170.4460  135.7600 O   0  0  0  0  0  0  0  0  0  0  0  0
  1 12  1  6  0  0  0
  1 10  1  0  0  0  0
  2 13  1  6  0  0  0
  2  6  1  0  0  0  0
  3 11  1  0  0  0  0
  4 14  2  0  0  0  0
  4 17  1  0  0  0  0
  6  5  2  0  0  0  0
  7 17  1  0  0  0  0
  8  3  1  1  0  0  0
  8  2  1  0  0  0  0
  8  1  1  0  0  0  0
  9 16  1  0  0  0  0
  9  4  1  0  0  0  0
 10  5  1  0  0  0  0
 11 18  1  0  0  0  0
 12 18  1  0  0  0  0
 14 15  1  0  0  0  0
 15 21  1  0  0  0  0
 15 11  2  0  0  0  0
 16 26  1  6  0  0  0
 16  7  1  0  0  0  0
 17  3  2  0  0  0  0
 19 25  1  0  0  0  0
 20 19  2  0  0  0  0
 21 23  2  0  0  0  0
 22 20  1  0  0  0  0
 23 19  1  0  0  0  0
 24 22  2  0  0  0  0
 24 21  1  0  0  0  0
 27 26  1  0  0  0  0
 29 28  1  0  0  0  0
 29 27  1  0  0  0  0
 30 28  1  1  0  0  0
 31 32  1  1  0  0  0
 31 34  1  0  0  0  0
 31 30  1  0  0  0  0
 32 33  1  0  0  0  0
 33 29  2  0  0  0  0
 34 30  1  0  0  0  0
M  END
>  <MODEL>
4

>  <REMARK>
 VINA RESULT:      -8.0      3.831      9.300
  Name = 
  4 active torsions:
  status: ('A' for Active; 'I' for Inactive)
    1  A    between atoms: C_3  and  C_13
    2  A    between atoms: C_3  and  N_17
    3  A    between atoms: C_12  and  C_28
    4  A    between atoms: N_17  and  C_29
                            x       y       z     vdW  Elec       q    Type
                         _______ _______ _______ _____ _____    ______ ____

>  <TORSDO>
F 4

$$$$
=
 OpenBabel11052418353D

 34 40  0  0  1  0  0  0  0  0999 V2000
  191.5560  176.2250  145.7290 N   0  0  1  0  0  0  0  0  0  0  0  0
  191.6780  173.9620  144.9470 C   0  0  1  0  0  3  0  0  0  0  0  0
  190.0590  175.6140  143.8150 C   0  0  0  0  0  0  0  0  0  0  0  0
  188.5540  175.2420  141.9450 C   0  0  0  0  0  0  0  0  0  0  0  0
  193.5590  174.9600  146.2520 C   0  0  0  0  0  3  0  0  0  0  0  0
  192.9740  173.8710  145.7210 C   0  0  0  0  0  3  0  0  0  0  0  0
  191.0180  174.3030  141.4810 S   0  0  0  0  0  0  0  0  0  0  0  0
  191.4130  175.4160  144.5030 C   0  0  1  0  0  3  0  0  0  0  0  0
  188.2890  174.4410  140.3760 S   0  0  0  0  0  0  0  0  0  0  0  0
  192.9810  176.3360  146.0220 C   0  0  0  0  0  2  0  0  0  0  0  0
  189.0830  176.4740  144.3930 C   0  0  0  0  0  0  0  0  0  0  0  0
  190.9840  177.5490  145.5700 C   0  0  0  0  0  2  0  0  0  0  0  0
  191.7130  173.0620  143.9030 F   0  0  0  0  0  0  0  0  0  0  0  0
  187.5410  175.9360  142.5950 C   0  0  0  0  0  3  0  0  0  0  0  0
  187.7880  176.5740  143.8180 C   0  0  0  0  0  0  0  0  0  0  0  0
  189.6850  173.3220  140.7270 C   0  0  1  0  0  3  0  0  0  0  0  0
  189.8060  175.1050  142.5220 C   0  0  0  0  0  0  0  0  0  0  0  0
  189.4750  177.3750  145.5360 C   0  0  0  0  0  2  0  0  0  0  0  0
  185.3840  179.3930  144.6600 C   0  0  0  0  0  0  0  0  0  0  0  0
  184.6310  178.8130  145.6840 C   0  0  0  0  0  3  0  0  0  0  0  0
  186.6820  177.3450  144.4410 C   0  0  0  0  0  0  0  0  0  0  0  0
  184.9030  177.5070  146.0960 C   0  0  0  0  0  3  0  0  0  0  0  0
  186.4070  178.6640  144.0470 C   0  0  0  0  0  3  0  0  0  0  0  0
  185.9250  176.7790  145.4810 C   0  0  0  0  0  3  0  0  0  0  0  0
  185.1240  180.6620  144.2630 F   0  0  0  0  0  0  0  0  0  0  0  0
  190.1610  172.7230  139.4930 N   0  0  0  0  0  2  0  0  0  0  0  0
  190.0170  171.2830  139.6340 C   0  0  0  0  0  2  0  0  0  0  0  0
  190.8160  170.0350  141.7610 C   0  0  0  0  0  2  0  0  0  0  0  0
  191.1260  170.7380  140.4710 C   0  0  0  0  0  0  0  0  0  0  0  0
  191.6550  168.7550  141.9040 C   0  0  1  0  0  3  0  0  0  0  0  0
  193.0890  168.8820  141.4630 C   0  0  1  0  0  3  0  0  0  0  0  0
  193.4840  170.2720  140.9390 C   0  0  0  0  0  2  0  0  0  0  0  0
  192.3990  170.8500  140.0780 C   0  0  0  0  0  3  0  0  0  0  0  0
  192.7050  168.9870  142.8140 O   0  0  0  0  0  0  0  0  0  0  0  0
  1 12  1  6  0  0  0
  1 10  1  0  0  0  0
  2 13  1  6  0  0  0
  2  6  1  0  0  0  0
  3 11  1  0  0  0  0
  4 17  1  0  0  0  0
  4 14  2  0  0  0  0
  6  5  2  0  0  0  0
  7 17  1  0  0  0  0
  8  3  1  1  0  0  0
  8  2  1  0  0  0  0
  8  1  1  0  0  0  0
  9 16  1  0  0  0  0
  9  4  1  0  0  0  0
 10  5  1  0  0  0  0
 11 18  1  0  0  0  0
 14 15  1  0  0  0  0
 15 11  2  0  0  0  0
 15 21  1  0  0  0  0
 16 26  1  6  0  0  0
 16  7  1  0  0  0  0
 17  3  2  0  0  0  0
 18 12  1  0  0  0  0
 19 20  1  0  0  0  0
 20 22  2  0  0  0  0
 21 24  2  0  0  0  0
 23 21  1  0  0  0  0
 23 19  2  0  0  0  0
 24 22  1  0  0  0  0
 25 19  1  0  0  0  0
 26 27  1  0  0  0  0
 27 29  1  0  0  0  0
 29 28  1  0  0  0  0
 30 28  1  6  0  0  0
 30 34  1  0  0  0  0
 31 32  1  6  0  0  0
 31 30  1  0  0  0  0
 31 34  1  0  0  0  0
 33 29  2  0  0  0  0
 33 32  1  0  0  0  0
M  END
>  <MODEL>
5

>  <REMARK>
 VINA RESULT:      -7.9      3.559      9.172
  Name = 
  4 active torsions:
  status: ('A' for Active; 'I' for Inactive)
    1  A    between atoms: C_3  and  C_13
    2  A    between atoms: C_3  and  N_17
    3  A    between atoms: C_12  and  C_28
    4  A    between atoms: N_17  and  C_29
                            x       y       z     vdW  Elec       q    Type
                         _______ _______ _______ _____ _____    ______ ____

>  <TORSDO>
F 4

$$$$
=
 OpenBabel11052418353D

 34 40  0  0  1  0  0  0  0  0999 V2000
  193.1660  174.4980  144.9370 N   0  0  1  0  0  0  0  0  0  0  0  0
  192.8870  176.7120  144.0600 C   0  0  1  0  0  3  0  0  0  0  0  0
  191.2190  174.8630  143.4030 C   0  0  0  0  0  0  0  0  0  0  0  0
  189.2650  175.0070  141.9680 C   0  0  0  0  0  0  0  0  0  0  0  0
  194.2230  176.3230  146.1340 C   0  0  0  0  0  3  0  0  0  0  0  0
  193.8450  177.1520  145.1450 C   0  0  0  0  0  3  0  0  0  0  0  0
  189.3670  176.9910  143.7630 S   0  0  0  0  0  0  0  0  0  0  0  0
  192.1230  175.4430  144.4950 C   0  0  1  0  0  3  0  0  0  0  0  0
  187.8700  175.9790  141.4340 S   0  0  0  0  0  0  0  0  0  0  0  0
  193.6360  174.9370  146.2460 C   0  0  0  0  0  2  0  0  0  0  0  0
  191.4610  173.5550  142.8950 C   0  0  0  0  0  0  0  0  0  0  0  0
  192.6600  173.1410  145.0270 C   0  0  0  0  0  2  0  0  0  0  0  0
  192.0660  177.7680  143.7280 F   0  0  0  0  0  0  0  0  0  0  0  0
  189.6050  173.8100  141.3490 C   0  0  0  0  0  3  0  0  0  0  0  0
  190.6950  173.0590  141.8070 C   0  0  0  0  0  0  0  0  0  0  0  0
  188.6410  177.4610  142.1630 C   0  0  1  0  0  3  0  0  0  0  0  0
  190.0340  175.5180  143.0000 C   0  0  0  0  0  0  0  0  0  0  0  0
  192.4420  172.6570  143.6040 C   0  0  0  0  0  2  0  0  0  0  0  0
  190.8750  169.3290  141.1010 C   0  0  0  0  0  0  0  0  0  0  0  0
  191.5930  169.3120  139.9030 C   0  0  0  0  0  3  0  0  0  0  0  0
  190.9800  171.7610  141.1420 C   0  0  0  0  0  0  0  0  0  0  0  0
  192.0120  170.5120  139.3250 C   0  0  0  0  0  3  0  0  0  0  0  0
  190.5760  170.5470  141.7200 C   0  0  0  0  0  3  0  0  0  0  0  0
  191.7110  171.7290  139.9420 C   0  0  0  0  0  3  0  0  0  0  0  0
  190.4720  168.1660  141.6660 F   0  0  0  0  0  0  0  0  0  0  0  0
  187.6380  178.4900  142.3690 N   0  0  0  0  0  2  0  0  0  0  0  0
  186.3700  177.8120  142.5860 C   0  0  0  0  0  2  0  0  0  0  0  0
  185.5600  179.1730  144.6390 C   0  0  0  0  0  2  0  0  0  0  0  0
  186.0000  177.8720  144.0300 C   0  0  0  0  0  0  0  0  0  0  0  0
  184.3340  178.9700  145.5430 C   0  0  1  0  0  3  0  0  0  0  0  0
  184.3760  177.7340  146.4020 C   0  0  1  0  0  3  0  0  0  0  0  0
  185.6380  176.8730  146.2370 C   0  0  0  0  0  2  0  0  0  0  0  0
  186.0360  176.7750  144.7930 C   0  0  0  0  0  3  0  0  0  0  0  0
  184.7400  179.0040  146.8900 O   0  0  0  0  0  0  0  0  0  0  0  0
  1 12  1  1  0  0  0
  1 10  1  0  0  0  0
  2 13  1  1  0  0  0
  2  8  1  0  0  0  0
  2  6  1  0  0  0  0
  4 17  2  0  0  0  0
  5 10  1  0  0  0  0
  6  5  2  0  0  0  0
  8  3  1  6  0  0  0
  8  1  1  0  0  0  0
  9  4  1  0  0  0  0
  9 16  1  0  0  0  0
 11  3  2  0  0  0  0
 11 18  1  0  0  0  0
 14 15  2  0  0  0  0
 14  4  1  0  0  0  0
 15 11  1  0  0  0  0
 16 26  1  1  0  0  0
 16  7  1  0  0  0  0
 17  3  1  0  0  0  0
 17  7  1  0  0  0  0
 18 12  1  0  0  0  0
 19 25  1  0  0  0  0
 19 23  1  0  0  0  0
 20 19  2  0  0  0  0
 21 23  2  0  0  0  0
 21 15  1  0  0  0  0
 22 20  1  0  0  0  0
 22 24  2  0  0  0  0
 24 21  1  0  0  0  0
 26 27  1  0  0  0  0
 27 29  1  0  0  0  0
 29 28  1  0  0  0  0
 29 33  2  0  0  0  0
 30 28  1  6  0  0  0
 30 31  1  0  0  0  0
 30 34  1  0  0  0  0
 31 32  1  6  0  0  0
 31 34  1  0  0  0  0
 33 32  1  0  0  0  0
M  END
>  <MODEL>
6

>  <REMARK>
 VINA RESULT:      -7.8      2.742      4.961
  Name = 
  4 active torsions:
  status: ('A' for Active; 'I' for Inactive)
    1  A    between atoms: C_3  and  C_13
    2  A    between atoms: C_3  and  N_17
    3  A    between atoms: C_12  and  C_28
    4  A    between atoms: N_17  and  C_29
                            x       y       z     vdW  Elec       q    Type
                         _______ _______ _______ _____ _____    ______ ____

>  <TORSDO>
F 4

$$$$
=
 OpenBabel11052418353D

 34 40  0  0  1  0  0  0  0  0999 V2000
  185.0490  178.0620  144.1940 N   0  0  1  0  0  0  0  0  0  0  0  0
  185.9700  176.7630  145.9860 C   0  0  1  0  0  3  0  0  0  0  0  0
  187.3750  177.1900  143.8700 C   0  0  0  0  0  0  0  0  0  0  0  0
  189.6400  176.4700  143.3680 C   0  0  0  0  0  0  0  0  0  0  0  0
  184.0660  178.3280  146.3950 C   0  0  0  0  0  3  0  0  0  0  0  0
  184.8510  177.3270  146.8340 C   0  0  0  0  0  3  0  0  0  0  0  0
  189.4230  177.5410  145.8120 S   0  0  0  0  0  0  0  0  0  0  0  0
  186.3310  177.7410  144.8480 C   0  0  1  0  0  3  0  0  0  0  0  0
  191.2850  176.1700  143.9840 S   0  0  0  0  0  0  0  0  0  0  0  0
  184.3280  178.9860  145.0630 C   0  0  0  0  0  2  0  0  0  0  0  0
  187.0400  177.0000  142.5000 C   0  0  0  0  0  0  0  0  0  0  0  0
  185.2450  178.6680  142.8900 C   0  0  0  0  0  2  0  0  0  0  0  0
  187.0340  176.4420  146.8000 F   0  0  0  0  0  0  0  0  0  0  0  0
  189.2640  176.1170  142.0770 C   0  0  0  0  0  3  0  0  0  0  0  0
  187.9680  176.3870  141.6160 C   0  0  0  0  0  0  0  0  0  0  0  0
  190.6360  176.1910  145.6880 C   0  0  1  0  0  3  0  0  0  0  0  0
  188.7260  177.0270  144.2480 C   0  0  0  0  0  0  0  0  0  0  0  0
  185.7520  177.5720  141.9670 C   0  0  0  0  0  2  0  0  0  0  0  0
  187.8170  174.5410  138.2990 C   0  0  0  0  0  0  0  0  0  0  0  0
  187.0630  175.4280  137.5270 C   0  0  0  0  0  3  0  0  0  0  0  0
  187.6380  176.0380  140.2110 C   0  0  0  0  0  0  0  0  0  0  0  0
  186.6030  176.6210  138.0860 C   0  0  0  0  0  3  0  0  0  0  0  0
  188.1070  174.8470  139.6320 C   0  0  0  0  0  3  0  0  0  0  0  0
  186.8920  176.9260  139.4190 C   0  0  0  0  0  3  0  0  0  0  0  0
  188.2680  173.3840  137.7560 F   0  0  0  0  0  0  0  0  0  0  0  0
  191.7190  176.4240  146.6260 N   0  0  0  0  0  2  0  0  0  0  0  0
  192.2180  175.1190  147.0310 C   0  0  0  0  0  2  0  0  0  0  0  0
  193.5680  173.4480  145.5800 C   0  0  0  0  0  2  0  0  0  0  0  0
  193.4510  174.7820  146.2600 C   0  0  0  0  0  0  0  0  0  0  0  0
  194.1420  173.6040  144.1620 C   0  0  1  0  0  3  0  0  0  0  0  0
  195.2690  174.5940  144.0380 C   0  0  1  0  0  3  0  0  0  0  0  0
  195.6660  175.2920  145.3480 C   0  0  0  0  0  2  0  0  0  0  0  0
  194.4510  175.6620  146.1480 C   0  0  0  0  0  3  0  0  0  0  0  0
  195.4930  173.2090  144.1630 O   0  0  0  0  0  0  0  0  0  0  0  0
  1 12  1  6  0  0  0
  1  8  1  0  0  0  0
  1 10  1  0  0  0  0
  2 13  1  1  0  0  0
  2  6  1  0  0  0  0
  3 17  1  0  0  0  0
  4  9  1  0  0  0  0
  4 17  2  0  0  0  0
  5  6  2  0  0  0  0
  8  3  1  6  0  0  0
  8  2  1  0  0  0  0
  9 16  1  0  0  0  0
 10  5  1  0  0  0  0
 11  3  2  0  0  0  0
 14  4  1  0  0  0  0
 15 14  2  0  0  0  0
 15 11  1  0  0  0  0
 16  7  1  0  0  0  0
 16 26  1  1  0  0  0
 17  7  1  0  0  0  0
 18 11  1  0  0  0  0
 18 12  1  0  0  0  0
 19 23  1  0  0  0  0
 20 22  1  0  0  0  0
 20 19  2  0  0  0  0
 21 15  1  0  0  0  0
 22 24  2  0  0  0  0
 23 21  2  0  0  0  0
 24 21  1  0  0  0  0
 25 19  1  0  0  0  0
 26 27  1  0  0  0  0
 28 29  1  0  0  0  0
 29 27  1  0  0  0  0
 30 34  1  0  0  0  0
 30 28  1  1  0  0  0
 31 30  1  0  0  0  0
 31 34  1  0  0  0  0
 31 32  1  1  0  0  0
 32 33  1  0  0  0  0
 33 29  2  0  0  0  0
M  END
>  <MODEL>
7

>  <REMARK>
 VINA RESULT:      -7.8      3.774      8.688
  Name = 
  4 active torsions:
  status: ('A' for Active; 'I' for Inactive)
    1  A    between atoms: C_3  and  C_13
    2  A    between atoms: C_3  and  N_17
    3  A    between atoms: C_12  and  C_28
    4  A    between atoms: N_17  and  C_29
                            x       y       z     vdW  Elec       q    Type
                         _______ _______ _______ _____ _____    ______ ____

>  <TORSDO>
F 4

$$$$
=
 OpenBabel11052418353D

 34 40  0  0  1  0  0  0  0  0999 V2000
  189.9090  173.1680  141.4860 N   0  0  1  0  0  0  0  0  0  0  0  0
  191.9140  174.1560  140.6190 C   0  0  1  0  0  3  0  0  0  0  0  0
  191.1600  174.7030  143.0200 C   0  0  0  0  0  0  0  0  0  0  0  0
  192.2300  176.1290  144.6700 C   0  0  0  0  0  0  0  0  0  0  0  0
  190.9780  172.0750  139.6030 C   0  0  0  0  0  3  0  0  0  0  0  0
  191.8430  173.1030  139.5350 C   0  0  0  0  0  3  0  0  0  0  0  0
  193.9490  174.4380  143.5060 S   0  0  0  0  0  0  0  0  0  0  0  0
  191.2370  173.6500  141.9100 C   0  0  1  0  0  3  0  0  0  0  0  0
  193.7580  176.7000  145.3870 S   0  0  0  0  0  0  0  0  0  0  0  0
  190.0960  171.8870  140.8140 C   0  0  0  0  0  2  0  0  0  0  0  0
  189.8940  175.1450  143.4990 C   0  0  0  0  0  0  0  0  0  0  0  0
  189.0100  173.0040  142.6120 C   0  0  0  0  0  2  0  0  0  0  0  0
  193.2270  174.5350  140.7930 F   0  0  0  0  0  0  0  0  0  0  0  0
  191.0050  176.6880  145.0130 C   0  0  0  0  0  3  0  0  0  0  0  0
  189.8190  176.2000  144.4480 C   0  0  0  0  0  0  0  0  0  0  0  0
  194.6610  176.0550  143.9410 C   0  0  1  0  0  3  0  0  0  0  0  0
  192.3140  175.1300  143.7140 C   0  0  0  0  0  0  0  0  0  0  0  0
  188.6490  174.3980  143.0950 C   0  0  0  0  0  2  0  0  0  0  0  0
  186.7060  176.9580  146.4900 C   0  0  0  0  0  0  0  0  0  0  0  0
  186.0650  177.8940  145.6750 C   0  0  0  0  0  3  0  0  0  0  0  0
  188.5340  176.8000  144.8900 C   0  0  0  0  0  0  0  0  0  0  0  0
  186.6480  178.2800  144.4670 C   0  0  0  0  0  3  0  0  0  0  0  0
  187.9300  176.4100  146.0970 C   0  0  0  0  0  3  0  0  0  0  0  0
  187.8730  177.7340  144.0750 C   0  0  0  0  0  3  0  0  0  0  0  0
  186.1390  176.5780  147.6610 F   0  0  0  0  0  0  0  0  0  0  0  0
  196.0670  175.8950  144.2670 N   0  0  0  0  0  2  0  0  0  0  0  0
  196.8210  176.6710  143.2950 C   0  0  0  0  0  2  0  0  0  0  0  0
  197.8470  174.5500  142.2130 C   0  0  0  0  0  2  0  0  0  0  0  0
  197.0960  175.8440  142.0830 C   0  0  0  0  0  0  0  0  0  0  0  0
  197.1860  173.4440  141.3750 C   0  0  1  0  0  3  0  0  0  0  0  0
  196.7010  173.8800  140.0180 C   0  0  1  0  0  3  0  0  0  0  0  0
  196.9440  175.3610  139.6870 C   0  0  0  0  0  2  0  0  0  0  0  0
  196.6630  176.2300  140.8790 C   0  0  0  0  0  3  0  0  0  0  0  0
  197.9400  173.2360  140.2040 O   0  0  0  0  0  0  0  0  0  0  0  0
  1 10  1  1  0  0  0
  1  8  1  0  0  0  0
  1 12  1  0  0  0  0
  2 13  1  1  0  0  0
  2  8  1  0  0  0  0
  3 11  2  0  0  0  0
  3 17  1  0  0  0  0
  4 14  1  0  0  0  0
  4  9  1  0  0  0  0
  5 10  1  0  0  0  0
  6  5  2  0  0  0  0
  6  2  1  0  0  0  0
  7 17  1  0  0  0  0
  7 16  1  0  0  0  0
  8  3  1  1  0  0  0
 11 15  1  0  0  0  0
 12 18  1  0  0  0  0
 15 21  1  0  0  0  0
 15 14  2  0  0  0  0
 16 26  1  1  0  0  0
 16  9  1  0  0  0  0
 17  4  2  0  0  0  0
 18 11  1  0  0  0  0
 19 25  1  0  0  0  0
 20 19  2  0  0  0  0
 21 23  2  0  0  0  0
 22 20  1  0  0  0  0
 23 19  1  0  0  0  0
 24 22  2  0  0  0  0
 24 21  1  0  0  0  0
 27 26  1  0  0  0  0
 29 28  1  0  0  0  0
 29 27  1  0  0  0  0
 30 28  1  1  0  0  0
 31 32  1  1  0  0  0
 31 34  1  0  0  0  0
 31 30  1  0  0  0  0
 32 33  1  0  0  0  0
 33 29  2  0  0  0  0
 34 30  1  0  0  0  0
M  END
>  <MODEL>
8

>  <REMARK>
 VINA RESULT:      -7.8      4.124      8.457
  Name = 
  4 active torsions:
  status: ('A' for Active; 'I' for Inactive)
    1  A    between atoms: C_3  and  C_13
    2  A    between atoms: C_3  and  N_17
    3  A    between atoms: C_12  and  C_28
    4  A    between atoms: N_17  and  C_29
                            x       y       z     vdW  Elec       q    Type
                         _______ _______ _______ _____ _____    ______ ____

>  <TORSDO>
F 4

$$$$
=
 OpenBabel11052418353D

 34 40  0  0  1  0  0  0  0  0999 V2000
  187.7210  177.9080  144.6920 N   0  0  1  0  0  0  0  0  0  0  0  0
  187.4220  178.0770  142.3200 C   0  0  1  0  0  3  0  0  0  0  0  0
  188.9450  176.2370  143.2830 C   0  0  0  0  0  0  0  0  0  0  0  0
  190.1900  174.5130  142.1090 C   0  0  0  0  0  0  0  0  0  0  0  0
  185.7560  179.0800  143.8870 C   0  0  0  0  0  3  0  0  0  0  0  0
  186.2310  178.9540  142.6350 C   0  0  0  0  0  3  0  0  0  0  0  0
  187.6560  174.7010  141.2670 S   0  0  0  0  0  0  0  0  0  0  0  0
  187.6810  177.0820  143.4710 C   0  0  1  0  0  3  0  0  0  0  0  0
  190.2290  173.3570  140.7540 S   0  0  0  0  0  0  0  0  0  0  0  0
  186.3490  178.2790  145.0210 C   0  0  0  0  0  2  0  0  0  0  0  0
  190.0160  176.3360  144.2170 C   0  0  0  0  0  0  0  0  0  0  0  0
  188.3160  177.1940  145.8070 C   0  0  0  0  0  2  0  0  0  0  0  0
  187.2260  177.4720  141.0970 F   0  0  0  0  0  0  0  0  0  0  0  0
  191.3010  174.7380  142.9130 C   0  0  0  0  0  3  0  0  0  0  0  0
  191.2310  175.6380  143.9850 C   0  0  0  0  0  0  0  0  0  0  0  0
  188.8490  174.2520  139.9690 C   0  0  1  0  0  3  0  0  0  0  0  0
  189.0170  175.2220  142.3030 C   0  0  0  0  0  0  0  0  0  0  0  0
  189.8010  177.0760  145.5120 C   0  0  0  0  0  2  0  0  0  0  0  0
  194.3200  177.1240  145.6240 C   0  0  0  0  0  0  0  0  0  0  0  0
  194.7470  176.0590  146.4210 C   0  0  0  0  0  3  0  0  0  0  0  0
  192.4330  175.8000  144.8430 C   0  0  0  0  0  0  0  0  0  0  0  0
  194.0270  174.8620  146.4270 C   0  0  0  0  0  3  0  0  0  0  0  0
  193.1730  176.9930  144.8360 C   0  0  0  0  0  3  0  0  0  0  0  0
  192.8800  174.7320  145.6400 C   0  0  0  0  0  3  0  0  0  0  0  0
  195.0200  178.2850  145.6140 F   0  0  0  0  0  0  0  0  0  0  0  0
  188.2010  173.4010  138.9880 N   0  0  0  0  0  2  0  0  0  0  0  0
  188.3930  174.0250  137.6880 C   0  0  0  0  0  2  0  0  0  0  0  0
  190.8190  174.0700  136.7740 C   0  0  0  0  0  2  0  0  0  0  0  0
  189.5110  173.3550  136.9610 C   0  0  0  0  0  0  0  0  0  0  0  0
  192.0030  173.1320  137.0550 C   0  0  1  0  0  3  0  0  0  0  0  0
  191.8470  171.7340  136.5190 C   0  0  1  0  0  3  0  0  0  0  0  0
  190.5280  171.4680  135.7770 C   0  0  0  0  0  2  0  0  0  0  0  0
  189.3730  172.1130  136.4870 C   0  0  0  0  0  3  0  0  0  0  0  0
  192.5740  172.7260  135.8330 O   0  0  0  0  0  0  0  0  0  0  0  0
  1 10  1  1  0  0  0
  1 12  1  0  0  0  0
  2 13  1  6  0  0  0
  2  6  1  0  0  0  0
  2  8  1  0  0  0  0
  3 11  1  0  0  0  0
  4 17  1  0  0  0  0
  4 14  2  0  0  0  0
  5 10  1  0  0  0  0
  6  5  2  0  0  0  0
  7 17  1  0  0  0  0
  8  3  1  6  0  0  0
  8  1  1  0  0  0  0
  9  4  1  0  0  0  0
 11 18  1  0  0  0  0
 14 15  1  0  0  0  0
 15 11  2  0  0  0  0
 15 21  1  0  0  0  0
 16 26  1  6  0  0  0
 16  9  1  0  0  0  0
 16  7  1  0  0  0  0
 17  3  2  0  0  0  0
 18 12  1  0  0  0  0
 19 20  1  0  0  0  0
 20 22  2  0  0  0  0
 21 24  2  0  0  0  0
 23 21  1  0  0  0  0
 23 19  2  0  0  0  0
 24 22  1  0  0  0  0
 25 19  1  0  0  0  0
 27 26  1  0  0  0  0
 28 29  1  0  0  0  0
 29 27  1  0  0  0  0
 30 28  1  6  0  0  0
 31 32  1  6  0  0  0
 31 30  1  0  0  0  0
 32 33  1  0  0  0  0
 33 29  2  0  0  0  0
 34 31  1  0  0  0  0
 34 30  1  0  0  0  0
M  END
>  <MODEL>
9

>  <REMARK>
 VINA RESULT:      -7.6      3.853      7.653
  Name = 
  4 active torsions:
  status: ('A' for Active; 'I' for Inactive)
    1  A    between atoms: C_3  and  C_13
    2  A    between atoms: C_3  and  N_17
    3  A    between atoms: C_12  and  C_28
    4  A    between atoms: N_17  and  C_29
                            x       y       z     vdW  Elec       q    Type
                         _______ _______ _______ _____ _____    ______ ____

>  <TORSDO>
F 4

$$$$
