=
 OpenBabel11052421273D

 32 39  0  0  1  0  0  0  0  0999 V2000
  194.4840  175.3190  142.8670 O   0  0  0  0  0  0  0  0  0  0  0  0
  192.2680  174.8070  146.8280 C   0  0  0  0  0  2  0  0  0  0  0  0
  188.0610  176.8050  144.4220 C   0  0  0  0  0  0  0  0  0  0  0  0
  185.2220  178.4580  148.1190 C   0  0  0  0  0  3  0  0  0  0  0  0
  184.2530  178.8320  147.2790 C   0  0  0  0  0  3  0  0  0  0  0  0
  186.9110  177.1450  142.1980 C   0  0  0  0  0  0  0  0  0  0  0  0
  187.7120  176.7140  141.1210 C   0  0  0  0  0  0  0  0  0  0  0  0
  190.4280  176.0840  144.8500 C   0  0  1  0  0  3  0  0  0  0  0  0
  189.0470  176.8970  146.7570 C   0  0  0  0  0  2  0  0  0  0  0  0
  193.8930  175.8090  145.1210 C   0  0  1  0  0  3  0  0  0  0  0  0
  185.1370  177.8040  140.6700 C   0  0  0  0  0  0  0  0  0  0  0  0
  191.2340  175.8530  147.2290 C   0  0  0  0  0  2  0  0  0  0  0  0
  186.4690  177.8450  147.6340 C   0  0  0  0  0  3  0  0  0  0  0  0
  187.9030  177.0320  145.8480 N   0  0  0  0  0  0  0  0  0  0  0  0
  186.6810  177.6360  146.3300 C   0  0  0  0  0  0  0  0  0  0  0  0
  185.8980  177.7940  144.0560 C   0  0  0  0  0  0  0  0  0  0  0  0
  194.0580  174.1160  143.4480 C   0  0  0  0  0  2  0  0  0  0  0  0
  185.9140  177.3590  139.5940 C   0  0  0  0  0  3  0  0  0  0  0  0
  193.9230  174.3040  144.9470 C   0  0  2  0  0  3  0  0  0  0  0  0
  194.0110  176.3400  143.7050 C   0  0  0  0  0  2  0  0  0  0  0  0
  190.0160  175.8140  146.3040 C   0  0  2  0  0  3  0  0  0  0  0  0
  187.1950  176.8210  139.8200 C   0  0  0  0  0  3  0  0  0  0  0  0
  191.4690  175.0740  144.3700 C   0  0  0  0  0  2  0  0  0  0  0  0
  192.6340  174.9920  145.3640 C   0  0  1  0  0  0  0  0  0  0  0  0
  184.3500  178.6580  145.7860 C   0  0  0  0  0  2  0  0  0  0  0  0
  185.6460  178.0260  145.3480 C   0  0  0  0  0  0  0  0  0  0  0  0
  185.0760  178.0710  143.0670 O   0  0  0  0  0  0  0  0  0  0  0  0
  189.2130  175.9780  143.9410 C   0  0  0  0  0  2  0  0  0  0  0  0
  188.9930  176.2110  141.2880 O   0  0  0  0  0  1  0  0  0  0  0  0
  183.8760  178.3460  140.4560 O   0  0  0  0  0  1  0  0  0  0  0  0
  187.0720  177.2060  143.5890 C   0  0  0  0  0  0  0  0  0  0  0  0
  185.6600  177.6910  141.9560 C   0  0  0  0  0  0  0  0  0  0  0  0
  1 17  1  0  0  0  0
  1 20  1  0  0  0  0
  2 12  1  0  0  0  0
  3 14  1  0  0  0  0
  5  4  2  0  0  0  0
  6 31  1  0  0  0  0
  7 29  1  0  0  0  0
  7  6  2  0  0  0  0
  8 28  1  6  0  0  0
  8 21  1  0  0  0  0
 10 20  1  6  0  0  0
 10 24  1  0  0  0  0
 11 32  2  0  0  0  0
 13  4  1  0  0  0  0
 14 15  1  0  0  0  0
 14  9  1  0  0  0  0
 15 13  2  0  0  0  0
 16 26  2  0  0  0  0
 18 22  2  0  0  0  0
 18 11  1  0  0  0  0
 19 17  1  6  0  0  0
 19 10  1  0  0  0  0
 19 24  1  0  0  0  0
 21  9  1  1  0  0  0
 21 12  1  0  0  0  0
 22  7  1  0  0  0  0
 23  8  1  0  0  0  0
 24 23  1  6  0  0  0
 24  2  1  0  0  0  0
 25  5  1  0  0  0  0
 26 25  1  0  0  0  0
 26 15  1  0  0  0  0
 27 16  1  0  0  0  0
 28  3  1  0  0  0  0
 30 11  1  0  0  0  0
 31 16  1  0  0  0  0
 31  3  2  0  0  0  0
 32  6  1  0  0  0  0
 32 27  1  0  0  0  0
M  END
>  <MODEL>
1

>  <REMARK>
 VINA RESULT:      -9.3      0.000      0.000
  Name = 
  0 active torsions:
  status: ('A' for Active; 'I' for Inactive)
                            x       y       z     vdW  Elec       q    Type
                         _______ _______ _______ _____ _____    ______ ____

>  <TORSDO>
F 0

$$$$
=
 OpenBabel11052421273D

 32 39  0  0  1  0  0  0  0  0999 V2000
  189.7570  173.6040  136.5010 O   0  0  0  0  0  0  0  0  0  0  0  0
  191.4750  171.5200  140.1840 C   0  0  0  0  0  2  0  0  0  0  0  0
  189.3260  175.3640  143.0280 C   0  0  1  0  0  3  0  0  0  0  0  0
  191.8820  175.3140  147.2620 C   0  0  0  0  0  3  0  0  0  0  0  0
  191.1300  176.2840  147.7890 C   0  0  0  0  0  3  0  0  0  0  0  0
  187.4900  177.0990  143.1180 C   0  0  0  0  0  0  0  0  0  0  0  0
  186.7650  177.1590  141.9100 C   0  0  0  0  0  0  0  0  0  0  0  0
  190.1040  174.0310  141.0470 C   0  0  1  0  0  3  0  0  0  0  0  0
  191.4310  173.9550  143.1540 C   0  0  0  0  0  2  0  0  0  0  0  0
  191.4430  172.9060  138.0310 C   0  0  1  0  0  3  0  0  0  0  0  0
  186.1070  178.8490  144.0860 C   0  0  0  0  0  0  0  0  0  0  0  0
  191.9850  172.3760  141.3390 C   0  0  0  0  0  2  0  0  0  0  0  0
  191.6440  174.8080  145.9000 C   0  0  0  0  0  3  0  0  0  0  0  0
  190.4250  174.8080  143.7980 N   0  0  0  0  0  0  0  0  0  0  0  0
  190.6640  175.3020  145.1350 C   0  0  0  0  0  0  0  0  0  0  0  0
  188.8250  176.8360  144.8640 C   0  0  0  0  0  0  0  0  0  0  0  0
  189.3130  172.4060  137.0780 C   0  0  0  0  0  2  0  0  0  0  0  0
  185.3650  178.9040  142.9000 C   0  0  0  0  0  3  0  0  0  0  0  0
  190.4500  171.7730  137.8570 C   0  0  2  0  0  3  0  0  0  0  0  0
  190.7780  174.0800  137.3380 C   0  0  0  0  0  2  0  0  0  0  0  0
  190.8380  173.1120  142.0340 C   0  0  2  0  0  3  0  0  0  0  0  0
  185.6970  178.0660  141.8190 C   0  0  0  0  0  3  0  0  0  0  0  0
  189.5610  173.2470  139.8540 C   0  0  0  0  0  2  0  0  0  0  0  0
  190.6670  172.3860  139.2310 C   0  0  1  0  0  0  0  0  0  0  0  0
  189.9910  176.9340  147.0480 C   0  0  0  0  0  3  0  0  0  0  0  0
  189.7940  176.3770  145.6610 C   0  0  0  0  0  0  0  0  0  0  0  0
  187.9650  177.7770  145.1900 O   0  0  0  0  0  0  0  0  0  0  0  0
  188.9300  174.7040  141.7430 C   0  0  0  0  0  2  0  0  0  0  0  0
  187.0740  176.3810  140.8050 O   0  0  0  0  0  1  0  0  0  0  0  0
  185.7940  179.6800  145.1550 O   0  0  0  0  0  1  0  0  0  0  0  0
  188.5870  176.3570  143.5770 C   0  0  0  0  0  0  0  0  0  0  0  0
  187.1640  177.9450  144.1660 C   0  0  0  0  0  0  0  0  0  0  0  0
  1 17  1  0  0  0  0
  1 20  1  0  0  0  0
  2 12  1  0  0  0  0
  3 28  1  1  0  0  0
  3 31  1  0  0  0  0
  3 14  1  0  0  0  0
  4  5  1  0  0  0  0
  6 31  1  0  0  0  0
  6 32  1  0  0  0  0
  7  6  2  0  0  0  0
  8 23  1  6  0  0  0
  8 28  1  0  0  0  0
  8 21  1  0  0  0  0
  9 14  1  0  0  0  0
 10 20  1  6  0  0  0
 10 24  1  0  0  0  0
 11 32  2  0  0  0  0
 11 30  1  0  0  0  0
 13  4  2  0  0  0  0
 14 15  1  0  0  0  0
 15 26  2  0  0  0  0
 15 13  1  0  0  0  0
 16 27  1  0  0  0  0
 16 26  1  0  0  0  0
 18 11  1  0  0  0  0
 19 17  1  6  0  0  0
 19 10  1  0  0  0  0
 19 24  1  0  0  0  0
 21 12  1  6  0  0  0
 21  9  1  0  0  0  0
 22  7  1  0  0  0  0
 22 18  2  0  0  0  0
 24 23  1  1  0  0  0
 24  2  1  0  0  0  0
 25  5  2  0  0  0  0
 26 25  1  0  0  0  0
 29  7  1  0  0  0  0
 31 16  2  0  0  0  0
 32 27  1  0  0  0  0
M  END
>  <MODEL>
2

>  <REMARK>
 VINA RESULT:      -8.9      3.224      5.391
  Name = 
  0 active torsions:
  status: ('A' for Active; 'I' for Inactive)
                            x       y       z     vdW  Elec       q    Type
                         _______ _______ _______ _____ _____    ______ ____

>  <TORSDO>
F 0

$$$$
=
 OpenBabel11052421273D

 32 39  0  0  1  0  0  0  0  0999 V2000
  192.3730  169.8690  141.7070 O   0  0  0  0  0  0  0  0  0  0  0  0
  189.9070  172.6690  139.0710 C   0  0  0  0  0  2  0  0  0  0  0  0
  189.2070  175.6320  143.3380 C   0  0  0  0  0  0  0  0  0  0  0  0
  185.1600  178.2860  142.3200 C   0  0  0  0  0  3  0  0  0  0  0  0
  185.2440  178.9560  143.4730 C   0  0  0  0  0  3  0  0  0  0  0  0
  190.1580  176.2870  145.5870 C   0  0  0  0  0  0  0  0  0  0  0  0
  191.2940  175.5220  145.9190 C   0  0  0  0  0  0  0  0  0  0  0  0
  189.8770  173.7050  141.8730 C   0  0  1  0  0  3  0  0  0  0  0  0
  187.8330  175.0080  141.3000 C   0  0  0  0  0  2  0  0  0  0  0  0
  190.4860  170.5850  140.4420 C   0  0  1  0  0  3  0  0  0  0  0  0
  190.3250  177.5220  147.6750 C   0  0  0  0  0  0  0  0  0  0  0  0
  188.6900  173.3600  139.6740 C   0  0  0  0  0  2  0  0  0  0  0  0
  186.1370  177.2450  141.9600 C   0  0  0  0  0  3  0  0  0  0  0  0
  188.1130  175.9090  142.4240 N   0  0  0  0  0  0  0  0  0  0  0  0
  187.1490  176.9290  142.7740 C   0  0  1  0  0  3  0  0  0  0  0  0
  188.3290  177.2900  144.8440 C   0  0  0  0  0  0  0  0  0  0  0  0
  192.8520  170.7350  140.7140 C   0  0  0  0  0  2  0  0  0  0  0  0
  191.4670  176.7840  148.0070 C   0  0  0  0  0  3  0  0  0  0  0  0
  191.7450  171.0140  139.7150 C   0  0  2  0  0  3  0  0  0  0  0  0
  190.9920  170.1050  141.7890 C   0  0  0  0  0  2  0  0  0  0  0  0
  189.1000  174.3830  140.7350 C   0  0  2  0  0  3  0  0  0  0  0  0
  191.9450  175.7880  147.1350 C   0  0  0  0  0  3  0  0  0  0  0  0
  191.1170  172.9850  141.3490 C   0  0  0  0  0  2  0  0  0  0  0  0
  190.7470  172.0600  140.1830 C   0  0  1  0  0  0  0  0  0  0  0  0
  186.3300  178.7090  144.4870 C   0  0  0  0  0  3  0  0  0  0  0  0
  187.3000  177.6350  144.0650 C   0  0  0  0  0  0  0  0  0  0  0  0
  188.6050  177.8320  146.0110 O   0  0  0  0  0  0  0  0  0  0  0  0
  190.3280  174.7490  142.8830 C   0  0  0  0  0  2  0  0  0  0  0  0
  191.7820  174.5060  145.1120 O   0  0  0  0  0  1  0  0  0  0  0  0
  189.8390  178.5000  148.5340 O   0  0  0  0  0  1  0  0  0  0  0  0
  189.2640  176.3130  144.5070 C   0  0  0  0  0  0  0  0  0  0  0  0
  189.6880  177.2500  146.4660 C   0  0  0  0  0  0  0  0  0  0  0  0
  1 20  1  0  0  0  0
  2 12  1  0  0  0  0
  3 31  2  0  0  0  0
  4  5  1  0  0  0  0
  5 25  2  0  0  0  0
  6  7  2  0  0  0  0
  6 32  1  0  0  0  0
  7 22  1  0  0  0  0
  8 23  1  6  0  0  0
  8 28  1  0  0  0  0
  9 14  1  0  0  0  0
 10 20  1  1  0  0  0
 11 18  1  0  0  0  0
 11 30  1  0  0  0  0
 13  4  2  0  0  0  0
 14 15  1  0  0  0  0
 14  3  1  0  0  0  0
 15 13  1  6  0  0  0
 15 26  1  0  0  0  0
 16 27  1  0  0  0  0
 17  1  1  0  0  0  0
 19 24  1  0  0  0  0
 19 10  1  0  0  0  0
 19 17  1  1  0  0  0
 21 12  1  6  0  0  0
 21  9  1  0  0  0  0
 21  8  1  0  0  0  0
 22 18  2  0  0  0  0
 24  2  1  6  0  0  0
 24 10  1  0  0  0  0
 24 23  1  0  0  0  0
 26 25  1  0  0  0  0
 26 16  2  0  0  0  0
 27 32  1  0  0  0  0
 28  3  1  0  0  0  0
 29  7  1  0  0  0  0
 31 16  1  0  0  0  0
 31  6  1  0  0  0  0
 32 11  2  0  0  0  0
M  END
>  <MODEL>
3

>  <REMARK>
 VINA RESULT:      -8.4      3.377      5.932
  Name = 
  0 active torsions:
  status: ('A' for Active; 'I' for Inactive)
                            x       y       z     vdW  Elec       q    Type
                         _______ _______ _______ _____ _____    ______ ____

>  <TORSDO>
F 0

$$$$
=
 OpenBabel11052421273D

 32 39  0  0  1  0  0  0  0  0999 V2000
  184.5370  177.8630  145.4020 O   0  0  0  0  0  0  0  0  0  0  0  0
  188.6930  177.9160  147.2950 C   0  0  0  0  0  2  0  0  0  0  0  0
  190.1980  174.7060  143.4340 C   0  0  0  0  0  0  0  0  0  0  0  0
  194.2530  172.4960  145.2060 C   0  0  0  0  0  3  0  0  0  0  0  0
  194.4500  171.8270  144.0670 C   0  0  0  0  0  3  0  0  0  0  0  0
  189.7380  173.9520  141.0660 C   0  0  0  0  0  0  0  0  0  0  0  0
  188.5660  174.5410  140.5470 C   0  0  0  0  0  0  0  0  0  0  0  0
  188.7300  176.0820  144.9360 C   0  0  1  0  0  3  0  0  0  0  0  0
  190.7640  175.0050  145.8890 C   0  0  0  0  0  2  0  0  0  0  0  0
  186.2170  177.3330  147.0040 C   0  0  1  0  0  3  0  0  0  0  0  0
  190.1090  172.7500  138.9850 C   0  0  0  0  0  0  0  0  0  0  0  0
  189.5300  176.6420  147.2630 C   0  0  0  0  0  2  0  0  0  0  0  0
  193.1130  173.4120  145.3740 C   0  0  0  0  0  3  0  0  0  0  0  0
  191.1070  174.5100  144.5500 N   0  0  0  0  0  0  0  0  0  0  0  0
  192.2280  173.6110  144.3910 C   0  0  0  0  0  0  0  0  0  0  0  0
  191.4860  173.1330  142.1480 C   0  0  0  0  0  0  0  0  0  0  0  0
  185.4540  178.9230  145.3980 C   0  0  0  0  0  2  0  0  0  0  0  0
  188.9610  173.3450  138.4500 C   0  0  0  0  0  3  0  0  0  0  0  0
  186.3970  178.7760  146.5770 C   0  0  2  0  0  3  0  0  0  0  0  0
  185.1910  176.7910  146.0270 C   0  0  0  0  0  2  0  0  0  0  0  0
  189.9570  176.2940  145.8360 C   0  0  2  0  0  3  0  0  0  0  0  0
  188.1940  174.2310  139.2280 C   0  0  0  0  0  3  0  0  0  0  0  0
  187.8360  177.3200  144.9160 C   0  0  0  0  0  2  0  0  0  0  0  0
  187.5150  177.7730  146.3460 C   0  0  1  0  0  0  0  0  0  0  0  0
  193.5380  171.9500  142.8750 C   0  0  0  0  0  2  0  0  0  0  0  0
  192.3910  172.9000  143.1030 C   0  0  0  0  0  0  0  0  0  0  0  0
  191.5000  172.5890  140.9500 O   0  0  0  0  0  0  0  0  0  0  0  0
  189.1780  175.8000  143.5100 C   0  0  0  0  0  2  0  0  0  0  0  0
  187.7580  175.3910  141.2840 O   0  0  0  0  0  1  0  0  0  0  0  0
  190.8670  171.8660  138.2280 O   0  0  0  0  0  1  0  0  0  0  0  0
  190.4090  174.0050  142.2950 C   0  0  0  0  0  0  0  0  0  0  0  0
  190.4700  173.0660  140.2930 C   0  0  0  0  0  0  0  0  0  0  0  0
  1 20  1  0  0  0  0
  3 28  1  0  0  0  0
  3 14  1  0  0  0  0
  4 13  1  0  0  0  0
  5  4  2  0  0  0  0
  6 31  1  0  0  0  0
  7  6  1  0  0  0  0
  7 29  1  0  0  0  0
  8 28  1  6  0  0  0
  8 21  1  0  0  0  0
 10 20  1  6  0  0  0
 11 32  1  0  0  0  0
 12  2  1  0  0  0  0
 14  9  1  0  0  0  0
 15 14  1  0  0  0  0
 15 13  2  0  0  0  0
 16 31  1  0  0  0  0
 16 26  2  0  0  0  0
 17  1  1  0  0  0  0
 18 11  2  0  0  0  0
 18 22  1  0  0  0  0
 19 17  1  6  0  0  0
 19 10  1  0  0  0  0
 21  9  1  1  0  0  0
 21 12  1  0  0  0  0
 22  7  2  0  0  0  0
 23  8  1  0  0  0  0
 24 23  1  6  0  0  0
 24 19  1  0  0  0  0
 24 10  1  0  0  0  0
 24  2  1  0  0  0  0
 25 26  1  0  0  0  0
 25  5  1  0  0  0  0
 26 15  1  0  0  0  0
 27 16  1  0  0  0  0
 30 11  1  0  0  0  0
 31  3  2  0  0  0  0
 32 27  1  0  0  0  0
 32  6  2  0  0  0  0
M  END
>  <MODEL>
4

>  <REMARK>
 VINA RESULT:      -8.3      2.625      7.063
  Name = 
  0 active torsions:
  status: ('A' for Active; 'I' for Inactive)
                            x       y       z     vdW  Elec       q    Type
                         _______ _______ _______ _____ _____    ______ ____

>  <TORSDO>
F 0

$$$$
=
 OpenBabel11052421273D

 32 39  0  0  1  0  0  0  0  0999 V2000
  184.4920  178.5320  145.6530 O   0  0  0  0  0  0  0  0  0  0  0  0
  188.4670  176.9830  147.2860 C   0  0  0  0  0  2  0  0  0  0  0  0
  189.1160  174.5780  142.6740 C   0  0  0  0  0  0  0  0  0  0  0  0
  192.3790  170.9860  143.6280 C   0  0  0  0  0  3  0  0  0  0  0  0
  192.4090  170.6000  142.3500 C   0  0  0  0  0  3  0  0  0  0  0  0
  188.5150  174.6030  140.2190 C   0  0  0  0  0  0  0  0  0  0  0  0
  187.5590  175.5970  139.9240 C   0  0  0  0  0  0  0  0  0  0  0  0
  188.0500  175.8690  144.5450 C   0  0  1  0  0  3  0  0  0  0  0  0
  189.6930  174.0800  145.0930 C   0  0  0  0  0  2  0  0  0  0  0  0
  185.9320  177.1810  146.9850 C   0  0  1  0  0  3  0  0  0  0  0  0
  188.5860  173.9160  137.8870 C   0  0  0  0  0  0  0  0  0  0  0  0
  188.9250  175.5830  146.8940 C   0  0  0  0  0  2  0  0  0  0  0  0
  191.5290  172.1000  144.0780 C   0  0  0  0  0  3  0  0  0  0  0  0
  189.9150  173.8680  143.6580 N   0  0  0  0  0  0  0  0  0  0  0  0
  190.7510  172.7720  143.2220 C   0  0  0  0  0  0  0  0  0  0  0  0
  189.9520  173.0970  140.9720 C   0  0  0  0  0  0  0  0  0  0  0  0
  185.6640  179.2720  145.8680 C   0  0  0  0  0  2  0  0  0  0  0  0
  187.6540  174.9130  137.5770 C   0  0  0  0  0  3  0  0  0  0  0  0
  186.5070  178.5820  146.9230 C   0  0  2  0  0  3  0  0  0  0  0  0
  184.8170  177.2010  145.9560 C   0  0  0  0  0  2  0  0  0  0  0  0
  189.2690  175.5080  145.4050 C   0  0  2  0  0  3  0  0  0  0  0  0
  187.1420  175.7440  138.5900 C   0  0  0  0  0  3  0  0  0  0  0  0
  187.5270  177.2650  144.8800 C   0  0  0  0  0  2  0  0  0  0  0  0
  187.3140  177.4090  146.3920 C   0  0  1  0  0  0  0  0  0  0  0  0
  191.5890  171.2630  141.2740 C   0  0  0  0  0  2  0  0  0  0  0  0
  190.7400  172.3950  141.7910 C   0  0  0  0  0  0  0  0  0  0  0  0
  189.8410  172.8930  139.6760 O   0  0  0  0  0  0  0  0  0  0  0  0
  188.4320  175.8490  143.0730 C   0  0  0  0  0  2  0  0  0  0  0  0
  186.9980  176.4160  140.8900 O   0  0  0  0  0  1  0  0  0  0  0  0
  189.0890  173.0830  136.8960 O   0  0  0  0  0  1  0  0  0  0  0  0
  189.1510  174.1590  141.3870 C   0  0  0  0  0  0  0  0  0  0  0  0
  188.9930  173.7800  139.2130 C   0  0  0  0  0  0  0  0  0  0  0  0
  1 17  1  0  0  0  0
  1 20  1  0  0  0  0
  3 28  1  0  0  0  0
  3 14  1  0  0  0  0
  4 13  1  0  0  0  0
  5  4  2  0  0  0  0
  6 31  1  0  0  0  0
  7  6  1  0  0  0  0
  7 29  1  0  0  0  0
  8 28  1  6  0  0  0
  8 23  1  0  0  0  0
  8 21  1  0  0  0  0
 10 20  1  6  0  0  0
 11 32  1  0  0  0  0
 12  2  1  0  0  0  0
 14  9  1  0  0  0  0
 15 14  1  0  0  0  0
 15 13  2  0  0  0  0
 16 31  1  0  0  0  0
 16 26  2  0  0  0  0
 18 11  2  0  0  0  0
 18 22  1  0  0  0  0
 19 17  1  6  0  0  0
 19 10  1  0  0  0  0
 21  9  1  6  0  0  0
 21 12  1  0  0  0  0
 22  7  2  0  0  0  0
 24 23  1  6  0  0  0
 24 19  1  0  0  0  0
 24 10  1  0  0  0  0
 24  2  1  0  0  0  0
 25 26  1  0  0  0  0
 25  5  1  0  0  0  0
 26 15  1  0  0  0  0
 27 16  1  0  0  0  0
 30 11  1  0  0  0  0
 31  3  2  0  0  0  0
 32 27  1  0  0  0  0
 32  6  2  0  0  0  0
M  END
>  <MODEL>
5

>  <REMARK>
 VINA RESULT:      -8.1      2.770      6.823
  Name = 
  0 active torsions:
  status: ('A' for Active; 'I' for Inactive)
                            x       y       z     vdW  Elec       q    Type
                         _______ _______ _______ _____ _____    ______ ____

>  <TORSDO>
F 0

$$$$
=
 OpenBabel11052421273D

 32 39  0  0  1  0  0  0  0  0999 V2000
  192.4220  170.2020  138.4750 O   0  0  0  0  0  0  0  0  0  0  0  0
  188.7420  172.9030  138.3340 C   0  0  0  0  0  2  0  0  0  0  0  0
  190.4670  175.0320  142.8030 C   0  0  1  0  0  3  0  0  0  0  0  0
  186.4360  177.0810  144.8050 C   0  0  0  0  0  3  0  0  0  0  0  0
  187.1320  177.5750  145.8330 C   0  0  0  0  0  3  0  0  0  0  0  0
  192.5010  175.4950  144.2300 C   0  0  0  0  0  0  0  0  0  0  0  0
  193.6610  174.8930  143.7000 C   0  0  0  0  0  0  0  0  0  0  0  0
  190.2740  173.4880  140.8320 C   0  0  1  0  0  3  0  0  0  0  0  0
  188.2060  174.4960  141.7870 C   0  0  0  0  0  2  0  0  0  0  0  0
  190.1160  170.7670  138.6580 C   0  0  1  0  0  3  0  0  0  0  0  0
  193.7730  176.4140  146.0880 C   0  0  0  0  0  0  0  0  0  0  0  0
  188.0580  173.2800  139.6440 C   0  0  0  0  0  2  0  0  0  0  0  0
  187.0810  176.2870  143.7470 C   0  0  0  0  0  3  0  0  0  0  0  0
  189.0330  175.2520  142.7340 N   0  0  0  0  0  0  0  0  0  0  0  0
  188.3930  176.0290  143.7720 C   0  0  0  0  0  0  0  0  0  0  0  0
  190.5280  176.2720  144.8640 C   0  0  0  0  0  0  0  0  0  0  0  0
  192.1950  171.2750  137.6020 C   0  0  0  0  0  2  0  0  0  0  0  0
  194.9360  175.8400  145.5610 C   0  0  0  0  0  3  0  0  0  0  0  0
  190.7020  171.5080  137.4720 C   0  0  2  0  0  3  0  0  0  0  0  0
  191.3300  170.1840  139.3560 C   0  0  0  0  0  2  0  0  0  0  0  0
  188.9490  174.1870  140.4950 C   0  0  2  0  0  3  0  0  0  0  0  0
  194.8780  175.0810  144.3770 C   0  0  0  0  0  3  0  0  0  0  0  0
  191.0240  173.0770  139.5660 C   0  0  0  0  0  2  0  0  0  0  0  0
  190.1000  172.2870  138.6290 C   0  0  1  0  0  0  0  0  0  0  0  0
  188.6150  177.3680  145.9930 C   0  0  0  0  0  3  0  0  0  0  0  0
  189.2220  176.5500  144.8820 C   0  0  0  0  0  0  0  0  0  0  0  0
  191.3960  176.6720  145.7690 O   0  0  0  0  0  0  0  0  0  0  0  0
  191.1680  174.4310  141.6240 C   0  0  0  0  0  2  0  0  0  0  0  0
  193.6500  174.1080  142.5580 O   0  0  0  0  0  1  0  0  0  0  0  0
  193.8190  177.1550  147.2620 O   0  0  0  0  0  1  0  0  0  0  0  0
  191.1500  175.5300  143.8610 C   0  0  0  0  0  0  0  0  0  0  0  0
  192.5730  176.2210  145.4070 C   0  0  0  0  0  0  0  0  0  0  0  0
  1 20  1  0  0  0  0
  2 12  1  0  0  0  0
  3 28  1  6  0  0  0
  3 31  1  0  0  0  0
  4  5  1  0  0  0  0
  5 25  2  0  0  0  0
  6 32  1  0  0  0  0
  7  6  2  0  0  0  0
  7 22  1  0  0  0  0
  8 23  1  6  0  0  0
  8 28  1  0  0  0  0
  9 14  1  0  0  0  0
 10 20  1  1  0  0  0
 11 30  1  0  0  0  0
 13 15  1  0  0  0  0
 13  4  2  0  0  0  0
 14  3  1  0  0  0  0
 14 15  1  0  0  0  0
 15 26  2  0  0  0  0
 16 26  1  0  0  0  0
 16 27  1  0  0  0  0
 17  1  1  0  0  0  0
 18 11  1  0  0  0  0
 19 17  1  1  0  0  0
 19 24  1  0  0  0  0
 19 10  1  0  0  0  0
 21 12  1  6  0  0  0
 21  8  1  0  0  0  0
 21  9  1  0  0  0  0
 22 18  2  0  0  0  0
 24  2  1  6  0  0  0
 24 10  1  0  0  0  0
 24 23  1  0  0  0  0
 26 25  1  0  0  0  0
 29  7  1  0  0  0  0
 31  6  1  0  0  0  0
 31 16  2  0  0  0  0
 32 27  1  0  0  0  0
 32 11  2  0  0  0  0
M  END
>  <MODEL>
6

>  <REMARK>
 VINA RESULT:      -8.0      3.675      6.857
  Name = 
  0 active torsions:
  status: ('A' for Active; 'I' for Inactive)
                            x       y       z     vdW  Elec       q    Type
                         _______ _______ _______ _____ _____    ______ ____

>  <TORSDO>
F 0

$$$$
=
 OpenBabel11052421273D

 32 39  0  0  1  0  0  0  0  0999 V2000
  194.9740  173.5460  144.0650 O   0  0  0  0  0  0  0  0  0  0  0  0
  191.9110  174.9830  147.1340 C   0  0  0  0  0  2  0  0  0  0  0  0
  188.7660  176.0750  143.0850 C   0  0  0  0  0  0  0  0  0  0  0  0
  185.5720  179.3910  144.8910 C   0  0  0  0  0  3  0  0  0  0  0  0
  184.8920  179.4410  143.7430 C   0  0  0  0  0  3  0  0  0  0  0  0
  188.2000  175.5100  140.6880 C   0  0  0  0  0  0  0  0  0  0  0  0
  189.1150  174.5910  140.1350 C   0  0  0  0  0  0  0  0  0  0  0  0
  190.8080  175.4210  144.3920 C   0  0  1  0  0  3  0  0  0  0  0  0
  189.2340  177.0890  145.3620 C   0  0  0  0  0  2  0  0  0  0  0  0
  194.0210  175.0110  145.6830 C   0  0  1  0  0  3  0  0  0  0  0  0
  186.9480  175.5830  138.6040 C   0  0  0  0  0  0  0  0  0  0  0  0
  191.0320  176.1800  146.7870 C   0  0  0  0  0  2  0  0  0  0  0  0
  186.7540  178.5290  145.0510 C   0  0  0  0  0  3  0  0  0  0  0  0
  188.3550  176.9100  144.2010 N   0  0  0  0  0  0  0  0  0  0  0  0
  187.1960  177.7600  144.0490 C   0  0  0  0  0  0  0  0  0  0  0  0
  186.9580  176.9800  141.7810 C   0  0  0  0  0  0  0  0  0  0  0  0
  194.2140  172.7530  144.9370 C   0  0  0  0  0  2  0  0  0  0  0  0
  187.8370  174.6540  138.0510 C   0  0  0  0  0  3  0  0  0  0  0  0
  193.8020  173.5820  146.1380 C   0  0  2  0  0  3  0  0  0  0  0  0
  194.5350  174.8640  144.2630 C   0  0  0  0  0  2  0  0  0  0  0  0
  190.0540  175.8430  145.6610 C   0  0  2  0  0  3  0  0  0  0  0  0
  188.9160  174.1660  138.8120 C   0  0  0  0  0  3  0  0  0  0  0  0
  191.7170  174.2230  144.6570 C   0  0  0  0  0  2  0  0  0  0  0  0
  192.6080  174.4850  145.8780 C   0  0  1  0  0  0  0  0  0  0  0  0
  185.2690  178.6310  142.5310 C   0  0  0  0  0  2  0  0  0  0  0  0
  186.4850  177.7680  142.7510 C   0  0  0  0  0  0  0  0  0  0  0  0
  186.4320  176.8660  140.5800 O   0  0  0  0  0  0  0  0  0  0  0  0
  189.8160  175.0310  143.3070 C   0  0  0  0  0  2  0  0  0  0  0  0
  190.2120  174.1080  140.8310 O   0  0  0  0  0  1  0  0  0  0  0  0
  185.8880  176.0790  137.8570 O   0  0  0  0  0  1  0  0  0  0  0  0
  188.0710  176.1540  141.9260 C   0  0  0  0  0  0  0  0  0  0  0  0
  187.1560  175.9960  139.9180 C   0  0  0  0  0  0  0  0  0  0  0  0
  1 20  1  0  0  0  0
  1 17  1  0  0  0  0
  3 28  1  0  0  0  0
  3 14  1  0  0  0  0
  4 13  1  0  0  0  0
  5  4  2  0  0  0  0
  6 31  1  0  0  0  0
  7  6  1  0  0  0  0
  7 29  1  0  0  0  0
  8 28  1  6  0  0  0
  8 23  1  0  0  0  0
  8 21  1  0  0  0  0
 10 20  1  6  0  0  0
 10 24  1  0  0  0  0
 10 19  1  0  0  0  0
 11 32  1  0  0  0  0
 12  2  1  0  0  0  0
 14  9  1  0  0  0  0
 15 14  1  0  0  0  0
 15 13  2  0  0  0  0
 16 31  1  0  0  0  0
 16 26  2  0  0  0  0
 18 11  2  0  0  0  0
 18 22  1  0  0  0  0
 19 17  1  6  0  0  0
 21  9  1  6  0  0  0
 21 12  1  0  0  0  0
 22  7  2  0  0  0  0
 24 23  1  6  0  0  0
 24 19  1  0  0  0  0
 24  2  1  0  0  0  0
 25 26  1  0  0  0  0
 25  5  1  0  0  0  0
 26 15  1  0  0  0  0
 27 16  1  0  0  0  0
 30 11  1  0  0  0  0
 31  3  2  0  0  0  0
 32 27  1  0  0  0  0
 32  6  2  0  0  0  0
M  END
>  <MODEL>
7

>  <REMARK>
 VINA RESULT:      -7.7      1.726      2.419
  Name = 
  0 active torsions:
  status: ('A' for Active; 'I' for Inactive)
                            x       y       z     vdW  Elec       q    Type
                         _______ _______ _______ _____ _____    ______ ____

>  <TORSDO>
F 0

$$$$
=
 OpenBabel11052421273D

 32 39  0  0  1  0  0  0  0  0999 V2000
  197.8620  173.2260  143.4170 O   0  0  0  0  0  0  0  0  0  0  0  0
  195.0050  174.9920  146.5130 C   0  0  0  0  0  2  0  0  0  0  0  0
  191.2670  174.6690  142.8520 C   0  0  0  0  0  0  0  0  0  0  0  0
  187.8410  177.9160  144.3280 C   0  0  0  0  0  3  0  0  0  0  0  0
  187.0280  177.6000  143.3160 C   0  0  0  0  0  3  0  0  0  0  0  0
  190.5110  173.4670  140.7610 C   0  0  0  0  0  0  0  0  0  0  0  0
  191.4840  172.5590  140.2970 C   0  0  0  0  0  0  0  0  0  0  0  0
  193.5270  174.6070  143.9450 C   0  0  1  0  0  3  0  0  0  0  0  0
  191.8430  176.2590  144.7420 C   0  0  0  0  0  2  0  0  0  0  0  0
  196.8960  174.9170  144.7880 C   0  0  1  0  0  3  0  0  0  0  0  0
  189.0230  172.8750  138.9310 C   0  0  0  0  0  0  0  0  0  0  0  0
  193.9170  175.9510  146.0430 C   0  0  0  0  0  2  0  0  0  0  0  0
  189.1520  177.2680  144.4960 C   0  0  0  0  0  3  0  0  0  0  0  0
  190.8690  175.6950  143.7990 N   0  0  0  0  0  0  0  0  0  0  0  0
  189.5830  176.3360  143.6390 C   0  0  0  0  0  0  0  0  0  0  0  0
  189.1980  175.0000  141.6700 C   0  0  0  0  0  0  0  0  0  0  0  0
  197.3430  172.5850  144.5510 C   0  0  0  0  0  2  0  0  0  0  0  0
  189.9710  171.9530  138.4730 C   0  0  0  0  0  3  0  0  0  0  0  0
  196.9550  173.6270  145.5820 C   0  0  2  0  0  3  0  0  0  0  0  0
  197.2530  174.4890  143.3770 C   0  0  0  0  0  2  0  0  0  0  0  0
  192.8750  175.2320  145.1850 C   0  0  2  0  0  3  0  0  0  0  0  0
  191.1950  171.8010  139.1510 C   0  0  0  0  0  3  0  0  0  0  0  0
  194.6350  173.6290  144.3320 C   0  0  0  0  0  2  0  0  0  0  0  0
  195.6140  174.2880  145.3110 C   0  0  1  0  0  0  0  0  0  0  0  0
  187.3780  176.5680  142.2760 C   0  0  0  0  0  2  0  0  0  0  0  0
  188.7300  175.9390  142.4970 C   0  0  0  0  0  0  0  0  0  0  0  0
  188.5560  174.5320  140.6210 O   0  0  0  0  0  0  0  0  0  0  0  0
  192.4840  173.8450  143.1410 C   0  0  0  0  0  2  0  0  0  0  0  0
  192.7180  172.3970  140.9070 O   0  0  0  0  0  1  0  0  0  0  0  0
  187.8160  173.0410  138.2630 O   0  0  0  0  0  1  0  0  0  0  0  0
  190.4340  174.3750  141.8260 C   0  0  0  0  0  0  0  0  0  0  0  0
  189.3200  173.6210  140.0700 C   0  0  0  0  0  0  0  0  0  0  0  0
  1 17  1  0  0  0  0
  3 28  1  0  0  0  0
  3 14  1  0  0  0  0
  4 13  1  0  0  0  0
  5  4  2  0  0  0  0
  6 31  1  0  0  0  0
  7  6  1  0  0  0  0
  7 29  1  0  0  0  0
  8 28  1  1  0  0  0
  8 23  1  0  0  0  0
  8 21  1  0  0  0  0
 10 20  1  6  0  0  0
 10 24  1  0  0  0  0
 10 19  1  0  0  0  0
 11 32  1  0  0  0  0
 12  2  1  0  0  0  0
 14  9  1  0  0  0  0
 15 14  1  0  0  0  0
 15 13  2  0  0  0  0
 16 31  1  0  0  0  0
 16 26  2  0  0  0  0
 18 11  2  0  0  0  0
 18 22  1  0  0  0  0
 19 17  1  6  0  0  0
 20  1  1  0  0  0  0
 21  9  1  6  0  0  0
 21 12  1  0  0  0  0
 22  7  2  0  0  0  0
 24 23  1  6  0  0  0
 24 19  1  0  0  0  0
 24  2  1  0  0  0  0
 25 26  1  0  0  0  0
 25  5  1  0  0  0  0
 26 15  1  0  0  0  0
 27 16  1  0  0  0  0
 30 11  1  0  0  0  0
 31  3  2  0  0  0  0
 32 27  1  0  0  0  0
 32  6  2  0  0  0  0
M  END
>  <MODEL>
8

>  <REMARK>
 VINA RESULT:      -7.7      2.982      4.656
  Name = 
  0 active torsions:
  status: ('A' for Active; 'I' for Inactive)
                            x       y       z     vdW  Elec       q    Type
                         _______ _______ _______ _____ _____    ______ ____

>  <TORSDO>
F 0

$$$$
=
 OpenBabel11052421273D

 32 39  0  0  1  0  0  0  0  0999 V2000
  185.3180  177.3520  142.5880 O   0  0  0  0  0  0  0  0  0  0  0  0
  189.2110  177.9160  144.9090 C   0  0  0  0  0  2  0  0  0  0  0  0
  190.8510  173.4460  142.7170 C   0  0  0  0  0  0  0  0  0  0  0  0
  194.4470  171.8690  145.7240 C   0  0  0  0  0  3  0  0  0  0  0  0
  194.7130  170.8180  144.9430 C   0  0  0  0  0  3  0  0  0  0  0  0
  190.6030  171.8930  140.7370 C   0  0  0  0  0  0  0  0  0  0  0  0
  189.5600  172.3000  139.8800 C   0  0  0  0  0  0  0  0  0  0  0  0
  189.3530  175.3420  143.3980 C   0  0  1  0  0  3  0  0  0  0  0  0
  191.1520  174.6030  144.9540 C   0  0  0  0  0  2  0  0  0  0  0  0
  186.7420  177.3760  144.4960 C   0  0  1  0  0  3  0  0  0  0  0  0
  191.1020  169.9940  139.3030 C   0  0  0  0  0  0  0  0  0  0  0  0
  189.9230  176.6840  145.4560 C   0  0  0  0  0  2  0  0  0  0  0  0
  193.3860  172.8310  145.3870 C   0  0  0  0  0  3  0  0  0  0  0  0
  191.6020  173.6350  143.9460 N   0  0  0  0  0  0  0  0  0  0  0  0
  192.6440  172.6920  144.2830 C   0  0  0  0  0  0  0  0  0  0  0  0
  192.1290  171.4540  142.2800 C   0  0  0  0  0  0  0  0  0  0  0  0
  186.3240  178.2940  142.3340 C   0  0  0  0  0  2  0  0  0  0  0  0
  190.0840  170.4000  138.4310 C   0  0  0  0  0  3  0  0  0  0  0  0
  187.1050  178.5510  143.6090 C   0  0  2  0  0  3  0  0  0  0  0  0
  185.7920  176.5570  143.6430 C   0  0  0  0  0  2  0  0  0  0  0  0
  190.4800  175.8160  144.3260 C   0  0  2  0  0  3  0  0  0  0  0  0
  189.3170  171.5430  138.7220 C   0  0  0  0  0  3  0  0  0  0  0  0
  188.5860  176.5230  142.8060 C   0  0  0  0  0  2  0  0  0  0  0  0
  188.1440  177.4850  143.9160 C   0  0  1  0  0  0  0  0  0  0  0  0
  193.9630  170.5340  143.6680 C   0  0  0  0  0  2  0  0  0  0  0  0
  192.8900  171.5500  143.3740 C   0  0  0  0  0  0  0  0  0  0  0  0
  192.2320  170.5080  141.3720 O   0  0  0  0  0  0  0  0  0  0  0  0
  189.9360  174.5340  142.2480 C   0  0  0  0  0  2  0  0  0  0  0  0
  188.7540  173.3970  140.1390 O   0  0  0  0  0  1  0  0  0  0  0  0
  191.8570  168.8610  139.0300 O   0  0  0  0  0  1  0  0  0  0  0  0
  191.1280  172.3660  141.9480 C   0  0  0  0  0  0  0  0  0  0  0  0
  191.3350  170.7540  140.4480 C   0  0  0  0  0  0  0  0  0  0  0  0
  1 20  1  0  0  0  0
  2 12  1  0  0  0  0
  3 14  1  0  0  0  0
  5  4  2  0  0  0  0
  6 31  1  0  0  0  0
  7 29  1  0  0  0  0
  7  6  2  0  0  0  0
  8 28  1  6  0  0  0
  8 21  1  0  0  0  0
 10 20  1  6  0  0  0
 11 32  2  0  0  0  0
 13  4  1  0  0  0  0
 14 15  1  0  0  0  0
 14  9  1  0  0  0  0
 15 13  2  0  0  0  0
 16 26  2  0  0  0  0
 17  1  1  0  0  0  0
 18 22  2  0  0  0  0
 18 11  1  0  0  0  0
 19 17  1  6  0  0  0
 19 24  1  0  0  0  0
 19 10  1  0  0  0  0
 21  9  1  1  0  0  0
 21 12  1  0  0  0  0
 22  7  1  0  0  0  0
 23  8  1  0  0  0  0
 24 23  1  6  0  0  0
 24 10  1  0  0  0  0
 24  2  1  0  0  0  0
 25  5  1  0  0  0  0
 26 25  1  0  0  0  0
 26 15  1  0  0  0  0
 27 16  1  0  0  0  0
 28  3  1  0  0  0  0
 30 11  1  0  0  0  0
 31 16  1  0  0  0  0
 31  3  2  0  0  0  0
 32  6  1  0  0  0  0
 32 27  1  0  0  0  0
M  END
>  <MODEL>
9

>  <REMARK>
 VINA RESULT:      -7.6      3.687      7.844
  Name = 
  0 active torsions:
  status: ('A' for Active; 'I' for Inactive)
                            x       y       z     vdW  Elec       q    Type
                         _______ _______ _______ _____ _____    ______ ____

>  <TORSDO>
F 0

$$$$
