=
 OpenBabel11052418433D

 34 37  0  0  1  0  0  0  0  0999 V2000
  190.4380  176.4010  147.2960 C   0  0  1  0  0  3  0  0  0  0  0  0
  191.5550  176.3110  144.9360 C   0  0  2  0  0  3  0  0  0  0  0  0
  192.1010  172.7750  142.3290 N   0  0  0  0  0  2  0  0  0  0  0  0
  189.2580  175.3130  145.3630 C   0  0  1  0  0  3  0  0  0  0  0  0
  190.8070  172.7610  144.8670 O   0  0  0  0  0  1  0  0  0  0  0  0
  189.5020  178.4900  148.3510 C   0  0  0  0  0  1  0  0  0  0  0  0
  192.9820  176.4150  145.4560 C   0  0  0  0  0  1  0  0  0  0  0  0
  190.2660  175.3160  143.1200 O   0  0  0  0  0  0  0  0  0  0  0  0
  191.6940  173.8570  140.2940 O   0  0  0  0  0  0  0  0  0  0  0  0
  192.3050  173.8360  141.3960 C   0  0  0  0  0  0  0  0  0  0  0  0
  190.6370  175.6260  145.9780 C   0  0  2  0  0  3  0  0  0  0  0  0
  191.0380  171.7870  142.2290 C   0  0  0  0  0  2  0  0  0  0  0  0
  189.6930  173.0800  144.0840 C   0  0  2  0  0  3  0  0  0  0  0  0
  191.7210  176.5590  148.1010 C   0  0  0  0  0  1  0  0  0  0  0  0
  192.4530  176.0500  142.5670 C   0  0  0  0  0  2  0  0  0  0  0  0
  188.4120  176.6020  145.1850 C   0  0  2  0  0  3  0  0  0  0  0  0
  189.6990  177.7200  147.0550 C   0  0  2  0  0  3  0  0  0  0  0  0
  191.5590  175.4590  143.6580 C   0  0  1  0  0  3  0  0  0  0  0  0
  189.6850  172.3290  142.7250 C   0  0  1  0  0  3  0  0  0  0  0  0
  189.4440  174.6010  144.0150 C   0  0  1  0  0  3  0  0  0  0  0  0
  188.3250  177.4090  146.4810 C   0  0  0  0  0  2  0  0  0  0  0  0
  193.2000  174.9670  141.7850 C   0  0  0  0  0  2  0  0  0  0  0  0
  188.8440  172.9760  141.6180 C   0  0  2  0  0  3  0  0  0  0  0  0
  187.3670  172.8350  141.9330 C   0  0  0  0  0  1  0  0  0  0  0  0
  189.0900  172.3690  140.3980 F   0  0  0  0  0  0  0  0  0  0  0  0
  185.9190  176.6370  145.7180 C   0  0  0  0  0  1  0  0  0  0  0  0
  186.9830  176.3620  144.6670 C   0  0  1  0  0  3  0  0  0  0  0  0
  185.0350  177.8420  141.7680 C   0  0  0  0  0  0  0  0  0  0  0  0
  186.0520  178.1400  140.8570 C   0  0  0  0  0  3  0  0  0  0  0  0
  186.6800  176.9990  143.3390 C   0  0  0  0  0  0  0  0  0  0  0  0
  187.3840  177.8680  141.1830 C   0  0  0  0  0  3  0  0  0  0  0  0
  185.3480  177.2710  143.0050 C   0  0  0  0  0  3  0  0  0  0  0  0
  187.6970  177.2970  142.4190 C   0  0  0  0  0  3  0  0  0  0  0  0
  183.3670  178.1780  141.3590 Cl  0  0  0  0  0  0  0  0  0  0  0  0
  1 14  1  6  0  0  0
  2  7  1  1  0  0  0
  2 11  1  0  0  0  0
  4 11  1  0  0  0  0
  8 18  1  0  0  0  0
  8 20  1  0  0  0  0
  9 10  2  0  0  0  0
 10 22  1  0  0  0  0
 10  3  1  0  0  0  0
 11  1  1  0  0  0  0
 12  3  1  0  0  0  0
 12 19  1  0  0  0  0
 13  5  1  0  0  0  0
 15 18  1  0  0  0  0
 16  4  1  0  0  0  0
 16 21  1  0  0  0  0
 17  1  1  0  0  0  0
 17  6  1  0  0  0  0
 18  2  1  0  0  0  0
 19 13  1  0  0  0  0
 20 13  1  0  0  0  0
 20  4  1  0  0  0  0
 21 17  1  0  0  0  0
 22 15  1  0  0  0  0
 23 24  1  0  0  0  0
 23 19  1  0  0  0  0
 25 23  1  0  0  0  0
 27 16  1  0  0  0  0
 27 26  1  0  0  0  0
 28 32  1  0  0  0  0
 29 31  1  0  0  0  0
 29 28  2  0  0  0  0
 30 27  1  0  0  0  0
 31 33  2  0  0  0  0
 32 30  2  0  0  0  0
 33 30  1  0  0  0  0
 34 28  1  0  0  0  0
M  END
>  <MODEL>
1

>  <REMARK>
 VINA RESULT:      -8.3      0.000      0.000
  Name = 
  3 active torsions:
  status: ('A' for Active; 'I' for Inactive)
    1  A    between atoms: C_12  and  C_28
    2  A    between atoms: C_13  and  C_29
    3  A    between atoms: C_21  and  C_28
                            x       y       z     vdW  Elec       q    Type
                         _______ _______ _______ _____ _____    ______ ____

>  <TORSDO>
F 3

$$$$
=
 OpenBabel11052418433D

 34 37  0  0  1  0  0  0  0  0999 V2000
  193.6090  176.3580  145.5930 C   0  0  1  0  0  3  0  0  0  0  0  0
  191.1740  175.8880  146.4140 C   0  0  2  0  0  3  0  0  0  0  0  0
  187.4590  177.9750  145.2130 N   0  0  0  0  0  2  0  0  0  0  0  0
  191.7420  176.0350  143.9420 C   0  0  1  0  0  3  0  0  0  0  0  0
  190.0600  178.5380  144.1980 O   0  0  0  0  0  1  0  0  0  0  0  0
  195.5010  174.6990  145.7220 C   0  0  0  0  0  1  0  0  0  0  0  0
  191.3580  176.5480  147.7740 C   0  0  0  0  0  1  0  0  0  0  0  0
  189.4700  175.4950  144.7130 O   0  0  0  0  0  0  0  0  0  0  0  0
  186.0700  176.0910  145.1920 O   0  0  0  0  0  0  0  0  0  0  0  0
  186.9260  176.7870  145.7990 C   0  0  0  0  0  0  0  0  0  0  0  0
  192.0960  176.5410  145.3560 C   0  0  2  0  0  3  0  0  0  0  0  0
  187.2690  178.3590  143.8230 C   0  0  0  0  0  2  0  0  0  0  0  0
  189.7110  177.5370  143.2870 C   0  0  2  0  0  3  0  0  0  0  0  0
  194.1050  177.0350  146.8650 C   0  0  0  0  0  1  0  0  0  0  0  0
  188.7210  175.4760  146.9630 C   0  0  0  0  0  2  0  0  0  0  0  0
  192.2170  174.5730  143.7290 C   0  0  2  0  0  3  0  0  0  0  0  0
  194.0110  174.8850  145.4850 C   0  0  2  0  0  3  0  0  0  0  0  0
  189.7160  176.0790  145.9710 C   0  0  1  0  0  3  0  0  0  0  0  0
  188.2160  177.6050  142.8710 C   0  0  1  0  0  3  0  0  0  0  0  0
  190.2270  176.1480  143.7190 C   0  0  1  0  0  3  0  0  0  0  0  0
  193.6950  174.3960  144.0800 C   0  0  0  0  0  2  0  0  0  0  0  0
  187.4660  176.3380  147.1170 C   0  0  0  0  0  2  0  0  0  0  0  0
  187.6210  176.3000  142.3280 C   0  0  2  0  0  3  0  0  0  0  0  0
  187.8100  176.2250  140.8240 C   0  0  0  0  0  1  0  0  0  0  0  0
  186.2670  176.2270  142.6020 F   0  0  0  0  0  0  0  0  0  0  0  0
  193.1490  173.1860  141.8050 C   0  0  0  0  0  1  0  0  0  0  0  0
  191.9880  174.0270  142.3100 C   0  0  1  0  0  3  0  0  0  0  0  0
  188.8140  172.8490  140.5970 C   0  0  0  0  0  0  0  0  0  0  0  0
  188.1340  172.2230  141.6450 C   0  0  0  0  0  3  0  0  0  0  0  0
  190.6500  173.3750  142.0940 C   0  0  0  0  0  0  0  0  0  0  0  0
  188.7080  172.1720  142.9190 C   0  0  0  0  0  3  0  0  0  0  0  0
  190.0680  173.4260  140.8210 C   0  0  0  0  0  3  0  0  0  0  0  0
  189.9600  172.7490  143.1430 C   0  0  0  0  0  3  0  0  0  0  0  0
  188.0950  172.9160  139.0030 Cl  0  0  0  0  0  0  0  0  0  0  0  0
  1 14  1  1  0  0  0
  2  7  1  1  0  0  0
  3 10  1  0  0  0  0
  4 11  1  0  0  0  0
  8 18  1  0  0  0  0
  9 10  2  0  0  0  0
 10 22  1  0  0  0  0
 11  1  1  0  0  0  0
 11  2  1  0  0  0  0
 12  3  1  0  0  0  0
 13 20  1  0  0  0  0
 13  5  1  0  0  0  0
 15 22  1  0  0  0  0
 16  4  1  0  0  0  0
 16 21  1  0  0  0  0
 17  1  1  0  0  0  0
 17  6  1  0  0  0  0
 18  2  1  0  0  0  0
 18 15  1  0  0  0  0
 19 13  1  0  0  0  0
 19 12  1  0  0  0  0
 20  4  1  0  0  0  0
 20  8  1  0  0  0  0
 21 17  1  0  0  0  0
 23 25  1  0  0  0  0
 23 19  1  0  0  0  0
 24 23  1  0  0  0  0
 26 27  1  0  0  0  0
 27 16  1  0  0  0  0
 28 32  2  0  0  0  0
 28 29  1  0  0  0  0
 29 31  2  0  0  0  0
 30 27  1  0  0  0  0
 30 33  2  0  0  0  0
 31 33  1  0  0  0  0
 32 30  1  0  0  0  0
 34 28  1  0  0  0  0
M  END
>  <MODEL>
2

>  <REMARK>
 VINA RESULT:      -7.9      2.691      5.601
  Name = 
  3 active torsions:
  status: ('A' for Active; 'I' for Inactive)
    1  A    between atoms: C_12  and  C_28
    2  A    between atoms: C_13  and  C_29
    3  A    between atoms: C_21  and  C_28
                            x       y       z     vdW  Elec       q    Type
                         _______ _______ _______ _____ _____    ______ ____

>  <TORSDO>
F 3

$$$$
=
 OpenBabel11052418433D

 34 37  0  0  1  0  0  0  0  0999 V2000
  193.2690  173.8810  145.2900 C   0  0  1  0  0  3  0  0  0  0  0  0
  193.0820  173.7220  142.6880 C   0  0  2  0  0  3  0  0  0  0  0  0
  189.5990  172.3980  140.2980 N   0  0  0  0  0  2  0  0  0  0  0  0
  191.3330  174.9310  144.0800 C   0  0  1  0  0  3  0  0  0  0  0  0
  189.6640  172.5880  143.1400 O   0  0  0  0  0  1  0  0  0  0  0  0
  194.9410  175.3160  146.5130 C   0  0  0  0  0  1  0  0  0  0  0  0
  193.9170  172.4550  142.5680 C   0  0  0  0  0  1  0  0  0  0  0  0
  191.2090  174.8670  141.6240 O   0  0  0  0  0  0  0  0  0  0  0  0
  189.8520  173.9350  138.5520 O   0  0  0  0  0  0  0  0  0  0  0  0
  190.3730  173.0680  139.3030 C   0  0  0  0  0  0  0  0  0  0  0  0
  192.3540  173.7740  144.0540 C   0  0  2  0  0  3  0  0  0  0  0  0
  188.2590  172.7950  140.7010 C   0  0  0  0  0  2  0  0  0  0  0  0
  189.2650  173.9000  142.8680 C   0  0  2  0  0  3  0  0  0  0  0  0
  194.1620  172.6610  145.4840 C   0  0  0  0  0  1  0  0  0  0  0  0
  192.6490  173.6570  140.1790 C   0  0  0  0  0  2  0  0  0  0  0  0
  192.0410  176.3070  144.1920 C   0  0  2  0  0  3  0  0  0  0  0  0
  194.0340  175.2070  145.2980 C   0  0  2  0  0  3  0  0  0  0  0  0
  192.0250  173.7210  141.5740 C   0  0  1  0  0  3  0  0  0  0  0  0
  188.2700  173.9850  141.6780 C   0  0  1  0  0  3  0  0  0  0  0  0
  190.4590  174.8760  142.8190 C   0  0  1  0  0  3  0  0  0  0  0  0
  193.0280  176.3470  145.3600 C   0  0  0  0  0  2  0  0  0  0  0  0
  191.8360  172.7810  139.2240 C   0  0  0  0  0  2  0  0  0  0  0  0
  188.1910  175.3490  140.9800 C   0  0  2  0  0  3  0  0  0  0  0  0
  187.2480  176.2690  141.7320 C   0  0  0  0  0  1  0  0  0  0  0  0
  187.7230  175.2090  139.6850 F   0  0  0  0  0  0  0  0  0  0  0  0
  190.8740  178.2380  143.0060 C   0  0  0  0  0  1  0  0  0  0  0  0
  191.0890  177.5080  144.3220 C   0  0  1  0  0  3  0  0  0  0  0  0
  187.4100  177.5400  145.2490 C   0  0  0  0  0  0  0  0  0  0  0  0
  187.3960  176.7540  146.4050 C   0  0  0  0  0  3  0  0  0  0  0  0
  189.8070  177.2190  145.0530 C   0  0  0  0  0  0  0  0  0  0  0  0
  188.5850  176.2000  146.8880 C   0  0  0  0  0  3  0  0  0  0  0  0
  188.6130  177.7740  144.5760 C   0  0  0  0  0  3  0  0  0  0  0  0
  189.7860  176.4340  146.2160 C   0  0  0  0  0  3  0  0  0  0  0  0
  185.9230  178.2370  144.6460 Cl  0  0  0  0  0  0  0  0  0  0  0  0
  1 17  1  0  0  0  0
  1 14  1  6  0  0  0
  2  7  1  1  0  0  0
  2 11  1  0  0  0  0
  3 12  1  0  0  0  0
  4 16  1  0  0  0  0
  8 20  1  0  0  0  0
  9 10  2  0  0  0  0
 10  3  1  0  0  0  0
 11  4  1  0  0  0  0
 11  1  1  0  0  0  0
 12 19  1  0  0  0  0
 13  5  1  0  0  0  0
 15 18  1  0  0  0  0
 16 27  1  0  0  0  0
 16 21  1  0  0  0  0
 17 21  1  0  0  0  0
 17  6  1  0  0  0  0
 18  8  1  0  0  0  0
 18  2  1  0  0  0  0
 19 13  1  0  0  0  0
 20 13  1  0  0  0  0
 20  4  1  0  0  0  0
 22 10  1  0  0  0  0
 22 15  1  0  0  0  0
 23 19  1  0  0  0  0
 23 24  1  0  0  0  0
 25 23  1  0  0  0  0
 26 27  1  0  0  0  0
 27 30  1  0  0  0  0
 28 29  1  0  0  0  0
 29 31  2  0  0  0  0
 30 33  2  0  0  0  0
 32 30  1  0  0  0  0
 32 28  2  0  0  0  0
 33 31  1  0  0  0  0
 34 28  1  0  0  0  0
M  END
>  <MODEL>
3

>  <REMARK>
 VINA RESULT:      -7.4      2.072      3.958
  Name = 
  3 active torsions:
  status: ('A' for Active; 'I' for Inactive)
    1  A    between atoms: C_12  and  C_28
    2  A    between atoms: C_13  and  C_29
    3  A    between atoms: C_21  and  C_28
                            x       y       z     vdW  Elec       q    Type
                         _______ _______ _______ _____ _____    ______ ____

>  <TORSDO>
F 3

$$$$
=
 OpenBabel11052418433D

 34 37  0  0  1  0  0  0  0  0999 V2000
  193.6600  174.7980  145.5870 C   0  0  1  0  0  3  0  0  0  0  0  0
  193.5920  174.8900  142.9770 C   0  0  2  0  0  3  0  0  0  0  0  0
  192.1080  171.7840  140.1940 N   0  0  0  0  0  2  0  0  0  0  0  0
  191.5410  174.2700  144.3440 C   0  0  1  0  0  3  0  0  0  0  0  0
  192.0750  171.5940  143.0360 O   0  0  0  0  0  1  0  0  0  0  0  0
  193.7930  176.8230  147.0820 C   0  0  0  0  0  1  0  0  0  0  0  0
  195.0830  174.6470  142.7930 C   0  0  0  0  0  1  0  0  0  0  0  0
  191.4510  174.4530  141.8930 O   0  0  0  0  0  0  0  0  0  0  0  0
  191.1290  173.2380  138.6420 O   0  0  0  0  0  0  0  0  0  0  0  0
  192.1320  172.9270  139.3380 C   0  0  0  0  0  0  0  0  0  0  0  0
  193.0820  174.2240  144.2780 C   0  0  2  0  0  3  0  0  0  0  0  0
  190.9070  171.0350  140.5280 C   0  0  0  0  0  2  0  0  0  0  0  0
  190.8420  172.2320  142.8710 C   0  0  2  0  0  3  0  0  0  0  0  0
  195.1630  174.5870  145.7250 C   0  0  0  0  0  1  0  0  0  0  0  0
  193.2880  174.8570  140.4490 C   0  0  0  0  0  2  0  0  0  0  0  0
  191.0320  175.7030  144.6540 C   0  0  2  0  0  3  0  0  0  0  0  0
  193.2230  176.2500  145.7940 C   0  0  2  0  0  3  0  0  0  0  0  0
  192.8430  174.2700  141.7880 C   0  0  1  0  0  3  0  0  0  0  0  0
  190.0710  171.7260  141.6210 C   0  0  1  0  0  3  0  0  0  0  0  0
  190.9540  173.7640  143.0190 C   0  0  1  0  0  3  0  0  0  0  0  0
  191.7060  176.2910  145.8940 C   0  0  0  0  0  2  0  0  0  0  0  0
  193.3450  173.7980  139.3460 C   0  0  0  0  0  2  0  0  0  0  0  0
  189.0130  172.6860  141.0640 C   0  0  2  0  0  3  0  0  0  0  0  0
  187.8360  172.7770  142.0170 C   0  0  0  0  0  1  0  0  0  0  0  0
  188.5480  172.2440  139.8380 F   0  0  0  0  0  0  0  0  0  0  0  0
  189.1030  176.1570  146.2570 C   0  0  0  0  0  1  0  0  0  0  0  0
  189.5080  175.8140  144.8330 C   0  0  1  0  0  3  0  0  0  0  0  0
  186.7410  177.4380  142.8080 C   0  0  0  0  0  0  0  0  0  0  0  0
  187.4650  178.1780  141.8690 C   0  0  0  0  0  3  0  0  0  0  0  0
  188.8130  176.6600  143.8010 C   0  0  0  0  0  0  0  0  0  0  0  0
  188.8630  178.1600  141.8930 C   0  0  0  0  0  3  0  0  0  0  0  0
  187.4130  176.6790  143.7700 C   0  0  0  0  0  3  0  0  0  0  0  0
  189.5340  177.4020  142.8540 C   0  0  0  0  0  3  0  0  0  0  0  0
  184.9920  177.4560  142.7770 Cl  0  0  0  0  0  0  0  0  0  0  0  0
  1 14  1  6  0  0  0
  1 17  1  0  0  0  0
  2  7  1  6  0  0  0
  2 11  1  0  0  0  0
  3 12  1  0  0  0  0
  4 16  1  0  0  0  0
  8 20  1  0  0  0  0
  9 10  2  0  0  0  0
 10 22  1  0  0  0  0
 10  3  1  0  0  0  0
 11  4  1  0  0  0  0
 11  1  1  0  0  0  0
 12 19  1  0  0  0  0
 13 20  1  0  0  0  0
 13  5  1  0  0  0  0
 15 18  1  0  0  0  0
 16 27  1  0  0  0  0
 16 21  1  0  0  0  0
 17 21  1  0  0  0  0
 17  6  1  0  0  0  0
 18  8  1  0  0  0  0
 18  2  1  0  0  0  0
 19 13  1  0  0  0  0
 20  4  1  0  0  0  0
 22 15  1  0  0  0  0
 23 19  1  0  0  0  0
 23 24  1  0  0  0  0
 25 23  1  0  0  0  0
 27 26  1  0  0  0  0
 28 32  1  0  0  0  0
 29 31  1  0  0  0  0
 29 28  2  0  0  0  0
 30 27  1  0  0  0  0
 31 33  2  0  0  0  0
 32 30  2  0  0  0  0
 33 30  1  0  0  0  0
 34 28  1  0  0  0  0
M  END
>  <MODEL>
4

>  <REMARK>
 VINA RESULT:      -7.4      1.601      2.683
  Name = 
  3 active torsions:
  status: ('A' for Active; 'I' for Inactive)
    1  A    between atoms: C_12  and  C_28
    2  A    between atoms: C_13  and  C_29
    3  A    between atoms: C_21  and  C_28
                            x       y       z     vdW  Elec       q    Type
                         _______ _______ _______ _____ _____    ______ ____

>  <TORSDO>
F 3

$$$$
=
 OpenBabel11052418433D

 34 37  0  0  1  0  0  0  0  0999 V2000
  193.5680  176.1410  145.3010 C   0  0  1  0  0  3  0  0  0  0  0  0
  191.1650  175.7370  146.2420 C   0  0  2  0  0  3  0  0  0  0  0  0
  187.4510  177.9160  145.2150 N   0  0  0  0  0  2  0  0  0  0  0  0
  191.6150  175.8610  143.7450 C   0  0  1  0  0  3  0  0  0  0  0  0
  190.0130  178.4080  144.0720 O   0  0  0  0  0  1  0  0  0  0  0  0
  195.4210  174.4320  145.3440 C   0  0  0  0  0  1  0  0  0  0  0  0
  191.4330  176.3950  147.5880 C   0  0  0  0  0  1  0  0  0  0  0  0
  189.3700  175.3830  144.6280 O   0  0  0  0  0  0  0  0  0  0  0  0
  186.0140  176.0690  145.2700 O   0  0  0  0  0  0  0  0  0  0  0  0
  186.9170  176.7440  145.8320 C   0  0  0  0  0  0  0  0  0  0  0  0
  192.0510  176.3620  145.1380 C   0  0  2  0  0  3  0  0  0  0  0  0
  187.2040  178.3010  143.8340 C   0  0  0  0  0  2  0  0  0  0  0  0
  189.5940  177.4130  143.1840 C   0  0  2  0  0  3  0  0  0  0  0  0
  194.1430  176.8080  146.5440 C   0  0  0  0  0  1  0  0  0  0  0  0
  188.7320  175.3900  146.9130 C   0  0  0  0  0  2  0  0  0  0  0  0
  192.0400  174.3860  143.5160 C   0  0  2  0  0  3  0  0  0  0  0  0
  193.9260  174.6570  145.1800 C   0  0  2  0  0  3  0  0  0  0  0  0
  189.6920  175.9640  145.8700 C   0  0  1  0  0  3  0  0  0  0  0  0
  188.0820  177.5190  142.8410 C   0  0  1  0  0  3  0  0  0  0  0  0
  190.0950  176.0130  143.5950 C   0  0  1  0  0  3  0  0  0  0  0  0
  193.5290  174.1720  143.7940 C   0  0  0  0  0  2  0  0  0  0  0  0
  187.5090  176.2860  147.1240 C   0  0  0  0  0  2  0  0  0  0  0  0
  187.4280  176.2280  142.3330 C   0  0  2  0  0  3  0  0  0  0  0  0
  187.8170  175.9780  140.8880 C   0  0  0  0  0  1  0  0  0  0  0  0
  186.0490  176.3170  142.4050 F   0  0  0  0  0  0  0  0  0  0  0  0
  192.6490  174.4040  141.0400 C   0  0  0  0  0  1  0  0  0  0  0  0
  191.7280  173.8420  142.1110 C   0  0  1  0  0  3  0  0  0  0  0  0
  192.0230  170.1640  142.9910 C   0  0  0  0  0  0  0  0  0  0  0  0
  191.3660  169.5550  141.9180 C   0  0  0  0  0  3  0  0  0  0  0  0
  191.5760  172.3480  142.0340 C   0  0  0  0  0  0  0  0  0  0  0  0
  190.8150  170.3400  140.9010 C   0  0  0  0  0  3  0  0  0  0  0  0
  192.1290  171.5570  143.0480 C   0  0  0  0  0  3  0  0  0  0  0  0
  190.9210  171.7310  140.9580 C   0  0  0  0  0  3  0  0  0  0  0  0
  192.7170  169.1830  144.2620 Cl  0  0  0  0  0  0  0  0  0  0  0  0
  1 14  1  1  0  0  0
  2  7  1  1  0  0  0
  3 10  1  0  0  0  0
  4 11  1  0  0  0  0
  8 18  1  0  0  0  0
  9 10  2  0  0  0  0
 10 22  1  0  0  0  0
 11  1  1  0  0  0  0
 11  2  1  0  0  0  0
 12  3  1  0  0  0  0
 13 20  1  0  0  0  0
 13  5  1  0  0  0  0
 15 22  1  0  0  0  0
 16  4  1  0  0  0  0
 16 21  1  0  0  0  0
 17  1  1  0  0  0  0
 17  6  1  0  0  0  0
 18  2  1  0  0  0  0
 18 15  1  0  0  0  0
 19 13  1  0  0  0  0
 19 12  1  0  0  0  0
 20  4  1  0  0  0  0
 20  8  1  0  0  0  0
 21 17  1  0  0  0  0
 23 25  1  0  0  0  0
 23 19  1  0  0  0  0
 24 23  1  0  0  0  0
 26 27  1  0  0  0  0
 27 16  1  0  0  0  0
 28 32  1  0  0  0  0
 28 34  1  0  0  0  0
 29 28  2  0  0  0  0
 30 27  1  0  0  0  0
 30 32  2  0  0  0  0
 31 33  2  0  0  0  0
 31 29  1  0  0  0  0
 33 30  1  0  0  0  0
M  END
>  <MODEL>
5

>  <REMARK>
 VINA RESULT:      -7.3      3.380      6.452
  Name = 
  3 active torsions:
  status: ('A' for Active; 'I' for Inactive)
    1  A    between atoms: C_12  and  C_28
    2  A    between atoms: C_13  and  C_29
    3  A    between atoms: C_21  and  C_28
                            x       y       z     vdW  Elec       q    Type
                         _______ _______ _______ _____ _____    ______ ____

>  <TORSDO>
F 3

$$$$
=
 OpenBabel11052418433D

 34 37  0  0  1  0  0  0  0  0999 V2000
  190.6090  174.0330  140.3670 C   0  0  1  0  0  3  0  0  0  0  0  0
  191.6820  172.4630  142.1600 C   0  0  2  0  0  3  0  0  0  0  0  0
  195.8250  172.5620  143.7160 N   0  0  0  0  0  2  0  0  0  0  0  0
  191.8350  174.9930  142.3400 C   0  0  1  0  0  3  0  0  0  0  0  0
  194.7470  174.3730  141.7990 O   0  0  0  0  0  1  0  0  0  0  0  0
  188.1300  174.4040  140.1000 C   0  0  0  0  0  1  0  0  0  0  0  0
  191.8340  171.2720  141.2240 C   0  0  0  0  0  1  0  0  0  0  0  0
  192.7590  173.5180  144.0770 O   0  0  0  0  0  0  0  0  0  0  0  0
  195.3070  172.0350  145.9360 O   0  0  0  0  0  0  0  0  0  0  0  0
  195.1790  171.7690  144.7110 C   0  0  0  0  0  0  0  0  0  0  0  0
  191.7540  173.7940  141.3720 C   0  0  2  0  0  3  0  0  0  0  0  0
  196.4640  173.8430  143.9750 C   0  0  0  0  0  2  0  0  0  0  0  0
  194.3700  175.0670  142.9520 C   0  0  2  0  0  3  0  0  0  0  0  0
  190.5890  173.0230  139.2270 C   0  0  0  0  0  1  0  0  0  0  0  0
  192.8540  171.1500  144.0000 C   0  0  0  0  0  2  0  0  0  0  0  0
  190.4700  175.2560  143.0290 C   0  0  2  0  0  3  0  0  0  0  0  0
  189.2640  174.1730  141.0860 C   0  0  2  0  0  3  0  0  0  0  0  0
  192.8320  172.4380  143.1770 C   0  0  1  0  0  3  0  0  0  0  0  0
  195.4480  174.9960  144.0690 C   0  0  1  0  0  3  0  0  0  0  0  0
  192.9270  174.7370  143.3880 C   0  0  1  0  0  3  0  0  0  0  0  0
  189.3320  175.3760  142.0140 C   0  0  0  0  0  2  0  0  0  0  0  0
  194.2800  170.6620  144.2680 C   0  0  0  0  0  2  0  0  0  0  0  0
  194.9400  175.2470  145.4940 C   0  0  2  0  0  3  0  0  0  0  0  0
  194.6810  176.7270  145.7040 C   0  0  0  0  0  1  0  0  0  0  0  0
  195.8740  174.8310  146.4270 F   0  0  0  0  0  0  0  0  0  0  0  0
  190.5420  177.8010  143.1620 C   0  0  0  0  0  1  0  0  0  0  0  0
  190.4410  176.4970  143.9380 C   0  0  1  0  0  3  0  0  0  0  0  0
  187.3240  177.5330  145.8360 C   0  0  0  0  0  0  0  0  0  0  0  0
  187.2880  176.5930  146.8700 C   0  0  0  0  0  3  0  0  0  0  0  0
  189.3390  176.5030  144.9610 C   0  0  0  0  0  0  0  0  0  0  0  0
  188.2770  175.6080  146.9530 C   0  0  0  0  0  3  0  0  0  0  0  0
  188.3480  177.4900  144.8850 C   0  0  0  0  0  3  0  0  0  0  0  0
  189.3000  175.5650  146.0030 C   0  0  0  0  0  3  0  0  0  0  0  0
  186.0900  178.7690  145.7340 Cl  0  0  0  0  0  0  0  0  0  0  0  0
  1 14  1  6  0  0  0
  1 17  1  0  0  0  0
  1 11  1  0  0  0  0
  2  7  1  6  0  0  0
  2 18  1  0  0  0  0
  3 12  1  0  0  0  0
  3 10  1  0  0  0  0
  4 16  1  0  0  0  0
  4 20  1  0  0  0  0
  5 13  1  0  0  0  0
  6 17  1  0  0  0  0
 10  9  2  0  0  0  0
 11  2  1  0  0  0  0
 11  4  1  0  0  0  0
 12 19  1  0  0  0  0
 13 20  1  0  0  0  0
 13 19  1  0  0  0  0
 15 22  1  0  0  0  0
 16 27  1  0  0  0  0
 17 21  1  0  0  0  0
 18 15  1  0  0  0  0
 18  8  1  0  0  0  0
 19 23  1  0  0  0  0
 20  8  1  0  0  0  0
 21 16  1  0  0  0  0
 22 10  1  0  0  0  0
 23 24  1  0  0  0  0
 23 25  1  0  0  0  0
 26 27  1  0  0  0  0
 27 30  1  0  0  0  0
 28 29  1  0  0  0  0
 29 31  2  0  0  0  0
 30 33  2  0  0  0  0
 32 30  1  0  0  0  0
 32 28  2  0  0  0  0
 33 31  1  0  0  0  0
 34 28  1  0  0  0  0
M  END
>  <MODEL>
6

>  <REMARK>
 VINA RESULT:      -7.2      3.009      5.875
  Name = 
  3 active torsions:
  status: ('A' for Active; 'I' for Inactive)
    1  A    between atoms: C_12  and  C_28
    2  A    between atoms: C_13  and  C_29
    3  A    between atoms: C_21  and  C_28
                            x       y       z     vdW  Elec       q    Type
                         _______ _______ _______ _____ _____    ______ ____

>  <TORSDO>
F 3

$$$$
=
 OpenBabel11052418433D

 34 37  0  0  1  0  0  0  0  0999 V2000
  195.3450  176.1290  143.0000 C   0  0  1  0  0  3  0  0  0  0  0  0
  193.7110  175.4900  144.9360 C   0  0  2  0  0  3  0  0  0  0  0  0
  189.8770  177.4320  145.9970 N   0  0  0  0  0  2  0  0  0  0  0  0
  192.8970  175.7870  142.5470 C   0  0  1  0  0  3  0  0  0  0  0  0
  191.5490  178.1810  143.8160 O   0  0  0  0  0  1  0  0  0  0  0  0
  197.0570  174.5680  142.0070 C   0  0  0  0  0  1  0  0  0  0  0  0
  194.5670  176.0920  146.0410 C   0  0  0  0  0  1  0  0  0  0  0  0
  191.3770  175.0900  144.3510 O   0  0  0  0  0  0  0  0  0  0  0  0
  188.7210  175.4800  146.5730 O   0  0  0  0  0  0  0  0  0  0  0  0
  189.7540  176.1900  146.6910 C   0  0  0  0  0  0  0  0  0  0  0  0
  193.9290  176.2420  143.6000 C   0  0  2  0  0  3  0  0  0  0  0  0
  188.9800  177.8730  144.9410 C   0  0  0  0  0  2  0  0  0  0  0  0
  190.7940  177.2090  143.1550 C   0  0  2  0  0  3  0  0  0  0  0  0
  196.4200  176.7680  143.8700 C   0  0  0  0  0  1  0  0  0  0  0  0
  191.9190  174.9210  146.6540 C   0  0  0  0  0  2  0  0  0  0  0  0
  193.2180  174.3650  142.0180 C   0  0  2  0  0  3  0  0  0  0  0  0
  195.6600  174.6860  142.5960 C   0  0  2  0  0  3  0  0  0  0  0  0
  192.2330  175.6240  145.3320 C   0  0  1  0  0  3  0  0  0  0  0  0
  189.3020  177.2170  143.5860 C   0  0  1  0  0  3  0  0  0  0  0  0
  191.4880  175.8310  143.1550 C   0  0  1  0  0  3  0  0  0  0  0  0
  194.6640  174.2500  141.5330 C   0  0  0  0  0  2  0  0  0  0  0  0
  190.9140  175.7070  147.4990 C   0  0  0  0  0  2  0  0  0  0  0  0
  188.5370  175.9100  143.3430 C   0  0  2  0  0  3  0  0  0  0  0  0
  188.3670  175.6720  141.8540 C   0  0  0  0  0  1  0  0  0  0  0  0
  187.2810  175.9630  143.9230 F   0  0  0  0  0  0  0  0  0  0  0  0
  192.8410  174.1650  139.5040 C   0  0  0  0  0  1  0  0  0  0  0  0
  192.2900  173.8770  140.8920 C   0  0  1  0  0  3  0  0  0  0  0  0
  190.8060  170.4880  140.0520 C   0  0  0  0  0  0  0  0  0  0  0  0
  190.8170  169.8510  141.2960 C   0  0  0  0  0  3  0  0  0  0  0  0
  191.7970  172.4650  141.0500 C   0  0  0  0  0  0  0  0  0  0  0  0
  191.3160  170.5180  142.4180 C   0  0  0  0  0  3  0  0  0  0  0  0
  191.2920  171.7930  139.9300 C   0  0  0  0  0  3  0  0  0  0  0  0
  191.8020  171.8210  142.2960 C   0  0  0  0  0  3  0  0  0  0  0  0
  190.1780  169.6560  138.6470 Cl  0  0  0  0  0  0  0  0  0  0  0  0
  1 11  1  0  0  0  0
  1 14  1  1  0  0  0
  2 18  1  0  0  0  0
  2  7  1  1  0  0  0
  3 10  1  0  0  0  0
  4 20  1  0  0  0  0
  4 11  1  0  0  0  0
  6 17  1  0  0  0  0
  8 18  1  0  0  0  0
  9 10  2  0  0  0  0
 10 22  1  0  0  0  0
 11  2  1  0  0  0  0
 12  3  1  0  0  0  0
 13 20  1  0  0  0  0
 13 19  1  0  0  0  0
 13  5  1  0  0  0  0
 15 22  1  0  0  0  0
 16  4  1  0  0  0  0
 17  1  1  0  0  0  0
 18 15  1  0  0  0  0
 19 12  1  0  0  0  0
 20  8  1  0  0  0  0
 21 16  1  0  0  0  0
 21 17  1  0  0  0  0
 23 19  1  0  0  0  0
 23 25  1  0  0  0  0
 24 23  1  0  0  0  0
 26 27  1  0  0  0  0
 27 30  1  0  0  0  0
 27 16  1  0  0  0  0
 28 29  1  0  0  0  0
 29 31  2  0  0  0  0
 30 33  2  0  0  0  0
 32 28  2  0  0  0  0
 32 30  1  0  0  0  0
 33 31  1  0  0  0  0
 34 28  1  0  0  0  0
M  END
>  <MODEL>
7

>  <REMARK>
 VINA RESULT:      -7.2      3.222      6.613
  Name = 
  3 active torsions:
  status: ('A' for Active; 'I' for Inactive)
    1  A    between atoms: C_12  and  C_28
    2  A    between atoms: C_13  and  C_29
    3  A    between atoms: C_21  and  C_28
                            x       y       z     vdW  Elec       q    Type
                         _______ _______ _______ _____ _____    ______ ____

>  <TORSDO>
F 3

$$$$
=
 OpenBabel11052418433D

 34 37  0  0  1  0  0  0  0  0999 V2000
  193.7850  174.8530  145.1690 C   0  0  1  0  0  3  0  0  0  0  0  0
  191.4300  175.3300  146.1970 C   0  0  2  0  0  3  0  0  0  0  0  0
  188.2320  177.9160  144.5590 N   0  0  0  0  0  2  0  0  0  0  0  0
  191.7060  174.5910  143.7810 C   0  0  1  0  0  3  0  0  0  0  0  0
  190.7450  177.4220  143.3120 O   0  0  0  0  0  1  0  0  0  0  0  0
  195.2050  172.8480  145.7320 C   0  0  0  0  0  1  0  0  0  0  0  0
  191.9400  176.2780  147.2730 C   0  0  0  0  0  1  0  0  0  0  0  0
  189.4850  174.9440  144.7770 O   0  0  0  0  0  0  0  0  0  0  0  0
  186.4260  176.5650  145.1860 O   0  0  0  0  0  0  0  0  0  0  0  0
  187.4980  177.1440  145.5090 C   0  0  0  0  0  0  0  0  0  0  0  0
  192.3470  175.3680  144.9500 C   0  0  2  0  0  3  0  0  0  0  0  0
  187.9730  177.9170  143.1280 C   0  0  0  0  0  2  0  0  0  0  0  0
  190.0470  176.3360  142.7750 C   0  0  2  0  0  3  0  0  0  0  0  0
  194.5870  175.7050  146.1440 C   0  0  0  0  0  1  0  0  0  0  0  0
  189.0400  175.7860  146.9490 C   0  0  0  0  0  2  0  0  0  0  0  0
  191.7710  173.0590  144.0170 C   0  0  2  0  0  3  0  0  0  0  0  0
  193.7910  173.3610  145.5110 C   0  0  2  0  0  3  0  0  0  0  0  0
  190.0220  175.7770  145.7770 C   0  0  1  0  0  3  0  0  0  0  0  0
  188.5760  176.6890  142.4220 C   0  0  1  0  0  3  0  0  0  0  0  0
  190.2510  175.0470  143.5970 C   0  0  1  0  0  3  0  0  0  0  0  0
  193.1900  172.5920  144.3440 C   0  0  0  0  0  2  0  0  0  0  0  0
  188.0690  176.9660  146.8780 C   0  0  0  0  0  2  0  0  0  0  0  0
  187.6130  175.4990  142.3390 C   0  0  2  0  0  3  0  0  0  0  0  0
  187.8220  174.7460  141.0380 C   0  0  0  0  0  1  0  0  0  0  0  0
  186.2980  175.9290  142.3880 F   0  0  0  0  0  0  0  0  0  0  0  0
  189.7500  171.9180  142.9620 C   0  0  0  0  0  1  0  0  0  0  0  0
  191.2390  172.2090  142.8500 C   0  0  1  0  0  3  0  0  0  0  0  0
  191.0020  173.4160  139.2620 C   0  0  0  0  0  0  0  0  0  0  0  0
  192.3480  173.5390  138.9080 C   0  0  0  0  0  3  0  0  0  0  0  0
  191.6460  172.6890  141.4850 C   0  0  0  0  0  0  0  0  0  0  0  0
  193.3460  173.2360  139.8390 C   0  0  0  0  0  3  0  0  0  0  0  0
  190.6510  172.9900  140.5460 C   0  0  0  0  0  3  0  0  0  0  0  0
  192.9960  172.8100  141.1220 C   0  0  0  0  0  3  0  0  0  0  0  0
  189.7520  173.7900  138.0960 Cl  0  0  0  0  0  0  0  0  0  0  0  0
  1 17  1  0  0  0  0
  1 14  1  1  0  0  0
  2  7  1  1  0  0  0
  3 10  1  0  0  0  0
  4 16  1  0  0  0  0
  4 11  1  0  0  0  0
  8 18  1  0  0  0  0
  9 10  2  0  0  0  0
 10 22  1  0  0  0  0
 11  1  1  0  0  0  0
 11  2  1  0  0  0  0
 12  3  1  0  0  0  0
 13  5  1  0  0  0  0
 13 20  1  0  0  0  0
 16 21  1  0  0  0  0
 17  6  1  0  0  0  0
 18  2  1  0  0  0  0
 18 15  1  0  0  0  0
 19 13  1  0  0  0  0
 19 12  1  0  0  0  0
 20  4  1  0  0  0  0
 20  8  1  0  0  0  0
 21 17  1  0  0  0  0
 22 15  1  0  0  0  0
 23 25  1  0  0  0  0
 23 19  1  0  0  0  0
 24 23  1  0  0  0  0
 27 26  1  0  0  0  0
 27 16  1  0  0  0  0
 28 32  1  0  0  0  0
 29 28  2  0  0  0  0
 29 31  1  0  0  0  0
 30 27  1  0  0  0  0
 31 33  2  0  0  0  0
 32 30  2  0  0  0  0
 33 30  1  0  0  0  0
 34 28  1  0  0  0  0
M  END
>  <MODEL>
8

>  <REMARK>
 VINA RESULT:      -7.1      2.801      5.745
  Name = 
  3 active torsions:
  status: ('A' for Active; 'I' for Inactive)
    1  A    between atoms: C_12  and  C_28
    2  A    between atoms: C_13  and  C_29
    3  A    between atoms: C_21  and  C_28
                            x       y       z     vdW  Elec       q    Type
                         _______ _______ _______ _____ _____    ______ ____

>  <TORSDO>
F 3

$$$$
=
 OpenBabel11052418433D

 34 37  0  0  1  0  0  0  0  0999 V2000
  196.3040  174.3580  142.5580 C   0  0  1  0  0  3  0  0  0  0  0  0
  194.2480  174.2060  140.9520 C   0  0  2  0  0  3  0  0  0  0  0  0
  191.1590  171.0400  140.7970 N   0  0  0  0  0  2  0  0  0  0  0  0
  193.9950  173.9630  143.4690 C   0  0  1  0  0  3  0  0  0  0  0  0
  193.3280  171.1290  142.6420 O   0  0  0  0  0  1  0  0  0  0  0  0
  197.5390  176.4890  143.0930 C   0  0  0  0  0  1  0  0  0  0  0  0
  195.0570  173.7750  139.7360 C   0  0  0  0  0  1  0  0  0  0  0  0
  192.0480  173.9180  141.9660 O   0  0  0  0  0  0  0  0  0  0  0  0
  189.3390  172.4400  140.3460 O   0  0  0  0  0  0  0  0  0  0  0  0
  190.5150  172.0840  140.0680 C   0  0  0  0  0  0  0  0  0  0  0  0
  194.9270  173.7320  142.2600 C   0  0  2  0  0  3  0  0  0  0  0  0
  190.6520  170.4710  142.0360 C   0  0  0  0  0  2  0  0  0  0  0  0
  192.4150  171.8880  143.3810 C   0  0  2  0  0  3  0  0  0  0  0  0
  197.3670  173.9890  141.5320 C   0  0  0  0  0  1  0  0  0  0  0  0
  192.1070  173.9650  139.5950 C   0  0  0  0  0  2  0  0  0  0  0  0
  193.9090  175.4680  143.8360 C   0  0  2  0  0  3  0  0  0  0  0  0
  196.1840  175.8650  142.8020 C   0  0  2  0  0  3  0  0  0  0  0  0
  192.8550  173.5650  140.8670 C   0  0  1  0  0  3  0  0  0  0  0  0
  190.9610  171.3560  143.2570 C   0  0  1  0  0  3  0  0  0  0  0  0
  192.5990  173.4030  143.1580 C   0  0  1  0  0  3  0  0  0  0  0  0
  195.2940  176.0910  144.0150 C   0  0  0  0  0  2  0  0  0  0  0  0
  191.2940  172.8050  139.0170 C   0  0  0  0  0  2  0  0  0  0  0  0
  189.8570  172.3740  143.5680 C   0  0  2  0  0  3  0  0  0  0  0  0
  189.8270  172.6770  145.0550 C   0  0  0  0  0  1  0  0  0  0  0  0
  188.6180  171.8810  143.1980 F   0  0  0  0  0  0  0  0  0  0  0  0
  193.8950  176.4010  146.2080 C   0  0  0  0  0  1  0  0  0  0  0  0
  193.0750  175.7730  145.0930 C   0  0  1  0  0  3  0  0  0  0  0  0
  189.4670  176.8910  145.4360 C   0  0  0  0  0  0  0  0  0  0  0  0
  189.3330  177.7740  144.3600 C   0  0  0  0  0  3  0  0  0  0  0  0
  191.7830  176.4950  144.8310 C   0  0  0  0  0  0  0  0  0  0  0  0
  190.4220  178.0180  143.5180 C   0  0  0  0  0  3  0  0  0  0  0  0
  190.6870  176.2520  145.6690 C   0  0  0  0  0  3  0  0  0  0  0  0
  191.6410  177.3790  143.7510 C   0  0  0  0  0  3  0  0  0  0  0  0
  188.1040  176.5820  146.4880 Cl  0  0  0  0  0  0  0  0  0  0  0  0
  1 14  1  6  0  0  0
  1 17  1  0  0  0  0
  2  7  1  6  0  0  0
  2 11  1  0  0  0  0
  3 12  1  0  0  0  0
  4 16  1  0  0  0  0
  5 13  1  0  0  0  0
  8 20  1  0  0  0  0
 10  9  2  0  0  0  0
 10  3  1  0  0  0  0
 11  1  1  0  0  0  0
 11  4  1  0  0  0  0
 12 19  1  0  0  0  0
 15 18  1  0  0  0  0
 16 21  1  0  0  0  0
 16 27  1  0  0  0  0
 17  6  1  0  0  0  0
 17 21  1  0  0  0  0
 18  2  1  0  0  0  0
 18  8  1  0  0  0  0
 19 13  1  0  0  0  0
 19 23  1  0  0  0  0
 20 13  1  0  0  0  0
 20  4  1  0  0  0  0
 22 15  1  0  0  0  0
 22 10  1  0  0  0  0
 23 24  1  0  0  0  0
 25 23  1  0  0  0  0
 27 26  1  0  0  0  0
 28 32  1  0  0  0  0
 28 34  1  0  0  0  0
 29 28  2  0  0  0  0
 30 27  1  0  0  0  0
 30 32  2  0  0  0  0
 31 33  2  0  0  0  0
 31 29  1  0  0  0  0
 33 30  1  0  0  0  0
M  END
>  <MODEL>
9

>  <REMARK>
 VINA RESULT:      -7.1      2.792      5.354
  Name = 
  3 active torsions:
  status: ('A' for Active; 'I' for Inactive)
    1  A    between atoms: C_12  and  C_28
    2  A    between atoms: C_13  and  C_29
    3  A    between atoms: C_21  and  C_28
                            x       y       z     vdW  Elec       q    Type
                         _______ _______ _______ _____ _____    ______ ____

>  <TORSDO>
F 3

$$$$
