=
 OpenBabel11052420583D

 43 47  0  0  1  0  0  0  0  0999 V2000
  196.1470  173.3840  145.7590 C   0  0  0  0  0  0  0  0  0  0  0  0
  191.6930  175.7660  145.1820 N   0  0  2  0  0  0  0  0  0  0  0  0
  190.0720  174.3040  143.4850 C   0  0  2  0  0  3  0  0  0  0  0  0
  194.3250  174.9780  145.8500 C   0  0  0  0  0  0  0  0  0  0  0  0
  195.2690  172.4010  145.2970 C   0  0  0  0  0  3  0  0  0  0  0  0
  197.4560  173.0880  145.9440 F   0  0  0  0  0  0  0  0  0  0  0  0
  193.4390  174.0020  145.3450 C   0  0  0  0  0  0  0  0  0  0  0  0
  195.6750  174.6680  146.0370 C   0  0  0  0  0  3  0  0  0  0  0  0
  193.9200  172.7060  145.1000 C   0  0  0  0  0  3  0  0  0  0  0  0
  191.3930  173.6600  143.9290 C   0  0  0  0  0  2  0  0  0  0  0  0
  191.9620  174.3130  145.1970 C   0  0  2  0  0  3  0  0  0  0  0  0
  192.3390  176.3770  146.3420 C   0  0  0  0  0  2  0  0  0  0  0  0
  190.2480  176.0440  145.3020 C   0  0  2  0  0  3  0  0  0  0  0  0
  189.3560  174.9700  144.6550 C   0  0  0  0  0  2  0  0  0  0  0  0
  193.8480  176.3660  146.1460 C   0  0  0  0  0  2  0  0  0  0  0  0
  189.1570  173.3170  142.7580 C   0  0  2  0  0  3  0  0  0  0  0  0
  189.0250  171.9990  143.5150 C   0  0  0  0  0  1  0  0  0  0  0  0
  189.6570  173.0780  141.4100 N   0  0  0  0  0  2  0  0  0  0  0  0
  189.3180  173.9080  140.2970 C   0  0  0  0  0  0  0  0  0  0  0  0
  188.5940  174.9270  140.4530 O   0  0  0  0  0  0  0  0  0  0  0  0
  189.8080  173.5480  138.9220 C   0  0  0  0  0  2  0  0  0  0  0  0
  191.1320  172.9100  138.9120 N   0  0  0  0  0  0  0  0  0  0  0  0
  192.9270  173.1710  140.6010 C   0  0  0  0  0  0  0  0  0  0  0  0
  192.0310  173.7180  139.6300 N   0  0  0  0  0  2  0  0  0  0  0  0
  192.8780  171.9420  140.8800 O   0  0  0  0  0  0  0  0  0  0  0  0
  193.9010  174.0440  141.2790 C   0  0  0  0  0  0  0  0  0  0  0  0
  196.1390  174.4350  142.1440 C   0  0  0  0  0  3  0  0  0  0  0  0
  194.4490  176.1560  142.3500 C   0  0  0  0  0  3  0  0  0  0  0  0
  195.7550  175.7100  142.5670 C   0  0  0  0  0  3  0  0  0  0  0  0
  193.5250  175.3250  141.7080 C   0  0  0  0  0  3  0  0  0  0  0  0
  195.2150  173.6050  141.5020 C   0  0  0  0  0  3  0  0  0  0  0  0
  191.6070  172.8130  137.5350 C   0  0  0  0  0  2  0  0  0  0  0  0
  192.1060  175.1380  136.1700 S   0  0  0  0  0  1  0  0  0  0  0  0
  190.9230  173.8520  136.6650 C   0  0  0  0  0  2  0  0  0  0  0  0
  189.9460  177.3330  144.6890 N   0  0  0  0  0  2  0  0  0  0  0  0
  186.3400  178.1620  144.1200 C   0  0  0  0  0  3  0  0  0  0  0  0
  186.2940  178.1950  142.7170 C   0  0  0  0  0  0  0  0  0  0  0  0
  188.6580  177.6570  142.6430 C   0  0  0  0  0  3  0  0  0  0  0  0
  187.5400  177.8780  144.7770 C   0  0  0  0  0  3  0  0  0  0  0  0
  188.7070  177.6300  144.0410 C   0  0  0  0  0  0  0  0  0  0  0  0
  187.4590  177.9410  141.9850 C   0  0  0  0  0  3  0  0  0  0  0  0
  185.1100  178.4790  142.0290 O   0  0  0  0  0  0  0  0  0  0  0  0
  184.9720  178.2870  140.6280 C   0  0  0  0  0  1  0  0  0  0  0  0
  1  6  1  0  0  0  0
  1  8  1  0  0  0  0
  2 11  1  0  0  0  0
  2 13  1  0  0  0  0
  2 12  1  1  0  0  0
  3 16  1  1  0  0  0
  3 10  1  0  0  0  0
  3 14  1  0  0  0  0
  4  8  2  0  0  0  0
  4 15  1  0  0  0  0
  5  1  2  0  0  0  0
  7  4  1  0  0  0  0
  9  5  1  0  0  0  0
  9  7  2  0  0  0  0
 11 10  1  6  0  0  0
 11  7  1  0  0  0  0
 13 35  1  6  0  0  0
 14 13  1  0  0  0  0
 15 12  1  0  0  0  0
 16 17  1  1  0  0  0
 18 16  1  0  0  0  0
 19 20  2  0  0  0  0
 19 18  1  0  0  0  0
 21 19  1  0  0  0  0
 22 21  1  0  0  0  0
 22 24  1  0  0  0  0
 23 25  2  0  0  0  0
 23 26  1  0  0  0  0
 24 23  1  0  0  0  0
 26 31  2  0  0  0  0
 26 30  1  0  0  0  0
 27 29  2  0  0  0  0
 28 29  1  0  0  0  0
 30 28  2  0  0  0  0
 31 27  1  0  0  0  0
 32 22  1  0  0  0  0
 33 34  1  0  0  0  0
 34 32  1  0  0  0  0
 36 39  1  0  0  0  0
 37 36  2  0  0  0  0
 38 40  1  0  0  0  0
 40 35  1  0  0  0  0
 40 39  2  0  0  0  0
 41 38  2  0  0  0  0
 41 37  1  0  0  0  0
 42 37  1  0  0  0  0
 43 42  1  0  0  0  0
M  END
>  <MODEL>
1

>  <REMARK>
 VINA RESULT:      -7.0      0.000      0.000
  Name = 
  11 active torsions:
  status: ('A' for Active; 'I' for Inactive)
    1  A    between atoms: N_1  and  C_34
    2  A    between atoms: N_1  and  C_35
    3  A    between atoms: C_2  and  N_6
    4  A    between atoms: C_2  and  C_13
    5  A    between atoms: C_3  and  N_4
    6  A    between atoms: C_3  and  C_12
    7  A    between atoms: N_4  and  C_15
    8  A    between atoms: N_4  and  N_22
    9  A    between atoms: C_11  and  C_14
   10  A    between atoms: C_15  and  C_42
   11  A    between atoms: C_19  and  O_25
                            x       y       z     vdW  Elec       q    Type
                         _______ _______ _______ _____ _____    ______ ____

>  <TORSDO>
F 11

$$$$
=
 OpenBabel11052420583D

 43 47  0  0  1  0  0  0  0  0999 V2000
  196.3670  176.6300  143.3950 C   0  0  0  0  0  0  0  0  0  0  0  0
  191.7410  175.7640  145.3180 N   0  0  2  0  0  0  0  0  0  0  0  0
  189.9770  175.1910  143.2670 C   0  0  2  0  0  3  0  0  0  0  0  0
  194.4630  176.3880  144.8730 C   0  0  0  0  0  0  0  0  0  0  0  0
  195.6890  175.9240  142.4000 C   0  0  0  0  0  3  0  0  0  0  0  0
  197.6220  177.0860  143.1650 F   0  0  0  0  0  0  0  0  0  0  0  0
  193.7540  175.7110  143.8580 C   0  0  0  0  0  0  0  0  0  0  0  0
  195.7560  176.8590  144.6300 C   0  0  0  0  0  3  0  0  0  0  0  0
  194.3920  175.4590  142.6320 C   0  0  0  0  0  3  0  0  0  0  0  0
  191.4650  175.3040  142.9080 C   0  0  0  0  0  2  0  0  0  0  0  0
  192.3750  175.1450  144.1350 C   0  0  2  0  0  3  0  0  0  0  0  0
  192.6730  175.6960  146.4410 C   0  0  0  0  0  2  0  0  0  0  0  0
  190.5280  175.0270  145.7220 C   0  0  2  0  0  3  0  0  0  0  0  0
  189.7730  174.3850  144.5460 C   0  0  0  0  0  2  0  0  0  0  0  0
  193.8280  176.6580  146.2020 C   0  0  0  0  0  2  0  0  0  0  0  0
  189.1390  174.6330  142.1150 C   0  0  2  0  0  3  0  0  0  0  0  0
  187.6460  174.8530  142.3390 C   0  0  0  0  0  1  0  0  0  0  0  0
  189.4210  173.2140  141.9390 N   0  0  0  0  0  2  0  0  0  0  0  0
  190.0950  172.6910  140.7940 C   0  0  0  0  0  0  0  0  0  0  0  0
  190.5220  173.4620  139.8930 O   0  0  0  0  0  0  0  0  0  0  0  0
  190.2750  171.2060  140.6470 C   0  0  0  0  0  2  0  0  0  0  0  0
  190.7520  170.5430  141.8690 N   0  0  0  0  0  0  0  0  0  0  0  0
  192.3890  171.4160  143.5120 C   0  0  0  0  0  0  0  0  0  0  0  0
  192.0330  171.0320  142.1820 N   0  0  0  0  0  2  0  0  0  0  0  0
  191.5240  171.3830  144.4290 O   0  0  0  0  0  0  0  0  0  0  0  0
  193.7630  171.8570  143.8090 C   0  0  0  0  0  0  0  0  0  0  0  0
  196.0570  172.2320  143.0990 C   0  0  0  0  0  3  0  0  0  0  0  0
  195.3980  172.7480  145.3700 C   0  0  0  0  0  3  0  0  0  0  0  0
  196.3790  172.7010  144.3750 C   0  0  0  0  0  3  0  0  0  0  0  0
  194.0950  172.3280  145.0880 C   0  0  0  0  0  3  0  0  0  0  0  0
  194.7540  171.8120  142.8160 C   0  0  0  0  0  3  0  0  0  0  0  0
  190.8600  169.1080  141.6240 C   0  0  0  0  0  2  0  0  0  0  0  0
  192.6440  168.1660  139.7660 S   0  0  0  0  0  1  0  0  0  0  0  0
  190.9950  168.8330  140.1370 C   0  0  0  0  0  2  0  0  0  0  0  0
  189.6210  175.9280  146.4240 N   0  0  0  0  0  2  0  0  0  0  0  0
  186.1440  177.0080  145.5520 C   0  0  0  0  0  3  0  0  0  0  0  0
  186.4010  177.9180  144.5150 C   0  0  0  0  0  0  0  0  0  0  0  0
  188.7780  177.4950  144.7570 C   0  0  0  0  0  3  0  0  0  0  0  0
  187.1990  176.3480  146.1870 C   0  0  0  0  0  3  0  0  0  0  0  0
  188.5230  176.5930  145.7950 C   0  0  0  0  0  0  0  0  0  0  0  0
  187.7230  178.1560  144.1220 C   0  0  0  0  0  3  0  0  0  0  0  0
  185.3680  178.5980  143.8620 O   0  0  0  0  0  0  0  0  0  0  0  0
  184.2370  179.1170  144.5480 C   0  0  0  0  0  1  0  0  0  0  0  0
  1  8  1  0  0  0  0
  2 13  1  0  0  0  0
  2 12  1  1  0  0  0
  3 16  1  6  0  0  0
  3 14  1  0  0  0  0
  4 15  1  0  0  0  0
  5  9  1  0  0  0  0
  5  1  2  0  0  0  0
  6  1  1  0  0  0  0
  7 11  1  0  0  0  0
  7  4  1  0  0  0  0
  8  4  2  0  0  0  0
  9  7  2  0  0  0  0
 10  3  1  0  0  0  0
 11 10  1  6  0  0  0
 11  2  1  0  0  0  0
 13 35  1  6  0  0  0
 14 13  1  0  0  0  0
 15 12  1  0  0  0  0
 16 17  1  1  0  0  0
 18 16  1  0  0  0  0
 19 18  1  0  0  0  0
 20 19  2  0  0  0  0
 21 19  1  0  0  0  0
 21 22  1  0  0  0  0
 22 24  1  0  0  0  0
 23 26  1  0  0  0  0
 23 25  2  0  0  0  0
 24 23  1  0  0  0  0
 26 30  1  0  0  0  0
 27 29  2  0  0  0  0
 29 28  1  0  0  0  0
 30 28  2  0  0  0  0
 31 27  1  0  0  0  0
 31 26  2  0  0  0  0
 32 22  1  0  0  0  0
 33 34  1  0  0  0  0
 34 32  1  0  0  0  0
 36 39  1  0  0  0  0
 37 36  2  0  0  0  0
 38 40  1  0  0  0  0
 40 39  2  0  0  0  0
 40 35  1  0  0  0  0
 41 37  1  0  0  0  0
 41 38  2  0  0  0  0
 42 37  1  0  0  0  0
 42 43  1  0  0  0  0
M  END
>  <MODEL>
2

>  <REMARK>
 VINA RESULT:      -6.6      2.431      3.205
  Name = 
  11 active torsions:
  status: ('A' for Active; 'I' for Inactive)
    1  A    between atoms: N_1  and  C_34
    2  A    between atoms: N_1  and  C_35
    3  A    between atoms: C_2  and  N_6
    4  A    between atoms: C_2  and  C_13
    5  A    between atoms: C_3  and  N_4
    6  A    between atoms: C_3  and  C_12
    7  A    between atoms: N_4  and  C_15
    8  A    between atoms: N_4  and  N_22
    9  A    between atoms: C_11  and  C_14
   10  A    between atoms: C_15  and  C_42
   11  A    between atoms: C_19  and  O_25
                            x       y       z     vdW  Elec       q    Type
                         _______ _______ _______ _____ _____    ______ ____

>  <TORSDO>
F 11

$$$$
=
 OpenBabel11052420583D

 43 47  0  0  1  0  0  0  0  0999 V2000
  188.1420  177.6240  144.1110 C   0  0  0  0  0  0  0  0  0  0  0  0
  190.2410  173.7210  141.6210 N   0  0  2  0  0  0  0  0  0  0  0  0
  192.8510  174.3440  140.9510 C   0  0  2  0  0  3  0  0  0  0  0  0
  188.5320  175.5200  142.9760 C   0  0  0  0  0  0  0  0  0  0  0  0
  189.5190  177.8230  144.2230 C   0  0  0  0  0  3  0  0  0  0  0  0
  187.2830  178.5440  144.6110 F   0  0  0  0  0  0  0  0  0  0  0  0
  189.9260  175.7340  143.0480 C   0  0  0  0  0  0  0  0  0  0  0  0
  187.6500  176.4740  143.4910 C   0  0  0  0  0  3  0  0  0  0  0  0
  190.4070  176.8790  143.7020 C   0  0  0  0  0  3  0  0  0  0  0  0
  192.1040  175.3240  141.8660 C   0  0  0  0  0  2  0  0  0  0  0  0
  190.8880  174.6750  142.5450 C   0  0  2  0  0  3  0  0  0  0  0  0
  189.0290  173.2030  142.2510 C   0  0  0  0  0  2  0  0  0  0  0  0
  191.1140  172.5610  141.3520 C   0  0  2  0  0  3  0  0  0  0  0  0
  192.6140  172.8970  141.3720 C   0  0  0  0  0  2  0  0  0  0  0  0
  187.9770  174.3010  142.3060 C   0  0  0  0  0  2  0  0  0  0  0  0
  194.3440  174.6610  140.8520 C   0  0  2  0  0  3  0  0  0  0  0  0
  195.0420  173.7930  139.8100 C   0  0  0  0  0  1  0  0  0  0  0  0
  194.9740  174.4920  142.1550 N   0  0  0  0  0  2  0  0  0  0  0  0
  195.7140  175.5290  142.8010 C   0  0  0  0  0  0  0  0  0  0  0  0
  195.8130  176.6700  142.2770 O   0  0  0  0  0  0  0  0  0  0  0  0
  196.4030  175.2510  144.1080 C   0  0  0  0  0  2  0  0  0  0  0  0
  195.7370  174.2250  144.9230 N   0  0  0  0  0  0  0  0  0  0  0  0
  193.3180  174.0880  145.4430 C   0  0  0  0  0  0  0  0  0  0  0  0
  194.5710  174.7760  145.4830 N   0  0  0  0  0  2  0  0  0  0  0  0
  193.2250  172.9860  144.8370 O   0  0  0  0  0  0  0  0  0  0  0  0
  192.1370  174.6700  146.1030 C   0  0  0  0  0  0  0  0  0  0  0  0
  189.7580  174.6170  146.6020 C   0  0  0  0  0  3  0  0  0  0  0  0
  191.1380  176.3910  147.5000 C   0  0  0  0  0  3  0  0  0  0  0  0
  189.8890  175.7800  147.3650 C   0  0  0  0  0  3  0  0  0  0  0  0
  192.2580  175.8380  146.8710 C   0  0  0  0  0  3  0  0  0  0  0  0
  190.8780  174.0640  145.9730 C   0  0  0  0  0  3  0  0  0  0  0  0
  196.6230  173.8310  146.0150 C   0  0  0  0  0  2  0  0  0  0  0  0
  196.5780  171.6220  144.3910 S   0  0  0  0  0  1  0  0  0  0  0  0
  196.7720  172.3200  146.0560 C   0  0  0  0  0  2  0  0  0  0  0  0
  190.7800  171.9890  140.0530 N   0  0  0  0  0  2  0  0  0  0  0  0
  188.3820  173.6410  137.6990 C   0  0  0  0  0  3  0  0  0  0  0  0
  189.2700  174.2570  136.8040 C   0  0  0  0  0  0  0  0  0  0  0  0
  191.1380  173.3620  138.0680 C   0  0  0  0  0  3  0  0  0  0  0  0
  188.8710  172.8920  138.7730 C   0  0  0  0  0  3  0  0  0  0  0  0
  190.2530  172.7540  138.9650 C   0  0  0  0  0  0  0  0  0  0  0  0
  190.6480  174.1110  136.9950 C   0  0  0  0  0  3  0  0  0  0  0  0
  188.8130  175.0150  135.7220 O   0  0  0  0  0  0  0  0  0  0  0  0
  187.7030  175.8970  135.8180 C   0  0  0  0  0  1  0  0  0  0  0  0
  1  5  1  0  0  0  0
  1  6  1  0  0  0  0
  2 12  1  1  0  0  0
  2 11  1  0  0  0  0
  3 16  1  1  0  0  0
  3 14  1  0  0  0  0
  3 10  1  0  0  0  0
  4  7  2  0  0  0  0
  4  8  1  0  0  0  0
  7  9  1  0  0  0  0
  8  1  2  0  0  0  0
  9  5  2  0  0  0  0
 11 10  1  6  0  0  0
 11  7  1  0  0  0  0
 12 15  1  0  0  0  0
 13 35  1  6  0  0  0
 13 14  1  0  0  0  0
 13  2  1  0  0  0  0
 15  4  1  0  0  0  0
 16 17  1  6  0  0  0
 16 18  1  0  0  0  0
 18 19  1  0  0  0  0
 19 21  1  0  0  0  0
 20 19  2  0  0  0  0
 21 22  1  0  0  0  0
 22 24  1  0  0  0  0
 22 32  1  0  0  0  0
 23 24  1  0  0  0  0
 23 26  1  0  0  0  0
 25 23  2  0  0  0  0
 26 30  1  0  0  0  0
 27 29  2  0  0  0  0
 29 28  1  0  0  0  0
 30 28  2  0  0  0  0
 31 26  2  0  0  0  0
 31 27  1  0  0  0  0
 32 34  1  0  0  0  0
 33 34  1  0  0  0  0
 36 39  1  0  0  0  0
 37 41  1  0  0  0  0
 37 36  2  0  0  0  0
 38 40  1  0  0  0  0
 39 40  2  0  0  0  0
 40 35  1  0  0  0  0
 41 38  2  0  0  0  0
 42 43  1  0  0  0  0
 42 37  1  0  0  0  0
M  END
>  <MODEL>
3

>  <REMARK>
 VINA RESULT:      -6.5      3.269      7.066
  Name = 
  11 active torsions:
  status: ('A' for Active; 'I' for Inactive)
    1  A    between atoms: N_1  and  C_34
    2  A    between atoms: N_1  and  C_35
    3  A    between atoms: C_2  and  N_6
    4  A    between atoms: C_2  and  C_13
    5  A    between atoms: C_3  and  N_4
    6  A    between atoms: C_3  and  C_12
    7  A    between atoms: N_4  and  C_15
    8  A    between atoms: N_4  and  N_22
    9  A    between atoms: C_11  and  C_14
   10  A    between atoms: C_15  and  C_42
   11  A    between atoms: C_19  and  O_25
                            x       y       z     vdW  Elec       q    Type
                         _______ _______ _______ _____ _____    ______ ____

>  <TORSDO>
F 11

$$$$
=
 OpenBabel11052420583D

 43 47  0  0  1  0  0  0  0  0999 V2000
  184.4690  178.5220  145.6470 C   0  0  0  0  0  0  0  0  0  0  0  0
  189.0930  176.4370  145.3010 N   0  0  2  0  0  0  0  0  0  0  0  0
  189.3400  175.1260  142.8800 C   0  0  2  0  0  3  0  0  0  0  0  0
  186.7210  177.7530  146.1010 C   0  0  0  0  0  0  0  0  0  0  0  0
  184.6640  178.3010  144.2820 C   0  0  0  0  0  3  0  0  0  0  0  0
  183.2850  179.0070  146.0910 F   0  0  0  0  0  0  0  0  0  0  0  0
  186.9120  177.4880  144.7270 C   0  0  0  0  0  0  0  0  0  0  0  0
  185.4960  178.2510  146.5530 C   0  0  0  0  0  3  0  0  0  0  0  0
  185.8830  177.7950  143.8230 C   0  0  0  0  0  3  0  0  0  0  0  0
  188.0800  175.9740  143.0980 C   0  0  0  0  0  2  0  0  0  0  0  0
  188.2590  177.0060  144.2220 C   0  0  2  0  0  3  0  0  0  0  0  0
  189.1550  177.3960  146.4030 C   0  0  0  0  0  2  0  0  0  0  0  0
  190.4800  176.2180  144.8460 C   0  0  2  0  0  3  0  0  0  0  0  0
  190.5920  175.8560  143.3560 C   0  0  0  0  0  2  0  0  0  0  0  0
  187.8010  177.4610  147.0960 C   0  0  0  0  0  2  0  0  0  0  0  0
  189.4840  174.6560  141.4310 C   0  0  2  0  0  3  0  0  0  0  0  0
  188.1760  174.7870  140.6570 C   0  0  0  0  0  1  0  0  0  0  0  0
  189.9520  173.2770  141.4020 N   0  0  0  0  0  2  0  0  0  0  0  0
  190.5160  172.6710  140.2370 C   0  0  0  0  0  0  0  0  0  0  0  0
  190.6740  173.3380  139.1800 O   0  0  0  0  0  0  0  0  0  0  0  0
  190.9000  171.2180  140.2630 C   0  0  0  0  0  2  0  0  0  0  0  0
  192.3230  170.9860  140.5480 N   0  0  0  0  0  0  0  0  0  0  0  0
  193.9300  172.3720  141.8280 C   0  0  0  0  0  0  0  0  0  0  0  0
  192.9430  172.2220  140.8040 N   0  0  0  0  0  2  0  0  0  0  0  0
  194.2170  171.3960  142.5720 O   0  0  0  0  0  0  0  0  0  0  0  0
  194.6050  173.6680  142.0160 C   0  0  0  0  0  0  0  0  0  0  0  0
  196.6390  174.9610  142.3330 C   0  0  0  0  0  3  0  0  0  0  0  0
  194.4980  176.0860  142.2320 C   0  0  0  0  0  3  0  0  0  0  0  0
  195.8870  176.1390  142.3700 C   0  0  0  0  0  3  0  0  0  0  0  0
  193.8590  174.8550  142.0550 C   0  0  0  0  0  3  0  0  0  0  0  0
  195.9990  173.7300  142.1560 C   0  0  0  0  0  3  0  0  0  0  0  0
  192.9560  170.3940  139.3730 C   0  0  0  0  0  2  0  0  0  0  0  0
  192.2430  170.7980  136.7560 S   0  0  0  0  0  1  0  0  0  0  0  0
  191.9080  169.9950  138.3500 C   0  0  0  0  0  2  0  0  0  0  0  0
  191.0890  175.1510  145.6330 N   0  0  0  0  0  2  0  0  0  0  0  0
  194.3930  173.3940  145.5250 C   0  0  0  0  0  3  0  0  0  0  0  0
  195.2700  174.4620  145.7680 C   0  0  0  0  0  0  0  0  0  0  0  0
  193.3710  175.9640  145.9190 C   0  0  0  0  0  3  0  0  0  0  0  0
  193.0130  173.6120  145.4790 C   0  0  0  0  0  3  0  0  0  0  0  0
  192.4960  174.9010  145.6710 C   0  0  0  0  0  0  0  0  0  0  0  0
  194.7500  175.7460  145.9660 C   0  0  0  0  0  3  0  0  0  0  0  0
  196.6550  174.2780  145.8170 O   0  0  0  0  0  0  0  0  0  0  0  0
  197.2680  173.0130  145.6110 C   0  0  0  0  0  1  0  0  0  0  0  0
  1  6  1  0  0  0  0
  1  8  1  0  0  0  0
  2 12  1  1  0  0  0
  3 16  1  6  0  0  0
  3 10  1  0  0  0  0
  3 14  1  0  0  0  0
  4  8  2  0  0  0  0
  4 15  1  0  0  0  0
  5  1  2  0  0  0  0
  7  4  1  0  0  0  0
  9  5  1  0  0  0  0
  9  7  2  0  0  0  0
 11 10  1  6  0  0  0
 11  7  1  0  0  0  0
 11  2  1  0  0  0  0
 12 15  1  0  0  0  0
 13  2  1  0  0  0  0
 13 35  1  1  0  0  0
 14 13  1  0  0  0  0
 16 17  1  1  0  0  0
 18 16  1  0  0  0  0
 19 21  1  0  0  0  0
 19 18  1  0  0  0  0
 20 19  2  0  0  0  0
 21 22  1  0  0  0  0
 22 24  1  0  0  0  0
 23 26  1  0  0  0  0
 23 25  2  0  0  0  0
 24 23  1  0  0  0  0
 26 30  2  0  0  0  0
 26 31  1  0  0  0  0
 27 29  1  0  0  0  0
 28 29  2  0  0  0  0
 30 28  1  0  0  0  0
 31 27  2  0  0  0  0
 32 22  1  0  0  0  0
 33 34  1  0  0  0  0
 34 32  1  0  0  0  0
 35 40  1  0  0  0  0
 36 37  1  0  0  0  0
 37 42  1  0  0  0  0
 37 41  2  0  0  0  0
 38 41  1  0  0  0  0
 39 36  2  0  0  0  0
 39 40  1  0  0  0  0
 40 38  2  0  0  0  0
 43 42  1  0  0  0  0
M  END
>  <MODEL>
4

>  <REMARK>
 VINA RESULT:      -6.4      3.189      6.548
  Name = 
  11 active torsions:
  status: ('A' for Active; 'I' for Inactive)
    1  A    between atoms: N_1  and  C_34
    2  A    between atoms: N_1  and  C_35
    3  A    between atoms: C_2  and  N_6
    4  A    between atoms: C_2  and  C_13
    5  A    between atoms: C_3  and  N_4
    6  A    between atoms: C_3  and  C_12
    7  A    between atoms: N_4  and  C_15
    8  A    between atoms: N_4  and  N_22
    9  A    between atoms: C_11  and  C_14
   10  A    between atoms: C_15  and  C_42
   11  A    between atoms: C_19  and  O_25
                            x       y       z     vdW  Elec       q    Type
                         _______ _______ _______ _____ _____    ______ ____

>  <TORSDO>
F 11

$$$$
=
 OpenBabel11052420583D

 43 47  0  0  1  0  0  0  0  0999 V2000
  196.2050  175.4220  143.8580 C   0  0  0  0  0  0  0  0  0  0  0  0
  191.3350  175.9250  145.2260 N   0  0  2  0  0  0  0  0  0  0  0  0
  189.7120  175.6160  143.0080 C   0  0  2  0  0  3  0  0  0  0  0  0
  194.1560  175.8050  145.0930 C   0  0  0  0  0  0  0  0  0  0  0  0
  195.4780  174.8160  142.8320 C   0  0  0  0  0  3  0  0  0  0  0  0
  197.5520  175.5260  143.7610 F   0  0  0  0  0  0  0  0  0  0  0  0
  193.4090  175.2320  144.0420 C   0  0  0  0  0  0  0  0  0  0  0  0
  195.5460  175.9130  144.9870 C   0  0  0  0  0  3  0  0  0  0  0  0
  194.0870  174.7130  142.9270 C   0  0  0  0  0  3  0  0  0  0  0  0
  191.2080  175.3200  142.8350 C   0  0  0  0  0  2  0  0  0  0  0  0
  191.9090  175.0570  144.1770 C   0  0  2  0  0  3  0  0  0  0  0  0
  192.0910  175.7340  146.4610 C   0  0  0  0  0  2  0  0  0  0  0  0
  189.9350  175.5550  145.5190 C   0  0  2  0  0  3  0  0  0  0  0  0
  189.1700  175.0130  144.3000 C   0  0  0  0  0  2  0  0  0  0  0  0
  193.4740  176.3500  146.3100 C   0  0  0  0  0  2  0  0  0  0  0  0
  188.8870  175.1780  141.7970 C   0  0  2  0  0  3  0  0  0  0  0  0
  187.5280  174.6170  142.2070 C   0  0  0  0  0  1  0  0  0  0  0  0
  189.6280  174.1920  141.0230 N   0  0  0  0  0  2  0  0  0  0  0  0
  189.2740  173.8250  139.6880 C   0  0  0  0  0  0  0  0  0  0  0  0
  188.3120  174.3890  139.1010 O   0  0  0  0  0  0  0  0  0  0  0  0
  190.0390  172.7390  138.9840 C   0  0  0  0  0  2  0  0  0  0  0  0
  190.1380  171.4910  139.7530 N   0  0  0  0  0  0  0  0  0  0  0  0
  191.2470  171.3280  141.9640 C   0  0  0  0  0  0  0  0  0  0  0  0
  191.2950  171.5370  140.5500 N   0  0  0  0  0  2  0  0  0  0  0  0
  190.1360  171.1580  142.5360 O   0  0  0  0  0  0  0  0  0  0  0  0
  192.4920  171.3160  142.7500 C   0  0  0  0  0  0  0  0  0  0  0  0
  193.6440  171.5170  144.8820 C   0  0  0  0  0  3  0  0  0  0  0  0
  194.9080  171.0760  142.8650 C   0  0  0  0  0  3  0  0  0  0  0  0
  194.8670  171.2900  144.2460 C   0  0  0  0  0  3  0  0  0  0  0  0
  193.7250  171.0890  142.1200 C   0  0  0  0  0  3  0  0  0  0  0  0
  192.4610  171.5300  144.1370 C   0  0  0  0  0  3  0  0  0  0  0  0
  190.2670  170.3680  138.8290 C   0  0  0  0  0  2  0  0  0  0  0  0
  192.1780  170.3600  136.8630 S   0  0  0  0  0  1  0  0  0  0  0  0
  191.7310  170.0410  138.5940 C   0  0  0  0  0  2  0  0  0  0  0  0
  189.2230  176.7160  146.0400 N   0  0  0  0  0  2  0  0  0  0  0  0
  185.5000  177.0160  145.7860 C   0  0  0  0  0  3  0  0  0  0  0  0
  185.3780  177.8900  144.6940 C   0  0  0  0  0  0  0  0  0  0  0  0
  187.7950  177.9710  144.5110 C   0  0  0  0  0  3  0  0  0  0  0  0
  186.7630  176.6240  146.2360 C   0  0  0  0  0  3  0  0  0  0  0  0
  187.9180  177.1050  145.6020 C   0  0  0  0  0  0  0  0  0  0  0  0
  186.5320  178.3630  144.0610 C   0  0  0  0  0  3  0  0  0  0  0  0
  184.1280  178.3040  144.2220 O   0  0  0  0  0  0  0  0  0  0  0  0
  183.8140  178.3690  142.8380 C   0  0  0  0  0  1  0  0  0  0  0  0
  1  8  1  0  0  0  0
  2 13  1  0  0  0  0
  2 12  1  1  0  0  0
  3 16  1  6  0  0  0
  3 14  1  0  0  0  0
  4 15  1  0  0  0  0
  5  9  1  0  0  0  0
  5  1  2  0  0  0  0
  6  1  1  0  0  0  0
  7 11  1  0  0  0  0
  7  4  1  0  0  0  0
  8  4  2  0  0  0  0
  9  7  2  0  0  0  0
 10  3  1  0  0  0  0
 11 10  1  6  0  0  0
 11  2  1  0  0  0  0
 13 35  1  6  0  0  0
 14 13  1  0  0  0  0
 15 12  1  0  0  0  0
 16 17  1  1  0  0  0
 18 16  1  0  0  0  0
 19 18  1  0  0  0  0
 20 19  2  0  0  0  0
 21 19  1  0  0  0  0
 21 22  1  0  0  0  0
 22 24  1  0  0  0  0
 23 25  2  0  0  0  0
 23 26  1  0  0  0  0
 24 23  1  0  0  0  0
 26 31  1  0  0  0  0
 28 29  2  0  0  0  0
 29 27  1  0  0  0  0
 30 26  2  0  0  0  0
 30 28  1  0  0  0  0
 31 27  2  0  0  0  0
 32 22  1  0  0  0  0
 33 34  1  0  0  0  0
 34 32  1  0  0  0  0
 36 39  1  0  0  0  0
 37 36  2  0  0  0  0
 38 40  1  0  0  0  0
 40 35  1  0  0  0  0
 40 39  2  0  0  0  0
 41 38  2  0  0  0  0
 41 37  1  0  0  0  0
 42 37  1  0  0  0  0
 43 42  1  0  0  0  0
M  END
>  <MODEL>
5

>  <REMARK>
 VINA RESULT:      -6.3      1.995      2.719
  Name = 
  11 active torsions:
  status: ('A' for Active; 'I' for Inactive)
    1  A    between atoms: N_1  and  C_34
    2  A    between atoms: N_1  and  C_35
    3  A    between atoms: C_2  and  N_6
    4  A    between atoms: C_2  and  C_13
    5  A    between atoms: C_3  and  N_4
    6  A    between atoms: C_3  and  C_12
    7  A    between atoms: N_4  and  C_15
    8  A    between atoms: N_4  and  N_22
    9  A    between atoms: C_11  and  C_14
   10  A    between atoms: C_15  and  C_42
   11  A    between atoms: C_19  and  O_25
                            x       y       z     vdW  Elec       q    Type
                         _______ _______ _______ _____ _____    ______ ____

>  <TORSDO>
F 11

$$$$
=
 OpenBabel11052420583D

 43 47  0  0  1  0  0  0  0  0999 V2000
  189.2850  177.5800  144.7230 C   0  0  0  0  0  0  0  0  0  0  0  0
  194.0000  175.7660  145.2950 N   0  0  2  0  0  0  0  0  0  0  0  0
  195.0290  175.0630  142.8270 C   0  0  2  0  0  3  0  0  0  0  0  0
  191.3870  176.7920  145.6350 C   0  0  0  0  0  0  0  0  0  0  0  0
  189.8700  177.6890  143.4600 C   0  0  0  0  0  3  0  0  0  0  0  0
  187.9840  177.9140  144.8970 F   0  0  0  0  0  0  0  0  0  0  0  0
  191.9740  176.8590  144.3530 C   0  0  0  0  0  0  0  0  0  0  0  0
  190.0430  177.1350  145.8080 C   0  0  0  0  0  3  0  0  0  0  0  0
  191.2100  177.3390  143.2770 C   0  0  0  0  0  3  0  0  0  0  0  0
  193.6830  175.8000  142.8470 C   0  0  0  0  0  2  0  0  0  0  0  0
  193.4470  176.5460  144.1690 C   0  0  2  0  0  3  0  0  0  0  0  0
  193.6650  176.4440  146.5460 C   0  0  0  0  0  2  0  0  0  0  0  0
  195.4740  175.6990  145.2260 C   0  0  2  0  0  3  0  0  0  0  0  0
  196.0260  175.6970  143.7910 C   0  0  0  0  0  2  0  0  0  0  0  0
  192.1730  176.3070  146.8140 C   0  0  0  0  0  2  0  0  0  0  0  0
  195.6100  174.9470  141.4170 C   0  0  2  0  0  3  0  0  0  0  0  0
  196.6480  176.0300  141.1380 C   0  0  0  0  0  1  0  0  0  0  0  0
  194.5380  175.0090  140.4320 N   0  0  0  0  0  2  0  0  0  0  0  0
  194.3200  173.9900  139.4540 C   0  0  0  0  0  0  0  0  0  0  0  0
  195.0370  172.9540  139.4370 O   0  0  0  0  0  0  0  0  0  0  0  0
  193.2440  174.1660  138.4200 C   0  0  0  0  0  2  0  0  0  0  0  0
  192.0050  173.4370  138.7240 N   0  0  0  0  0  0  0  0  0  0  0  0
  190.5290  173.7840  140.6850 C   0  0  0  0  0  0  0  0  0  0  0  0
  191.7970  173.4520  140.1150 N   0  0  0  0  0  2  0  0  0  0  0  0
  189.5770  174.1380  139.9370 O   0  0  0  0  0  0  0  0  0  0  0  0
  190.3370  173.7200  142.1440 C   0  0  0  0  0  0  0  0  0  0  0  0
  191.1770  173.1790  144.3600 C   0  0  0  0  0  3  0  0  0  0  0  0
  188.9460  174.0820  144.1040 C   0  0  0  0  0  3  0  0  0  0  0  0
  189.9700  173.6010  144.9240 C   0  0  0  0  0  3  0  0  0  0  0  0
  189.1290  174.1410  142.7190 C   0  0  0  0  0  3  0  0  0  0  0  0
  191.3600  173.2380  142.9750 C   0  0  0  0  0  3  0  0  0  0  0  0
  192.1500  172.0470  138.3010 C   0  0  0  0  0  2  0  0  0  0  0  0
  189.6900  170.8370  138.2540 S   0  0  0  0  0  1  0  0  0  0  0  0
  191.0300  171.6640  137.3500 C   0  0  0  0  0  2  0  0  0  0  0  0
  195.9390  174.4960  145.9080 N   0  0  0  0  0  2  0  0  0  0  0  0
  196.4810  171.1500  144.3190 C   0  0  0  0  0  3  0  0  0  0  0  0
  195.2070  170.5780  144.4630 C   0  0  0  0  0  0  0  0  0  0  0  0
  194.4400  172.6040  145.5550 C   0  0  0  0  0  3  0  0  0  0  0  0
  196.7310  172.4400  144.7920 C   0  0  0  0  0  3  0  0  0  0  0  0
  195.7110  173.1720  145.4180 C   0  0  0  0  0  0  0  0  0  0  0  0
  194.1910  171.3130  145.0820 C   0  0  0  0  0  3  0  0  0  0  0  0
  194.9260  169.2880  144.0030 O   0  0  0  0  0  0  0  0  0  0  0  0
  193.6220  168.7250  144.0460 C   0  0  0  0  0  1  0  0  0  0  0  0
  1  6  1  0  0  0  0
  1  8  1  0  0  0  0
  2 12  1  1  0  0  0
  3 16  1  6  0  0  0
  3 10  1  0  0  0  0
  3 14  1  0  0  0  0
  4  8  2  0  0  0  0
  4 15  1  0  0  0  0
  5  1  2  0  0  0  0
  7  4  1  0  0  0  0
  9  5  1  0  0  0  0
  9  7  2  0  0  0  0
 11 10  1  6  0  0  0
 11  7  1  0  0  0  0
 11  2  1  0  0  0  0
 12 15  1  0  0  0  0
 13  2  1  0  0  0  0
 13 35  1  6  0  0  0
 14 13  1  0  0  0  0
 16 17  1  6  0  0  0
 18 16  1  0  0  0  0
 19 18  1  0  0  0  0
 20 19  2  0  0  0  0
 21 22  1  0  0  0  0
 21 19  1  0  0  0  0
 22 24  1  0  0  0  0
 23 26  1  0  0  0  0
 24 23  1  0  0  0  0
 25 23  2  0  0  0  0
 26 30  2  0  0  0  0
 26 31  1  0  0  0  0
 27 29  1  0  0  0  0
 28 29  2  0  0  0  0
 30 28  1  0  0  0  0
 31 27  2  0  0  0  0
 32 22  1  0  0  0  0
 34 33  1  0  0  0  0
 34 32  1  0  0  0  0
 36 37  2  0  0  0  0
 36 39  1  0  0  0  0
 37 41  1  0  0  0  0
 39 40  2  0  0  0  0
 40 38  1  0  0  0  0
 40 35  1  0  0  0  0
 41 38  2  0  0  0  0
 42 43  1  0  0  0  0
 42 37  1  0  0  0  0
M  END
>  <MODEL>
6

>  <REMARK>
 VINA RESULT:      -6.3      2.833      6.781
  Name = 
  11 active torsions:
  status: ('A' for Active; 'I' for Inactive)
    1  A    between atoms: N_1  and  C_34
    2  A    between atoms: N_1  and  C_35
    3  A    between atoms: C_2  and  N_6
    4  A    between atoms: C_2  and  C_13
    5  A    between atoms: C_3  and  N_4
    6  A    between atoms: C_3  and  C_12
    7  A    between atoms: N_4  and  C_15
    8  A    between atoms: N_4  and  N_22
    9  A    between atoms: C_11  and  C_14
   10  A    between atoms: C_15  and  C_42
   11  A    between atoms: C_19  and  O_25
                            x       y       z     vdW  Elec       q    Type
                         _______ _______ _______ _____ _____    ______ ____

>  <TORSDO>
F 11

$$$$
=
 OpenBabel11052420583D

 43 47  0  0  1  0  0  0  0  0999 V2000
  190.7780  170.5110  136.3530 C   0  0  0  0  0  0  0  0  0  0  0  0
  189.0690  173.5270  140.0720 N   0  0  2  0  0  0  0  0  0  0  0  0
  190.2640  172.8200  142.4630 C   0  0  2  0  0  3  0  0  0  0  0  0
  189.5770  172.1750  137.6410 C   0  0  0  0  0  0  0  0  0  0  0  0
  191.7290  170.4050  137.3700 C   0  0  0  0  0  3  0  0  0  0  0  0
  190.9000  169.7610  135.2330 F   0  0  0  0  0  0  0  0  0  0  0  0
  190.5110  172.0430  138.6920 C   0  0  0  0  0  0  0  0  0  0  0  0
  189.7070  171.3960  136.4880 C   0  0  0  0  0  3  0  0  0  0  0  0
  191.6010  171.1740  138.5300 C   0  0  0  0  0  3  0  0  0  0  0  0
  190.7840  172.1450  141.1870 C   0  0  0  0  0  2  0  0  0  0  0  0
  190.4110  172.9290  139.9190 C   0  0  2  0  0  3  0  0  0  0  0  0
  188.6950  174.1720  138.8150 C   0  0  0  0  0  2  0  0  0  0  0  0
  189.0670  174.5780  141.1090 C   0  0  2  0  0  3  0  0  0  0  0  0
  190.0570  174.3170  142.2560 C   0  0  0  0  0  2  0  0  0  0  0  0
  188.4120  173.1080  137.7640 C   0  0  0  0  0  2  0  0  0  0  0  0
  191.1540  172.5410  143.6750 C   0  0  2  0  0  3  0  0  0  0  0  0
  190.4830  172.9550  144.9810 C   0  0  0  0  0  1  0  0  0  0  0  0
  192.4290  173.2280  143.5220 N   0  0  0  0  0  2  0  0  0  0  0  0
  193.6110  172.8420  144.2280 C   0  0  0  0  0  0  0  0  0  0  0  0
  193.6030  171.8400  144.9920 O   0  0  0  0  0  0  0  0  0  0  0  0
  194.8680  173.6520  144.0790 C   0  0  0  0  0  2  0  0  0  0  0  0
  194.8030  174.9700  144.7260 N   0  0  0  0  0  0  0  0  0  0  0  0
  192.9140  176.1080  145.8580 C   0  0  0  0  0  0  0  0  0  0  0  0
  193.4660  175.4050  144.7410 N   0  0  0  0  0  2  0  0  0  0  0  0
  193.6130  176.2940  146.8910 O   0  0  0  0  0  0  0  0  0  0  0  0
  191.5290  176.6060  145.8020 C   0  0  0  0  0  0  0  0  0  0  0  0
  189.6930  177.5990  144.5570 C   0  0  0  0  0  3  0  0  0  0  0  0
  189.4000  177.0350  146.8930 C   0  0  0  0  0  3  0  0  0  0  0  0
  188.8890  177.5520  145.6990 C   0  0  0  0  0  3  0  0  0  0  0  0
  190.7150  176.5630  146.9440 C   0  0  0  0  0  3  0  0  0  0  0  0
  191.0080  177.1280  144.6090 C   0  0  0  0  0  3  0  0  0  0  0  0
  195.5840  175.9260  143.9450 C   0  0  0  0  0  2  0  0  0  0  0  0
  196.1600  176.3890  141.3050 S   0  0  0  0  0  1  0  0  0  0  0  0
  194.9120  176.1930  142.6100 C   0  0  0  0  0  2  0  0  0  0  0  0
  187.7260  174.7090  141.6680 N   0  0  0  0  0  2  0  0  0  0  0  0
  185.8050  177.1880  143.7140 C   0  0  0  0  0  3  0  0  0  0  0  0
  186.1570  178.3880  143.0760 C   0  0  0  0  0  0  0  0  0  0  0  0
  187.5360  177.1360  141.5200 C   0  0  0  0  0  3  0  0  0  0  0  0
  186.3180  175.9710  143.2560 C   0  0  0  0  0  3  0  0  0  0  0  0
  187.1910  175.9410  142.1590 C   0  0  0  0  0  0  0  0  0  0  0  0
  187.0230  178.3530  141.9780 C   0  0  0  0  0  3  0  0  0  0  0  0
  185.6640  179.6220  143.5110 O   0  0  0  0  0  0  0  0  0  0  0  0
  185.0520  179.7990  144.7810 C   0  0  0  0  0  1  0  0  0  0  0  0
  1  8  2  0  0  0  0
  1  5  1  0  0  0  0
  2 12  1  6  0  0  0
  2 13  1  0  0  0  0
  3 16  1  1  0  0  0
  4 15  1  0  0  0  0
  4  7  2  0  0  0  0
  5  9  2  0  0  0  0
  6  1  1  0  0  0  0
  7 11  1  0  0  0  0
  8  4  1  0  0  0  0
  9  7  1  0  0  0  0
 10  3  1  0  0  0  0
 11  2  1  0  0  0  0
 11 10  1  1  0  0  0
 13 35  1  1  0  0  0
 13 14  1  0  0  0  0
 14  3  1  0  0  0  0
 15 12  1  0  0  0  0
 16 17  1  1  0  0  0
 18 16  1  0  0  0  0
 18 19  1  0  0  0  0
 19 20  2  0  0  0  0
 21 19  1  0  0  0  0
 21 22  1  0  0  0  0
 22 24  1  0  0  0  0
 23 25  2  0  0  0  0
 24 23  1  0  0  0  0
 26 23  1  0  0  0  0
 26 30  1  0  0  0  0
 27 31  1  0  0  0  0
 27 29  2  0  0  0  0
 28 30  2  0  0  0  0
 29 28  1  0  0  0  0
 31 26  2  0  0  0  0
 32 22  1  0  0  0  0
 33 34  1  0  0  0  0
 34 32  1  0  0  0  0
 35 40  1  0  0  0  0
 37 42  1  0  0  0  0
 37 36  2  0  0  0  0
 38 41  2  0  0  0  0
 38 40  1  0  0  0  0
 39 36  1  0  0  0  0
 40 39  2  0  0  0  0
 41 37  1  0  0  0  0
 42 43  1  0  0  0  0
M  END
>  <MODEL>
7

>  <REMARK>
 VINA RESULT:      -6.2      3.093      6.576
  Name = 
  11 active torsions:
  status: ('A' for Active; 'I' for Inactive)
    1  A    between atoms: N_1  and  C_34
    2  A    between atoms: N_1  and  C_35
    3  A    between atoms: C_2  and  N_6
    4  A    between atoms: C_2  and  C_13
    5  A    between atoms: C_3  and  N_4
    6  A    between atoms: C_3  and  C_12
    7  A    between atoms: N_4  and  C_15
    8  A    between atoms: N_4  and  N_22
    9  A    between atoms: C_11  and  C_14
   10  A    between atoms: C_15  and  C_42
   11  A    between atoms: C_19  and  O_25
                            x       y       z     vdW  Elec       q    Type
                         _______ _______ _______ _____ _____    ______ ____

>  <TORSDO>
F 11

$$$$
=
 OpenBabel11052420583D

 43 47  0  0  1  0  0  0  0  0999 V2000
  196.4090  173.7590  145.6910 C   0  0  0  0  0  0  0  0  0  0  0  0
  191.6340  175.4050  145.1120 N   0  0  2  0  0  0  0  0  0  0  0  0
  190.4150  174.0090  143.0600 C   0  0  2  0  0  3  0  0  0  0  0  0
  194.3220  174.9750  145.8770 C   0  0  0  0  0  0  0  0  0  0  0  0
  195.7560  172.7370  144.9990 C   0  0  0  0  0  3  0  0  0  0  0  0
  197.7360  173.6640  145.9430 F   0  0  0  0  0  0  0  0  0  0  0  0
  193.6630  173.9660  145.1410 C   0  0  0  0  0  0  0  0  0  0  0  0
  195.6920  174.8740  146.1310 C   0  0  0  0  0  3  0  0  0  0  0  0
  194.3880  172.8360  144.7330 C   0  0  0  0  0  3  0  0  0  0  0  0
  191.8020  173.5330  143.5110 C   0  0  0  0  0  2  0  0  0  0  0  0
  192.1650  174.0410  144.9150 C   0  0  2  0  0  3  0  0  0  0  0  0
  192.0860  175.9030  146.4090 C   0  0  0  0  0  2  0  0  0  0  0  0
  190.1580  175.4050  145.1440 C   0  0  2  0  0  3  0  0  0  0  0  0
  189.5200  174.3260  144.2540 C   0  0  0  0  0  2  0  0  0  0  0  0
  193.5810  176.1870  146.3510 C   0  0  0  0  0  2  0  0  0  0  0  0
  189.7420  173.0240  142.1030 C   0  0  2  0  0  3  0  0  0  0  0  0
  188.5890  172.2790  142.7690 C   0  0  0  0  0  1  0  0  0  0  0  0
  190.7260  172.0790  141.5920 N   0  0  0  0  0  2  0  0  0  0  0  0
  190.9780  171.8960  140.1980 C   0  0  0  0  0  0  0  0  0  0  0  0
  190.3770  172.5950  139.3400 O   0  0  0  0  0  0  0  0  0  0  0  0
  191.9510  170.8420  139.7470 C   0  0  0  0  0  2  0  0  0  0  0  0
  193.2490  171.3790  139.3150 N   0  0  0  0  0  0  0  0  0  0  0  0
  194.9050  172.7910  140.5020 C   0  0  0  0  0  0  0  0  0  0  0  0
  193.5620  172.5010  140.1030 N   0  0  0  0  0  2  0  0  0  0  0  0
  195.8350  171.9950  140.2030 O   0  0  0  0  0  0  0  0  0  0  0  0
  195.1970  174.0150  141.2680 C   0  0  0  0  0  0  0  0  0  0  0  0
  194.4680  176.1210  142.2380 C   0  0  0  0  0  3  0  0  0  0  0  0
  196.7660  175.4060  142.4960 C   0  0  0  0  0  3  0  0  0  0  0  0
  195.7570  176.3430  142.7310 C   0  0  0  0  0  3  0  0  0  0  0  0
  196.4880  174.2460  141.7670 C   0  0  0  0  0  3  0  0  0  0  0  0
  194.1900  174.9610  141.5090 C   0  0  0  0  0  3  0  0  0  0  0  0
  193.1490  171.8140  137.9240 C   0  0  0  0  0  2  0  0  0  0  0  0
  194.1100  169.5200  136.7700 S   0  0  0  0  0  1  0  0  0  0  0  0
  192.7200  170.6580  137.0380 C   0  0  0  0  0  2  0  0  0  0  0  0
  189.6610  176.7110  144.7260 N   0  0  0  0  0  2  0  0  0  0  0  0
  186.7670  177.6940  146.8870 C   0  0  0  0  0  3  0  0  0  0  0  0
  185.9410  178.3360  145.9510 C   0  0  0  0  0  0  0  0  0  0  0  0
  187.5860  177.8910  144.2230 C   0  0  0  0  0  3  0  0  0  0  0  0
  187.9940  177.1560  146.4920 C   0  0  0  0  0  3  0  0  0  0  0  0
  188.4120  177.2570  145.1570 C   0  0  0  0  0  0  0  0  0  0  0  0
  186.3590  178.4290  144.6190 C   0  0  0  0  0  3  0  0  0  0  0  0
  184.7090  178.8880  146.3150 O   0  0  0  0  0  0  0  0  0  0  0  0
  183.6360  179.0410  145.3970 C   0  0  0  0  0  1  0  0  0  0  0  0
  1  6  1  0  0  0  0
  1  8  1  0  0  0  0
  2 13  1  0  0  0  0
  2 12  1  1  0  0  0
  3 16  1  1  0  0  0
  3 10  1  0  0  0  0
  3 14  1  0  0  0  0
  4  8  2  0  0  0  0
  4 15  1  0  0  0  0
  5  1  2  0  0  0  0
  7  4  1  0  0  0  0
  9  5  1  0  0  0  0
  9  7  2  0  0  0  0
 11 10  1  6  0  0  0
 11  2  1  0  0  0  0
 11  7  1  0  0  0  0
 13 35  1  6  0  0  0
 14 13  1  0  0  0  0
 15 12  1  0  0  0  0
 16 17  1  1  0  0  0
 18 16  1  0  0  0  0
 19 18  1  0  0  0  0
 20 19  2  0  0  0  0
 21 19  1  0  0  0  0
 22 21  1  0  0  0  0
 22 24  1  0  0  0  0
 23 26  1  0  0  0  0
 24 23  1  0  0  0  0
 25 23  2  0  0  0  0
 26 31  2  0  0  0  0
 26 30  1  0  0  0  0
 27 29  2  0  0  0  0
 28 29  1  0  0  0  0
 30 28  2  0  0  0  0
 31 27  1  0  0  0  0
 32 22  1  0  0  0  0
 33 34  1  0  0  0  0
 34 32  1  0  0  0  0
 35 40  1  0  0  0  0
 37 42  1  0  0  0  0
 37 36  2  0  0  0  0
 38 41  2  0  0  0  0
 38 40  1  0  0  0  0
 39 36  1  0  0  0  0
 40 39  2  0  0  0  0
 41 37  1  0  0  0  0
 43 42  1  0  0  0  0
M  END
>  <MODEL>
8

>  <REMARK>
 VINA RESULT:      -6.2      1.905      2.269
  Name = 
  11 active torsions:
  status: ('A' for Active; 'I' for Inactive)
    1  A    between atoms: N_1  and  C_34
    2  A    between atoms: N_1  and  C_35
    3  A    between atoms: C_2  and  N_6
    4  A    between atoms: C_2  and  C_13
    5  A    between atoms: C_3  and  N_4
    6  A    between atoms: C_3  and  C_12
    7  A    between atoms: N_4  and  C_15
    8  A    between atoms: N_4  and  N_22
    9  A    between atoms: C_11  and  C_14
   10  A    between atoms: C_15  and  C_42
   11  A    between atoms: C_19  and  O_25
                            x       y       z     vdW  Elec       q    Type
                         _______ _______ _______ _____ _____    ______ ____

>  <TORSDO>
F 11

$$$$
=
 OpenBabel11052420583D

 43 47  0  0  1  0  0  0  0  0999 V2000
  191.1700  176.4790  148.0680 C   0  0  0  0  0  0  0  0  0  0  0  0
  188.1470  176.5950  143.9820 N   0  0  2  0  0  0  0  0  0  0  0  0
  189.1860  174.9550  142.0130 C   0  0  2  0  0  3  0  0  0  0  0  0
  189.4130  176.9880  146.4800 C   0  0  0  0  0  0  0  0  0  0  0  0
  191.4930  175.3280  147.3470 C   0  0  0  0  0  3  0  0  0  0  0  0
  191.8600  176.7900  149.1910 F   0  0  0  0  0  0  0  0  0  0  0  0
  189.7610  175.8490  145.7220 C   0  0  0  0  0  0  0  0  0  0  0  0
  190.1310  177.3060  147.6360 C   0  0  0  0  0  3  0  0  0  0  0  0
  190.7860  175.0090  146.1850 C   0  0  0  0  0  3  0  0  0  0  0  0
  189.8580  174.9160  143.3930 C   0  0  0  0  0  2  0  0  0  0  0  0
  188.9480  175.4660  144.5000 C   0  0  2  0  0  3  0  0  0  0  0  0
  187.3740  177.1680  145.0820 C   0  0  0  0  0  2  0  0  0  0  0  0
  187.1750  176.1400  142.9680 C   0  0  2  0  0  3  0  0  0  0  0  0
  187.6650  174.9440  142.1340 C   0  0  0  0  0  2  0  0  0  0  0  0
  188.3100  177.8990  146.0340 C   0  0  0  0  0  2  0  0  0  0  0  0
  189.6810  173.8410  141.0900 C   0  0  2  0  0  3  0  0  0  0  0  0
  189.3390  172.4570  141.6330 C   0  0  0  0  0  1  0  0  0  0  0  0
  191.1200  173.9640  140.8920 N   0  0  0  0  0  2  0  0  0  0  0  0
  191.7990  173.4150  139.7610 C   0  0  0  0  0  0  0  0  0  0  0  0
  191.1570  172.8300  138.8490 O   0  0  0  0  0  0  0  0  0  0  0  0
  193.2960  173.5130  139.6700 C   0  0  0  0  0  2  0  0  0  0  0  0
  194.0000  172.9190  140.8150 N   0  0  0  0  0  0  0  0  0  0  0  0
  193.6480  173.7760  143.1140 C   0  0  0  0  0  0  0  0  0  0  0  0
  194.1880  173.9080  141.7970 N   0  0  0  0  0  2  0  0  0  0  0  0
  192.9260  172.7830  143.4010 O   0  0  0  0  0  0  0  0  0  0  0  0
  193.9290  174.8040  144.1320 C   0  0  0  0  0  0  0  0  0  0  0  0
  193.7130  177.0860  144.9410 C   0  0  0  0  0  3  0  0  0  0  0  0
  194.9460  175.4570  146.2400 C   0  0  0  0  0  3  0  0  0  0  0  0
  194.4620  176.7580  146.0740 C   0  0  0  0  0  3  0  0  0  0  0  0
  194.6800  174.4840  145.2730 C   0  0  0  0  0  3  0  0  0  0  0  0
  193.4470  176.1120  143.9740 C   0  0  0  0  0  3  0  0  0  0  0  0
  195.3140  172.4530  140.3820 C   0  0  0  0  0  2  0  0  0  0  0  0
  197.7020  173.8010  140.3900 S   0  0  0  0  0  1  0  0  0  0  0  0
  196.3920  172.9570  141.3240 C   0  0  0  0  0  2  0  0  0  0  0  0
  186.8600  177.2420  142.0660 N   0  0  0  0  0  2  0  0  0  0  0  0
  183.2920  178.2910  142.4920 C   0  0  0  0  0  3  0  0  0  0  0  0
  182.9160  178.5020  141.1560 C   0  0  0  0  0  0  0  0  0  0  0  0
  185.1500  177.8760  140.4470 C   0  0  0  0  0  3  0  0  0  0  0  0
  184.5890  177.8750  142.8000 C   0  0  0  0  0  3  0  0  0  0  0  0
  185.5270  177.6710  141.7780 C   0  0  0  0  0  0  0  0  0  0  0  0
  183.8520  178.2920  140.1380 C   0  0  0  0  0  3  0  0  0  0  0  0
  181.6260  178.9220  140.8140 O   0  0  0  0  0  0  0  0  0  0  0  0
  180.4570  178.3390  141.3720 C   0  0  0  0  0  1  0  0  0  0  0  0
  1  6  1  0  0  0  0
  2 11  1  0  0  0  0
  2 12  1  1  0  0  0
  3 16  1  6  0  0  0
  3 14  1  0  0  0  0
  3 10  1  0  0  0  0
  4  8  2  0  0  0  0
  5  1  2  0  0  0  0
  7  9  2  0  0  0  0
  7  4  1  0  0  0  0
  8  1  1  0  0  0  0
  9  5  1  0  0  0  0
 11 10  1  6  0  0  0
 11  7  1  0  0  0  0
 12 15  1  0  0  0  0
 13 35  1  6  0  0  0
 13  2  1  0  0  0  0
 14 13  1  0  0  0  0
 15  4  1  0  0  0  0
 16 17  1  1  0  0  0
 18 16  1  0  0  0  0
 19 18  1  0  0  0  0
 20 19  2  0  0  0  0
 21 19  1  0  0  0  0
 21 22  1  0  0  0  0
 22 24  1  0  0  0  0
 23 25  2  0  0  0  0
 23 26  1  0  0  0  0
 24 23  1  0  0  0  0
 26 30  1  0  0  0  0
 27 29  2  0  0  0  0
 29 28  1  0  0  0  0
 30 28  2  0  0  0  0
 31 26  2  0  0  0  0
 31 27  1  0  0  0  0
 32 22  1  0  0  0  0
 32 34  1  0  0  0  0
 33 34  1  0  0  0  0
 36 39  1  0  0  0  0
 37 36  2  0  0  0  0
 38 40  1  0  0  0  0
 40 35  1  0  0  0  0
 40 39  2  0  0  0  0
 41 38  2  0  0  0  0
 41 37  1  0  0  0  0
 42 37  1  0  0  0  0
 42 43  1  0  0  0  0
M  END
>  <MODEL>
9

>  <REMARK>
 VINA RESULT:      -6.2      2.516      4.246
  Name = 
  11 active torsions:
  status: ('A' for Active; 'I' for Inactive)
    1  A    between atoms: N_1  and  C_34
    2  A    between atoms: N_1  and  C_35
    3  A    between atoms: C_2  and  N_6
    4  A    between atoms: C_2  and  C_13
    5  A    between atoms: C_3  and  N_4
    6  A    between atoms: C_3  and  C_12
    7  A    between atoms: N_4  and  C_15
    8  A    between atoms: N_4  and  N_22
    9  A    between atoms: C_11  and  C_14
   10  A    between atoms: C_15  and  C_42
   11  A    between atoms: C_19  and  O_25
                            x       y       z     vdW  Elec       q    Type
                         _______ _______ _______ _____ _____    ______ ____

>  <TORSDO>
F 11

$$$$
