=
 OpenBabel11052417393D

 31 35  0  0  0  0  0  0  0  0999 V2000
  191.1590  175.9990  147.5500 C   0  0  0  0  0  0  0  0  0  0  0  0
  188.5800  176.0360  144.7960 C   0  0  0  0  0  0  0  0  0  0  0  0
  187.4760  176.8300  145.2680 C   0  0  0  0  0  0  0  0  0  0  0  0
  191.5240  173.0600  141.5850 O   0  0  0  0  0  0  0  0  0  0  0  0
  190.4340  173.3160  141.0070 C   0  0  0  0  0  0  0  0  0  0  0  0
  186.3420  177.5380  147.4220 C   0  0  0  0  0  2  0  0  0  0  0  0
  189.7750  175.7870  145.5440 C   0  0  0  0  0  0  0  0  0  0  0  0
  192.1640  175.2400  146.9550 C   0  0  0  0  0  3  0  0  0  0  0  0
  187.5900  177.6120  146.5590 C   0  0  0  0  0  2  0  0  0  0  0  0
  189.5440  174.6880  142.9780 C   0  0  0  0  0  0  0  0  0  0  0  0
  191.3250  176.4790  148.8060 F   0  0  0  0  0  0  0  0  0  0  0  0
  186.2720  176.3710  143.1950 C   0  0  0  0  0  3  0  0  0  0  0  0
  185.4050  178.7040  147.1100 C   0  0  0  0  0  2  0  0  0  0  0  0
  190.6620  174.4940  143.7190 N   0  0  0  0  0  0  0  0  0  0  0  0
  188.4850  175.4520  143.4980 C   0  0  0  0  0  0  0  0  0  0  0  0
  189.4390  174.1140  141.6650 N   0  0  0  0  0  2  0  0  0  0  0  0
  189.9810  176.2650  146.8500 C   0  0  0  0  0  3  0  0  0  0  0  0
  185.2680  178.9710  145.6120 C   0  0  0  0  0  2  0  0  0  0  0  0
  190.8070  175.0070  144.9620 C   0  0  0  0  0  0  0  0  0  0  0  0
  191.9860  174.7440  145.6640 C   0  0  0  0  0  3  0  0  0  0  0  0
  187.3390  175.6290  142.7250 C   0  0  0  0  0  3  0  0  0  0  0  0
  186.3210  176.9830  144.4410 C   0  0  0  0  0  0  0  0  0  0  0  0
  185.0440  177.6730  144.8540 C   0  0  0  0  0  2  0  0  0  0  0  0
  189.6450  171.9080  137.0260 C   0  0  0  0  0  0  0  0  0  0  0  0
  189.8650  173.7110  138.6210 C   0  0  0  0  0  3  0  0  0  0  0  0
  190.4950  170.4660  140.3050 O   0  0  0  0  0  1  0  0  0  0  0  0
  189.3710  171.4390  135.6440 C   0  0  0  0  0  1  0  0  0  0  0  0
  189.6070  173.2710  137.3220 C   0  0  0  0  0  3  0  0  0  0  0  0
  190.2040  171.4180  139.3360 C   0  0  0  0  0  0  0  0  0  0  0  0
  190.1670  172.7970  139.6450 C   0  0  0  0  0  0  0  0  0  0  0  0
  189.9430  170.9850  138.0310 C   0  0  0  0  0  3  0  0  0  0  0  0
  1 11  1  0  0  0  0
  2  3  1  0  0  0  0
  2  7  1  0  0  0  0
  3  9  1  0  0  0  0
  5  4  2  0  0  0  0
  5 16  1  0  0  0  0
  7 17  1  0  0  0  0
  8  1  1  0  0  0  0
  9  6  1  0  0  0  0
 10 15  1  0  0  0  0
 10 14  2  0  0  0  0
 12 22  1  0  0  0  0
 13  6  1  0  0  0  0
 14 19  1  0  0  0  0
 15  2  2  0  0  0  0
 16 10  1  0  0  0  0
 17  1  2  0  0  0  0
 18 13  1  0  0  0  0
 19  7  2  0  0  0  0
 19 20  1  0  0  0  0
 20  8  2  0  0  0  0
 21 12  2  0  0  0  0
 21 15  1  0  0  0  0
 22 23  1  0  0  0  0
 22  3  2  0  0  0  0
 23 18  1  0  0  0  0
 24 28  2  0  0  0  0
 24 31  1  0  0  0  0
 25 30  2  0  0  0  0
 27 24  1  0  0  0  0
 28 25  1  0  0  0  0
 29 30  1  0  0  0  0
 29 26  1  0  0  0  0
 30  5  1  0  0  0  0
 31 29  2  0  0  0  0
M  END
>  <MODEL>
1

>  <REMARK>
 VINA RESULT:      -9.7      0.000      0.000
  Name = 
  1 active torsions:
  status: ('A' for Active; 'I' for Inactive)
    1  A    between atoms: C_9  and  C_22
                            x       y       z     vdW  Elec       q    Type
                         _______ _______ _______ _____ _____    ______ ____

>  <TORSDO>
F 1

$$$$
=
 OpenBabel11052417393D

 31 35  0  0  0  0  0  0  0  0999 V2000
  185.0200  178.5280  146.8920 C   0  0  0  0  0  0  0  0  0  0  0  0
  187.3240  177.3470  144.1460 C   0  0  0  0  0  0  0  0  0  0  0  0
  186.6270  177.5450  142.9020 C   0  0  0  0  0  0  0  0  0  0  0  0
  191.1650  176.0400  147.5190 O   0  0  0  0  0  0  0  0  0  0  0  0
  191.5450  175.7590  146.3510 C   0  0  0  0  0  0  0  0  0  0  0  0
  184.2770  177.6670  141.9620 C   0  0  0  0  0  2  0  0  0  0  0  0
  186.7940  177.6850  145.4330 C   0  0  0  0  0  0  0  0  0  0  0  0
  185.8180  178.3140  148.0130 C   0  0  0  0  0  3  0  0  0  0  0  0
  185.3170  178.3020  142.8690 C   0  0  0  0  0  2  0  0  0  0  0  0
  189.3640  176.5810  145.2890 C   0  0  0  0  0  0  0  0  0  0  0  0
  183.7740  179.0410  147.0350 F   0  0  0  0  0  0  0  0  0  0  0  0
  188.5140  176.5650  141.7030 C   0  0  0  0  0  3  0  0  0  0  0  0
  184.3520  178.2660  140.5590 C   0  0  0  0  0  2  0  0  0  0  0  0
  188.8240  176.9310  146.4820 N   0  0  0  0  0  0  0  0  0  0  0  0
  188.6300  176.7740  144.1070 C   0  0  0  0  0  0  0  0  0  0  0  0
  190.6820  176.0130  145.2320 N   0  0  0  0  0  2  0  0  0  0  0  0
  185.5040  178.2140  145.6210 C   0  0  0  0  0  3  0  0  0  0  0  0
  185.7870  178.4260  140.0580 C   0  0  0  0  0  2  0  0  0  0  0  0
  187.5850  177.4640  146.5890 C   0  0  0  0  0  0  0  0  0  0  0  0
  187.0980  177.7810  147.8600 C   0  0  0  0  0  3  0  0  0  0  0  0
  189.1990  176.3950  142.8920 C   0  0  0  0  0  3  0  0  0  0  0  0
  187.2500  177.1410  141.6820 C   0  0  0  0  0  0  0  0  0  0  0  0
  186.5930  177.1660  140.3240 C   0  0  0  0  0  2  0  0  0  0  0  0
  195.3750  173.9460  145.6470 C   0  0  0  0  0  0  0  0  0  0  0  0
  192.9600  173.8510  145.6250 C   0  0  0  0  0  3  0  0  0  0  0  0
  194.0700  177.1660  146.8660 O   0  0  0  0  0  1  0  0  0  0  0  0
  196.6910  173.3040  145.3960 C   0  0  0  0  0  1  0  0  0  0  0  0
  194.1960  173.2460  145.3890 C   0  0  0  0  0  3  0  0  0  0  0  0
  194.0820  175.8650  146.3760 C   0  0  0  0  0  0  0  0  0  0  0  0
  192.8820  175.1640  146.1190 C   0  0  0  0  0  0  0  0  0  0  0  0
  195.3160  175.2520  146.1380 C   0  0  0  0  0  3  0  0  0  0  0  0
  1 11  1  0  0  0  0
  1  8  1  0  0  0  0
  2  7  1  0  0  0  0
  3  2  2  0  0  0  0
  5  4  2  0  0  0  0
  6  9  1  0  0  0  0
  7 17  1  0  0  0  0
  7 19  2  0  0  0  0
  9  3  1  0  0  0  0
 10 14  2  0  0  0  0
 12 21  1  0  0  0  0
 13  6  1  0  0  0  0
 14 19  1  0  0  0  0
 15  2  1  0  0  0  0
 15 10  1  0  0  0  0
 16 10  1  0  0  0  0
 16  5  1  0  0  0  0
 17  1  2  0  0  0  0
 18 23  1  0  0  0  0
 18 13  1  0  0  0  0
 19 20  1  0  0  0  0
 20  8  2  0  0  0  0
 21 15  2  0  0  0  0
 22 12  2  0  0  0  0
 22  3  1  0  0  0  0
 23 22  1  0  0  0  0
 24 31  1  0  0  0  0
 25 30  2  0  0  0  0
 27 24  1  0  0  0  0
 28 25  1  0  0  0  0
 28 24  2  0  0  0  0
 29 26  1  0  0  0  0
 30  5  1  0  0  0  0
 30 29  1  0  0  0  0
 31 29  2  0  0  0  0
M  END
>  <MODEL>
2

>  <REMARK>
 VINA RESULT:      -9.6      4.091      6.541
  Name = 
  1 active torsions:
  status: ('A' for Active; 'I' for Inactive)
    1  A    between atoms: C_9  and  C_22
                            x       y       z     vdW  Elec       q    Type
                         _______ _______ _______ _____ _____    ______ ____

>  <TORSDO>
F 1

$$$$
=
 OpenBabel11052417393D

 31 35  0  0  0  0  0  0  0  0999 V2000
  185.8860  177.5410  140.6680 C   0  0  0  0  0  0  0  0  0  0  0  0
  187.2980  176.6570  144.0550 C   0  0  0  0  0  0  0  0  0  0  0  0
  186.4470  177.2770  145.0360 C   0  0  0  0  0  0  0  0  0  0  0  0
  191.2330  173.8040  142.0050 O   0  0  0  0  0  0  0  0  0  0  0  0
  191.3460  173.7970  143.2600 C   0  0  0  0  0  0  0  0  0  0  0  0
  184.8920  179.2570  145.3220 C   0  0  0  0  0  2  0  0  0  0  0  0
  187.0940  176.7410  142.6390 C   0  0  0  0  0  0  0  0  0  0  0  0
  186.7700  176.8620  139.8320 C   0  0  0  0  0  3  0  0  0  0  0  0
  185.1490  177.9350  144.6210 C   0  0  0  0  0  2  0  0  0  0  0  0
  189.2740  175.2640  143.5960 C   0  0  0  0  0  0  0  0  0  0  0  0
  184.8680  178.2590  140.1380 F   0  0  0  0  0  0  0  0  0  0  0  0
  187.8930  176.4270  146.8100 C   0  0  0  0  0  3  0  0  0  0  0  0
  184.0670  179.0410  146.5890 C   0  0  0  0  0  2  0  0  0  0  0  0
  189.0300  175.3600  142.2670 N   0  0  0  0  0  0  0  0  0  0  0  0
  188.4240  175.9100  144.5100 C   0  0  0  0  0  0  0  0  0  0  0  0
  190.3980  174.5060  144.0710 N   0  0  0  0  0  2  0  0  0  0  0  0
  186.0510  177.4800  142.0530 C   0  0  0  0  0  3  0  0  0  0  0  0
  184.5370  177.8370  147.4050 C   0  0  0  0  0  2  0  0  0  0  0  0
  187.9890  176.0670  141.7690 C   0  0  0  0  0  0  0  0  0  0  0  0
  187.8200  176.1280  140.3830 C   0  0  0  0  0  3  0  0  0  0  0  0
  188.7000  175.8090  145.8730 C   0  0  0  0  0  3  0  0  0  0  0  0
  186.7700  177.1470  146.4220 C   0  0  0  0  0  0  0  0  0  0  0  0
  186.0500  177.8440  147.5490 C   0  0  0  0  0  2  0  0  0  0  0  0
  194.5110  171.5740  145.1270 C   0  0  0  0  0  0  0  0  0  0  0  0
  192.3800  171.6600  143.9900 C   0  0  0  0  0  3  0  0  0  0  0  0
  193.7160  175.0960  144.4070 O   0  0  0  0  0  1  0  0  0  0  0  0
  195.5970  170.7890  145.7680 C   0  0  0  0  0  1  0  0  0  0  0  0
  193.4000  170.9210  144.5920 C   0  0  0  0  0  3  0  0  0  0  0  0
  193.5850  173.7130  144.4540 C   0  0  0  0  0  0  0  0  0  0  0  0
  192.4550  173.0610  143.9100 C   0  0  0  0  0  0  0  0  0  0  0  0
  194.6020  172.9660  145.0570 C   0  0  0  0  0  3  0  0  0  0  0  0
  1 17  1  0  0  0  0
  2 15  2  0  0  0  0
  2  3  1  0  0  0  0
  3 22  2  0  0  0  0
  4  5  2  0  0  0  0
  5 30  1  0  0  0  0
  5 16  1  0  0  0  0
  6 13  1  0  0  0  0
  7  2  1  0  0  0  0
  8 20  1  0  0  0  0
  8  1  2  0  0  0  0
  9  3  1  0  0  0  0
  9  6  1  0  0  0  0
 10 16  1  0  0  0  0
 10 15  1  0  0  0  0
 11  1  1  0  0  0  0
 13 18  1  0  0  0  0
 14 10  2  0  0  0  0
 15 21  1  0  0  0  0
 17  7  2  0  0  0  0
 18 23  1  0  0  0  0
 19 14  1  0  0  0  0
 19  7  1  0  0  0  0
 20 19  2  0  0  0  0
 21 12  2  0  0  0  0
 22 12  1  0  0  0  0
 22 23  1  0  0  0  0
 24 27  1  0  0  0  0
 25 28  1  0  0  0  0
 26 29  1  0  0  0  0
 28 24  2  0  0  0  0
 29 31  2  0  0  0  0
 30 25  2  0  0  0  0
 30 29  1  0  0  0  0
 31 24  1  0  0  0  0
M  END
>  <MODEL>
3

>  <REMARK>
 VINA RESULT:      -8.9      3.468      5.758
  Name = 
  1 active torsions:
  status: ('A' for Active; 'I' for Inactive)
    1  A    between atoms: C_9  and  C_22
                            x       y       z     vdW  Elec       q    Type
                         _______ _______ _______ _____ _____    ______ ____

>  <TORSDO>
F 1

$$$$
=
 OpenBabel11052417393D

 31 35  0  0  0  0  0  0  0  0999 V2000
  185.4940  178.0340  140.5770 C   0  0  0  0  0  0  0  0  0  0  0  0
  187.4280  176.5730  143.4700 C   0  0  0  0  0  0  0  0  0  0  0  0
  186.8660  177.1320  144.6720 C   0  0  0  0  0  0  0  0  0  0  0  0
  190.5170  173.6690  140.3310 O   0  0  0  0  0  0  0  0  0  0  0  0
  190.8720  173.4820  141.5260 C   0  0  0  0  0  0  0  0  0  0  0  0
  185.6440  179.1920  145.5000 C   0  0  0  0  0  2  0  0  0  0  0  0
  186.9620  176.8660  142.1480 C   0  0  0  0  0  0  0  0  0  0  0  0
  186.1090  177.3950  139.5040 C   0  0  0  0  0  3  0  0  0  0  0  0
  185.6000  177.9580  144.6150 C   0  0  0  0  0  2  0  0  0  0  0  0
  189.0960  175.0770  142.4530 C   0  0  0  0  0  0  0  0  0  0  0  0
  184.4840  178.9090  140.3570 F   0  0  0  0  0  0  0  0  0  0  0  0
  188.5210  175.9200  145.9950 C   0  0  0  0  0  3  0  0  0  0  0  0
  185.0650  178.8840  146.8790 C   0  0  0  0  0  2  0  0  0  0  0  0
  188.6080  175.3740  141.2240 N   0  0  0  0  0  0  0  0  0  0  0  0
  188.5250  175.6700  143.5920 C   0  0  0  0  0  0  0  0  0  0  0  0
  190.1930  174.1610  142.5930 N   0  0  0  0  0  2  0  0  0  0  0  0
  185.9190  177.7710  141.8810 C   0  0  0  0  0  3  0  0  0  0  0  0
  185.5400  177.5430  147.4370 C   0  0  0  0  0  2  0  0  0  0  0  0
  187.5810  176.2350  141.0390 C   0  0  0  0  0  0  0  0  0  0  0  0
  187.1520  176.4990  139.7350 C   0  0  0  0  0  3  0  0  0  0  0  0
  189.0490  175.3610  144.8460 C   0  0  0  0  0  3  0  0  0  0  0  0
  187.4370  176.7860  145.9350 C   0  0  0  0  0  0  0  0  0  0  0  0
  187.0410  177.3900  147.2600 C   0  0  0  0  0  2  0  0  0  0  0  0
  194.1830  170.9030  142.4350 C   0  0  0  0  0  0  0  0  0  0  0  0
  193.2940  173.0870  141.9070 C   0  0  0  0  0  3  0  0  0  0  0  0
  190.5360  170.6090  142.0300 O   0  0  0  0  0  1  0  0  0  0  0  0
  195.3410  170.0260  142.7500 C   0  0  0  0  0  1  0  0  0  0  0  0
  194.3820  172.2640  142.2020 C   0  0  0  0  0  3  0  0  0  0  0  0
  191.8000  171.1850  142.0810 C   0  0  0  0  0  0  0  0  0  0  0  0
  191.9910  172.5650  141.8420 C   0  0  0  0  0  0  0  0  0  0  0  0
  192.8960  170.3670  142.3750 C   0  0  0  0  0  3  0  0  0  0  0  0
  1 17  1  0  0  0  0
  2 15  2  0  0  0  0
  2  3  1  0  0  0  0
  3 22  2  0  0  0  0
  4  5  2  0  0  0  0
  5 30  1  0  0  0  0
  5 16  1  0  0  0  0
  6 13  1  0  0  0  0
  7  2  1  0  0  0  0
  8 20  1  0  0  0  0
  8  1  2  0  0  0  0
  9  3  1  0  0  0  0
  9  6  1  0  0  0  0
 10 16  1  0  0  0  0
 10 15  1  0  0  0  0
 11  1  1  0  0  0  0
 13 18  1  0  0  0  0
 14 10  2  0  0  0  0
 15 21  1  0  0  0  0
 17  7  2  0  0  0  0
 19 14  1  0  0  0  0
 19  7  1  0  0  0  0
 20 19  2  0  0  0  0
 21 12  2  0  0  0  0
 22 12  1  0  0  0  0
 22 23  1  0  0  0  0
 23 18  1  0  0  0  0
 24 27  1  0  0  0  0
 25 28  1  0  0  0  0
 26 29  1  0  0  0  0
 28 24  2  0  0  0  0
 29 31  2  0  0  0  0
 30 25  2  0  0  0  0
 30 29  1  0  0  0  0
 31 24  1  0  0  0  0
M  END
>  <MODEL>
4

>  <REMARK>
 VINA RESULT:      -8.7      3.157      5.058
  Name = 
  1 active torsions:
  status: ('A' for Active; 'I' for Inactive)
    1  A    between atoms: C_9  and  C_22
                            x       y       z     vdW  Elec       q    Type
                         _______ _______ _______ _____ _____    ______ ____

>  <TORSDO>
F 1

$$$$
=
 OpenBabel11052417393D

 31 35  0  0  0  0  0  0  0  0999 V2000
  195.6850  173.6390  145.3840 C   0  0  0  0  0  0  0  0  0  0  0  0
  192.1940  172.9210  144.1440 C   0  0  0  0  0  0  0  0  0  0  0  0
  192.2600  171.6900  143.4000 C   0  0  0  0  0  0  0  0  0  0  0  0
  190.1770  177.2370  146.4080 O   0  0  0  0  0  0  0  0  0  0  0  0
  189.2540  176.6390  145.7930 C   0  0  0  0  0  0  0  0  0  0  0  0
  193.8840  170.3020  142.0360 C   0  0  0  0  0  2  0  0  0  0  0  0
  193.3130  173.5330  144.7950 C   0  0  0  0  0  0  0  0  0  0  0  0
  195.4710  174.8140  146.1000 C   0  0  0  0  0  3  0  0  0  0  0  0
  193.5250  170.8590  143.4030 C   0  0  0  0  0  2  0  0  0  0  0  0
  190.8090  174.7740  144.9800 C   0  0  0  0  0  0  0  0  0  0  0  0
  196.9290  173.1060  145.3130 F   0  0  0  0  0  0  0  0  0  0  0  0
  189.8840  171.8910  142.8790 C   0  0  0  0  0  3  0  0  0  0  0  0
  193.2860  168.9080  141.8510 C   0  0  0  0  0  2  0  0  0  0  0  0
  191.8950  175.3070  145.5910 N   0  0  0  0  0  0  0  0  0  0  0  0
  190.9350  173.5830  144.2440 C   0  0  0  0  0  0  0  0  0  0  0  0
  189.5320  175.4250  145.0810 N   0  0  0  0  0  2  0  0  0  0  0  0
  194.6180  173.0110  144.7390 C   0  0  0  0  0  3  0  0  0  0  0  0
  191.8430  168.8110  142.3470 C   0  0  0  0  0  2  0  0  0  0  0  0
  193.1200  174.7370  145.5200 C   0  0  0  0  0  0  0  0  0  0  0  0
  194.1900  175.3620  146.1660 C   0  0  0  0  0  3  0  0  0  0  0  0
  189.8080  173.0590  143.6130 C   0  0  0  0  0  3  0  0  0  0  0  0
  191.0800  171.1920  142.7690 C   0  0  0  0  0  0  0  0  0  0  0  0
  191.0260  169.9930  141.8540 C   0  0  0  0  0  2  0  0  0  0  0  0
  185.2450  178.1770  145.9040 C   0  0  0  0  0  0  0  0  0  0  0  0
  187.0970  177.0360  146.9580 C   0  0  0  0  0  3  0  0  0  0  0  0
  188.0310  178.0100  143.5030 O   0  0  0  0  0  1  0  0  0  0  0  0
  183.8570  178.7030  145.9600 C   0  0  0  0  0  1  0  0  0  0  0  0
  185.7920  177.5310  147.0130 C   0  0  0  0  0  3  0  0  0  0  0  0
  187.3120  177.8380  144.6790 C   0  0  0  0  0  0  0  0  0  0  0  0
  187.8750  177.1810  145.7980 C   0  0  0  0  0  0  0  0  0  0  0  0
  186.0040  178.3300  144.7410 C   0  0  0  0  0  3  0  0  0  0  0  0
  1  8  1  0  0  0  0
  2 15  1  0  0  0  0
  2  7  1  0  0  0  0
  3  9  1  0  0  0  0
  3  2  2  0  0  0  0
  5 30  1  0  0  0  0
  5  4  2  0  0  0  0
  6  9  1  0  0  0  0
  7 19  2  0  0  0  0
  8 20  2  0  0  0  0
 10 16  1  0  0  0  0
 10 14  2  0  0  0  0
 11  1  1  0  0  0  0
 12 21  1  0  0  0  0
 13  6  1  0  0  0  0
 13 18  1  0  0  0  0
 15 10  1  0  0  0  0
 16  5  1  0  0  0  0
 17  7  1  0  0  0  0
 17  1  2  0  0  0  0
 19 14  1  0  0  0  0
 19 20  1  0  0  0  0
 21 15  2  0  0  0  0
 22 12  2  0  0  0  0
 22  3  1  0  0  0  0
 23 18  1  0  0  0  0
 23 22  1  0  0  0  0
 24 27  1  0  0  0  0
 24 28  1  0  0  0  0
 25 28  2  0  0  0  0
 26 29  1  0  0  0  0
 29 31  1  0  0  0  0
 29 30  2  0  0  0  0
 30 25  1  0  0  0  0
 31 24  2  0  0  0  0
M  END
>  <MODEL>
5

>  <REMARK>
 VINA RESULT:      -8.6      3.608      8.039
  Name = 
  1 active torsions:
  status: ('A' for Active; 'I' for Inactive)
    1  A    between atoms: C_9  and  C_22
                            x       y       z     vdW  Elec       q    Type
                         _______ _______ _______ _____ _____    ______ ____

>  <TORSDO>
F 1

$$$$
=
 OpenBabel11052417393D

 31 35  0  0  0  0  0  0  0  0999 V2000
  186.3270  178.6580  143.6300 C   0  0  0  0  0  0  0  0  0  0  0  0
  188.9950  175.9890  143.5700 C   0  0  0  0  0  0  0  0  0  0  0  0
  189.6400  176.0150  144.8560 C   0  0  0  0  0  0  0  0  0  0  0  0
  187.8340  174.5150  138.6390 O   0  0  0  0  0  0  0  0  0  0  0  0
  188.7990  173.8160  139.0490 C   0  0  0  0  0  0  0  0  0  0  0  0
  190.1490  177.5970  146.7690 C   0  0  0  0  0  2  0  0  0  0  0  0
  187.9100  176.8450  143.1920 C   0  0  0  0  0  0  0  0  0  0  0  0
  185.7720  178.5010  142.3620 C   0  0  0  0  0  3  0  0  0  0  0  0
  189.0810  176.8630  145.9780 C   0  0  0  0  0  2  0  0  0  0  0  0
  188.8500  174.9690  141.3350 C   0  0  0  0  0  0  0  0  0  0  0  0
  185.8410  179.6030  144.4700 F   0  0  0  0  0  0  0  0  0  0  0  0
  191.1620  174.2570  144.1150 C   0  0  0  0  0  3  0  0  0  0  0  0
  190.5900  176.7680  147.9740 C   0  0  0  0  0  2  0  0  0  0  0  0
  187.8150  175.7910  141.0310 N   0  0  0  0  0  0  0  0  0  0  0  0
  189.4600  175.0550  142.5980 C   0  0  0  0  0  0  0  0  0  0  0  0
  189.3220  174.0160  140.3710 N   0  0  0  0  0  2  0  0  0  0  0  0
  187.3830  177.8400  144.0350 C   0  0  0  0  0  3  0  0  0  0  0  0
  190.7890  175.2910  147.6360 C   0  0  0  0  0  2  0  0  0  0  0  0
  187.3380  176.7100  141.9010 C   0  0  0  0  0  0  0  0  0  0  0  0
  186.2790  177.5290  141.4990 C   0  0  0  0  0  3  0  0  0  0  0  0
  190.5300  174.2090  142.8870 C   0  0  0  0  0  3  0  0  0  0  0  0
  190.7340  175.1310  145.1060 C   0  0  0  0  0  0  0  0  0  0  0  0
  191.5850  175.1360  146.3520 C   0  0  0  0  0  2  0  0  0  0  0  0
  190.5230  170.7540  136.5800 C   0  0  0  0  0  0  0  0  0  0  0  0
  189.3160  171.4370  138.5590 C   0  0  0  0  0  3  0  0  0  0  0  0
  190.1890  174.4200  136.5340 O   0  0  0  0  0  1  0  0  0  0  0  0
  191.1130  169.6820  135.7370 C   0  0  0  0  0  1  0  0  0  0  0  0
  189.8700  170.4280  137.7680 C   0  0  0  0  0  3  0  0  0  0  0  0
  190.0680  173.1050  136.9680 C   0  0  0  0  0  0  0  0  0  0  0  0
  189.4050  172.7850  138.1740 C   0  0  0  0  0  0  0  0  0  0  0  0
  190.6210  172.0890  136.1810 C   0  0  0  0  0  3  0  0  0  0  0  0
  1 17  1  0  0  0  0
  1 11  1  0  0  0  0
  2  3  1  0  0  0  0
  3 22  2  0  0  0  0
  3  9  1  0  0  0  0
  4  5  2  0  0  0  0
  5 16  1  0  0  0  0
  6 13  1  0  0  0  0
  7  2  1  0  0  0  0
  7 17  2  0  0  0  0
  8  1  2  0  0  0  0
  9  6  1  0  0  0  0
 10 15  1  0  0  0  0
 12 22  1  0  0  0  0
 14 10  2  0  0  0  0
 14 19  1  0  0  0  0
 15 21  1  0  0  0  0
 15  2  2  0  0  0  0
 16 10  1  0  0  0  0
 18 13  1  0  0  0  0
 19  7  1  0  0  0  0
 20 19  2  0  0  0  0
 20  8  1  0  0  0  0
 21 12  2  0  0  0  0
 22 23  1  0  0  0  0
 23 18  1  0  0  0  0
 24 28  1  0  0  0  0
 26 29  1  0  0  0  0
 27 24  1  0  0  0  0
 28 25  2  0  0  0  0
 29 30  2  0  0  0  0
 30 25  1  0  0  0  0
 30  5  1  0  0  0  0
 31 24  2  0  0  0  0
 31 29  1  0  0  0  0
M  END
>  <MODEL>
6

>  <REMARK>
 VINA RESULT:      -8.5      2.475      4.511
  Name = 
  1 active torsions:
  status: ('A' for Active; 'I' for Inactive)
    1  A    between atoms: C_9  and  C_22
                            x       y       z     vdW  Elec       q    Type
                         _______ _______ _______ _____ _____    ______ ____

>  <TORSDO>
F 1

$$$$
=
 OpenBabel11052417393D

 31 35  0  0  0  0  0  0  0  0999 V2000
  187.8670  175.4610  140.4600 C   0  0  0  0  0  0  0  0  0  0  0  0
  189.0810  175.1110  144.0160 C   0  0  0  0  0  0  0  0  0  0  0  0
  188.2780  175.9940  144.8210 C   0  0  0  0  0  0  0  0  0  0  0  0
  192.7310  171.5230  142.7360 O   0  0  0  0  0  0  0  0  0  0  0  0
  192.8080  171.7490  143.9730 C   0  0  0  0  0  0  0  0  0  0  0  0
  186.9440  178.1420  144.6500 C   0  0  0  0  0  2  0  0  0  0  0  0
  188.9260  174.9390  142.6030 C   0  0  0  0  0  0  0  0  0  0  0  0
  188.6920  174.5460  139.8110 C   0  0  0  0  0  3  0  0  0  0  0  0
  187.0720  176.6890  144.2260 C   0  0  0  0  0  2  0  0  0  0  0  0
  190.9030  173.4590  143.9260 C   0  0  0  0  0  0  0  0  0  0  0  0
  186.9490  176.1640  139.7550 F   0  0  0  0  0  0  0  0  0  0  0  0
  189.5730  175.3600  146.7900 C   0  0  0  0  0  3  0  0  0  0  0  0
  186.0660  178.2620  145.8940 C   0  0  0  0  0  2  0  0  0  0  0  0
  190.7060  173.3200  142.5920 N   0  0  0  0  0  0  0  0  0  0  0  0
  190.1050  174.3540  144.6590 C   0  0  0  0  0  0  0  0  0  0  0  0
  191.9230  172.6960  144.5890 N   0  0  0  0  0  2  0  0  0  0  0  0
  187.9870  175.6540  141.8370 C   0  0  0  0  0  3  0  0  0  0  0  0
  186.3790  177.1980  146.9460 C   0  0  0  0  0  2  0  0  0  0  0  0
  189.7640  174.0200  141.9200 C   0  0  0  0  0  0  0  0  0  0  0  0
  189.6400  173.8290  140.5410 C   0  0  0  0  0  3  0  0  0  0  0  0
  190.3320  174.4920  146.0270 C   0  0  0  0  0  3  0  0  0  0  0  0
  188.5470  176.1030  146.2190 C   0  0  0  0  0  0  0  0  0  0  0  0
  187.8790  177.0760  147.1580 C   0  0  0  0  0  2  0  0  0  0  0  0
  195.7680  169.7910  146.3930 C   0  0  0  0  0  0  0  0  0  0  0  0
  194.8900  171.7750  145.3270 C   0  0  0  0  0  3  0  0  0  0  0  0
  192.6830  168.8840  144.6000 O   0  0  0  0  0  1  0  0  0  0  0  0
  196.8000  169.1310  147.2330 C   0  0  0  0  0  1  0  0  0  0  0  0
  195.8610  171.1560  146.1170 C   0  0  0  0  0  3  0  0  0  0  0  0
  193.7250  169.6610  145.0900 C   0  0  0  0  0  0  0  0  0  0  0  0
  193.8110  171.0430  144.8040 C   0  0  0  0  0  0  0  0  0  0  0  0
  194.7020  169.0480  145.8810 C   0  0  0  0  0  3  0  0  0  0  0  0
  1 17  1  0  0  0  0
  2 15  2  0  0  0  0
  2  3  1  0  0  0  0
  3 22  2  0  0  0  0
  4  5  2  0  0  0  0
  5 16  1  0  0  0  0
  5 30  1  0  0  0  0
  6 13  1  0  0  0  0
  7  2  1  0  0  0  0
  8  1  2  0  0  0  0
  8 20  1  0  0  0  0
  9  6  1  0  0  0  0
  9  3  1  0  0  0  0
 10 16  1  0  0  0  0
 10 15  1  0  0  0  0
 11  1  1  0  0  0  0
 13 18  1  0  0  0  0
 14 10  2  0  0  0  0
 15 21  1  0  0  0  0
 17  7  2  0  0  0  0
 18 23  1  0  0  0  0
 19 14  1  0  0  0  0
 19  7  1  0  0  0  0
 20 19  2  0  0  0  0
 21 12  2  0  0  0  0
 22 12  1  0  0  0  0
 22 23  1  0  0  0  0
 24 27  1  0  0  0  0
 25 28  2  0  0  0  0
 26 29  1  0  0  0  0
 28 24  1  0  0  0  0
 29 31  1  0  0  0  0
 30 29  2  0  0  0  0
 30 25  1  0  0  0  0
 31 24  2  0  0  0  0
M  END
>  <MODEL>
7

>  <REMARK>
 VINA RESULT:      -8.4      3.635      6.170
  Name = 
  1 active torsions:
  status: ('A' for Active; 'I' for Inactive)
    1  A    between atoms: C_9  and  C_22
                            x       y       z     vdW  Elec       q    Type
                         _______ _______ _______ _____ _____    ______ ____

>  <TORSDO>
F 1

$$$$
=
 OpenBabel11052417393D

 31 35  0  0  0  0  0  0  0  0999 V2000
  192.5030  169.7280  142.3940 C   0  0  0  0  0  0  0  0  0  0  0  0
  192.6880  173.1220  144.0340 C   0  0  0  0  0  0  0  0  0  0  0  0
  193.9870  173.2190  144.6460 C   0  0  0  0  0  0  0  0  0  0  0  0
  187.8330  174.4750  142.4750 O   0  0  0  0  0  0  0  0  0  0  0  0
  188.3140  175.4210  143.1540 C   0  0  0  0  0  0  0  0  0  0  0  0
  195.8080  171.7620  145.6400 C   0  0  0  0  0  2  0  0  0  0  0  0
  192.2260  171.9860  143.2930 C   0  0  0  0  0  0  0  0  0  0  0  0
  191.2330  169.7820  141.8250 C   0  0  0  0  0  3  0  0  0  0  0  0
  195.0360  172.1590  144.3920 C   0  0  0  0  0  2  0  0  0  0  0  0
  190.5210  174.1910  143.5710 C   0  0  0  0  0  0  0  0  0  0  0  0
  193.2660  168.6190  142.2440 F   0  0  0  0  0  0  0  0  0  0  0  0
  193.4040  175.4270  145.5070 C   0  0  0  0  0  3  0  0  0  0  0  0
  197.0750  172.6040  145.7770 C   0  0  0  0  0  2  0  0  0  0  0  0
  190.1360  173.0990  142.8670 N   0  0  0  0  0  0  0  0  0  0  0  0
  191.7920  174.2230  144.1690 C   0  0  0  0  0  0  0  0  0  0  0  0
  189.6340  175.3120  143.7070 N   0  0  0  0  0  2  0  0  0  0  0  0
  192.9880  170.8170  143.1200 C   0  0  0  0  0  3  0  0  0  0  0  0
  196.8390  174.0840  145.4790 C   0  0  0  0  0  2  0  0  0  0  0  0
  190.9320  172.0160  142.7150 C   0  0  0  0  0  0  0  0  0  0  0  0
  190.4490  170.9240  141.9870 C   0  0  0  0  0  3  0  0  0  0  0  0
  192.1640  175.3510  144.9000 C   0  0  0  0  0  3  0  0  0  0  0  0
  194.3240  174.3940  145.3860 C   0  0  0  0  0  0  0  0  0  0  0  0
  195.5900  174.5820  146.1860 C   0  0  0  0  0  2  0  0  0  0  0  0
  186.0170  178.9650  143.9380 C   0  0  0  0  0  0  0  0  0  0  0  0
  187.0510  176.9130  144.6870 C   0  0  0  0  0  3  0  0  0  0  0  0
  187.6700  177.3740  141.0580 O   0  0  0  0  0  1  0  0  0  0  0  0
  185.2220  180.1860  144.2270 C   0  0  0  0  0  1  0  0  0  0  0  0
  186.3040  178.0600  144.9600 C   0  0  0  0  0  3  0  0  0  0  0  0
  187.2300  177.5760  142.3610 C   0  0  0  0  0  0  0  0  0  0  0  0
  187.5250  176.6530  143.3900 C   0  0  0  0  0  0  0  0  0  0  0  0
  186.4800  178.7230  142.6430 C   0  0  0  0  0  3  0  0  0  0  0  0
  1 17  1  0  0  0  0
  2 15  2  0  0  0  0
  2  3  1  0  0  0  0
  3 22  2  0  0  0  0
  4  5  2  0  0  0  0
  5 30  1  0  0  0  0
  5 16  1  0  0  0  0
  6 13  1  0  0  0  0
  7  2  1  0  0  0  0
  8 20  1  0  0  0  0
  8  1  2  0  0  0  0
  9  3  1  0  0  0  0
  9  6  1  0  0  0  0
 10 16  1  0  0  0  0
 10 15  1  0  0  0  0
 11  1  1  0  0  0  0
 14 10  2  0  0  0  0
 15 21  1  0  0  0  0
 17  7  2  0  0  0  0
 18 13  1  0  0  0  0
 18 23  1  0  0  0  0
 19 14  1  0  0  0  0
 19  7  1  0  0  0  0
 20 19  2  0  0  0  0
 21 12  2  0  0  0  0
 22 12  1  0  0  0  0
 22 23  1  0  0  0  0
 24 27  1  0  0  0  0
 24 28  1  0  0  0  0
 25 28  2  0  0  0  0
 26 29  1  0  0  0  0
 29 31  1  0  0  0  0
 29 30  2  0  0  0  0
 30 25  1  0  0  0  0
 31 24  2  0  0  0  0
M  END
>  <MODEL>
8

>  <REMARK>
 VINA RESULT:      -8.3      3.518      8.003
  Name = 
  1 active torsions:
  status: ('A' for Active; 'I' for Inactive)
    1  A    between atoms: C_9  and  C_22
                            x       y       z     vdW  Elec       q    Type
                         _______ _______ _______ _____ _____    ______ ____

>  <TORSDO>
F 1

$$$$
=
 OpenBabel11052417393D

 31 35  0  0  0  0  0  0  0  0999 V2000
  191.8610  176.3970  147.0040 C   0  0  0  0  0  0  0  0  0  0  0  0
  189.4440  175.4740  144.2560 C   0  0  0  0  0  0  0  0  0  0  0  0
  188.3020  176.3390  144.3960 C   0  0  0  0  0  0  0  0  0  0  0  0
  192.6160  171.7350  142.3100 O   0  0  0  0  0  0  0  0  0  0  0  0
  191.5580  171.7570  141.6270 C   0  0  0  0  0  0  0  0  0  0  0  0
  187.0350  177.6540  146.1530 C   0  0  0  0  0  2  0  0  0  0  0  0
  190.5990  175.5150  145.1030 C   0  0  0  0  0  0  0  0  0  0  0  0
  192.9110  175.5230  146.7330 C   0  0  0  0  0  3  0  0  0  0  0  0
  188.3300  177.4930  145.3760 C   0  0  0  0  0  2  0  0  0  0  0  0
  190.5340  173.6520  143.0120 C   0  0  0  0  0  0  0  0  0  0  0  0
  191.9460  177.2560  148.0490 F   0  0  0  0  0  0  0  0  0  0  0  0
  187.2290  175.2070  142.5200 C   0  0  0  0  0  3  0  0  0  0  0  0
  186.1000  178.6290  145.4410 C   0  0  0  0  0  2  0  0  0  0  0  0
  191.6100  173.7400  143.8310 N   0  0  0  0  0  0  0  0  0  0  0  0
  189.4350  174.5060  143.2100 C   0  0  0  0  0  0  0  0  0  0  0  0
  190.5140  172.6890  141.9470 N   0  0  0  0  0  2  0  0  0  0  0  0
  190.7210  176.3890  146.1990 C   0  0  0  0  0  3  0  0  0  0  0  0
  186.0450  178.4030  143.9310 C   0  0  0  0  0  2  0  0  0  0  0  0
  191.6750  174.6250  144.8520 C   0  0  0  0  0  0  0  0  0  0  0  0
  192.8150  174.6380  145.6600 C   0  0  0  0  0  3  0  0  0  0  0  0
  188.3330  174.3900  142.3640 C   0  0  0  0  0  3  0  0  0  0  0  0
  187.1950  176.1840  143.5070 C   0  0  0  0  0  0  0  0  0  0  0  0
  185.8860  176.9250  143.6150 C   0  0  0  0  0  2  0  0  0  0  0  0
  191.0700  169.1280  138.2660 C   0  0  0  0  0  0  0  0  0  0  0  0
  191.6750  171.2770  139.1930 C   0  0  0  0  0  3  0  0  0  0  0  0
  190.6100  168.9930  141.9160 O   0  0  0  0  0  1  0  0  0  0  0  0
  190.9070  168.2320  137.0920 C   0  0  0  0  0  1  0  0  0  0  0  0
  191.5230  170.4360  138.0890 C   0  0  0  0  0  3  0  0  0  0  0  0
  190.9200  169.4980  140.6590 C   0  0  0  0  0  0  0  0  0  0  0  0
  191.3780  170.8250  140.4900 C   0  0  0  0  0  0  0  0  0  0  0  0
  190.7700  168.6620  139.5480 C   0  0  0  0  0  3  0  0  0  0  0  0
  1 11  1  0  0  0  0
  2  3  1  0  0  0  0
  2  7  1  0  0  0  0
  3  9  1  0  0  0  0
  5 16  1  0  0  0  0
  5  4  2  0  0  0  0
  7 17  1  0  0  0  0
  8  1  1  0  0  0  0
  9  6  1  0  0  0  0
 10 15  1  0  0  0  0
 10 14  2  0  0  0  0
 12 22  1  0  0  0  0
 13  6  1  0  0  0  0
 14 19  1  0  0  0  0
 15  2  2  0  0  0  0
 16 10  1  0  0  0  0
 17  1  2  0  0  0  0
 18 13  1  0  0  0  0
 19  7  2  0  0  0  0
 19 20  1  0  0  0  0
 20  8  2  0  0  0  0
 21 12  2  0  0  0  0
 21 15  1  0  0  0  0
 22 23  1  0  0  0  0
 22  3  2  0  0  0  0
 23 18  1  0  0  0  0
 24 31  1  0  0  0  0
 25 30  2  0  0  0  0
 27 24  1  0  0  0  0
 28 24  2  0  0  0  0
 28 25  1  0  0  0  0
 29 26  1  0  0  0  0
 30 29  1  0  0  0  0
 30  5  1  0  0  0  0
 31 29  2  0  0  0  0
M  END
>  <MODEL>
9

>  <REMARK>
 VINA RESULT:      -8.3      1.672      1.972
  Name = 
  1 active torsions:
  status: ('A' for Active; 'I' for Inactive)
    1  A    between atoms: C_9  and  C_22
                            x       y       z     vdW  Elec       q    Type
                         _______ _______ _______ _____ _____    ______ ____

>  <TORSDO>
F 1

$$$$
