=
 OpenBabel11052417203D

 30 34  0  0  1  0  0  0  0  0999 V2000
  191.5540  175.4440  143.4510 C   0  0  2  0  0  3  0  0  0  0  0  0
  191.1800  175.8000  147.7970 C   0  0  0  0  0  2  0  0  0  0  0  0
  190.4110  174.6800  144.1500 C   0  0  2  0  0  3  0  0  0  0  0  0
  191.7460  175.0620  141.9750 C   0  0  0  0  0  2  0  0  0  0  0  0
  187.1860  176.1160  142.4710 C   0  0  0  0  0  0  0  0  0  0  0  0
  189.4060  174.1480  141.8640 C   0  0  0  0  0  2  0  0  0  0  0  0
  188.2160  176.5670  144.7020 C   0  0  2  0  0  3  0  0  0  0  0  0
  189.2520  177.1250  146.9290 C   0  0  0  0  0  2  0  0  0  0  0  0
  190.8850  173.8680  141.5700 C   0  0  1  0  0  3  0  0  0  0  0  0
  189.1300  174.6720  143.2910 C   0  0  2  0  0  3  0  0  0  0  0  0
  187.4950  177.9200  144.6590 C   0  0  0  0  0  2  0  0  0  0  0  0
  185.9160  176.5480  143.1420 C   0  0  0  0  0  2  0  0  0  0  0  0
  191.4480  175.2180  146.4020 C   0  0  1  0  0  3  0  0  0  0  0  0
  192.8540  175.3600  144.2570 C   0  0  1  0  0  3  0  0  0  0  0  0
  190.1570  175.2340  145.5570 C   0  0  1  0  0  3  0  0  0  0  0  0
  190.5570  177.1900  147.7110 C   0  0  0  0  0  2  0  0  0  0  0  0
  189.5170  176.6350  145.5040 C   0  0  1  0  0  3  0  0  0  0  0  0
  186.1380  177.8450  143.9330 C   0  0  0  0  0  2  0  0  0  0  0  0
  187.1780  175.8640  141.2770 O   0  0  0  0  0  0  0  0  0  0  0  0
  192.6230  175.9170  145.6840 C   0  0  2  0  0  3  0  0  0  0  0  0
  188.4760  176.0710  143.2650 C   0  0  1  0  0  3  0  0  0  0  0  0
  190.7460  171.2850  140.3500 O   0  0  0  0  0  0  0  0  0  0  0  0
  191.0690  173.5930  140.1530 N   0  0  0  0  0  2  0  0  0  0  0  0
  191.1500  172.0750  138.1450 C   0  0  0  0  0  1  0  0  0  0  0  0
  190.9740  172.2770  139.6060 C   0  0  0  0  0  0  0  0  0  0  0  0
  193.5340  173.9740  144.1450 C   0  0  0  0  0  3  0  0  0  0  0  0
  193.4450  173.1190  145.3990 C   0  0  0  0  0  1  0  0  0  0  0  0
  194.9710  174.0890  143.6780 C   0  0  0  0  0  1  0  0  0  0  0  0
  194.5650  177.0530  146.6810 C   0  0  0  0  0  2  0  0  0  0  0  0
  193.8720  175.9280  146.5150 C   0  0  0  0  0  3  0  0  0  0  0  0
  1  4  1  6  0  0  0
  1  3  1  0  0  0  0
  1 14  1  0  0  0  0
  3 15  1  0  0  0  0
  5 12  1  0  0  0  0
  5 21  1  0  0  0  0
  6 10  1  0  0  0  0
  7 17  1  0  0  0  0
  8 16  1  0  0  0  0
  9  6  1  0  0  0  0
  9  4  1  0  0  0  0
 10  3  1  0  0  0  0
 11  7  1  0  0  0  0
 12 18  1  0  0  0  0
 13  2  1  0  0  0  0
 14 20  1  0  0  0  0
 15 13  1  0  0  0  0
 16  2  1  0  0  0  0
 17 15  1  0  0  0  0
 17  8  1  0  0  0  0
 18 11  1  0  0  0  0
 19  5  2  0  0  0  0
 20 13  1  0  0  0  0
 20 30  1  0  0  0  0
 21 10  1  0  0  0  0
 21  7  1  0  0  0  0
 23  9  1  0  0  0  0
 24 25  1  0  0  0  0
 25 23  1  0  0  0  0
 25 22  2  0  0  0  0
 26 14  1  0  0  0  0
 26 27  1  0  0  0  0
 28 26  1  0  0  0  0
 30 29  2  0  0  0  0
M  END
>  <MODEL>
1

>  <REMARK>
 VINA RESULT:      -7.6      0.000      0.000
  Name = 
  3 active torsions:
  status: ('A' for Active; 'I' for Inactive)
    1  A    between atoms: C_2  and  C_22
    2  A    between atoms: N_9  and  C_12
    3  A    between atoms: C_28  and  C_29
                            x       y       z     vdW  Elec       q    Type
                         _______ _______ _______ _____ _____    ______ ____

>  <TORSDO>
F 3

$$$$
=
 OpenBabel11052417203D

 30 34  0  0  1  0  0  0  0  0999 V2000
  188.4800  177.4030  144.4140 C   0  0  2  0  0  3  0  0  0  0  0  0
  184.8460  177.3590  146.8520 C   0  0  0  0  0  2  0  0  0  0  0  0
  187.3850  176.3730  144.0720 C   0  0  2  0  0  3  0  0  0  0  0  0
  189.8030  177.1770  143.6660 C   0  0  0  0  0  2  0  0  0  0  0  0
  186.4340  177.2330  140.3800 C   0  0  0  0  0  0  0  0  0  0  0  0
  188.6250  175.8120  141.9120 C   0  0  0  0  0  2  0  0  0  0  0  0
  185.2670  177.7230  142.5330 C   0  0  2  0  0  3  0  0  0  0  0  0
  184.0860  178.3200  144.6770 C   0  0  0  0  0  2  0  0  0  0  0  0
  189.8080  175.8640  142.8860 C   0  0  1  0  0  3  0  0  0  0  0  0
  187.2620  176.1640  142.5490 C   0  0  2  0  0  3  0  0  0  0  0  0
  184.6070  178.8990  141.8030 C   0  0  0  0  0  2  0  0  0  0  0  0
  185.0610  177.3460  139.7880 C   0  0  0  0  0  2  0  0  0  0  0  0
  186.1890  176.9480  146.2360 C   0  0  1  0  0  3  0  0  0  0  0  0
  188.6720  177.5290  145.9290 C   0  0  1  0  0  3  0  0  0  0  0  0
  186.0450  176.7590  144.7110 C   0  0  1  0  0  3  0  0  0  0  0  0
  184.2720  178.5940  146.1640 C   0  0  0  0  0  2  0  0  0  0  0  0
  185.4340  177.9980  144.0290 C   0  0  1  0  0  3  0  0  0  0  0  0
  184.3480  178.6000  140.3140 C   0  0  0  0  0  2  0  0  0  0  0  0
  187.3930  177.0720  139.6440 O   0  0  0  0  0  0  0  0  0  0  0  0
  187.3310  177.9220  146.5970 C   0  0  2  0  0  3  0  0  0  0  0  0
  186.6220  177.3970  141.8750 C   0  0  1  0  0  3  0  0  0  0  0  0
  192.1870  174.6250  143.8810 O   0  0  0  0  0  0  0  0  0  0  0  0
  191.0610  175.7350  142.1580 N   0  0  0  0  0  2  0  0  0  0  0  0
  193.4490  174.9760  141.8970 C   0  0  0  0  0  1  0  0  0  0  0  0
  192.2110  175.0920  142.7110 C   0  0  0  0  0  0  0  0  0  0  0  0
  189.4320  176.3250  146.5340 C   0  0  0  0  0  3  0  0  0  0  0  0
  188.5480  175.2940  147.2190 C   0  0  0  0  0  1  0  0  0  0  0  0
  190.5470  176.7700  147.4600 C   0  0  0  0  0  1  0  0  0  0  0  0
  187.2000  179.3190  148.6180 C   0  0  0  0  0  2  0  0  0  0  0  0
  187.4550  178.1300  148.0770 C   0  0  0  0  0  3  0  0  0  0  0  0
  1  4  1  6  0  0  0
  1 14  1  0  0  0  0
  3  1  1  0  0  0  0
  3 15  1  0  0  0  0
  5 21  1  0  0  0  0
  6 10  1  0  0  0  0
  6  9  1  0  0  0  0
  7 17  1  0  0  0  0
  8 16  1  0  0  0  0
  9  4  1  0  0  0  0
 10  3  1  0  0  0  0
 11  7  1  0  0  0  0
 12 18  1  0  0  0  0
 12  5  1  0  0  0  0
 13 20  1  0  0  0  0
 13  2  1  0  0  0  0
 14 26  1  0  0  0  0
 14 20  1  0  0  0  0
 15 13  1  0  0  0  0
 16  2  1  0  0  0  0
 17  8  1  0  0  0  0
 17 15  1  0  0  0  0
 18 11  1  0  0  0  0
 19  5  2  0  0  0  0
 20 30  1  0  0  0  0
 21  7  1  0  0  0  0
 21 10  1  0  0  0  0
 23 25  1  0  0  0  0
 23  9  1  0  0  0  0
 24 25  1  0  0  0  0
 25 22  2  0  0  0  0
 26 27  1  0  0  0  0
 26 28  1  0  0  0  0
 30 29  2  0  0  0  0
M  END
>  <MODEL>
2

>  <REMARK>
 VINA RESULT:      -7.4      2.464      4.749
  Name = 
  3 active torsions:
  status: ('A' for Active; 'I' for Inactive)
    1  A    between atoms: C_2  and  C_22
    2  A    between atoms: N_9  and  C_12
    3  A    between atoms: C_28  and  C_29
                            x       y       z     vdW  Elec       q    Type
                         _______ _______ _______ _____ _____    ______ ____

>  <TORSDO>
F 3

$$$$
=
 OpenBabel11052417203D

 30 34  0  0  1  0  0  0  0  0999 V2000
  190.0680  175.8450  143.3090 C   0  0  2  0  0  3  0  0  0  0  0  0
  190.7600  175.7750  147.6300 C   0  0  0  0  0  2  0  0  0  0  0  0
  188.9930  175.2050  144.2090 C   0  0  2  0  0  3  0  0  0  0  0  0
  189.8480  175.6030  141.8080 C   0  0  0  0  0  2  0  0  0  0  0  0
  185.7920  177.3220  143.4650 C   0  0  0  0  0  0  0  0  0  0  0  0
  187.4160  175.0990  142.2040 C   0  0  0  0  0  2  0  0  0  0  0  0
  187.3650  177.3500  145.4050 C   0  0  2  0  0  3  0  0  0  0  0  0
  188.9630  177.4840  147.3480 C   0  0  0  0  0  2  0  0  0  0  0  0
  188.7130  174.6170  141.5420 C   0  0  1  0  0  3  0  0  0  0  0  0
  187.5710  175.5000  143.6880 C   0  0  2  0  0  3  0  0  0  0  0  0
  186.9140  178.7990  145.6310 C   0  0  0  0  0  2  0  0  0  0  0  0
  184.8090  177.8780  144.4510 C   0  0  0  0  0  2  0  0  0  0  0  0
  190.5940  175.3160  146.1750 C   0  0  1  0  0  3  0  0  0  0  0  0
  191.4790  175.4630  143.7690 C   0  0  1  0  0  3  0  0  0  0  0  0
  189.1700  175.6350  145.6710 C   0  0  1  0  0  3  0  0  0  0  0  0
  190.4000  177.2490  147.7940 C   0  0  0  0  0  2  0  0  0  0  0  0
  188.8030  177.1170  145.8710 C   0  0  1  0  0  3  0  0  0  0  0  0
  185.4390  179.0260  145.2520 C   0  0  0  0  0  2  0  0  0  0  0  0
  185.4680  177.2080  142.2930 O   0  0  0  0  0  0  0  0  0  0  0  0
  191.6840  175.8890  145.2440 C   0  0  2  0  0  3  0  0  0  0  0  0
  187.1980  176.9810  143.9180 C   0  0  1  0  0  3  0  0  0  0  0  0
  189.2220  172.2450  140.0280 O   0  0  0  0  0  0  0  0  0  0  0  0
  188.5190  174.4730  140.1070 N   0  0  0  0  0  2  0  0  0  0  0  0
  188.5350  173.1740  137.9500 C   0  0  0  0  0  1  0  0  0  0  0  0
  188.7810  173.2530  139.4130 C   0  0  0  0  0  0  0  0  0  0  0  0
  191.8500  174.0070  143.4010 C   0  0  0  0  0  3  0  0  0  0  0  0
  191.8620  173.0380  144.5720 C   0  0  0  0  0  1  0  0  0  0  0  0
  193.1560  173.9340  142.6350 C   0  0  0  0  0  1  0  0  0  0  0  0
  193.9320  176.5990  145.9480 C   0  0  0  0  0  2  0  0  0  0  0  0
  193.0690  175.6060  145.7470 C   0  0  0  0  0  3  0  0  0  0  0  0
  1  4  1  6  0  0  0
  1 14  1  0  0  0  0
  1  3  1  0  0  0  0
  2 16  1  0  0  0  0
  3 15  1  0  0  0  0
  5 21  1  0  0  0  0
  5 12  1  0  0  0  0
  6 10  1  0  0  0  0
  7 11  1  0  0  0  0
  7 17  1  0  0  0  0
  8 16  1  0  0  0  0
  9  4  1  0  0  0  0
  9  6  1  0  0  0  0
 10 21  1  0  0  0  0
 10  3  1  0  0  0  0
 12 18  1  0  0  0  0
 13  2  1  0  0  0  0
 14 20  1  0  0  0  0
 15 17  1  0  0  0  0
 15 13  1  0  0  0  0
 17  8  1  0  0  0  0
 18 11  1  0  0  0  0
 19  5  2  0  0  0  0
 20 30  1  0  0  0  0
 20 13  1  0  0  0  0
 21  7  1  0  0  0  0
 23  9  1  0  0  0  0
 24 25  1  0  0  0  0
 25 22  2  0  0  0  0
 25 23  1  0  0  0  0
 26 14  1  0  0  0  0
 26 27  1  0  0  0  0
 28 26  1  0  0  0  0
 30 29  2  0  0  0  0
M  END
>  <MODEL>
3

>  <REMARK>
 VINA RESULT:      -7.2      1.476      1.751
  Name = 
  3 active torsions:
  status: ('A' for Active; 'I' for Inactive)
    1  A    between atoms: C_2  and  C_22
    2  A    between atoms: N_9  and  C_12
    3  A    between atoms: C_28  and  C_29
                            x       y       z     vdW  Elec       q    Type
                         _______ _______ _______ _____ _____    ______ ____

>  <TORSDO>
F 3

$$$$
=
 OpenBabel11052417203D

 30 34  0  0  1  0  0  0  0  0999 V2000
  190.0580  176.8770  143.8040 C   0  0  2  0  0  3  0  0  0  0  0  0
  191.9650  175.8490  147.6060 C   0  0  0  0  0  2  0  0  0  0  0  0
  189.3370  175.8830  144.7350 C   0  0  2  0  0  3  0  0  0  0  0  0
  189.4350  176.9820  142.4030 C   0  0  0  0  0  2  0  0  0  0  0  0
  185.9100  177.6180  145.4560 C   0  0  0  0  0  0  0  0  0  0  0  0
  187.2640  176.0410  143.2540 C   0  0  0  0  0  2  0  0  0  0  0  0
  187.9670  177.4010  146.8560 C   0  0  2  0  0  3  0  0  0  0  0  0
  190.0410  177.2880  148.2810 C   0  0  0  0  0  2  0  0  0  0  0  0
  188.3480  175.9350  142.1750 C   0  0  1  0  0  3  0  0  0  0  0  0
  187.8080  176.0830  144.6990 C   0  0  2  0  0  3  0  0  0  0  0  0
  187.4940  178.6660  147.5840 C   0  0  0  0  0  2  0  0  0  0  0  0
  185.2130  177.7620  146.7760 C   0  0  0  0  0  2  0  0  0  0  0  0
  191.4230  175.7420  146.1750 C   0  0  1  0  0  3  0  0  0  0  0  0
  191.5660  176.6070  143.7600 C   0  0  1  0  0  3  0  0  0  0  0  0
  189.8950  175.9600  146.1620 C   0  0  1  0  0  3  0  0  0  0  0  0
  191.5590  177.1670  148.2590 C   0  0  0  0  0  2  0  0  0  0  0  0
  189.4920  177.2770  146.8530 C   0  0  1  0  0  3  0  0  0  0  0  0
  185.9590  178.7570  147.6750 C   0  0  0  0  0  2  0  0  0  0  0  0
  185.2720  177.7490  144.4240 O   0  0  0  0  0  0  0  0  0  0  0  0
  192.1530  176.6820  145.1920 C   0  0  2  0  0  3  0  0  0  0  0  0
  187.4070  177.3880  145.4200 C   0  0  1  0  0  3  0  0  0  0  0  0
  186.7150  178.1460  141.3840 O   0  0  0  0  0  0  0  0  0  0  0  0
  187.7600  176.1220  140.8570 N   0  0  0  0  0  2  0  0  0  0  0  0
  186.4170  177.3950  139.1490 C   0  0  0  0  0  1  0  0  0  0  0  0
  186.9630  177.2590  140.5240 C   0  0  0  0  0  0  0  0  0  0  0  0
  191.9220  175.3580  142.9200 C   0  0  0  0  0  3  0  0  0  0  0  0
  192.1240  174.0850  143.7260 C   0  0  0  0  0  1  0  0  0  0  0  0
  193.1100  175.6100  142.0130 C   0  0  0  0  0  1  0  0  0  0  0  0
  194.4410  177.4800  145.6200 C   0  0  0  0  0  2  0  0  0  0  0  0
  193.6410  176.4930  145.2220 C   0  0  0  0  0  3  0  0  0  0  0  0
  1  4  1  6  0  0  0
  1  3  1  0  0  0  0
  2 16  1  0  0  0  0
  3 15  1  0  0  0  0
  5 12  1  0  0  0  0
  6 10  1  0  0  0  0
  7 11  1  0  0  0  0
  9  4  1  0  0  0  0
  9  6  1  0  0  0  0
 10  3  1  0  0  0  0
 10 21  1  0  0  0  0
 11 18  1  0  0  0  0
 12 18  1  0  0  0  0
 13  2  1  0  0  0  0
 14  1  1  0  0  0  0
 14 20  1  0  0  0  0
 15 13  1  0  0  0  0
 15 17  1  0  0  0  0
 16  8  1  0  0  0  0
 17  7  1  0  0  0  0
 17  8  1  0  0  0  0
 19  5  2  0  0  0  0
 20 30  1  0  0  0  0
 20 13  1  0  0  0  0
 21  5  1  0  0  0  0
 21  7  1  0  0  0  0
 23  9  1  0  0  0  0
 24 25  1  0  0  0  0
 25 23  1  0  0  0  0
 25 22  2  0  0  0  0
 26 27  1  0  0  0  0
 26 14  1  0  0  0  0
 28 26  1  0  0  0  0
 30 29  2  0  0  0  0
M  END
>  <MODEL>
4

>  <REMARK>
 VINA RESULT:      -7.1      2.527      3.352
  Name = 
  3 active torsions:
  status: ('A' for Active; 'I' for Inactive)
    1  A    between atoms: C_2  and  C_22
    2  A    between atoms: N_9  and  C_12
    3  A    between atoms: C_28  and  C_29
                            x       y       z     vdW  Elec       q    Type
                         _______ _______ _______ _____ _____    ______ ____

>  <TORSDO>
F 3

$$$$
=
 OpenBabel11052417203D

 30 34  0  0  1  0  0  0  0  0999 V2000
  189.4140  174.9000  143.7410 C   0  0  2  0  0  3  0  0  0  0  0  0
  190.2970  177.8500  146.8490 C   0  0  0  0  0  2  0  0  0  0  0  0
  190.6450  175.8090  143.5540 C   0  0  2  0  0  3  0  0  0  0  0  0
  189.0540  174.0760  142.4940 C   0  0  0  0  0  2  0  0  0  0  0  0
  193.6220  173.2910  143.3050 C   0  0  0  0  0  0  0  0  0  0  0  0
  191.3780  174.3660  141.5800 C   0  0  0  0  0  2  0  0  0  0  0  0
  192.8590  174.7490  145.1830 C   0  0  2  0  0  3  0  0  0  0  0  0
  192.0860  176.1350  147.1400 C   0  0  0  0  0  2  0  0  0  0  0  0
  189.8800  174.4810  141.2760 C   0  0  1  0  0  3  0  0  0  0  0  0
  191.8140  175.0500  142.8950 C   0  0  2  0  0  3  0  0  0  0  0  0
  193.5470  173.7490  146.1190 C   0  0  0  0  0  2  0  0  0  0  0  0
  194.9560  173.3740  143.9860 C   0  0  0  0  0  2  0  0  0  0  0  0
  189.8740  177.2280  145.5120 C   0  0  1  0  0  3  0  0  0  0  0  0
  188.2210  175.6830  144.2970 C   0  0  1  0  0  3  0  0  0  0  0  0
  191.0550  176.4610  144.8800 C   0  0  1  0  0  3  0  0  0  0  0  0
  190.8830  176.8030  147.7910 C   0  0  0  0  0  2  0  0  0  0  0  0
  191.6610  175.4300  145.8500 C   0  0  1  0  0  3  0  0  0  0  0  0
  194.8090  173.1240  145.4930 C   0  0  0  0  0  2  0  0  0  0  0  0
  193.4920  172.5710  142.3280 O   0  0  0  0  0  0  0  0  0  0  0  0
  188.6110  176.3500  145.6400 C   0  0  2  0  0  3  0  0  0  0  0  0
  192.4370  174.0380  143.8810 C   0  0  1  0  0  3  0  0  0  0  0  0
  187.9430  175.1020  139.2650 O   0  0  0  0  0  0  0  0  0  0  0  0
  189.5320  173.6310  140.1470 N   0  0  0  0  0  2  0  0  0  0  0  0
  188.2760  173.0990  138.0300 C   0  0  0  0  0  1  0  0  0  0  0  0
  188.5620  174.0080  139.1690 C   0  0  0  0  0  0  0  0  0  0  0  0
  187.5550  176.5870  143.2320 C   0  0  0  0  0  3  0  0  0  0  0  0
  187.8880  178.0650  143.3530 C   0  0  0  0  0  1  0  0  0  0  0  0
  186.0540  176.3800  143.1770 C   0  0  0  0  0  1  0  0  0  0  0  0
  186.7200  176.4920  147.2080 C   0  0  0  0  0  2  0  0  0  0  0  0
  187.4700  177.0830  146.2800 C   0  0  0  0  0  3  0  0  0  0  0  0
  1  4  1  6  0  0  0
  1 14  1  0  0  0  0
  2 16  1  0  0  0  0
  3  1  1  0  0  0  0
  3 15  1  0  0  0  0
  5 21  1  0  0  0  0
  5 12  1  0  0  0  0
  6 10  1  0  0  0  0
  7 17  1  0  0  0  0
  7 11  1  0  0  0  0
  8 16  1  0  0  0  0
  9  6  1  0  0  0  0
  9  4  1  0  0  0  0
 10  3  1  0  0  0  0
 10 21  1  0  0  0  0
 12 18  1  0  0  0  0
 13 20  1  0  0  0  0
 13  2  1  0  0  0  0
 14 20  1  0  0  0  0
 15 13  1  0  0  0  0
 15 17  1  0  0  0  0
 17  8  1  0  0  0  0
 18 11  1  0  0  0  0
 19  5  2  0  0  0  0
 20 30  1  0  0  0  0
 21  7  1  0  0  0  0
 23  9  1  0  0  0  0
 24 25  1  0  0  0  0
 25 22  2  0  0  0  0
 25 23  1  0  0  0  0
 26 27  1  0  0  0  0
 26 14  1  0  0  0  0
 28 26  1  0  0  0  0
 30 29  2  0  0  0  0
M  END
>  <MODEL>
5

>  <REMARK>
 VINA RESULT:      -6.9      1.551      5.260
  Name = 
  3 active torsions:
  status: ('A' for Active; 'I' for Inactive)
    1  A    between atoms: C_2  and  C_22
    2  A    between atoms: N_9  and  C_12
    3  A    between atoms: C_28  and  C_29
                            x       y       z     vdW  Elec       q    Type
                         _______ _______ _______ _____ _____    ______ ____

>  <TORSDO>
F 3

$$$$
=
 OpenBabel11052417203D

 30 34  0  0  1  0  0  0  0  0999 V2000
  186.4900  176.7110  144.2220 C   0  0  2  0  0  3  0  0  0  0  0  0
  189.6370  177.2310  147.2180 C   0  0  0  0  0  2  0  0  0  0  0  0
  187.8630  177.2330  143.7540 C   0  0  2  0  0  3  0  0  0  0  0  0
  185.3930  176.7960  143.1490 C   0  0  0  0  0  2  0  0  0  0  0  0
  189.0190  174.5680  141.1400 C   0  0  0  0  0  0  0  0  0  0  0  0
  187.1250  176.9230  141.3300 C   0  0  0  0  0  2  0  0  0  0  0  0
  189.7080  174.9500  143.5100 C   0  0  2  0  0  3  0  0  0  0  0  0
  190.3820  175.2330  145.9210 C   0  0  0  0  0  2  0  0  0  0  0  0
  185.8550  177.5580  141.9100 C   0  0  1  0  0  3  0  0  0  0  0  0
  188.2390  176.6690  142.3690 C   0  0  2  0  0  3  0  0  0  0  0  0
  190.1070  173.4700  143.5360 C   0  0  0  0  0  2  0  0  0  0  0  0
  190.3730  173.9370  141.0090 C   0  0  0  0  0  2  0  0  0  0  0  0
  188.5540  177.5420  146.1770 C   0  0  1  0  0  3  0  0  0  0  0  0
  186.0700  177.3540  145.5480 C   0  0  1  0  0  3  0  0  0  0  0  0
  188.9460  176.9550  144.8040 C   0  0  1  0  0  3  0  0  0  0  0  0
  189.9320  175.7350  147.2860 C   0  0  0  0  0  2  0  0  0  0  0  0
  189.2740  175.4520  144.8880 C   0  0  1  0  0  3  0  0  0  0  0  0
  190.6340  172.9740  142.1760 C   0  0  0  0  0  2  0  0  0  0  0  0
  188.2480  174.5360  140.1940 O   0  0  0  0  0  0  0  0  0  0  0  0
  187.1490  177.0840  146.6260 C   0  0  2  0  0  3  0  0  0  0  0  0
  188.5970  175.1700  142.4650 C   0  0  1  0  0  3  0  0  0  0  0  0
  183.1310  178.2910  142.3820 O   0  0  0  0  0  0  0  0  0  0  0  0
  184.7950  177.5550  140.9130 N   0  0  0  0  0  2  0  0  0  0  0  0
  182.4300  177.9420  140.1380 C   0  0  0  0  0  1  0  0  0  0  0  0
  183.4540  177.9460  141.2140 C   0  0  0  0  0  0  0  0  0  0  0  0
  185.6010  178.8190  145.3750 C   0  0  0  0  0  3  0  0  0  0  0  0
  184.1050  179.0310  145.5370 C   0  0  0  0  0  1  0  0  0  0  0  0
  186.0860  179.4140  144.0680 C   0  0  0  0  0  1  0  0  0  0  0  0
  186.9880  178.9100  148.2670 C   0  0  0  0  0  2  0  0  0  0  0  0
  186.7770  177.6290  147.9730 C   0  0  0  0  0  3  0  0  0  0  0  0
  1  4  1  6  0  0  0
  1 14  1  0  0  0  0
  2 16  1  0  0  0  0
  3  1  1  0  0  0  0
  3 15  1  0  0  0  0
  5 21  1  0  0  0  0
  6  9  1  0  0  0  0
  6 10  1  0  0  0  0
  7 11  1  0  0  0  0
  7 17  1  0  0  0  0
  8 16  1  0  0  0  0
  9  4  1  0  0  0  0
 10 21  1  0  0  0  0
 10  3  1  0  0  0  0
 12  5  1  0  0  0  0
 12 18  1  0  0  0  0
 13 20  1  0  0  0  0
 13  2  1  0  0  0  0
 14 20  1  0  0  0  0
 15 17  1  0  0  0  0
 15 13  1  0  0  0  0
 17  8  1  0  0  0  0
 18 11  1  0  0  0  0
 19  5  2  0  0  0  0
 20 30  1  0  0  0  0
 21  7  1  0  0  0  0
 23 25  1  0  0  0  0
 23  9  1  0  0  0  0
 24 25  1  0  0  0  0
 25 22  2  0  0  0  0
 26 27  1  0  0  0  0
 26 14  1  0  0  0  0
 28 26  1  0  0  0  0
 30 29  2  0  0  0  0
M  END
>  <MODEL>
6

>  <REMARK>
 VINA RESULT:      -6.7      2.673      6.313
  Name = 
  3 active torsions:
  status: ('A' for Active; 'I' for Inactive)
    1  A    between atoms: C_2  and  C_22
    2  A    between atoms: N_9  and  C_12
    3  A    between atoms: C_28  and  C_29
                            x       y       z     vdW  Elec       q    Type
                         _______ _______ _______ _____ _____    ______ ____

>  <TORSDO>
F 3

$$$$
=
 OpenBabel11052417203D

 30 34  0  0  1  0  0  0  0  0999 V2000
  187.0630  176.0450  143.6120 C   0  0  2  0  0  3  0  0  0  0  0  0
  186.5230  179.4150  146.3520 C   0  0  0  0  0  2  0  0  0  0  0  0
  188.2420  177.0180  143.8110 C   0  0  2  0  0  3  0  0  0  0  0  0
  187.2650  175.0500  142.4590 C   0  0  0  0  0  2  0  0  0  0  0  0
  191.1080  174.7270  145.1570 C   0  0  0  0  0  0  0  0  0  0  0  0
  189.7540  175.4050  142.5350 C   0  0  0  0  0  2  0  0  0  0  0  0
  189.6080  176.3410  146.3330 C   0  0  2  0  0  3  0  0  0  0  0  0
  188.0680  177.8920  147.5860 C   0  0  0  0  0  2  0  0  0  0  0  0
  188.5120  175.3650  141.6360 C   0  0  1  0  0  3  0  0  0  0  0  0
  189.5940  176.2770  143.8010 C   0  0  2  0  0  3  0  0  0  0  0  0
  189.8690  175.5200  147.6010 C   0  0  0  0  0  2  0  0  0  0  0  0
  192.0400  174.9980  146.3010 C   0  0  0  0  0  2  0  0  0  0  0  0
  186.7030  178.6020  145.0630 C   0  0  1  0  0  3  0  0  0  0  0  0
  185.7300  176.7950  143.5170 C   0  0  1  0  0  3  0  0  0  0  0  0
  188.0550  177.8580  145.0820 C   0  0  1  0  0  3  0  0  0  0  0  0
  186.6900  178.5390  147.5900 C   0  0  0  0  0  2  0  0  0  0  0  0
  188.2280  177.0030  146.3510 C   0  0  1  0  0  3  0  0  0  0  0  0
  191.2890  174.9240  147.6380 C   0  0  0  0  0  2  0  0  0  0  0  0
  191.4070  173.8850  144.3260 O   0  0  0  0  0  0  0  0  0  0  0  0
  185.5180  177.6500  144.7920 C   0  0  2  0  0  3  0  0  0  0  0  0
  189.7750  175.4450  145.0890 C   0  0  1  0  0  3  0  0  0  0  0  0
  187.4720  175.5340  138.9770 O   0  0  0  0  0  0  0  0  0  0  0  0
  188.6790  174.3580  140.5990 N   0  0  0  0  0  2  0  0  0  0  0  0
  188.3740  173.4520  138.2690 C   0  0  0  0  0  1  0  0  0  0  0  0
  188.1420  174.5120  139.2840 C   0  0  0  0  0  0  0  0  0  0  0  0
  185.5450  177.5070  142.1560 C   0  0  0  0  0  3  0  0  0  0  0  0
  186.4790  178.6830  141.9200 C   0  0  0  0  0  1  0  0  0  0  0  0
  184.1030  177.9160  141.9260 C   0  0  0  0  0  1  0  0  0  0  0  0
  183.6000  178.6650  145.9510 C   0  0  0  0  0  2  0  0  0  0  0  0
  184.1990  178.3650  144.8010 C   0  0  0  0  0  3  0  0  0  0  0  0
  1  4  1  6  0  0  0
  1  3  1  0  0  0  0
  2 16  1  0  0  0  0
  3 15  1  0  0  0  0
  5 12  1  0  0  0  0
  6 10  1  0  0  0  0
  7 17  1  0  0  0  0
  7 11  1  0  0  0  0
  8 16  1  0  0  0  0
  9  4  1  0  0  0  0
  9  6  1  0  0  0  0
 10  3  1  0  0  0  0
 10 21  1  0  0  0  0
 11 18  1  0  0  0  0
 12 18  1  0  0  0  0
 13 15  1  0  0  0  0
 13  2  1  0  0  0  0
 14  1  1  0  0  0  0
 14 20  1  0  0  0  0
 15 17  1  0  0  0  0
 17  8  1  0  0  0  0
 19  5  2  0  0  0  0
 20 30  1  0  0  0  0
 20 13  1  0  0  0  0
 21  5  1  0  0  0  0
 21  7  1  0  0  0  0
 22 25  2  0  0  0  0
 23  9  1  0  0  0  0
 24 25  1  0  0  0  0
 25 23  1  0  0  0  0
 26 14  1  0  0  0  0
 27 26  1  0  0  0  0
 28 26  1  0  0  0  0
 30 29  2  0  0  0  0
M  END
>  <MODEL>
7

>  <REMARK>
 VINA RESULT:      -6.7      2.123      5.932
  Name = 
  3 active torsions:
  status: ('A' for Active; 'I' for Inactive)
    1  A    between atoms: C_2  and  C_22
    2  A    between atoms: N_9  and  C_12
    3  A    between atoms: C_28  and  C_29
                            x       y       z     vdW  Elec       q    Type
                         _______ _______ _______ _____ _____    ______ ____

>  <TORSDO>
F 3

$$$$
=
 OpenBabel11052417203D

 30 34  0  0  1  0  0  0  0  0999 V2000
  189.3900  175.0450  143.8230 C   0  0  2  0  0  3  0  0  0  0  0  0
  193.5890  174.4050  144.8760 C   0  0  0  0  0  2  0  0  0  0  0  0
  190.4440  175.1290  142.7010 C   0  0  2  0  0  3  0  0  0  0  0  0
  187.9920  175.5220  143.4010 C   0  0  0  0  0  2  0  0  0  0  0  0
  189.3260  172.3590  140.1810 C   0  0  0  0  0  0  0  0  0  0  0  0
  188.5630  175.1790  140.9760 C   0  0  0  0  0  2  0  0  0  0  0  0
  191.1610  172.3930  141.8740 C   0  0  2  0  0  3  0  0  0  0  0  0
  192.9740  172.3370  143.6220 C   0  0  0  0  0  2  0  0  0  0  0  0
  187.9930  176.1560  142.0120 C   0  0  1  0  0  3  0  0  0  0  0  0
  189.9100  174.5390  141.3800 C   0  0  2  0  0  3  0  0  0  0  0  0
  191.0610  170.8630  141.8790 C   0  0  0  0  0  2  0  0  0  0  0  0
  190.1850  171.3390  139.4960 C   0  0  0  0  0  2  0  0  0  0  0  0
  192.2850  175.0910  144.4480 C   0  0  1  0  0  3  0  0  0  0  0  0
  189.8840  175.7260  145.1040 C   0  0  1  0  0  3  0  0  0  0  0  0
  191.7630  174.4740  143.1330 C   0  0  1  0  0  3  0  0  0  0  0  0
  193.4200  172.8920  144.9690 C   0  0  0  0  0  2  0  0  0  0  0  0
  191.6260  172.9430  143.2250 C   0  0  1  0  0  3  0  0  0  0  0  0
  190.6830  170.2900  140.5000 C   0  0  0  0  0  2  0  0  0  0  0  0
  188.2220  172.6150  139.7270 O   0  0  0  0  0  0  0  0  0  0  0  0
  191.2160  175.0800  145.5610 C   0  0  2  0  0  3  0  0  0  0  0  0
  189.8040  173.0010  141.4670 C   0  0  1  0  0  3  0  0  0  0  0  0
  186.8340  178.7430  142.3880 O   0  0  0  0  0  0  0  0  0  0  0  0
  186.6360  176.5340  141.6480 N   0  0  0  0  0  2  0  0  0  0  0  0
  184.7340  178.1710  141.4330 C   0  0  0  0  0  1  0  0  0  0  0  0
  186.1230  177.8510  141.8520 C   0  0  0  0  0  0  0  0  0  0  0  0
  189.8500  177.2700  145.0070 C   0  0  0  0  0  3  0  0  0  0  0  0
  191.1680  177.9110  144.6010 C   0  0  0  0  0  1  0  0  0  0  0  0
  189.3190  177.9020  146.2780 C   0  0  0  0  0  1  0  0  0  0  0  0
  191.1910  175.2910  148.0130 C   0  0  0  0  0  2  0  0  0  0  0  0
  191.7290  175.6510  146.8500 C   0  0  0  0  0  3  0  0  0  0  0  0
  1  4  1  6  0  0  0
  1 14  1  0  0  0  0
  2 16  1  0  0  0  0
  3 15  1  0  0  0  0
  3  1  1  0  0  0  0
  5 21  1  0  0  0  0
  6 10  1  0  0  0  0
  6  9  1  0  0  0  0
  7 11  1  0  0  0  0
  7 17  1  0  0  0  0
  8 16  1  0  0  0  0
  9  4  1  0  0  0  0
 10 21  1  0  0  0  0
 10  3  1  0  0  0  0
 12  5  1  0  0  0  0
 12 18  1  0  0  0  0
 13  2  1  0  0  0  0
 13 20  1  0  0  0  0
 14 20  1  0  0  0  0
 15 17  1  0  0  0  0
 15 13  1  0  0  0  0
 17  8  1  0  0  0  0
 18 11  1  0  0  0  0
 19  5  2  0  0  0  0
 20 30  1  0  0  0  0
 21  7  1  0  0  0  0
 23 25  1  0  0  0  0
 23  9  1  0  0  0  0
 24 25  1  0  0  0  0
 25 22  2  0  0  0  0
 26 14  1  0  0  0  0
 26 28  1  0  0  0  0
 27 26  1  0  0  0  0
 30 29  2  0  0  0  0
M  END
>  <MODEL>
8

>  <REMARK>
 VINA RESULT:      -6.6      1.890      5.414
  Name = 
  3 active torsions:
  status: ('A' for Active; 'I' for Inactive)
    1  A    between atoms: C_2  and  C_22
    2  A    between atoms: N_9  and  C_12
    3  A    between atoms: C_28  and  C_29
                            x       y       z     vdW  Elec       q    Type
                         _______ _______ _______ _____ _____    ______ ____

>  <TORSDO>
F 3

$$$$
=
 OpenBabel11052417203D

 30 34  0  0  1  0  0  0  0  0999 V2000
  189.7880  175.1350  145.7460 C   0  0  2  0  0  3  0  0  0  0  0  0
  188.9180  175.0790  141.4570 C   0  0  0  0  0  2  0  0  0  0  0  0
  189.6670  176.4840  145.0090 C   0  0  2  0  0  3  0  0  0  0  0  0
  190.3310  175.2550  147.1780 C   0  0  0  0  0  2  0  0  0  0  0  0
  186.7500  178.2930  146.8780 C   0  0  0  0  0  0  0  0  0  0  0  0
  189.6920  177.6860  147.2610 C   0  0  0  0  0  2  0  0  0  0  0  0
  186.8100  177.1220  144.6730 C   0  0  2  0  0  3  0  0  0  0  0  0
  186.7880  175.8810  142.4810 C   0  0  0  0  0  2  0  0  0  0  0  0
  190.8150  176.6680  147.4960 C   0  0  1  0  0  3  0  0  0  0  0  0
  188.9880  177.5510  145.8920 C   0  0  2  0  0  3  0  0  0  0  0  0
  185.3020  176.9060  144.8500 C   0  0  0  0  0  2  0  0  0  0  0  0
  185.5970  179.0400  146.2770 C   0  0  0  0  0  2  0  0  0  0  0  0
  189.6600  175.2530  142.7890 C   0  0  1  0  0  3  0  0  0  0  0  0
  190.5560  174.1090  144.9070 C   0  0  1  0  0  3  0  0  0  0  0  0
  188.9540  176.3140  143.6610 C   0  0  1  0  0  3  0  0  0  0  0  0
  187.4410  174.7640  141.6780 C   0  0  0  0  0  2  0  0  0  0  0  0
  187.4570  176.0050  143.8510 C   0  0  1  0  0  3  0  0  0  0  0  0
  184.6220  178.0690  145.5970 C   0  0  0  0  0  2  0  0  0  0  0  0
  187.0480  178.4890  148.0460 O   0  0  0  0  0  0  0  0  0  0  0  0
  189.8540  173.9180  143.5390 C   0  0  2  0  0  3  0  0  0  0  0  0
  187.4820  177.2530  146.0550 C   0  0  1  0  0  3  0  0  0  0  0  0
  190.8160  179.0100  149.1380 O   0  0  0  0  0  0  0  0  0  0  0  0
  191.2630  176.7290  148.8790 N   0  0  0  0  0  2  0  0  0  0  0  0
  191.6770  177.9130  151.0630 C   0  0  0  0  0  1  0  0  0  0  0  0
  191.2250  177.9330  149.6480 C   0  0  0  0  0  0  0  0  0  0  0  0
  192.0790  174.3820  144.8810 C   0  0  0  0  0  3  0  0  0  0  0  0
  192.5610  175.1900  143.6870 C   0  0  0  0  0  1  0  0  0  0  0  0
  192.8830  173.1040  145.0200 C   0  0  0  0  0  1  0  0  0  0  0  0
  190.0170  171.6420  142.6190 C   0  0  0  0  0  2  0  0  0  0  0  0
  190.5130  172.8760  142.6850 C   0  0  0  0  0  3  0  0  0  0  0  0
  1  4  1  1  0  0  0
  2 16  1  0  0  0  0
  2 13  1  0  0  0  0
  3  1  1  0  0  0  0
  3 10  1  0  0  0  0
  4  9  1  0  0  0  0
  5 19  2  0  0  0  0
  6  9  1  0  0  0  0
  7 11  1  0  0  0  0
  7 21  1  0  0  0  0
  8 17  1  0  0  0  0
  9 23  1  0  0  0  0
 10 21  1  0  0  0  0
 10  6  1  0  0  0  0
 11 18  1  0  0  0  0
 12  5  1  0  0  0  0
 13 20  1  0  0  0  0
 13 15  1  0  0  0  0
 14  1  1  0  0  0  0
 15 17  1  0  0  0  0
 15  3  1  0  0  0  0
 16  8  1  0  0  0  0
 17  7  1  0  0  0  0
 18 12  1  0  0  0  0
 20 14  1  0  0  0  0
 21  5  1  0  0  0  0
 22 25  2  0  0  0  0
 23 25  1  0  0  0  0
 25 24  1  0  0  0  0
 26 14  1  0  0  0  0
 26 28  1  0  0  0  0
 27 26  1  0  0  0  0
 29 30  2  0  0  0  0
 30 20  1  0  0  0  0
M  END
>  <MODEL>
9

>  <REMARK>
 VINA RESULT:      -6.5      3.427      6.093
  Name = 
  3 active torsions:
  status: ('A' for Active; 'I' for Inactive)
    1  A    between atoms: C_2  and  C_22
    2  A    between atoms: N_9  and  C_12
    3  A    between atoms: C_28  and  C_29
                            x       y       z     vdW  Elec       q    Type
                         _______ _______ _______ _____ _____    ______ ____

>  <TORSDO>
F 3

$$$$
