=
 OpenBabel11052417593D

 31 34  0  0  1  0  0  0  0  0999 V2000
  187.4650  176.4420  140.8380 C   0  0  0  0  0  0  0  0  0  0  0  0
  187.7280  177.1120  144.5990 C   0  0  2  0  0  3  0  0  0  0  0  0
  186.3580  177.6640  144.9860 C   0  0  0  0  0  0  0  0  0  0  0  0
  184.1750  178.5600  144.4360 C   0  0  0  0  0  3  0  0  0  0  0  0
  187.8470  176.4130  143.2470 C   0  0  0  0  0  0  0  0  0  0  0  0
  188.2180  175.2780  140.6950 C   0  0  0  0  0  3  0  0  0  0  0  0
  185.3890  178.0030  144.0330 C   0  0  0  0  0  3  0  0  0  0  0  0
  189.5930  175.5550  145.4160 C   0  0  2  0  0  3  0  0  0  0  0  0
  186.8860  177.0360  139.7260 O   0  0  0  0  0  1  0  0  0  0  0  0
  187.0470  177.6100  147.3590 N   0  0  0  0  0  2  0  0  0  0  0  0
  183.9340  178.7880  145.7530 N   0  0  0  0  0  0  0  0  0  0  0  0
  189.3990  174.6230  144.2230 C   0  0  0  0  0  2  0  0  0  0  0  0
  188.2860  176.2660  145.7540 C   0  0  1  0  0  3  0  0  0  0  0  0
  187.2960  177.0110  142.1010 C   0  0  0  0  0  3  0  0  0  0  0  0
  184.5690  178.7370  148.0100 F   0  0  0  0  0  0  0  0  0  0  0  0
  188.6720  175.2720  143.0780 C   0  0  0  0  0  0  0  0  0  0  0  0
  188.8220  174.7000  141.8110 C   0  0  0  0  0  3  0  0  0  0  0  0
  188.3720  177.1010  147.0250 C   0  0  0  0  0  2  0  0  0  0  0  0
  186.0870  177.9390  146.3450 C   0  0  0  0  0  0  0  0  0  0  0  0
  184.8540  178.4920  146.7080 C   0  0  0  0  0  0  0  0  0  0  0  0
  190.8510  176.4410  145.3580 C   0  0  0  0  0  2  0  0  0  0  0  0
  193.3330  174.9580  143.1050 O   0  0  0  0  0  0  0  0  0  0  0  0
  192.7300  175.2420  144.1770 C   0  0  0  0  0  0  0  0  0  0  0  0
  191.6700  176.2150  144.1700 N   0  0  0  0  0  0  0  0  0  0  0  0
  191.0500  178.4890  143.5220 C   0  0  0  0  0  1  0  0  0  0  0  0
  191.5170  177.1270  143.0430 C   0  0  0  0  0  2  0  0  0  0  0  0
  193.1690  174.5920  145.4550 C   0  0  0  0  0  2  0  0  0  0  0  0
  194.3800  175.2940  146.0550 C   0  0  0  0  0  2  0  0  0  0  0  0
  195.6600  174.5140  145.7960 C   0  0  2  0  0  3  0  0  0  0  0  0
  196.3560  175.0960  144.6650 N   0  0  0  0  0  1  0  0  0  0  0  0
  195.3350  173.0630  145.4930 C   0  0  0  0  0  1  0  0  0  0  0  0
  1 14  1  0  0  0  0
  2  5  1  6  0  0  0
  2  3  1  0  0  0  0
  2 13  1  0  0  0  0
  3 19  1  0  0  0  0
  4 11  2  0  0  0  0
  6  1  2  0  0  0  0
  6 17  1  0  0  0  0
  7  4  1  0  0  0  0
  7  3  2  0  0  0  0
  8 21  1  6  0  0  0
  8 13  1  0  0  0  0
  9  1  1  0  0  0  0
 11 20  1  0  0  0  0
 12  8  1  0  0  0  0
 13 18  1  1  0  0  0
 14  5  2  0  0  0  0
 16  5  1  0  0  0  0
 16 12  1  0  0  0  0
 17 16  2  0  0  0  0
 18 10  1  0  0  0  0
 19 20  2  0  0  0  0
 19 10  1  0  0  0  0
 20 15  1  0  0  0  0
 22 23  2  0  0  0  0
 23 27  1  0  0  0  0
 24 23  1  0  0  0  0
 24 21  1  0  0  0  0
 26 25  1  0  0  0  0
 26 24  1  0  0  0  0
 27 28  1  0  0  0  0
 29 31  1  6  0  0  0
 29 28  1  0  0  0  0
 30 29  1  0  0  0  0
M  END
>  <MODEL>
1

>  <REMARK>
 VINA RESULT:      -7.9      0.000      0.000
  Name = 
  6 active torsions:
  status: ('A' for Active; 'I' for Inactive)
    1  A    between atoms: C_1  and  C_24
    2  A    between atoms: C_6  and  C_19
    3  A    between atoms: C_6  and  C_24
    4  A    between atoms: C_9  and  N_22
    5  A    between atoms: C_15  and  C_23
    6  A    between atoms: N_22  and  C_23
                            x       y       z     vdW  Elec       q    Type
                         _______ _______ _______ _____ _____    ______ ____

>  <TORSDO>
F 6

$$$$
=
 OpenBabel11052417593D

 31 34  0  0  1  0  0  0  0  0999 V2000
  187.4040  176.4520  140.7470 C   0  0  0  0  0  0  0  0  0  0  0  0
  187.7170  177.2130  144.4870 C   0  0  2  0  0  3  0  0  0  0  0  0
  186.3420  177.7440  144.8860 C   0  0  0  0  0  0  0  0  0  0  0  0
  184.1310  178.5800  144.3550 C   0  0  0  0  0  3  0  0  0  0  0  0
  187.8280  176.4860  143.1490 C   0  0  0  0  0  0  0  0  0  0  0  0
  188.1790  175.3020  140.6170 C   0  0  0  0  0  3  0  0  0  0  0  0
  185.3490  178.0400  143.9430 C   0  0  0  0  0  3  0  0  0  0  0  0
  189.6290  175.7150  145.3050 C   0  0  2  0  0  3  0  0  0  0  0  0
  186.7920  177.0080  139.6330 O   0  0  0  0  0  1  0  0  0  0  0  0
  187.0730  177.7580  147.2470 N   0  0  0  0  0  2  0  0  0  0  0  0
  183.9070  178.8320  145.6710 N   0  0  0  0  0  0  0  0  0  0  0  0
  189.4350  174.7520  144.1370 C   0  0  0  0  0  2  0  0  0  0  0  0
  188.3130  176.4060  145.6500 C   0  0  1  0  0  3  0  0  0  0  0  0
  187.2440  177.0450  142.0000 C   0  0  0  0  0  3  0  0  0  0  0  0
  184.5830  178.8460  147.9170 F   0  0  0  0  0  0  0  0  0  0  0  0
  188.6750  175.3590  142.9910 C   0  0  0  0  0  0  0  0  0  0  0  0
  188.8150  174.7620  141.7340 C   0  0  0  0  0  3  0  0  0  0  0  0
  188.4030  177.2710  146.9010 C   0  0  0  0  0  2  0  0  0  0  0  0
  186.0890  178.0430  146.2430 C   0  0  0  0  0  0  0  0  0  0  0  0
  184.8500  178.5770  146.6150 C   0  0  0  0  0  0  0  0  0  0  0  0
  190.8660  176.6260  145.2050 C   0  0  0  0  0  2  0  0  0  0  0  0
  194.2880  175.9960  146.3550 O   0  0  0  0  0  0  0  0  0  0  0  0
  193.3310  176.2300  145.5670 C   0  0  0  0  0  0  0  0  0  0  0  0
  191.9770  176.2000  146.0520 N   0  0  0  0  0  0  0  0  0  0  0  0
  191.5240  176.6090  148.4190 C   0  0  0  0  0  1  0  0  0  0  0  0
  191.6670  175.5640  147.3280 C   0  0  0  0  0  2  0  0  0  0  0  0
  193.6230  176.4880  144.1200 C   0  0  0  0  0  2  0  0  0  0  0  0
  194.3060  175.2950  143.4640 C   0  0  0  0  0  2  0  0  0  0  0  0
  195.5300  175.7220  142.6690 C   0  0  2  0  0  3  0  0  0  0  0  0
  196.3160  176.6500  143.4590 N   0  0  0  0  0  1  0  0  0  0  0  0
  195.1060  176.3960  141.3770 C   0  0  0  0  0  1  0  0  0  0  0  0
  1 14  1  0  0  0  0
  2  5  1  6  0  0  0
  2  3  1  0  0  0  0
  2 13  1  0  0  0  0
  3 19  1  0  0  0  0
  4 11  2  0  0  0  0
  6  1  2  0  0  0  0
  6 17  1  0  0  0  0
  7  4  1  0  0  0  0
  7  3  2  0  0  0  0
  8 21  1  6  0  0  0
  8 13  1  0  0  0  0
  9  1  1  0  0  0  0
 11 20  1  0  0  0  0
 12  8  1  0  0  0  0
 13 18  1  1  0  0  0
 14  5  2  0  0  0  0
 16  5  1  0  0  0  0
 16 12  1  0  0  0  0
 17 16  2  0  0  0  0
 18 10  1  0  0  0  0
 19 20  2  0  0  0  0
 19 10  1  0  0  0  0
 20 15  1  0  0  0  0
 21 24  1  0  0  0  0
 23 24  1  0  0  0  0
 23 22  2  0  0  0  0
 24 26  1  0  0  0  0
 26 25  1  0  0  0  0
 27 23  1  0  0  0  0
 28 27  1  0  0  0  0
 29 31  1  6  0  0  0
 29 30  1  0  0  0  0
 29 28  1  0  0  0  0
M  END
>  <MODEL>
2

>  <REMARK>
 VINA RESULT:      -7.8      1.485      2.000
  Name = 
  6 active torsions:
  status: ('A' for Active; 'I' for Inactive)
    1  A    between atoms: C_1  and  C_24
    2  A    between atoms: C_6  and  C_19
    3  A    between atoms: C_6  and  C_24
    4  A    between atoms: C_9  and  N_22
    5  A    between atoms: C_15  and  C_23
    6  A    between atoms: N_22  and  C_23
                            x       y       z     vdW  Elec       q    Type
                         _______ _______ _______ _____ _____    ______ ____

>  <TORSDO>
F 6

$$$$
=
 OpenBabel11052417593D

 31 34  0  0  1  0  0  0  0  0999 V2000
  187.4230  176.4320  140.7530 C   0  0  0  0  0  0  0  0  0  0  0  0
  187.7160  177.2230  144.4880 C   0  0  2  0  0  3  0  0  0  0  0  0
  186.3410  177.7610  144.8750 C   0  0  0  0  0  0  0  0  0  0  0  0
  184.1350  178.6000  144.3240 C   0  0  0  0  0  3  0  0  0  0  0  0
  187.8320  176.4850  143.1570 C   0  0  0  0  0  0  0  0  0  0  0  0
  188.1950  175.2790  140.6360 C   0  0  0  0  0  3  0  0  0  0  0  0
  185.3540  178.0520  143.9230 C   0  0  0  0  0  3  0  0  0  0  0  0
  189.6190  175.7270  145.3300 C   0  0  2  0  0  3  0  0  0  0  0  0
  186.8190  176.9810  139.6300 O   0  0  0  0  0  1  0  0  0  0  0  0
  187.0580  177.7930  147.2400 N   0  0  0  0  0  2  0  0  0  0  0  0
  183.9040  178.8630  145.6360 N   0  0  0  0  0  0  0  0  0  0  0  0
  189.4290  174.7550  144.1680 C   0  0  0  0  0  2  0  0  0  0  0  0
  188.3030  176.4240  145.6610 C   0  0  1  0  0  3  0  0  0  0  0  0
  187.2570  177.0370  141.9990 C   0  0  0  0  0  3  0  0  0  0  0  0
  184.5670  178.8940  147.8860 F   0  0  0  0  0  0  0  0  0  0  0  0
  188.6770  175.3550  143.0130 C   0  0  0  0  0  0  0  0  0  0  0  0
  188.8230  174.7470  141.7620 C   0  0  0  0  0  3  0  0  0  0  0  0
  188.3890  177.2990  146.9050 C   0  0  0  0  0  2  0  0  0  0  0  0
  186.0800  178.0730  146.2280 C   0  0  0  0  0  0  0  0  0  0  0  0
  184.8410  178.6140  146.5880 C   0  0  0  0  0  0  0  0  0  0  0  0
  190.8590  176.6340  145.2290 C   0  0  0  0  0  2  0  0  0  0  0  0
  194.2480  176.0230  146.4830 O   0  0  0  0  0  0  0  0  0  0  0  0
  193.3110  176.2280  145.6640 C   0  0  0  0  0  0  0  0  0  0  0  0
  191.9470  176.2380  146.1200 N   0  0  0  0  0  0  0  0  0  0  0  0
  191.5120  176.7660  148.4670 C   0  0  0  0  0  1  0  0  0  0  0  0
  191.6020  175.6720  147.4190 C   0  0  0  0  0  2  0  0  0  0  0  0
  193.6370  176.4080  144.2120 C   0  0  0  0  0  2  0  0  0  0  0  0
  194.3060  175.1710  143.6280 C   0  0  0  0  0  2  0  0  0  0  0  0
  193.3780  174.4330  142.6750 C   0  0  2  0  0  3  0  0  0  0  0  0
  192.4120  175.3660  142.1270 N   0  0  0  0  0  1  0  0  0  0  0  0
  192.6460  173.3270  143.4120 C   0  0  0  0  0  1  0  0  0  0  0  0
  1 14  1  0  0  0  0
  2  5  1  6  0  0  0
  2  3  1  0  0  0  0
  2 13  1  0  0  0  0
  3 19  1  0  0  0  0
  4 11  2  0  0  0  0
  6  1  2  0  0  0  0
  6 17  1  0  0  0  0
  7  4  1  0  0  0  0
  7  3  2  0  0  0  0
  8 21  1  6  0  0  0
  8 13  1  0  0  0  0
  9  1  1  0  0  0  0
 11 20  1  0  0  0  0
 12  8  1  0  0  0  0
 13 18  1  1  0  0  0
 14  5  2  0  0  0  0
 16  5  1  0  0  0  0
 16 12  1  0  0  0  0
 17 16  2  0  0  0  0
 18 10  1  0  0  0  0
 19 20  2  0  0  0  0
 19 10  1  0  0  0  0
 20 15  1  0  0  0  0
 21 24  1  0  0  0  0
 23 24  1  0  0  0  0
 23 22  2  0  0  0  0
 24 26  1  0  0  0  0
 26 25  1  0  0  0  0
 27 23  1  0  0  0  0
 28 27  1  0  0  0  0
 29 31  1  1  0  0  0
 29 28  1  0  0  0  0
 30 29  1  0  0  0  0
M  END
>  <MODEL>
3

>  <REMARK>
 VINA RESULT:      -7.8      1.553      2.047
  Name = 
  6 active torsions:
  status: ('A' for Active; 'I' for Inactive)
    1  A    between atoms: C_1  and  C_24
    2  A    between atoms: C_6  and  C_19
    3  A    between atoms: C_6  and  C_24
    4  A    between atoms: C_9  and  N_22
    5  A    between atoms: C_15  and  C_23
    6  A    between atoms: N_22  and  C_23
                            x       y       z     vdW  Elec       q    Type
                         _______ _______ _______ _____ _____    ______ ____

>  <TORSDO>
F 6

$$$$
=
 OpenBabel11052417593D

 31 34  0  0  1  0  0  0  0  0999 V2000
  184.9640  177.9670  146.8080 C   0  0  0  0  0  0  0  0  0  0  0  0
  187.0620  176.8060  143.8230 C   0  0  2  0  0  3  0  0  0  0  0  0
  186.2990  177.3090  142.6000 C   0  0  0  0  0  0  0  0  0  0  0  0
  184.3380  178.2550  141.5370 C   0  0  0  0  0  3  0  0  0  0  0  0
  186.6880  177.4010  145.1780 C   0  0  0  0  0  0  0  0  0  0  0  0
  185.9430  178.2920  147.7450 C   0  0  0  0  0  3  0  0  0  0  0  0
  185.0170  177.8660  142.6920 C   0  0  0  0  0  3  0  0  0  0  0  0
  189.4310  176.5140  144.7580 C   0  0  2  0  0  3  0  0  0  0  0  0
  183.6210  178.0940  147.1330 O   0  0  0  0  0  1  0  0  0  0  0  0
  188.1680  176.5540  141.1680 N   0  0  0  0  0  2  0  0  0  0  0  0
  184.9120  178.0840  140.3190 N   0  0  0  0  0  0  0  0  0  0  0  0
  189.1420  177.4690  145.9130 C   0  0  0  0  0  2  0  0  0  0  0  0
  188.5720  176.8670  143.5470 C   0  0  1  0  0  3  0  0  0  0  0  0
  185.3350  177.5110  145.5430 C   0  0  0  0  0  3  0  0  0  0  0  0
  186.6790  177.3790  138.9470 F   0  0  0  0  0  0  0  0  0  0  0  0
  187.6720  177.6640  146.1650 C   0  0  0  0  0  0  0  0  0  0  0  0
  187.2910  178.1360  147.4240 C   0  0  0  0  0  3  0  0  0  0  0  0
  188.9160  176.0440  142.3120 C   0  0  0  0  0  2  0  0  0  0  0  0
  186.8570  177.1190  141.3160 C   0  0  0  0  0  0  0  0  0  0  0  0
  186.1450  177.5310  140.1830 C   0  0  0  0  0  0  0  0  0  0  0  0
  189.4840  175.0230  145.1390 C   0  0  0  0  0  2  0  0  0  0  0  0
  192.1020  172.6160  144.2510 O   0  0  0  0  0  0  0  0  0  0  0  0
  190.9550  173.0690  144.5210 C   0  0  0  0  0  0  0  0  0  0  0  0
  190.8070  174.4250  144.9770 N   0  0  0  0  0  0  0  0  0  0  0  0
  192.0020  175.1480  146.9840 C   0  0  0  0  0  1  0  0  0  0  0  0
  191.9630  175.1670  145.4670 C   0  0  0  0  0  2  0  0  0  0  0  0
  189.7670  172.1610  144.4110 C   0  0  0  0  0  2  0  0  0  0  0  0
  189.6360  171.5760  143.0110 C   0  0  0  0  0  2  0  0  0  0  0  0
  189.2180  172.6330  142.0010 C   0  0  2  0  0  3  0  0  0  0  0  0
  187.7710  172.6710  141.9160 N   0  0  0  0  0  1  0  0  0  0  0  0
  189.7940  172.3070  140.6360 C   0  0  0  0  0  1  0  0  0  0  0  0
  1  9  1  0  0  0  0
  1  6  1  0  0  0  0
  2  3  1  6  0  0  0
  2  5  1  0  0  0  0
  3  7  1  0  0  0  0
  4  7  2  0  0  0  0
  5 14  1  0  0  0  0
  5 16  2  0  0  0  0
  8 21  1  1  0  0  0
  8 12  1  0  0  0  0
 10 19  1  0  0  0  0
 10 18  1  0  0  0  0
 11  4  1  0  0  0  0
 12 16  1  0  0  0  0
 13 18  1  6  0  0  0
 13  2  1  0  0  0  0
 13  8  1  0  0  0  0
 14  1  2  0  0  0  0
 15 20  1  0  0  0  0
 16 17  1  0  0  0  0
 17  6  2  0  0  0  0
 19  3  2  0  0  0  0
 20 11  2  0  0  0  0
 20 19  1  0  0  0  0
 22 23  2  0  0  0  0
 23 24  1  0  0  0  0
 24 21  1  0  0  0  0
 24 26  1  0  0  0  0
 26 25  1  0  0  0  0
 27 23  1  0  0  0  0
 28 27  1  0  0  0  0
 29 31  1  6  0  0  0
 29 28  1  0  0  0  0
 30 29  1  0  0  0  0
M  END
>  <MODEL>
4

>  <REMARK>
 VINA RESULT:      -7.7      3.322      5.309
  Name = 
  6 active torsions:
  status: ('A' for Active; 'I' for Inactive)
    1  A    between atoms: C_1  and  C_24
    2  A    between atoms: C_6  and  C_19
    3  A    between atoms: C_6  and  C_24
    4  A    between atoms: C_9  and  N_22
    5  A    between atoms: C_15  and  C_23
    6  A    between atoms: N_22  and  C_23
                            x       y       z     vdW  Elec       q    Type
                         _______ _______ _______ _____ _____    ______ ____

>  <TORSDO>
F 6

$$$$
=
 OpenBabel11052417593D

 31 34  0  0  1  0  0  0  0  0999 V2000
  185.1710  178.0270  146.7980 C   0  0  0  0  0  0  0  0  0  0  0  0
  186.9830  176.7060  143.6940 C   0  0  2  0  0  3  0  0  0  0  0  0
  186.1950  177.2770  142.5180 C   0  0  0  0  0  0  0  0  0  0  0  0
  184.2610  178.3890  141.5730 C   0  0  0  0  0  3  0  0  0  0  0  0
  186.7410  177.3250  145.0680 C   0  0  0  0  0  0  0  0  0  0  0  0
  186.2280  178.2650  147.6750 C   0  0  0  0  0  3  0  0  0  0  0  0
  184.9720  177.9400  142.6860 C   0  0  0  0  0  3  0  0  0  0  0  0
  189.3700  176.2120  144.4870 C   0  0  2  0  0  3  0  0  0  0  0  0
  183.8650  178.2660  147.2020 O   0  0  0  0  0  1  0  0  0  0  0  0
  187.9040  176.3730  140.9790 N   0  0  0  0  0  2  0  0  0  0  0  0
  184.7450  178.1750  140.3230 N   0  0  0  0  0  0  0  0  0  0  0  0
  189.2320  177.1830  145.6560 C   0  0  0  0  0  2  0  0  0  0  0  0
  188.4740  176.6410  143.3280 C   0  0  1  0  0  3  0  0  0  0  0  0
  185.4270  177.5470  145.5130 C   0  0  0  0  0  3  0  0  0  0  0  0
  186.3620  177.3300  138.8490 F   0  0  0  0  0  0  0  0  0  0  0  0
  187.8020  177.5000  145.9950 C   0  0  0  0  0  0  0  0  0  0  0  0
  187.5360  177.9970  147.2740 C   0  0  0  0  0  3  0  0  0  0  0  0
  188.6730  175.7970  142.0760 C   0  0  0  0  0  2  0  0  0  0  0  0
  186.6580  177.0460  141.2030 C   0  0  0  0  0  0  0  0  0  0  0  0
  185.9170  177.5210  140.1150 C   0  0  0  0  0  0  0  0  0  0  0  0
  189.3200  174.7200  144.8650 C   0  0  0  0  0  2  0  0  0  0  0  0
  192.6590  173.2290  144.6190 O   0  0  0  0  0  0  0  0  0  0  0  0
  191.7370  174.0080  144.9870 C   0  0  0  0  0  0  0  0  0  0  0  0
  190.4490  173.9480  144.3510 N   0  0  0  0  0  0  0  0  0  0  0  0
  189.4050  172.0450  143.2260 C   0  0  0  0  0  1  0  0  0  0  0  0
  190.2920  173.2670  143.0710 C   0  0  0  0  0  2  0  0  0  0  0  0
  192.0210  175.0220  146.0540 C   0  0  0  0  0  2  0  0  0  0  0  0
  192.8480  176.1840  145.5190 C   0  0  0  0  0  2  0  0  0  0  0  0
  194.1180  176.3840  146.3310 C   0  0  2  0  0  3  0  0  0  0  0  0
  194.7860  177.5930  145.8870 N   0  0  0  0  0  1  0  0  0  0  0  0
  195.0480  175.2000  146.1460 C   0  0  0  0  0  1  0  0  0  0  0  0
  1  9  1  0  0  0  0
  1  6  1  0  0  0  0
  2  3  1  6  0  0  0
  2  5  1  0  0  0  0
  3  7  1  0  0  0  0
  4  7  2  0  0  0  0
  5 14  1  0  0  0  0
  5 16  2  0  0  0  0
  8 21  1  1  0  0  0
  8 12  1  0  0  0  0
 10 19  1  0  0  0  0
 10 18  1  0  0  0  0
 11  4  1  0  0  0  0
 12 16  1  0  0  0  0
 13 18  1  6  0  0  0
 13  2  1  0  0  0  0
 13  8  1  0  0  0  0
 14  1  2  0  0  0  0
 15 20  1  0  0  0  0
 16 17  1  0  0  0  0
 17  6  2  0  0  0  0
 19  3  2  0  0  0  0
 20 11  2  0  0  0  0
 20 19  1  0  0  0  0
 22 23  2  0  0  0  0
 23 27  1  0  0  0  0
 24 21  1  0  0  0  0
 24 23  1  0  0  0  0
 26 25  1  0  0  0  0
 26 24  1  0  0  0  0
 28 27  1  0  0  0  0
 28 29  1  0  0  0  0
 29 31  1  6  0  0  0
 30 29  1  0  0  0  0
M  END
>  <MODEL>
5

>  <REMARK>
 VINA RESULT:      -7.5      3.082      4.591
  Name = 
  6 active torsions:
  status: ('A' for Active; 'I' for Inactive)
    1  A    between atoms: C_1  and  C_24
    2  A    between atoms: C_6  and  C_19
    3  A    between atoms: C_6  and  C_24
    4  A    between atoms: C_9  and  N_22
    5  A    between atoms: C_15  and  C_23
    6  A    between atoms: N_22  and  C_23
                            x       y       z     vdW  Elec       q    Type
                         _______ _______ _______ _____ _____    ______ ____

>  <TORSDO>
F 6

$$$$
=
 OpenBabel11052417593D

 31 34  0  0  1  0  0  0  0  0999 V2000
  192.7600  176.4660  145.9500 C   0  0  0  0  0  0  0  0  0  0  0  0
  189.5580  176.0440  143.8930 C   0  0  2  0  0  3  0  0  0  0  0  0
  189.9810  175.1960  142.6960 C   0  0  0  0  0  0  0  0  0  0  0  0
  191.6600  174.1690  141.2840 C   0  0  0  0  0  3  0  0  0  0  0  0
  190.5090  176.0980  145.0860 C   0  0  0  0  0  0  0  0  0  0  0  0
  192.2770  176.4200  147.2560 C   0  0  0  0  0  3  0  0  0  0  0  0
  191.3220  174.8970  142.4250 C   0  0  0  0  0  3  0  0  0  0  0  0
  187.6490  176.3750  145.5720 C   0  0  2  0  0  3  0  0  0  0  0  0
  194.1140  176.6570  145.7150 O   0  0  0  0  0  1  0  0  0  0  0  0
  187.6130  175.0610  142.0000 N   0  0  0  0  0  2  0  0  0  0  0  0
  190.6920  173.7590  140.4250 N   0  0  0  0  0  0  0  0  0  0  0  0
  188.5570  176.0110  146.7440 C   0  0  0  0  0  2  0  0  0  0  0  0
  188.1210  175.6810  144.2970 C   0  0  1  0  0  3  0  0  0  0  0  0
  191.8800  176.3220  144.8770 C   0  0  0  0  0  3  0  0  0  0  0  0
  188.4490  173.6150  139.7550 F   0  0  0  0  0  0  0  0  0  0  0  0
  190.0200  176.1280  146.4170 C   0  0  0  0  0  0  0  0  0  0  0  0
  190.9120  176.2560  147.4860 C   0  0  0  0  0  3  0  0  0  0  0  0
  187.1750  175.8850  143.1220 C   0  0  0  0  0  2  0  0  0  0  0  0
  189.0000  174.7800  141.7680 C   0  0  0  0  0  0  0  0  0  0  0  0
  189.3810  174.0450  140.6400 C   0  0  0  0  0  0  0  0  0  0  0  0
  187.3140  177.8720  145.4430 C   0  0  0  0  0  2  0  0  0  0  0  0
  183.7840  178.8530  145.4470 O   0  0  0  0  0  0  0  0  0  0  0  0
  184.9660  178.6970  145.0350 C   0  0  0  0  0  0  0  0  0  0  0  0
  185.9820  178.2170  145.9330 N   0  0  0  0  0  0  0  0  0  0  0  0
  186.8300  179.0860  148.0550 C   0  0  0  0  0  1  0  0  0  0  0  0
  185.7640  178.2470  147.3740 C   0  0  0  0  0  2  0  0  0  0  0  0
  185.3010  179.0650  143.6210 C   0  0  0  0  0  2  0  0  0  0  0  0
  184.7110  178.0730  142.6270 C   0  0  0  0  0  2  0  0  0  0  0  0
  184.7960  178.5950  141.2010 C   0  0  2  0  0  3  0  0  0  0  0  0
  183.5610  178.2890  140.5030 N   0  0  0  0  0  1  0  0  0  0  0  0
  185.9580  177.9440  140.4750 C   0  0  0  0  0  1  0  0  0  0  0  0
  1  6  1  0  0  0  0
  2  3  1  6  0  0  0
  2 13  1  0  0  0  0
  2  5  1  0  0  0  0
  4  7  2  0  0  0  0
  5 16  2  0  0  0  0
  6 17  2  0  0  0  0
  7  3  1  0  0  0  0
  8 21  1  6  0  0  0
  8 12  1  0  0  0  0
  9  1  1  0  0  0  0
 10 18  1  0  0  0  0
 11 20  2  0  0  0  0
 11  4  1  0  0  0  0
 13 18  1  6  0  0  0
 13  8  1  0  0  0  0
 14  5  1  0  0  0  0
 14  1  2  0  0  0  0
 15 20  1  0  0  0  0
 16 12  1  0  0  0  0
 16 17  1  0  0  0  0
 19 10  1  0  0  0  0
 19  3  2  0  0  0  0
 20 19  1  0  0  0  0
 21 24  1  0  0  0  0
 23 22  2  0  0  0  0
 23 24  1  0  0  0  0
 24 26  1  0  0  0  0
 26 25  1  0  0  0  0
 27 23  1  0  0  0  0
 28 27  1  0  0  0  0
 29 31  1  6  0  0  0
 29 28  1  0  0  0  0
 30 29  1  0  0  0  0
M  END
>  <MODEL>
6

>  <REMARK>
 VINA RESULT:      -7.5      3.229      7.758
  Name = 
  6 active torsions:
  status: ('A' for Active; 'I' for Inactive)
    1  A    between atoms: C_1  and  C_24
    2  A    between atoms: C_6  and  C_19
    3  A    between atoms: C_6  and  C_24
    4  A    between atoms: C_9  and  N_22
    5  A    between atoms: C_15  and  C_23
    6  A    between atoms: N_22  and  C_23
                            x       y       z     vdW  Elec       q    Type
                         _______ _______ _______ _____ _____    ______ ____

>  <TORSDO>
F 6

$$$$
=
 OpenBabel11052417593D

 31 34  0  0  1  0  0  0  0  0999 V2000
  191.0240  176.4000  147.1010 C   0  0  0  0  0  0  0  0  0  0  0  0
  187.8320  176.4870  144.9880 C   0  0  2  0  0  3  0  0  0  0  0  0
  186.8580  177.3360  145.8010 C   0  0  0  0  0  0  0  0  0  0  0  0
  186.1820  178.4670  147.8340 C   0  0  0  0  0  3  0  0  0  0  0  0
  189.3080  176.5480  145.3750 C   0  0  0  0  0  0  0  0  0  0  0  0
  192.0210  176.4400  146.1280 C   0  0  0  0  0  3  0  0  0  0  0  0
  187.1320  177.7430  147.1130 C   0  0  0  0  0  3  0  0  0  0  0  0
  188.6190  176.0370  142.5900 C   0  0  2  0  0  3  0  0  0  0  0  0
  191.3660  176.3210  148.4440 O   0  0  0  0  0  1  0  0  0  0  0  0
  185.2620  177.2460  143.9150 N   0  0  0  0  0  2  0  0  0  0  0  0
  184.9830  178.7680  147.2720 N   0  0  0  0  0  0  0  0  0  0  0  0
  190.0330  176.5100  142.9170 C   0  0  0  0  0  2  0  0  0  0  0  0
  187.6020  176.7350  143.4900 C   0  0  1  0  0  3  0  0  0  0  0  0
  189.6820  176.4380  146.7250 C   0  0  0  0  0  3  0  0  0  0  0  0
  183.4600  178.6980  145.4890 F   0  0  0  0  0  0  0  0  0  0  0  0
  190.3290  176.5110  144.3910 C   0  0  0  0  0  0  0  0  0  0  0  0
  191.6730  176.4900  144.7790 C   0  0  0  0  0  3  0  0  0  0  0  0
  186.1600  176.4180  143.1180 C   0  0  0  0  0  2  0  0  0  0  0  0
  185.5910  177.6400  145.2550 C   0  0  0  0  0  0  0  0  0  0  0  0
  184.6700  178.3750  146.0100 C   0  0  0  0  0  0  0  0  0  0  0  0
  188.4560  174.5140  142.4400 C   0  0  0  0  0  2  0  0  0  0  0  0
  191.0650  173.2420  140.2020 O   0  0  0  0  0  0  0  0  0  0  0  0
  189.9500  173.6980  140.5780 C   0  0  0  0  0  0  0  0  0  0  0  0
  189.6670  173.8390  141.9820 N   0  0  0  0  0  0  0  0  0  0  0  0
  189.6710  172.8410  144.2130 C   0  0  0  0  0  1  0  0  0  0  0  0
  190.4860  173.1450  142.9700 C   0  0  0  0  0  2  0  0  0  0  0  0
  188.9160  174.0390  139.5480 C   0  0  0  0  0  2  0  0  0  0  0  0
  188.4190  172.7980  138.8190 C   0  0  0  0  0  2  0  0  0  0  0  0
  188.9250  172.7540  137.3850 C   0  0  2  0  0  3  0  0  0  0  0  0
  190.0180  171.8050  137.2900 N   0  0  0  0  0  1  0  0  0  0  0  0
  189.4140  174.1270  136.9620 C   0  0  0  0  0  1  0  0  0  0  0  0
  1  9  1  0  0  0  0
  2  5  1  1  0  0  0
  2  3  1  0  0  0  0
  3  7  1  0  0  0  0
  5 14  2  0  0  0  0
  6  1  2  0  0  0  0
  7  4  2  0  0  0  0
  8 21  1  1  0  0  0
  8 12  1  0  0  0  0
  8 13  1  0  0  0  0
 10 19  1  0  0  0  0
 11  4  1  0  0  0  0
 12 16  1  0  0  0  0
 13 18  1  6  0  0  0
 13  2  1  0  0  0  0
 14  1  1  0  0  0  0
 15 20  1  0  0  0  0
 16 17  2  0  0  0  0
 16  5  1  0  0  0  0
 17  6  1  0  0  0  0
 18 10  1  0  0  0  0
 19  3  2  0  0  0  0
 19 20  1  0  0  0  0
 20 11  2  0  0  0  0
 22 23  2  0  0  0  0
 23 24  1  0  0  0  0
 24 21  1  0  0  0  0
 24 26  1  0  0  0  0
 26 25  1  0  0  0  0
 27 23  1  0  0  0  0
 28 27  1  0  0  0  0
 29 31  1  1  0  0  0
 29 28  1  0  0  0  0
 30 29  1  0  0  0  0
M  END
>  <MODEL>
7

>  <REMARK>
 VINA RESULT:      -7.5      2.766      5.558
  Name = 
  6 active torsions:
  status: ('A' for Active; 'I' for Inactive)
    1  A    between atoms: C_1  and  C_24
    2  A    between atoms: C_6  and  C_19
    3  A    between atoms: C_6  and  C_24
    4  A    between atoms: C_9  and  N_22
    5  A    between atoms: C_15  and  C_23
    6  A    between atoms: N_22  and  C_23
                            x       y       z     vdW  Elec       q    Type
                         _______ _______ _______ _____ _____    ______ ____

>  <TORSDO>
F 6

$$$$
=
 OpenBabel11052417593D

 31 34  0  0  1  0  0  0  0  0999 V2000
  191.0980  176.4110  147.0460 C   0  0  0  0  0  0  0  0  0  0  0  0
  187.9420  176.3980  144.8770 C   0  0  2  0  0  3  0  0  0  0  0  0
  186.9590  177.2930  145.6260 C   0  0  0  0  0  0  0  0  0  0  0  0
  186.2540  178.5350  147.5830 C   0  0  0  0  0  3  0  0  0  0  0  0
  189.4120  176.4730  145.2850 C   0  0  0  0  0  0  0  0  0  0  0  0
  192.1110  176.3940  146.0900 C   0  0  0  0  0  3  0  0  0  0  0  0
  187.2130  177.7690  146.9180 C   0  0  0  0  0  3  0  0  0  0  0  0
  188.7670  175.8170  142.5200 C   0  0  2  0  0  3  0  0  0  0  0  0
  191.4160  176.4030  148.3960 O   0  0  0  0  0  1  0  0  0  0  0  0
  185.3950  177.1090  143.7200 N   0  0  0  0  0  2  0  0  0  0  0  0
  185.0670  178.8100  146.9850 N   0  0  0  0  0  0  0  0  0  0  0  0
  190.1780  176.3010  142.8450 C   0  0  0  0  0  2  0  0  0  0  0  0
  187.7390  176.5660  143.3630 C   0  0  1  0  0  3  0  0  0  0  0  0
  189.7620  176.4340  146.6450 C   0  0  0  0  0  3  0  0  0  0  0  0
  183.5740  178.6510  145.1830 F   0  0  0  0  0  0  0  0  0  0  0  0
  190.4490  176.3800  144.3220 C   0  0  0  0  0  0  0  0  0  0  0  0
  191.7860  176.3740  144.7340 C   0  0  0  0  0  3  0  0  0  0  0  0
  186.3020  176.2350  142.9840 C   0  0  0  0  0  2  0  0  0  0  0  0
  185.7030  177.5730  145.0420 C   0  0  0  0  0  0  0  0  0  0  0  0
  184.7730  178.3520  145.7410 C   0  0  0  0  0  0  0  0  0  0  0  0
  188.5990  174.2880  142.4480 C   0  0  0  0  0  2  0  0  0  0  0  0
  191.1420  172.2110  140.8190 O   0  0  0  0  0  0  0  0  0  0  0  0
  190.5490  172.8600  141.7250 C   0  0  0  0  0  0  0  0  0  0  0  0
  189.3990  173.6610  141.3990 N   0  0  0  0  0  0  0  0  0  0  0  0
  188.1970  172.9950  139.3770 C   0  0  0  0  0  1  0  0  0  0  0  0
  189.1190  174.0180  140.0130 C   0  0  0  0  0  2  0  0  0  0  0  0
  191.0900  172.8250  143.1220 C   0  0  0  0  0  2  0  0  0  0  0  0
  192.5600  173.2210  143.1650 C   0  0  0  0  0  2  0  0  0  0  0  0
  193.3560  172.3080  144.0840 C   0  0  2  0  0  3  0  0  0  0  0  0
  192.6080  171.0860  144.3130 N   0  0  0  0  0  1  0  0  0  0  0  0
  193.6100  172.9960  145.4120 C   0  0  0  0  0  1  0  0  0  0  0  0
  1  9  1  0  0  0  0
  2  5  1  6  0  0  0
  2  3  1  0  0  0  0
  3  7  1  0  0  0  0
  5 14  2  0  0  0  0
  6  1  2  0  0  0  0
  7  4  2  0  0  0  0
  8 21  1  1  0  0  0
  8 12  1  0  0  0  0
  8 13  1  0  0  0  0
 10 19  1  0  0  0  0
 11  4  1  0  0  0  0
 12 16  1  0  0  0  0
 13 18  1  6  0  0  0
 13  2  1  0  0  0  0
 14  1  1  0  0  0  0
 15 20  1  0  0  0  0
 16 17  2  0  0  0  0
 16  5  1  0  0  0  0
 17  6  1  0  0  0  0
 18 10  1  0  0  0  0
 19  3  2  0  0  0  0
 19 20  1  0  0  0  0
 20 11  2  0  0  0  0
 22 23  2  0  0  0  0
 23 27  1  0  0  0  0
 24 23  1  0  0  0  0
 24 21  1  0  0  0  0
 25 26  1  0  0  0  0
 26 24  1  0  0  0  0
 27 28  1  0  0  0  0
 28 29  1  0  0  0  0
 29 30  1  0  0  0  0
 29 31  1  1  0  0  0
M  END
>  <MODEL>
8

>  <REMARK>
 VINA RESULT:      -7.5      2.430      4.326
  Name = 
  6 active torsions:
  status: ('A' for Active; 'I' for Inactive)
    1  A    between atoms: C_1  and  C_24
    2  A    between atoms: C_6  and  C_19
    3  A    between atoms: C_6  and  C_24
    4  A    between atoms: C_9  and  N_22
    5  A    between atoms: C_15  and  C_23
    6  A    between atoms: N_22  and  C_23
                            x       y       z     vdW  Elec       q    Type
                         _______ _______ _______ _____ _____    ______ ____

>  <TORSDO>
F 6

$$$$
=
 OpenBabel11052417593D

 31 34  0  0  1  0  0  0  0  0999 V2000
  189.5390  172.6020  141.5090 C   0  0  0  0  0  0  0  0  0  0  0  0
  189.4970  175.3900  144.1340 C   0  0  2  0  0  3  0  0  0  0  0  0
  190.7910  175.1960  144.9200 C   0  0  0  0  0  0  0  0  0  0  0  0
  192.7510  173.9130  145.5370 C   0  0  0  0  0  3  0  0  0  0  0  0
  189.3740  174.6690  142.7940 C   0  0  0  0  0  0  0  0  0  0  0  0
  188.9690  173.2310  140.4040 C   0  0  0  0  0  3  0  0  0  0  0  0
  191.6100  174.0720  144.7510 C   0  0  0  0  0  3  0  0  0  0  0  0
  187.9770  177.2020  143.1440 C   0  0  2  0  0  3  0  0  0  0  0  0
  189.9210  171.2700  141.4310 O   0  0  0  0  0  1  0  0  0  0  0  0
  190.3250  177.2960  146.1370 N   0  0  0  0  0  2  0  0  0  0  0  0
  193.0660  174.8400  146.4780 N   0  0  0  0  0  0  0  0  0  0  0  0
  188.2110  176.6880  141.7260 C   0  0  0  0  0  2  0  0  0  0  0  0
  189.1800  176.8900  144.0300 C   0  0  1  0  0  3  0  0  0  0  0  0
  189.7240  173.3120  142.6960 C   0  0  0  0  0  3  0  0  0  0  0  0
  192.6410  176.8340  147.6380 F   0  0  0  0  0  0  0  0  0  0  0  0
  188.7260  175.2760  141.6870 C   0  0  0  0  0  0  0  0  0  0  0  0
  188.5600  174.5610  140.4970 C   0  0  0  0  0  3  0  0  0  0  0  0
  189.0720  177.5040  145.4190 C   0  0  0  0  0  2  0  0  0  0  0  0
  191.1310  176.1280  145.9250 C   0  0  0  0  0  0  0  0  0  0  0  0
  192.2890  175.9340  146.6870 C   0  0  0  0  0  0  0  0  0  0  0  0
  186.5950  176.8740  143.7390 C   0  0  0  0  0  2  0  0  0  0  0  0
  184.5270  179.8960  143.8820 O   0  0  0  0  0  0  0  0  0  0  0  0
  185.3160  178.9860  144.2570 C   0  0  0  0  0  0  0  0  0  0  0  0
  185.5660  177.8550  143.4040 N   0  0  0  0  0  0  0  0  0  0  0  0
  185.1240  178.2940  141.0400 C   0  0  0  0  0  1  0  0  0  0  0  0
  184.6710  177.5620  142.2900 C   0  0  0  0  0  2  0  0  0  0  0  0
  185.9430  179.0770  145.6160 C   0  0  0  0  0  2  0  0  0  0  0  0
  184.9750  178.6480  146.7110 C   0  0  0  0  0  2  0  0  0  0  0  0
  185.7070  178.0230  147.8880 C   0  0  2  0  0  3  0  0  0  0  0  0
  186.7520  178.9240  148.3360 N   0  0  0  0  0  1  0  0  0  0  0  0
  186.3270  176.7010  147.4750 C   0  0  0  0  0  1  0  0  0  0  0  0
  1 14  1  0  0  0  0
  2  5  1  6  0  0  0
  2  3  1  0  0  0  0
  3 19  1  0  0  0  0
  4 11  2  0  0  0  0
  6 17  1  0  0  0  0
  6  1  2  0  0  0  0
  7  3  2  0  0  0  0
  7  4  1  0  0  0  0
  8 21  1  1  0  0  0
  8 13  1  0  0  0  0
  9  1  1  0  0  0  0
 11 20  1  0  0  0  0
 12  8  1  0  0  0  0
 13  2  1  0  0  0  0
 13 18  1  1  0  0  0
 14  5  2  0  0  0  0
 16 12  1  0  0  0  0
 16  5  1  0  0  0  0
 17 16  2  0  0  0  0
 18 10  1  0  0  0  0
 19 10  1  0  0  0  0
 19 20  2  0  0  0  0
 20 15  1  0  0  0  0
 22 23  2  0  0  0  0
 23 27  1  0  0  0  0
 24 21  1  0  0  0  0
 24 23  1  0  0  0  0
 25 26  1  0  0  0  0
 26 24  1  0  0  0  0
 27 28  1  0  0  0  0
 28 29  1  0  0  0  0
 29 31  1  6  0  0  0
 29 30  1  0  0  0  0
M  END
>  <MODEL>
9

>  <REMARK>
 VINA RESULT:      -7.3      2.667      6.749
  Name = 
  6 active torsions:
  status: ('A' for Active; 'I' for Inactive)
    1  A    between atoms: C_1  and  C_24
    2  A    between atoms: C_6  and  C_19
    3  A    between atoms: C_6  and  C_24
    4  A    between atoms: C_9  and  N_22
    5  A    between atoms: C_15  and  C_23
    6  A    between atoms: N_22  and  C_23
                            x       y       z     vdW  Elec       q    Type
                         _______ _______ _______ _____ _____    ______ ____

>  <TORSDO>
F 6

$$$$
