=
 OpenBabel11052417253D

 25 27  0  0  1  0  0  0  0  0999 V2000
  187.9830  177.5300  145.0840 N   0  0  0  0  0  0  0  0  0  0  0  0
  186.8610  178.3230  144.6870 C   0  0  0  0  0  0  0  0  0  0  0  0
  186.4410  178.0300  148.1760 N   0  0  0  0  0  2  0  0  0  0  0  0
  186.6570  177.8510  146.9160 C   0  0  0  0  0  0  0  0  0  0  0  0
  184.5740  178.2530  145.5530 C   0  0  1  0  0  3  0  0  0  0  0  0
  183.7450  178.5030  146.6280 F   0  0  0  0  0  0  0  0  0  0  0  0
  186.4130  178.4080  143.4320 C   0  0  0  0  0  3  0  0  0  0  0  0
  187.8560  177.2400  146.4440 N   0  0  0  0  0  2  0  0  0  0  0  0
  184.0700  179.0150  144.3220 C   0  0  0  0  0  2  0  0  0  0  0  0
  185.0750  179.0470  143.1380 C   0  0  2  0  0  3  0  0  0  0  0  0
  186.0060  178.6890  145.8610 C   0  0  2  0  0  3  0  0  0  0  0  0
  189.1750  177.2640  144.3140 C   0  0  0  0  0  0  0  0  0  0  0  0
  191.5290  176.7820  142.8480 C   0  0  0  0  0  3  0  0  0  0  0  0
  189.2600  176.1580  143.4340 C   0  0  0  0  0  0  0  0  0  0  0  0
  190.4350  175.9240  142.7150 C   0  0  0  0  0  3  0  0  0  0  0  0
  191.4550  177.8790  143.7060 C   0  0  0  0  0  3  0  0  0  0  0  0
  188.1620  175.2690  143.2490 N   0  0  0  0  0  1  0  0  0  0  0  0
  190.2870  178.1160  144.4320 C   0  0  0  0  0  3  0  0  0  0  0  0
  184.5050  178.4450  142.0120 O   0  0  0  0  0  0  0  0  0  0  0  0
  183.1460  178.3150  142.3100 C   0  0  0  0  0  2  0  0  0  0  0  0
  182.3560  177.9820  141.0400 C   0  0  2  0  0  3  0  0  0  0  0  0
  183.2070  178.0060  139.9370 O   0  0  0  0  0  1  0  0  0  0  0  0
  181.2120  178.8740  140.8110 N   0  0  0  0  0  0  0  0  0  0  0  0
  180.1530  178.1260  140.1500 C   0  0  0  0  0  1  0  0  0  0  0  0
  180.6810  179.3750  142.0740 C   0  0  0  0  0  1  0  0  0  0  0  0
  1  8  1  0  0  0  0
  2  1  1  0  0  0  0
  4  3  2  0  0  0  0
  5 11  1  0  0  0  0
  5  6  1  1  0  0  0
  7  2  2  0  0  0  0
  8  4  1  0  0  0  0
  9  5  1  0  0  0  0
 10 19  1  6  0  0  0
 10  7  1  0  0  0  0
 10  9  1  0  0  0  0
 11  2  1  6  0  0  0
 11  4  1  0  0  0  0
 12 18  1  0  0  0  0
 12  1  1  0  0  0  0
 13 16  1  0  0  0  0
 14 12  2  0  0  0  0
 15 13  2  0  0  0  0
 15 14  1  0  0  0  0
 16 18  2  0  0  0  0
 17 14  1  0  0  0  0
 19 20  1  0  0  0  0
 21 22  1  6  0  0  0
 21 20  1  0  0  0  0
 23 21  1  0  0  0  0
 23 25  1  0  0  0  0
 24 23  1  0  0  0  0
M  END
>  <MODEL>
1

>  <REMARK>
 VINA RESULT:      -7.0      0.000      0.000
  Name = 
  5 active torsions:
  status: ('A' for Active; 'I' for Inactive)
    1  A    between atoms: N_1  and  C_5
    2  A    between atoms: N_2  and  C_21
    3  A    between atoms: O_6  and  C_15
    4  A    between atoms: O_6  and  C_23
    5  A    between atoms: C_15  and  C_21
                            x       y       z     vdW  Elec       q    Type
                         _______ _______ _______ _____ _____    ______ ____

>  <TORSDO>
F 5

$$$$
=
 OpenBabel11052417253D

 25 27  0  0  1  0  0  0  0  0999 V2000
  189.3350  175.5990  143.6990 N   0  0  0  0  0  0  0  0  0  0  0  0
  188.0750  176.0910  143.2370 C   0  0  0  0  0  0  0  0  0  0  0  0
  189.1240  173.9830  140.6110 N   0  0  0  0  0  2  0  0  0  0  0  0
  189.0180  174.8460  141.5650 C   0  0  0  0  0  0  0  0  0  0  0  0
  187.4340  176.7100  140.9580 C   0  0  1  0  0  3  0  0  0  0  0  0
  187.1730  176.2660  139.6770 F   0  0  0  0  0  0  0  0  0  0  0  0
  187.4680  177.1730  143.7310 C   0  0  0  0  0  3  0  0  0  0  0  0
  189.9110  174.8420  142.6780 N   0  0  0  0  0  2  0  0  0  0  0  0
  186.2230  177.4820  141.4940 C   0  0  0  0  0  2  0  0  0  0  0  0
  186.2800  177.7780  143.0180 C   0  0  2  0  0  3  0  0  0  0  0  0
  187.7300  175.5350  141.8890 C   0  0  2  0  0  3  0  0  0  0  0  0
  189.8430  175.6450  145.0490 C   0  0  0  0  0  0  0  0  0  0  0  0
  190.8040  175.6870  147.6950 C   0  0  0  0  0  3  0  0  0  0  0  0
  190.9450  176.4610  145.4010 C   0  0  0  0  0  0  0  0  0  0  0  0
  191.4180  176.4700  146.7160 C   0  0  0  0  0  3  0  0  0  0  0  0
  189.7130  174.8840  147.3620 C   0  0  0  0  0  3  0  0  0  0  0  0
  191.5900  177.2940  144.4410 N   0  0  0  0  0  1  0  0  0  0  0  0
  189.2370  174.8650  146.0500 C   0  0  0  0  0  3  0  0  0  0  0  0
  186.2540  179.1590  143.2370 O   0  0  0  0  0  0  0  0  0  0  0  0
  185.8890  179.3140  144.5770 C   0  0  0  0  0  2  0  0  0  0  0  0
  184.6400  178.4810  144.8830 C   0  0  2  0  0  3  0  0  0  0  0  0
  183.5000  179.1800  144.4920 O   0  0  0  0  0  1  0  0  0  0  0  0
  184.5290  178.0860  146.2930 N   0  0  0  0  0  0  0  0  0  0  0  0
  185.0300  176.7280  146.4460 C   0  0  0  0  0  1  0  0  0  0  0  0
  185.3360  178.9560  147.1420 C   0  0  0  0  0  1  0  0  0  0  0  0
  1 12  1  0  0  0  0
  2  1  1  0  0  0  0
  2  7  2  0  0  0  0
  3  4  2  0  0  0  0
  4  8  1  0  0  0  0
  5  6  1  6  0  0  0
  5  9  1  0  0  0  0
  5 11  1  0  0  0  0
  8  1  1  0  0  0  0
  9 10  1  0  0  0  0
 10 19  1  6  0  0  0
 10  7  1  0  0  0  0
 11  4  1  6  0  0  0
 11  2  1  0  0  0  0
 12 14  2  0  0  0  0
 12 18  1  0  0  0  0
 14 15  1  0  0  0  0
 15 13  2  0  0  0  0
 16 13  1  0  0  0  0
 17 14  1  0  0  0  0
 18 16  2  0  0  0  0
 19 20  1  0  0  0  0
 20 21  1  0  0  0  0
 21 22  1  1  0  0  0
 21 23  1  0  0  0  0
 23 24  1  0  0  0  0
 23 25  1  0  0  0  0
M  END
>  <MODEL>
2

>  <REMARK>
 VINA RESULT:      -7.0      3.385      5.044
  Name = 
  5 active torsions:
  status: ('A' for Active; 'I' for Inactive)
    1  A    between atoms: N_1  and  C_5
    2  A    between atoms: N_2  and  C_21
    3  A    between atoms: O_6  and  C_15
    4  A    between atoms: O_6  and  C_23
    5  A    between atoms: C_15  and  C_21
                            x       y       z     vdW  Elec       q    Type
                         _______ _______ _______ _____ _____    ______ ____

>  <TORSDO>
F 5

$$$$
=
 OpenBabel11052417253D

 25 27  0  0  1  0  0  0  0  0999 V2000
  187.1540  176.7150  143.5980 N   0  0  0  0  0  0  0  0  0  0  0  0
  188.5430  177.0420  143.5050 C   0  0  0  0  0  0  0  0  0  0  0  0
  187.9870  175.0770  140.6290 N   0  0  0  0  0  2  0  0  0  0  0  0
  188.0290  175.5900  141.8120 C   0  0  0  0  0  0  0  0  0  0  0  0
  190.3820  175.6310  142.7190 C   0  0  1  0  0  3  0  0  0  0  0  0
  190.9640  174.9980  141.6380 F   0  0  0  0  0  0  0  0  0  0  0  0
  189.2790  177.4780  144.5290 C   0  0  0  0  0  3  0  0  0  0  0  0
  186.8430  175.8270  142.5670 N   0  0  0  0  0  2  0  0  0  0  0  0
  191.4000  176.5670  143.3800 C   0  0  0  0  0  2  0  0  0  0  0  0
  190.7850  177.5460  144.4170 C   0  0  2  0  0  3  0  0  0  0  0  0
  189.1660  176.4450  142.2790 C   0  0  2  0  0  3  0  0  0  0  0  0
  186.1660  177.3530  144.4340 C   0  0  0  0  0  0  0  0  0  0  0  0
  184.2520  178.5600  146.1100 C   0  0  0  0  0  3  0  0  0  0  0  0
  185.5890  178.5980  144.0860 C   0  0  0  0  0  0  0  0  0  0  0  0
  184.6450  179.1920  144.9270 C   0  0  0  0  0  3  0  0  0  0  0  0
  184.8090  177.3300  146.4600 C   0  0  0  0  0  3  0  0  0  0  0  0
  185.9410  179.2690  142.8790 N   0  0  0  0  0  1  0  0  0  0  0  0
  185.7570  176.7330  145.6280 C   0  0  0  0  0  3  0  0  0  0  0  0
  191.3600  177.3320  145.6740 O   0  0  0  0  0  0  0  0  0  0  0  0
  190.2940  177.0100  146.5190 C   0  0  0  0  0  2  0  0  0  0  0  0
  190.6530  175.7950  147.3810 C   0  0  2  0  0  3  0  0  0  0  0  0
  191.9280  175.3430  147.0490 O   0  0  0  0  0  1  0  0  0  0  0  0
  189.6860  174.6950  147.2750 N   0  0  0  0  0  0  0  0  0  0  0  0
  188.3410  175.2290  147.4290 C   0  0  0  0  0  1  0  0  0  0  0  0
  189.7630  174.0580  145.9640 C   0  0  0  0  0  1  0  0  0  0  0  0
  1 12  1  0  0  0  0
  2  1  1  0  0  0  0
  2  7  2  0  0  0  0
  3  4  2  0  0  0  0
  4  8  1  0  0  0  0
  5  6  1  6  0  0  0
  5  9  1  0  0  0  0
  8  1  1  0  0  0  0
  9 10  1  0  0  0  0
 10  7  1  0  0  0  0
 10 19  1  1  0  0  0
 11  4  1  1  0  0  0
 11  5  1  0  0  0  0
 11  2  1  0  0  0  0
 12 18  1  0  0  0  0
 13 16  1  0  0  0  0
 14 12  2  0  0  0  0
 14 15  1  0  0  0  0
 15 13  2  0  0  0  0
 17 14  1  0  0  0  0
 18 16  2  0  0  0  0
 19 20  1  0  0  0  0
 20 21  1  0  0  0  0
 21 22  1  6  0  0  0
 23 21  1  0  0  0  0
 23 24  1  0  0  0  0
 25 23  1  0  0  0  0
M  END
>  <MODEL>
3

>  <REMARK>
 VINA RESULT:      -6.9      4.136      7.506
  Name = 
  5 active torsions:
  status: ('A' for Active; 'I' for Inactive)
    1  A    between atoms: N_1  and  C_5
    2  A    between atoms: N_2  and  C_21
    3  A    between atoms: O_6  and  C_15
    4  A    between atoms: O_6  and  C_23
    5  A    between atoms: C_15  and  C_21
                            x       y       z     vdW  Elec       q    Type
                         _______ _______ _______ _____ _____    ______ ____

>  <TORSDO>
F 5

$$$$
=
 OpenBabel11052417253D

 25 27  0  0  1  0  0  0  0  0999 V2000
  187.5230  176.7150  143.9800 N   0  0  0  0  0  0  0  0  0  0  0  0
  188.9320  176.9230  143.8490 C   0  0  0  0  0  0  0  0  0  0  0  0
  188.0640  175.3730  140.8020 N   0  0  0  0  0  2  0  0  0  0  0  0
  188.2070  175.7350  142.0330 C   0  0  0  0  0  0  0  0  0  0  0  0
  190.5900  175.4550  142.8080 C   0  0  1  0  0  3  0  0  0  0  0  0
  191.0600  174.9050  141.6320 F   0  0  0  0  0  0  0  0  0  0  0  0
  189.7500  177.1660  144.8750 C   0  0  0  0  0  3  0  0  0  0  0  0
  187.0830  175.9870  142.8730 N   0  0  0  0  0  2  0  0  0  0  0  0
  191.7210  176.2090  143.5150 C   0  0  0  0  0  2  0  0  0  0  0  0
  191.2490  177.1100  144.6890 C   0  0  2  0  0  3  0  0  0  0  0  0
  189.4400  176.4220  142.5310 C   0  0  2  0  0  3  0  0  0  0  0  0
  186.6390  177.3350  144.9370 C   0  0  0  0  0  0  0  0  0  0  0  0
  184.9350  178.5120  146.8450 C   0  0  0  0  0  3  0  0  0  0  0  0
  185.9480  178.5360  144.6410 C   0  0  0  0  0  0  0  0  0  0  0  0
  185.1100  179.1150  145.5970 C   0  0  0  0  0  3  0  0  0  0  0  0
  185.6050  177.3260  147.1450 C   0  0  0  0  0  3  0  0  0  0  0  0
  186.0770  179.1750  143.3740 N   0  0  0  0  0  1  0  0  0  0  0  0
  186.4480  176.7440  146.1980 C   0  0  0  0  0  3  0  0  0  0  0  0
  191.8550  176.6970  145.8810 O   0  0  0  0  0  0  0  0  0  0  0  0
  192.8200  175.7610  145.5000 C   0  0  0  0  0  2  0  0  0  0  0  0
  194.0500  175.8720  146.4070 C   0  0  2  0  0  3  0  0  0  0  0  0
  194.1400  177.1640  146.9210 O   0  0  0  0  0  1  0  0  0  0  0  0
  195.3060  175.5090  145.7380 N   0  0  0  0  0  0  0  0  0  0  0  0
  195.3310  174.0690  145.5270 C   0  0  0  0  0  1  0  0  0  0  0  0
  195.4060  176.1510  144.4320 C   0  0  0  0  0  1  0  0  0  0  0  0
  1 12  1  0  0  0  0
  2  1  1  0  0  0  0
  2  7  2  0  0  0  0
  3  4  2  0  0  0  0
  4  8  1  0  0  0  0
  5  6  1  6  0  0  0
  5  9  1  0  0  0  0
  8  1  1  0  0  0  0
  9 10  1  0  0  0  0
 10  7  1  0  0  0  0
 10 19  1  1  0  0  0
 11  4  1  1  0  0  0
 11  5  1  0  0  0  0
 11  2  1  0  0  0  0
 12 18  1  0  0  0  0
 13 16  1  0  0  0  0
 14 12  2  0  0  0  0
 14 15  1  0  0  0  0
 15 13  2  0  0  0  0
 17 14  1  0  0  0  0
 18 16  2  0  0  0  0
 20 19  1  0  0  0  0
 20 21  1  0  0  0  0
 21 22  1  6  0  0  0
 23 21  1  0  0  0  0
 24 23  1  0  0  0  0
 25 23  1  0  0  0  0
M  END
>  <MODEL>
4

>  <REMARK>
 VINA RESULT:      -6.8      4.379      8.717
  Name = 
  5 active torsions:
  status: ('A' for Active; 'I' for Inactive)
    1  A    between atoms: N_1  and  C_5
    2  A    between atoms: N_2  and  C_21
    3  A    between atoms: O_6  and  C_15
    4  A    between atoms: O_6  and  C_23
    5  A    between atoms: C_15  and  C_21
                            x       y       z     vdW  Elec       q    Type
                         _______ _______ _______ _____ _____    ______ ____

>  <TORSDO>
F 5

$$$$
=
 OpenBabel11052417253D

 25 27  0  0  1  0  0  0  0  0999 V2000
  187.7980  176.9500  146.0510 N   0  0  0  0  0  0  0  0  0  0  0  0
  187.4760  177.6950  144.8740 C   0  0  0  0  0  0  0  0  0  0  0  0
  184.4160  177.6000  146.6250 N   0  0  0  0  0  2  0  0  0  0  0  0
  185.5490  177.3520  146.0590 C   0  0  0  0  0  0  0  0  0  0  0  0
  185.4150  177.6310  143.5570 C   0  0  1  0  0  3  0  0  0  0  0  0
  184.0670  177.9270  143.5170 F   0  0  0  0  0  0  0  0  0  0  0  0
  188.2180  177.6970  143.7640 C   0  0  0  0  0  3  0  0  0  0  0  0
  186.6210  176.7380  146.7720 N   0  0  0  0  0  2  0  0  0  0  0  0
  186.1280  178.3080  142.3820 C   0  0  0  0  0  2  0  0  0  0  0  0
  187.6780  178.2910  142.4830 C   0  0  2  0  0  3  0  0  0  0  0  0
  186.0370  178.1130  144.8660 C   0  0  2  0  0  3  0  0  0  0  0  0
  189.1160  176.6630  146.5640 C   0  0  0  0  0  0  0  0  0  0  0  0
  191.6790  176.1420  147.6060 C   0  0  0  0  0  3  0  0  0  0  0  0
  189.8360  175.5110  146.1620 C   0  0  0  0  0  0  0  0  0  0  0  0
  191.1050  175.2590  146.6900 C   0  0  0  0  0  3  0  0  0  0  0  0
  190.9830  177.2830  148.0040 C   0  0  0  0  0  3  0  0  0  0  0  0
  189.3000  174.5930  145.2120 N   0  0  0  0  0  1  0  0  0  0  0  0
  189.7130  177.5400  147.4860 C   0  0  0  0  0  3  0  0  0  0  0  0
  188.2210  177.6130  141.3860 O   0  0  0  0  0  0  0  0  0  0  0  0
  188.8130  176.4640  141.9180 C   0  0  0  0  0  2  0  0  0  0  0  0
  188.1920  175.2120  141.2900 C   0  0  2  0  0  3  0  0  0  0  0  0
  187.4340  174.5350  142.2420 O   0  0  0  0  0  1  0  0  0  0  0  0
  189.1800  174.3030  140.6950 N   0  0  0  0  0  0  0  0  0  0  0  0
  190.1760  173.9620  141.7000 C   0  0  0  0  0  1  0  0  0  0  0  0
  188.5490  173.0630  140.2560 C   0  0  0  0  0  1  0  0  0  0  0  0
  1 12  1  0  0  0  0
  1  8  1  0  0  0  0
  2  1  1  0  0  0  0
  4  3  2  0  0  0  0
  4  8  1  0  0  0  0
  5  6  1  1  0  0  0
  5 11  1  0  0  0  0
  7  2  2  0  0  0  0
  9 10  1  0  0  0  0
  9  5  1  0  0  0  0
 10 19  1  6  0  0  0
 10  7  1  0  0  0  0
 11  2  1  6  0  0  0
 11  4  1  0  0  0  0
 12 18  1  0  0  0  0
 13 16  1  0  0  0  0
 14 12  2  0  0  0  0
 14 15  1  0  0  0  0
 15 13  2  0  0  0  0
 17 14  1  0  0  0  0
 18 16  2  0  0  0  0
 19 20  1  0  0  0  0
 21 20  1  0  0  0  0
 21 22  1  1  0  0  0
 23 21  1  0  0  0  0
 23 24  1  0  0  0  0
 25 23  1  0  0  0  0
M  END
>  <MODEL>
5

>  <REMARK>
 VINA RESULT:      -6.8      3.127      4.795
  Name = 
  5 active torsions:
  status: ('A' for Active; 'I' for Inactive)
    1  A    between atoms: N_1  and  C_5
    2  A    between atoms: N_2  and  C_21
    3  A    between atoms: O_6  and  C_15
    4  A    between atoms: O_6  and  C_23
    5  A    between atoms: C_15  and  C_21
                            x       y       z     vdW  Elec       q    Type
                         _______ _______ _______ _____ _____    ______ ____

>  <TORSDO>
F 5

$$$$
=
 OpenBabel11052417253D

 25 27  0  0  1  0  0  0  0  0999 V2000
  187.6340  177.0030  146.2970 N   0  0  0  0  0  0  0  0  0  0  0  0
  187.2350  177.8750  145.2370 C   0  0  0  0  0  0  0  0  0  0  0  0
  184.6870  178.3120  147.6380 N   0  0  0  0  0  2  0  0  0  0  0  0
  185.5860  177.8680  146.8240 C   0  0  0  0  0  0  0  0  0  0  0  0
  184.9730  178.3340  144.4240 C   0  0  1  0  0  3  0  0  0  0  0  0
  183.7490  178.9100  144.6970 F   0  0  0  0  0  0  0  0  0  0  0  0
  187.6980  177.7950  143.9880 C   0  0  0  0  0  3  0  0  0  0  0  0
  186.6260  176.9970  147.2640 N   0  0  0  0  0  2  0  0  0  0  0  0
  185.5440  178.9230  143.1290 C   0  0  0  0  0  2  0  0  0  0  0  0
  187.0360  178.5730  142.8740 C   0  0  2  0  0  3  0  0  0  0  0  0
  185.9570  178.5870  145.5650 C   0  0  2  0  0  3  0  0  0  0  0  0
  188.9360  176.4110  146.4910 C   0  0  0  0  0  0  0  0  0  0  0  0
  191.4640  175.2180  146.8270 C   0  0  0  0  0  3  0  0  0  0  0  0
  189.9360  177.0510  147.2630 C   0  0  0  0  0  0  0  0  0  0  0  0
  191.1890  176.4530  147.4190 C   0  0  0  0  0  3  0  0  0  0  0  0
  190.4850  174.5760  146.0700 C   0  0  0  0  0  3  0  0  0  0  0  0
  189.6940  178.3000  147.9050 N   0  0  0  0  0  1  0  0  0  0  0  0
  189.2320  175.1680  145.9050 C   0  0  0  0  0  3  0  0  0  0  0  0
  187.1620  177.8700  141.6710 O   0  0  0  0  0  0  0  0  0  0  0  0
  188.2150  176.9730  141.8750 C   0  0  0  0  0  2  0  0  0  0  0  0
  187.8170  175.5740  141.3950 C   0  0  2  0  0  3  0  0  0  0  0  0
  187.0770  174.9300  142.3840 O   0  0  0  0  0  1  0  0  0  0  0  0
  188.9600  174.7420  141.0010 N   0  0  0  0  0  0  0  0  0  0  0  0
  189.8900  174.6540  142.1180 C   0  0  0  0  0  1  0  0  0  0  0  0
  188.5310  173.3870  140.6730 C   0  0  0  0  0  1  0  0  0  0  0  0
  1 12  1  0  0  0  0
  1  8  1  0  0  0  0
  2  1  1  0  0  0  0
  4  8  1  0  0  0  0
  4  3  2  0  0  0  0
  5  6  1  1  0  0  0
  5 11  1  0  0  0  0
  7  2  2  0  0  0  0
  9  5  1  0  0  0  0
 10 19  1  6  0  0  0
 10  9  1  0  0  0  0
 10  7  1  0  0  0  0
 11  2  1  6  0  0  0
 11  4  1  0  0  0  0
 12 14  1  0  0  0  0
 13 15  1  0  0  0  0
 14 15  2  0  0  0  0
 14 17  1  0  0  0  0
 16 13  2  0  0  0  0
 18 16  1  0  0  0  0
 18 12  2  0  0  0  0
 19 20  1  0  0  0  0
 21 20  1  0  0  0  0
 21 22  1  1  0  0  0
 23 21  1  0  0  0  0
 23 24  1  0  0  0  0
 25 23  1  0  0  0  0
M  END
>  <MODEL>
6

>  <REMARK>
 VINA RESULT:      -6.7      3.022      4.643
  Name = 
  5 active torsions:
  status: ('A' for Active; 'I' for Inactive)
    1  A    between atoms: N_1  and  C_5
    2  A    between atoms: N_2  and  C_21
    3  A    between atoms: O_6  and  C_15
    4  A    between atoms: O_6  and  C_23
    5  A    between atoms: C_15  and  C_21
                            x       y       z     vdW  Elec       q    Type
                         _______ _______ _______ _____ _____    ______ ____

>  <TORSDO>
F 5

$$$$
=
 OpenBabel11052417253D

 25 27  0  0  1  0  0  0  0  0999 V2000
  188.8840  176.7580  146.4080 N   0  0  0  0  0  0  0  0  0  0  0  0
  189.5550  175.5130  146.2020 C   0  0  0  0  0  0  0  0  0  0  0  0
  191.5660  177.1180  148.6140 N   0  0  0  0  0  2  0  0  0  0  0  0
  190.8300  176.7940  147.6040 C   0  0  0  0  0  0  0  0  0  0  0  0
  191.9620  175.0800  146.1440 C   0  0  1  0  0  3  0  0  0  0  0  0
  193.1390  175.0310  146.8650 F   0  0  0  0  0  0  0  0  0  0  0  0
  189.3590  174.7240  145.1430 C   0  0  0  0  0  3  0  0  0  0  0  0
  189.6640  177.5410  147.2610 N   0  0  0  0  0  2  0  0  0  0  0  0
  191.7160  173.7290  145.4630 C   0  0  0  0  0  2  0  0  0  0  0  0
  190.2910  173.5660  144.8680 C   0  0  2  0  0  3  0  0  0  0  0  0
  190.7810  175.4020  147.0570 C   0  0  2  0  0  3  0  0  0  0  0  0
  187.5330  177.0910  146.0240 C   0  0  0  0  0  0  0  0  0  0  0  0
  184.8820  177.7350  145.3300 C   0  0  0  0  0  3  0  0  0  0  0  0
  187.2390  177.6640  144.7630 C   0  0  0  0  0  0  0  0  0  0  0  0
  185.9200  177.9850  144.4310 C   0  0  0  0  0  3  0  0  0  0  0  0
  185.1590  177.1650  146.5730 C   0  0  0  0  0  3  0  0  0  0  0  0
  188.2620  177.9170  143.8030 N   0  0  0  0  0  1  0  0  0  0  0  0
  186.4740  176.8460  146.9150 C   0  0  0  0  0  3  0  0  0  0  0  0
  190.3720  173.3460  143.4880 O   0  0  0  0  0  0  0  0  0  0  0  0
  189.3360  172.4550  143.1940 C   0  0  0  0  0  2  0  0  0  0  0  0
  188.8530  172.6650  141.7550 C   0  0  2  0  0  3  0  0  0  0  0  0
  189.6840  171.9780  140.8740 O   0  0  0  0  0  1  0  0  0  0  0  0
  188.7680  174.0790  141.3660 N   0  0  0  0  0  0  0  0  0  0  0  0
  188.5670  174.1630  139.9270 C   0  0  0  0  0  1  0  0  0  0  0  0
  187.6330  174.7300  142.0120 C   0  0  0  0  0  1  0  0  0  0  0  0
  1  8  1  0  0  0  0
  2  1  1  0  0  0  0
  4  3  2  0  0  0  0
  5  6  1  1  0  0  0
  5 11  1  0  0  0  0
  7  2  2  0  0  0  0
  8  4  1  0  0  0  0
  9  5  1  0  0  0  0
 10 19  1  6  0  0  0
 10  7  1  0  0  0  0
 10  9  1  0  0  0  0
 11  2  1  6  0  0  0
 11  4  1  0  0  0  0
 12  1  1  0  0  0  0
 12 18  1  0  0  0  0
 13 16  1  0  0  0  0
 14 12  2  0  0  0  0
 15 14  1  0  0  0  0
 15 13  2  0  0  0  0
 16 18  2  0  0  0  0
 17 14  1  0  0  0  0
 20 19  1  0  0  0  0
 21 22  1  6  0  0  0
 21 20  1  0  0  0  0
 23 21  1  0  0  0  0
 23 25  1  0  0  0  0
 24 23  1  0  0  0  0
M  END
>  <MODEL>
7

>  <REMARK>
 VINA RESULT:      -6.5      4.497      6.747
  Name = 
  5 active torsions:
  status: ('A' for Active; 'I' for Inactive)
    1  A    between atoms: N_1  and  C_5
    2  A    between atoms: N_2  and  C_21
    3  A    between atoms: O_6  and  C_15
    4  A    between atoms: O_6  and  C_23
    5  A    between atoms: C_15  and  C_21
                            x       y       z     vdW  Elec       q    Type
                         _______ _______ _______ _____ _____    ______ ____

>  <TORSDO>
F 5

$$$$
=
 OpenBabel11052417253D

 25 27  0  0  1  0  0  0  0  0999 V2000
  187.6550  177.3410  144.8120 N   0  0  0  0  0  0  0  0  0  0  0  0
  187.6290  177.4650  143.3880 C   0  0  0  0  0  0  0  0  0  0  0  0
  185.1950  179.7910  144.4380 N   0  0  0  0  0  2  0  0  0  0  0  0
  185.9590  178.7670  144.2530 C   0  0  0  0  0  0  0  0  0  0  0  0
  185.6950  177.8210  141.9320 C   0  0  1  0  0  3  0  0  0  0  0  0
  184.7030  178.6940  141.5320 F   0  0  0  0  0  0  0  0  0  0  0  0
  188.1280  176.5540  142.5490 C   0  0  0  0  0  3  0  0  0  0  0  0
  186.6330  178.1330  145.3390 N   0  0  0  0  0  2  0  0  0  0  0  0
  186.5130  177.3750  140.7140 C   0  0  0  0  0  2  0  0  0  0  0  0
  187.8290  176.6290  141.0690 C   0  0  2  0  0  3  0  0  0  0  0  0
  186.6270  178.4860  142.9430 C   0  0  2  0  0  3  0  0  0  0  0  0
  188.6820  176.7190  145.6120 C   0  0  0  0  0  0  0  0  0  0  0  0
  190.6500  175.4610  147.1840 C   0  0  0  0  0  3  0  0  0  0  0  0
  190.0330  177.1400  145.5460 C   0  0  0  0  0  0  0  0  0  0  0  0
  191.0020  176.5050  146.3260 C   0  0  0  0  0  3  0  0  0  0  0  0
  189.3220  175.0430  147.2630 C   0  0  0  0  0  3  0  0  0  0  0  0
  190.4360  178.2150  144.7020 N   0  0  0  0  0  1  0  0  0  0  0  0
  188.3480  175.6680  146.4830 C   0  0  0  0  0  3  0  0  0  0  0  0
  187.8070  175.3390  140.5280 O   0  0  0  0  0  0  0  0  0  0  0  0
  188.6460  174.5790  141.3490 C   0  0  0  0  0  2  0  0  0  0  0  0
  188.3710  173.0860  141.1450 C   0  0  2  0  0  3  0  0  0  0  0  0
  187.3640  172.6700  142.0130 O   0  0  0  0  0  1  0  0  0  0  0  0
  189.5610  172.2430  141.3150 N   0  0  0  0  0  0  0  0  0  0  0  0
  190.7080  172.9180  140.7250 C   0  0  0  0  0  1  0  0  0  0  0  0
  189.8500  172.0280  142.7290 C   0  0  0  0  0  1  0  0  0  0  0  0
  1  8  1  0  0  0  0
  1 12  1  0  0  0  0
  2  1  1  0  0  0  0
  4  3  2  0  0  0  0
  4  8  1  0  0  0  0
  5  6  1  6  0  0  0
  5 11  1  0  0  0  0
  7  2  2  0  0  0  0
  9 10  1  0  0  0  0
  9  5  1  0  0  0  0
 10 19  1  1  0  0  0
 10  7  1  0  0  0  0
 11  2  1  1  0  0  0
 11  4  1  0  0  0  0
 12 18  1  0  0  0  0
 13 16  1  0  0  0  0
 14 12  2  0  0  0  0
 14 15  1  0  0  0  0
 15 13  2  0  0  0  0
 17 14  1  0  0  0  0
 18 16  2  0  0  0  0
 19 20  1  0  0  0  0
 21 23  1  0  0  0  0
 21 20  1  0  0  0  0
 21 22  1  1  0  0  0
 23 25  1  0  0  0  0
 24 23  1  0  0  0  0
M  END
>  <MODEL>
8

>  <REMARK>
 VINA RESULT:      -6.5      3.196      5.652
  Name = 
  5 active torsions:
  status: ('A' for Active; 'I' for Inactive)
    1  A    between atoms: N_1  and  C_5
    2  A    between atoms: N_2  and  C_21
    3  A    between atoms: O_6  and  C_15
    4  A    between atoms: O_6  and  C_23
    5  A    between atoms: C_15  and  C_21
                            x       y       z     vdW  Elec       q    Type
                         _______ _______ _______ _____ _____    ______ ____

>  <TORSDO>
F 5

$$$$
=
 OpenBabel11052417253D

 25 27  0  0  1  0  0  0  0  0999 V2000
  187.5930  176.1100  142.1260 N   0  0  0  0  0  0  0  0  0  0  0  0
  186.8370  176.5490  143.2570 C   0  0  0  0  0  0  0  0  0  0  0  0
  185.3520  178.2910  140.5730 N   0  0  0  0  0  2  0  0  0  0  0  0
  186.1450  177.7320  141.4240 C   0  0  0  0  0  0  0  0  0  0  0  0
  185.9430  178.7810  143.7070 C   0  0  1  0  0  3  0  0  0  0  0  0
  185.0280  179.7480  143.3410 F   0  0  0  0  0  0  0  0  0  0  0  0
  187.2440  176.4260  144.5220 C   0  0  0  0  0  3  0  0  0  0  0  0
  187.1730  176.8340  141.0090 N   0  0  0  0  0  2  0  0  0  0  0  0
  185.7500  178.4210  145.1850 C   0  0  0  0  0  2  0  0  0  0  0  0
  186.5170  177.1470  145.6340 C   0  0  2  0  0  3  0  0  0  0  0  0
  185.7700  177.5230  142.8580 C   0  0  2  0  0  3  0  0  0  0  0  0
  188.4650  174.9620  142.0560 C   0  0  0  0  0  0  0  0  0  0  0  0
  190.1240  172.6930  141.8910 C   0  0  0  0  0  3  0  0  0  0  0  0
  189.8460  175.0580  142.3550 C   0  0  0  0  0  0  0  0  0  0  0  0
  190.6620  173.9270  142.2650 C   0  0  0  0  0  3  0  0  0  0  0  0
  188.7650  172.5850  141.6010 C   0  0  0  0  0  3  0  0  0  0  0  0
  190.4350  176.2900  142.7630 N   0  0  0  0  0  1  0  0  0  0  0  0
  187.9430  173.7110  141.6840 C   0  0  0  0  0  3  0  0  0  0  0  0
  187.4200  177.4680  146.6540 O   0  0  0  0  0  0  0  0  0  0  0  0
  188.1460  176.2970  146.8880 C   0  0  0  0  0  2  0  0  0  0  0  0
  189.6200  176.6330  147.1410 C   0  0  2  0  0  3  0  0  0  0  0  0
  190.0670  177.5410  146.1840 O   0  0  0  0  0  1  0  0  0  0  0  0
  190.4930  175.4530  147.1620 N   0  0  0  0  0  0  0  0  0  0  0  0
  190.0910  174.5460  146.0970 C   0  0  0  0  0  1  0  0  0  0  0  0
  191.8820  175.8290  146.9230 C   0  0  0  0  0  1  0  0  0  0  0  0
  1  2  1  0  0  0  0
  2  7  2  0  0  0  0
  3  4  2  0  0  0  0
  5  6  1  6  0  0  0
  5  9  1  0  0  0  0
  7 10  1  0  0  0  0
  8  4  1  0  0  0  0
  8  1  1  0  0  0  0
  9 10  1  0  0  0  0
 10 19  1  1  0  0  0
 11  4  1  6  0  0  0
 11  2  1  0  0  0  0
 11  5  1  0  0  0  0
 12  1  1  0  0  0  0
 12 14  1  0  0  0  0
 13 15  1  0  0  0  0
 14 17  1  0  0  0  0
 15 14  2  0  0  0  0
 16 18  1  0  0  0  0
 16 13  2  0  0  0  0
 18 12  2  0  0  0  0
 19 20  1  0  0  0  0
 20 21  1  0  0  0  0
 21 22  1  6  0  0  0
 21 23  1  0  0  0  0
 24 23  1  0  0  0  0
 25 23  1  0  0  0  0
M  END
>  <MODEL>
9

>  <REMARK>
 VINA RESULT:      -6.4      3.531      6.354
  Name = 
  5 active torsions:
  status: ('A' for Active; 'I' for Inactive)
    1  A    between atoms: N_1  and  C_5
    2  A    between atoms: N_2  and  C_21
    3  A    between atoms: O_6  and  C_15
    4  A    between atoms: O_6  and  C_23
    5  A    between atoms: C_15  and  C_21
                            x       y       z     vdW  Elec       q    Type
                         _______ _______ _______ _____ _____    ______ ____

>  <TORSDO>
F 5

$$$$
