=
 OpenBabel11052421403D

 32 37  0  0  1  0  0  0  0  0999 V2000
  186.2430  177.7750  143.6170 C   0  0  0  0  0  0  0  0  0  0  0  0
  190.1610  177.1330  146.1700 C   0  0  1  0  0  3  0  0  0  0  0  0
  191.5420  177.1610  142.7020 C   0  0  0  0  0  2  0  0  0  0  0  0
  189.9900  174.5710  145.9350 C   0  0  1  0  0  3  0  0  0  0  0  0
  190.7690  173.5180  145.1980 C   0  0  0  0  0  0  0  0  0  0  0  0
  187.8910  177.3810  145.8280 C   0  0  0  0  0  0  0  0  0  0  0  0
  190.4310  178.8230  144.4710 O   0  0  0  0  0  1  0  0  0  0  0  0
  192.2140  171.5810  143.7800 C   0  0  0  0  0  3  0  0  0  0  0  0
  187.6390  177.7950  143.4660 C   0  0  0  0  0  3  0  0  0  0  0  0
  191.9050  176.0360  143.6470 C   0  0  2  0  0  3  0  0  0  0  0  0
  189.9340  177.5270  144.6640 C   0  0  1  0  0  0  0  0  0  0  0  0
  190.4560  176.5340  143.5790 C   0  0  1  0  0  3  0  0  0  0  0  0
  192.3330  175.7610  146.1560 C   0  0  2  0  0  3  0  0  0  0  0  0
  190.8480  171.7430  143.5460 C   0  0  0  0  0  3  0  0  0  0  0  0
  185.6820  177.5450  144.8970 C   0  0  0  0  0  3  0  0  0  0  0  0
  188.4440  177.5690  144.5880 C   0  0  0  0  0  0  0  0  0  0  0  0
  190.1220  172.7020  144.2610 C   0  0  0  0  0  3  0  0  0  0  0  0
  186.5120  177.3460  146.0130 C   0  0  0  0  0  3  0  0  0  0  0  0
  192.6820  176.5400  144.8670 C   0  0  1  0  0  3  0  0  0  0  0  0
  192.8540  174.3900  146.1190 N   0  0  0  0  0  2  0  0  0  0  0  0
  188.8620  177.2020  146.8370 N   0  0  0  0  0  2  0  0  0  0  0  0
  189.2680  173.9910  146.9780 O   0  0  0  0  0  1  0  0  0  0  0  0
  192.8640  172.4020  144.7070 C   0  0  0  0  0  3  0  0  0  0  0  0
  190.8190  175.7690  146.4680 C   0  0  1  0  0  3  0  0  0  0  0  0
  192.1520  173.3900  145.3860 C   0  0  0  0  0  0  0  0  0  0  0  0
  194.8440  177.4340  145.4800 O   0  0  0  0  0  1  0  0  0  0  0  0
  194.1910  176.5750  144.5950 C   0  0  0  0  0  2  0  0  0  0  0  0
  184.1240  177.9780  142.5040 C   0  0  0  0  0  3  0  0  0  0  0  0
  185.4170  178.0200  142.4700 N   0  0  0  0  0  0  0  0  0  0  0  0
  183.3380  178.2840  141.3000 C   0  0  0  0  0  0  0  0  0  0  0  0
  183.9280  178.6260  140.2420 O   0  0  0  0  0  0  0  0  0  0  0  0
  181.9170  178.1840  141.3170 N   0  0  0  0  0  1  0  0  0  0  0  0
  1 15  1  0  0  0  0
  2 24  1  0  0  0  0
  2 21  1  1  0  0  0
  4 24  1  0  0  0  0
  4 22  1  1  0  0  0
  5 25  1  0  0  0  0
  5  4  1  0  0  0  0
  6 18  1  0  0  0  0
  6 21  1  0  0  0  0
  8 23  1  0  0  0  0
  9  1  2  0  0  0  0
  9 16  1  0  0  0  0
 10  3  1  6  0  0  0
 10 19  1  0  0  0  0
 11  7  1  6  0  0  0
 11  2  1  0  0  0  0
 12  3  1  6  0  0  0
 12 10  1  0  0  0  0
 12 11  1  0  0  0  0
 13 20  1  6  0  0  0
 13 24  1  0  0  0  0
 14  8  2  0  0  0  0
 14 17  1  0  0  0  0
 15 18  2  0  0  0  0
 16 11  1  0  0  0  0
 16  6  2  0  0  0  0
 17  5  2  0  0  0  0
 19 27  1  6  0  0  0
 19 13  1  0  0  0  0
 23 25  2  0  0  0  0
 25 20  1  0  0  0  0
 27 26  1  0  0  0  0
 29 28  2  0  0  0  0
 29  1  1  0  0  0  0
 30 32  1  0  0  0  0
 30 28  1  0  0  0  0
 31 30  2  0  0  0  0
M  END
>  <MODEL>
1

>  <REMARK>
 VINA RESULT:      -8.1      0.000      0.000
  Name = 
  3 active torsions:
  status: ('A' for Active; 'I' for Inactive)
    1  A    between atoms: C_1  and  C_10
    2  A    between atoms: C_2  and  N_24
    3  A    between atoms: C_25  and  C_26
                            x       y       z     vdW  Elec       q    Type
                         _______ _______ _______ _____ _____    ______ ____

>  <TORSDO>
F 3

$$$$
=
 OpenBabel11052421403D

 32 37  0  0  1  0  0  0  0  0999 V2000
  194.6470  172.6920  145.3890 C   0  0  0  0  0  0  0  0  0  0  0  0
  192.1780  176.6960  145.7910 C   0  0  1  0  0  3  0  0  0  0  0  0
  189.5950  174.1490  146.6740 C   0  0  0  0  0  2  0  0  0  0  0  0
  191.3330  176.5130  143.3620 C   0  0  1  0  0  3  0  0  0  0  0  0
  190.0070  176.2200  142.7190 C   0  0  0  0  0  0  0  0  0  0  0  0
  194.0340  175.4080  145.3120 C   0  0  0  0  0  0  0  0  0  0  0  0
  191.8380  175.2080  147.6590 O   0  0  0  0  0  1  0  0  0  0  0  0
  187.5310  175.6320  141.5460 C   0  0  0  0  0  3  0  0  0  0  0  0
  193.4160  173.1500  145.8870 C   0  0  0  0  0  3  0  0  0  0  0  0
  189.2880  175.2030  145.6310 C   0  0  2  0  0  3  0  0  0  0  0  0
  191.8850  175.2220  146.2580 C   0  0  1  0  0  0  0  0  0  0  0  0
  190.6540  174.5040  145.6260 C   0  0  1  0  0  3  0  0  0  0  0  0
  189.8670  177.6640  145.2270 C   0  0  2  0  0  3  0  0  0  0  0  0
  188.6410  174.8320  141.2720 C   0  0  0  0  0  3  0  0  0  0  0  0
  195.5670  173.6190  144.8410 C   0  0  0  0  0  3  0  0  0  0  0  0
  193.1230  174.5170  145.8130 C   0  0  0  0  0  0  0  0  0  0  0  0
  189.8810  175.1300  141.8480 C   0  0  0  0  0  3  0  0  0  0  0  0
  195.2600  174.9900  144.8010 C   0  0  0  0  0  3  0  0  0  0  0  0
  189.3130  176.6160  146.2210 C   0  0  1  0  0  3  0  0  0  0  0  0
  188.9350  177.9070  144.1200 N   0  0  0  0  0  2  0  0  0  0  0  0
  193.5710  176.7410  145.3500 N   0  0  0  0  0  2  0  0  0  0  0  0
  192.1700  177.1700  142.4600 O   0  0  0  0  0  1  0  0  0  0  0  0
  187.6530  176.7140  142.4230 C   0  0  0  0  0  3  0  0  0  0  0  0
  191.2730  177.3000  144.6980 C   0  0  1  0  0  3  0  0  0  0  0  0
  188.8760  176.9850  143.0350 C   0  0  0  0  0  0  0  0  0  0  0  0
  186.9140  176.3170  146.1470 O   0  0  0  0  0  1  0  0  0  0  0  0
  187.9430  177.0120  146.7840 C   0  0  0  0  0  2  0  0  0  0  0  0
  196.0170  170.8350  146.0570 C   0  0  0  0  0  3  0  0  0  0  0  0
  194.9540  171.2940  145.4770 N   0  0  0  0  0  0  0  0  0  0  0  0
  196.2470  169.3870  146.1500 C   0  0  0  0  0  0  0  0  0  0  0  0
  195.2920  168.5910  145.9560 O   0  0  0  0  0  0  0  0  0  0  0  0
  197.5440  168.8760  146.4450 N   0  0  0  0  0  1  0  0  0  0  0  0
  1 29  1  0  0  0  0
  1  9  1  0  0  0  0
  2 21  1  6  0  0  0
  2 11  1  0  0  0  0
  4 22  1  6  0  0  0
  4 24  1  0  0  0  0
  5 25  1  0  0  0  0
  5  4  1  0  0  0  0
  6 21  1  0  0  0  0
  6 16  1  0  0  0  0
  8 23  1  0  0  0  0
 10 19  1  0  0  0  0
 10  3  1  1  0  0  0
 11  7  1  1  0  0  0
 12 10  1  0  0  0  0
 12 11  1  0  0  0  0
 12  3  1  1  0  0  0
 13 20  1  6  0  0  0
 13 19  1  0  0  0  0
 14  8  2  0  0  0  0
 14 17  1  0  0  0  0
 15  1  2  0  0  0  0
 16  9  2  0  0  0  0
 16 11  1  0  0  0  0
 17  5  2  0  0  0  0
 18 15  1  0  0  0  0
 18  6  2  0  0  0  0
 19 27  1  6  0  0  0
 23 25  2  0  0  0  0
 24 13  1  0  0  0  0
 24  2  1  0  0  0  0
 25 20  1  0  0  0  0
 26 27  1  0  0  0  0
 28 30  1  0  0  0  0
 29 28  2  0  0  0  0
 30 32  1  0  0  0  0
 31 30  2  0  0  0  0
M  END
>  <MODEL>
2

>  <REMARK>
 VINA RESULT:      -7.4      2.941      8.244
  Name = 
  3 active torsions:
  status: ('A' for Active; 'I' for Inactive)
    1  A    between atoms: C_1  and  C_10
    2  A    between atoms: C_2  and  N_24
    3  A    between atoms: C_25  and  C_26
                            x       y       z     vdW  Elec       q    Type
                         _______ _______ _______ _____ _____    ______ ____

>  <TORSDO>
F 3

$$$$
=
 OpenBabel11052421403D

 32 37  0  0  1  0  0  0  0  0999 V2000
  190.0610  173.1800  139.7980 C   0  0  0  0  0  0  0  0  0  0  0  0
  189.6480  173.6730  144.4740 C   0  0  1  0  0  3  0  0  0  0  0  0
  189.6720  177.2360  143.3600 C   0  0  0  0  0  2  0  0  0  0  0  0
  192.2020  173.8870  144.7580 C   0  0  1  0  0  3  0  0  0  0  0  0
  193.1410  175.0040  145.1170 C   0  0  0  0  0  0  0  0  0  0  0  0
  189.8990  172.5090  142.4960 C   0  0  0  0  0  0  0  0  0  0  0  0
  188.1090  175.0750  143.2570 O   0  0  0  0  0  1  0  0  0  0  0  0
  194.8700  177.1160  145.7500 C   0  0  0  0  0  3  0  0  0  0  0  0
  189.7730  174.1690  140.7520 C   0  0  0  0  0  3  0  0  0  0  0  0
  190.6050  176.7870  144.4640 C   0  0  2  0  0  3  0  0  0  0  0  0
  189.4540  174.6840  143.2830 C   0  0  1  0  0  0  0  0  0  0  0  0
  190.4190  175.9080  143.2210 C   0  0  1  0  0  3  0  0  0  0  0  0
  190.5460  175.1150  146.4020 C   0  0  2  0  0  3  0  0  0  0  0  0
  195.0120  176.4360  144.5390 C   0  0  0  0  0  3  0  0  0  0  0  0
  190.2770  171.8450  140.2180 C   0  0  0  0  0  3  0  0  0  0  0  0
  189.7220  173.8090  142.1040 C   0  0  0  0  0  0  0  0  0  0  0  0
  194.1560  175.3740  144.2260 C   0  0  0  0  0  3  0  0  0  0  0  0
  190.1950  171.5040  141.5790 C   0  0  0  0  0  3  0  0  0  0  0  0
  189.8390  176.2950  145.6960 C   0  0  1  0  0  3  0  0  0  0  0  0
  191.7790  175.5430  147.0700 N   0  0  0  0  0  2  0  0  0  0  0  0
  189.7800  172.3390  143.8930 N   0  0  0  0  0  2  0  0  0  0  0  0
  192.8140  172.6550  144.9850 O   0  0  0  0  0  1  0  0  0  0  0  0
  193.8500  176.7550  146.6350 C   0  0  0  0  0  3  0  0  0  0  0  0
  190.8150  173.9250  145.4520 C   0  0  1  0  0  3  0  0  0  0  0  0
  192.9660  175.7290  146.3040 C   0  0  0  0  0  0  0  0  0  0  0  0
  188.1790  177.4450  147.0270 O   0  0  0  0  0  1  0  0  0  0  0  0
  189.5250  177.4480  146.6570 C   0  0  0  0  0  2  0  0  0  0  0  0
  189.0440  173.8620  137.7310 C   0  0  0  0  0  3  0  0  0  0  0  0
  190.0990  173.5450  138.4110 N   0  0  0  0  0  0  0  0  0  0  0  0
  189.1610  174.2690  136.3240 C   0  0  0  0  0  0  0  0  0  0  0  0
  188.5730  175.3070  135.9250 O   0  0  0  0  0  0  0  0  0  0  0  0
  189.9470  173.5070  135.4110 N   0  0  0  0  0  1  0  0  0  0  0  0
  1 15  2  0  0  0  0
  1  9  1  0  0  0  0
  2 21  1  6  0  0  0
  2 24  1  0  0  0  0
  4 22  1  1  0  0  0
  4  5  1  0  0  0  0
  4 24  1  0  0  0  0
  5 25  1  0  0  0  0
  6 21  1  0  0  0  0
  8 23  1  0  0  0  0
  9 16  2  0  0  0  0
 10  3  1  6  0  0  0
 10 19  1  0  0  0  0
 11  7  1  6  0  0  0
 11  2  1  0  0  0  0
 12 11  1  0  0  0  0
 12  3  1  6  0  0  0
 12 10  1  0  0  0  0
 13 20  1  6  0  0  0
 14  8  2  0  0  0  0
 15 18  1  0  0  0  0
 16  6  1  0  0  0  0
 16 11  1  0  0  0  0
 17 14  1  0  0  0  0
 17  5  2  0  0  0  0
 18  6  2  0  0  0  0
 19 13  1  0  0  0  0
 19 27  1  1  0  0  0
 24 13  1  0  0  0  0
 25 23  2  0  0  0  0
 25 20  1  0  0  0  0
 27 26  1  0  0  0  0
 28 29  2  0  0  0  0
 29  1  1  0  0  0  0
 30 28  1  0  0  0  0
 31 30  2  0  0  0  0
 32 30  1  0  0  0  0
M  END
>  <MODEL>
3

>  <REMARK>
 VINA RESULT:      -7.1      3.724      5.585
  Name = 
  3 active torsions:
  status: ('A' for Active; 'I' for Inactive)
    1  A    between atoms: C_1  and  C_10
    2  A    between atoms: C_2  and  N_24
    3  A    between atoms: C_25  and  C_26
                            x       y       z     vdW  Elec       q    Type
                         _______ _______ _______ _____ _____    ______ ____

>  <TORSDO>
F 3

$$$$
=
 OpenBabel11052421403D

 32 37  0  0  1  0  0  0  0  0999 V2000
  188.3530  174.7030  141.7470 C   0  0  0  0  0  0  0  0  0  0  0  0
  191.6530  173.9330  145.0330 C   0  0  1  0  0  3  0  0  0  0  0  0
  191.8140  177.6470  144.6870 C   0  0  0  0  0  2  0  0  0  0  0  0
  193.5140  173.8230  143.2520 C   0  0  1  0  0  3  0  0  0  0  0  0
  194.6660  174.7070  142.8640 C   0  0  0  0  0  0  0  0  0  0  0  0
  190.0460  173.3370  143.4850 C   0  0  0  0  0  0  0  0  0  0  0  0
  190.1780  175.7510  145.6120 O   0  0  0  0  0  1  0  0  0  0  0  0
  196.7800  176.3940  142.1350 C   0  0  0  0  0  3  0  0  0  0  0  0
  189.1390  175.4150  142.6670 C   0  0  0  0  0  3  0  0  0  0  0  0
  193.0840  176.8270  144.6060 C   0  0  2  0  0  3  0  0  0  0  0  0
  190.9320  175.2440  144.5450 C   0  0  1  0  0  0  0  0  0  0  0  0
  191.8200  176.3430  143.8840 C   0  0  1  0  0  3  0  0  0  0  0  0
  194.0150  174.7010  145.6870 C   0  0  2  0  0  3  0  0  0  0  0  0
  195.7990  176.0610  141.2000 C   0  0  0  0  0  3  0  0  0  0  0  0
  188.4340  173.2900  141.7040 C   0  0  0  0  0  3  0  0  0  0  0  0
  190.0000  174.7050  143.5120 C   0  0  0  0  0  0  0  0  0  0  0  0
  194.7480  175.2100  141.5590 C   0  0  0  0  0  3  0  0  0  0  0  0
  189.2880  172.5990  142.5800 C   0  0  0  0  0  3  0  0  0  0  0  0
  193.3750  176.0900  145.9170 C   0  0  1  0  0  3  0  0  0  0  0  0
  195.3910  174.8130  145.1920 N   0  0  0  0  0  2  0  0  0  0  0  0
  190.9490  172.8020  144.4300 N   0  0  0  0  0  2  0  0  0  0  0  0
  193.7300  172.5240  142.7920 O   0  0  0  0  0  1  0  0  0  0  0  0
  196.6940  175.9010  143.4410 C   0  0  0  0  0  3  0  0  0  0  0  0
  193.1660  173.7980  144.7630 C   0  0  1  0  0  3  0  0  0  0  0  0
  195.6220  175.0910  143.8130 C   0  0  0  0  0  0  0  0  0  0  0  0
  194.9420  177.9130  146.1860 O   0  0  0  0  0  1  0  0  0  0  0  0
  194.1940  176.9590  146.8790 C   0  0  0  0  0  2  0  0  0  0  0  0
  187.2600  176.7040  140.9890 C   0  0  0  0  0  3  0  0  0  0  0  0
  187.4590  175.4290  140.8900 N   0  0  0  0  0  0  0  0  0  0  0  0
  186.3640  177.3910  140.0480 C   0  0  0  0  0  0  0  0  0  0  0  0
  186.4750  177.1780  138.8130 O   0  0  0  0  0  0  0  0  0  0  0  0
  185.3620  178.2860  140.5240 N   0  0  0  0  0  1  0  0  0  0  0  0
  1  9  1  0  0  0  0
  2 21  1  6  0  0  0
  4 22  1  1  0  0  0
  4 24  1  0  0  0  0
  5  4  1  0  0  0  0
  5 25  1  0  0  0  0
  6 16  1  0  0  0  0
  6 21  1  0  0  0  0
  8 23  1  0  0  0  0
  9 16  2  0  0  0  0
 10  3  1  1  0  0  0
 10 19  1  0  0  0  0
 11  2  1  0  0  0  0
 11  7  1  1  0  0  0
 12 11  1  0  0  0  0
 12 10  1  0  0  0  0
 12  3  1  1  0  0  0
 13 20  1  6  0  0  0
 13 19  1  0  0  0  0
 14 17  1  0  0  0  0
 14  8  2  0  0  0  0
 15  1  2  0  0  0  0
 15 18  1  0  0  0  0
 16 11  1  0  0  0  0
 17  5  2  0  0  0  0
 18  6  2  0  0  0  0
 19 27  1  1  0  0  0
 23 25  2  0  0  0  0
 24  2  1  0  0  0  0
 24 13  1  0  0  0  0
 25 20  1  0  0  0  0
 26 27  1  0  0  0  0
 29 28  2  0  0  0  0
 29  1  1  0  0  0  0
 30 32  1  0  0  0  0
 30 28  1  0  0  0  0
 31 30  2  0  0  0  0
M  END
>  <MODEL>
4

>  <REMARK>
 VINA RESULT:      -7.0      2.641      4.196
  Name = 
  3 active torsions:
  status: ('A' for Active; 'I' for Inactive)
    1  A    between atoms: C_1  and  C_10
    2  A    between atoms: C_2  and  N_24
    3  A    between atoms: C_25  and  C_26
                            x       y       z     vdW  Elec       q    Type
                         _______ _______ _______ _____ _____    ______ ____

>  <TORSDO>
F 3

$$$$
=
 OpenBabel11052421403D

 32 37  0  0  1  0  0  0  0  0999 V2000
  187.8380  177.1990  145.9130 C   0  0  0  0  0  0  0  0  0  0  0  0
  191.9120  174.8240  145.6980 C   0  0  1  0  0  3  0  0  0  0  0  0
  192.2370  177.1060  142.7610 C   0  0  0  0  0  2  0  0  0  0  0  0
  190.9100  173.0940  144.0700 C   0  0  1  0  0  3  0  0  0  0  0  0
  191.0980  172.7720  142.6140 C   0  0  0  0  0  0  0  0  0  0  0  0
  189.8240  175.3460  146.5330 C   0  0  0  0  0  0  0  0  0  0  0  0
  192.2120  177.2020  145.4280 O   0  0  0  0  0  1  0  0  0  0  0  0
  191.4400  172.2210  139.8890 C   0  0  0  0  0  3  0  0  0  0  0  0
  189.0770  177.2490  145.2530 C   0  0  0  0  0  3  0  0  0  0  0  0
  192.4810  175.6220  142.5920 C   0  0  2  0  0  3  0  0  0  0  0  0
  191.4150  176.1380  144.9870 C   0  0  1  0  0  0  0  0  0  0  0  0
  191.2930  176.1060  143.4320 C   0  0  1  0  0  3  0  0  0  0  0  0
  193.4710  173.7150  143.9840 C   0  0  2  0  0  3  0  0  0  0  0  0
  190.1780  172.5630  140.3790 C   0  0  0  0  0  3  0  0  0  0  0  0
  187.6040  176.1970  146.8860 C   0  0  0  0  0  3  0  0  0  0  0  0
  190.0480  176.2900  145.5660 C   0  0  0  0  0  0  0  0  0  0  0  0
  190.0040  172.8280  141.7420 C   0  0  0  0  0  3  0  0  0  0  0  0
  188.6050  175.2620  147.2000 C   0  0  0  0  0  3  0  0  0  0  0  0
  193.6760  175.1400  143.4200 C   0  0  1  0  0  3  0  0  0  0  0  0
  193.5180  172.7010  142.9250 N   0  0  0  0  0  2  0  0  0  0  0  0
  190.9290  174.4910  146.7270 N   0  0  0  0  0  2  0  0  0  0  0  0
  190.3570  172.0000  144.7360 O   0  0  0  0  0  1  0  0  0  0  0  0
  192.5350  172.1760  140.7560 C   0  0  0  0  0  3  0  0  0  0  0  0
  192.1770  173.5840  144.8200 C   0  0  1  0  0  3  0  0  0  0  0  0
  192.3720  172.4860  142.1060 C   0  0  0  0  0  0  0  0  0  0  0  0
  195.7930  176.2840  143.1760 O   0  0  0  0  0  1  0  0  0  0  0  0
  194.9900  175.2770  142.6400 C   0  0  0  0  0  2  0  0  0  0  0  0
  186.3040  178.3100  144.4350 C   0  0  0  0  0  3  0  0  0  0  0  0
  186.8470  178.1900  145.6040 N   0  0  0  0  0  0  0  0  0  0  0  0
  185.2620  179.3190  144.2000 C   0  0  0  0  0  0  0  0  0  0  0  0
  185.5560  180.5410  144.2490 O   0  0  0  0  0  0  0  0  0  0  0  0
  183.9250  178.9250  143.9040 N   0  0  0  0  0  1  0  0  0  0  0  0
  1 15  1  0  0  0  0
  2 21  1  1  0  0  0
  4 22  1  1  0  0  0
  4 24  1  0  0  0  0
  5  4  1  0  0  0  0
  6 21  1  0  0  0  0
  6 18  1  0  0  0  0
  8 14  2  0  0  0  0
  8 23  1  0  0  0  0
  9 16  1  0  0  0  0
  9  1  2  0  0  0  0
 10  3  1  6  0  0  0
 10 19  1  0  0  0  0
 10 12  1  0  0  0  0
 11  7  1  1  0  0  0
 11 16  1  0  0  0  0
 11  2  1  0  0  0  0
 12  3  1  6  0  0  0
 12 11  1  0  0  0  0
 13 20  1  6  0  0  0
 13 24  1  0  0  0  0
 14 17  1  0  0  0  0
 15 18  2  0  0  0  0
 16  6  2  0  0  0  0
 17  5  2  0  0  0  0
 19 27  1  6  0  0  0
 19 13  1  0  0  0  0
 23 25  2  0  0  0  0
 24  2  1  0  0  0  0
 25  5  1  0  0  0  0
 25 20  1  0  0  0  0
 27 26  1  0  0  0  0
 28 29  2  0  0  0  0
 29  1  1  0  0  0  0
 30 31  2  0  0  0  0
 30 28  1  0  0  0  0
 32 30  1  0  0  0  0
M  END
>  <MODEL>
5

>  <REMARK>
 VINA RESULT:      -7.0      2.201      2.986
  Name = 
  3 active torsions:
  status: ('A' for Active; 'I' for Inactive)
    1  A    between atoms: C_1  and  C_10
    2  A    between atoms: C_2  and  N_24
    3  A    between atoms: C_25  and  C_26
                            x       y       z     vdW  Elec       q    Type
                         _______ _______ _______ _____ _____    ______ ____

>  <TORSDO>
F 3

$$$$
=
 OpenBabel11052421403D

 32 37  0  0  1  0  0  0  0  0999 V2000
  192.7030  173.1950  140.2110 C   0  0  0  0  0  0  0  0  0  0  0  0
  192.6280  175.6240  144.2580 C   0  0  1  0  0  3  0  0  0  0  0  0
  190.0070  173.0450  144.9020 C   0  0  0  0  0  2  0  0  0  0  0  0
  190.7290  177.1440  143.4030 C   0  0  1  0  0  3  0  0  0  0  0  0
  189.2720  177.3110  143.7320 C   0  0  0  0  0  0  0  0  0  0  0  0
  193.3060  175.1490  142.1020 C   0  0  0  0  0  0  0  0  0  0  0  0
  192.6530  173.2390  144.6120 O   0  0  0  0  0  1  0  0  0  0  0  0
  186.5490  177.5700  144.3380 C   0  0  0  0  0  3  0  0  0  0  0  0
  192.1780  173.1020  141.5100 C   0  0  0  0  0  3  0  0  0  0  0  0
  189.7000  174.5070  145.1440 C   0  0  2  0  0  3  0  0  0  0  0  0
  192.0210  174.2310  143.8500 C   0  0  1  0  0  0  0  0  0  0  0  0
  190.4680  174.0910  143.8830 C   0  0  1  0  0  3  0  0  0  0  0  0
  190.9640  176.5770  145.9670 C   0  0  2  0  0  3  0  0  0  0  0  0
  186.9480  177.2550  143.0380 C   0  0  0  0  0  3  0  0  0  0  0  0
  193.5320  174.2910  139.8690 C   0  0  0  0  0  3  0  0  0  0  0  0
  192.4760  174.1110  142.4340 C   0  0  0  0  0  0  0  0  0  0  0  0
  188.3080  177.1360  142.7310 C   0  0  0  0  0  3  0  0  0  0  0  0
  193.8380  175.2780  140.8220 C   0  0  0  0  0  3  0  0  0  0  0  0
  190.5830  175.1030  146.2450 C   0  0  1  0  0  3  0  0  0  0  0  0
  189.8090  177.4710  146.1080 N   0  0  0  0  0  2  0  0  0  0  0  0
  193.5130  176.0450  143.1730 N   0  0  0  0  0  2  0  0  0  0  0  0
  191.2120  178.2920  142.7730 O   0  0  0  0  0  1  0  0  0  0  0  0
  187.5090  177.7340  145.3400 C   0  0  0  0  0  3  0  0  0  0  0  0
  191.6490  176.7680  144.5940 C   0  0  1  0  0  3  0  0  0  0  0  0
  188.8630  177.5690  145.0470 C   0  0  0  0  0  0  0  0  0  0  0  0
  188.5740  174.7390  147.5410 O   0  0  0  0  0  1  0  0  0  0  0  0
  189.9560  174.9130  147.6310 C   0  0  0  0  0  2  0  0  0  0  0  0
  191.2230  171.6660  139.0960 C   0  0  0  0  0  3  0  0  0  0  0  0
  192.4090  172.1540  139.2680 N   0  0  0  0  0  0  0  0  0  0  0  0
  190.9850  170.6320  138.0800 C   0  0  0  0  0  0  0  0  0  0  0  0
  191.9320  170.2530  137.3430 O   0  0  0  0  0  0  0  0  0  0  0  0
  189.6950  170.0440  137.9320 N   0  0  0  0  0  1  0  0  0  0  0  0
  1  9  1  0  0  0  0
  2 21  1  6  0  0  0
  2 24  1  0  0  0  0
  4 22  1  1  0  0  0
  4  5  1  0  0  0  0
  4 24  1  0  0  0  0
  5 25  1  0  0  0  0
  6 16  1  0  0  0  0
  6 21  1  0  0  0  0
  8 23  1  0  0  0  0
  9 16  2  0  0  0  0
 10  3  1  1  0  0  0
 10 19  1  0  0  0  0
 11 12  1  0  0  0  0
 11  2  1  0  0  0  0
 11  7  1  1  0  0  0
 12  3  1  1  0  0  0
 12 10  1  0  0  0  0
 13 20  1  6  0  0  0
 13 19  1  0  0  0  0
 14  8  2  0  0  0  0
 15  1  2  0  0  0  0
 15 18  1  0  0  0  0
 16 11  1  0  0  0  0
 17 14  1  0  0  0  0
 17  5  2  0  0  0  0
 18  6  2  0  0  0  0
 19 27  1  1  0  0  0
 24 13  1  0  0  0  0
 25 23  2  0  0  0  0
 25 20  1  0  0  0  0
 26 27  1  0  0  0  0
 28 29  2  0  0  0  0
 29  1  1  0  0  0  0
 30 28  1  0  0  0  0
 31 30  2  0  0  0  0
 32 30  1  0  0  0  0
M  END
>  <MODEL>
6

>  <REMARK>
 VINA RESULT:      -6.8      3.682      6.940
  Name = 
  3 active torsions:
  status: ('A' for Active; 'I' for Inactive)
    1  A    between atoms: C_1  and  C_10
    2  A    between atoms: C_2  and  N_24
    3  A    between atoms: C_25  and  C_26
                            x       y       z     vdW  Elec       q    Type
                         _______ _______ _______ _____ _____    ______ ____

>  <TORSDO>
F 3

$$$$
=
 OpenBabel11052421403D

 32 37  0  0  1  0  0  0  0  0999 V2000
  188.0330  176.6430  143.2360 C   0  0  0  0  0  0  0  0  0  0  0  0
  190.8060  172.8340  142.9440 C   0  0  1  0  0  3  0  0  0  0  0  0
  192.2790  174.5900  145.8910 C   0  0  0  0  0  2  0  0  0  0  0  0
  192.5280  174.1000  141.5020 C   0  0  1  0  0  3  0  0  0  0  0  0
  193.9230  174.6140  141.7200 C   0  0  0  0  0  0  0  0  0  0  0  0
  189.1100  174.2570  142.2860 C   0  0  0  0  0  0  0  0  0  0  0  0
  190.0660  173.2690  145.1980 O   0  0  0  0  0  1  0  0  0  0  0  0
  196.5070  175.5990  142.1690 C   0  0  0  0  0  3  0  0  0  0  0  0
  189.0090  175.9660  143.9840 C   0  0  0  0  0  3  0  0  0  0  0  0
  193.1760  174.1340  144.7610 C   0  0  2  0  0  3  0  0  0  0  0  0
  190.6040  173.9100  144.0750 C   0  0  1  0  0  0  0  0  0  0  0  0
  191.8310  174.7990  144.4420 C   0  0  1  0  0  3  0  0  0  0  0  0
  193.2790  172.1650  143.1280 C   0  0  2  0  0  3  0  0  0  0  0  0
  195.4820  176.4710  141.7990 C   0  0  0  0  0  3  0  0  0  0  0  0
  187.6080  176.1090  141.9950 C   0  0  0  0  0  3  0  0  0  0  0  0
  189.5530  174.7820  143.4710 C   0  0  0  0  0  0  0  0  0  0  0  0
  194.1930  175.9790  141.5630 C   0  0  0  0  0  3  0  0  0  0  0  0
  188.1500  174.9060  141.5140 C   0  0  0  0  0  3  0  0  0  0  0  0
  193.1710  172.6100  144.6050 C   0  0  1  0  0  3  0  0  0  0  0  0
  194.6110  172.4340  142.5760 N   0  0  0  0  0  2  0  0  0  0  0  0
  189.7530  173.0450  141.9520 N   0  0  0  0  0  2  0  0  0  0  0  0
  192.2740  173.9660  140.1360 O   0  0  0  0  0  1  0  0  0  0  0  0
  196.2360  174.2380  142.3370 C   0  0  0  0  0  3  0  0  0  0  0  0
  192.1750  172.7790  142.2360 C   0  0  1  0  0  3  0  0  0  0  0  0
  194.9420  173.7530  142.1490 C   0  0  0  0  0  0  0  0  0  0  0  0
  195.2980  172.8220  145.7370 O   0  0  0  0  0  1  0  0  0  0  0  0
  194.2340  171.9520  145.4930 C   0  0  0  0  0  2  0  0  0  0  0  0
  186.2940  177.9000  144.3160 C   0  0  0  0  0  3  0  0  0  0  0  0
  187.4650  177.8490  143.7670 N   0  0  0  0  0  0  0  0  0  0  0  0
  185.7920  179.1610  144.8800 C   0  0  0  0  0  0  0  0  0  0  0  0
  185.5430  180.1290  144.1170 O   0  0  0  0  0  0  0  0  0  0  0  0
  185.5710  179.2910  146.2830 N   0  0  0  0  0  1  0  0  0  0  0  0
  1 29  1  0  0  0  0
  1  9  1  0  0  0  0
  2 21  1  6  0  0  0
  2 11  1  0  0  0  0
  4 22  1  6  0  0  0
  4  5  1  0  0  0  0
  4 24  1  0  0  0  0
  5 25  1  0  0  0  0
  6 16  1  0  0  0  0
  8 23  1  0  0  0  0
 10  3  1  1  0  0  0
 11 12  1  0  0  0  0
 11  7  1  1  0  0  0
 12 10  1  0  0  0  0
 12  3  1  1  0  0  0
 13 20  1  6  0  0  0
 13 19  1  0  0  0  0
 14  8  2  0  0  0  0
 15  1  2  0  0  0  0
 16  9  2  0  0  0  0
 16 11  1  0  0  0  0
 17  5  2  0  0  0  0
 17 14  1  0  0  0  0
 18 15  1  0  0  0  0
 18  6  2  0  0  0  0
 19 10  1  0  0  0  0
 19 27  1  1  0  0  0
 21  6  1  0  0  0  0
 24  2  1  0  0  0  0
 24 13  1  0  0  0  0
 25 23  2  0  0  0  0
 25 20  1  0  0  0  0
 27 26  1  0  0  0  0
 28 30  1  0  0  0  0
 29 28  2  0  0  0  0
 30 32  1  0  0  0  0
 31 30  2  0  0  0  0
M  END
>  <MODEL>
7

>  <REMARK>
 VINA RESULT:      -6.6      3.017      4.741
  Name = 
  3 active torsions:
  status: ('A' for Active; 'I' for Inactive)
    1  A    between atoms: C_1  and  C_10
    2  A    between atoms: C_2  and  N_24
    3  A    between atoms: C_25  and  C_26
                            x       y       z     vdW  Elec       q    Type
                         _______ _______ _______ _____ _____    ______ ____

>  <TORSDO>
F 3

$$$$
=
 OpenBabel11052421403D

 32 37  0  0  1  0  0  0  0  0999 V2000
  187.1640  177.2070  143.9400 C   0  0  0  0  0  0  0  0  0  0  0  0
  190.3450  174.3050  142.0060 C   0  0  1  0  0  3  0  0  0  0  0  0
  189.9230  172.7810  145.3880 C   0  0  0  0  0  2  0  0  0  0  0  0
  192.3020  175.6530  143.0070 C   0  0  1  0  0  3  0  0  0  0  0  0
  193.3160  175.4080  144.0890 C   0  0  0  0  0  0  0  0  0  0  0  0
  188.9510  176.1440  142.0870 C   0  0  0  0  0  0  0  0  0  0  0  0
  188.5630  173.1170  143.1160 O   0  0  0  0  0  1  0  0  0  0  0  0
  195.1690  174.9410  146.1380 C   0  0  0  0  0  3  0  0  0  0  0  0
  187.7690  175.9630  144.1800 C   0  0  0  0  0  3  0  0  0  0  0  0
  191.3110  173.0820  144.8660 C   0  0  2  0  0  3  0  0  0  0  0  0
  189.4520  174.1850  143.2960 C   0  0  1  0  0  0  0  0  0  0  0  0
  190.1870  174.1070  144.6690 C   0  0  1  0  0  3  0  0  0  0  0  0
  192.5090  173.0560  142.6030 C   0  0  2  0  0  3  0  0  0  0  0  0
  194.3110  176.0400  146.2090 C   0  0  0  0  0  3  0  0  0  0  0  0
  187.4760  177.9190  142.7560 C   0  0  0  0  0  3  0  0  0  0  0  0
  188.6820  175.4630  143.2450 C   0  0  0  0  0  0  0  0  0  0  0  0
  193.3920  176.2810  145.1820 C   0  0  0  0  0  3  0  0  0  0  0  0
  188.3770  177.3840  141.8200 C   0  0  0  0  0  3  0  0  0  0  0  0
  191.6400  172.2670  143.6100 C   0  0  1  0  0  3  0  0  0  0  0  0
  193.8750  173.2480  143.0990 N   0  0  0  0  0  2  0  0  0  0  0  0
  189.8700  175.4670  141.2570 N   0  0  0  0  0  2  0  0  0  0  0  0
  192.7520  176.6520  142.1440 O   0  0  0  0  0  1  0  0  0  0  0  0
  195.0860  174.0630  145.0530 C   0  0  0  0  0  3  0  0  0  0  0  0
  191.8730  174.4040  142.1930 C   0  0  1  0  0  3  0  0  0  0  0  0
  194.1400  174.2750  144.0510 C   0  0  0  0  0  0  0  0  0  0  0  0
  192.1520  170.0130  142.9010 O   0  0  0  0  0  1  0  0  0  0  0  0
  192.2490  170.9070  143.9690 C   0  0  0  0  0  2  0  0  0  0  0  0
  186.5410  178.0760  146.0910 C   0  0  0  0  0  3  0  0  0  0  0  0
  186.2170  177.7130  144.8920 N   0  0  0  0  0  0  0  0  0  0  0  0
  185.5270  178.6290  147.0000 C   0  0  0  0  0  0  0  0  0  0  0  0
  185.8750  179.4170  147.9170 O   0  0  0  0  0  0  0  0  0  0  0  0
  184.1510  178.2910  146.8420 N   0  0  0  0  0  1  0  0  0  0  0  0
  1  9  1  0  0  0  0
  1 29  1  0  0  0  0
  2 21  1  1  0  0  0
  2 24  1  0  0  0  0
  2 11  1  0  0  0  0
  4 22  1  6  0  0  0
  4  5  1  0  0  0  0
  5 17  1  0  0  0  0
  6 16  1  0  0  0  0
  8 14  1  0  0  0  0
 10  3  1  1  0  0  0
 11  7  1  6  0  0  0
 11 12  1  0  0  0  0
 12 10  1  0  0  0  0
 12  3  1  1  0  0  0
 13 20  1  1  0  0  0
 13 19  1  0  0  0  0
 15  1  2  0  0  0  0
 16 11  1  0  0  0  0
 16  9  2  0  0  0  0
 17 14  2  0  0  0  0
 18  6  2  0  0  0  0
 18 15  1  0  0  0  0
 19 27  1  1  0  0  0
 19 10  1  0  0  0  0
 20 25  1  0  0  0  0
 21  6  1  0  0  0  0
 23  8  2  0  0  0  0
 24 13  1  0  0  0  0
 24  4  1  0  0  0  0
 25  5  2  0  0  0  0
 25 23  1  0  0  0  0
 26 27  1  0  0  0  0
 28 30  1  0  0  0  0
 29 28  2  0  0  0  0
 30 31  2  0  0  0  0
 32 30  1  0  0  0  0
M  END
>  <MODEL>
8

>  <REMARK>
 VINA RESULT:      -6.5      2.820      4.766
  Name = 
  3 active torsions:
  status: ('A' for Active; 'I' for Inactive)
    1  A    between atoms: C_1  and  C_10
    2  A    between atoms: C_2  and  N_24
    3  A    between atoms: C_25  and  C_26
                            x       y       z     vdW  Elec       q    Type
                         _______ _______ _______ _____ _____    ______ ____

>  <TORSDO>
F 3

$$$$
=
 OpenBabel11052421403D

 32 37  0  0  1  0  0  0  0  0999 V2000
  194.0390  174.5740  140.4130 C   0  0  0  0  0  0  0  0  0  0  0  0
  192.5390  175.8640  144.6990 C   0  0  1  0  0  3  0  0  0  0  0  0
  189.9630  173.3340  143.7510 C   0  0  0  0  0  2  0  0  0  0  0  0
  190.9640  177.6430  143.7000 C   0  0  1  0  0  3  0  0  0  0  0  0
  189.4740  177.7870  143.5660 C   0  0  0  0  0  0  0  0  0  0  0  0
  193.9060  175.9350  142.8400 C   0  0  0  0  0  0  0  0  0  0  0  0
  192.5470  173.4700  144.4040 O   0  0  0  0  0  1  0  0  0  0  0  0
  186.6940  178.0090  143.2930 C   0  0  0  0  0  3  0  0  0  0  0  0
  193.1210  174.1700  141.3970 C   0  0  0  0  0  3  0  0  0  0  0  0
  189.5320  174.6950  144.2540 C   0  0  2  0  0  3  0  0  0  0  0  0
  192.1590  174.6560  143.7660 C   0  0  1  0  0  0  0  0  0  0  0  0
  190.6880  174.5860  143.2510 C   0  0  1  0  0  3  0  0  0  0  0  0
  190.3680  176.4150  145.9560 C   0  0  2  0  0  3  0  0  0  0  0  0
  187.5100  178.0250  142.1610 C   0  0  0  0  0  3  0  0  0  0  0  0
  194.8880  175.6800  140.6610 C   0  0  0  0  0  3  0  0  0  0  0  0
  193.0580  174.8880  142.5970 C   0  0  0  0  0  0  0  0  0  0  0  0
  188.8990  177.9250  142.2960 C   0  0  0  0  0  3  0  0  0  0  0  0
  194.8220  176.3680  141.8850 C   0  0  0  0  0  3  0  0  0  0  0  0
  189.9800  174.9400  145.6980 C   0  0  1  0  0  3  0  0  0  0  0  0
  189.1950  177.2960  145.9410 N   0  0  0  0  0  2  0  0  0  0  0  0
  193.7120  176.5110  144.1140 N   0  0  0  0  0  2  0  0  0  0  0  0
  191.5780  178.8910  143.5870 O   0  0  0  0  0  1  0  0  0  0  0  0
  187.2650  177.8600  144.5600 C   0  0  0  0  0  3  0  0  0  0  0  0
  191.4570  176.9250  144.9840 C   0  0  1  0  0  3  0  0  0  0  0  0
  188.6450  177.7130  144.6940 C   0  0  0  0  0  0  0  0  0  0  0  0
  189.4030  174.5470  148.0130 O   0  0  0  0  0  1  0  0  0  0  0  0
  188.9410  174.4250  146.7020 C   0  0  0  0  0  2  0  0  0  0  0  0
  194.7090  174.2710  138.1260 C   0  0  0  0  0  3  0  0  0  0  0  0
  194.1150  173.8310  139.1880 N   0  0  0  0  0  0  0  0  0  0  0  0
  194.7880  173.4380  136.9190 C   0  0  0  0  0  0  0  0  0  0  0  0
  195.7250  173.6170  136.0980 O   0  0  0  0  0  0  0  0  0  0  0  0
  193.8210  172.4190  136.6760 N   0  0  0  0  0  1  0  0  0  0  0  0
  1 15  2  0  0  0  0
  1  9  1  0  0  0  0
  2 21  1  6  0  0  0
  2 24  1  0  0  0  0
  4 22  1  1  0  0  0
  4 24  1  0  0  0  0
  5  4  1  0  0  0  0
  5 25  1  0  0  0  0
  6 21  1  0  0  0  0
  8 23  1  0  0  0  0
  9 16  2  0  0  0  0
 10  3  1  1  0  0  0
 10 19  1  0  0  0  0
 11  7  1  1  0  0  0
 11  2  1  0  0  0  0
 12  3  1  1  0  0  0
 12 11  1  0  0  0  0
 12 10  1  0  0  0  0
 13 20  1  6  0  0  0
 14 17  1  0  0  0  0
 14  8  2  0  0  0  0
 15 18  1  0  0  0  0
 16  6  1  0  0  0  0
 16 11  1  0  0  0  0
 17  5  2  0  0  0  0
 18  6  2  0  0  0  0
 19 13  1  0  0  0  0
 19 27  1  1  0  0  0
 23 25  2  0  0  0  0
 24 13  1  0  0  0  0
 25 20  1  0  0  0  0
 27 26  1  0  0  0  0
 28 29  2  0  0  0  0
 29  1  1  0  0  0  0
 30 28  1  0  0  0  0
 31 30  2  0  0  0  0
 32 30  1  0  0  0  0
M  END
>  <MODEL>
9

>  <REMARK>
 VINA RESULT:      -6.5      3.782      7.438
  Name = 
  3 active torsions:
  status: ('A' for Active; 'I' for Inactive)
    1  A    between atoms: C_1  and  C_10
    2  A    between atoms: C_2  and  N_24
    3  A    between atoms: C_25  and  C_26
                            x       y       z     vdW  Elec       q    Type
                         _______ _______ _______ _____ _____    ______ ____

>  <TORSDO>
F 3

$$$$
