=
 OpenBabel11052420223D

 34 39  0  0  1  0  0  0  0  0999 V2000
  190.1820  173.4350  143.4500 C   0  0  1  0  0  3  0  0  0  0  0  0
  191.2090  174.3830  142.9080 C   0  0  1  0  0  3  0  0  0  0  0  0
  191.2900  171.5930  141.5050 C   0  0  2  0  0  0  0  0  0  0  0  0
  191.7850  171.5440  142.9960 C   0  0  0  0  0  2  0  0  0  0  0  0
  190.8550  172.1790  144.0730 C   0  0  0  0  0  2  0  0  0  0  0  0
  190.9110  172.8780  141.0080 O   0  0  0  0  0  0  0  0  0  0  0  0
  191.7460  173.8840  141.5430 C   0  0  0  0  0  2  0  0  0  0  0  0
  190.0660  170.7050  141.3960 C   0  0  0  0  0  1  0  0  0  0  0  0
  190.5860  175.6330  142.7570 O   0  0  0  0  0  0  0  0  0  0  0  0
  189.3890  174.3220  144.3600 C   0  0  0  0  0  2  0  0  0  0  0  0
  189.4110  175.6460  143.5540 C   0  0  1  0  0  0  0  0  0  0  0  0
  190.7400  177.6530  144.5060 C   0  0  0  0  0  2  0  0  0  0  0  0
  187.7940  176.0360  146.4300 C   0  0  0  0  0  2  0  0  0  0  0  0
  185.5660  176.7910  145.5820 C   0  0  0  0  0  3  0  0  0  0  0  0
  190.3370  175.6450  146.6490 C   0  0  0  0  0  2  0  0  0  0  0  0
  193.2110  177.5540  144.8200 C   0  0  0  0  0  2  0  0  0  0  0  0
  194.1860  175.9810  146.5130 C   0  0  0  0  0  3  0  0  0  0  0  0
  186.0520  178.7700  144.5760 N   0  0  0  0  0  0  0  0  0  0  0  0
  194.3550  176.9490  145.5920 C   0  0  0  0  0  3  0  0  0  0  0  0
  191.6980  176.3360  146.4540 C   0  0  2  0  0  3  0  0  0  0  0  0
  191.8970  176.7900  144.9940 C   0  0  1  0  0  3  0  0  0  0  0  0
  192.8370  175.3700  146.7930 C   0  0  0  0  0  2  0  0  0  0  0  0
  186.8310  177.0350  145.8670 C   0  0  0  0  0  0  0  0  0  0  0  0
  185.1040  177.9210  144.7930 C   0  0  0  0  0  3  0  0  0  0  0  0
  188.3120  177.9170  144.1050 C   0  0  0  0  0  2  0  0  0  0  0  0
  187.2810  178.2830  145.1940 C   0  0  1  0  0  3  0  0  0  0  0  0
  189.2160  176.4990  146.0600 C   0  0  1  0  0  3  0  0  0  0  0  0
  189.4040  176.8930  144.5530 C   0  0  1  0  0  0  0  0  0  0  0  0
  187.1160  175.0900  143.0180 O   0  0  0  0  0  1  0  0  0  0  0  0
  188.2270  176.2180  141.3700 O   0  0  0  0  0  0  0  0  0  0  0  0
  188.1910  175.6550  142.6340 C   0  0  0  0  0  0  0  0  0  0  0  0
  192.3400  171.0350  140.5540 C   0  0  0  0  0  0  0  0  0  0  0  0
  192.1780  171.2400  139.1850 O   0  0  0  0  0  0  0  0  0  0  0  0
  193.5060  170.8350  141.0100 O   0  0  0  0  0  1  0  0  0  0  0  0
  1  5  1  1  0  0  0
  1 10  1  0  0  0  0
  2  7  1  6  0  0  0
  2  1  1  0  0  0  0
  3  8  1  6  0  0  0
  3  4  1  0  0  0  0
  4  5  1  0  0  0  0
  6  3  1  0  0  0  0
  6  7  1  0  0  0  0
  9  2  1  0  0  0  0
  9 11  1  0  0  0  0
 11 31  1  6  0  0  0
 11 10  1  0  0  0  0
 11 28  1  0  0  0  0
 12 28  1  0  0  0  0
 14 23  2  0  0  0  0
 16 21  1  0  0  0  0
 16 19  1  0  0  0  0
 17 22  1  0  0  0  0
 18 24  2  0  0  0  0
 18 26  1  0  0  0  0
 19 17  2  0  0  0  0
 20 15  1  6  0  0  0
 20 22  1  0  0  0  0
 21 12  1  1  0  0  0
 21 20  1  0  0  0  0
 23 13  1  0  0  0  0
 24 14  1  0  0  0  0
 26 25  1  6  0  0  0
 26 23  1  0  0  0  0
 27 13  1  6  0  0  0
 27 15  1  0  0  0  0
 28 25  1  6  0  0  0
 28 27  1  0  0  0  0
 30 31  2  0  0  0  0
 31 29  1  0  0  0  0
 32 34  1  0  0  0  0
 32  3  1  0  0  0  0
 33 32  2  0  0  0  0
M  END
>  <MODEL>
1

>  <REMARK>
 VINA RESULT:      -7.8      0.000      0.000
  Name = 
  3 active torsions:
  status: ('A' for Active; 'I' for Inactive)
    1  A    between atoms: C_7  and  C_11
    2  A    between atoms: C_18  and  C_33
    3  A    between atoms: C_33  and  C_34
                            x       y       z     vdW  Elec       q    Type
                         _______ _______ _______ _____ _____    ______ ____

>  <TORSDO>
F 3

$$$$
=
 OpenBabel11052420223D

 34 39  0  0  1  0  0  0  0  0999 V2000
  191.9530  173.5570  141.7340 C   0  0  1  0  0  3  0  0  0  0  0  0
  190.8790  174.5900  141.9010 C   0  0  1  0  0  3  0  0  0  0  0  0
  190.5280  172.9010  139.2960 C   0  0  2  0  0  0  0  0  0  0  0  0
  191.7680  173.8650  139.2390 C   0  0  0  0  0  2  0  0  0  0  0  0
  192.7680  173.8050  140.4330 C   0  0  0  0  0  2  0  0  0  0  0  0
  189.7410  172.9540  140.4880 O   0  0  0  0  0  0  0  0  0  0  0  0
  189.6730  174.2760  140.9800 C   0  0  0  0  0  2  0  0  0  0  0  0
  191.0420  171.4800  139.1770 C   0  0  0  0  0  1  0  0  0  0  0  0
  190.4800  174.5650  143.2470 O   0  0  0  0  0  0  0  0  0  0  0  0
  192.6810  173.6520  143.0390 C   0  0  0  0  0  2  0  0  0  0  0  0
  191.4990  173.9270  144.0040 C   0  0  1  0  0  0  0  0  0  0  0  0
  190.9470  174.8780  146.3480 C   0  0  0  0  0  2  0  0  0  0  0  0
  193.4340  176.6270  143.9480 C   0  0  0  0  0  2  0  0  0  0  0  0
  195.6910  175.5500  143.9540 C   0  0  0  0  0  3  0  0  0  0  0  0
  190.9280  177.0870  144.3690 C   0  0  0  0  0  2  0  0  0  0  0  0
  188.6090  175.4100  147.0260 C   0  0  0  0  0  2  0  0  0  0  0  0
  187.3730  177.2650  145.8760 C   0  0  0  0  0  3  0  0  0  0  0  0
  195.7360  174.4810  145.9600 N   0  0  0  0  0  0  0  0  0  0  0  0
  187.4170  176.3100  146.8250 C   0  0  0  0  0  3  0  0  0  0  0  0
  189.8320  176.9720  145.4420 C   0  0  2  0  0  3  0  0  0  0  0  0
  189.6360  175.5110  145.8970 C   0  0  1  0  0  3  0  0  0  0  0  0
  188.4910  177.4610  144.8850 C   0  0  0  0  0  2  0  0  0  0  0  0
  194.5950  175.9290  144.5850 C   0  0  0  0  0  0  0  0  0  0  0  0
  196.3950  174.6630  144.8660 C   0  0  0  0  0  3  0  0  0  0  0  0
  193.2880  174.2560  145.8360 C   0  0  0  0  0  2  0  0  0  0  0  0
  194.4840  175.2290  145.8930 C   0  0  1  0  0  3  0  0  0  0  0  0
  192.1930  176.3560  144.8190 C   0  0  1  0  0  3  0  0  0  0  0  0
  191.9850  174.8520  145.2130 C   0  0  1  0  0  0  0  0  0  0  0  0
  191.7700  171.5870  144.5630 O   0  0  0  0  0  0  0  0  0  0  0  0
  189.6480  172.3870  144.8400 O   0  0  0  0  0  1  0  0  0  0  0  0
  190.9750  172.5800  144.4990 C   0  0  0  0  0  0  0  0  0  0  0  0
  189.5850  173.1410  138.1250 C   0  0  0  0  0  0  0  0  0  0  0  0
  188.2360  172.8260  138.2780 O   0  0  0  0  0  1  0  0  0  0  0  0
  189.9170  174.0120  137.2660 O   0  0  0  0  0  0  0  0  0  0  0  0
  1  5  1  6  0  0  0
  1  2  1  0  0  0  0
  1 10  1  0  0  0  0
  2  7  1  6  0  0  0
  2  9  1  0  0  0  0
  3  8  1  6  0  0  0
  3  6  1  0  0  0  0
  4  3  1  0  0  0  0
  4  5  1  0  0  0  0
  6  7  1  0  0  0  0
  9 11  1  0  0  0  0
 10 11  1  0  0  0  0
 11 31  1  1  0  0  0
 11 28  1  0  0  0  0
 13 23  1  0  0  0  0
 14 23  2  0  0  0  0
 14 24  1  0  0  0  0
 15 27  1  0  0  0  0
 17 19  2  0  0  0  0
 19 16  1  0  0  0  0
 20 15  1  6  0  0  0
 20 21  1  0  0  0  0
 21 12  1  1  0  0  0
 21 16  1  0  0  0  0
 22 20  1  0  0  0  0
 22 17  1  0  0  0  0
 23 26  1  0  0  0  0
 24 18  2  0  0  0  0
 26 25  1  6  0  0  0
 26 18  1  0  0  0  0
 27 13  1  6  0  0  0
 27 28  1  0  0  0  0
 28 25  1  1  0  0  0
 28 12  1  0  0  0  0
 31 29  2  0  0  0  0
 31 30  1  0  0  0  0
 32 33  1  0  0  0  0
 32  3  1  0  0  0  0
 34 32  2  0  0  0  0
M  END
>  <MODEL>
2

>  <REMARK>
 VINA RESULT:      -7.8      2.755      5.477
  Name = 
  3 active torsions:
  status: ('A' for Active; 'I' for Inactive)
    1  A    between atoms: C_7  and  C_11
    2  A    between atoms: C_18  and  C_33
    3  A    between atoms: C_33  and  C_34
                            x       y       z     vdW  Elec       q    Type
                         _______ _______ _______ _____ _____    ______ ____

>  <TORSDO>
F 3

$$$$
=
 OpenBabel11052420223D

 34 39  0  0  1  0  0  0  0  0999 V2000
  187.7100  177.5250  144.6490 C   0  0  1  0  0  3  0  0  0  0  0  0
  187.4570  176.3890  143.7050 C   0  0  1  0  0  3  0  0  0  0  0  0
  185.1360  178.4800  143.7190 C   0  0  2  0  0  0  0  0  0  0  0  0
  185.2260  177.6540  145.0530 C   0  0  0  0  0  2  0  0  0  0  0  0
  186.6160  177.5870  145.7530 C   0  0  0  0  0  2  0  0  0  0  0  0
  186.0860  178.1450  142.7050 O   0  0  0  0  0  0  0  0  0  0  0  0
  186.3370  176.7560  142.6980 C   0  0  0  0  0  2  0  0  0  0  0  0
  185.3630  179.9390  144.0630 C   0  0  0  0  0  1  0  0  0  0  0  0
  188.6590  176.1370  143.0220 O   0  0  0  0  0  0  0  0  0  0  0  0
  189.1200  177.2610  145.0820 C   0  0  0  0  0  2  0  0  0  0  0  0
  189.7240  176.7150  143.7620 C   0  0  1  0  0  0  0  0  0  0  0  0
  191.5500  175.1520  142.8020 C   0  0  0  0  0  2  0  0  0  0  0  0
  189.8820  174.5040  146.2370 C   0  0  0  0  0  2  0  0  0  0  0  0
  190.8310  175.9410  148.0490 C   0  0  0  0  0  3  0  0  0  0  0  0
  189.3460  173.5100  143.9140 C   0  0  0  0  0  2  0  0  0  0  0  0
  191.2980  174.0590  140.5760 C   0  0  0  0  0  2  0  0  0  0  0  0
  189.5080  172.3360  140.2340 C   0  0  0  0  0  3  0  0  0  0  0  0
  192.8810  176.4940  147.2360 N   0  0  0  0  0  0  0  0  0  0  0  0
  190.5590  173.0310  139.7590 C   0  0  0  0  0  3  0  0  0  0  0  0
  189.9880  173.1660  142.5590 C   0  0  2  0  0  3  0  0  0  0  0  0
  190.5840  174.4160  141.8810 C   0  0  1  0  0  3  0  0  0  0  0  0
  188.9370  172.5870  141.6060 C   0  0  0  0  0  2  0  0  0  0  0  0
  190.9820  175.2310  146.9470 C   0  0  0  0  0  0  0  0  0  0  0  0
  192.0600  176.7000  148.2120 C   0  0  0  0  0  3  0  0  0  0  0  0
  191.9730  176.2930  144.9570 C   0  0  0  0  0  2  0  0  0  0  0  0
  192.2710  175.5680  146.2860 C   0  0  1  0  0  3  0  0  0  0  0  0
  190.3130  174.3310  144.7680 C   0  0  1  0  0  3  0  0  0  0  0  0
  190.8550  175.6350  144.0860 C   0  0  1  0  0  0  0  0  0  0  0  0
  189.7280  178.2410  141.8820 O   0  0  0  0  0  0  0  0  0  0  0  0
  191.4070  178.5930  143.3920 O   0  0  0  0  0  1  0  0  0  0  0  0
  190.2830  177.9010  142.9770 C   0  0  0  0  0  0  0  0  0  0  0  0
  183.7530  178.3720  143.0930 C   0  0  0  0  0  0  0  0  0  0  0  0
  182.7090  179.1100  143.6480 O   0  0  0  0  0  1  0  0  0  0  0  0
  183.6790  178.0260  141.8760 O   0  0  0  0  0  0  0  0  0  0  0  0
  1 10  1  1  0  0  0
  1  5  1  0  0  0  0
  2  7  1  6  0  0  0
  2  1  1  0  0  0  0
  3  8  1  1  0  0  0
  3  4  1  0  0  0  0
  4  5  1  0  0  0  0
  6  3  1  0  0  0  0
  7  6  1  0  0  0  0
  9  2  1  0  0  0  0
  9 11  1  0  0  0  0
 11 31  1  6  0  0  0
 11 28  1  0  0  0  0
 11 10  1  0  0  0  0
 13 23  1  0  0  0  0
 14 24  1  0  0  0  0
 17 22  1  0  0  0  0
 18 24  2  0  0  0  0
 19 17  2  0  0  0  0
 19 16  1  0  0  0  0
 20 22  1  6  0  0  0
 20 15  1  0  0  0  0
 21 16  1  6  0  0  0
 21 20  1  0  0  0  0
 21 12  1  0  0  0  0
 23 14  2  0  0  0  0
 26 25  1  6  0  0  0
 26 23  1  0  0  0  0
 26 18  1  0  0  0  0
 27 15  1  6  0  0  0
 27 13  1  0  0  0  0
 28 12  1  6  0  0  0
 28 27  1  0  0  0  0
 28 25  1  0  0  0  0
 29 31  2  0  0  0  0
 31 30  1  0  0  0  0
 32 33  1  0  0  0  0
 32  3  1  0  0  0  0
 34 32  2  0  0  0  0
M  END
>  <MODEL>
3

>  <REMARK>
 VINA RESULT:      -7.7      2.759      6.701
  Name = 
  3 active torsions:
  status: ('A' for Active; 'I' for Inactive)
    1  A    between atoms: C_7  and  C_11
    2  A    between atoms: C_18  and  C_33
    3  A    between atoms: C_33  and  C_34
                            x       y       z     vdW  Elec       q    Type
                         _______ _______ _______ _____ _____    ______ ____

>  <TORSDO>
F 3

$$$$
=
 OpenBabel11052420223D

 34 39  0  0  1  0  0  0  0  0999 V2000
  188.2030  176.3940  142.0580 C   0  0  1  0  0  3  0  0  0  0  0  0
  187.8320  176.0240  143.4620 C   0  0  1  0  0  3  0  0  0  0  0  0
  185.8260  178.0480  142.1810 C   0  0  2  0  0  0  0  0  0  0  0  0
  187.2330  178.6820  142.4750 C   0  0  0  0  0  2  0  0  0  0  0  0
  188.4810  177.9190  141.9370 C   0  0  0  0  0  2  0  0  0  0  0  0
  185.6590  176.6790  142.5590 O   0  0  0  0  0  0  0  0  0  0  0  0
  186.3580  176.4050  143.7550 C   0  0  0  0  0  2  0  0  0  0  0  0
  185.5910  178.1180  140.6850 C   0  0  0  0  0  1  0  0  0  0  0  0
  188.0080  174.6360  143.5900 O   0  0  0  0  0  0  0  0  0  0  0  0
  189.3380  175.4560  141.7800 C   0  0  0  0  0  2  0  0  0  0  0  0
  188.8560  174.1940  142.5400 C   0  0  1  0  0  0  0  0  0  0  0  0
  190.0670  173.3010  144.6470 C   0  0  0  0  0  2  0  0  0  0  0  0
  191.9330  173.9370  141.3140 C   0  0  0  0  0  2  0  0  0  0  0  0
  191.5930  172.0950  139.6580 C   0  0  0  0  0  3  0  0  0  0  0  0
  191.7120  175.4340  143.4070 C   0  0  0  0  0  2  0  0  0  0  0  0
  190.0150  174.5410  146.8090 C   0  0  0  0  0  2  0  0  0  0  0  0
  191.1440  176.7730  146.9880 C   0  0  0  0  0  3  0  0  0  0  0  0
  191.0250  170.3300  140.9740 N   0  0  0  0  0  0  0  0  0  0  0  0
  190.4630  175.7650  147.5650 C   0  0  0  0  0  3  0  0  0  0  0  0
  191.5040  175.3750  144.9300 C   0  0  2  0  0  3  0  0  0  0  0  0
  190.1780  174.6770  145.2940 C   0  0  1  0  0  3  0  0  0  0  0  0
  191.4510  176.7910  145.5130 C   0  0  0  0  0  2  0  0  0  0  0  0
  191.7550  172.5090  140.9000 C   0  0  0  0  0  0  0  0  0  0  0  0
  191.1620  170.7100  139.7480 C   0  0  0  0  0  3  0  0  0  0  0  0
  190.0690  171.9160  142.5960 C   0  0  0  0  0  2  0  0  0  0  0  0
  191.3410  171.4490  141.8580 C   0  0  1  0  0  3  0  0  0  0  0  0
  191.4950  174.0540  142.7860 C   0  0  1  0  0  3  0  0  0  0  0  0
  190.1120  173.3900  143.1120 C   0  0  1  0  0  0  0  0  0  0  0  0
  187.0660  172.6510  142.0130 O   0  0  0  0  0  1  0  0  0  0  0  0
  188.3440  173.2670  140.2210 O   0  0  0  0  0  0  0  0  0  0  0  0
  188.0380  173.3460  141.5690 C   0  0  0  0  0  0  0  0  0  0  0  0
  184.7110  178.8380  142.8520 C   0  0  0  0  0  0  0  0  0  0  0  0
  183.4040  178.3650  142.7530 O   0  0  0  0  0  0  0  0  0  0  0  0
  185.0190  179.5860  143.8280 O   0  0  0  0  0  1  0  0  0  0  0  0
  1 10  1  1  0  0  0
  1  2  1  0  0  0  0
  2  9  1  0  0  0  0
  2  7  1  6  0  0  0
  3  8  1  6  0  0  0
  3  4  1  0  0  0  0
  3  6  1  0  0  0  0
  3 32  1  0  0  0  0
  5  1  1  0  0  0  0
  5  4  1  0  0  0  0
  6  7  1  0  0  0  0
 10 11  1  0  0  0  0
 11 31  1  6  0  0  0
 11 28  1  0  0  0  0
 11  9  1  0  0  0  0
 14 24  1  0  0  0  0
 14 23  2  0  0  0  0
 16 19  1  0  0  0  0
 17 19  2  0  0  0  0
 18 26  1  0  0  0  0
 20 15  1  6  0  0  0
 20 21  1  0  0  0  0
 20 22  1  0  0  0  0
 21 12  1  6  0  0  0
 21 16  1  0  0  0  0
 22 17  1  0  0  0  0
 23 13  1  0  0  0  0
 23 26  1  0  0  0  0
 24 18  2  0  0  0  0
 26 25  1  6  0  0  0
 27 13  1  6  0  0  0
 27 28  1  0  0  0  0
 27 15  1  0  0  0  0
 28 25  1  6  0  0  0
 28 12  1  0  0  0  0
 30 31  2  0  0  0  0
 31 29  1  0  0  0  0
 32 34  1  0  0  0  0
 33 32  2  0  0  0  0
M  END
>  <MODEL>
4

>  <REMARK>
 VINA RESULT:      -7.5      2.829      6.706
  Name = 
  3 active torsions:
  status: ('A' for Active; 'I' for Inactive)
    1  A    between atoms: C_7  and  C_11
    2  A    between atoms: C_18  and  C_33
    3  A    between atoms: C_33  and  C_34
                            x       y       z     vdW  Elec       q    Type
                         _______ _______ _______ _____ _____    ______ ____

>  <TORSDO>
F 3

$$$$
=
 OpenBabel11052420223D

 34 39  0  0  1  0  0  0  0  0999 V2000
  188.7100  177.4450  145.7590 C   0  0  1  0  0  3  0  0  0  0  0  0
  188.0680  176.3840  144.9170 C   0  0  1  0  0  3  0  0  0  0  0  0
  185.9820  178.3130  146.2160 C   0  0  2  0  0  0  0  0  0  0  0  0
  186.6880  177.3790  147.2630 C   0  0  0  0  0  2  0  0  0  0  0  0
  188.2460  177.3380  147.2400 C   0  0  0  0  0  2  0  0  0  0  0  0
  186.3630  178.1310  144.8500 O   0  0  0  0  0  0  0  0  0  0  0  0
  186.6050  176.7660  144.5790 C   0  0  0  0  0  2  0  0  0  0  0  0
  186.3180  179.7460  146.5750 C   0  0  0  0  0  1  0  0  0  0  0  0
  188.8240  176.2720  143.7380 O   0  0  0  0  0  0  0  0  0  0  0  0
  190.1640  177.2350  145.4690 C   0  0  0  0  0  2  0  0  0  0  0  0
  190.1010  176.8490  143.9690 C   0  0  1  0  0  0  0  0  0  0  0  0
  191.1420  175.2910  142.1820 C   0  0  0  0  0  2  0  0  0  0  0  0
  191.7470  174.7720  145.9730 C   0  0  0  0  0  2  0  0  0  0  0  0
  193.4790  176.3260  146.8880 C   0  0  0  0  0  3  0  0  0  0  0  0
  190.0440  173.6460  144.3920 C   0  0  0  0  0  2  0  0  0  0  0  0
  189.7320  174.0780  140.5230 C   0  0  0  0  0  2  0  0  0  0  0  0
  188.1550  172.2910  141.3030 C   0  0  0  0  0  3  0  0  0  0  0  0
  194.6760  176.8950  145.0410 N   0  0  0  0  0  0  0  0  0  0  0  0
  188.7150  172.9890  140.2970 C   0  0  0  0  0  3  0  0  0  0  0  0
  189.8220  173.2510  142.9220 C   0  0  2  0  0  3  0  0  0  0  0  0
  189.8640  174.4820  141.9930 C   0  0  1  0  0  3  0  0  0  0  0  0
  188.4490  172.5950  142.7500 C   0  0  0  0  0  2  0  0  0  0  0  0
  193.0160  175.5650  145.9140 C   0  0  0  0  0  0  0  0  0  0  0  0
  194.5430  177.1270  146.3040 C   0  0  0  0  0  3  0  0  0  0  0  0
  192.6500  176.5520  143.6860 C   0  0  0  0  0  2  0  0  0  0  0  0
  193.6850  175.9050  144.6300 C   0  0  1  0  0  3  0  0  0  0  0  0
  191.2790  174.5360  144.5240 C   0  0  1  0  0  3  0  0  0  0  0  0
  191.2720  175.8190  143.6210 C   0  0  1  0  0  0  0  0  0  0  0  0
  191.0280  179.0410  143.5240 O   0  0  0  0  0  1  0  0  0  0  0  0
  189.4350  178.3660  142.0320 O   0  0  0  0  0  0  0  0  0  0  0  0
  190.2170  178.1330  143.1490 C   0  0  0  0  0  0  0  0  0  0  0  0
  184.4670  178.1720  146.2820 C   0  0  0  0  0  0  0  0  0  0  0  0
  183.6950  178.7970  145.3040 O   0  0  0  0  0  0  0  0  0  0  0  0
  183.9910  177.1660  146.8880 O   0  0  0  0  0  1  0  0  0  0  0  0
  1 10  1  1  0  0  0
  1  5  1  0  0  0  0
  2  7  1  6  0  0  0
  2  1  1  0  0  0  0
  3 32  1  0  0  0  0
  3  8  1  1  0  0  0
  3  4  1  0  0  0  0
  5  4  1  0  0  0  0
  6  3  1  0  0  0  0
  7  6  1  0  0  0  0
  9 11  1  0  0  0  0
  9  2  1  0  0  0  0
 11 31  1  6  0  0  0
 11 10  1  0  0  0  0
 17 22  1  0  0  0  0
 18 24  2  0  0  0  0
 19 16  1  0  0  0  0
 19 17  2  0  0  0  0
 20 22  1  1  0  0  0
 20 15  1  0  0  0  0
 21 16  1  6  0  0  0
 21 12  1  0  0  0  0
 21 20  1  0  0  0  0
 23 13  1  0  0  0  0
 23 14  2  0  0  0  0
 24 14  1  0  0  0  0
 26 25  1  6  0  0  0
 26 18  1  0  0  0  0
 26 23  1  0  0  0  0
 27 15  1  1  0  0  0
 27 13  1  0  0  0  0
 28 12  1  6  0  0  0
 28 25  1  0  0  0  0
 28 11  1  0  0  0  0
 28 27  1  0  0  0  0
 30 31  2  0  0  0  0
 31 29  1  0  0  0  0
 32 34  1  0  0  0  0
 33 32  2  0  0  0  0
M  END
>  <MODEL>
5

>  <REMARK>
 VINA RESULT:      -7.5      3.044      7.092
  Name = 
  3 active torsions:
  status: ('A' for Active; 'I' for Inactive)
    1  A    between atoms: C_7  and  C_11
    2  A    between atoms: C_18  and  C_33
    3  A    between atoms: C_33  and  C_34
                            x       y       z     vdW  Elec       q    Type
                         _______ _______ _______ _____ _____    ______ ____

>  <TORSDO>
F 3

$$$$
=
 OpenBabel11052420223D

 34 39  0  0  1  0  0  0  0  0999 V2000
  189.7260  173.7150  142.6790 C   0  0  1  0  0  3  0  0  0  0  0  0
  191.1820  174.0440  142.5370 C   0  0  1  0  0  3  0  0  0  0  0  0
  190.0730  172.4300  140.1030 C   0  0  2  0  0  0  0  0  0  0  0  0
  190.1570  171.5750  141.4190 C   0  0  0  0  0  2  0  0  0  0  0  0
  189.5020  172.1760  142.6980 C   0  0  0  0  0  2  0  0  0  0  0  0
  190.5310  173.7810  140.1980 O   0  0  0  0  0  0  0  0  0  0  0  0
  191.6400  173.8690  141.0670 C   0  0  0  0  0  2  0  0  0  0  0  0
  188.6170  172.4920  139.6850 C   0  0  0  0  0  1  0  0  0  0  0  0
  191.3490  175.3790  142.9420 O   0  0  0  0  0  0  0  0  0  0  0  0
  189.3500  174.4880  143.9050 C   0  0  0  0  0  2  0  0  0  0  0  0
  190.2220  175.7560  143.7190 C   0  0  1  0  0  0  0  0  0  0  0  0
  192.0970  176.8900  145.0980 C   0  0  0  0  0  2  0  0  0  0  0  0
  189.3090  174.7780  146.7600 C   0  0  0  0  0  2  0  0  0  0  0  0
  187.1650  176.0410  147.0020 C   0  0  0  0  0  3  0  0  0  0  0  0
  191.7090  174.1170  146.0740 C   0  0  0  0  0  2  0  0  0  0  0  0
  194.5070  176.4390  144.6480 C   0  0  0  0  0  2  0  0  0  0  0  0
  195.4430  174.1520  145.0750 C   0  0  0  0  0  3  0  0  0  0  0  0
  187.8460  178.2090  146.9470 N   0  0  0  0  0  0  0  0  0  0  0  0
  195.6280  175.4340  144.7060 C   0  0  0  0  0  3  0  0  0  0  0  0
  193.1200  174.6960  145.8650 C   0  0  2  0  0  3  0  0  0  0  0  0
  193.1220  175.8050  144.7920 C   0  0  1  0  0  3  0  0  0  0  0  0
  194.0780  173.5990  145.3910 C   0  0  0  0  0  2  0  0  0  0  0  0
  188.4840  176.0010  147.0130 C   0  0  0  0  0  0  0  0  0  0  0  0
  186.8030  177.4490  146.9900 C   0  0  0  0  0  3  0  0  0  0  0  0
  189.7450  177.5220  145.5410 C   0  0  0  0  0  2  0  0  0  0  0  0
  189.0430  177.3750  146.9070 C   0  0  1  0  0  3  0  0  0  0  0  0
  190.6970  175.2430  146.2800 C   0  0  1  0  0  3  0  0  0  0  0  0
  190.6680  176.3250  145.1440 C   0  0  1  0  0  0  0  0  0  0  0  0
  189.9950  177.7620  142.3830 O   0  0  0  0  0  0  0  0  0  0  0  0
  188.0240  176.7000  142.8400 O   0  0  0  0  0  1  0  0  0  0  0  0
  189.4020  176.7790  142.9350 C   0  0  0  0  0  0  0  0  0  0  0  0
  190.8430  171.7740  138.9650 C   0  0  0  0  0  0  0  0  0  0  0  0
  191.0900  172.5150  137.8110 O   0  0  0  0  0  0  0  0  0  0  0  0
  191.6130  170.8090  139.2500 O   0  0  0  0  0  1  0  0  0  0  0  0
  1  5  1  1  0  0  0
  1 10  1  0  0  0  0
  2  7  1  6  0  0  0
  2  1  1  0  0  0  0
  2  9  1  0  0  0  0
  3  8  1  6  0  0  0
  3  6  1  0  0  0  0
  3  4  1  0  0  0  0
  4  5  1  0  0  0  0
  6  7  1  0  0  0  0
  9 11  1  0  0  0  0
 11 31  1  6  0  0  0
 11 10  1  0  0  0  0
 11 28  1  0  0  0  0
 13 23  1  0  0  0  0
 14 23  2  0  0  0  0
 16 19  1  0  0  0  0
 17 22  1  0  0  0  0
 18 24  2  0  0  0  0
 19 17  2  0  0  0  0
 20 22  1  6  0  0  0
 20 15  1  0  0  0  0
 21 16  1  1  0  0  0
 21 12  1  0  0  0  0
 21 20  1  0  0  0  0
 24 14  1  0  0  0  0
 26 25  1  6  0  0  0
 26 18  1  0  0  0  0
 26 23  1  0  0  0  0
 27 15  1  6  0  0  0
 27 13  1  0  0  0  0
 28 12  1  6  0  0  0
 28 25  1  0  0  0  0
 28 27  1  0  0  0  0
 29 31  2  0  0  0  0
 30 31  1  0  0  0  0
 32 34  1  0  0  0  0
 32  3  1  0  0  0  0
 33 32  2  0  0  0  0
M  END
>  <MODEL>
6

>  <REMARK>
 VINA RESULT:      -7.3      1.590      2.089
  Name = 
  3 active torsions:
  status: ('A' for Active; 'I' for Inactive)
    1  A    between atoms: C_7  and  C_11
    2  A    between atoms: C_18  and  C_33
    3  A    between atoms: C_33  and  C_34
                            x       y       z     vdW  Elec       q    Type
                         _______ _______ _______ _____ _____    ______ ____

>  <TORSDO>
F 3

$$$$
=
 OpenBabel11052420223D

 34 39  0  0  1  0  0  0  0  0999 V2000
  189.5810  176.0480  145.8250 C   0  0  1  0  0  3  0  0  0  0  0  0
  188.9130  175.9870  144.4840 C   0  0  1  0  0  3  0  0  0  0  0  0
  187.2420  177.5820  146.5880 C   0  0  2  0  0  0  0  0  0  0  0  0
  187.2960  176.0400  146.8880 C   0  0  0  0  0  2  0  0  0  0  0  0
  188.7030  175.3720  146.9160 C   0  0  0  0  0  2  0  0  0  0  0  0
  187.9230  178.0190  145.4090 O   0  0  0  0  0  0  0  0  0  0  0  0
  187.8010  177.0600  144.3790 C   0  0  0  0  0  2  0  0  0  0  0  0
  187.8860  178.3020  147.7550 C   0  0  0  0  0  1  0  0  0  0  0  0
  189.9020  176.2180  143.5140 O   0  0  0  0  0  0  0  0  0  0  0  0
  190.9180  175.4400  145.5340 C   0  0  0  0  0  2  0  0  0  0  0  0
  191.1720  175.9850  144.1050 C   0  0  1  0  0  0  0  0  0  0  0  0
  191.4130  174.7170  141.8600 C   0  0  0  0  0  2  0  0  0  0  0  0
  192.9390  173.3750  145.1570 C   0  0  0  0  0  2  0  0  0  0  0  0
  195.0870  174.5100  145.7500 C   0  0  0  0  0  3  0  0  0  0  0  0
  190.7070  172.7890  143.9990 C   0  0  0  0  0  2  0  0  0  0  0  0
  189.4230  174.0310  140.5260 C   0  0  0  0  0  2  0  0  0  0  0  0
  187.8480  172.3060  141.4420 C   0  0  0  0  0  3  0  0  0  0  0  0
  195.8090  175.3070  143.7480 N   0  0  0  0  0  0  0  0  0  0  0  0
  188.2180  173.1290  140.4420 C   0  0  0  0  0  3  0  0  0  0  0  0
  190.0290  172.7280  142.6190 C   0  0  2  0  0  3  0  0  0  0  0  0
  190.0170  174.1100  141.9330 C   0  0  1  0  0  3  0  0  0  0  0  0
  188.5730  172.2760  142.7630 C   0  0  0  0  0  2  0  0  0  0  0  0
  194.2560  174.0190  144.8500 C   0  0  0  0  0  0  0  0  0  0  0  0
  196.0660  175.2900  145.0130 C   0  0  0  0  0  3  0  0  0  0  0  0
  193.4620  175.4720  143.0260 C   0  0  0  0  0  2  0  0  0  0  0  0
  194.5940  174.5360  143.4980 C   0  0  1  0  0  3  0  0  0  0  0  0
  192.0600  173.4920  143.8970 C   0  0  1  0  0  3  0  0  0  0  0  0
  192.0170  174.9240  143.2590 C   0  0  1  0  0  0  0  0  0  0  0  0
  191.5460  178.3020  143.5130 O   0  0  0  0  0  0  0  0  0  0  0  0
  192.9910  177.4800  145.0800 O   0  0  0  0  0  1  0  0  0  0  0  0
  191.9080  177.3170  144.2340 C   0  0  0  0  0  0  0  0  0  0  0  0
  185.8060  178.0770  146.4860 C   0  0  0  0  0  0  0  0  0  0  0  0
  185.5710  179.3380  145.9410 O   0  0  0  0  0  0  0  0  0  0  0  0
  184.8820  177.2110  146.4440 O   0  0  0  0  0  1  0  0  0  0  0  0
  1 10  1  6  0  0  0
  1  5  1  0  0  0  0
  2  7  1  1  0  0  0
  2  1  1  0  0  0  0
  3  4  1  0  0  0  0
  3  8  1  1  0  0  0
  4  5  1  0  0  0  0
  6  3  1  0  0  0  0
  7  6  1  0  0  0  0
  9 11  1  0  0  0  0
  9  2  1  0  0  0  0
 11 31  1  1  0  0  0
 11 10  1  0  0  0  0
 12 21  1  0  0  0  0
 17 22  1  0  0  0  0
 18 24  2  0  0  0  0
 19 16  1  0  0  0  0
 19 17  2  0  0  0  0
 20 22  1  1  0  0  0
 20 15  1  0  0  0  0
 21 16  1  6  0  0  0
 21 20  1  0  0  0  0
 23 13  1  0  0  0  0
 23 14  2  0  0  0  0
 24 14  1  0  0  0  0
 25 28  1  0  0  0  0
 26 25  1  1  0  0  0
 26 18  1  0  0  0  0
 26 23  1  0  0  0  0
 27 15  1  1  0  0  0
 27 13  1  0  0  0  0
 28 12  1  6  0  0  0
 28 27  1  0  0  0  0
 28 11  1  0  0  0  0
 29 31  2  0  0  0  0
 31 30  1  0  0  0  0
 32  3  1  0  0  0  0
 33 32  2  0  0  0  0
 34 32  1  0  0  0  0
M  END
>  <MODEL>
7

>  <REMARK>
 VINA RESULT:      -7.1      3.040      7.264
  Name = 
  3 active torsions:
  status: ('A' for Active; 'I' for Inactive)
    1  A    between atoms: C_7  and  C_11
    2  A    between atoms: C_18  and  C_33
    3  A    between atoms: C_33  and  C_34
                            x       y       z     vdW  Elec       q    Type
                         _______ _______ _______ _____ _____    ______ ____

>  <TORSDO>
F 3

$$$$
=
 OpenBabel11052420223D

 34 39  0  0  1  0  0  0  0  0999 V2000
  188.9870  175.6180  143.8460 C   0  0  1  0  0  3  0  0  0  0  0  0
  189.8610  175.6380  145.0640 C   0  0  1  0  0  3  0  0  0  0  0  0
  187.0790  176.9720  145.5570 C   0  0  2  0  0  0  0  0  0  0  0  0
  188.0010  177.8110  144.6000 C   0  0  0  0  0  2  0  0  0  0  0  0
  188.6340  177.0620  143.3890 C   0  0  0  0  0  2  0  0  0  0  0  0
  187.6420  175.7640  146.0760 O   0  0  0  0  0  0  0  0  0  0  0  0
  189.0200  175.9280  146.3330 C   0  0  0  0  0  2  0  0  0  0  0  0
  185.8420  176.5770  144.7770 C   0  0  0  0  0  1  0  0  0  0  0  0
  190.4680  174.3750  145.1640 O   0  0  0  0  0  0  0  0  0  0  0  0
  189.7840  174.7670  142.9060 C   0  0  0  0  0  2  0  0  0  0  0  0
  190.3880  173.7390  143.8970 C   0  0  1  0  0  0  0  0  0  0  0  0
  192.8720  173.3570  144.5200 C   0  0  0  0  0  2  0  0  0  0  0  0
  191.7350  173.9700  140.8680 C   0  0  0  0  0  2  0  0  0  0  0  0
  190.7790  171.9190  139.8050 C   0  0  0  0  0  3  0  0  0  0  0  0
  192.6810  175.6210  142.6150 C   0  0  0  0  0  2  0  0  0  0  0  0
  194.0390  174.8000  146.1830 C   0  0  0  0  0  2  0  0  0  0  0  0
  194.4420  177.2200  145.6620 C   0  0  0  0  0  3  0  0  0  0  0  0
  191.6850  170.2390  141.0400 N   0  0  0  0  0  0  0  0  0  0  0  0
  194.5930  176.1680  146.4890 C   0  0  0  0  0  3  0  0  0  0  0  0
  193.5950  175.6970  143.8500 C   0  0  2  0  0  3  0  0  0  0  0  0
  193.0830  174.7920  144.9890 C   0  0  1  0  0  3  0  0  0  0  0  0
  193.6390  177.1300  144.3900 C   0  0  0  0  0  2  0  0  0  0  0  0
  191.6500  172.4980  140.6100 C   0  0  0  0  0  0  0  0  0  0  0  0
  190.8530  170.4950  140.0860 C   0  0  0  0  0  3  0  0  0  0  0  0
  191.7780  171.7740  142.9620 C   0  0  0  0  0  2  0  0  0  0  0  0
  192.2580  171.4930  141.5230 C   0  0  1  0  0  3  0  0  0  0  0  0
  192.4150  174.1640  142.2370 C   0  0  1  0  0  3  0  0  0  0  0  0
  191.8310  173.2760  143.3900 C   0  0  1  0  0  0  0  0  0  0  0  0
  189.3470  171.9050  145.0860 O   0  0  0  0  0  1  0  0  0  0  0  0
  188.6490  172.1490  142.9240 O   0  0  0  0  0  0  0  0  0  0  0  0
  189.4210  172.5610  143.9970 C   0  0  0  0  0  0  0  0  0  0  0  0
  186.6180  177.8000  146.7490 C   0  0  0  0  0  0  0  0  0  0  0  0
  186.1340  179.0870  146.5210 O   0  0  0  0  0  0  0  0  0  0  0  0
  186.2480  177.1830  147.7920 O   0  0  0  0  0  1  0  0  0  0  0  0
  1 10  1  6  0  0  0
  1  2  1  0  0  0  0
  2  9  1  0  0  0  0
  2  7  1  1  0  0  0
  3  8  1  6  0  0  0
  3  6  1  0  0  0  0
  3 32  1  0  0  0  0
  4  3  1  0  0  0  0
  5  1  1  0  0  0  0
  5  4  1  0  0  0  0
  6  7  1  0  0  0  0
 10 11  1  0  0  0  0
 11 31  1  1  0  0  0
 11  9  1  0  0  0  0
 14 24  1  0  0  0  0
 14 23  2  0  0  0  0
 16 19  1  0  0  0  0
 17 19  2  0  0  0  0
 18 26  1  0  0  0  0
 20 15  1  6  0  0  0
 20 22  1  0  0  0  0
 20 21  1  0  0  0  0
 21 12  1  6  0  0  0
 21 16  1  0  0  0  0
 22 17  1  0  0  0  0
 23 13  1  0  0  0  0
 23 26  1  0  0  0  0
 24 18  2  0  0  0  0
 26 25  1  1  0  0  0
 27 13  1  6  0  0  0
 27 15  1  0  0  0  0
 27 28  1  0  0  0  0
 28 25  1  6  0  0  0
 28 11  1  0  0  0  0
 28 12  1  0  0  0  0
 30 31  2  0  0  0  0
 31 29  1  0  0  0  0
 32 34  1  0  0  0  0
 33 32  2  0  0  0  0
M  END
>  <MODEL>
8

>  <REMARK>
 VINA RESULT:      -7.1      2.777      6.607
  Name = 
  3 active torsions:
  status: ('A' for Active; 'I' for Inactive)
    1  A    between atoms: C_7  and  C_11
    2  A    between atoms: C_18  and  C_33
    3  A    between atoms: C_33  and  C_34
                            x       y       z     vdW  Elec       q    Type
                         _______ _______ _______ _____ _____    ______ ____

>  <TORSDO>
F 3

$$$$
=
 OpenBabel11052420223D

 34 39  0  0  1  0  0  0  0  0999 V2000
  190.8690  176.6660  144.2200 C   0  0  1  0  0  3  0  0  0  0  0  0
  190.6060  175.2000  144.0570 C   0  0  1  0  0  3  0  0  0  0  0  0
  193.4180  175.7890  145.2850 C   0  0  2  0  0  0  0  0  0  0  0  0
  193.3080  176.2110  143.7760 C   0  0  0  0  0  2  0  0  0  0  0  0
  192.0990  177.1100  143.3780 C   0  0  0  0  0  2  0  0  0  0  0  0
  192.2560  175.1840  145.8580 O   0  0  0  0  0  0  0  0  0  0  0  0
  191.6000  174.3700  144.9090 C   0  0  0  0  0  2  0  0  0  0  0  0
  193.7020  177.0380  146.0950 C   0  0  0  0  0  1  0  0  0  0  0  0
  189.2890  174.9610  144.4800 O   0  0  0  0  0  0  0  0  0  0  0  0
  189.5390  177.2610  143.8730 C   0  0  0  0  0  2  0  0  0  0  0  0
  188.5870  176.1960  144.4760 C   0  0  1  0  0  0  0  0  0  0  0  0
  186.9960  174.6570  143.1330 C   0  0  0  0  0  2  0  0  0  0  0  0
  187.1890  178.4740  142.5020 C   0  0  0  0  0  2  0  0  0  0  0  0
  185.9030  179.7910  144.1950 C   0  0  0  0  0  3  0  0  0  0  0  0
  188.3510  176.5240  141.2700 C   0  0  0  0  0  2  0  0  0  0  0  0
  187.8460  172.6960  141.8520 C   0  0  0  0  0  2  0  0  0  0  0  0
  189.3300  173.0600  139.8630 C   0  0  0  0  0  3  0  0  0  0  0  0
  184.4030  178.2760  144.9830 N   0  0  0  0  0  0  0  0  0  0  0  0
  188.6490  172.2220  140.6680 C   0  0  0  0  0  3  0  0  0  0  0  0
  188.1910  175.0340  140.9250 C   0  0  2  0  0  3  0  0  0  0  0  0
  188.0930  174.1660  142.1960 C   0  0  1  0  0  3  0  0  0  0  0  0
  189.4040  174.5410  140.1280 C   0  0  0  0  0  2  0  0  0  0  0  0
  186.0430  178.7210  143.4350 C   0  0  0  0  0  0  0  0  0  0  0  0
  184.8410  179.4800  145.1370 C   0  0  0  0  0  3  0  0  0  0  0  0
  186.0220  176.4910  144.4810 C   0  0  0  0  0  2  0  0  0  0  0  0
  185.1520  177.6290  143.9090 C   0  0  1  0  0  3  0  0  0  0  0  0
  187.2920  176.9520  142.2860 C   0  0  1  0  0  3  0  0  0  0  0  0
  187.2530  176.0990  143.6020 C   0  0  1  0  0  0  0  0  0  0  0  0
  188.1650  177.8320  146.2100 O   0  0  0  0  0  0  0  0  0  0  0  0
  188.1900  175.6660  146.9380 O   0  0  0  0  0  1  0  0  0  0  0  0
  188.2870  176.5980  145.9190 C   0  0  0  0  0  0  0  0  0  0  0  0
  194.5790  174.8300  145.5090 C   0  0  0  0  0  0  0  0  0  0  0  0
  195.0930  174.1360  144.4150 O   0  0  0  0  0  0  0  0  0  0  0  0
  195.3250  175.0270  146.5150 O   0  0  0  0  0  1  0  0  0  0  0  0
  1  5  1  6  0  0  0
  2  1  1  0  0  0  0
  2  9  1  0  0  0  0
  2  7  1  1  0  0  0
  3 32  1  0  0  0  0
  3  6  1  0  0  0  0
  3  8  1  1  0  0  0
  4  3  1  0  0  0  0
  5  4  1  0  0  0  0
  7  6  1  0  0  0  0
 10  1  1  0  0  0  0
 10 11  1  0  0  0  0
 11  9  1  0  0  0  0
 11 31  1  1  0  0  0
 13 23  1  0  0  0  0
 14 24  1  0  0  0  0
 17 22  1  0  0  0  0
 17 19  2  0  0  0  0
 18 24  2  0  0  0  0
 19 16  1  0  0  0  0
 20 22  1  1  0  0  0
 20 15  1  0  0  0  0
 20 21  1  0  0  0  0
 21 16  1  6  0  0  0
 21 12  1  0  0  0  0
 23 26  1  0  0  0  0
 23 14  2  0  0  0  0
 26 25  1  1  0  0  0
 26 18  1  0  0  0  0
 27 15  1  1  0  0  0
 27 13  1  0  0  0  0
 27 28  1  0  0  0  0
 28 12  1  6  0  0  0
 28 11  1  0  0  0  0
 28 25  1  0  0  0  0
 31 29  2  0  0  0  0
 31 30  1  0  0  0  0
 32 34  1  0  0  0  0
 33 32  2  0  0  0  0
M  END
>  <MODEL>
9

>  <REMARK>
 VINA RESULT:      -7.0      2.507      5.225
  Name = 
  3 active torsions:
  status: ('A' for Active; 'I' for Inactive)
    1  A    between atoms: C_7  and  C_11
    2  A    between atoms: C_18  and  C_33
    3  A    between atoms: C_33  and  C_34
                            x       y       z     vdW  Elec       q    Type
                         _______ _______ _______ _____ _____    ______ ____

>  <TORSDO>
F 3

$$$$
