=
 OpenBabel11052420173D

 34 39  0  0  1  0  0  0  0  0999 V2000
  187.5950  177.6390  144.5040 C   0  0  0  0  0  0  0  0  0  0  0  0
  190.0090  177.4380  147.4720 C   0  0  0  0  0  2  0  0  0  0  0  0
  187.5630  177.8800  147.3250 C   0  0  0  0  0  3  0  0  0  0  0  0
  185.0320  178.1880  144.7100 C   0  0  1  0  0  3  0  0  0  0  0  0
  184.1720  178.2880  145.9010 N   0  0  0  0  0  0  0  0  0  0  0  0
  184.9870  179.4500  143.9890 N   0  0  0  0  0  1  0  0  0  0  0  0
  186.4060  178.0350  146.5720 C   0  0  0  0  0  0  0  0  0  0  0  0
  186.4090  177.9430  145.2120 C   0  0  0  0  0  0  0  0  0  0  0  0
  185.0480  178.2920  147.0800 C   0  0  0  0  0  3  0  0  0  0  0  0
  190.4610  176.1190  147.3450 O   0  0  0  0  0  0  0  0  0  0  0  0
  191.4280  176.1460  146.3300 C   0  0  2  0  0  3  0  0  0  0  0  0
  190.7630  175.9490  144.9680 C   0  0  0  0  0  2  0  0  0  0  0  0
  188.7670  177.6210  146.6600 C   0  0  0  0  0  0  0  0  0  0  0  0
  190.0830  177.2370  144.5170 C   0  0  0  0  0  2  0  0  0  0  0  0
  188.7890  177.4860  145.2460 C   0  0  0  0  0  0  0  0  0  0  0  0
  192.4350  175.0350  146.5630 C   0  0  0  0  0  3  0  0  0  0  0  0
  193.8400  175.5950  146.4600 C   0  0  0  0  0  2  0  0  0  0  0  0
  193.2470  174.8230  145.3020 C   0  0  0  0  0  2  0  0  0  0  0  0
  187.3460  176.3510  142.4590 C   0  0  0  0  0  3  0  0  0  0  0  0
  187.6380  177.4480  143.0790 N   0  0  0  0  0  0  0  0  0  0  0  0
  187.4610  176.2810  140.9740 C   0  0  0  0  0  2  0  0  0  0  0  0
  189.0170  172.9260  141.2550 C   0  0  0  0  0  2  0  0  0  0  0  0
  187.9450  174.7660  139.2360 C   0  0  0  0  0  2  0  0  0  0  0  0
  190.0320  171.1990  138.0230 C   0  0  0  0  0  0  0  0  0  0  0  0
  189.8310  171.4710  139.3850 C   0  0  0  0  0  3  0  0  0  0  0  0
  189.1620  172.6310  139.7870 C   0  0  0  0  0  0  0  0  0  0  0  0
  188.8980  173.2750  137.4600 C   0  0  0  0  0  3  0  0  0  0  0  0
  188.7110  173.5470  138.8170 C   0  0  0  0  0  0  0  0  0  0  0  0
  189.5600  172.1090  137.0650 C   0  0  0  0  0  3  0  0  0  0  0  0
  188.3270  175.1770  140.5900 N   0  0  0  0  0  0  0  0  0  0  0  0
  188.0310  174.0710  141.4980 C   0  0  0  0  0  2  0  0  0  0  0  0
  190.7400  169.9750  137.5990 C   0  0  0  0  0  0  0  0  0  0  0  0
  190.3350  168.7020  138.0970 N   0  0  0  0  0  1  0  0  0  0  0  0
  191.7400  170.0440  136.7820 N   0  0  0  0  0  2  0  0  0  0  0  0
  1  8  2  0  0  0  0
  1 15  1  0  0  0  0
  4  6  1  1  0  0  0
  4  8  1  0  0  0  0
  4  5  1  0  0  0  0
  5  9  2  0  0  0  0
  7  9  1  0  0  0  0
  7  3  2  0  0  0  0
  8  7  1  0  0  0  0
 10  2  1  0  0  0  0
 11 16  1  1  0  0  0
 11 10  1  0  0  0  0
 12 11  1  0  0  0  0
 13  3  1  0  0  0  0
 13  2  1  0  0  0  0
 14 12  1  0  0  0  0
 14 15  1  0  0  0  0
 15 13  2  0  0  0  0
 17 16  1  0  0  0  0
 18 17  1  0  0  0  0
 18 16  1  0  0  0  0
 19 20  2  0  0  0  0
 20  1  1  0  0  0  0
 21 19  1  0  0  0  0
 22 31  1  0  0  0  0
 23 30  1  0  0  0  0
 24 25  1  0  0  0  0
 25 26  2  0  0  0  0
 26 22  1  0  0  0  0
 27 28  2  0  0  0  0
 28 23  1  0  0  0  0
 28 26  1  0  0  0  0
 29 27  1  0  0  0  0
 29 24  2  0  0  0  0
 30 21  1  0  0  0  0
 30 31  1  0  0  0  0
 32 24  1  0  0  0  0
 32 33  1  0  0  0  0
 34 32  2  0  0  0  0
M  END
>  <MODEL>
1

>  <REMARK>
 VINA RESULT:      -8.0      0.000      0.000
  Name = 
  5 active torsions:
  status: ('A' for Active; 'I' for Inactive)
    1  A    between atoms: C_1  and  N_9
    2  A    between atoms: C_3  and  C_25
    3  A    between atoms: C_7  and  C_11
    4  A    between atoms: C_8  and  C_18
    5  A    between atoms: C_18  and  N_30
                            x       y       z     vdW  Elec       q    Type
                         _______ _______ _______ _____ _____    ______ ____

>  <TORSDO>
F 5

$$$$
=
 OpenBabel11052420173D

 34 39  0  0  1  0  0  0  0  0999 V2000
  189.7640  175.4410  143.4690 C   0  0  0  0  0  0  0  0  0  0  0  0
  186.3320  177.0290  142.8450 C   0  0  0  0  0  2  0  0  0  0  0  0
  187.7150  175.4440  141.5130 C   0  0  0  0  0  3  0  0  0  0  0  0
  190.9740  173.8190  141.7920 C   0  0  1  0  0  3  0  0  0  0  0  0
  190.4770  173.1700  140.5680 N   0  0  0  0  0  0  0  0  0  0  0  0
  192.1380  174.6250  141.4590 N   0  0  0  0  0  1  0  0  0  0  0  0
  188.8710  174.6890  141.3510 C   0  0  0  0  0  0  0  0  0  0  0  0
  189.8750  174.6950  142.2720 C   0  0  0  0  0  0  0  0  0  0  0  0
  189.1900  173.7910  140.2300 C   0  0  0  0  0  3  0  0  0  0  0  0
  185.6190  176.5360  143.9450 O   0  0  0  0  0  0  0  0  0  0  0  0
  185.9940  177.3400  145.0310 C   0  0  2  0  0  3  0  0  0  0  0  0
  187.2400  176.7660  145.7020 C   0  0  0  0  0  2  0  0  0  0  0  0
  187.5840  176.2310  142.6630 C   0  0  0  0  0  0  0  0  0  0  0  0
  188.4840  177.0900  144.8820 C   0  0  0  0  0  2  0  0  0  0  0  0
  188.6000  176.2250  143.6550 C   0  0  0  0  0  0  0  0  0  0  0  0
  184.8580  177.3900  146.0360 C   0  0  0  0  0  3  0  0  0  0  0  0
  184.1420  178.7220  145.9260 C   0  0  0  0  0  2  0  0  0  0  0  0
  185.1320  178.4860  147.0460 C   0  0  0  0  0  2  0  0  0  0  0  0
  191.7490  176.2360  144.6230 C   0  0  0  0  0  3  0  0  0  0  0  0
  190.7530  175.4160  144.5120 N   0  0  0  0  0  0  0  0  0  0  0  0
  192.7200  176.0800  145.7430 C   0  0  0  0  0  2  0  0  0  0  0  0
  196.1210  174.5990  145.7150 C   0  0  0  0  0  2  0  0  0  0  0  0
  193.3000  173.7970  145.8010 C   0  0  0  0  0  2  0  0  0  0  0  0
  196.3780  170.8300  145.2730 C   0  0  0  0  0  0  0  0  0  0  0  0
  196.7200  172.1820  145.4390 C   0  0  0  0  0  3  0  0  0  0  0  0
  195.7260  173.1510  145.6020 C   0  0  0  0  0  0  0  0  0  0  0  0
  194.0250  171.4270  145.4190 C   0  0  0  0  0  3  0  0  0  0  0  0
  194.3700  172.7720  145.5720 C   0  0  0  0  0  0  0  0  0  0  0  0
  195.0240  170.4610  145.2650 C   0  0  0  0  0  3  0  0  0  0  0  0
  193.7550  175.1240  145.3790 N   0  0  0  0  0  0  0  0  0  0  0  0
  194.9410  175.4640  146.1620 C   0  0  0  0  0  2  0  0  0  0  0  0
  197.4270  169.8070  145.0990 C   0  0  0  0  0  0  0  0  0  0  0  0
  197.9410  169.5180  143.8010 N   0  0  0  0  0  2  0  0  0  0  0  0
  197.8850  169.1560  146.1180 N   0  0  0  0  0  1  0  0  0  0  0  0
  1 15  1  0  0  0  0
  1 20  1  0  0  0  0
  2 10  1  0  0  0  0
  3 13  1  0  0  0  0
  4  6  1  6  0  0  0
  4  8  1  0  0  0  0
  5  4  1  0  0  0  0
  7  3  2  0  0  0  0
  7  8  1  0  0  0  0
  8  1  2  0  0  0  0
  9  5  2  0  0  0  0
  9  7  1  0  0  0  0
 10 11  1  0  0  0  0
 11 12  1  0  0  0  0
 11 16  1  1  0  0  0
 13  2  1  0  0  0  0
 13 15  2  0  0  0  0
 14 12  1  0  0  0  0
 15 14  1  0  0  0  0
 16 18  1  0  0  0  0
 17 16  1  0  0  0  0
 17 18  1  0  0  0  0
 19 21  1  0  0  0  0
 20 19  2  0  0  0  0
 22 31  1  0  0  0  0
 24 25  1  0  0  0  0
 25 26  2  0  0  0  0
 26 22  1  0  0  0  0
 27 28  2  0  0  0  0
 28 26  1  0  0  0  0
 28 23  1  0  0  0  0
 29 24  2  0  0  0  0
 29 27  1  0  0  0  0
 30 21  1  0  0  0  0
 30 23  1  0  0  0  0
 30 31  1  0  0  0  0
 32 24  1  0  0  0  0
 32 34  1  0  0  0  0
 33 32  2  0  0  0  0
M  END
>  <MODEL>
2

>  <REMARK>
 VINA RESULT:      -8.0      3.875      7.755
  Name = 
  5 active torsions:
  status: ('A' for Active; 'I' for Inactive)
    1  A    between atoms: C_1  and  N_9
    2  A    between atoms: C_3  and  C_25
    3  A    between atoms: C_7  and  C_11
    4  A    between atoms: C_8  and  C_18
    5  A    between atoms: C_18  and  N_30
                            x       y       z     vdW  Elec       q    Type
                         _______ _______ _______ _____ _____    ______ ____

>  <TORSDO>
F 5

$$$$
=
 OpenBabel11052420173D

 34 39  0  0  1  0  0  0  0  0999 V2000
  192.9570  172.9750  143.9490 C   0  0  0  0  0  0  0  0  0  0  0  0
  191.4090  171.2620  140.8900 C   0  0  0  0  0  2  0  0  0  0  0  0
  192.7540  170.3950  142.7990 C   0  0  0  0  0  3  0  0  0  0  0  0
  194.3880  171.7400  145.7750 C   0  0  1  0  0  3  0  0  0  0  0  0
  194.6180  170.3030  145.9930 N   0  0  0  0  0  0  0  0  0  0  0  0
  195.6700  172.3980  145.5760 N   0  0  0  0  0  1  0  0  0  0  0  0
  193.4460  170.6070  143.9850 C   0  0  0  0  0  0  0  0  0  0  0  0
  193.5700  171.8460  144.5390 C   0  0  0  0  0  0  0  0  0  0  0  0
  194.1110  169.5900  144.8140 C   0  0  0  0  0  3  0  0  0  0  0  0
  190.0530  171.5440  141.0990 O   0  0  0  0  0  0  0  0  0  0  0  0
  189.8710  172.8670  140.6740 C   0  0  2  0  0  3  0  0  0  0  0  0
  190.1510  173.8310  141.8260 C   0  0  0  0  0  2  0  0  0  0  0  0
  192.1680  171.4930  142.1580 C   0  0  0  0  0  0  0  0  0  0  0  0
  191.6530  173.9820  142.0410 C   0  0  0  0  0  2  0  0  0  0  0  0
  192.2540  172.7880  142.7350 C   0  0  0  0  0  0  0  0  0  0  0  0
  188.4420  173.0520  140.1980 C   0  0  0  0  0  3  0  0  0  0  0  0
  188.4200  173.1580  138.6860 C   0  0  0  0  0  2  0  0  0  0  0  0
  188.3070  174.4070  139.5330 C   0  0  0  0  0  2  0  0  0  0  0  0
  192.1930  174.7130  145.4660 C   0  0  0  0  0  3  0  0  0  0  0  0
  192.9850  174.2880  144.5340 N   0  0  0  0  0  0  0  0  0  0  0  0
  192.3150  176.1130  145.9650 C   0  0  0  0  0  2  0  0  0  0  0  0
  189.6680  177.8240  144.0100 C   0  0  0  0  0  2  0  0  0  0  0  0
  189.9830  175.9970  146.2840 C   0  0  0  0  0  2  0  0  0  0  0  0
  186.1180  177.6630  145.3670 C   0  0  0  0  0  0  0  0  0  0  0  0
  187.2270  177.9630  144.5590 C   0  0  0  0  0  3  0  0  0  0  0  0
  188.4870  177.4340  144.8560 C   0  0  0  0  0  0  0  0  0  0  0  0
  187.5460  176.3020  146.7890 C   0  0  0  0  0  3  0  0  0  0  0  0
  188.6480  176.6130  145.9900 C   0  0  0  0  0  0  0  0  0  0  0  0
  186.2880  176.8280  146.4810 C   0  0  0  0  0  3  0  0  0  0  0  0
  191.0670  176.8290  145.7540 N   0  0  0  0  0  0  0  0  0  0  0  0
  190.8820  176.9420  144.3080 C   0  0  0  0  0  2  0  0  0  0  0  0
  184.7900  178.2240  145.0540 C   0  0  0  0  0  0  0  0  0  0  0  0
  184.3300  178.2720  143.7060 N   0  0  0  0  0  2  0  0  0  0  0  0
  184.0330  178.6860  145.9960 N   0  0  0  0  0  1  0  0  0  0  0  0
  1 20  1  0  0  0  0
  1  8  1  0  0  0  0
  2 10  1  0  0  0  0
  2 13  1  0  0  0  0
  3  7  1  0  0  0  0
  4  6  1  6  0  0  0
  4  5  1  0  0  0  0
  7  8  2  0  0  0  0
  7  9  1  0  0  0  0
  8  4  1  0  0  0  0
  9  5  2  0  0  0  0
 11 16  1  1  0  0  0
 11 10  1  0  0  0  0
 11 12  1  0  0  0  0
 12 14  1  0  0  0  0
 13 15  1  0  0  0  0
 13  3  2  0  0  0  0
 14 15  1  0  0  0  0
 15  1  2  0  0  0  0
 17 18  1  0  0  0  0
 17 16  1  0  0  0  0
 18 16  1  0  0  0  0
 19 21  1  0  0  0  0
 20 19  2  0  0  0  0
 22 31  1  0  0  0  0
 22 26  1  0  0  0  0
 24 29  1  0  0  0  0
 25 26  1  0  0  0  0
 25 24  2  0  0  0  0
 26 28  2  0  0  0  0
 28 23  1  0  0  0  0
 28 27  1  0  0  0  0
 29 27  2  0  0  0  0
 30 21  1  0  0  0  0
 30 23  1  0  0  0  0
 31 30  1  0  0  0  0
 32 24  1  0  0  0  0
 32 34  1  0  0  0  0
 33 32  2  0  0  0  0
M  END
>  <MODEL>
3

>  <REMARK>
 VINA RESULT:      -7.9      3.596      9.172
  Name = 
  5 active torsions:
  status: ('A' for Active; 'I' for Inactive)
    1  A    between atoms: C_1  and  N_9
    2  A    between atoms: C_3  and  C_25
    3  A    between atoms: C_7  and  C_11
    4  A    between atoms: C_8  and  C_18
    5  A    between atoms: C_18  and  N_30
                            x       y       z     vdW  Elec       q    Type
                         _______ _______ _______ _____ _____    ______ ____

>  <TORSDO>
F 5

$$$$
=
 OpenBabel11052420173D

 34 39  0  0  1  0  0  0  0  0999 V2000
  192.3160  175.1590  144.4020 C   0  0  0  0  0  0  0  0  0  0  0  0
  192.8060  174.2150  140.7200 C   0  0  0  0  0  2  0  0  0  0  0  0
  194.3940  174.4130  142.6280 C   0  0  0  0  0  3  0  0  0  0  0  0
  194.2610  175.3220  146.1630 C   0  0  1  0  0  3  0  0  0  0  0  0
  195.6710  174.9140  146.0650 N   0  0  0  0  0  0  0  0  0  0  0  0
  194.2010  176.7420  146.4710 N   0  0  0  0  0  1  0  0  0  0  0  0
  194.6480  174.6900  143.9660 C   0  0  0  0  0  0  0  0  0  0  0  0
  193.6630  175.0710  144.8260 C   0  0  0  0  0  0  0  0  0  0  0  0
  195.9460  174.6080  144.6550 C   0  0  0  0  0  3  0  0  0  0  0  0
  191.9950  173.0760  140.6380 O   0  0  0  0  0  0  0  0  0  0  0  0
  190.6820  173.5540  140.5270 C   0  0  2  0  0  3  0  0  0  0  0  0
  190.0820  173.7650  141.9160 C   0  0  0  0  0  2  0  0  0  0  0  0
  193.0820  174.5300  142.1560 C   0  0  0  0  0  0  0  0  0  0  0  0
  190.6210  175.0480  142.5400 C   0  0  0  0  0  2  0  0  0  0  0  0
  192.0320  174.8900  143.0420 C   0  0  0  0  0  0  0  0  0  0  0  0
  189.8420  172.5470  139.7640 C   0  0  0  0  0  3  0  0  0  0  0  0
  189.3700  173.1630  138.4620 C   0  0  0  0  0  2  0  0  0  0  0  0
  188.4250  173.0680  139.6390 C   0  0  0  0  0  2  0  0  0  0  0  0
  190.8260  176.6650  145.5910 C   0  0  0  0  0  3  0  0  0  0  0  0
  191.2260  175.4730  145.2850 N   0  0  0  0  0  0  0  0  0  0  0  0
  189.6960  176.8500  146.5460 C   0  0  0  0  0  2  0  0  0  0  0  0
  186.0640  177.4150  146.0530 C   0  0  0  0  0  2  0  0  0  0  0  0
  188.6050  177.6050  144.5990 C   0  0  0  0  0  2  0  0  0  0  0  0
  184.8730  178.1150  142.5090 C   0  0  0  0  0  0  0  0  0  0  0  0
  184.8820  177.8910  143.8960 C   0  0  0  0  0  3  0  0  0  0  0  0
  186.0890  177.7150  144.5790 C   0  0  0  0  0  0  0  0  0  0  0  0
  187.3000  177.9720  142.4890 C   0  0  0  0  0  3  0  0  0  0  0  0
  187.3030  177.7370  143.8660 C   0  0  0  0  0  0  0  0  0  0  0  0
  186.0900  178.1550  141.8130 C   0  0  0  0  0  3  0  0  0  0  0  0
  188.4290  176.8310  145.8310 N   0  0  0  0  0  0  0  0  0  0  0  0
  187.4590  177.5320  146.6690 C   0  0  0  0  0  2  0  0  0  0  0  0
  183.5980  178.2980  141.7880 C   0  0  0  0  0  0  0  0  0  0  0  0
  183.5580  178.2100  140.3670 N   0  0  0  0  0  2  0  0  0  0  0  0
  182.5080  178.5500  142.4360 N   0  0  0  0  0  1  0  0  0  0  0  0
  1  8  1  0  0  0  0
  1 20  1  0  0  0  0
  2 13  1  0  0  0  0
  3  7  1  0  0  0  0
  4  6  1  6  0  0  0
  5  4  1  0  0  0  0
  7  9  1  0  0  0  0
  7  8  2  0  0  0  0
  8  4  1  0  0  0  0
  9  5  2  0  0  0  0
 10  2  1  0  0  0  0
 11 16  1  6  0  0  0
 11 10  1  0  0  0  0
 11 12  1  0  0  0  0
 12 14  1  0  0  0  0
 13  3  2  0  0  0  0
 13 15  1  0  0  0  0
 14 15  1  0  0  0  0
 15  1  2  0  0  0  0
 17 18  1  0  0  0  0
 17 16  1  0  0  0  0
 18 16  1  0  0  0  0
 19 21  1  0  0  0  0
 20 19  2  0  0  0  0
 22 31  1  0  0  0  0
 23 30  1  0  0  0  0
 24 25  1  0  0  0  0
 25 26  2  0  0  0  0
 26 22  1  0  0  0  0
 27 28  2  0  0  0  0
 28 26  1  0  0  0  0
 28 23  1  0  0  0  0
 29 27  1  0  0  0  0
 29 24  2  0  0  0  0
 30 21  1  0  0  0  0
 30 31  1  0  0  0  0
 32 34  1  0  0  0  0
 32 24  1  0  0  0  0
 33 32  2  0  0  0  0
M  END
>  <MODEL>
4

>  <REMARK>
 VINA RESULT:      -7.9      3.339      8.237
  Name = 
  5 active torsions:
  status: ('A' for Active; 'I' for Inactive)
    1  A    between atoms: C_1  and  N_9
    2  A    between atoms: C_3  and  C_25
    3  A    between atoms: C_7  and  C_11
    4  A    between atoms: C_8  and  C_18
    5  A    between atoms: C_18  and  N_30
                            x       y       z     vdW  Elec       q    Type
                         _______ _______ _______ _____ _____    ______ ____

>  <TORSDO>
F 5

$$$$
=
 OpenBabel11052420173D

 34 39  0  0  1  0  0  0  0  0999 V2000
  193.5160  175.7300  142.8620 C   0  0  0  0  0  0  0  0  0  0  0  0
  197.1660  176.0510  141.7400 C   0  0  0  0  0  2  0  0  0  0  0  0
  196.1110  175.8650  143.9880 C   0  0  0  0  0  3  0  0  0  0  0  0
  192.7410  175.6060  145.3700 C   0  0  1  0  0  3  0  0  0  0  0  0
  193.5280  175.4470  146.6040 N   0  0  0  0  0  0  0  0  0  0  0  0
  191.9730  176.8380  145.4570 N   0  0  0  0  0  1  0  0  0  0  0  0
  194.9800  175.7460  144.7870 C   0  0  0  0  0  0  0  0  0  0  0  0
  193.7240  175.7010  144.2610 C   0  0  0  0  0  0  0  0  0  0  0  0
  194.9420  175.6350  146.2540 C   0  0  0  0  0  3  0  0  0  0  0  0
  197.2970  174.8940  140.9630 O   0  0  0  0  0  0  0  0  0  0  0  0
  196.7040  175.1960  139.7290 C   0  0  2  0  0  3  0  0  0  0  0  0
  195.2090  174.8810  139.7760 C   0  0  0  0  0  2  0  0  0  0  0  0
  195.9470  175.9400  142.6000 C   0  0  0  0  0  0  0  0  0  0  0  0
  194.4590  175.9690  140.5370 C   0  0  0  0  0  2  0  0  0  0  0  0
  194.6510  175.8600  142.0270 C   0  0  0  0  0  0  0  0  0  0  0  0
  197.3580  174.3690  138.6390 C   0  0  0  0  0  3  0  0  0  0  0  0
  197.9410  175.2900  137.5850 C   0  0  0  0  0  2  0  0  0  0  0  0
  196.6230  174.5910  137.3330 C   0  0  0  0  0  2  0  0  0  0  0  0
  191.4460  174.5680  142.3420 C   0  0  0  0  0  3  0  0  0  0  0  0
  192.2210  175.6010  142.2510 N   0  0  0  0  0  0  0  0  0  0  0  0
  190.1350  174.5560  141.6330 C   0  0  0  0  0  2  0  0  0  0  0  0
  186.9290  176.3500  142.1480 C   0  0  0  0  0  2  0  0  0  0  0  0
  189.1560  175.2050  143.6760 C   0  0  0  0  0  2  0  0  0  0  0  0
  186.1690  177.5900  145.6630 C   0  0  0  0  0  0  0  0  0  0  0  0
  186.0650  177.3270  144.2870 C   0  0  0  0  0  3  0  0  0  0  0  0
  187.0350  176.5620  143.6340 C   0  0  0  0  0  0  0  0  0  0  0  0
  188.2430  176.3200  145.7280 C   0  0  0  0  0  3  0  0  0  0  0  0
  188.1400  176.0720  144.3570 C   0  0  0  0  0  0  0  0  0  0  0  0
  187.2640  177.0800  146.3760 C   0  0  0  0  0  3  0  0  0  0  0  0
  189.2260  175.5140  142.2450 N   0  0  0  0  0  0  0  0  0  0  0  0
  187.9050  175.2750  141.6680 C   0  0  0  0  0  2  0  0  0  0  0  0
  185.1460  178.3990  146.3510 C   0  0  0  0  0  0  0  0  0  0  0  0
  184.1080  179.0300  145.6060 N   0  0  0  0  0  2  0  0  0  0  0  0
  185.1840  178.5530  147.6350 N   0  0  0  0  0  1  0  0  0  0  0  0
  1  8  1  0  0  0  0
  2 13  1  0  0  0  0
  3  7  1  0  0  0  0
  4  6  1  1  0  0  0
  4  5  1  0  0  0  0
  7  9  1  0  0  0  0
  8  7  2  0  0  0  0
  8  4  1  0  0  0  0
  9  5  2  0  0  0  0
 10  2  1  0  0  0  0
 11 16  1  6  0  0  0
 11 12  1  0  0  0  0
 11 10  1  0  0  0  0
 12 14  1  0  0  0  0
 13  3  2  0  0  0  0
 14 15  1  0  0  0  0
 15 13  1  0  0  0  0
 15  1  2  0  0  0  0
 17 16  1  0  0  0  0
 18 17  1  0  0  0  0
 18 16  1  0  0  0  0
 20 19  2  0  0  0  0
 20  1  1  0  0  0  0
 21 30  1  0  0  0  0
 21 19  1  0  0  0  0
 22 26  1  0  0  0  0
 23 28  1  0  0  0  0
 24 32  1  0  0  0  0
 24 29  1  0  0  0  0
 25 24  2  0  0  0  0
 26 25  1  0  0  0  0
 26 28  2  0  0  0  0
 27 29  2  0  0  0  0
 28 27  1  0  0  0  0
 30 23  1  0  0  0  0
 31 22  1  0  0  0  0
 31 30  1  0  0  0  0
 32 34  1  0  0  0  0
 33 32  2  0  0  0  0
M  END
>  <MODEL>
5

>  <REMARK>
 VINA RESULT:      -7.6      4.222      8.526
  Name = 
  5 active torsions:
  status: ('A' for Active; 'I' for Inactive)
    1  A    between atoms: C_1  and  N_9
    2  A    between atoms: C_3  and  C_25
    3  A    between atoms: C_7  and  C_11
    4  A    between atoms: C_8  and  C_18
    5  A    between atoms: C_18  and  N_30
                            x       y       z     vdW  Elec       q    Type
                         _______ _______ _______ _____ _____    ______ ____

>  <TORSDO>
F 5

$$$$
=
 OpenBabel11052420173D

 34 39  0  0  1  0  0  0  0  0999 V2000
  191.6610  174.0910  145.4080 C   0  0  0  0  0  0  0  0  0  0  0  0
  190.3800  176.9420  147.6240 C   0  0  0  0  0  2  0  0  0  0  0  0
  192.6520  176.3530  146.7930 C   0  0  0  0  0  3  0  0  0  0  0  0
  194.1830  173.7350  144.7590 C   0  0  1  0  0  3  0  0  0  0  0  0
  195.3500  174.6100  144.9580 N   0  0  0  0  0  0  0  0  0  0  0  0
  194.4330  172.4600  145.4130 N   0  0  0  0  0  1  0  0  0  0  0  0
  193.4950  175.5230  146.0640 C   0  0  0  0  0  0  0  0  0  0  0  0
  193.0370  174.4190  145.4100 C   0  0  0  0  0  0  0  0  0  0  0  0
  194.9440  175.6900  145.8650 C   0  0  0  0  0  3  0  0  0  0  0  0
  189.4850  177.5660  146.7460 O   0  0  0  0  0  0  0  0  0  0  0  0
  188.3220  176.7840  146.7700 C   0  0  2  0  0  3  0  0  0  0  0  0
  188.4190  175.6700  145.7290 C   0  0  0  0  0  2  0  0  0  0  0  0
  191.2890  176.0390  146.8530 C   0  0  0  0  0  0  0  0  0  0  0  0
  189.3230  174.5500  146.2310 C   0  0  0  0  0  2  0  0  0  0  0  0
  190.7820  174.9140  146.1500 C   0  0  0  0  0  0  0  0  0  0  0  0
  187.1210  177.6580  146.4620 C   0  0  0  0  0  3  0  0  0  0  0  0
  186.1350  177.5890  147.6110 C   0  0  0  0  0  2  0  0  0  0  0  0
  185.8840  176.7890  146.3510 C   0  0  0  0  0  2  0  0  0  0  0  0
  190.8540  172.9890  143.3980 C   0  0  0  0  0  3  0  0  0  0  0  0
  191.1120  172.9880  144.6660 N   0  0  0  0  0  0  0  0  0  0  0  0
  190.2570  171.7810  142.7590 C   0  0  0  0  0  2  0  0  0  0  0  0
  188.3530  173.0370  139.8340 C   0  0  0  0  0  2  0  0  0  0  0  0
  191.1050  172.8390  140.8320 C   0  0  0  0  0  2  0  0  0  0  0  0
  190.3550  174.1540  136.7990 C   0  0  0  0  0  0  0  0  0  0  0  0
  189.2830  173.8500  137.6540 C   0  0  0  0  0  3  0  0  0  0  0  0
  189.5190  173.4140  138.9620 C   0  0  0  0  0  0  0  0  0  0  0  0
  191.9120  173.5650  138.5720 C   0  0  0  0  0  3  0  0  0  0  0  0
  190.8430  173.2530  139.4150 C   0  0  0  0  0  0  0  0  0  0  0  0
  191.6690  174.0090  137.2680 C   0  0  0  0  0  3  0  0  0  0  0  0
  189.9920  172.0390  141.3520 N   0  0  0  0  0  0  0  0  0  0  0  0
  188.7830  172.8570  141.2910 C   0  0  0  0  0  2  0  0  0  0  0  0
  190.1050  174.6120  135.4190 C   0  0  0  0  0  0  0  0  0  0  0  0
  190.5130  175.9150  135.0090 N   0  0  0  0  0  1  0  0  0  0  0  0
  189.5060  173.8430  134.5690 N   0  0  0  0  0  2  0  0  0  0  0  0
  1  8  2  0  0  0  0
  1 15  1  0  0  0  0
  3 13  1  0  0  0  0
  4  5  1  0  0  0  0
  4  8  1  0  0  0  0
  4  6  1  1  0  0  0
  5  9  2  0  0  0  0
  7  3  2  0  0  0  0
  8  7  1  0  0  0  0
  9  7  1  0  0  0  0
 10 11  1  0  0  0  0
 10  2  1  0  0  0  0
 11 16  1  6  0  0  0
 12 14  1  0  0  0  0
 12 11  1  0  0  0  0
 13  2  1  0  0  0  0
 15 14  1  0  0  0  0
 15 13  2  0  0  0  0
 16 17  1  0  0  0  0
 18 16  1  0  0  0  0
 18 17  1  0  0  0  0
 19 20  2  0  0  0  0
 20  1  1  0  0  0  0
 21 19  1  0  0  0  0
 22 31  1  0  0  0  0
 23 30  1  0  0  0  0
 24 29  2  0  0  0  0
 24 25  1  0  0  0  0
 25 26  2  0  0  0  0
 26 28  1  0  0  0  0
 26 22  1  0  0  0  0
 27 28  2  0  0  0  0
 28 23  1  0  0  0  0
 29 27  1  0  0  0  0
 30 21  1  0  0  0  0
 31 30  1  0  0  0  0
 32 24  1  0  0  0  0
 33 32  1  0  0  0  0
 34 32  2  0  0  0  0
M  END
>  <MODEL>
6

>  <REMARK>
 VINA RESULT:      -7.5      3.191      5.821
  Name = 
  5 active torsions:
  status: ('A' for Active; 'I' for Inactive)
    1  A    between atoms: C_1  and  N_9
    2  A    between atoms: C_3  and  C_25
    3  A    between atoms: C_7  and  C_11
    4  A    between atoms: C_8  and  C_18
    5  A    between atoms: C_18  and  N_30
                            x       y       z     vdW  Elec       q    Type
                         _______ _______ _______ _____ _____    ______ ____

>  <TORSDO>
F 5

$$$$
=
 OpenBabel11052420173D

 34 39  0  0  1  0  0  0  0  0999 V2000
  187.2290  177.0160  142.7750 C   0  0  0  0  0  0  0  0  0  0  0  0
  188.1470  177.8280  146.4050 C   0  0  0  0  0  2  0  0  0  0  0  0
  186.0840  178.2200  145.0680 C   0  0  0  0  0  3  0  0  0  0  0  0
  184.9340  177.6320  141.6520 C   0  0  1  0  0  3  0  0  0  0  0  0
  183.6900  178.1480  142.2470 N   0  0  0  0  0  0  0  0  0  0  0  0
  185.3940  178.5670  140.6370 N   0  0  0  0  0  1  0  0  0  0  0  0
  185.3790  178.1170  143.8750 C   0  0  0  0  0  0  0  0  0  0  0  0
  185.9240  177.5610  142.7570 C   0  0  0  0  0  0  0  0  0  0  0  0
  183.9940  178.5500  143.6270 C   0  0  0  0  0  3  0  0  0  0  0  0
  188.3910  176.5410  146.9010 O   0  0  0  0  0  0  0  0  0  0  0  0
  189.6790  176.2030  146.4620 C   0  0  2  0  0  3  0  0  0  0  0  0
  189.6080  175.5550  145.0800 C   0  0  0  0  0  2  0  0  0  0  0  0
  187.3950  177.7330  145.1160 C   0  0  0  0  0  0  0  0  0  0  0  0
  189.3920  176.6150  144.0060 C   0  0  0  0  0  2  0  0  0  0  0  0
  187.9720  177.1160  143.9750 C   0  0  0  0  0  0  0  0  0  0  0  0
  190.3070  175.2310  147.4430 C   0  0  0  0  0  3  0  0  0  0  0  0
  191.4000  175.9330  148.2230 C   0  0  0  0  0  2  0  0  0  0  0  0
  191.7610  175.0170  147.0750 C   0  0  0  0  0  2  0  0  0  0  0  0
  187.8340  175.0630  141.4630 C   0  0  0  0  0  3  0  0  0  0  0  0
  187.8210  176.3430  141.6500 N   0  0  0  0  0  0  0  0  0  0  0  0
  188.5100  174.4930  140.2620 C   0  0  0  0  0  2  0  0  0  0  0  0
  191.1520  171.9140  139.9080 C   0  0  0  0  0  2  0  0  0  0  0  0
  189.8650  173.5740  141.9560 C   0  0  0  0  0  2  0  0  0  0  0  0
  192.6050  170.4560  143.1060 C   0  0  0  0  0  0  0  0  0  0  0  0
  192.3490  170.7070  141.7480 C   0  0  0  0  0  3  0  0  0  0  0  0
  191.4540  171.7110  141.3670 C   0  0  0  0  0  0  0  0  0  0  0  0
  191.0440  172.2220  143.7070 C   0  0  0  0  0  3  0  0  0  0  0  0
  190.7840  172.4590  142.3560 C   0  0  0  0  0  0  0  0  0  0  0  0
  191.9470  171.2210  144.0800 C   0  0  0  0  0  3  0  0  0  0  0  0
  189.2860  173.3200  140.6340 N   0  0  0  0  0  0  0  0  0  0  0  0
  190.3830  173.2160  139.6740 C   0  0  0  0  0  2  0  0  0  0  0  0
  193.5480  169.3940  143.5070 C   0  0  0  0  0  0  0  0  0  0  0  0
  193.4780  168.8260  144.8120 N   0  0  0  0  0  1  0  0  0  0  0  0
  194.4540  168.9750  142.6840 N   0  0  0  0  0  2  0  0  0  0  0  0
  1 15  1  0  0  0  0
  2 10  1  0  0  0  0
  3 13  1  0  0  0  0
  4  6  1  6  0  0  0
  4  5  1  0  0  0  0
  4  8  1  0  0  0  0
  5  9  2  0  0  0  0
  7  3  2  0  0  0  0
  8  1  2  0  0  0  0
  8  7  1  0  0  0  0
  9  7  1  0  0  0  0
 11 10  1  0  0  0  0
 11 16  1  1  0  0  0
 12 11  1  0  0  0  0
 13  2  1  0  0  0  0
 14 12  1  0  0  0  0
 15 14  1  0  0  0  0
 15 13  2  0  0  0  0
 16 17  1  0  0  0  0
 18 16  1  0  0  0  0
 18 17  1  0  0  0  0
 19 20  2  0  0  0  0
 20  1  1  0  0  0  0
 21 30  1  0  0  0  0
 21 19  1  0  0  0  0
 22 26  1  0  0  0  0
 23 28  1  0  0  0  0
 24 32  1  0  0  0  0
 24 29  1  0  0  0  0
 25 24  2  0  0  0  0
 26 25  1  0  0  0  0
 26 28  2  0  0  0  0
 27 29  2  0  0  0  0
 28 27  1  0  0  0  0
 30 23  1  0  0  0  0
 31 22  1  0  0  0  0
 31 30  1  0  0  0  0
 32 33  1  0  0  0  0
 34 32  2  0  0  0  0
M  END
>  <MODEL>
7

>  <REMARK>
 VINA RESULT:      -7.4      2.805      3.737
  Name = 
  5 active torsions:
  status: ('A' for Active; 'I' for Inactive)
    1  A    between atoms: C_1  and  N_9
    2  A    between atoms: C_3  and  C_25
    3  A    between atoms: C_7  and  C_11
    4  A    between atoms: C_8  and  C_18
    5  A    between atoms: C_18  and  N_30
                            x       y       z     vdW  Elec       q    Type
                         _______ _______ _______ _____ _____    ______ ____

>  <TORSDO>
F 5

$$$$
=
 OpenBabel11052420173D

 34 39  0  0  1  0  0  0  0  0999 V2000
  187.4090  177.0590  144.6880 C   0  0  0  0  0  0  0  0  0  0  0  0
  190.0920  177.6020  147.3700 C   0  0  0  0  0  2  0  0  0  0  0  0
  187.6400  178.0330  147.3370 C   0  0  0  0  0  3  0  0  0  0  0  0
  184.8740  177.6880  144.9770 C   0  0  1  0  0  3  0  0  0  0  0  0
  184.1280  178.1120  146.1730 N   0  0  0  0  0  0  0  0  0  0  0  0
  184.7530  178.7170  143.9570 N   0  0  0  0  0  1  0  0  0  0  0  0
  186.4160  178.0050  146.6790 C   0  0  0  0  0  0  0  0  0  0  0  0
  186.2930  177.5590  145.3970 C   0  0  0  0  0  0  0  0  0  0  0  0
  185.1100  178.4100  147.2240 C   0  0  0  0  0  3  0  0  0  0  0  0
  190.5390  176.2870  147.5530 O   0  0  0  0  0  0  0  0  0  0  0  0
  191.4070  176.0290  146.4820 C   0  0  2  0  0  3  0  0  0  0  0  0
  190.6190  175.4940  145.2870 C   0  0  0  0  0  2  0  0  0  0  0  0
  188.7780  177.5870  146.6560 C   0  0  0  0  0  0  0  0  0  0  0  0
  189.8910  176.6300  144.5780 C   0  0  0  0  0  2  0  0  0  0  0  0
  188.6690  177.0850  145.3320 C   0  0  0  0  0  0  0  0  0  0  0  0
  192.4390  175.0020  146.9060 C   0  0  0  0  0  3  0  0  0  0  0  0
  193.8190  175.4640  146.4810 C   0  0  0  0  0  2  0  0  0  0  0  0
  193.0930  174.4110  145.6730 C   0  0  0  0  0  2  0  0  0  0  0  0
  187.8280  177.0200  142.2950 C   0  0  0  0  0  3  0  0  0  0  0  0
  187.3210  176.5000  143.3660 N   0  0  0  0  0  0  0  0  0  0  0  0
  187.6390  176.3460  140.9780 C   0  0  0  0  0  2  0  0  0  0  0  0
  188.5530  173.0000  139.6640 C   0  0  0  0  0  2  0  0  0  0  0  0
  189.5020  175.0270  141.5610 C   0  0  0  0  0  2  0  0  0  0  0  0
  191.3870  171.1570  141.4070 C   0  0  0  0  0  0  0  0  0  0  0  0
  190.3380  171.4680  140.5270 C   0  0  0  0  0  3  0  0  0  0  0  0
  189.7150  172.7180  140.5770 C   0  0  0  0  0  0  0  0  0  0  0  0
  191.1770  173.3640  142.4070 C   0  0  0  0  0  3  0  0  0  0  0  0
  190.1270  173.6640  141.5370 C   0  0  0  0  0  0  0  0  0  0  0  0
  191.8010  172.1140  142.3450 C   0  0  0  0  0  3  0  0  0  0  0  0
  188.1330  174.9790  141.0400 N   0  0  0  0  0  0  0  0  0  0  0  0
  188.1910  174.4870  139.6650 C   0  0  0  0  0  2  0  0  0  0  0  0
  192.0420  169.8360  141.3550 C   0  0  0  0  0  0  0  0  0  0  0  0
  191.8790  168.9980  140.2130 N   0  0  0  0  0  2  0  0  0  0  0  0
  192.7630  169.4200  142.3450 N   0  0  0  0  0  1  0  0  0  0  0  0
  1 15  2  0  0  0  0
  1  8  1  0  0  0  0
  2 10  1  0  0  0  0
  4  6  1  6  0  0  0
  4  8  1  0  0  0  0
  4  5  1  0  0  0  0
  5  9  2  0  0  0  0
  7  9  1  0  0  0  0
  7  3  1  0  0  0  0
  8  7  2  0  0  0  0
 11 16  1  1  0  0  0
 11 10  1  0  0  0  0
 12 11  1  0  0  0  0
 13  3  2  0  0  0  0
 13  2  1  0  0  0  0
 14 12  1  0  0  0  0
 14 15  1  0  0  0  0
 15 13  1  0  0  0  0
 17 16  1  0  0  0  0
 18 17  1  0  0  0  0
 18 16  1  0  0  0  0
 19 20  2  0  0  0  0
 20  1  1  0  0  0  0
 21 30  1  0  0  0  0
 21 19  1  0  0  0  0
 22 31  1  0  0  0  0
 22 26  1  0  0  0  0
 24 29  1  0  0  0  0
 25 26  1  0  0  0  0
 25 24  2  0  0  0  0
 26 28  2  0  0  0  0
 28 23  1  0  0  0  0
 28 27  1  0  0  0  0
 29 27  2  0  0  0  0
 30 23  1  0  0  0  0
 31 30  1  0  0  0  0
 32 24  1  0  0  0  0
 32 34  1  0  0  0  0
 33 32  2  0  0  0  0
M  END
>  <MODEL>
8

>  <REMARK>
 VINA RESULT:      -7.4      1.523      2.186
  Name = 
  5 active torsions:
  status: ('A' for Active; 'I' for Inactive)
    1  A    between atoms: C_1  and  N_9
    2  A    between atoms: C_3  and  C_25
    3  A    between atoms: C_7  and  C_11
    4  A    between atoms: C_8  and  C_18
    5  A    between atoms: C_18  and  N_30
                            x       y       z     vdW  Elec       q    Type
                         _______ _______ _______ _____ _____    ______ ____

>  <TORSDO>
F 5

$$$$
=
 OpenBabel11052420173D

 34 39  0  0  1  0  0  0  0  0999 V2000
  190.6350  176.2130  144.3390 C   0  0  0  0  0  0  0  0  0  0  0  0
  194.3430  176.1150  145.3010 C   0  0  0  0  0  2  0  0  0  0  0  0
  192.2650  175.5840  146.5670 C   0  0  0  0  0  3  0  0  0  0  0  0
  188.6620  175.6250  145.9740 C   0  0  1  0  0  3  0  0  0  0  0  0
  188.6850  175.0260  147.3180 N   0  0  0  0  0  0  0  0  0  0  0  0
  188.0020  176.9190  146.0450 N   0  0  0  0  0  1  0  0  0  0  0  0
  190.8810  175.4850  146.6320 C   0  0  0  0  0  0  0  0  0  0  0  0
  190.0820  175.8050  145.5750 C   0  0  0  0  0  0  0  0  0  0  0  0
  190.0800  175.0280  147.7790 C   0  0  0  0  0  3  0  0  0  0  0  0
  194.8220  175.1790  144.3760 O   0  0  0  0  0  0  0  0  0  0  0  0
  194.9690  175.8790  143.1710 C   0  0  2  0  0  3  0  0  0  0  0  0
  193.6600  175.8460  142.3830 C   0  0  0  0  0  2  0  0  0  0  0  0
  192.8520  176.0250  145.3760 C   0  0  0  0  0  0  0  0  0  0  0  0
  192.6590  176.8340  142.9720 C   0  0  0  0  0  2  0  0  0  0  0  0
  192.0420  176.3300  144.2490 C   0  0  0  0  0  0  0  0  0  0  0  0
  196.0690  175.2380  142.3460 C   0  0  0  0  0  3  0  0  0  0  0  0
  197.3530  176.0250  142.5140 C   0  0  0  0  0  2  0  0  0  0  0  0
  196.5150  176.2040  141.2680 C   0  0  0  0  0  2  0  0  0  0  0  0
  189.0840  177.5130  142.9950 C   0  0  0  0  0  3  0  0  0  0  0  0
  189.8440  176.4810  143.1680 N   0  0  0  0  0  0  0  0  0  0  0  0
  188.2940  177.6540  141.7380 C   0  0  0  0  0  2  0  0  0  0  0  0
  185.1660  178.7410  143.4090 C   0  0  0  0  0  2  0  0  0  0  0  0
  186.1530  177.8830  140.7830 C   0  0  0  0  0  2  0  0  0  0  0  0
  181.9260  178.3800  141.4500 C   0  0  0  0  0  0  0  0  0  0  0  0
  182.8420  178.6600  142.4770 C   0  0  0  0  0  3  0  0  0  0  0  0
  184.2150  178.4930  142.2710 C   0  0  0  0  0  0  0  0  0  0  0  0
  183.7740  177.7440  140.0020 C   0  0  0  0  0  3  0  0  0  0  0  0
  184.6800  178.0130  141.0310 C   0  0  0  0  0  0  0  0  0  0  0  0
  182.4030  177.9220  140.2130 C   0  0  0  0  0  3  0  0  0  0  0  0
  186.8710  177.6450  142.0380 N   0  0  0  0  0  0  0  0  0  0  0  0
  186.6170  178.7790  142.9240 C   0  0  0  0  0  2  0  0  0  0  0  0
  180.4780  178.5550  141.6700 C   0  0  0  0  0  0  0  0  0  0  0  0
  179.5520  178.2540  140.6290 N   0  0  0  0  0  2  0  0  0  0  0  0
  180.0330  178.9910  142.8030 N   0  0  0  0  0  1  0  0  0  0  0  0
  1  8  1  0  0  0  0
  2 13  1  0  0  0  0
  3  7  1  0  0  0  0
  4  6  1  1  0  0  0
  4  5  1  0  0  0  0
  5  9  2  0  0  0  0
  7  9  1  0  0  0  0
  8  4  1  0  0  0  0
  8  7  2  0  0  0  0
 10  2  1  0  0  0  0
 11 16  1  6  0  0  0
 11 10  1  0  0  0  0
 12 14  1  0  0  0  0
 12 11  1  0  0  0  0
 13  3  2  0  0  0  0
 14 15  1  0  0  0  0
 15  1  2  0  0  0  0
 15 13  1  0  0  0  0
 16 17  1  0  0  0  0
 18 16  1  0  0  0  0
 18 17  1  0  0  0  0
 19 20  2  0  0  0  0
 20  1  1  0  0  0  0
 21 30  1  0  0  0  0
 21 19  1  0  0  0  0
 23 28  1  0  0  0  0
 23 30  1  0  0  0  0
 24 32  1  0  0  0  0
 24 25  1  0  0  0  0
 26 25  2  0  0  0  0
 26 22  1  0  0  0  0
 27 29  1  0  0  0  0
 27 28  2  0  0  0  0
 28 26  1  0  0  0  0
 29 24  2  0  0  0  0
 30 31  1  0  0  0  0
 31 22  1  0  0  0  0
 32 34  1  0  0  0  0
 33 32  2  0  0  0  0
M  END
>  <MODEL>
9

>  <REMARK>
 VINA RESULT:      -7.4      4.446      7.053
  Name = 
  5 active torsions:
  status: ('A' for Active; 'I' for Inactive)
    1  A    between atoms: C_1  and  N_9
    2  A    between atoms: C_3  and  C_25
    3  A    between atoms: C_7  and  C_11
    4  A    between atoms: C_8  and  C_18
    5  A    between atoms: C_18  and  N_30
                            x       y       z     vdW  Elec       q    Type
                         _______ _______ _______ _____ _____    ______ ____

>  <TORSDO>
F 5

$$$$
