=
 OpenBabel11052417183D

 30 32  0  0  1  0  0  0  0  0999 V2000
  187.0580  177.2820  142.6680 N   0  0  0  0  0  0  0  0  0  0  0  0
  185.5250  177.7570  140.8900 C   0  0  0  0  0  0  0  0  0  0  0  0
  184.2340  178.3020  145.5770 C   0  0  0  0  0  3  0  0  0  0  0  0
  187.4070  177.2100  143.9800 C   0  0  0  0  0  0  0  0  0  0  0  0
  184.5680  178.2080  146.9300 C   0  0  0  0  0  3  0  0  0  0  0  0
  188.7200  176.7380  144.3270 N   0  0  0  0  0  0  0  0  0  0  0  0
  184.2570  178.1760  140.4760 C   0  0  0  0  0  3  0  0  0  0  0  0
  186.7150  177.3250  139.6730 Cl  0  0  0  0  0  0  0  0  0  0  0  0
  185.1740  177.9760  144.5850 C   0  0  0  0  0  0  0  0  0  0  0  0
  183.2890  178.5290  141.4180 C   0  0  0  0  0  3  0  0  0  0  0  0
  185.8290  177.6920  142.2600 C   0  0  0  0  0  0  0  0  0  0  0  0
  186.4690  177.5520  144.9720 C   0  0  0  0  0  0  0  0  0  0  0  0
  185.8440  177.7870  147.3080 C   0  0  0  0  0  3  0  0  0  0  0  0
  186.7890  177.4600  146.3340 C   0  0  0  0  0  3  0  0  0  0  0  0
  183.5820  178.4670  142.7810 C   0  0  0  0  0  3  0  0  0  0  0  0
  184.8510  178.0500  143.2170 C   0  0  0  0  0  0  0  0  0  0  0  0
  190.4790  177.9690  143.1030 C   0  0  0  0  0  1  0  0  0  0  0  0
  189.8490  177.6610  144.4520 C   0  0  2  0  0  3  0  0  0  0  0  0
  192.0130  176.8330  145.0670 O   0  0  0  0  0  0  0  0  0  0  0  0
  190.8560  177.1690  145.4460 C   0  0  0  0  0  0  0  0  0  0  0  0
  190.4710  177.0410  146.8170 N   0  0  0  0  0  0  0  0  0  0  0  0
  191.3110  175.1790  148.2760 O   0  0  0  0  0  0  0  0  0  0  0  0
  190.8970  176.0970  147.5570 C   0  0  0  0  0  0  0  0  0  0  0  0
  189.0280  175.3220  144.1740 C   0  0  0  0  0  2  0  0  0  0  0  0
  189.4820  175.0160  142.7560 C   0  0  0  0  0  2  0  0  0  0  0  0
  188.6040  174.0240  142.1620 N   0  0  0  0  0  2  0  0  0  0  0  0
  188.2490  174.5020  140.8950 N   0  0  0  0  0  2  0  0  0  0  0  0
  189.3650  172.5100  139.7870 C   0  0  0  0  0  1  0  0  0  0  0  0
  188.5920  173.7810  139.7120 C   0  0  0  0  0  0  0  0  0  0  0  0
  188.2460  174.2300  138.5880 O   0  0  0  0  0  0  0  0  0  0  0  0
  1  4  1  0  0  0  0
  2 11  1  0  0  0  0
  3  5  2  0  0  0  0
  4  6  1  0  0  0  0
  4 12  2  0  0  0  0
  5 13  1  0  0  0  0
  6 18  1  0  0  0  0
  7  2  2  0  0  0  0
  7 10  1  0  0  0  0
  8  2  1  0  0  0  0
  9 12  1  0  0  0  0
  9  3  1  0  0  0  0
 10 15  2  0  0  0  0
 11  1  2  0  0  0  0
 11 16  1  0  0  0  0
 12 14  1  0  0  0  0
 14 13  2  0  0  0  0
 15 16  1  0  0  0  0
 16  9  2  0  0  0  0
 18 17  1  6  0  0  0
 18 20  1  0  0  0  0
 19 20  2  0  0  0  0
 20 21  1  0  0  0  0
 21 23  2  0  0  0  0
 23 22  2  0  0  0  0
 24  6  1  0  0  0  0
 25 24  1  0  0  0  0
 26 25  1  0  0  0  0
 27 26  1  0  0  0  0
 29 28  1  0  0  0  0
 29 27  1  0  0  0  0
 30 29  2  0  0  0  0
M  END
>  <MODEL>
1

>  <REMARK>
 VINA RESULT:      -7.7      0.000      0.000
  Name = 
  7 active torsions:
  status: ('A' for Active; 'I' for Inactive)
    1  A    between atoms: N_5  and  C_12
    2  A    between atoms: N_7  and  N_16
    3  A    between atoms: C_8  and  C_12
    4  A    between atoms: C_8  and  N_13
    5  A    between atoms: N_13  and  C_27
    6  A    between atoms: N_16  and  C_30
    7  A    between atoms: C_27  and  C_30
                            x       y       z     vdW  Elec       q    Type
                         _______ _______ _______ _____ _____    ______ ____

>  <TORSDO>
F 7

$$$$
=
 OpenBabel11052417183D

 30 32  0  0  1  0  0  0  0  0999 V2000
  187.4520  176.3210  144.2980 N   0  0  0  0  0  0  0  0  0  0  0  0
  186.1830  177.0450  146.1960 C   0  0  0  0  0  0  0  0  0  0  0  0
  184.8850  178.2800  141.6440 C   0  0  0  0  0  3  0  0  0  0  0  0
  187.6950  176.2380  142.9630 C   0  0  0  0  0  0  0  0  0  0  0  0
  185.1350  178.2270  140.2710 C   0  0  0  0  0  3  0  0  0  0  0  0
  188.8550  175.5200  142.5100 N   0  0  0  0  0  0  0  0  0  0  0  0
  185.0940  177.7510  146.7140 C   0  0  0  0  0  3  0  0  0  0  0  0
  187.2670  176.2220  147.3060 Cl  0  0  0  0  0  0  0  0  0  0  0  0
  185.7300  177.6170  142.5500 C   0  0  0  0  0  0  0  0  0  0  0  0
  184.2110  178.4150  145.8600 C   0  0  0  0  0  3  0  0  0  0  0  0
  186.3920  177.0010  144.8080 C   0  0  0  0  0  0  0  0  0  0  0  0
  186.8390  176.8900  142.0560 C   0  0  0  0  0  0  0  0  0  0  0  0
  186.2330  177.5130  139.7880 C   0  0  0  0  0  3  0  0  0  0  0  0
  187.0800  176.8480  140.6750 C   0  0  0  0  0  3  0  0  0  0  0  0
  184.4130  178.3760  144.4790 C   0  0  0  0  0  3  0  0  0  0  0  0
  185.5000  177.6710  143.9380 C   0  0  0  0  0  0  0  0  0  0  0  0
  189.5640  173.2700  143.2450 C   0  0  0  0  0  1  0  0  0  0  0  0
  188.7960  174.0880  142.2190 C   0  0  2  0  0  3  0  0  0  0  0  0
  190.4630  173.7810  140.5230 O   0  0  0  0  0  0  0  0  0  0  0  0
  189.2340  173.7900  140.8170 C   0  0  0  0  0  0  0  0  0  0  0  0
  188.2420  173.5650  139.8140 N   0  0  0  0  0  0  0  0  0  0  0  0
  188.5160  174.3730  137.4530 O   0  0  0  0  0  0  0  0  0  0  0  0
  188.3810  173.9750  138.6170 C   0  0  0  0  0  0  0  0  0  0  0  0
  190.1740  176.1080  142.7060 C   0  0  0  0  0  2  0  0  0  0  0  0
  190.0670  177.5970  142.9950 C   0  0  0  0  0  2  0  0  0  0  0  0
  190.9970  177.9620  144.0480 N   0  0  0  0  0  2  0  0  0  0  0  0
  190.4500  177.5000  145.2510 N   0  0  0  0  0  2  0  0  0  0  0  0
  192.5620  176.1830  145.7510 C   0  0  0  0  0  1  0  0  0  0  0  0
  191.1910  176.6400  146.1160 C   0  0  0  0  0  0  0  0  0  0  0  0
  190.6760  176.2530  147.1970 O   0  0  0  0  0  0  0  0  0  0  0  0
  1 11  1  0  0  0  0
  2  7  1  0  0  0  0
  2  8  1  0  0  0  0
  3  9  1  0  0  0  0
  4  1  2  0  0  0  0
  5  3  2  0  0  0  0
  6 24  1  0  0  0  0
  6  4  1  0  0  0  0
  9 16  1  0  0  0  0
 10  7  2  0  0  0  0
 11  2  2  0  0  0  0
 12  9  2  0  0  0  0
 12  4  1  0  0  0  0
 13  5  1  0  0  0  0
 13 14  2  0  0  0  0
 14 12  1  0  0  0  0
 15 10  1  0  0  0  0
 16 15  2  0  0  0  0
 16 11  1  0  0  0  0
 18  6  1  0  0  0  0
 18 17  1  1  0  0  0
 19 20  2  0  0  0  0
 20 18  1  0  0  0  0
 21 20  1  0  0  0  0
 22 23  2  0  0  0  0
 23 21  2  0  0  0  0
 24 25  1  0  0  0  0
 25 26  1  0  0  0  0
 26 27  1  0  0  0  0
 27 29  1  0  0  0  0
 28 29  1  0  0  0  0
 29 30  2  0  0  0  0
M  END
>  <MODEL>
2

>  <REMARK>
 VINA RESULT:      -7.5      1.974      5.760
  Name = 
  7 active torsions:
  status: ('A' for Active; 'I' for Inactive)
    1  A    between atoms: N_5  and  C_12
    2  A    between atoms: N_7  and  N_16
    3  A    between atoms: C_8  and  C_12
    4  A    between atoms: C_8  and  N_13
    5  A    between atoms: N_13  and  C_27
    6  A    between atoms: N_16  and  C_30
    7  A    between atoms: C_27  and  C_30
                            x       y       z     vdW  Elec       q    Type
                         _______ _______ _______ _____ _____    ______ ____

>  <TORSDO>
F 7

$$$$
=
 OpenBabel11052417183D

 30 32  0  0  1  0  0  0  0  0999 V2000
  187.0600  177.2590  142.7100 N   0  0  0  0  0  0  0  0  0  0  0  0
  185.5400  177.7090  140.9150 C   0  0  0  0  0  0  0  0  0  0  0  0
  184.2280  178.3510  145.5840 C   0  0  0  0  0  3  0  0  0  0  0  0
  187.4020  177.2110  144.0250 C   0  0  0  0  0  0  0  0  0  0  0  0
  184.5540  178.2820  146.9400 C   0  0  0  0  0  3  0  0  0  0  0  0
  188.7110  176.7380  144.3880 N   0  0  0  0  0  0  0  0  0  0  0  0
  184.2770  178.1270  140.4870 C   0  0  0  0  0  3  0  0  0  0  0  0
  186.7340  177.2470  139.7130 Cl  0  0  0  0  0  0  0  0  0  0  0  0
  185.1710  178.0010  144.6030 C   0  0  0  0  0  0  0  0  0  0  0  0
  183.3050  178.5040  141.4160 C   0  0  0  0  0  3  0  0  0  0  0  0
  185.8360  177.6690  142.2880 C   0  0  0  0  0  0  0  0  0  0  0  0
  186.4610  177.5770  145.0050 C   0  0  0  0  0  0  0  0  0  0  0  0
  185.8250  177.8610  147.3330 C   0  0  0  0  0  3  0  0  0  0  0  0
  186.7730  177.5090  146.3710 C   0  0  0  0  0  3  0  0  0  0  0  0
  183.5910  178.4660  142.7810 C   0  0  0  0  0  3  0  0  0  0  0  0
  184.8550  178.0510  143.2330 C   0  0  0  0  0  0  0  0  0  0  0  0
  190.4690  177.9530  143.1470 C   0  0  0  0  0  1  0  0  0  0  0  0
  189.8440  177.6560  144.5010 C   0  0  2  0  0  3  0  0  0  0  0  0
  192.0210  176.8640  145.1180 O   0  0  0  0  0  0  0  0  0  0  0  0
  190.8540  177.1670  145.4940 C   0  0  0  0  0  0  0  0  0  0  0  0
  190.4610  177.0030  146.8590 N   0  0  0  0  0  0  0  0  0  0  0  0
  191.3520  175.1500  148.2970 O   0  0  0  0  0  0  0  0  0  0  0  0
  190.9130  176.0640  147.5880 C   0  0  0  0  0  0  0  0  0  0  0  0
  189.0110  175.3180  144.2640 C   0  0  0  0  0  2  0  0  0  0  0  0
  189.0940  174.9070  142.8030 C   0  0  0  0  0  2  0  0  0  0  0  0
  190.4130  174.3730  142.5160 N   0  0  0  0  0  2  0  0  0  0  0  0
  190.8680  173.7620  143.6910 N   0  0  0  0  0  2  0  0  0  0  0  0
  193.2810  174.1260  142.9930 C   0  0  0  0  0  1  0  0  0  0  0  0
  192.2630  173.6360  143.9650 C   0  0  0  0  0  0  0  0  0  0  0  0
  192.6390  173.0950  145.0360 O   0  0  0  0  0  0  0  0  0  0  0  0
  1  4  1  0  0  0  0
  2 11  1  0  0  0  0
  3  5  2  0  0  0  0
  4  6  1  0  0  0  0
  4 12  2  0  0  0  0
  5 13  1  0  0  0  0
  6 18  1  0  0  0  0
  7  2  2  0  0  0  0
  7 10  1  0  0  0  0
  8  2  1  0  0  0  0
  9 12  1  0  0  0  0
  9  3  1  0  0  0  0
 10 15  2  0  0  0  0
 11  1  2  0  0  0  0
 11 16  1  0  0  0  0
 12 14  1  0  0  0  0
 14 13  2  0  0  0  0
 15 16  1  0  0  0  0
 16  9  2  0  0  0  0
 18 17  1  6  0  0  0
 18 20  1  0  0  0  0
 19 20  2  0  0  0  0
 20 21  1  0  0  0  0
 21 23  2  0  0  0  0
 23 22  2  0  0  0  0
 24  6  1  0  0  0  0
 25 24  1  0  0  0  0
 26 25  1  0  0  0  0
 26 27  1  0  0  0  0
 27 29  1  0  0  0  0
 28 29  1  0  0  0  0
 29 30  2  0  0  0  0
M  END
>  <MODEL>
3

>  <REMARK>
 VINA RESULT:      -7.4      1.819      2.168
  Name = 
  7 active torsions:
  status: ('A' for Active; 'I' for Inactive)
    1  A    between atoms: N_5  and  C_12
    2  A    between atoms: N_7  and  N_16
    3  A    between atoms: C_8  and  C_12
    4  A    between atoms: C_8  and  N_13
    5  A    between atoms: N_13  and  C_27
    6  A    between atoms: N_16  and  C_30
    7  A    between atoms: C_27  and  C_30
                            x       y       z     vdW  Elec       q    Type
                         _______ _______ _______ _____ _____    ______ ____

>  <TORSDO>
F 7

$$$$
=
 OpenBabel11052417183D

 30 32  0  0  1  0  0  0  0  0999 V2000
  187.7290  177.2150  145.0500 N   0  0  0  0  0  0  0  0  0  0  0  0
  186.0430  177.9100  146.6040 C   0  0  0  0  0  0  0  0  0  0  0  0
  185.3410  178.2280  141.7730 C   0  0  0  0  0  3  0  0  0  0  0  0
  188.2090  177.0060  143.7950 C   0  0  0  0  0  0  0  0  0  0  0  0
  185.8280  178.0450  140.4770 C   0  0  0  0  0  3  0  0  0  0  0  0
  189.5400  176.4900  143.6350 N   0  0  0  0  0  0  0  0  0  0  0  0
  184.7710  178.4390  146.8390 C   0  0  0  0  0  3  0  0  0  0  0  0
  187.0530  177.4840  147.9760 Cl  0  0  0  0  0  0  0  0  0  0  0  0
  186.1240  177.8820  142.8870 C   0  0  0  0  0  0  0  0  0  0  0  0
  183.9420  178.7850  145.7700 C   0  0  0  0  0  3  0  0  0  0  0  0
  186.4920  177.7240  145.2850 C   0  0  0  0  0  0  0  0  0  0  0  0
  187.4160  177.3400  142.6810 C   0  0  0  0  0  0  0  0  0  0  0  0
  187.1040  177.5140  140.2780 C   0  0  0  0  0  3  0  0  0  0  0  0
  187.8940  177.1640  141.3740 C   0  0  0  0  0  3  0  0  0  0  0  0
  184.3810  178.6050  144.4580 C   0  0  0  0  0  3  0  0  0  0  0  0
  185.6550  178.0730  144.1990 C   0  0  0  0  0  0  0  0  0  0  0  0
  188.5460  174.2700  143.1970 C   0  0  0  0  0  1  0  0  0  0  0  0
  189.7940  175.0500  143.5800 C   0  0  2  0  0  3  0  0  0  0  0  0
  191.4880  173.8970  144.8240 O   0  0  0  0  0  0  0  0  0  0  0  0
  190.4060  174.5470  144.8520 C   0  0  0  0  0  0  0  0  0  0  0  0
  189.7220  174.7730  146.0870 N   0  0  0  0  0  0  0  0  0  0  0  0
  190.7910  175.9810  148.0090 O   0  0  0  0  0  0  0  0  0  0  0  0
  190.2640  175.3860  147.0620 C   0  0  0  0  0  0  0  0  0  0  0  0
  190.6760  177.3570  143.9170 C   0  0  0  0  0  2  0  0  0  0  0  0
  191.7540  177.2000  142.8560 C   0  0  0  0  0  2  0  0  0  0  0  0
  192.9630  176.6660  143.4590 N   0  0  0  0  0  2  0  0  0  0  0  0
  192.9570  177.0650  144.8010 N   0  0  0  0  0  2  0  0  0  0  0  0
  194.8630  175.4710  145.3230 C   0  0  0  0  0  1  0  0  0  0  0  0
  193.8810  176.5120  145.7380 C   0  0  0  0  0  0  0  0  0  0  0  0
  193.8590  176.9020  146.9350 O   0  0  0  0  0  0  0  0  0  0  0  0
  1 11  1  0  0  0  0
  2  7  1  0  0  0  0
  2  8  1  0  0  0  0
  3  9  1  0  0  0  0
  4  1  2  0  0  0  0
  5  3  2  0  0  0  0
  6  4  1  0  0  0  0
  6 24  1  0  0  0  0
  9 16  1  0  0  0  0
 10  7  2  0  0  0  0
 11  2  2  0  0  0  0
 12  9  2  0  0  0  0
 12  4  1  0  0  0  0
 13  5  1  0  0  0  0
 13 14  2  0  0  0  0
 14 12  1  0  0  0  0
 15 10  1  0  0  0  0
 16 15  2  0  0  0  0
 16 11  1  0  0  0  0
 18 17  1  1  0  0  0
 18  6  1  0  0  0  0
 18 20  1  0  0  0  0
 19 20  2  0  0  0  0
 20 21  1  0  0  0  0
 21 23  2  0  0  0  0
 23 22  2  0  0  0  0
 25 26  1  0  0  0  0
 25 24  1  0  0  0  0
 26 27  1  0  0  0  0
 27 29  1  0  0  0  0
 28 29  1  0  0  0  0
 29 30  2  0  0  0  0
M  END
>  <MODEL>
4

>  <REMARK>
 VINA RESULT:      -7.3      2.668      4.895
  Name = 
  7 active torsions:
  status: ('A' for Active; 'I' for Inactive)
    1  A    between atoms: N_5  and  C_12
    2  A    between atoms: N_7  and  N_16
    3  A    between atoms: C_8  and  C_12
    4  A    between atoms: C_8  and  N_13
    5  A    between atoms: N_13  and  C_27
    6  A    between atoms: N_16  and  C_30
    7  A    between atoms: C_27  and  C_30
                            x       y       z     vdW  Elec       q    Type
                         _______ _______ _______ _____ _____    ______ ____

>  <TORSDO>
F 7

$$$$
=
 OpenBabel11052417183D

 30 32  0  0  1  0  0  0  0  0999 V2000
  187.3910  177.0150  145.4740 N   0  0  0  0  0  0  0  0  0  0  0  0
  185.5590  178.0330  146.6350 C   0  0  0  0  0  0  0  0  0  0  0  0
  185.6430  177.7590  141.7510 C   0  0  0  0  0  3  0  0  0  0  0  0
  188.0360  176.6060  144.3490 C   0  0  0  0  0  0  0  0  0  0  0  0
  186.3040  177.3700  140.5850 C   0  0  0  0  0  3  0  0  0  0  0  0
  189.3210  175.9750  144.4740 N   0  0  0  0  0  0  0  0  0  0  0  0
  184.3220  178.6820  146.5930 C   0  0  0  0  0  3  0  0  0  0  0  0
  186.3000  177.7190  148.1960 Cl  0  0  0  0  0  0  0  0  0  0  0  0
  186.2090  177.5060  143.0120 C   0  0  0  0  0  0  0  0  0  0  0  0
  183.7040  178.9440  145.3690 C   0  0  0  0  0  3  0  0  0  0  0  0
  186.1860  177.6410  145.4400 C   0  0  0  0  0  0  0  0  0  0  0  0
  187.4590  176.8470  143.0890 C   0  0  0  0  0  0  0  0  0  0  0  0
  187.5390  176.7240  140.6630 C   0  0  0  0  0  3  0  0  0  0  0  0
  188.1140  176.4650  141.9080 C   0  0  0  0  0  3  0  0  0  0  0  0
  184.3200  178.5590  144.1770 C   0  0  0  0  0  3  0  0  0  0  0  0
  185.5630  177.9040  144.1970 C   0  0  0  0  0  0  0  0  0  0  0  0
  189.6110  174.1290  146.0910 C   0  0  0  0  0  1  0  0  0  0  0  0
  189.4430  174.5260  144.6330 C   0  0  2  0  0  3  0  0  0  0  0  0
  190.4250  174.0100  142.5080 O   0  0  0  0  0  0  0  0  0  0  0  0
  190.5280  173.9640  143.7650 C   0  0  0  0  0  0  0  0  0  0  0  0
  191.6530  173.3360  144.3840 N   0  0  0  0  0  0  0  0  0  0  0  0
  193.9320  173.3330  143.3310 O   0  0  0  0  0  0  0  0  0  0  0  0
  192.8090  173.3340  143.8500 C   0  0  0  0  0  0  0  0  0  0  0  0
  190.4770  176.7860  144.8340 C   0  0  0  0  0  2  0  0  0  0  0  0
  191.1720  177.3190  143.5910 C   0  0  0  0  0  2  0  0  0  0  0  0
  192.5830  176.9770  143.6310 N   0  0  0  0  0  2  0  0  0  0  0  0
  192.8980  176.7130  144.9700 N   0  0  0  0  0  2  0  0  0  0  0  0
  195.3500  176.4300  144.3780 C   0  0  0  0  0  1  0  0  0  0  0  0
  194.2420  176.4560  145.3740 C   0  0  0  0  0  0  0  0  0  0  0  0
  194.4950  176.2360  146.5870 O   0  0  0  0  0  0  0  0  0  0  0  0
  2  8  1  0  0  0  0
  3  9  1  0  0  0  0
  4  6  1  0  0  0  0
  4  1  2  0  0  0  0
  5 13  1  0  0  0  0
  5  3  2  0  0  0  0
  6 18  1  0  0  0  0
  6 24  1  0  0  0  0
  7  2  1  0  0  0  0
  9 12  2  0  0  0  0
  9 16  1  0  0  0  0
 10  7  2  0  0  0  0
 11  1  1  0  0  0  0
 11  2  2  0  0  0  0
 12  4  1  0  0  0  0
 13 14  2  0  0  0  0
 14 12  1  0  0  0  0
 15 16  2  0  0  0  0
 15 10  1  0  0  0  0
 16 11  1  0  0  0  0
 18 17  1  1  0  0  0
 19 20  2  0  0  0  0
 20 21  1  0  0  0  0
 20 18  1  0  0  0  0
 22 23  2  0  0  0  0
 23 21  2  0  0  0  0
 25 26  1  0  0  0  0
 25 24  1  0  0  0  0
 26 27  1  0  0  0  0
 27 29  1  0  0  0  0
 28 29  1  0  0  0  0
 29 30  2  0  0  0  0
M  END
>  <MODEL>
5

>  <REMARK>
 VINA RESULT:      -7.2      2.818      5.175
  Name = 
  7 active torsions:
  status: ('A' for Active; 'I' for Inactive)
    1  A    between atoms: N_5  and  C_12
    2  A    between atoms: N_7  and  N_16
    3  A    between atoms: C_8  and  C_12
    4  A    between atoms: C_8  and  N_13
    5  A    between atoms: N_13  and  C_27
    6  A    between atoms: N_16  and  C_30
    7  A    between atoms: C_27  and  C_30
                            x       y       z     vdW  Elec       q    Type
                         _______ _______ _______ _____ _____    ______ ____

>  <TORSDO>
F 7

$$$$
=
 OpenBabel11052417183D

 30 32  0  0  1  0  0  0  0  0999 V2000
  187.5850  176.6170  142.6960 N   0  0  0  0  0  0  0  0  0  0  0  0
  186.0520  177.4110  141.0350 C   0  0  0  0  0  0  0  0  0  0  0  0
  184.9780  177.6270  145.8030 C   0  0  0  0  0  3  0  0  0  0  0  0
  187.9680  176.3840  143.9800 C   0  0  0  0  0  0  0  0  0  0  0  0
  185.3440  177.3710  147.1260 C   0  0  0  0  0  3  0  0  0  0  0  0
  189.2360  175.7530  144.2250 N   0  0  0  0  0  0  0  0  0  0  0  0
  184.8210  177.9910  140.7160 C   0  0  0  0  0  3  0  0  0  0  0  0
  187.1510  176.9820  139.7340 Cl  0  0  0  0  0  0  0  0  0  0  0  0
  185.8470  177.3060  144.7460 C   0  0  0  0  0  0  0  0  0  0  0  0
  183.9260  178.3470  141.7260 C   0  0  0  0  0  3  0  0  0  0  0  0
  186.3920  177.1850  142.3790 C   0  0  0  0  0  0  0  0  0  0  0  0
  187.1030  176.7210  145.0370 C   0  0  0  0  0  0  0  0  0  0  0  0
  186.5820  176.7900  147.4090 C   0  0  0  0  0  3  0  0  0  0  0  0
  187.4560  176.4660  146.3700 C   0  0  0  0  0  3  0  0  0  0  0  0
  184.2550  178.1240  143.0640 C   0  0  0  0  0  3  0  0  0  0  0  0
  185.4880  177.5440  143.4060 C   0  0  0  0  0  0  0  0  0  0  0  0
  190.1840  178.0350  144.2840 C   0  0  0  0  0  1  0  0  0  0  0  0
  190.4570  176.5420  144.3870 C   0  0  2  0  0  3  0  0  0  0  0  0
  191.2810  175.9660  142.2110 O   0  0  0  0  0  0  0  0  0  0  0  0
  191.5310  176.0980  143.4420 C   0  0  0  0  0  0  0  0  0  0  0  0
  192.8250  175.7820  143.9620 N   0  0  0  0  0  0  0  0  0  0  0  0
  193.1370  174.6660  146.1880 O   0  0  0  0  0  0  0  0  0  0  0  0
  192.9830  175.2160  145.0910 C   0  0  0  0  0  0  0  0  0  0  0  0
  189.3910  174.3350  143.9290 C   0  0  0  0  0  2  0  0  0  0  0  0
  189.6680  173.5450  145.1990 C   0  0  0  0  0  2  0  0  0  0  0  0
  189.9500  172.1600  144.8640 N   0  0  0  0  0  2  0  0  0  0  0  0
  191.2360  172.1300  144.3100 N   0  0  0  0  0  2  0  0  0  0  0  0
  190.3670  170.9070  142.2620 C   0  0  0  0  0  1  0  0  0  0  0  0
  191.4750  171.5380  143.0330 C   0  0  0  0  0  0  0  0  0  0  0  0
  192.6390  171.5400  142.5570 O   0  0  0  0  0  0  0  0  0  0  0  0
  1  4  1  0  0  0  0
  2 11  1  0  0  0  0
  3  5  2  0  0  0  0
  4  6  1  0  0  0  0
  4 12  2  0  0  0  0
  5 13  1  0  0  0  0
  6 18  1  0  0  0  0
  7  2  2  0  0  0  0
  7 10  1  0  0  0  0
  8  2  1  0  0  0  0
  9 12  1  0  0  0  0
  9  3  1  0  0  0  0
 10 15  2  0  0  0  0
 11  1  2  0  0  0  0
 11 16  1  0  0  0  0
 12 14  1  0  0  0  0
 14 13  2  0  0  0  0
 15 16  1  0  0  0  0
 16  9  2  0  0  0  0
 18 17  1  6  0  0  0
 19 20  2  0  0  0  0
 20 21  1  0  0  0  0
 20 18  1  0  0  0  0
 21 23  2  0  0  0  0
 23 22  2  0  0  0  0
 24  6  1  0  0  0  0
 24 25  1  0  0  0  0
 26 25  1  0  0  0  0
 27 26  1  0  0  0  0
 28 29  1  0  0  0  0
 29 27  1  0  0  0  0
 30 29  2  0  0  0  0
M  END
>  <MODEL>
6

>  <REMARK>
 VINA RESULT:      -7.0      2.260      2.524
  Name = 
  7 active torsions:
  status: ('A' for Active; 'I' for Inactive)
    1  A    between atoms: N_5  and  C_12
    2  A    between atoms: N_7  and  N_16
    3  A    between atoms: C_8  and  C_12
    4  A    between atoms: C_8  and  N_13
    5  A    between atoms: N_13  and  C_27
    6  A    between atoms: N_16  and  C_30
    7  A    between atoms: C_27  and  C_30
                            x       y       z     vdW  Elec       q    Type
                         _______ _______ _______ _____ _____    ______ ____

>  <TORSDO>
F 7

$$$$
=
 OpenBabel11052417183D

 30 32  0  0  1  0  0  0  0  0999 V2000
  187.6770  176.4470  144.3670 N   0  0  0  0  0  0  0  0  0  0  0  0
  186.5160  177.0080  146.3860 C   0  0  0  0  0  0  0  0  0  0  0  0
  184.7530  178.2700  142.0010 C   0  0  0  0  0  3  0  0  0  0  0  0
  187.8150  176.4250  143.0150 C   0  0  0  0  0  0  0  0  0  0  0  0
  184.8920  178.2800  140.6120 C   0  0  0  0  0  3  0  0  0  0  0  0
  188.9860  175.8180  142.4440 N   0  0  0  0  0  0  0  0  0  0  0  0
  185.4210  177.6060  147.0160 C   0  0  0  0  0  3  0  0  0  0  0  0
  187.7490  176.2420  147.3750 Cl  0  0  0  0  0  0  0  0  0  0  0  0
  185.7190  177.6510  142.8120 C   0  0  0  0  0  0  0  0  0  0  0  0
  184.4220  178.2220  146.2600 C   0  0  0  0  0  3  0  0  0  0  0  0
  186.6130  177.0230  144.9850 C   0  0  0  0  0  0  0  0  0  0  0  0
  186.8380  177.0320  142.2040 C   0  0  0  0  0  0  0  0  0  0  0  0
  185.9990  177.6720  140.0160 C   0  0  0  0  0  3  0  0  0  0  0  0
  186.9670  177.0520  140.8070 C   0  0  0  0  0  3  0  0  0  0  0  0
  184.5110  178.2420  144.8670 C   0  0  0  0  0  3  0  0  0  0  0  0
  185.6020  177.6440  144.2140 C   0  0  0  0  0  0  0  0  0  0  0  0
  187.6170  173.8100  142.0000 C   0  0  0  0  0  1  0  0  0  0  0  0
  189.0160  174.3950  142.1060 C   0  0  2  0  0  3  0  0  0  0  0  0
  189.6840  173.6910  144.2980 O   0  0  0  0  0  0  0  0  0  0  0  0
  189.8810  173.6200  143.0530 C   0  0  0  0  0  0  0  0  0  0  0  0
  190.9600  172.8430  142.5270 N   0  0  0  0  0  0  0  0  0  0  0  0
  190.8440  170.3420  142.3490 O   0  0  0  0  0  0  0  0  0  0  0  0
  190.9010  171.5740  142.4370 C   0  0  0  0  0  0  0  0  0  0  0  0
  190.2670  176.5050  142.5560 C   0  0  0  0  0  2  0  0  0  0  0  0
  190.3070  177.3760  143.8020 C   0  0  0  0  0  2  0  0  0  0  0  0
  191.4270  176.9840  144.6390 N   0  0  0  0  0  2  0  0  0  0  0  0
  190.8860  176.4480  145.8150 N   0  0  0  0  0  2  0  0  0  0  0  0
  193.1820  176.4070  146.8980 C   0  0  0  0  0  1  0  0  0  0  0  0
  191.7120  176.1660  146.9440 C   0  0  0  0  0  0  0  0  0  0  0  0
  191.1940  175.6970  147.9910 O   0  0  0  0  0  0  0  0  0  0  0  0
  1 11  1  0  0  0  0
  2  7  1  0  0  0  0
  2  8  1  0  0  0  0
  3  9  1  0  0  0  0
  4  1  2  0  0  0  0
  5  3  2  0  0  0  0
  6 24  1  0  0  0  0
  6  4  1  0  0  0  0
  9 16  1  0  0  0  0
 10  7  2  0  0  0  0
 11  2  2  0  0  0  0
 12  9  2  0  0  0  0
 12  4  1  0  0  0  0
 13  5  1  0  0  0  0
 13 14  2  0  0  0  0
 14 12  1  0  0  0  0
 15 10  1  0  0  0  0
 16 15  2  0  0  0  0
 16 11  1  0  0  0  0
 18 17  1  1  0  0  0
 18  6  1  0  0  0  0
 18 20  1  0  0  0  0
 20 19  2  0  0  0  0
 21 20  1  0  0  0  0
 22 23  2  0  0  0  0
 23 21  2  0  0  0  0
 24 25  1  0  0  0  0
 25 26  1  0  0  0  0
 26 27  1  0  0  0  0
 27 29  1  0  0  0  0
 28 29  1  0  0  0  0
 29 30  2  0  0  0  0
M  END
>  <MODEL>
7

>  <REMARK>
 VINA RESULT:      -7.0      2.402      5.401
  Name = 
  7 active torsions:
  status: ('A' for Active; 'I' for Inactive)
    1  A    between atoms: N_5  and  C_12
    2  A    between atoms: N_7  and  N_16
    3  A    between atoms: C_8  and  C_12
    4  A    between atoms: C_8  and  N_13
    5  A    between atoms: N_13  and  C_27
    6  A    between atoms: N_16  and  C_30
    7  A    between atoms: C_27  and  C_30
                            x       y       z     vdW  Elec       q    Type
                         _______ _______ _______ _____ _____    ______ ____

>  <TORSDO>
F 7

$$$$
=
 OpenBabel11052417183D

 30 32  0  0  1  0  0  0  0  0999 V2000
  191.8550  175.3800  143.1510 N   0  0  0  0  0  0  0  0  0  0  0  0
  194.1790  175.9590  143.0850 C   0  0  0  0  0  0  0  0  0  0  0  0
  191.7910  175.4930  147.3300 C   0  0  0  0  0  3  0  0  0  0  0  0
  190.6950  175.0960  143.8010 C   0  0  0  0  0  0  0  0  0  0  0  0
  190.6020  175.2300  148.0120 C   0  0  0  0  0  3  0  0  0  0  0  0
  189.5160  174.8140  143.0300 N   0  0  0  0  0  0  0  0  0  0  0  0
  195.3580  176.2740  143.7660 C   0  0  0  0  0  3  0  0  0  0  0  0
  194.1980  175.9120  141.3300 Cl  0  0  0  0  0  0  0  0  0  0  0  0
  191.8350  175.4470  145.9260 C   0  0  0  0  0  0  0  0  0  0  0  0
  195.3780  176.3170  145.1610 C   0  0  0  0  0  3  0  0  0  0  0  0
  193.0060  175.6830  143.8080 C   0  0  0  0  0  0  0  0  0  0  0  0
  190.6580  175.1270  145.2070 C   0  0  0  0  0  0  0  0  0  0  0  0
  189.4420  174.9180  147.3000 C   0  0  0  0  0  3  0  0  0  0  0  0
  189.4690  174.8680  145.9060 C   0  0  0  0  0  3  0  0  0  0  0  0
  194.2170  176.0450  145.8860 C   0  0  0  0  0  3  0  0  0  0  0  0
  193.0220  175.7240  145.2220 C   0  0  0  0  0  0  0  0  0  0  0  0
  189.8570  172.4120  143.5000 C   0  0  0  0  0  1  0  0  0  0  0  0
  189.1910  173.4500  142.6110 C   0  0  2  0  0  3  0  0  0  0  0  0
  190.6910  173.2600  140.7500 O   0  0  0  0  0  0  0  0  0  0  0  0
  189.4970  173.2300  141.1600 C   0  0  0  0  0  0  0  0  0  0  0  0
  188.4150  173.0360  140.2460 N   0  0  0  0  0  0  0  0  0  0  0  0
  188.0420  174.5400  138.2720 O   0  0  0  0  0  0  0  0  0  0  0  0
  188.2260  173.7990  139.2450 C   0  0  0  0  0  0  0  0  0  0  0  0
  188.8480  175.9040  142.3300 C   0  0  0  0  0  2  0  0  0  0  0  0
  187.4170  176.0650  142.8180 C   0  0  0  0  0  2  0  0  0  0  0  0
  187.3770  177.0100  143.9190 N   0  0  0  0  0  2  0  0  0  0  0  0
  186.1340  176.8510  144.5450 N   0  0  0  0  0  2  0  0  0  0  0  0
  187.1140  177.5950  146.7660 C   0  0  0  0  0  1  0  0  0  0  0  0
  185.9650  177.1400  145.9320 C   0  0  0  0  0  0  0  0  0  0  0  0
  184.8330  177.0000  146.4630 O   0  0  0  0  0  0  0  0  0  0  0  0
  1  4  2  0  0  0  0
  1 11  1  0  0  0  0
  2  7  2  0  0  0  0
  2 11  1  0  0  0  0
  3  5  1  0  0  0  0
  4 12  1  0  0  0  0
  6  4  1  0  0  0  0
  7 10  1  0  0  0  0
  8  2  1  0  0  0  0
  9  3  2  0  0  0  0
 10 15  2  0  0  0  0
 11 16  2  0  0  0  0
 12 14  2  0  0  0  0
 12  9  1  0  0  0  0
 13  5  2  0  0  0  0
 14 13  1  0  0  0  0
 16 15  1  0  0  0  0
 16  9  1  0  0  0  0
 18  6  1  0  0  0  0
 18 17  1  1  0  0  0
 19 20  2  0  0  0  0
 20 18  1  0  0  0  0
 21 20  1  0  0  0  0
 22 23  2  0  0  0  0
 23 21  2  0  0  0  0
 24 25  1  0  0  0  0
 24  6  1  0  0  0  0
 25 26  1  0  0  0  0
 26 27  1  0  0  0  0
 27 29  1  0  0  0  0
 29 30  2  0  0  0  0
 29 28  1  0  0  0  0
M  END
>  <MODEL>
8

>  <REMARK>
 VINA RESULT:      -6.9      3.174      7.360
  Name = 
  7 active torsions:
  status: ('A' for Active; 'I' for Inactive)
    1  A    between atoms: N_5  and  C_12
    2  A    between atoms: N_7  and  N_16
    3  A    between atoms: C_8  and  C_12
    4  A    between atoms: C_8  and  N_13
    5  A    between atoms: N_13  and  C_27
    6  A    between atoms: N_16  and  C_30
    7  A    between atoms: C_27  and  C_30
                            x       y       z     vdW  Elec       q    Type
                         _______ _______ _______ _____ _____    ______ ____

>  <TORSDO>
F 7

$$$$
=
 OpenBabel11052417183D

 30 32  0  0  1  0  0  0  0  0999 V2000
  191.7830  175.1470  143.0310 N   0  0  0  0  0  0  0  0  0  0  0  0
  194.1130  175.6990  142.9560 C   0  0  0  0  0  0  0  0  0  0  0  0
  191.6770  175.5020  147.1940 C   0  0  0  0  0  3  0  0  0  0  0  0
  190.6140  174.9120  143.6830 C   0  0  0  0  0  0  0  0  0  0  0  0
  190.4790  175.2900  147.8770 C   0  0  0  0  0  3  0  0  0  0  0  0
  189.4400  174.5960  142.9160 N   0  0  0  0  0  0  0  0  0  0  0  0
  195.2880  176.0420  143.6300 C   0  0  0  0  0  3  0  0  0  0  0  0
  194.1500  175.5500  141.2060 Cl  0  0  0  0  0  0  0  0  0  0  0  0
  191.7350  175.3750  145.7960 C   0  0  0  0  0  0  0  0  0  0  0  0
  195.2940  176.1650  145.0200 C   0  0  0  0  0  3  0  0  0  0  0  0
  192.9300  175.4760  143.6800 C   0  0  0  0  0  0  0  0  0  0  0  0
  190.5620  175.0250  145.0850 C   0  0  0  0  0  0  0  0  0  0  0  0
  189.3230  174.9480  147.1730 C   0  0  0  0  0  3  0  0  0  0  0  0
  189.3640  174.8170  145.7840 C   0  0  0  0  0  3  0  0  0  0  0  0
  194.1230  175.9470  145.7470 C   0  0  0  0  0  3  0  0  0  0  0  0
  192.9320  175.5990  145.0900 C   0  0  0  0  0  0  0  0  0  0  0  0
  189.7670  172.2220  143.5170 C   0  0  0  0  0  1  0  0  0  0  0  0
  189.1060  173.2130  142.5730 C   0  0  2  0  0  3  0  0  0  0  0  0
  190.6010  172.9070  140.7250 O   0  0  0  0  0  0  0  0  0  0  0  0
  189.4070  172.9120  141.1370 C   0  0  0  0  0  0  0  0  0  0  0  0
  188.3220  172.6810  140.2350 N   0  0  0  0  0  0  0  0  0  0  0  0
  188.1900  173.7860  137.9860 O   0  0  0  0  0  0  0  0  0  0  0  0
  188.2550  173.2410  139.0940 C   0  0  0  0  0  0  0  0  0  0  0  0
  188.7900  175.6500  142.1480 C   0  0  0  0  0  2  0  0  0  0  0  0
  187.2930  175.6680  142.4110 C   0  0  0  0  0  2  0  0  0  0  0  0
  186.9310  176.8900  143.1080 N   0  0  0  0  0  2  0  0  0  0  0  0
  185.5590  177.0810  142.9060 N   0  0  0  0  0  2  0  0  0  0  0  0
  185.6980  179.4150  143.8940 C   0  0  0  0  0  1  0  0  0  0  0  0
  184.9240  178.3080  143.2650 C   0  0  0  0  0  0  0  0  0  0  0  0
  183.6920  178.4530  143.0580 O   0  0  0  0  0  0  0  0  0  0  0  0
  1 11  2  0  0  0  0
  1  4  1  0  0  0  0
  2  7  2  0  0  0  0
  2 11  1  0  0  0  0
  3  5  2  0  0  0  0
  4 12  2  0  0  0  0
  6  4  1  0  0  0  0
  7 10  1  0  0  0  0
  8  2  1  0  0  0  0
  9  3  1  0  0  0  0
 10 15  2  0  0  0  0
 11 16  1  0  0  0  0
 12 14  1  0  0  0  0
 12  9  1  0  0  0  0
 13  5  1  0  0  0  0
 14 13  2  0  0  0  0
 16 15  1  0  0  0  0
 16  9  2  0  0  0  0
 18  6  1  0  0  0  0
 18 17  1  1  0  0  0
 19 20  2  0  0  0  0
 20 18  1  0  0  0  0
 21 20  1  0  0  0  0
 22 23  2  0  0  0  0
 23 21  2  0  0  0  0
 24 25  1  0  0  0  0
 24  6  1  0  0  0  0
 25 26  1  0  0  0  0
 27 26  1  0  0  0  0
 27 29  1  0  0  0  0
 29 28  1  0  0  0  0
 30 29  2  0  0  0  0
M  END
>  <MODEL>
9

>  <REMARK>
 VINA RESULT:      -6.9      3.159      7.292
  Name = 
  7 active torsions:
  status: ('A' for Active; 'I' for Inactive)
    1  A    between atoms: N_5  and  C_12
    2  A    between atoms: N_7  and  N_16
    3  A    between atoms: C_8  and  C_12
    4  A    between atoms: C_8  and  N_13
    5  A    between atoms: N_13  and  C_27
    6  A    between atoms: N_16  and  C_30
    7  A    between atoms: C_27  and  C_30
                            x       y       z     vdW  Elec       q    Type
                         _______ _______ _______ _____ _____    ______ ____

>  <TORSDO>
F 7

$$$$
