=
 OpenBabel11052419223D

 32 37  0  0  1  0  0  0  0  0999 V2000
  190.7770  176.1520  145.3470 C   0  0  2  0  0  3  0  0  0  0  0  0
  192.2530  176.1390  145.1090 C   0  0  0  0  0  0  0  0  0  0  0  0
  193.1270  176.3690  146.1960 C   0  0  0  0  0  3  0  0  0  0  0  0
  196.1440  175.8060  142.9950 C   0  0  0  0  0  0  0  0  0  0  0  0
  192.7750  175.8990  143.8190 C   0  0  0  0  0  3  0  0  0  0  0  0
  196.2730  176.0660  144.3220 N   0  0  0  0  0  2  0  0  0  0  0  0
  194.9960  176.1200  144.7260 C   0  0  0  0  0  0  0  0  0  0  0  0
  194.5220  176.3620  146.0120 C   0  0  0  0  0  3  0  0  0  0  0  0
  194.8640  175.6950  142.5530 N   0  0  0  0  0  2  0  0  0  0  0  0
  197.4310  175.6350  142.0050 S   0  0  0  0  0  0  0  0  0  0  0  0
  194.1590  175.8990  143.6750 C   0  0  0  0  0  0  0  0  0  0  0  0
  190.3470  177.4550  145.6280 O   0  0  0  0  0  0  0  0  0  0  0  0
  189.7260  177.9100  144.4610 C   0  0  1  0  0  3  0  0  0  0  0  0
  190.6440  178.6680  143.7290 O   0  0  0  0  0  1  0  0  0  0  0  0
  187.7100  176.7450  143.3310 C   0  0  2  0  0  3  0  0  0  0  0  0
  189.2180  176.7040  143.6520 C   0  0  1  0  0  3  0  0  0  0  0  0
  188.7360  177.0920  142.2650 C   0  0  0  0  0  2  0  0  0  0  0  0
  187.0450  177.9560  143.8240 N   0  0  0  0  0  0  0  0  0  0  0  0
  185.9110  177.5180  144.6330 C   0  0  1  0  0  3  0  0  0  0  0  0
  186.3990  176.8380  145.8970 C   0  0  0  0  0  2  0  0  0  0  0  0
  185.9050  178.2640  145.9590 C   0  0  2  0  0  3  0  0  0  0  0  0
  184.4940  178.2800  146.5060 C   0  0  0  0  0  1  0  0  0  0  0  0
  186.4810  178.6420  142.6660 C   0  0  0  0  0  2  0  0  0  0  0  0
  185.2920  178.0180  142.2850 O   0  0  0  0  0  0  0  0  0  0  0  0
  183.7700  178.3170  140.4860 C   0  0  0  0  0  1  0  0  0  0  0  0
  185.2210  178.2140  140.9070 C   0  0  0  0  0  2  0  0  0  0  0  0
  190.4140  175.2130  146.4890 C   0  0  0  0  0  2  0  0  0  0  0  0
  189.5650  174.0670  145.9730 C   0  0  0  0  0  2  0  0  0  0  0  0
  190.3520  173.2750  144.9500 C   0  0  1  0  0  3  0  0  0  0  0  0
  189.6010  172.0000  144.6110 C   0  0  2  0  0  3  0  0  0  0  0  0
  189.7100  171.7660  143.1170 C   0  0  0  0  0  2  0  0  0  0  0  0
  189.5500  173.1710  143.6660 C   0  0  2  0  0  3  0  0  0  0  0  0
  1 12  1  0  0  0  0
  1 27  1  1  0  0  0
  2  1  1  0  0  0  0
  2  3  1  0  0  0  0
  4  6  1  0  0  0  0
  5  2  2  0  0  0  0
  6  7  1  0  0  0  0
  7  8  1  0  0  0  0
  8  3  2  0  0  0  0
  9  4  1  0  0  0  0
  9 11  1  0  0  0  0
 10  4  2  0  0  0  0
 11  5  1  0  0  0  0
 11  7  2  0  0  0  0
 13 14  1  6  0  0  0
 13 12  1  0  0  0  0
 15 16  1  0  0  0  0
 15 18  1  1  0  0  0
 16 13  1  1  0  0  0
 17 15  1  0  0  0  0
 17 16  1  0  0  0  0
 19 18  1  6  0  0  0
 19 20  1  0  0  0  0
 19 21  1  0  0  0  0
 20 21  1  0  0  0  0
 21 22  1  1  0  0  0
 23 18  1  0  0  0  0
 24 23  1  0  0  0  0
 25 26  1  0  0  0  0
 26 24  1  0  0  0  0
 28 27  1  0  0  0  0
 29 28  1  1  0  0  0
 30 31  1  6  0  0  0
 30 29  1  0  0  0  0
 32 31  1  6  0  0  0
 32 30  1  0  0  0  0
 32 29  1  0  0  0  0
M  END
>  <MODEL>
1

>  <REMARK>
 VINA RESULT:      -6.6      0.000      0.000
  Name = 
  12 active torsions:
  status: ('A' for Active; 'I' for Inactive)
    1  A    between atoms: O_1  and  C_4
    2  A    between atoms: O_1  and  C_5
    3  A    between atoms: C_2  and  C_5
    4  A    between atoms: C_3  and  N_20
    5  A    between atoms: C_4  and  C_24
    6  A    between atoms: C_5  and  C_14
    7  A    between atoms: C_13  and  C_30
    8  A    between atoms: C_14  and  C_30
    9  A    between atoms: C_15  and  N_20
   10  A    between atoms: C_15  and  O_26
   11  A    between atoms: C_16  and  N_20
   12  A    between atoms: C_19  and  O_26
                            x       y       z     vdW  Elec       q    Type
                         _______ _______ _______ _____ _____    ______ ____

>  <TORSDO>
F 12

$$$$
=
 OpenBabel11052419223D

 32 37  0  0  1  0  0  0  0  0999 V2000
  190.5470  174.9840  145.7580 C   0  0  2  0  0  3  0  0  0  0  0  0
  189.4820  175.9920  145.4630 C   0  0  0  0  0  0  0  0  0  0  0  0
  189.7550  177.0310  144.5450 C   0  0  0  0  0  3  0  0  0  0  0  0
  185.5790  178.1060  145.5820 C   0  0  0  0  0  0  0  0  0  0  0  0
  188.2180  175.9120  146.0890 C   0  0  0  0  0  3  0  0  0  0  0  0
  186.4770  178.6790  144.7390 N   0  0  0  0  0  2  0  0  0  0  0  0
  187.5450  177.8820  144.8770 C   0  0  0  0  0  0  0  0  0  0  0  0
  188.7780  177.9960  144.2400 C   0  0  0  0  0  3  0  0  0  0  0  0
  186.0260  177.0000  146.2320 N   0  0  0  0  0  2  0  0  0  0  0  0
  184.0730  178.6970  145.7940 S   0  0  0  0  0  0  0  0  0  0  0  0
  187.2770  176.8830  145.7630 C   0  0  0  0  0  0  0  0  0  0  0  0
  190.0250  173.6890  145.6540 O   0  0  0  0  0  0  0  0  0  0  0  0
  190.5100  173.1800  144.4450 C   0  0  1  0  0  3  0  0  0  0  0  0
  191.8120  172.7120  144.6430 O   0  0  0  0  0  1  0  0  0  0  0  0
  189.0130  172.2790  142.5350 C   0  0  2  0  0  3  0  0  0  0  0  0
  189.5770  172.0590  143.9530 C   0  0  1  0  0  3  0  0  0  0  0  0
  190.1490  171.2970  142.7710 C   0  0  0  0  0  2  0  0  0  0  0  0
  189.5090  173.5030  141.8980 N   0  0  0  0  0  0  0  0  0  0  0  0
  188.3520  174.1780  141.3160 C   0  0  1  0  0  3  0  0  0  0  0  0
  187.4220  174.6630  142.4110 C   0  0  0  0  0  2  0  0  0  0  0  0
  188.3480  175.6420  141.7280 C   0  0  2  0  0  3  0  0  0  0  0  0
  187.5660  176.4370  140.7040 C   0  0  0  0  0  1  0  0  0  0  0  0
  190.3510  173.0970  140.7770 C   0  0  0  0  0  2  0  0  0  0  0  0
  191.2160  174.1390  140.4380 O   0  0  0  0  0  0  0  0  0  0  0  0
  192.4620  175.2950  142.0970 C   0  0  0  0  0  1  0  0  0  0  0  0
  192.2850  174.0060  141.3220 C   0  0  0  0  0  2  0  0  0  0  0  0
  191.1290  175.2150  147.1450 C   0  0  0  0  0  2  0  0  0  0  0  0
  192.2870  176.1910  147.0700 C   0  0  0  0  0  2  0  0  0  0  0  0
  193.0920  175.9270  145.8160 C   0  0  1  0  0  3  0  0  0  0  0  0
  194.5290  176.3640  146.0350 C   0  0  2  0  0  3  0  0  0  0  0  0
  195.4430  175.3310  145.4060 C   0  0  0  0  0  2  0  0  0  0  0  0
  194.1720  174.9040  146.1150 C   0  0  2  0  0  3  0  0  0  0  0  0
  1 27  1  1  0  0  0
  2  1  1  0  0  0  0
  2  5  1  0  0  0  0
  3  2  2  0  0  0  0
  4 10  2  0  0  0  0
  4  9  1  0  0  0  0
  6  7  1  0  0  0  0
  6  4  1  0  0  0  0
  7 11  1  0  0  0  0
  8  3  1  0  0  0  0
  8  7  2  0  0  0  0
 11  5  2  0  0  0  0
 11  9  1  0  0  0  0
 12  1  1  0  0  0  0
 13 14  1  1  0  0  0
 13 12  1  0  0  0  0
 15 18  1  6  0  0  0
 15 17  1  0  0  0  0
 15 16  1  0  0  0  0
 16 13  1  6  0  0  0
 17 16  1  0  0  0  0
 19 21  1  0  0  0  0
 19 18  1  1  0  0  0
 19 20  1  0  0  0  0
 21 22  1  6  0  0  0
 21 20  1  0  0  0  0
 23 18  1  0  0  0  0
 24 23  1  0  0  0  0
 24 26  1  0  0  0  0
 26 25  1  0  0  0  0
 28 27  1  0  0  0  0
 29 30  1  0  0  0  0
 29 32  1  0  0  0  0
 29 28  1  1  0  0  0
 30 31  1  6  0  0  0
 30 32  1  0  0  0  0
 32 31  1  6  0  0  0
M  END
>  <MODEL>
2

>  <REMARK>
 VINA RESULT:      -6.5      3.799      6.717
  Name = 
  12 active torsions:
  status: ('A' for Active; 'I' for Inactive)
    1  A    between atoms: O_1  and  C_4
    2  A    between atoms: O_1  and  C_5
    3  A    between atoms: C_2  and  C_5
    4  A    between atoms: C_3  and  N_20
    5  A    between atoms: C_4  and  C_24
    6  A    between atoms: C_5  and  C_14
    7  A    between atoms: C_13  and  C_30
    8  A    between atoms: C_14  and  C_30
    9  A    between atoms: C_15  and  N_20
   10  A    between atoms: C_15  and  O_26
   11  A    between atoms: C_16  and  N_20
   12  A    between atoms: C_19  and  O_26
                            x       y       z     vdW  Elec       q    Type
                         _______ _______ _______ _____ _____    ______ ____

>  <TORSDO>
F 12

$$$$
=
 OpenBabel11052419223D

 32 37  0  0  1  0  0  0  0  0999 V2000
  188.4860  177.0130  146.5660 C   0  0  2  0  0  3  0  0  0  0  0  0
  188.4490  177.2640  145.0920 C   0  0  0  0  0  0  0  0  0  0  0  0
  189.5560  177.8880  144.4730 C   0  0  0  0  0  3  0  0  0  0  0  0
  186.9860  177.3430  140.9010 C   0  0  0  0  0  0  0  0  0  0  0  0
  187.3260  176.8850  144.3230 C   0  0  0  0  0  3  0  0  0  0  0  0
  188.2220  177.8850  141.0500 N   0  0  0  0  0  2  0  0  0  0  0  0
  188.4350  177.7490  142.3650 C   0  0  0  0  0  0  0  0  0  0  0  0
  189.5590  178.1390  143.0890 C   0  0  0  0  0  3  0  0  0  0  0  0
  186.4210  176.8770  142.0450 N   0  0  0  0  0  2  0  0  0  0  0  0
  186.2360  177.2520  139.4540 S   0  0  0  0  0  0  0  0  0  0  0  0
  187.3650  177.1490  142.9570 C   0  0  0  0  0  0  0  0  0  0  0  0
  189.2670  175.8840  146.8410 O   0  0  0  0  0  0  0  0  0  0  0  0
  190.5850  176.3440  146.9220 C   0  0  1  0  0  3  0  0  0  0  0  0
  190.6680  177.2970  147.9400 O   0  0  0  0  0  1  0  0  0  0  0  0
  192.1050  174.5100  145.9090 C   0  0  2  0  0  3  0  0  0  0  0  0
  191.5250  175.1540  147.1840 C   0  0  1  0  0  3  0  0  0  0  0  0
  192.9560  175.4360  146.7630 C   0  0  0  0  0  2  0  0  0  0  0  0
  191.6850  175.1830  144.6760 N   0  0  0  0  0  0  0  0  0  0  0  0
  191.2290  174.1430  143.7580 C   0  0  1  0  0  3  0  0  0  0  0  0
  190.1500  173.3020  144.4110 C   0  0  0  0  0  2  0  0  0  0  0  0
  189.7650  174.3660  143.4110 C   0  0  2  0  0  3  0  0  0  0  0  0
  189.4730  173.7150  142.0770 C   0  0  0  0  0  1  0  0  0  0  0  0
  192.8780  175.7680  144.0720 C   0  0  0  0  0  2  0  0  0  0  0  0
  193.5090  174.8180  143.2670 O   0  0  0  0  0  0  0  0  0  0  0  0
  195.2700  176.2170  144.0310 C   0  0  0  0  0  1  0  0  0  0  0  0
  194.6970  175.4300  142.8710 C   0  0  0  0  0  2  0  0  0  0  0  0
  187.0760  176.8320  147.1110 C   0  0  0  0  0  2  0  0  0  0  0  0
  186.6330  178.0860  147.8410 C   0  0  0  0  0  2  0  0  0  0  0  0
  185.1900  178.3880  147.4970 C   0  0  1  0  0  3  0  0  0  0  0  0
  185.1340  179.2160  146.2270 C   0  0  2  0  0  3  0  0  0  0  0  0
  183.9840  178.7100  145.3780 C   0  0  0  0  0  2  0  0  0  0  0  0
  184.8400  177.7400  146.1710 C   0  0  2  0  0  3  0  0  0  0  0  0
  1 12  1  0  0  0  0
  1 27  1  6  0  0  0
  2  1  1  0  0  0  0
  3  2  1  0  0  0  0
  4  6  1  0  0  0  0
  4  9  1  0  0  0  0
  5  2  2  0  0  0  0
  6  7  1  0  0  0  0
  7 11  2  0  0  0  0
  7  8  1  0  0  0  0
  8  3  2  0  0  0  0
  9 11  1  0  0  0  0
 10  4  2  0  0  0  0
 11  5  1  0  0  0  0
 12 13  1  0  0  0  0
 13 14  1  1  0  0  0
 15 18  1  6  0  0  0
 15 17  1  0  0  0  0
 15 16  1  0  0  0  0
 16 13  1  6  0  0  0
 17 16  1  0  0  0  0
 19 20  1  0  0  0  0
 19 18  1  1  0  0  0
 21 22  1  6  0  0  0
 21 19  1  0  0  0  0
 21 20  1  0  0  0  0
 23 18  1  0  0  0  0
 24 23  1  0  0  0  0
 26 24  1  0  0  0  0
 26 25  1  0  0  0  0
 27 28  1  0  0  0  0
 29 28  1  6  0  0  0
 30 31  1  1  0  0  0
 30 29  1  0  0  0  0
 32 31  1  1  0  0  0
 32 30  1  0  0  0  0
 32 29  1  0  0  0  0
M  END
>  <MODEL>
3

>  <REMARK>
 VINA RESULT:      -6.5      3.036      7.080
  Name = 
  12 active torsions:
  status: ('A' for Active; 'I' for Inactive)
    1  A    between atoms: O_1  and  C_4
    2  A    between atoms: O_1  and  C_5
    3  A    between atoms: C_2  and  C_5
    4  A    between atoms: C_3  and  N_20
    5  A    between atoms: C_4  and  C_24
    6  A    between atoms: C_5  and  C_14
    7  A    between atoms: C_13  and  C_30
    8  A    between atoms: C_14  and  C_30
    9  A    between atoms: C_15  and  N_20
   10  A    between atoms: C_15  and  O_26
   11  A    between atoms: C_16  and  N_20
   12  A    between atoms: C_19  and  O_26
                            x       y       z     vdW  Elec       q    Type
                         _______ _______ _______ _____ _____    ______ ____

>  <TORSDO>
F 12

$$$$
=
 OpenBabel11052419223D

 32 37  0  0  1  0  0  0  0  0999 V2000
  189.8820  175.4640  145.8380 C   0  0  2  0  0  3  0  0  0  0  0  0
  189.7030  174.5280  144.6860 C   0  0  0  0  0  0  0  0  0  0  0  0
  189.9710  173.1520  144.8710 C   0  0  0  0  0  3  0  0  0  0  0  0
  188.7700  173.0530  140.6030 C   0  0  0  0  0  0  0  0  0  0  0  0
  189.2710  175.0040  143.4280 C   0  0  0  0  0  3  0  0  0  0  0  0
  189.1640  172.0700  141.4530 N   0  0  0  0  0  2  0  0  0  0  0  0
  189.3830  172.7480  142.5880 C   0  0  0  0  0  0  0  0  0  0  0  0
  189.8120  172.2400  143.8120 C   0  0  0  0  0  3  0  0  0  0  0  0
  188.7300  174.2990  141.1430 N   0  0  0  0  0  2  0  0  0  0  0  0
  188.3680  172.7600  139.0480 S   0  0  0  0  0  0  0  0  0  0  0  0
  189.1250  174.0720  142.4050 C   0  0  0  0  0  0  0  0  0  0  0  0
  191.0790  175.1810  146.5070 O   0  0  0  0  0  0  0  0  0  0  0  0
  192.0750  175.8760  145.8140 C   0  0  1  0  0  3  0  0  0  0  0  0
  191.5820  177.1340  145.4580 O   0  0  0  0  0  1  0  0  0  0  0  0
  194.6040  175.3910  146.0780 C   0  0  2  0  0  3  0  0  0  0  0  0
  193.3270  175.9910  146.7010 C   0  0  1  0  0  3  0  0  0  0  0  0
  194.3880  176.8960  146.1010 C   0  0  0  0  0  2  0  0  0  0  0  0
  194.3950  174.8590  144.7280 N   0  0  0  0  0  0  0  0  0  0  0  0
  194.8650  173.4760  144.7390 C   0  0  1  0  0  3  0  0  0  0  0  0
  194.0080  172.6390  145.6690 C   0  0  0  0  0  2  0  0  0  0  0  0
  193.7880  172.5610  144.1770 C   0  0  2  0  0  3  0  0  0  0  0  0
  194.4430  171.3060  143.6400 C   0  0  0  0  0  1  0  0  0  0  0  0
  195.2890  175.5860  143.8320 C   0  0  0  0  0  2  0  0  0  0  0  0
  194.8700  175.4150  142.5110 O   0  0  0  0  0  0  0  0  0  0  0  0
  192.6230  175.1630  141.7840 C   0  0  0  0  0  1  0  0  0  0  0  0
  193.6390  176.0670  142.4480 C   0  0  0  0  0  2  0  0  0  0  0  0
  188.7000  175.3650  146.7930 C   0  0  0  0  0  2  0  0  0  0  0  0
  187.9920  176.7020  146.8890 C   0  0  0  0  0  2  0  0  0  0  0  0
  186.9440  176.7990  145.8010 C   0  0  1  0  0  3  0  0  0  0  0  0
  186.2580  178.1510  145.8780 C   0  0  2  0  0  3  0  0  0  0  0  0
  186.0560  178.6640  144.4660 C   0  0  0  0  0  2  0  0  0  0  0  0
  187.3180  177.9090  144.8370 C   0  0  2  0  0  3  0  0  0  0  0  0
  1 12  1  0  0  0  0
  1 27  1  1  0  0  0
  2  3  1  0  0  0  0
  2  1  1  0  0  0  0
  4  9  1  0  0  0  0
  4  6  1  0  0  0  0
  5  2  2  0  0  0  0
  6  7  1  0  0  0  0
  7  8  1  0  0  0  0
  8  3  2  0  0  0  0
  9 11  1  0  0  0  0
 10  4  2  0  0  0  0
 11  7  2  0  0  0  0
 11  5  1  0  0  0  0
 13 14  1  1  0  0  0
 13 12  1  0  0  0  0
 15 18  1  6  0  0  0
 15 17  1  0  0  0  0
 15 16  1  0  0  0  0
 16 13  1  6  0  0  0
 17 16  1  0  0  0  0
 19 18  1  1  0  0  0
 19 20  1  0  0  0  0
 21 22  1  6  0  0  0
 21 19  1  0  0  0  0
 21 20  1  0  0  0  0
 23 18  1  0  0  0  0
 24 23  1  0  0  0  0
 25 26  1  0  0  0  0
 26 24  1  0  0  0  0
 27 28  1  0  0  0  0
 29 30  1  0  0  0  0
 29 28  1  1  0  0  0
 30 31  1  6  0  0  0
 32 31  1  6  0  0  0
 32 29  1  0  0  0  0
 32 30  1  0  0  0  0
M  END
>  <MODEL>
4

>  <REMARK>
 VINA RESULT:      -6.3      3.082      7.138
  Name = 
  12 active torsions:
  status: ('A' for Active; 'I' for Inactive)
    1  A    between atoms: O_1  and  C_4
    2  A    between atoms: O_1  and  C_5
    3  A    between atoms: C_2  and  C_5
    4  A    between atoms: C_3  and  N_20
    5  A    between atoms: C_4  and  C_24
    6  A    between atoms: C_5  and  C_14
    7  A    between atoms: C_13  and  C_30
    8  A    between atoms: C_14  and  C_30
    9  A    between atoms: C_15  and  N_20
   10  A    between atoms: C_15  and  O_26
   11  A    between atoms: C_16  and  N_20
   12  A    between atoms: C_19  and  O_26
                            x       y       z     vdW  Elec       q    Type
                         _______ _______ _______ _____ _____    ______ ____

>  <TORSDO>
F 12

$$$$
=
 OpenBabel11052419223D

 32 37  0  0  1  0  0  0  0  0999 V2000
  190.2770  174.9920  145.9770 C   0  0  2  0  0  3  0  0  0  0  0  0
  189.0400  175.8300  146.0060 C   0  0  0  0  0  0  0  0  0  0  0  0
  188.1380  175.6870  147.0860 C   0  0  0  0  0  3  0  0  0  0  0  0
  185.9870  178.8210  144.8010 C   0  0  0  0  0  0  0  0  0  0  0  0
  188.7690  176.7550  144.9740 C   0  0  0  0  0  3  0  0  0  0  0  0
  185.6940  178.1930  145.9690 N   0  0  0  0  0  2  0  0  0  0  0  0
  186.7340  177.3610  146.1130 C   0  0  0  0  0  0  0  0  0  0  0  0
  186.9640  176.4600  147.1490 C   0  0  0  0  0  3  0  0  0  0  0  0
  187.1480  178.4300  144.2140 N   0  0  0  0  0  2  0  0  0  0  0  0
  185.0200  179.9650  144.1530 S   0  0  0  0  0  0  0  0  0  0  0  0
  187.5990  177.5020  145.0710 C   0  0  0  0  0  0  0  0  0  0  0  0
  189.9470  173.6550  145.7200 O   0  0  0  0  0  0  0  0  0  0  0  0
  190.3740  173.4040  144.4130 C   0  0  1  0  0  3  0  0  0  0  0  0
  191.7300  173.0650  144.4380 O   0  0  0  0  0  1  0  0  0  0  0  0
  189.0160  172.5580  142.3780 C   0  0  2  0  0  3  0  0  0  0  0  0
  189.5230  172.2750  143.8070 C   0  0  1  0  0  3  0  0  0  0  0  0
  190.1880  171.6170  142.6110 C   0  0  0  0  0  2  0  0  0  0  0  0
  189.4800  173.8410  141.8420 N   0  0  0  0  0  0  0  0  0  0  0  0
  188.3230  174.4910  141.2340 C   0  0  1  0  0  3  0  0  0  0  0  0
  187.3060  174.8550  142.2980 C   0  0  0  0  0  2  0  0  0  0  0  0
  188.2130  175.9240  141.7350 C   0  0  2  0  0  3  0  0  0  0  0  0
  187.4490  176.7410  140.7160 C   0  0  0  0  0  1  0  0  0  0  0  0
  190.4040  173.5470  140.7510 C   0  0  0  0  0  2  0  0  0  0  0  0
  189.7250  173.6060  139.5330 O   0  0  0  0  0  0  0  0  0  0  0  0
  189.5240  171.4100  138.6510 C   0  0  0  0  0  1  0  0  0  0  0  0
  190.3670  172.6650  138.7290 C   0  0  0  0  0  2  0  0  0  0  0  0
  191.0320  175.1110  147.2940 C   0  0  0  0  0  2  0  0  0  0  0  0
  191.9090  176.3480  147.2850 C   0  0  0  0  0  2  0  0  0  0  0  0
  192.8030  176.3250  146.0630 C   0  0  1  0  0  3  0  0  0  0  0  0
  194.2300  176.6360  146.4730 C   0  0  2  0  0  3  0  0  0  0  0  0
  195.1590  175.7230  145.6980 C   0  0  0  0  0  2  0  0  0  0  0  0
  193.8240  175.2120  146.2050 C   0  0  2  0  0  3  0  0  0  0  0  0
  1  2  1  0  0  0  0
  1 27  1  1  0  0  0
  2  3  1  0  0  0  0
  3  8  2  0  0  0  0
  4  6  1  0  0  0  0
  5 11  1  0  0  0  0
  5  2  2  0  0  0  0
  6  7  1  0  0  0  0
  7  8  1  0  0  0  0
  9  4  1  0  0  0  0
  9 11  1  0  0  0  0
 10  4  2  0  0  0  0
 11  7  2  0  0  0  0
 12  1  1  0  0  0  0
 13 14  1  1  0  0  0
 13 12  1  0  0  0  0
 15 18  1  6  0  0  0
 15 17  1  0  0  0  0
 15 16  1  0  0  0  0
 16 13  1  6  0  0  0
 17 16  1  0  0  0  0
 19 21  1  0  0  0  0
 19 18  1  1  0  0  0
 19 20  1  0  0  0  0
 21 22  1  6  0  0  0
 21 20  1  0  0  0  0
 23 18  1  0  0  0  0
 24 23  1  0  0  0  0
 25 26  1  0  0  0  0
 26 24  1  0  0  0  0
 28 27  1  0  0  0  0
 29 32  1  0  0  0  0
 29 30  1  0  0  0  0
 29 28  1  1  0  0  0
 30 31  1  6  0  0  0
 32 31  1  6  0  0  0
 32 30  1  0  0  0  0
M  END
>  <MODEL>
5

>  <REMARK>
 VINA RESULT:      -6.3      3.680      6.607
  Name = 
  12 active torsions:
  status: ('A' for Active; 'I' for Inactive)
    1  A    between atoms: O_1  and  C_4
    2  A    between atoms: O_1  and  C_5
    3  A    between atoms: C_2  and  C_5
    4  A    between atoms: C_3  and  N_20
    5  A    between atoms: C_4  and  C_24
    6  A    between atoms: C_5  and  C_14
    7  A    between atoms: C_13  and  C_30
    8  A    between atoms: C_14  and  C_30
    9  A    between atoms: C_15  and  N_20
   10  A    between atoms: C_15  and  O_26
   11  A    between atoms: C_16  and  N_20
   12  A    between atoms: C_19  and  O_26
                            x       y       z     vdW  Elec       q    Type
                         _______ _______ _______ _____ _____    ______ ____

>  <TORSDO>
F 12

$$$$
=
 OpenBabel11052419223D

 32 37  0  0  1  0  0  0  0  0999 V2000
  189.8430  175.4140  145.8850 C   0  0  2  0  0  3  0  0  0  0  0  0
  189.6780  174.4790  144.7300 C   0  0  0  0  0  0  0  0  0  0  0  0
  189.9650  173.1070  144.9100 C   0  0  0  0  0  3  0  0  0  0  0  0
  188.7680  173.0050  140.6410 C   0  0  0  0  0  0  0  0  0  0  0  0
  189.2400  174.9530  143.4730 C   0  0  0  0  0  3  0  0  0  0  0  0
  189.1760  172.0250  141.4890 N   0  0  0  0  0  2  0  0  0  0  0  0
  189.3840  172.7020  142.6260 C   0  0  0  0  0  0  0  0  0  0  0  0
  189.8190  172.1960  143.8480 C   0  0  0  0  0  3  0  0  0  0  0  0
  188.7110  174.2480  141.1860 N   0  0  0  0  0  2  0  0  0  0  0  0
  188.3720  172.7110  139.0850 S   0  0  0  0  0  0  0  0  0  0  0  0
  189.1080  174.0230  142.4460 C   0  0  0  0  0  0  0  0  0  0  0  0
  191.0310  175.1300  146.5680 O   0  0  0  0  0  0  0  0  0  0  0  0
  192.0090  175.9390  145.9820 C   0  0  1  0  0  3  0  0  0  0  0  0
  191.4710  177.2100  145.7640 O   0  0  0  0  0  1  0  0  0  0  0  0
  194.5640  175.5970  146.2200 C   0  0  2  0  0  3  0  0  0  0  0  0
  193.2410  175.9990  146.9030 C   0  0  1  0  0  3  0  0  0  0  0  0
  194.2390  177.0600  146.4770 C   0  0  0  0  0  2  0  0  0  0  0  0
  194.4080  175.2730  144.7990 N   0  0  0  0  0  0  0  0  0  0  0  0
  194.9780  173.9430  144.6010 C   0  0  1  0  0  3  0  0  0  0  0  0
  194.2360  172.9230  145.4420 C   0  0  0  0  0  2  0  0  0  0  0  0
  193.9440  173.0270  143.9640 C   0  0  2  0  0  3  0  0  0  0  0  0
  194.6600  171.9120  143.2340 C   0  0  0  0  0  1  0  0  0  0  0  0
  195.2530  176.1960  144.0480 C   0  0  0  0  0  2  0  0  0  0  0  0
  196.5320  175.6530  143.9100 O   0  0  0  0  0  0  0  0  0  0  0  0
  196.3080  176.6420  141.7620 C   0  0  0  0  0  1  0  0  0  0  0  0
  197.1700  176.4920  142.9980 C   0  0  0  0  0  2  0  0  0  0  0  0
  188.6500  175.3140  146.8250 C   0  0  0  0  0  2  0  0  0  0  0  0
  187.9510  176.6550  146.9290 C   0  0  0  0  0  2  0  0  0  0  0  0
  186.9350  176.7840  145.8140 C   0  0  1  0  0  3  0  0  0  0  0  0
  186.2670  178.1450  145.8930 C   0  0  2  0  0  3  0  0  0  0  0  0
  186.1120  178.6820  144.4830 C   0  0  0  0  0  2  0  0  0  0  0  0
  187.3520  177.9030  144.8770 C   0  0  2  0  0  3  0  0  0  0  0  0
  1 12  1  0  0  0  0
  1 27  1  1  0  0  0
  2  3  1  0  0  0  0
  2  1  1  0  0  0  0
  4  9  1  0  0  0  0
  4  6  1  0  0  0  0
  5  2  2  0  0  0  0
  6  7  1  0  0  0  0
  7  8  1  0  0  0  0
  8  3  2  0  0  0  0
  9 11  1  0  0  0  0
 10  4  2  0  0  0  0
 11  7  2  0  0  0  0
 11  5  1  0  0  0  0
 13 14  1  1  0  0  0
 13 12  1  0  0  0  0
 15 18  1  6  0  0  0
 15 17  1  0  0  0  0
 15 16  1  0  0  0  0
 16 13  1  6  0  0  0
 17 16  1  0  0  0  0
 19 18  1  1  0  0  0
 19 20  1  0  0  0  0
 21 22  1  6  0  0  0
 21 19  1  0  0  0  0
 21 20  1  0  0  0  0
 23 18  1  0  0  0  0
 24 23  1  0  0  0  0
 25 26  1  0  0  0  0
 26 24  1  0  0  0  0
 27 28  1  0  0  0  0
 29 30  1  0  0  0  0
 29 28  1  1  0  0  0
 30 31  1  6  0  0  0
 32 31  1  6  0  0  0
 32 29  1  0  0  0  0
 32 30  1  0  0  0  0
M  END
>  <MODEL>
6

>  <REMARK>
 VINA RESULT:      -6.3      3.069      7.512
  Name = 
  12 active torsions:
  status: ('A' for Active; 'I' for Inactive)
    1  A    between atoms: O_1  and  C_4
    2  A    between atoms: O_1  and  C_5
    3  A    between atoms: C_2  and  C_5
    4  A    between atoms: C_3  and  N_20
    5  A    between atoms: C_4  and  C_24
    6  A    between atoms: C_5  and  C_14
    7  A    between atoms: C_13  and  C_30
    8  A    between atoms: C_14  and  C_30
    9  A    between atoms: C_15  and  N_20
   10  A    between atoms: C_15  and  O_26
   11  A    between atoms: C_16  and  N_20
   12  A    between atoms: C_19  and  O_26
                            x       y       z     vdW  Elec       q    Type
                         _______ _______ _______ _____ _____    ______ ____

>  <TORSDO>
F 12

$$$$
=
 OpenBabel11052419223D

 32 37  0  0  1  0  0  0  0  0999 V2000
  190.6810  174.5460  145.1800 C   0  0  2  0  0  3  0  0  0  0  0  0
  192.0480  175.0730  144.8800 C   0  0  0  0  0  0  0  0  0  0  0  0
  192.2740  176.4680  144.9350 C   0  0  0  0  0  3  0  0  0  0  0  0
  196.3590  175.1510  143.8180 C   0  0  0  0  0  0  0  0  0  0  0  0
  193.1040  174.1960  144.5480 C   0  0  0  0  0  3  0  0  0  0  0  0
  195.8380  176.3850  144.0470 N   0  0  0  0  0  2  0  0  0  0  0  0
  194.5610  176.1040  144.3390 C   0  0  0  0  0  0  0  0  0  0  0  0
  193.5460  177.0010  144.6610 C   0  0  0  0  0  3  0  0  0  0  0  0
  195.4810  174.1230  143.9530 N   0  0  0  0  0  2  0  0  0  0  0  0
  197.9240  174.9200  143.4160 S   0  0  0  0  0  0  0  0  0  0  0  0
  194.3480  174.7600  144.2840 C   0  0  0  0  0  0  0  0  0  0  0  0
  190.3610  174.7780  146.5230 O   0  0  0  0  0  0  0  0  0  0  0  0
  189.0770  175.3310  146.5170 C   0  0  1  0  0  3  0  0  0  0  0  0
  188.3800  174.8660  147.6360 O   0  0  0  0  0  1  0  0  0  0  0  0
  188.2670  177.5660  145.4950 C   0  0  2  0  0  3  0  0  0  0  0  0
  189.1830  176.8660  146.5180 C   0  0  1  0  0  3  0  0  0  0  0  0
  187.9010  177.5420  146.9700 C   0  0  0  0  0  2  0  0  0  0  0  0
  187.4260  176.6350  144.7360 N   0  0  0  0  0  0  0  0  0  0  0  0
  187.5720  176.9830  143.3250 C   0  0  1  0  0  3  0  0  0  0  0  0
  189.0380  177.0140  142.9420 C   0  0  0  0  0  2  0  0  0  0  0  0
  188.1940  175.8190  142.5690 C   0  0  2  0  0  3  0  0  0  0  0  0
  187.8040  175.9190  141.1100 C   0  0  0  0  0  1  0  0  0  0  0  0
  186.0380  176.9210  145.0860 C   0  0  0  0  0  2  0  0  0  0  0  0
  185.5390  177.9180  144.2470 O   0  0  0  0  0  0  0  0  0  0  0  0
  184.4530  177.9230  146.3590 C   0  0  0  0  0  1  0  0  0  0  0  0
  184.4430  178.4370  144.9350 C   0  0  0  0  0  2  0  0  0  0  0  0
  190.6020  173.0600  144.8610 C   0  0  0  0  0  2  0  0  0  0  0  0
  189.6210  172.8190  143.7300 C   0  0  0  0  0  2  0  0  0  0  0  0
  190.3590  172.2670  142.5290 C   0  0  1  0  0  3  0  0  0  0  0  0
  189.5760  172.5790  141.2670 C   0  0  2  0  0  3  0  0  0  0  0  0
  190.5570  172.9860  140.1850 C   0  0  0  0  0  2  0  0  0  0  0  0
  190.7780  173.4110  141.6240 C   0  0  2  0  0  3  0  0  0  0  0  0
  1 27  1  1  0  0  0
  1 12  1  0  0  0  0
  2  3  1  0  0  0  0
  2  1  1  0  0  0  0
  4  9  1  0  0  0  0
  4  6  1  0  0  0  0
  5  2  2  0  0  0  0
  6  7  1  0  0  0  0
  7  8  1  0  0  0  0
  8  3  2  0  0  0  0
  9 11  1  0  0  0  0
 10  4  2  0  0  0  0
 11  7  2  0  0  0  0
 11  5  1  0  0  0  0
 13 12  1  0  0  0  0
 13 14  1  1  0  0  0
 15 18  1  6  0  0  0
 15 16  1  0  0  0  0
 15 17  1  0  0  0  0
 16 13  1  6  0  0  0
 16 17  1  0  0  0  0
 18 23  1  0  0  0  0
 19 18  1  1  0  0  0
 20 19  1  0  0  0  0
 21 22  1  6  0  0  0
 21 20  1  0  0  0  0
 21 19  1  0  0  0  0
 24 26  1  0  0  0  0
 24 23  1  0  0  0  0
 26 25  1  0  0  0  0
 28 27  1  0  0  0  0
 29 28  1  1  0  0  0
 30 31  1  6  0  0  0
 30 32  1  0  0  0  0
 30 29  1  0  0  0  0
 32 31  1  6  0  0  0
 32 29  1  0  0  0  0
M  END
>  <MODEL>
7

>  <REMARK>
 VINA RESULT:      -6.2      1.837      3.164
  Name = 
  12 active torsions:
  status: ('A' for Active; 'I' for Inactive)
    1  A    between atoms: O_1  and  C_4
    2  A    between atoms: O_1  and  C_5
    3  A    between atoms: C_2  and  C_5
    4  A    between atoms: C_3  and  N_20
    5  A    between atoms: C_4  and  C_24
    6  A    between atoms: C_5  and  C_14
    7  A    between atoms: C_13  and  C_30
    8  A    between atoms: C_14  and  C_30
    9  A    between atoms: C_15  and  N_20
   10  A    between atoms: C_15  and  O_26
   11  A    between atoms: C_16  and  N_20
   12  A    between atoms: C_19  and  O_26
                            x       y       z     vdW  Elec       q    Type
                         _______ _______ _______ _____ _____    ______ ____

>  <TORSDO>
F 12

$$$$
=
 OpenBabel11052419223D

 32 37  0  0  1  0  0  0  0  0999 V2000
  189.6380  175.7100  142.6150 C   0  0  2  0  0  3  0  0  0  0  0  0
  189.8440  174.2340  142.4910 C   0  0  0  0  0  0  0  0  0  0  0  0
  189.5490  173.4040  143.5970 C   0  0  0  0  0  3  0  0  0  0  0  0
  190.8840  170.2910  140.7340 C   0  0  0  0  0  0  0  0  0  0  0  0
  190.3250  173.6700  141.2890 C   0  0  0  0  0  3  0  0  0  0  0  0
  190.4440  170.2100  142.0160 N   0  0  0  0  0  2  0  0  0  0  0  0
  190.2020  171.4930  142.3150 C   0  0  0  0  0  0  0  0  0  0  0  0
  189.7280  172.0110  143.5180 C   0  0  0  0  0  3  0  0  0  0  0  0
  190.9280  171.5480  140.2200 N   0  0  0  0  0  2  0  0  0  0  0  0
  191.3220  168.9760  139.8710 S   0  0  0  0  0  0  0  0  0  0  0  0
  190.4890  172.2890  141.2480 C   0  0  0  0  0  0  0  0  0  0  0  0
  188.9440  176.1940  141.4990 O   0  0  0  0  0  0  0  0  0  0  0  0
  187.9920  177.0860  142.0010 C   0  0  1  0  0  3  0  0  0  0  0  0
  187.5580  177.9130  140.9620 O   0  0  0  0  0  1  0  0  0  0  0  0
  186.4280  176.7480  144.0360 C   0  0  2  0  0  3  0  0  0  0  0  0
  186.8260  176.2940  142.6170 C   0  0  1  0  0  3  0  0  0  0  0  0
  185.5880  177.1460  142.8330 C   0  0  0  0  0  2  0  0  0  0  0  0
  187.2130  177.8870  144.5210 N   0  0  0  0  0  0  0  0  0  0  0  0
  187.6530  177.5550  145.8730 C   0  0  1  0  0  3  0  0  0  0  0  0
  188.1940  176.1400  145.9170 C   0  0  0  0  0  2  0  0  0  0  0  0
  189.1530  177.3060  145.8810 C   0  0  2  0  0  3  0  0  0  0  0  0
  189.6850  177.5580  147.2760 C   0  0  0  0  0  1  0  0  0  0  0  0
  186.2990  179.0180  144.6540 C   0  0  0  0  0  2  0  0  0  0  0  0
  185.8930  179.1380  145.9840 O   0  0  0  0  0  0  0  0  0  0  0  0
  184.0620  177.9240  146.8870 C   0  0  0  0  0  1  0  0  0  0  0  0
  184.5050  179.0170  145.9370 C   0  0  0  0  0  2  0  0  0  0  0  0
  190.9740  176.4230  142.7640 C   0  0  0  0  0  2  0  0  0  0  0  0
  191.8530  175.6860  143.7560 C   0  0  0  0  0  2  0  0  0  0  0  0
  192.5510  176.6850  144.6540 C   0  0  1  0  0  3  0  0  0  0  0  0
  192.7720  176.0670  146.0230 C   0  0  2  0  0  3  0  0  0  0  0  0
  194.1510  176.4670  146.5090 C   0  0  0  0  0  2  0  0  0  0  0  0
  193.9140  176.1470  145.0450 C   0  0  2  0  0  3  0  0  0  0  0  0
  1 27  1  6  0  0  0
  2  1  1  0  0  0  0
  2  3  1  0  0  0  0
  4  6  1  0  0  0  0
  5  2  2  0  0  0  0
  6  7  1  0  0  0  0
  7  8  1  0  0  0  0
  8  3  2  0  0  0  0
  9  4  1  0  0  0  0
  9 11  1  0  0  0  0
 10  4  2  0  0  0  0
 11  5  1  0  0  0  0
 11  7  2  0  0  0  0
 12 13  1  0  0  0  0
 12  1  1  0  0  0  0
 13 14  1  6  0  0  0
 15 18  1  6  0  0  0
 16 13  1  6  0  0  0
 16 17  1  0  0  0  0
 16 15  1  0  0  0  0
 17 15  1  0  0  0  0
 18 23  1  0  0  0  0
 19 18  1  6  0  0  0
 19 21  1  0  0  0  0
 19 20  1  0  0  0  0
 21 20  1  0  0  0  0
 21 22  1  1  0  0  0
 23 24  1  0  0  0  0
 26 24  1  0  0  0  0
 26 25  1  0  0  0  0
 27 28  1  0  0  0  0
 29 28  1  6  0  0  0
 29 32  1  0  0  0  0
 29 30  1  0  0  0  0
 30 31  1  1  0  0  0
 32 30  1  0  0  0  0
 32 31  1  1  0  0  0
M  END
>  <MODEL>
8

>  <REMARK>
 VINA RESULT:      -6.1      3.054      5.069
  Name = 
  12 active torsions:
  status: ('A' for Active; 'I' for Inactive)
    1  A    between atoms: O_1  and  C_4
    2  A    between atoms: O_1  and  C_5
    3  A    between atoms: C_2  and  C_5
    4  A    between atoms: C_3  and  N_20
    5  A    between atoms: C_4  and  C_24
    6  A    between atoms: C_5  and  C_14
    7  A    between atoms: C_13  and  C_30
    8  A    between atoms: C_14  and  C_30
    9  A    between atoms: C_15  and  N_20
   10  A    between atoms: C_15  and  O_26
   11  A    between atoms: C_16  and  N_20
   12  A    between atoms: C_19  and  O_26
                            x       y       z     vdW  Elec       q    Type
                         _______ _______ _______ _____ _____    ______ ____

>  <TORSDO>
F 12

$$$$
=
 OpenBabel11052419223D

 32 37  0  0  1  0  0  0  0  0999 V2000
  190.1590  175.7460  145.9720 C   0  0  2  0  0  3  0  0  0  0  0  0
  188.7730  176.2320  145.6930 C   0  0  0  0  0  0  0  0  0  0  0  0
  187.8540  176.3380  146.7610 C   0  0  0  0  0  3  0  0  0  0  0  0
  185.2410  177.7410  143.4640 C   0  0  0  0  0  0  0  0  0  0  0  0
  188.3800  176.5830  144.3820 C   0  0  0  0  0  3  0  0  0  0  0  0
  185.0120  177.5840  144.7940 N   0  0  0  0  0  2  0  0  0  0  0  0
  186.1940  177.1310  145.2330 C   0  0  0  0  0  0  0  0  0  0  0  0
  186.5410  176.7930  146.5390 C   0  0  0  0  0  3  0  0  0  0  0  0
  186.4940  177.4130  143.0540 N   0  0  0  0  0  2  0  0  0  0  0  0
  184.0980  178.2880  142.4350 S   0  0  0  0  0  0  0  0  0  0  0  0
  187.0750  177.0300  144.2000 C   0  0  0  0  0  0  0  0  0  0  0  0
  191.0330  176.8330  146.0980 O   0  0  0  0  0  0  0  0  0  0  0  0
  192.2340  176.4250  145.5090 C   0  0  1  0  0  3  0  0  0  0  0  0
  192.5690  177.3290  144.4970 O   0  0  0  0  0  1  0  0  0  0  0  0
  194.6150  175.6270  146.1370 C   0  0  2  0  0  3  0  0  0  0  0  0
  193.3300  176.3520  146.5860 C   0  0  1  0  0  3  0  0  0  0  0  0
  194.5710  177.1450  146.2130 C   0  0  0  0  0  2  0  0  0  0  0  0
  194.5680  175.1770  144.7420 N   0  0  0  0  0  0  0  0  0  0  0  0
  194.8940  173.7530  144.7440 C   0  0  1  0  0  3  0  0  0  0  0  0
  193.8140  172.9680  145.4610 C   0  0  0  0  0  2  0  0  0  0  0  0
  193.8490  172.9830  143.9510 C   0  0  2  0  0  3  0  0  0  0  0  0
  194.4640  171.6930  143.4530 C   0  0  0  0  0  1  0  0  0  0  0  0
  195.6560  175.8450  144.0340 C   0  0  0  0  0  2  0  0  0  0  0  0
  195.2160  176.2510  142.7740 O   0  0  0  0  0  0  0  0  0  0  0  0
  197.5600  175.8860  142.6800 C   0  0  0  0  0  1  0  0  0  0  0  0
  196.3770  176.6350  142.1050 C   0  0  0  0  0  2  0  0  0  0  0  0
  190.6280  174.8100  144.8660 C   0  0  0  0  0  2  0  0  0  0  0  0
  190.0550  173.4220  145.0790 C   0  0  0  0  0  2  0  0  0  0  0  0
  190.2910  172.5830  143.8410 C   0  0  1  0  0  3  0  0  0  0  0  0
  188.9590  172.2500  143.1940 C   0  0  2  0  0  3  0  0  0  0  0  0
  189.1170  172.3680  141.6910 C   0  0  0  0  0  2  0  0  0  0  0  0
  189.8180  173.3440  142.6170 C   0  0  2  0  0  3  0  0  0  0  0  0
  1 27  1  6  0  0  0
  1 12  1  0  0  0  0
  2  1  1  0  0  0  0
  2  3  1  0  0  0  0
  4  6  1  0  0  0  0
  5  2  2  0  0  0  0
  6  7  1  0  0  0  0
  7  8  1  0  0  0  0
  8  3  2  0  0  0  0
  9  4  1  0  0  0  0
  9 11  1  0  0  0  0
 10  4  2  0  0  0  0
 11  5  1  0  0  0  0
 11  7  2  0  0  0  0
 13 14  1  6  0  0  0
 13 12  1  0  0  0  0
 15 18  1  6  0  0  0
 15 17  1  0  0  0  0
 15 16  1  0  0  0  0
 16 13  1  6  0  0  0
 17 16  1  0  0  0  0
 19 18  1  6  0  0  0
 19 20  1  0  0  0  0
 21 22  1  1  0  0  0
 21 19  1  0  0  0  0
 21 20  1  0  0  0  0
 23 18  1  0  0  0  0
 24 23  1  0  0  0  0
 26 25  1  0  0  0  0
 26 24  1  0  0  0  0
 27 28  1  0  0  0  0
 29 28  1  1  0  0  0
 30 31  1  6  0  0  0
 30 29  1  0  0  0  0
 32 31  1  6  0  0  0
 32 30  1  0  0  0  0
 32 29  1  0  0  0  0
M  END
>  <MODEL>
9

>  <REMARK>
 VINA RESULT:      -6.0      3.100      7.767
  Name = 
  12 active torsions:
  status: ('A' for Active; 'I' for Inactive)
    1  A    between atoms: O_1  and  C_4
    2  A    between atoms: O_1  and  C_5
    3  A    between atoms: C_2  and  C_5
    4  A    between atoms: C_3  and  N_20
    5  A    between atoms: C_4  and  C_24
    6  A    between atoms: C_5  and  C_14
    7  A    between atoms: C_13  and  C_30
    8  A    between atoms: C_14  and  C_30
    9  A    between atoms: C_15  and  N_20
   10  A    between atoms: C_15  and  O_26
   11  A    between atoms: C_16  and  N_20
   12  A    between atoms: C_19  and  O_26
                            x       y       z     vdW  Elec       q    Type
                         _______ _______ _______ _____ _____    ______ ____

>  <TORSDO>
F 12

$$$$
