=
 OpenBabel11052418323D

 27 30  0  0  1  0  0  0  0  0999 V2000
  189.4820  177.6420  144.3420 C   0  0  0  0  0  2  0  0  0  0  0  0
  188.0000  176.0280  145.6990 C   0  0  1  0  0  3  0  0  0  0  0  0
  189.5260  174.1910  145.2750 O   0  0  0  0  0  1  0  0  0  0  0  0
  193.5660  175.9790  144.4140 C   0  0  0  0  0  2  0  0  0  0  0  0
  192.9660  176.5860  143.1790 C   0  0  0  0  0  0  0  0  0  0  0  0
  190.3690  176.0130  146.6560 C   0  0  2  0  0  3  0  0  0  0  0  0
  188.2660  176.7180  144.3460 C   0  0  1  0  0  3  0  0  0  0  0  0
  190.7300  176.7900  144.2070 C   0  0  1  0  0  3  0  0  0  0  0  0
  189.1670  175.1700  146.2050 C   0  0  1  0  0  3  0  0  0  0  0  0
  192.4720  175.3930  145.3110 C   0  0  0  0  0  2  0  0  0  0  0  0
  193.5010  176.4240  142.0960 O   0  0  0  0  0  0  0  0  0  0  0  0
  191.7540  177.4630  143.2980 C   0  0  0  0  0  2  0  0  0  0  0  0
  191.3720  176.4320  145.5570 C   0  0  2  0  0  3  0  0  0  0  0  0
  185.0190  177.3310  142.4420 C   0  0  0  0  0  3  0  0  0  0  0  0
  187.0410  177.3800  143.7890 C   0  0  0  0  0  0  0  0  0  0  0  0
  186.8270  178.7390  144.0460 C   0  0  0  0  0  3  0  0  0  0  0  0
  185.7120  179.3910  143.5100 C   0  0  0  0  0  3  0  0  0  0  0  0
  184.8090  178.6870  142.7090 C   0  0  0  0  0  3  0  0  0  0  0  0
  186.1340  176.6800  142.9780 C   0  0  0  0  0  3  0  0  0  0  0  0
  186.2260  177.1550  147.1060 C   0  0  0  0  0  0  0  0  0  0  0  0
  187.5930  176.9850  146.7230 N   0  0  0  0  0  2  0  0  0  0  0  0
  185.3280  176.4220  146.6100 O   0  0  0  0  0  0  0  0  0  0  0  0
  185.7620  179.5010  147.4850 N   0  0  0  0  0  2  0  0  0  0  0  0
  186.9470  179.1510  148.2770 C   0  0  0  0  0  2  0  0  0  0  0  0
  185.8650  178.1810  148.1290 C   0  0  2  0  0  3  0  0  0  0  0  0
  191.5120  176.4510  148.7120 O   0  0  0  0  0  1  0  0  0  0  0  0
  191.0460  175.4260  147.8880 C   0  0  0  0  0  2  0  0  0  0  0  0
  1  7  1  0  0  0  0
  2  9  1  0  0  0  0
  2 21  1  1  0  0  0
  4 10  1  0  0  0  0
  5 12  1  0  0  0  0
  5  4  1  0  0  0  0
  6 27  1  1  0  0  0
  7 15  1  1  0  0  0
  7  2  1  0  0  0  0
  8 12  1  6  0  0  0
  8  1  1  0  0  0  0
  8 13  1  0  0  0  0
  9  3  1  6  0  0  0
  9  6  1  0  0  0  0
 11  5  2  0  0  0  0
 13 10  1  6  0  0  0
 13  6  1  0  0  0  0
 14 18  2  0  0  0  0
 14 19  1  0  0  0  0
 15 16  1  0  0  0  0
 17 16  2  0  0  0  0
 18 17  1  0  0  0  0
 19 15  2  0  0  0  0
 21 20  1  0  0  0  0
 22 20  2  0  0  0  0
 23 25  1  0  0  0  0
 23 24  1  0  0  0  0
 25 20  1  6  0  0  0
 25 24  1  0  0  0  0
 27 26  1  0  0  0  0
M  END
>  <MODEL>
1

>  <REMARK>
 VINA RESULT:      -7.4      0.000      0.000
  Name = 
  4 active torsions:
  status: ('A' for Active; 'I' for Inactive)
    1  A    between atoms: C_2  and  N_6
    2  A    between atoms: C_5  and  C_17
    3  A    between atoms: C_9  and  C_15
    4  A    between atoms: C_12  and  C_14
                            x       y       z     vdW  Elec       q    Type
                         _______ _______ _______ _____ _____    ______ ____

>  <TORSDO>
F 4

$$$$
=
 OpenBabel11052418323D

 27 30  0  0  1  0  0  0  0  0999 V2000
  187.8180  177.8980  145.0070 C   0  0  0  0  0  2  0  0  0  0  0  0
  188.7310  175.9000  143.6580 C   0  0  1  0  0  3  0  0  0  0  0  0
  186.4910  175.2800  142.9650 O   0  0  0  0  0  1  0  0  0  0  0  0
  183.9440  178.9830  143.2010 C   0  0  0  0  0  2  0  0  0  0  0  0
  184.1630  178.9640  144.6860 C   0  0  0  0  0  0  0  0  0  0  0  0
  187.3460  177.4010  142.1220 C   0  0  2  0  0  3  0  0  0  0  0  0
  188.2850  176.4440  145.0310 C   0  0  1  0  0  3  0  0  0  0  0  0
  186.3970  177.9360  144.4770 C   0  0  1  0  0  3  0  0  0  0  0  0
  187.6460  175.9640  142.5760 C   0  0  1  0  0  3  0  0  0  0  0  0
  184.8700  177.9800  142.5080 C   0  0  0  0  0  2  0  0  0  0  0  0
  183.2100  179.0190  145.4450 O   0  0  0  0  0  0  0  0  0  0  0  0
  185.5610  178.9660  145.2300 C   0  0  0  0  0  2  0  0  0  0  0  0
  186.3190  178.1920  142.9620 C   0  0  2  0  0  3  0  0  0  0  0  0
  191.0430  176.9410  147.6170 C   0  0  0  0  0  3  0  0  0  0  0  0
  189.2960  176.1840  146.1070 C   0  0  0  0  0  0  0  0  0  0  0  0
  189.4920  174.8720  146.5510 C   0  0  0  0  0  3  0  0  0  0  0  0
  190.4530  174.5940  147.5290 C   0  0  0  0  0  3  0  0  0  0  0  0
  191.2280  175.6290  148.0610 C   0  0  0  0  0  3  0  0  0  0  0  0
  190.0810  177.2180  146.6410 C   0  0  0  0  0  3  0  0  0  0  0  0
  191.2240  175.8990  143.2290 C   0  0  0  0  0  0  0  0  0  0  0  0
  189.9520  176.5490  143.1910 N   0  0  0  0  0  2  0  0  0  0  0  0
  191.3160  174.7000  143.6100 O   0  0  0  0  0  0  0  0  0  0  0  0
  193.2330  175.7620  141.8860 N   0  0  0  0  0  2  0  0  0  0  0  0
  193.6460  175.9670  143.2800 C   0  0  0  0  0  2  0  0  0  0  0  0
  192.4450  176.6290  142.7770 C   0  0  2  0  0  3  0  0  0  0  0  0
  187.4190  176.2720  140.0130 O   0  0  0  0  0  1  0  0  0  0  0  0
  187.0780  177.4790  140.6240 C   0  0  0  0  0  2  0  0  0  0  0  0
  1  7  1  0  0  0  0
  2 21  1  6  0  0  0
  2  7  1  0  0  0  0
  4  5  1  0  0  0  0
  5 12  1  0  0  0  0
  5 11  2  0  0  0  0
  6 27  1  6  0  0  0
  6  9  1  0  0  0  0
  6 13  1  0  0  0  0
  7 15  1  1  0  0  0
  8  1  1  1  0  0  0
  8 12  1  0  0  0  0
  9  3  1  1  0  0  0
  9  2  1  0  0  0  0
 10  4  1  0  0  0  0
 13 10  1  6  0  0  0
 13  8  1  0  0  0  0
 14 18  1  0  0  0  0
 15 16  2  0  0  0  0
 15 19  1  0  0  0  0
 16 17  1  0  0  0  0
 17 18  2  0  0  0  0
 19 14  2  0  0  0  0
 20 22  2  0  0  0  0
 21 20  1  0  0  0  0
 23 25  1  0  0  0  0
 23 24  1  0  0  0  0
 25 20  1  1  0  0  0
 25 24  1  0  0  0  0
 26 27  1  0  0  0  0
M  END
>  <MODEL>
2

>  <REMARK>
 VINA RESULT:      -7.0      2.608      7.093
  Name = 
  4 active torsions:
  status: ('A' for Active; 'I' for Inactive)
    1  A    between atoms: C_2  and  N_6
    2  A    between atoms: C_5  and  C_17
    3  A    between atoms: C_9  and  C_15
    4  A    between atoms: C_12  and  C_14
                            x       y       z     vdW  Elec       q    Type
                         _______ _______ _______ _____ _____    ______ ____

>  <TORSDO>
F 4

$$$$
=
 OpenBabel11052418323D

 27 30  0  0  1  0  0  0  0  0999 V2000
  188.2600  176.1340  145.6370 C   0  0  0  0  0  2  0  0  0  0  0  0
  188.4680  177.7750  143.6610 C   0  0  1  0  0  3  0  0  0  0  0  0
  190.7320  178.3500  144.3110 O   0  0  0  0  0  1  0  0  0  0  0  0
  192.3580  174.8950  146.6930 C   0  0  0  0  0  2  0  0  0  0  0  0
  191.3160  175.2000  147.7310 C   0  0  0  0  0  0  0  0  0  0  0  0
  190.3630  176.0650  143.5480 C   0  0  2  0  0  3  0  0  0  0  0  0
  187.9840  177.5390  145.1060 C   0  0  1  0  0  3  0  0  0  0  0  0
  189.7150  176.0580  146.0600 C   0  0  1  0  0  3  0  0  0  0  0  0
  189.9710  177.5480  143.4570 C   0  0  1  0  0  3  0  0  0  0  0  0
  192.0930  175.6940  145.4140 C   0  0  0  0  0  2  0  0  0  0  0  0
  191.6400  175.3440  148.8980 O   0  0  0  0  0  0  0  0  0  0  0  0
  189.8690  175.2410  147.3390 C   0  0  0  0  0  2  0  0  0  0  0  0
  190.6400  175.5080  144.9620 C   0  0  2  0  0  3  0  0  0  0  0  0
  184.6940  179.4500  144.8600 C   0  0  0  0  0  3  0  0  0  0  0  0
  186.5600  177.9620  145.3110 C   0  0  0  0  0  0  0  0  0  0  0  0
  185.7770  177.2770  146.2470 C   0  0  0  0  0  3  0  0  0  0  0  0
  184.4570  177.6710  146.4850 C   0  0  0  0  0  3  0  0  0  0  0  0
  183.9160  178.7580  145.7910 C   0  0  0  0  0  3  0  0  0  0  0  0
  186.0140  179.0550  144.6220 C   0  0  0  0  0  3  0  0  0  0  0  0
  187.4430  177.4480  141.3710 C   0  0  0  0  0  0  0  0  0  0  0  0
  187.7010  176.9890  142.7000 N   0  0  0  0  0  2  0  0  0  0  0  0
  187.9380  178.5340  140.9650 O   0  0  0  0  0  0  0  0  0  0  0  0
  187.4970  175.9010  139.5090 N   0  0  0  0  0  2  0  0  0  0  0  0
  186.7600  177.0940  139.0730 C   0  0  0  0  0  2  0  0  0  0  0  0
  186.6160  176.6180  140.4470 C   0  0  2  0  0  3  0  0  0  0  0  0
  191.0500  174.5920  141.7920 O   0  0  0  0  0  1  0  0  0  0  0  0
  191.4470  175.7010  142.5410 C   0  0  0  0  0  2  0  0  0  0  0  0
  2 21  1  6  0  0  0
  2  7  1  0  0  0  0
  4  5  1  0  0  0  0
  5 11  2  0  0  0  0
  6 27  1  6  0  0  0
  6 13  1  0  0  0  0
  7 15  1  6  0  0  0
  7  1  1  0  0  0  0
  8  1  1  6  0  0  0
  8 12  1  0  0  0  0
  9  6  1  0  0  0  0
  9  2  1  0  0  0  0
  9  3  1  1  0  0  0
 10  4  1  0  0  0  0
 12  5  1  0  0  0  0
 13 10  1  1  0  0  0
 13  8  1  0  0  0  0
 14 18  1  0  0  0  0
 15 16  2  0  0  0  0
 16 17  1  0  0  0  0
 18 17  2  0  0  0  0
 19 14  2  0  0  0  0
 19 15  1  0  0  0  0
 20 21  1  0  0  0  0
 22 20  2  0  0  0  0
 23 25  1  0  0  0  0
 24 23  1  0  0  0  0
 24 25  1  0  0  0  0
 25 20  1  1  0  0  0
 26 27  1  0  0  0  0
M  END
>  <MODEL>
3

>  <REMARK>
 VINA RESULT:      -6.9      2.679      4.836
  Name = 
  4 active torsions:
  status: ('A' for Active; 'I' for Inactive)
    1  A    between atoms: C_2  and  N_6
    2  A    between atoms: C_5  and  C_17
    3  A    between atoms: C_9  and  C_15
    4  A    between atoms: C_12  and  C_14
                            x       y       z     vdW  Elec       q    Type
                         _______ _______ _______ _____ _____    ______ ____

>  <TORSDO>
F 4

$$$$
=
 OpenBabel11052418323D

 27 30  0  0  1  0  0  0  0  0999 V2000
  188.2500  175.2260  143.2150 C   0  0  0  0  0  2  0  0  0  0  0  0
  187.9300  177.7080  143.8310 C   0  0  1  0  0  3  0  0  0  0  0  0
  188.5810  178.3980  141.5990 O   0  0  0  0  0  1  0  0  0  0  0  0
  187.7780  174.9330  138.8410 C   0  0  0  0  0  2  0  0  0  0  0  0
  188.8340  174.1720  139.5890 C   0  0  0  0  0  0  0  0  0  0  0  0
  186.4980  177.1470  141.7900 C   0  0  2  0  0  3  0  0  0  0  0  0
  188.8570  176.4750  143.8500 C   0  0  1  0  0  3  0  0  0  0  0  0
  188.3670  175.3490  141.7080 C   0  0  1  0  0  3  0  0  0  0  0  0
  187.4860  178.1370  142.4270 C   0  0  1  0  0  3  0  0  0  0  0  0
  187.4280  176.2300  139.5750 C   0  0  0  0  0  2  0  0  0  0  0  0
  189.7450  173.6330  138.9830 O   0  0  0  0  0  0  0  0  0  0  0  0
  188.7150  174.0060  141.0760 C   0  0  0  0  0  2  0  0  0  0  0  0
  187.1110  175.9390  141.0460 C   0  0  2  0  0  3  0  0  0  0  0  0
  190.9130  176.7790  147.0470 C   0  0  0  0  0  3  0  0  0  0  0  0
  189.4280  176.2080  145.2110 C   0  0  0  0  0  0  0  0  0  0  0  0
  189.0480  175.0450  145.8900 C   0  0  0  0  0  3  0  0  0  0  0  0
  189.5910  174.7530  147.1450 C   0  0  0  0  0  3  0  0  0  0  0  0
  190.5240  175.6190  147.7230 C   0  0  0  0  0  3  0  0  0  0  0  0
  190.3690  177.0720  145.7930 C   0  0  0  0  0  3  0  0  0  0  0  0
  185.8720  178.5920  145.0050 C   0  0  0  0  0  0  0  0  0  0  0  0
  186.7690  177.5240  144.6960 N   0  0  0  0  0  2  0  0  0  0  0  0
  186.0230  179.7260  144.4750 O   0  0  0  0  0  0  0  0  0  0  0  0
  185.2100  178.3500  147.3220 N   0  0  0  0  0  2  0  0  0  0  0  0
  184.9000  177.0890  146.6390 C   0  0  0  0  0  2  0  0  0  0  0  0
  184.7250  178.3540  145.9310 C   0  0  2  0  0  3  0  0  0  0  0  0
  184.2760  178.0340  141.7640 O   0  0  0  0  0  1  0  0  0  0  0  0
  185.4190  177.8590  140.9840 C   0  0  0  0  0  2  0  0  0  0  0  0
  1  7  1  0  0  0  0
  2  7  1  0  0  0  0
  2 21  1  1  0  0  0
  4 10  1  0  0  0  0
  4  5  1  0  0  0  0
  5 12  1  0  0  0  0
  6 27  1  6  0  0  0
  6  9  1  0  0  0  0
  7 15  1  1  0  0  0
  8 12  1  6  0  0  0
  8  1  1  0  0  0  0
  9  3  1  6  0  0  0
  9  2  1  0  0  0  0
 11  5  2  0  0  0  0
 13 10  1  6  0  0  0
 13  8  1  0  0  0  0
 13  6  1  0  0  0  0
 14 18  1  0  0  0  0
 15 19  1  0  0  0  0
 15 16  2  0  0  0  0
 16 17  1  0  0  0  0
 17 18  2  0  0  0  0
 19 14  2  0  0  0  0
 21 20  1  0  0  0  0
 22 20  2  0  0  0  0
 24 23  1  0  0  0  0
 25 20  1  6  0  0  0
 25 24  1  0  0  0  0
 25 23  1  0  0  0  0
 27 26  1  0  0  0  0
M  END
>  <MODEL>
4

>  <REMARK>
 VINA RESULT:      -6.8      2.916      5.610
  Name = 
  4 active torsions:
  status: ('A' for Active; 'I' for Inactive)
    1  A    between atoms: C_2  and  N_6
    2  A    between atoms: C_5  and  C_17
    3  A    between atoms: C_9  and  C_15
    4  A    between atoms: C_12  and  C_14
                            x       y       z     vdW  Elec       q    Type
                         _______ _______ _______ _____ _____    ______ ____

>  <TORSDO>
F 4

$$$$
=
 OpenBabel11052418323D

 27 30  0  0  1  0  0  0  0  0999 V2000
  190.3210  176.0410  145.7720 C   0  0  0  0  0  2  0  0  0  0  0  0
  189.3360  176.4780  143.4300 C   0  0  1  0  0  3  0  0  0  0  0  0
  191.3460  177.6520  142.7490 O   0  0  0  0  0  1  0  0  0  0  0  0
  194.7080  176.1670  145.3460 C   0  0  0  0  0  2  0  0  0  0  0  0
  193.9950  176.7820  146.5160 C   0  0  0  0  0  0  0  0  0  0  0  0
  191.5750  175.2680  143.1980 C   0  0  2  0  0  3  0  0  0  0  0  0
  189.4300  176.9260  144.9030 C   0  0  1  0  0  3  0  0  0  0  0  0
  191.7680  176.4200  145.5150 C   0  0  1  0  0  3  0  0  0  0  0  0
  190.6870  176.4210  142.7050 C   0  0  1  0  0  3  0  0  0  0  0  0
  193.8080  176.1630  144.1080 C   0  0  0  0  0  2  0  0  0  0  0  0
  194.5880  177.5410  147.2630 O   0  0  0  0  0  0  0  0  0  0  0  0
  192.5760  176.3910  146.8080 C   0  0  0  0  0  2  0  0  0  0  0  0
  192.4440  175.5470  144.4450 C   0  0  2  0  0  3  0  0  0  0  0  0
  186.4380  176.7680  147.2620 C   0  0  0  0  0  3  0  0  0  0  0  0
  188.0820  177.1620  145.5180 C   0  0  0  0  0  0  0  0  0  0  0  0
  187.1570  177.9620  144.8380 C   0  0  0  0  0  3  0  0  0  0  0  0
  185.8810  178.1710  145.3690 C   0  0  0  0  0  3  0  0  0  0  0  0
  185.5210  177.5740  146.5810 C   0  0  0  0  0  3  0  0  0  0  0  0
  187.7140  176.5600  146.7310 C   0  0  0  0  0  3  0  0  0  0  0  0
  188.1110  174.7510  142.0470 C   0  0  0  0  0  0  0  0  0  0  0  0
  188.6350  175.2050  143.2960 N   0  0  0  0  0  2  0  0  0  0  0  0
  188.3050  175.4180  140.9940 O   0  0  0  0  0  0  0  0  0  0  0  0
  188.2950  172.3430  142.2130 N   0  0  0  0  0  2  0  0  0  0  0  0
  187.8380  172.6590  140.8540 C   0  0  0  0  0  2  0  0  0  0  0  0
  187.3650  173.4600  141.9800 C   0  0  2  0  0  3  0  0  0  0  0  0
  191.4790  174.1910  141.0640 O   0  0  0  0  0  1  0  0  0  0  0  0
  192.3560  174.6240  142.0590 C   0  0  0  0  0  2  0  0  0  0  0  0
  2 21  1  1  0  0  0
  2  7  1  0  0  0  0
  4  5  1  0  0  0  0
  5 12  1  0  0  0  0
  5 11  2  0  0  0  0
  6 27  1  6  0  0  0
  6 13  1  0  0  0  0
  7 15  1  1  0  0  0
  7  1  1  0  0  0  0
  8  1  1  1  0  0  0
  8 12  1  0  0  0  0
  9  3  1  1  0  0  0
  9  6  1  0  0  0  0
  9  2  1  0  0  0  0
 10  4  1  0  0  0  0
 13 10  1  6  0  0  0
 13  8  1  0  0  0  0
 15 19  2  0  0  0  0
 16 17  2  0  0  0  0
 16 15  1  0  0  0  0
 17 18  1  0  0  0  0
 18 14  2  0  0  0  0
 19 14  1  0  0  0  0
 20 21  1  0  0  0  0
 22 20  2  0  0  0  0
 24 25  1  0  0  0  0
 24 23  1  0  0  0  0
 25 20  1  6  0  0  0
 25 23  1  0  0  0  0
 26 27  1  0  0  0  0
M  END
>  <MODEL>
5

>  <REMARK>
 VINA RESULT:      -6.7      2.747      4.872
  Name = 
  4 active torsions:
  status: ('A' for Active; 'I' for Inactive)
    1  A    between atoms: C_2  and  N_6
    2  A    between atoms: C_5  and  C_17
    3  A    between atoms: C_9  and  C_15
    4  A    between atoms: C_12  and  C_14
                            x       y       z     vdW  Elec       q    Type
                         _______ _______ _______ _____ _____    ______ ____

>  <TORSDO>
F 4

$$$$
=
 OpenBabel11052418323D

 27 30  0  0  1  0  0  0  0  0999 V2000
  188.5490  176.6600  146.1450 C   0  0  0  0  0  2  0  0  0  0  0  0
  188.6940  176.9920  143.5930 C   0  0  1  0  0  3  0  0  0  0  0  0
  190.9180  177.9370  143.7920 O   0  0  0  0  0  1  0  0  0  0  0  0
  192.6920  176.3860  147.6270 C   0  0  0  0  0  2  0  0  0  0  0  0
  191.6250  177.1490  148.3570 C   0  0  0  0  0  0  0  0  0  0  0  0
  190.6760  175.5850  144.3810 C   0  0  2  0  0  3  0  0  0  0  0  0
  188.2070  177.5450  144.9480 C   0  0  1  0  0  3  0  0  0  0  0  0
  190.0000  176.8960  146.5160 C   0  0  1  0  0  3  0  0  0  0  0  0
  190.2090  176.7650  143.5160 C   0  0  1  0  0  3  0  0  0  0  0  0
  192.4020  176.3600  146.1240 C   0  0  0  0  0  2  0  0  0  0  0  0
  191.9270  177.9130  149.2590 O   0  0  0  0  0  0  0  0  0  0  0  0
  190.1820  176.9010  148.0310 C   0  0  0  0  0  2  0  0  0  0  0  0
  190.9650  175.8880  145.8690 C   0  0  2  0  0  3  0  0  0  0  0  0
  184.9020  179.1500  143.9270 C   0  0  0  0  0  3  0  0  0  0  0  0
  186.7610  177.9400  144.9200 C   0  0  0  0  0  0  0  0  0  0  0  0
  185.9210  177.5130  145.9540 C   0  0  0  0  0  3  0  0  0  0  0  0
  184.5750  177.8960  145.9720 C   0  0  0  0  0  3  0  0  0  0  0  0
  184.0670  178.7140  144.9590 C   0  0  0  0  0  3  0  0  0  0  0  0
  186.2460  178.7670  143.9080 C   0  0  0  0  0  3  0  0  0  0  0  0
  188.2380  175.0860  141.9930 C   0  0  0  0  0  0  0  0  0  0  0  0
  187.9800  175.7750  143.2180 N   0  0  0  0  0  2  0  0  0  0  0  0
  189.1540  175.4800  141.2210 O   0  0  0  0  0  0  0  0  0  0  0  0
  188.1480  172.6710  142.1290 N   0  0  0  0  0  2  0  0  0  0  0  0
  188.1880  173.0330  140.7070 C   0  0  0  0  0  2  0  0  0  0  0  0
  187.4450  173.8710  141.6440 C   0  0  2  0  0  3  0  0  0  0  0  0
  191.2690  173.6270  143.1410 O   0  0  0  0  0  1  0  0  0  0  0  0
  191.7890  174.7910  143.7080 C   0  0  0  0  0  2  0  0  0  0  0  0
  2 21  1  1  0  0  0
  2  7  1  0  0  0  0
  4  5  1  0  0  0  0
  5 11  2  0  0  0  0
  6 27  1  6  0  0  0
  6 13  1  0  0  0  0
  7 15  1  6  0  0  0
  7  1  1  0  0  0  0
  8  1  1  1  0  0  0
  8 12  1  0  0  0  0
  9  2  1  0  0  0  0
  9  3  1  1  0  0  0
  9  6  1  0  0  0  0
 10  4  1  0  0  0  0
 12  5  1  0  0  0  0
 13 10  1  6  0  0  0
 13  8  1  0  0  0  0
 14 18  1  0  0  0  0
 15 16  2  0  0  0  0
 16 17  1  0  0  0  0
 18 17  2  0  0  0  0
 19 14  2  0  0  0  0
 19 15  1  0  0  0  0
 20 21  1  0  0  0  0
 22 20  2  0  0  0  0
 24 25  1  0  0  0  0
 24 23  1  0  0  0  0
 25 20  1  1  0  0  0
 25 23  1  0  0  0  0
 26 27  1  0  0  0  0
M  END
>  <MODEL>
6

>  <REMARK>
 VINA RESULT:      -6.3      2.522      4.715
  Name = 
  4 active torsions:
  status: ('A' for Active; 'I' for Inactive)
    1  A    between atoms: C_2  and  N_6
    2  A    between atoms: C_5  and  C_17
    3  A    between atoms: C_9  and  C_15
    4  A    between atoms: C_12  and  C_14
                            x       y       z     vdW  Elec       q    Type
                         _______ _______ _______ _____ _____    ______ ____

>  <TORSDO>
F 4

$$$$
=
 OpenBabel11052418323D

 27 30  0  0  1  0  0  0  0  0999 V2000
  192.2680  175.7090  142.6200 C   0  0  0  0  0  2  0  0  0  0  0  0
  191.7100  174.5610  144.8590 C   0  0  1  0  0  3  0  0  0  0  0  0
  194.0140  173.8530  145.1280 O   0  0  0  0  0  1  0  0  0  0  0  0
  196.5690  176.6770  142.7280 C   0  0  0  0  0  2  0  0  0  0  0  0
  195.8950  176.1430  141.4970 C   0  0  0  0  0  0  0  0  0  0  0  0
  193.5920  176.2520  145.2170 C   0  0  2  0  0  3  0  0  0  0  0  0
  191.7340  174.4620  143.3200 C   0  0  1  0  0  3  0  0  0  0  0  0
  193.7830  175.6870  142.6920 C   0  0  1  0  0  3  0  0  0  0  0  0
  193.0820  174.8290  145.4910 C   0  0  1  0  0  3  0  0  0  0  0  0
  195.8510  176.1890  143.9890 C   0  0  0  0  0  2  0  0  0  0  0  0
  196.5620  175.7370  140.5610 O   0  0  0  0  0  0  0  0  0  0  0  0
  194.3990  176.1920  141.3910 C   0  0  0  0  0  2  0  0  0  0  0  0
  194.3470  176.4730  143.8880 C   0  0  2  0  0  3  0  0  0  0  0  0
  188.4070  174.4010  141.4570 C   0  0  0  0  0  3  0  0  0  0  0  0
  190.4220  174.0030  142.7540 C   0  0  0  0  0  0  0  0  0  0  0  0
  189.9470  172.7310  143.0890 C   0  0  0  0  0  3  0  0  0  0  0  0
  188.7110  172.2910  142.6050 C   0  0  0  0  0  3  0  0  0  0  0  0
  187.9410  173.1260  141.7890 C   0  0  0  0  0  3  0  0  0  0  0  0
  189.6430  174.8400  141.9400 C   0  0  0  0  0  3  0  0  0  0  0  0
  189.5770  175.1770  146.0700 C   0  0  0  0  0  0  0  0  0  0  0  0
  190.7380  175.5450  145.3220 N   0  0  0  0  0  2  0  0  0  0  0  0
  189.3950  173.9780  146.4150 O   0  0  0  0  0  0  0  0  0  0  0  0
  187.6230  176.4360  145.3940 N   0  0  0  0  0  2  0  0  0  0  0  0
  188.7130  177.3950  145.6140 C   0  0  0  0  0  2  0  0  0  0  0  0
  188.5950  176.2240  146.4800 C   0  0  2  0  0  3  0  0  0  0  0  0
  193.4170  177.0750  147.4570 O   0  0  0  0  0  1  0  0  0  0  0  0
  194.3210  176.8360  146.4210 C   0  0  0  0  0  2  0  0  0  0  0  0
  1  8  1  0  0  0  0
  1  7  1  0  0  0  0
  2 21  1  6  0  0  0
  2  9  1  0  0  0  0
  4 10  1  0  0  0  0
  5  4  1  0  0  0  0
  6  9  1  0  0  0  0
  6 27  1  1  0  0  0
  7 15  1  6  0  0  0
  7  2  1  0  0  0  0
  8 12  1  6  0  0  0
  8 13  1  0  0  0  0
  9  3  1  6  0  0  0
 11  5  2  0  0  0  0
 12  5  1  0  0  0  0
 13 10  1  1  0  0  0
 13  6  1  0  0  0  0
 14 18  2  0  0  0  0
 14 19  1  0  0  0  0
 15 16  1  0  0  0  0
 17 16  2  0  0  0  0
 18 17  1  0  0  0  0
 19 15  2  0  0  0  0
 20 22  2  0  0  0  0
 21 20  1  0  0  0  0
 23 24  1  0  0  0  0
 23 25  1  0  0  0  0
 24 25  1  0  0  0  0
 25 20  1  6  0  0  0
 27 26  1  0  0  0  0
M  END
>  <MODEL>
7

>  <REMARK>
 VINA RESULT:      -6.3      2.825      4.357
  Name = 
  4 active torsions:
  status: ('A' for Active; 'I' for Inactive)
    1  A    between atoms: C_2  and  N_6
    2  A    between atoms: C_5  and  C_17
    3  A    between atoms: C_9  and  C_15
    4  A    between atoms: C_12  and  C_14
                            x       y       z     vdW  Elec       q    Type
                         _______ _______ _______ _____ _____    ______ ____

>  <TORSDO>
F 4

$$$$
=
 OpenBabel11052418323D

 27 30  0  0  1  0  0  0  0  0999 V2000
  186.2890  177.3790  144.4400 C   0  0  0  0  0  2  0  0  0  0  0  0
  188.4910  176.6560  143.3120 C   0  0  1  0  0  3  0  0  0  0  0  0
  189.7790  178.0630  144.8100 O   0  0  0  0  0  1  0  0  0  0  0  0
  187.3190  178.6550  148.5330 C   0  0  0  0  0  2  0  0  0  0  0  0
  186.3260  179.3960  147.6850 C   0  0  0  0  0  0  0  0  0  0  0  0
  188.6200  176.1700  145.8170 C   0  0  2  0  0  3  0  0  0  0  0  0
  187.2680  177.5950  143.2880 C   0  0  1  0  0  3  0  0  0  0  0  0
  186.8460  178.0590  145.6760 C   0  0  1  0  0  3  0  0  0  0  0  0
  189.3340  176.7570  144.5900 C   0  0  1  0  0  3  0  0  0  0  0  0
  188.3560  177.9500  147.6550 C   0  0  0  0  0  2  0  0  0  0  0  0
  185.9500  180.5080  148.0140 O   0  0  0  0  0  0  0  0  0  0  0  0
  185.7350  178.7260  146.4790 C   0  0  0  0  0  2  0  0  0  0  0  0
  187.6590  177.1130  146.5760 C   0  0  2  0  0  3  0  0  0  0  0  0
  184.6060  177.8990  140.5750 C   0  0  0  0  0  3  0  0  0  0  0  0
  186.5870  177.6160  141.9520 C   0  0  0  0  0  0  0  0  0  0  0  0
  187.3210  177.2730  140.8110 C   0  0  0  0  0  3  0  0  0  0  0  0
  186.7030  177.2490  139.5560 C   0  0  0  0  0  3  0  0  0  0  0  0
  185.3460  177.5620  139.4390 C   0  0  0  0  0  3  0  0  0  0  0  0
  185.2230  177.9240  141.8290 C   0  0  0  0  0  3  0  0  0  0  0  0
  188.9240  174.3840  142.2880 C   0  0  0  0  0  0  0  0  0  0  0  0
  188.1120  175.2690  143.0630 N   0  0  0  0  0  2  0  0  0  0  0  0
  190.0430  174.7650  141.8500 O   0  0  0  0  0  0  0  0  0  0  0  0
  189.0290  172.0880  143.0500 N   0  0  0  0  0  2  0  0  0  0  0  0
  189.5980  172.1320  141.6970 C   0  0  0  0  0  2  0  0  0  0  0  0
  188.4630  172.9880  142.0310 C   0  0  2  0  0  3  0  0  0  0  0  0
  188.8880  174.5230  147.5320 O   0  0  0  0  0  1  0  0  0  0  0  0
  189.5850  175.4350  146.7390 C   0  0  0  0  0  2  0  0  0  0  0  0
  2 21  1  1  0  0  0
  2  9  1  0  0  0  0
  5 11  2  0  0  0  0
  5  4  1  0  0  0  0
  6 13  1  0  0  0  0
  6 27  1  1  0  0  0
  7 15  1  6  0  0  0
  7  2  1  0  0  0  0
  7  1  1  0  0  0  0
  8  1  1  6  0  0  0
  8 12  1  0  0  0  0
  8 13  1  0  0  0  0
  9  3  1  1  0  0  0
  9  6  1  0  0  0  0
 10  4  1  0  0  0  0
 12  5  1  0  0  0  0
 13 10  1  1  0  0  0
 14 19  1  0  0  0  0
 16 15  1  0  0  0  0
 17 16  2  0  0  0  0
 18 17  1  0  0  0  0
 18 14  2  0  0  0  0
 19 15  2  0  0  0  0
 20 21  1  0  0  0  0
 22 20  2  0  0  0  0
 24 25  1  0  0  0  0
 24 23  1  0  0  0  0
 25 20  1  1  0  0  0
 25 23  1  0  0  0  0
 27 26  1  0  0  0  0
M  END
>  <MODEL>
8

>  <REMARK>
 VINA RESULT:      -6.2      2.844      5.545
  Name = 
  4 active torsions:
  status: ('A' for Active; 'I' for Inactive)
    1  A    between atoms: C_2  and  N_6
    2  A    between atoms: C_5  and  C_17
    3  A    between atoms: C_9  and  C_15
    4  A    between atoms: C_12  and  C_14
                            x       y       z     vdW  Elec       q    Type
                         _______ _______ _______ _____ _____    ______ ____

>  <TORSDO>
F 4

$$$$
=
 OpenBabel11052418323D

 27 30  0  0  1  0  0  0  0  0999 V2000
  191.5800  175.2310  142.7370 C   0  0  0  0  0  2  0  0  0  0  0  0
  189.0830  175.0450  143.3470 C   0  0  1  0  0  3  0  0  0  0  0  0
  189.6340  174.3270  145.5970 O   0  0  0  0  0  1  0  0  0  0  0  0
  193.7660  175.8580  146.5140 C   0  0  0  0  0  2  0  0  0  0  0  0
  194.2760  174.9530  145.4300 C   0  0  0  0  0  0  0  0  0  0  0  0
  190.2470  176.6090  144.9990 C   0  0  2  0  0  3  0  0  0  0  0  0
  190.3140  174.3770  142.7030 C   0  0  1  0  0  3  0  0  0  0  0  0
  192.1900  175.1290  144.1220 C   0  0  1  0  0  3  0  0  0  0  0  0
  189.2770  175.4310  144.8190 C   0  0  1  0  0  3  0  0  0  0  0  0
  192.2370  175.9300  146.4810 C   0  0  0  0  0  2  0  0  0  0  0  0
  195.1910  174.1800  145.6590 O   0  0  0  0  0  0  0  0  0  0  0  0
  193.7120  175.0650  144.0440 C   0  0  0  0  0  2  0  0  0  0  0  0
  191.7520  176.2620  145.0650 C   0  0  2  0  0  3  0  0  0  0  0  0
  188.5230  172.7990  139.7290 C   0  0  0  0  0  3  0  0  0  0  0  0
  190.0230  173.8350  141.3350 C   0  0  0  0  0  0  0  0  0  0  0  0
  191.0540  173.7870  140.3910 C   0  0  0  0  0  3  0  0  0  0  0  0
  190.8210  173.2550  139.1180 C   0  0  0  0  0  3  0  0  0  0  0  0
  189.5550  172.7610  138.7880 C   0  0  0  0  0  3  0  0  0  0  0  0
  188.7560  173.3320  141.0000 C   0  0  0  0  0  3  0  0  0  0  0  0
  187.2470  176.4310  142.2930 C   0  0  0  0  0  0  0  0  0  0  0  0
  188.6290  176.1980  142.5760 N   0  0  0  0  0  2  0  0  0  0  0  0
  186.3620  175.6690  142.7690 O   0  0  0  0  0  0  0  0  0  0  0  0
  186.5760  178.7560  142.3390 N   0  0  0  0  0  2  0  0  0  0  0  0
  185.4690  177.9870  141.7570 C   0  0  0  0  0  2  0  0  0  0  0  0
  186.8470  177.6040  141.4630 C   0  0  2  0  0  3  0  0  0  0  0  0
  188.4380  177.3880  146.3560 O   0  0  0  0  0  1  0  0  0  0  0  0
  189.8020  177.5470  146.1140 C   0  0  0  0  0  2  0  0  0  0  0  0
  2 21  1  6  0  0  0
  2  9  1  0  0  0  0
  5 11  2  0  0  0  0
  5  4  1  0  0  0  0
  6 13  1  0  0  0  0
  6 27  1  1  0  0  0
  7 15  1  6  0  0  0
  7  1  1  0  0  0  0
  7  2  1  0  0  0  0
  8  1  1  6  0  0  0
  8 13  1  0  0  0  0
  9  6  1  0  0  0  0
  9  3  1  1  0  0  0
 10  4  1  0  0  0  0
 12  8  1  0  0  0  0
 12  5  1  0  0  0  0
 13 10  1  1  0  0  0
 14 19  1  0  0  0  0
 16 15  1  0  0  0  0
 17 16  2  0  0  0  0
 18 17  1  0  0  0  0
 18 14  2  0  0  0  0
 19 15  2  0  0  0  0
 20 21  1  0  0  0  0
 20 22  2  0  0  0  0
 24 23  1  0  0  0  0
 25 24  1  0  0  0  0
 25 20  1  1  0  0  0
 25 23  1  0  0  0  0
 27 26  1  0  0  0  0
M  END
>  <MODEL>
9

>  <REMARK>
 VINA RESULT:      -6.2      3.314      4.697
  Name = 
  4 active torsions:
  status: ('A' for Active; 'I' for Inactive)
    1  A    between atoms: C_2  and  N_6
    2  A    between atoms: C_5  and  C_17
    3  A    between atoms: C_9  and  C_15
    4  A    between atoms: C_12  and  C_14
                            x       y       z     vdW  Elec       q    Type
                         _______ _______ _______ _____ _____    ______ ____

>  <TORSDO>
F 4

$$$$
