=
 OpenBabel11052420203D

 34 36  0  0  1  0  0  0  0  0999 V2000
  191.9970  175.3600  142.0510 C   0  0  0  0  0  2  0  0  0  0  0  0
  190.0710  176.7540  142.8590 C   0  0  0  0  0  0  0  0  0  0  0  0
  186.3920  175.7710  143.1840 C   0  0  0  0  0  2  0  0  0  0  0  0
  188.4310  174.4380  142.6550 C   0  0  0  0  0  3  0  0  0  0  0  0
  190.8080  177.7790  142.8650 O   0  0  0  0  0  0  0  0  0  0  0  0
  189.7560  174.3030  142.5310 C   0  0  0  0  0  0  0  0  0  0  0  0
  190.6040  175.4720  142.4760 N   0  0  0  0  0  0  0  0  0  0  0  0
  185.7460  177.1510  143.0310 C   0  0  0  0  0  2  0  0  0  0  0  0
  186.5910  178.2550  143.6790 C   0  0  2  0  0  3  0  0  0  0  0  0
  187.8010  175.7970  142.6070 C   0  0  2  0  0  3  0  0  0  0  0  0
  188.0370  178.2210  143.1620 C   0  0  0  0  0  2  0  0  0  0  0  0
  188.6520  176.8320  143.3490 C   0  0  2  0  0  3  0  0  0  0  0  0
  189.2550  171.9020  142.7980 C   0  0  0  0  0  1  0  0  0  0  0  0
  190.3410  172.9280  142.5410 C   0  0  0  0  0  2  0  0  0  0  0  0
  186.5290  178.1600  145.2010 C   0  0  0  0  0  2  0  0  0  0  0  0
  184.2850  179.2240  145.4260 O   0  0  0  0  0  0  0  0  0  0  0  0
  184.6850  177.1540  146.3260 O   0  0  0  0  0  1  0  0  0  0  0  0
  185.1160  178.1410  145.6750 C   0  0  0  0  0  0  0  0  0  0  0  0
  192.8960  175.0470  143.2400 C   0  0  0  0  0  2  0  0  0  0  0  0
  196.2010  173.5240  144.0850 O   0  0  0  0  0  0  0  0  0  0  0  0
  194.2910  176.9520  145.9180 C   0  0  0  0  0  2  0  0  0  0  0  0
  193.9270  176.1480  143.4650 C   0  0  2  0  0  3  0  0  0  0  0  0
  195.5380  174.7510  146.0020 C   0  0  0  0  0  2  0  0  0  0  0  0
  195.2710  175.5890  143.5910 N   0  0  0  0  0  2  0  0  0  0  0  0
  194.3210  175.5350  146.4890 C   0  0  2  0  0  3  0  0  0  0  0  0
  193.5280  177.1000  144.5990 C   0  0  0  0  0  2  0  0  0  0  0  0
  195.6380  174.5620  144.5180 C   0  0  0  0  0  0  0  0  0  0  0  0
  192.9920  174.7860  146.3830 C   0  0  0  0  0  2  0  0  0  0  0  0
  191.9160  175.4170  147.2570 C   0  0  0  0  0  2  0  0  0  0  0  0
  190.6530  175.7100  146.4520 C   0  0  2  0  0  3  0  0  0  0  0  0
  190.2190  177.1540  146.6430 C   0  0  0  0  0  1  0  0  0  0  0  0
  189.5220  173.6260  146.0100 O   0  0  0  0  0  1  0  0  0  0  0  0
  189.5160  174.7620  146.8230 C   0  0  0  0  0  3  0  0  0  0  0  0
  188.2890  175.4160  146.7090 O   0  0  0  0  0  1  0  0  0  0  0  0
  1  7  1  0  0  0  0
  1 19  1  0  0  0  0
  2  5  2  0  0  0  0
  2 12  1  0  0  0  0
  6 14  1  0  0  0  0
  6  4  2  0  0  0  0
  7  6  1  0  0  0  0
  7  2  1  0  0  0  0
  8  3  1  0  0  0  0
  8  9  1  0  0  0  0
  9 15  1  1  0  0  0
 10  4  1  1  0  0  0
 10  3  1  0  0  0  0
 10 12  1  0  0  0  0
 11  9  1  0  0  0  0
 12 11  1  6  0  0  0
 14 13  1  0  0  0  0
 15 18  1  0  0  0  0
 16 18  2  0  0  0  0
 18 17  1  0  0  0  0
 20 27  2  0  0  0  0
 21 25  1  0  0  0  0
 22 19  1  1  0  0  0
 22 24  1  0  0  0  0
 22 26  1  0  0  0  0
 23 25  1  0  0  0  0
 24 27  1  0  0  0  0
 25 28  1  6  0  0  0
 26 21  1  0  0  0  0
 27 23  1  0  0  0  0
 28 29  1  0  0  0  0
 30 31  1  1  0  0  0
 30 33  1  0  0  0  0
 30 29  1  0  0  0  0
 32 33  1  0  0  0  0
 34 33  1  0  0  0  0
M  END
>  <MODEL>
1

>  <REMARK>
 VINA RESULT:      -7.0      0.000      0.000
  Name = 
  10 active torsions:
  status: ('A' for Active; 'I' for Inactive)
    1  A    between atoms: C_7  and  C_15
    2  A    between atoms: C_7  and  C_29
    3  A    between atoms: C_8  and  C_17
    4  A    between atoms: C_10  and  C_17
    5  A    between atoms: C_10  and  N_20
    6  A    between atoms: C_19  and  C_22
    7  A    between atoms: C_24  and  C_25
    8  A    between atoms: C_25  and  C_27
    9  A    between atoms: C_26  and  C_28
   10  A    between atoms: C_26  and  C_29
                            x       y       z     vdW  Elec       q    Type
                         _______ _______ _______ _____ _____    ______ ____

>  <TORSDO>
F 10

$$$$
=
 OpenBabel11052420203D

 34 36  0  0  1  0  0  0  0  0999 V2000
  192.6640  177.3630  144.5380 C   0  0  0  0  0  2  0  0  0  0  0  0
  190.2490  177.8170  144.0220 C   0  0  0  0  0  0  0  0  0  0  0  0
  187.1420  176.4320  145.7640 C   0  0  0  0  0  2  0  0  0  0  0  0
  189.5670  176.2830  146.3190 C   0  0  0  0  0  3  0  0  0  0  0  0
  190.5830  178.4250  142.9690 O   0  0  0  0  0  0  0  0  0  0  0  0
  190.8470  176.6160  146.1240 C   0  0  0  0  0  0  0  0  0  0  0  0
  191.2510  177.2600  144.8940 N   0  0  0  0  0  0  0  0  0  0  0  0
  186.1440  176.5130  144.6050 C   0  0  0  0  0  2  0  0  0  0  0  0
  186.3840  177.7470  143.7270 C   0  0  2  0  0  3  0  0  0  0  0  0
  188.5640  176.4530  145.2200 C   0  0  2  0  0  3  0  0  0  0  0  0
  187.8430  177.8140  143.2530 C   0  0  0  0  0  2  0  0  0  0  0  0
  188.8070  177.7490  144.4400 C   0  0  2  0  0  3  0  0  0  0  0  0
  191.3510  175.2580  148.1210 C   0  0  0  0  0  1  0  0  0  0  0  0
  191.8250  176.3900  147.2300 C   0  0  0  0  0  2  0  0  0  0  0  0
  185.9630  179.0200  144.4560 C   0  0  0  0  0  2  0  0  0  0  0  0
  184.0740  178.9210  146.0810 O   0  0  0  0  0  1  0  0  0  0  0  0
  183.6640  179.0230  143.8280 O   0  0  0  0  0  0  0  0  0  0  0  0
  184.5050  178.9990  144.7640 C   0  0  0  0  0  0  0  0  0  0  0  0
  193.1410  176.0830  143.8650 C   0  0  0  0  0  2  0  0  0  0  0  0
  194.3420  173.4640  141.4860 O   0  0  0  0  0  0  0  0  0  0  0  0
  195.4580  174.0220  145.6330 C   0  0  0  0  0  2  0  0  0  0  0  0
  194.6480  175.9000  144.0170 C   0  0  2  0  0  3  0  0  0  0  0  0
  194.7450  172.6070  143.6590 C   0  0  0  0  0  2  0  0  0  0  0  0
  195.1810  175.0390  142.9650 N   0  0  0  0  0  2  0  0  0  0  0  0
  194.4570  172.9930  145.1090 C   0  0  2  0  0  3  0  0  0  0  0  0
  195.0450  175.4820  145.4390 C   0  0  0  0  0  2  0  0  0  0  0  0
  194.6910  173.7280  142.6650 C   0  0  0  0  0  0  0  0  0  0  0  0
  192.9960  173.3330  145.4030 C   0  0  0  0  0  2  0  0  0  0  0  0
  192.0440  172.5770  144.4850 C   0  0  0  0  0  2  0  0  0  0  0  0
  190.7200  173.3210  144.3290 C   0  0  2  0  0  3  0  0  0  0  0  0
  189.6380  172.6720  145.1760 C   0  0  0  0  0  1  0  0  0  0  0  0
  191.1620  172.6850  142.0450 O   0  0  0  0  0  1  0  0  0  0  0  0
  190.2810  173.3880  142.8690 C   0  0  0  0  0  3  0  0  0  0  0  0
  190.2040  174.7170  142.4510 O   0  0  0  0  0  1  0  0  0  0  0  0
  1  7  1  0  0  0  0
  2 12  1  0  0  0  0
  2  7  1  0  0  0  0
  5  2  2  0  0  0  0
  6  4  2  0  0  0  0
  6 14  1  0  0  0  0
  7  6  1  0  0  0  0
  8  3  1  0  0  0  0
  9 15  1  1  0  0  0
  9  8  1  0  0  0  0
 10  3  1  1  0  0  0
 10  4  1  0  0  0  0
 11  9  1  0  0  0  0
 12 11  1  6  0  0  0
 12 10  1  0  0  0  0
 14 13  1  0  0  0  0
 15 18  1  0  0  0  0
 17 18  2  0  0  0  0
 18 16  1  0  0  0  0
 19  1  1  0  0  0  0
 20 27  2  0  0  0  0
 22 19  1  1  0  0  0
 22 26  1  0  0  0  0
 23 25  1  0  0  0  0
 24 22  1  0  0  0  0
 25 28  1  6  0  0  0
 25 21  1  0  0  0  0
 26 21  1  0  0  0  0
 27 24  1  0  0  0  0
 27 23  1  0  0  0  0
 29 28  1  0  0  0  0
 30 29  1  0  0  0  0
 30 31  1  1  0  0  0
 32 33  1  0  0  0  0
 33 30  1  0  0  0  0
 34 33  1  0  0  0  0
M  END
>  <MODEL>
2

>  <REMARK>
 VINA RESULT:      -6.9      1.842      3.168
  Name = 
  10 active torsions:
  status: ('A' for Active; 'I' for Inactive)
    1  A    between atoms: C_7  and  C_15
    2  A    between atoms: C_7  and  C_29
    3  A    between atoms: C_8  and  C_17
    4  A    between atoms: C_10  and  C_17
    5  A    between atoms: C_10  and  N_20
    6  A    between atoms: C_19  and  C_22
    7  A    between atoms: C_24  and  C_25
    8  A    between atoms: C_25  and  C_27
    9  A    between atoms: C_26  and  C_28
   10  A    between atoms: C_26  and  C_29
                            x       y       z     vdW  Elec       q    Type
                         _______ _______ _______ _____ _____    ______ ____

>  <TORSDO>
F 10

$$$$
=
 OpenBabel11052420203D

 34 36  0  0  1  0  0  0  0  0999 V2000
  189.7400  173.8740  145.2700 C   0  0  0  0  0  2  0  0  0  0  0  0
  192.1580  173.2840  144.9370 C   0  0  0  0  0  0  0  0  0  0  0  0
  195.2560  175.1630  146.1530 C   0  0  0  0  0  2  0  0  0  0  0  0
  192.8280  175.4770  146.6210 C   0  0  0  0  0  3  0  0  0  0  0  0
  191.8290  172.3680  144.1340 O   0  0  0  0  0  0  0  0  0  0  0  0
  191.5490  175.0960  146.5370 C   0  0  0  0  0  0  0  0  0  0  0  0
  191.1520  174.0890  145.5790 N   0  0  0  0  0  0  0  0  0  0  0  0
  196.2590  174.7150  145.0860 C   0  0  0  0  0  2  0  0  0  0  0  0
  196.0250  173.2630  144.6510 C   0  0  2  0  0  3  0  0  0  0  0  0
  193.8370  174.9640  145.6390 C   0  0  2  0  0  3  0  0  0  0  0  0
  194.5670  173.0440  144.2170 C   0  0  0  0  0  2  0  0  0  0  0  0
  193.5980  173.4850  145.3170 C   0  0  2  0  0  3  0  0  0  0  0  0
  190.2710  177.1110  147.1650 C   0  0  0  0  0  1  0  0  0  0  0  0
  190.5660  175.6640  147.5080 C   0  0  0  0  0  2  0  0  0  0  0  0
  196.4430  172.2940  145.7520 C   0  0  0  0  0  2  0  0  0  0  0  0
  197.8660  171.3290  143.9460 O   0  0  0  0  0  0  0  0  0  0  0  0
  197.4650  170.1440  145.8670 O   0  0  0  0  0  1  0  0  0  0  0  0
  197.2920  171.1990  145.2030 C   0  0  0  0  0  0  0  0  0  0  0  0
  189.1840  175.0440  144.4690 C   0  0  0  0  0  2  0  0  0  0  0  0
  191.0240  178.1260  143.4310 O   0  0  0  0  0  0  0  0  0  0  0  0
  187.9280  176.0050  141.2680 C   0  0  0  0  0  2  0  0  0  0  0  0
  189.5670  174.9440  142.9960 C   0  0  2  0  0  3  0  0  0  0  0  0
  189.0180  178.1050  142.1670 C   0  0  0  0  0  2  0  0  0  0  0  0
  190.4640  176.0310  142.6120 N   0  0  0  0  0  2  0  0  0  0  0  0
  187.7340  177.2840  142.0810 C   0  0  2  0  0  3  0  0  0  0  0  0
  188.3440  174.7790  142.0840 C   0  0  0  0  0  2  0  0  0  0  0  0
  190.1850  177.4200  142.8140 C   0  0  0  0  0  0  0  0  0  0  0  0
  187.0150  177.0780  143.4150 C   0  0  0  0  0  2  0  0  0  0  0  0
  186.4840  178.3880  143.9800 C   0  0  0  0  0  2  0  0  0  0  0  0
  186.2250  178.2780  145.4800 C   0  0  2  0  0  3  0  0  0  0  0  0
  186.3180  176.8310  145.9340 C   0  0  0  0  0  1  0  0  0  0  0  0
  184.1990  178.0400  146.7670 O   0  0  0  0  0  1  0  0  0  0  0  0
  184.8710  178.8670  145.8630 C   0  0  0  0  0  3  0  0  0  0  0  0
  184.0870  179.0520  144.7230 O   0  0  0  0  0  1  0  0  0  0  0  0
  1  7  1  0  0  0  0
  2 12  1  0  0  0  0
  2  7  1  0  0  0  0
  5  2  2  0  0  0  0
  6  4  2  0  0  0  0
  6 14  1  0  0  0  0
  7  6  1  0  0  0  0
  8  3  1  0  0  0  0
  9  8  1  0  0  0  0
  9 15  1  1  0  0  0
 10  3  1  1  0  0  0
 10  4  1  0  0  0  0
 11  9  1  0  0  0  0
 12 11  1  6  0  0  0
 12 10  1  0  0  0  0
 13 14  1  0  0  0  0
 16 18  2  0  0  0  0
 18 15  1  0  0  0  0
 18 17  1  0  0  0  0
 19  1  1  0  0  0  0
 21 25  1  0  0  0  0
 21 26  1  0  0  0  0
 22 19  1  1  0  0  0
 23 27  1  0  0  0  0
 24 27  1  0  0  0  0
 24 22  1  0  0  0  0
 25 23  1  0  0  0  0
 25 28  1  1  0  0  0
 26 22  1  0  0  0  0
 27 20  2  0  0  0  0
 28 29  1  0  0  0  0
 29 30  1  0  0  0  0
 30 33  1  0  0  0  0
 30 31  1  6  0  0  0
 33 32  1  0  0  0  0
 34 33  1  0  0  0  0
M  END
>  <MODEL>
3

>  <REMARK>
 VINA RESULT:      -6.7      1.964      7.931
  Name = 
  10 active torsions:
  status: ('A' for Active; 'I' for Inactive)
    1  A    between atoms: C_7  and  C_15
    2  A    between atoms: C_7  and  C_29
    3  A    between atoms: C_8  and  C_17
    4  A    between atoms: C_10  and  C_17
    5  A    between atoms: C_10  and  N_20
    6  A    between atoms: C_19  and  C_22
    7  A    between atoms: C_24  and  C_25
    8  A    between atoms: C_25  and  C_27
    9  A    between atoms: C_26  and  C_28
   10  A    between atoms: C_26  and  C_29
                            x       y       z     vdW  Elec       q    Type
                         _______ _______ _______ _____ _____    ______ ____

>  <TORSDO>
F 10

$$$$
=
 OpenBabel11052420203D

 34 36  0  0  1  0  0  0  0  0999 V2000
  191.5790  175.1010  142.0850 C   0  0  0  0  0  2  0  0  0  0  0  0
  189.8870  176.3540  143.4530 C   0  0  0  0  0  0  0  0  0  0  0  0
  186.0760  176.0780  143.3620 C   0  0  0  0  0  2  0  0  0  0  0  0
  187.8690  174.7340  142.2700 C   0  0  0  0  0  3  0  0  0  0  0  0
  190.7970  177.1060  143.9000 O   0  0  0  0  0  0  0  0  0  0  0  0
  189.1510  174.4070  142.0800 C   0  0  0  0  0  0  0  0  0  0  0  0
  190.2020  175.2900  142.5350 N   0  0  0  0  0  0  0  0  0  0  0  0
  185.7080  177.4840  143.8440 C   0  0  0  0  0  2  0  0  0  0  0  0
  186.6900  178.0040  144.9010 C   0  0  2  0  0  3  0  0  0  0  0  0
  187.5050  176.0730  142.8360 C   0  0  2  0  0  3  0  0  0  0  0  0
  188.1400  177.9130  144.4010 C   0  0  0  0  0  2  0  0  0  0  0  0
  188.4730  176.4900  143.9470 C   0  0  2  0  0  3  0  0  0  0  0  0
  189.4060  171.9950  142.5290 C   0  0  0  0  0  1  0  0  0  0  0  0
  189.4720  173.0810  141.4730 C   0  0  0  0  0  2  0  0  0  0  0  0
  186.4980  177.2700  146.2250 C   0  0  0  0  0  2  0  0  0  0  0  0
  184.6060  178.4750  147.3140 O   0  0  0  0  0  0  0  0  0  0  0  0
  186.7470  178.7280  148.0940 O   0  0  0  0  0  1  0  0  0  0  0  0
  185.9630  178.1890  147.2700 C   0  0  0  0  0  0  0  0  0  0  0  0
  192.4190  174.4650  143.1840 C   0  0  0  0  0  2  0  0  0  0  0  0
  194.4420  172.0680  145.2140 O   0  0  0  0  0  0  0  0  0  0  0  0
  195.0560  176.3260  144.7110 C   0  0  0  0  0  2  0  0  0  0  0  0
  193.9050  174.7470  142.9850 C   0  0  2  0  0  3  0  0  0  0  0  0
  194.8910  174.2190  146.1040 C   0  0  0  0  0  2  0  0  0  0  0  0
  194.7230  173.7030  143.5950 N   0  0  0  0  0  2  0  0  0  0  0  0
  194.4030  175.6540  145.9180 C   0  0  2  0  0  3  0  0  0  0  0  0
  194.2890  176.1750  143.3950 C   0  0  0  0  0  2  0  0  0  0  0  0
  194.6190  173.2880  144.9610 C   0  0  0  0  0  0  0  0  0  0  0  0
  192.8860  175.8290  145.9900 C   0  0  0  0  0  2  0  0  0  0  0  0
  192.2440  174.8210  146.9350 C   0  0  0  0  0  2  0  0  0  0  0  0
  191.0680  175.4400  147.6860 C   0  0  2  0  0  3  0  0  0  0  0  0
  189.7490  174.9640  147.1010 C   0  0  0  0  0  1  0  0  0  0  0  0
  191.5160  177.4610  148.9240 O   0  0  0  0  0  1  0  0  0  0  0  0
  191.1330  176.9640  147.6760 C   0  0  0  0  0  3  0  0  0  0  0  0
  189.8930  177.4950  147.3180 O   0  0  0  0  0  1  0  0  0  0  0  0
  1  7  1  0  0  0  0
  1 19  1  0  0  0  0
  2  5  2  0  0  0  0
  2 12  1  0  0  0  0
  3  8  1  0  0  0  0
  6  4  2  0  0  0  0
  6  7  1  0  0  0  0
  7  2  1  0  0  0  0
  8  9  1  0  0  0  0
  9 15  1  1  0  0  0
 10  4  1  1  0  0  0
 10  3  1  0  0  0  0
 10 12  1  0  0  0  0
 11  9  1  0  0  0  0
 12 11  1  6  0  0  0
 14  6  1  0  0  0  0
 14 13  1  0  0  0  0
 15 18  1  0  0  0  0
 18 16  2  0  0  0  0
 18 17  1  0  0  0  0
 21 25  1  0  0  0  0
 22 19  1  1  0  0  0
 22 26  1  0  0  0  0
 22 24  1  0  0  0  0
 24 27  1  0  0  0  0
 25 28  1  6  0  0  0
 25 23  1  0  0  0  0
 26 21  1  0  0  0  0
 27 20  2  0  0  0  0
 27 23  1  0  0  0  0
 28 29  1  0  0  0  0
 29 30  1  0  0  0  0
 30 31  1  6  0  0  0
 33 30  1  0  0  0  0
 33 32  1  0  0  0  0
 34 33  1  0  0  0  0
M  END
>  <MODEL>
4

>  <REMARK>
 VINA RESULT:      -6.7      1.505      1.745
  Name = 
  10 active torsions:
  status: ('A' for Active; 'I' for Inactive)
    1  A    between atoms: C_7  and  C_15
    2  A    between atoms: C_7  and  C_29
    3  A    between atoms: C_8  and  C_17
    4  A    between atoms: C_10  and  C_17
    5  A    between atoms: C_10  and  N_20
    6  A    between atoms: C_19  and  C_22
    7  A    between atoms: C_24  and  C_25
    8  A    between atoms: C_25  and  C_27
    9  A    between atoms: C_26  and  C_28
   10  A    between atoms: C_26  and  C_29
                            x       y       z     vdW  Elec       q    Type
                         _______ _______ _______ _____ _____    ______ ____

>  <TORSDO>
F 10

$$$$
=
 OpenBabel11052420203D

 34 36  0  0  1  0  0  0  0  0999 V2000
  192.6510  176.9350  145.0810 C   0  0  0  0  0  2  0  0  0  0  0  0
  190.2790  177.4550  144.4450 C   0  0  0  0  0  0  0  0  0  0  0  0
  187.0580  176.4560  146.2460 C   0  0  0  0  0  2  0  0  0  0  0  0
  189.4580  176.2430  146.8850 C   0  0  0  0  0  3  0  0  0  0  0  0
  190.6710  177.9160  143.3380 O   0  0  0  0  0  0  0  0  0  0  0  0
  190.7590  176.4800  146.6890 C   0  0  0  0  0  0  0  0  0  0  0  0
  191.2270  176.9520  145.4050 N   0  0  0  0  0  0  0  0  0  0  0  0
  186.0930  176.4540  145.0570 C   0  0  0  0  0  2  0  0  0  0  0  0
  186.4230  177.5610  144.0470 C   0  0  2  0  0  3  0  0  0  0  0  0
  188.4910  176.3360  145.7440 C   0  0  2  0  0  3  0  0  0  0  0  0
  187.8940  177.4920  143.6110 C   0  0  0  0  0  2  0  0  0  0  0  0
  188.8250  177.5160  144.8260 C   0  0  2  0  0  3  0  0  0  0  0  0
  191.5500  177.5120  148.7860 C   0  0  0  0  0  1  0  0  0  0  0  0
  191.6970  176.3340  147.8430 C   0  0  0  0  0  2  0  0  0  0  0  0
  186.0590  178.9320  144.6100 C   0  0  0  0  0  2  0  0  0  0  0  0
  183.6650  179.0540  143.9260 O   0  0  0  0  0  0  0  0  0  0  0  0
  184.2400  179.0420  146.1460 O   0  0  0  0  0  1  0  0  0  0  0  0
  184.6080  179.0020  144.9430 C   0  0  0  0  0  0  0  0  0  0  0  0
  193.1430  175.5050  144.9060 C   0  0  0  0  0  2  0  0  0  0  0  0
  190.2120  173.1880  144.9000 O   0  0  0  0  0  0  0  0  0  0  0  0
  193.9870  172.7280  142.8270 C   0  0  0  0  0  2  0  0  0  0  0  0
  192.8900  174.9980  143.4900 C   0  0  2  0  0  3  0  0  0  0  0  0
  192.0820  171.8780  144.2610 C   0  0  0  0  0  2  0  0  0  0  0  0
  191.6320  174.2590  143.4140 N   0  0  0  0  0  2  0  0  0  0  0  0
  193.5960  172.0370  144.1330 C   0  0  2  0  0  3  0  0  0  0  0  0
  194.0990  174.2510  142.9110 C   0  0  0  0  0  2  0  0  0  0  0  0
  191.2920  173.1520  144.2550 C   0  0  0  0  0  0  0  0  0  0  0  0
  194.2870  172.6020  145.3740 C   0  0  0  0  0  2  0  0  0  0  0  0
  195.5160  171.7880  145.7570 C   0  0  0  0  0  2  0  0  0  0  0  0
  196.7820  172.6390  145.6980 C   0  0  2  0  0  3  0  0  0  0  0  0
  196.4380  174.1170  145.7800 C   0  0  0  0  0  1  0  0  0  0  0  0
  197.5000  173.4090  143.5280 O   0  0  0  0  0  1  0  0  0  0  0  0
  197.5940  172.3540  144.4390 C   0  0  0  0  0  3  0  0  0  0  0  0
  197.1520  171.1740  143.8380 O   0  0  0  0  0  1  0  0  0  0  0  0
  1  7  1  0  0  0  0
  2 12  1  0  0  0  0
  2  7  1  0  0  0  0
  5  2  2  0  0  0  0
  6  4  2  0  0  0  0
  6 14  1  0  0  0  0
  7  6  1  0  0  0  0
  8  3  1  0  0  0  0
  9 15  1  1  0  0  0
  9  8  1  0  0  0  0
 10  3  1  1  0  0  0
 10  4  1  0  0  0  0
 11  9  1  0  0  0  0
 12 11  1  6  0  0  0
 12 10  1  0  0  0  0
 14 13  1  0  0  0  0
 15 18  1  0  0  0  0
 16 18  2  0  0  0  0
 18 17  1  0  0  0  0
 19  1  1  0  0  0  0
 21 26  1  0  0  0  0
 21 25  1  0  0  0  0
 22 19  1  1  0  0  0
 24 22  1  0  0  0  0
 24 27  1  0  0  0  0
 25 23  1  0  0  0  0
 25 28  1  1  0  0  0
 26 22  1  0  0  0  0
 27 23  1  0  0  0  0
 27 20  2  0  0  0  0
 28 29  1  0  0  0  0
 30 29  1  0  0  0  0
 30 31  1  6  0  0  0
 32 33  1  0  0  0  0
 33 30  1  0  0  0  0
 34 33  1  0  0  0  0
M  END
>  <MODEL>
5

>  <REMARK>
 VINA RESULT:      -6.5      1.920      4.748
  Name = 
  10 active torsions:
  status: ('A' for Active; 'I' for Inactive)
    1  A    between atoms: C_7  and  C_15
    2  A    between atoms: C_7  and  C_29
    3  A    between atoms: C_8  and  C_17
    4  A    between atoms: C_10  and  C_17
    5  A    between atoms: C_10  and  N_20
    6  A    between atoms: C_19  and  C_22
    7  A    between atoms: C_24  and  C_25
    8  A    between atoms: C_25  and  C_27
    9  A    between atoms: C_26  and  C_28
   10  A    between atoms: C_26  and  C_29
                            x       y       z     vdW  Elec       q    Type
                         _______ _______ _______ _____ _____    ______ ____

>  <TORSDO>
F 10

$$$$
=
 OpenBabel11052420203D

 34 36  0  0  1  0  0  0  0  0999 V2000
  192.2840  177.0320  145.8540 C   0  0  0  0  0  2  0  0  0  0  0  0
  190.5480  177.6760  144.1580 C   0  0  0  0  0  0  0  0  0  0  0  0
  187.4830  175.6960  143.0200 C   0  0  0  0  0  2  0  0  0  0  0  0
  189.1260  175.3120  144.8540 C   0  0  0  0  0  3  0  0  0  0  0  0
  191.2420  178.6740  143.8190 O   0  0  0  0  0  0  0  0  0  0  0  0
  190.1600  175.6890  145.6130 C   0  0  0  0  0  0  0  0  0  0  0  0
  190.9970  176.7940  145.2050 N   0  0  0  0  0  0  0  0  0  0  0  0
  187.3200  176.2700  141.6090 C   0  0  0  0  0  2  0  0  0  0  0  0
  187.6800  177.7600  141.5500 C   0  0  2  0  0  3  0  0  0  0  0  0
  188.9030  175.9410  143.5120 C   0  0  2  0  0  3  0  0  0  0  0  0
  189.0790  178.0150  142.1310 C   0  0  0  0  0  2  0  0  0  0  0  0
  189.1940  177.4440  143.5470 C   0  0  2  0  0  3  0  0  0  0  0  0
  189.0520  174.5040  147.4720 C   0  0  0  0  0  1  0  0  0  0  0  0
  190.3730  175.0070  146.9250 C   0  0  0  0  0  2  0  0  0  0  0  0
  186.6130  178.6010  142.2440 C   0  0  0  0  0  2  0  0  0  0  0  0
  184.9850  178.5970  140.3540 O   0  0  0  0  0  0  0  0  0  0  0  0
  184.3620  177.8370  142.4260 O   0  0  0  0  0  1  0  0  0  0  0  0
  185.2620  178.3130  141.6850 C   0  0  0  0  0  0  0  0  0  0  0  0
  193.4250  176.8580  144.8600 C   0  0  0  0  0  2  0  0  0  0  0  0
  196.2020  176.5410  142.3810 O   0  0  0  0  0  0  0  0  0  0  0  0
  193.8820  173.3770  144.2170 C   0  0  0  0  0  2  0  0  0  0  0  0
  194.3500  175.7160  145.2670 C   0  0  2  0  0  3  0  0  0  0  0  0
  194.9630  174.5250  142.2360 C   0  0  0  0  0  2  0  0  0  0  0  0
  195.5550  175.6980  144.4410 N   0  0  0  0  0  2  0  0  0  0  0  0
  193.6760  173.9340  142.8090 C   0  0  2  0  0  3  0  0  0  0  0  0
  193.6170  174.3710  145.3500 C   0  0  0  0  0  2  0  0  0  0  0  0
  195.5550  175.6640  143.0100 C   0  0  0  0  0  0  0  0  0  0  0  0
  192.4410  174.8230  142.6600 C   0  0  0  0  0  2  0  0  0  0  0  0
  191.5480  174.3630  141.5150 C   0  0  0  0  0  2  0  0  0  0  0  0
  191.3050  172.8580  141.5750 C   0  0  2  0  0  3  0  0  0  0  0  0
  191.4520  172.2360  140.1970 C   0  0  0  0  0  1  0  0  0  0  0  0
  189.8640  171.1970  142.5650 O   0  0  0  0  0  1  0  0  0  0  0  0
  189.9340  172.5320  142.1600 C   0  0  0  0  0  3  0  0  0  0  0  0
  188.9360  172.7910  141.2190 O   0  0  0  0  0  1  0  0  0  0  0  0
  2  7  1  0  0  0  0
  4  6  2  0  0  0  0
  5  2  2  0  0  0  0
  6 14  1  0  0  0  0
  7  6  1  0  0  0  0
  7  1  1  0  0  0  0
  8  3  1  0  0  0  0
  9  8  1  0  0  0  0
  9 11  1  0  0  0  0
  9 15  1  1  0  0  0
 10  3  1  1  0  0  0
 10 12  1  0  0  0  0
 10  4  1  0  0  0  0
 12 11  1  6  0  0  0
 12  2  1  0  0  0  0
 14 13  1  0  0  0  0
 16 18  2  0  0  0  0
 18 15  1  0  0  0  0
 18 17  1  0  0  0  0
 19  1  1  0  0  0  0
 20 27  2  0  0  0  0
 21 26  1  0  0  0  0
 22 19  1  6  0  0  0
 22 26  1  0  0  0  0
 23 25  1  0  0  0  0
 23 27  1  0  0  0  0
 24 22  1  0  0  0  0
 25 28  1  1  0  0  0
 25 21  1  0  0  0  0
 27 24  1  0  0  0  0
 29 30  1  0  0  0  0
 29 28  1  0  0  0  0
 30 31  1  6  0  0  0
 30 33  1  0  0  0  0
 33 32  1  0  0  0  0
 34 33  1  0  0  0  0
M  END
>  <MODEL>
6

>  <REMARK>
 VINA RESULT:      -6.3      2.182      3.824
  Name = 
  10 active torsions:
  status: ('A' for Active; 'I' for Inactive)
    1  A    between atoms: C_7  and  C_15
    2  A    between atoms: C_7  and  C_29
    3  A    between atoms: C_8  and  C_17
    4  A    between atoms: C_10  and  C_17
    5  A    between atoms: C_10  and  N_20
    6  A    between atoms: C_19  and  C_22
    7  A    between atoms: C_24  and  C_25
    8  A    between atoms: C_25  and  C_27
    9  A    between atoms: C_26  and  C_28
   10  A    between atoms: C_26  and  C_29
                            x       y       z     vdW  Elec       q    Type
                         _______ _______ _______ _____ _____    ______ ____

>  <TORSDO>
F 10

$$$$
=
 OpenBabel11052420203D

 34 36  0  0  1  0  0  0  0  0999 V2000
  191.5130  171.9350  143.4530 C   0  0  0  0  0  2  0  0  0  0  0  0
  190.0570  173.4720  144.8020 C   0  0  0  0  0  0  0  0  0  0  0  0
  190.2120  177.2830  145.0550 C   0  0  0  0  0  2  0  0  0  0  0  0
  191.3990  175.6630  143.5790 C   0  0  0  0  0  3  0  0  0  0  0  0
  189.5360  172.4800  145.3820 O   0  0  0  0  0  0  0  0  0  0  0  0
  191.6030  174.4320  143.0980 C   0  0  0  0  0  0  0  0  0  0  0  0
  191.0610  173.2830  143.7870 N   0  0  0  0  0  0  0  0  0  0  0  0
  189.6110  177.4690  146.4510 C   0  0  0  0  0  2  0  0  0  0  0  0
  188.5020  176.4500  146.7400 C   0  0  2  0  0  3  0  0  0  0  0  0
  190.7210  175.8570  144.9010 C   0  0  2  0  0  3  0  0  0  0  0  0
  188.9930  175.0140  146.4970 C   0  0  0  0  0  2  0  0  0  0  0  0
  189.5680  174.8660  145.0860 C   0  0  2  0  0  3  0  0  0  0  0  0
  193.7140  174.8700  141.8990 C   0  0  0  0  0  1  0  0  0  0  0  0
  192.3220  174.2800  141.7970 C   0  0  0  0  0  2  0  0  0  0  0  0
  187.2500  176.7680  145.9280 C   0  0  0  0  0  2  0  0  0  0  0  0
  184.8240  176.7890  146.5050 O   0  0  0  0  0  0  0  0  0  0  0  0
  186.3470  177.8540  147.8480 O   0  0  0  0  0  1  0  0  0  0  0  0
  186.1240  177.1610  146.8210 C   0  0  0  0  0  0  0  0  0  0  0  0
  192.6410  171.5030  144.3790 C   0  0  0  0  0  2  0  0  0  0  0  0
  194.7040  169.6640  146.8940 O   0  0  0  0  0  0  0  0  0  0  0  0
  196.0170  171.5420  143.2180 C   0  0  0  0  0  2  0  0  0  0  0  0
  193.6320  170.5890  143.6640 C   0  0  2  0  0  3  0  0  0  0  0  0
  196.2140  171.0410  145.6920 C   0  0  0  0  0  2  0  0  0  0  0  0
  194.3070  169.7050  144.6110 N   0  0  0  0  0  2  0  0  0  0  0  0
  196.1590  172.1300  144.6220 C   0  0  2  0  0  3  0  0  0  0  0  0
  194.5760  171.3640  142.7360 C   0  0  0  0  0  2  0  0  0  0  0  0
  195.0100  170.1510  145.7750 C   0  0  0  0  0  0  0  0  0  0  0  0
  195.1930  173.2760  144.9230 C   0  0  0  0  0  2  0  0  0  0  0  0
  195.9210  174.5050  145.4500 C   0  0  0  0  0  2  0  0  0  0  0  0
  194.9430  175.5120  146.0480 C   0  0  2  0  0  3  0  0  0  0  0  0
  193.5940  174.8610  146.3050 C   0  0  0  0  0  1  0  0  0  0  0  0
  195.7030  176.7260  144.1080 O   0  0  0  0  0  1  0  0  0  0  0  0
  194.7770  176.7370  145.1540 C   0  0  0  0  0  3  0  0  0  0  0  0
  194.9290  177.9040  145.9030 O   0  0  0  0  0  1  0  0  0  0  0  0
  1  7  1  0  0  0  0
  1 19  1  0  0  0  0
  2 12  1  0  0  0  0
  2  5  2  0  0  0  0
  3  8  1  0  0  0  0
  6  4  2  0  0  0  0
  6  7  1  0  0  0  0
  7  2  1  0  0  0  0
  8  9  1  0  0  0  0
  9 15  1  6  0  0  0
 10  4  1  6  0  0  0
 10  3  1  0  0  0  0
 10 12  1  0  0  0  0
 11  9  1  0  0  0  0
 12 11  1  1  0  0  0
 14 13  1  0  0  0  0
 14  6  1  0  0  0  0
 15 18  1  0  0  0  0
 16 18  2  0  0  0  0
 18 17  1  0  0  0  0
 21 25  1  0  0  0  0
 22 19  1  1  0  0  0
 22 24  1  0  0  0  0
 23 27  1  0  0  0  0
 24 27  1  0  0  0  0
 25 28  1  1  0  0  0
 25 23  1  0  0  0  0
 26 21  1  0  0  0  0
 26 22  1  0  0  0  0
 27 20  2  0  0  0  0
 28 29  1  0  0  0  0
 29 30  1  0  0  0  0
 30 31  1  6  0  0  0
 32 33  1  0  0  0  0
 33 34  1  0  0  0  0
 33 30  1  0  0  0  0
M  END
>  <MODEL>
7

>  <REMARK>
 VINA RESULT:      -6.3      2.691      4.497
  Name = 
  10 active torsions:
  status: ('A' for Active; 'I' for Inactive)
    1  A    between atoms: C_7  and  C_15
    2  A    between atoms: C_7  and  C_29
    3  A    between atoms: C_8  and  C_17
    4  A    between atoms: C_10  and  C_17
    5  A    between atoms: C_10  and  N_20
    6  A    between atoms: C_19  and  C_22
    7  A    between atoms: C_24  and  C_25
    8  A    between atoms: C_25  and  C_27
    9  A    between atoms: C_26  and  C_28
   10  A    between atoms: C_26  and  C_29
                            x       y       z     vdW  Elec       q    Type
                         _______ _______ _______ _____ _____    ______ ____

>  <TORSDO>
F 10

$$$$
=
 OpenBabel11052420203D

 34 36  0  0  1  0  0  0  0  0999 V2000
  190.6200  174.0140  145.0270 C   0  0  0  0  0  2  0  0  0  0  0  0
  188.8560  175.8000  144.9560 C   0  0  0  0  0  0  0  0  0  0  0  0
  186.8650  177.0600  141.9460 C   0  0  0  0  0  2  0  0  0  0  0  0
  188.4360  175.1440  142.2190 C   0  0  0  0  0  3  0  0  0  0  0  0
  189.1210  176.1170  146.1480 O   0  0  0  0  0  0  0  0  0  0  0  0
  189.2020  174.3400  142.9640 C   0  0  0  0  0  0  0  0  0  0  0  0
  189.5610  174.7220  144.3110 N   0  0  0  0  0  0  0  0  0  0  0  0
  186.5620  178.4840  142.4220 C   0  0  0  0  0  2  0  0  0  0  0  0
  186.3140  178.5440  143.9340 C   0  0  2  0  0  3  0  0  0  0  0  0
  188.0520  176.5030  142.7210 C   0  0  2  0  0  3  0  0  0  0  0  0
  187.4730  177.8990  144.7100 C   0  0  0  0  0  2  0  0  0  0  0  0
  187.7320  176.4720  144.2190 C   0  0  2  0  0  3  0  0  0  0  0  0
  189.6560  173.0750  140.8960 C   0  0  0  0  0  1  0  0  0  0  0  0
  189.6000  173.0110  142.4100 C   0  0  0  0  0  2  0  0  0  0  0  0
  184.9710  177.9120  144.2880 C   0  0  0  0  0  2  0  0  0  0  0  0
  184.8210  176.7850  146.5070 O   0  0  0  0  0  1  0  0  0  0  0  0
  184.4340  179.0370  146.3200 O   0  0  0  0  0  0  0  0  0  0  0  0
  184.7360  177.9510  145.7590 C   0  0  0  0  0  0  0  0  0  0  0  0
  191.9900  174.4520  144.5250 C   0  0  0  0  0  2  0  0  0  0  0  0
  194.4610  175.8710  142.1080 O   0  0  0  0  0  0  0  0  0  0  0  0
  194.3240  176.3910  146.4060 C   0  0  0  0  0  2  0  0  0  0  0  0
  192.2710  175.9100  144.8720 C   0  0  2  0  0  3  0  0  0  0  0  0
  195.5220  175.9130  144.2280 C   0  0  0  0  0  2  0  0  0  0  0  0
  193.0680  176.5530  143.8310 N   0  0  0  0  0  2  0  0  0  0  0  0
  195.2450  175.4330  145.6510 C   0  0  2  0  0  3  0  0  0  0  0  0
  192.8300  176.0760  146.2910 C   0  0  0  0  0  2  0  0  0  0  0  0
  194.3180  176.0550  143.3440 C   0  0  0  0  0  0  0  0  0  0  0  0
  194.8490  173.9610  145.7650 C   0  0  0  0  0  2  0  0  0  0  0  0
  195.8970  173.0440  145.1490 C   0  0  0  0  0  2  0  0  0  0  0  0
  195.2450  171.8730  144.4190 C   0  0  2  0  0  3  0  0  0  0  0  0
  194.7410  172.3060  143.0530 C   0  0  0  0  0  1  0  0  0  0  0  0
  194.5840  170.2910  146.1160 O   0  0  0  0  0  1  0  0  0  0  0  0
  194.1070  171.2650  145.2350 C   0  0  0  0  0  3  0  0  0  0  0  0
  193.1530  170.7040  144.3850 O   0  0  0  0  0  1  0  0  0  0  0  0
  2  5  2  0  0  0  0
  3  8  1  0  0  0  0
  4 10  1  0  0  0  0
  4  6  2  0  0  0  0
  6  7  1  0  0  0  0
  7  2  1  0  0  0  0
  7  1  1  0  0  0  0
  8  9  1  0  0  0  0
  9 15  1  6  0  0  0
  9 11  1  0  0  0  0
 10  3  1  6  0  0  0
 10 12  1  0  0  0  0
 12 11  1  1  0  0  0
 12  2  1  0  0  0  0
 13 14  1  0  0  0  0
 14  6  1  0  0  0  0
 15 18  1  0  0  0  0
 18 17  2  0  0  0  0
 18 16  1  0  0  0  0
 19  1  1  0  0  0  0
 20 27  2  0  0  0  0
 22 19  1  6  0  0  0
 22 26  1  0  0  0  0
 23 25  1  0  0  0  0
 24 22  1  0  0  0  0
 25 28  1  6  0  0  0
 25 21  1  0  0  0  0
 26 21  1  0  0  0  0
 27 24  1  0  0  0  0
 27 23  1  0  0  0  0
 29 28  1  0  0  0  0
 30 31  1  6  0  0  0
 30 29  1  0  0  0  0
 30 33  1  0  0  0  0
 33 32  1  0  0  0  0
 34 33  1  0  0  0  0
M  END
>  <MODEL>
8

>  <REMARK>
 VINA RESULT:      -6.3      1.940      3.286
  Name = 
  10 active torsions:
  status: ('A' for Active; 'I' for Inactive)
    1  A    between atoms: C_7  and  C_15
    2  A    between atoms: C_7  and  C_29
    3  A    between atoms: C_8  and  C_17
    4  A    between atoms: C_10  and  C_17
    5  A    between atoms: C_10  and  N_20
    6  A    between atoms: C_19  and  C_22
    7  A    between atoms: C_24  and  C_25
    8  A    between atoms: C_25  and  C_27
    9  A    between atoms: C_26  and  C_28
   10  A    between atoms: C_26  and  C_29
                            x       y       z     vdW  Elec       q    Type
                         _______ _______ _______ _____ _____    ______ ____

>  <TORSDO>
F 10

$$$$
=
 OpenBabel11052420203D

 34 36  0  0  1  0  0  0  0  0999 V2000
  192.5450  177.0740  145.2690 C   0  0  0  0  0  2  0  0  0  0  0  0
  190.1930  177.6030  144.5660 C   0  0  0  0  0  0  0  0  0  0  0  0
  186.9160  176.4250  146.1430 C   0  0  0  0  0  2  0  0  0  0  0  0
  189.2890  176.2030  146.8720 C   0  0  0  0  0  3  0  0  0  0  0  0
  190.6240  178.1490  143.5140 O   0  0  0  0  0  0  0  0  0  0  0  0
  190.5920  176.4740  146.7530 C   0  0  0  0  0  0  0  0  0  0  0  0
  191.1070  177.0450  145.5290 N   0  0  0  0  0  0  0  0  0  0  0  0
  186.0040  176.4950  144.9140 C   0  0  0  0  0  2  0  0  0  0  0  0
  186.3570  177.6770  144.0030 C   0  0  2  0  0  3  0  0  0  0  0  0
  188.3710  176.3640  145.6990 C   0  0  2  0  0  3  0  0  0  0  0  0
  187.8470  177.6640  143.6300 C   0  0  0  0  0  2  0  0  0  0  0  0
  188.7230  177.6130  144.8850 C   0  0  2  0  0  3  0  0  0  0  0  0
  191.5580  177.5230  148.7660 C   0  0  0  0  0  1  0  0  0  0  0  0
  191.4820  176.2580  147.9340 C   0  0  0  0  0  2  0  0  0  0  0  0
  185.9440  178.9980  144.6470 C   0  0  0  0  0  2  0  0  0  0  0  0
  183.5640  179.0220  143.9010 O   0  0  0  0  0  0  0  0  0  0  0  0
  184.0820  179.0400  146.1350 O   0  0  0  0  0  1  0  0  0  0  0  0
  184.4830  179.0110  144.9420 C   0  0  0  0  0  0  0  0  0  0  0  0
  192.9600  175.8760  144.4260 C   0  0  0  0  0  2  0  0  0  0  0  0
  195.5620  174.9240  141.9190 O   0  0  0  0  0  0  0  0  0  0  0  0
  193.8420  172.4730  145.0480 C   0  0  0  0  0  2  0  0  0  0  0  0
  194.0610  175.0700  145.1080 C   0  0  2  0  0  3  0  0  0  0  0  0
  194.6030  172.8900  142.6710 C   0  0  0  0  0  2  0  0  0  0  0  0
  195.1920  174.8610  144.2070 N   0  0  0  0  0  2  0  0  0  0  0  0
  193.4560  172.4340  143.5700 C   0  0  2  0  0  3  0  0  0  0  0  0
  193.5280  173.7890  145.7630 C   0  0  0  0  0  2  0  0  0  0  0  0
  195.0900  174.2900  142.8980 C   0  0  0  0  0  0  0  0  0  0  0  0
  192.1040  173.0740  143.2570 C   0  0  0  0  0  2  0  0  0  0  0  0
  191.9840  173.4520  141.7860 C   0  0  0  0  0  2  0  0  0  0  0  0
  190.5330  173.7320  141.4040 C   0  0  2  0  0  3  0  0  0  0  0  0
  189.9510  174.8290  142.2800 C   0  0  0  0  0  1  0  0  0  0  0  0
  189.6680  171.7820  140.2790 O   0  0  0  0  0  1  0  0  0  0  0  0
  189.6740  172.4740  141.4930 C   0  0  0  0  0  3  0  0  0  0  0  0
  188.3680  172.8070  141.8520 O   0  0  0  0  0  1  0  0  0  0  0  0
  1  7  1  0  0  0  0
  2 12  1  0  0  0  0
  2  7  1  0  0  0  0
  5  2  2  0  0  0  0
  6  4  2  0  0  0  0
  6 14  1  0  0  0  0
  7  6  1  0  0  0  0
  8  3  1  0  0  0  0
  9 15  1  1  0  0  0
  9  8  1  0  0  0  0
 10  3  1  1  0  0  0
 10  4  1  0  0  0  0
 11  9  1  0  0  0  0
 12 11  1  6  0  0  0
 12 10  1  0  0  0  0
 14 13  1  0  0  0  0
 15 18  1  0  0  0  0
 16 18  2  0  0  0  0
 18 17  1  0  0  0  0
 19  1  1  0  0  0  0
 20 27  2  0  0  0  0
 21 26  1  0  0  0  0
 22 19  1  6  0  0  0
 22 26  1  0  0  0  0
 23 27  1  0  0  0  0
 23 25  1  0  0  0  0
 24 22  1  0  0  0  0
 25 28  1  1  0  0  0
 25 21  1  0  0  0  0
 27 24  1  0  0  0  0
 29 28  1  0  0  0  0
 30 33  1  0  0  0  0
 30 29  1  0  0  0  0
 30 31  1  1  0  0  0
 32 33  1  0  0  0  0
 33 34  1  0  0  0  0
M  END
>  <MODEL>
9

>  <REMARK>
 VINA RESULT:      -6.3      2.145      3.883
  Name = 
  10 active torsions:
  status: ('A' for Active; 'I' for Inactive)
    1  A    between atoms: C_7  and  C_15
    2  A    between atoms: C_7  and  C_29
    3  A    between atoms: C_8  and  C_17
    4  A    between atoms: C_10  and  C_17
    5  A    between atoms: C_10  and  N_20
    6  A    between atoms: C_19  and  C_22
    7  A    between atoms: C_24  and  C_25
    8  A    between atoms: C_25  and  C_27
    9  A    between atoms: C_26  and  C_28
   10  A    between atoms: C_26  and  C_29
                            x       y       z     vdW  Elec       q    Type
                         _______ _______ _______ _____ _____    ______ ____

>  <TORSDO>
F 10

$$$$
