=
 OpenBabel11052418423D

 34 39  0  0  1  0  0  0  0  0999 V2000
  188.8240  174.7190  141.5690 C   0  0  0  0  0  0  0  0  0  0  0  0
  191.1370  175.1760  142.6270 C   0  0  0  0  0  0  0  0  0  0  0  0
  192.8440  176.3290  146.9110 C   0  0  1  0  0  3  0  0  0  0  0  0
  189.0170  176.0310  143.6030 C   0  0  0  0  0  0  0  0  0  0  0  0
  190.3180  177.1920  146.8360 C   0  0  0  0  0  2  0  0  0  0  0  0
  191.8200  174.8310  141.6270 O   0  0  0  0  0  0  0  0  0  0  0  0
  190.9220  175.6810  145.0310 C   0  0  2  0  0  3  0  0  0  0  0  0
  189.6410  175.3320  142.5450 C   0  0  0  0  0  0  0  0  0  0  0  0
  191.4570  176.3610  146.2550 C   0  0  1  0  0  0  0  0  0  0  0  0
  189.2910  177.3050  145.7860 N   0  0  2  0  0  0  0  0  0  0  0  0
  187.6340  175.9960  143.7890 C   0  0  0  0  0  0  0  0  0  0  0  0
  187.4280  174.7510  141.7200 C   0  0  0  0  0  3  0  0  0  0  0  0
  191.7960  175.4480  143.8850 N   0  0  0  0  0  2  0  0  0  0  0  0
  188.0870  176.5700  146.1930 C   0  0  0  0  0  2  0  0  0  0  0  0
  187.0420  176.5670  145.0570 C   0  0  1  0  0  3  0  0  0  0  0  0
  191.8130  175.2690  147.2430 C   0  0  0  0  0  2  0  0  0  0  0  0
  189.9080  176.6900  144.6030 C   0  0  2  0  0  3  0  0  0  0  0  0
  186.8370  175.3670  142.8290 C   0  0  0  0  0  3  0  0  0  0  0  0
  194.4860  173.7900  144.6130 C   0  0  0  0  0  2  0  0  0  0  0  0
  193.9090  175.8560  145.9580 C   0  0  0  0  0  0  0  0  0  0  0  0
  194.2500  174.3820  145.9950 C   0  0  0  0  0  2  0  0  0  0  0  0
  196.4960  175.3690  144.4550 C   0  0  0  0  0  2  0  0  0  0  0  0
  195.4980  176.4400  144.0410 C   0  0  0  0  0  2  0  0  0  0  0  0
  194.4930  176.7440  145.1230 C   0  0  0  0  0  3  0  0  0  0  0  0
  195.9440  173.9680  144.1830 C   0  0  0  0  0  2  0  0  0  0  0  0
  188.5110  174.1300  139.1910 C   0  0  0  0  0  1  0  0  0  0  0  0
  189.3930  173.9630  140.4140 C   0  0  0  0  0  2  0  0  0  0  0  0
  186.4120  177.9560  144.8750 C   0  0  1  0  0  3  0  0  0  0  0  0
  185.1600  178.3690  142.7130 C   0  0  0  0  0  0  0  0  0  0  0  0
  186.1880  178.8530  142.1690 O   0  0  0  0  0  0  0  0  0  0  0  0
  185.2050  177.8900  144.0580 N   0  0  0  0  0  2  0  0  0  0  0  0
  183.8900  178.2890  141.9490 C   0  0  0  0  0  1  0  0  0  0  0  0
  184.2580  178.4230  146.3120 C   0  0  0  0  0  1  0  0  0  0  0  0
  186.0400  178.7200  146.4870 S   0  0  0  0  0  0  0  0  0  0  0  0
  1 12  2  0  0  0  0
  1  8  1  0  0  0  0
  2 13  1  0  0  0  0
  3 20  1  6  0  0  0
  3 16  1  0  0  0  0
  4 11  1  0  0  0  0
  6  2  2  0  0  0  0
  7 13  1  6  0  0  0
  7  9  1  0  0  0  0
  8  2  1  0  0  0  0
  8  4  2  0  0  0  0
  9  5  1  1  0  0  0
  9  3  1  0  0  0  0
  9 16  1  0  0  0  0
 10 14  1  1  0  0  0
 10  5  1  0  0  0  0
 11 15  1  0  0  0  0
 12 18  1  0  0  0  0
 15 28  1  6  0  0  0
 15 14  1  0  0  0  0
 17  4  1  1  0  0  0
 17  7  1  0  0  0  0
 17 10  1  0  0  0  0
 18 11  2  0  0  0  0
 19 21  1  0  0  0  0
 20 21  1  0  0  0  0
 23 22  1  0  0  0  0
 23 24  1  0  0  0  0
 24 20  2  0  0  0  0
 25 22  1  0  0  0  0
 25 19  1  0  0  0  0
 26 27  1  0  0  0  0
 27  1  1  0  0  0  0
 28 31  1  6  0  0  0
 28 34  1  0  0  0  0
 29 31  1  0  0  0  0
 30 29  2  0  0  0  0
 32 29  1  0  0  0  0
 33 34  1  0  0  0  0
M  END
>  <MODEL>
1

>  <REMARK>
 VINA RESULT:      -8.2      0.000      0.000
  Name = 
  5 active torsions:
  status: ('A' for Active; 'I' for Inactive)
    1  A    between atoms: C_1  and  C_19
    2  A    between atoms: C_3  and  C_13
    3  A    between atoms: C_12  and  N_23
    4  A    between atoms: C_12  and  S_27
    5  A    between atoms: C_12  and  C_28
                            x       y       z     vdW  Elec       q    Type
                         _______ _______ _______ _____ _____    ______ ____

>  <TORSDO>
F 5

$$$$
=
 OpenBabel11052418423D

 34 39  0  0  1  0  0  0  0  0999 V2000
  189.7170  173.3580  140.2090 C   0  0  0  0  0  0  0  0  0  0  0  0
  188.6130  174.5350  142.2290 C   0  0  0  0  0  0  0  0  0  0  0  0
  189.8810  177.7040  145.5370 C   0  0  1  0  0  3  0  0  0  0  0  0
  191.0740  174.2750  142.0020 C   0  0  0  0  0  0  0  0  0  0  0  0
  192.1250  176.5060  144.7230 C   0  0  0  0  0  2  0  0  0  0  0  0
  187.4440  174.1180  142.0130 O   0  0  0  0  0  0  0  0  0  0  0  0
  190.1910  176.0890  143.3130 C   0  0  2  0  0  3  0  0  0  0  0  0
  189.7960  173.9960  141.4680 C   0  0  0  0  0  0  0  0  0  0  0  0
  190.6410  176.8100  144.5470 C   0  0  1  0  0  0  0  0  0  0  0  0
  192.4310  175.3510  143.8630 N   0  0  2  0  0  0  0  0  0  0  0  0
  192.2380  174.0820  141.2560 C   0  0  0  0  0  0  0  0  0  0  0  0
  190.8960  173.0980  139.4930 C   0  0  0  0  0  3  0  0  0  0  0  0
  188.8380  175.5440  143.2400 N   0  0  0  0  0  2  0  0  0  0  0  0
  193.3180  175.7700  142.7710 C   0  0  0  0  0  2  0  0  0  0  0  0
  193.5530  174.6080  141.7840 C   0  0  1  0  0  3  0  0  0  0  0  0
  190.4780  178.2910  144.2740 C   0  0  0  0  0  2  0  0  0  0  0  0
  191.1240  174.9240  143.3450 C   0  0  2  0  0  3  0  0  0  0  0  0
  192.1460  173.4730  140.0010 C   0  0  0  0  0  3  0  0  0  0  0  0
  186.4530  176.9880  147.0060 C   0  0  0  0  0  2  0  0  0  0  0  0
  188.3920  177.4950  145.4590 C   0  0  0  0  0  0  0  0  0  0  0  0
  187.7890  176.5200  146.4470 C   0  0  0  0  0  2  0  0  0  0  0  0
  185.5660  176.8000  144.6110 C   0  0  0  0  0  2  0  0  0  0  0  0
  186.1740  178.1750  144.3820 C   0  0  0  0  0  2  0  0  0  0  0  0
  187.6730  178.1790  144.5410 C   0  0  0  0  0  3  0  0  0  0  0  0
  185.2980  176.5570  146.0990 C   0  0  0  0  0  2  0  0  0  0  0  0
  188.1920  173.8820  138.3380 C   0  0  0  0  0  1  0  0  0  0  0  0
  188.4110  173.0210  139.5680 C   0  0  0  0  0  2  0  0  0  0  0  0
  194.4480  173.5230  142.4020 C   0  0  1  0  0  3  0  0  0  0  0  0
  193.4510  171.8640  144.0350 C   0  0  0  0  0  0  0  0  0  0  0  0
  193.8770  172.5230  145.0200 O   0  0  0  0  0  0  0  0  0  0  0  0
  193.6900  172.3130  142.7010 N   0  0  0  0  0  2  0  0  0  0  0  0
  192.6890  170.6100  144.2620 C   0  0  0  0  0  1  0  0  0  0  0  0
  196.7940  174.5830  141.8590 C   0  0  0  0  0  1  0  0  0  0  0  0
  195.8510  173.1330  141.3080 S   0  0  0  0  0  0  0  0  0  0  0  0
  1  8  1  0  0  0  0
  2 13  1  0  0  0  0
  3 20  1  6  0  0  0
  6  2  2  0  0  0  0
  7 13  1  1  0  0  0
  7 17  1  0  0  0  0
  7  9  1  0  0  0  0
  8  4  2  0  0  0  0
  8  2  1  0  0  0  0
  9 16  1  6  0  0  0
  9  5  1  0  0  0  0
  9  3  1  0  0  0  0
 10 14  1  6  0  0  0
 10  5  1  0  0  0  0
 11 15  1  0  0  0  0
 11  4  1  0  0  0  0
 12 18  1  0  0  0  0
 12  1  2  0  0  0  0
 15 28  1  1  0  0  0
 15 14  1  0  0  0  0
 16  3  1  0  0  0  0
 17  4  1  6  0  0  0
 17 10  1  0  0  0  0
 18 11  2  0  0  0  0
 20 21  1  0  0  0  0
 21 19  1  0  0  0  0
 22 25  1  0  0  0  0
 23 24  1  0  0  0  0
 23 22  1  0  0  0  0
 24 20  2  0  0  0  0
 25 19  1  0  0  0  0
 26 27  1  0  0  0  0
 27  1  1  0  0  0  0
 28 34  1  6  0  0  0
 28 31  1  0  0  0  0
 29 32  1  0  0  0  0
 29 30  2  0  0  0  0
 31 29  1  0  0  0  0
 34 33  1  0  0  0  0
M  END
>  <MODEL>
2

>  <REMARK>
 VINA RESULT:      -7.4      3.133      7.202
  Name = 
  5 active torsions:
  status: ('A' for Active; 'I' for Inactive)
    1  A    between atoms: C_1  and  C_19
    2  A    between atoms: C_3  and  C_13
    3  A    between atoms: C_12  and  N_23
    4  A    between atoms: C_12  and  S_27
    5  A    between atoms: C_12  and  C_28
                            x       y       z     vdW  Elec       q    Type
                         _______ _______ _______ _____ _____    ______ ____

>  <TORSDO>
F 5

$$$$
=
 OpenBabel11052418423D

 34 39  0  0  1  0  0  0  0  0999 V2000
  191.2830  176.1610  147.3910 C   0  0  0  0  0  0  0  0  0  0  0  0
  189.2150  177.2270  146.2650 C   0  0  0  0  0  0  0  0  0  0  0  0
  186.8140  176.7180  142.1950 C   0  0  1  0  0  3  0  0  0  0  0  0
  190.9930  176.0540  144.9830 C   0  0  0  0  0  0  0  0  0  0  0  0
  189.3000  175.8620  141.7290 C   0  0  0  0  0  2  0  0  0  0  0  0
  188.8550  177.9150  147.2560 O   0  0  0  0  0  0  0  0  0  0  0  0
  188.7660  176.1800  144.0780 C   0  0  2  0  0  3  0  0  0  0  0  0
  190.5420  176.5130  146.2410 C   0  0  0  0  0  0  0  0  0  0  0  0
  188.1990  176.2850  142.6950 C   0  0  1  0  0  0  0  0  0  0  0  0
  190.5650  175.8910  142.4820 N   0  0  2  0  0  0  0  0  0  0  0  0
  192.0460  175.1450  144.8690 C   0  0  0  0  0  0  0  0  0  0  0  0
  192.3890  175.3050  147.2640 C   0  0  0  0  0  3  0  0  0  0  0  0
  188.3500  177.1250  145.1110 N   0  0  0  0  0  2  0  0  0  0  0  0
  191.0790  174.5250  142.6350 C   0  0  0  0  0  2  0  0  0  0  0  0
  192.3380  174.5130  143.5280 C   0  0  1  0  0  3  0  0  0  0  0  0
  187.0670  175.2820  142.6080 C   0  0  0  0  0  2  0  0  0  0  0  0
  190.2020  176.4650  143.7850 C   0  0  2  0  0  3  0  0  0  0  0  0
  192.7580  174.7850  146.0170 C   0  0  0  0  0  3  0  0  0  0  0  0
  185.2780  177.2860  145.6210 C   0  0  0  0  0  2  0  0  0  0  0  0
  186.0650  177.5190  143.2260 C   0  0  0  0  0  0  0  0  0  0  0  0
  185.2080  176.7420  144.2010 C   0  0  0  0  0  2  0  0  0  0  0  0
  184.2060  179.4160  144.6860 C   0  0  0  0  0  2  0  0  0  0  0  0
  185.6090  179.8150  144.2560 C   0  0  0  0  0  2  0  0  0  0  0  0
  186.1960  178.8640  143.2440 C   0  0  0  0  0  3  0  0  0  0  0  0
  184.2500  178.4000  145.8310 C   0  0  0  0  0  2  0  0  0  0  0  0
  191.5670  177.9140  149.1090 C   0  0  0  0  0  1  0  0  0  0  0  0
  190.8860  176.6030  148.7610 C   0  0  0  0  0  2  0  0  0  0  0  0
  193.5420  175.1310  142.8020 C   0  0  1  0  0  3  0  0  0  0  0  0
  195.7320  175.3760  144.0510 C   0  0  0  0  0  0  0  0  0  0  0  0
  195.4820  176.5790  144.3270 O   0  0  0  0  0  0  0  0  0  0  0  0
  194.8010  174.5910  143.3040 N   0  0  0  0  0  2  0  0  0  0  0  0
  197.0040  174.7630  144.5110 C   0  0  0  0  0  1  0  0  0  0  0  0
  194.7730  176.0390  140.6610 C   0  0  0  0  0  1  0  0  0  0  0  0
  193.4210  174.8770  141.0020 S   0  0  0  0  0  0  0  0  0  0  0  0
  1 27  1  0  0  0  0
  2  6  2  0  0  0  0
  3 16  1  0  0  0  0
  3  9  1  0  0  0  0
  3 20  1  1  0  0  0
  4  8  1  0  0  0  0
  7 13  1  1  0  0  0
  8  2  1  0  0  0  0
  8  1  2  0  0  0  0
  9  5  1  6  0  0  0
  9  7  1  0  0  0  0
 10  5  1  6  0  0  0
 10 14  1  0  0  0  0
 10 17  1  0  0  0  0
 11  4  2  0  0  0  0
 11 18  1  0  0  0  0
 12  1  1  0  0  0  0
 13  2  1  0  0  0  0
 14 15  1  0  0  0  0
 15 28  1  6  0  0  0
 15 11  1  0  0  0  0
 16  9  1  0  0  0  0
 17  7  1  0  0  0  0
 17  4  1  1  0  0  0
 18 12  2  0  0  0  0
 19 25  1  0  0  0  0
 20 24  2  0  0  0  0
 20 21  1  0  0  0  0
 21 19  1  0  0  0  0
 22 25  1  0  0  0  0
 23 22  1  0  0  0  0
 24 23  1  0  0  0  0
 27 26  1  0  0  0  0
 28 34  1  6  0  0  0
 28 31  1  0  0  0  0
 29 30  2  0  0  0  0
 29 32  1  0  0  0  0
 31 29  1  0  0  0  0
 33 34  1  0  0  0  0
M  END
>  <MODEL>
3

>  <REMARK>
 VINA RESULT:      -7.4      2.644      8.239
  Name = 
  5 active torsions:
  status: ('A' for Active; 'I' for Inactive)
    1  A    between atoms: C_1  and  C_19
    2  A    between atoms: C_3  and  C_13
    3  A    between atoms: C_12  and  N_23
    4  A    between atoms: C_12  and  S_27
    5  A    between atoms: C_12  and  C_28
                            x       y       z     vdW  Elec       q    Type
                         _______ _______ _______ _____ _____    ______ ____

>  <TORSDO>
F 5

$$$$
=
 OpenBabel11052418423D

 34 39  0  0  1  0  0  0  0  0999 V2000
  191.4610  175.8430  146.1200 C   0  0  0  0  0  0  0  0  0  0  0  0
  191.5640  173.7390  144.6220 C   0  0  0  0  0  0  0  0  0  0  0  0
  189.8410  172.3730  140.4080 C   0  0  1  0  0  3  0  0  0  0  0  0
  189.7470  175.4270  144.4510 C   0  0  0  0  0  0  0  0  0  0  0  0
  188.1950  174.2630  141.3320 C   0  0  0  0  0  2  0  0  0  0  0  0
  192.4220  173.1210  145.3060 O   0  0  0  0  0  0  0  0  0  0  0  0
  190.3000  174.0830  142.5320 C   0  0  2  0  0  3  0  0  0  0  0  0
  190.9140  175.0010  145.1250 C   0  0  0  0  0  0  0  0  0  0  0  0
  189.5160  173.5030  141.3940 C   0  0  1  0  0  0  0  0  0  0  0  0
  188.0500  174.9770  142.6120 N   0  0  2  0  0  0  0  0  0  0  0  0
  189.2230  176.7080  144.6300 C   0  0  0  0  0  0  0  0  0  0  0  0
  190.8850  177.1020  146.3510 C   0  0  0  0  0  3  0  0  0  0  0  0
  191.1740  173.2250  143.3280 N   0  0  0  0  0  2  0  0  0  0  0  0
  188.1390  176.4240  142.3820 C   0  0  0  0  0  2  0  0  0  0  0  0
  188.1160  177.1900  143.7210 C   0  0  1  0  0  3  0  0  0  0  0  0
  190.3010  173.7910  140.1300 C   0  0  0  0  0  2  0  0  0  0  0  0
  189.1790  174.5030  143.4240 C   0  0  2  0  0  3  0  0  0  0  0  0
  189.7860  177.5410  145.6010 C   0  0  0  0  0  3  0  0  0  0  0  0
  191.2450  169.0650  141.6340 C   0  0  0  0  0  2  0  0  0  0  0  0
  190.9340  171.4740  140.9180 C   0  0  0  0  0  0  0  0  0  0  0  0
  190.5240  170.3820  141.8820 C   0  0  0  0  0  2  0  0  0  0  0  0
  193.3950  170.3120  142.2530 C   0  0  0  0  0  2  0  0  0  0  0  0
  193.4030  170.8110  140.8170 C   0  0  0  0  0  2  0  0  0  0  0  0
  192.2040  171.6670  140.4950 C   0  0  0  0  0  3  0  0  0  0  0  0
  192.5790  169.0230  142.3830 C   0  0  0  0  0  2  0  0  0  0  0  0
  193.8360  176.3950  146.5130 C   0  0  0  0  0  1  0  0  0  0  0  0
  192.6880  175.4760  146.8870 C   0  0  0  0  0  2  0  0  0  0  0  0
  186.7230  177.1450  144.3660 C   0  0  1  0  0  3  0  0  0  0  0  0
  186.2220  177.9690  146.7070 C   0  0  0  0  0  0  0  0  0  0  0  0
  186.0860  176.7910  147.1320 O   0  0  0  0  0  0  0  0  0  0  0  0
  186.5520  178.2170  145.3410 N   0  0  0  0  0  2  0  0  0  0  0  0
  186.0420  179.1120  147.6380 C   0  0  0  0  0  1  0  0  0  0  0  0
  185.3220  179.0410  143.1970 C   0  0  0  0  0  1  0  0  0  0  0  0
  185.4150  177.2310  143.1000 S   0  0  0  0  0  0  0  0  0  0  0  0
  1 12  1  0  0  0  0
  1 27  1  0  0  0  0
  2  8  1  0  0  0  0
  2  6  2  0  0  0  0
  3 20  1  1  0  0  0
  3  9  1  0  0  0  0
  4 11  2  0  0  0  0
  4  8  1  0  0  0  0
  5  9  1  0  0  0  0
  7 13  1  1  0  0  0
  7 17  1  0  0  0  0
  8  1  2  0  0  0  0
  9 16  1  6  0  0  0
  9  7  1  0  0  0  0
 10  5  1  6  0  0  0
 10 17  1  0  0  0  0
 11 18  1  0  0  0  0
 13  2  1  0  0  0  0
 14 10  1  0  0  0  0
 14 15  1  0  0  0  0
 15 28  1  1  0  0  0
 15 11  1  0  0  0  0
 16  3  1  0  0  0  0
 17  4  1  1  0  0  0
 18 12  2  0  0  0  0
 19 21  1  0  0  0  0
 19 25  1  0  0  0  0
 20 21  1  0  0  0  0
 22 25  1  0  0  0  0
 23 22  1  0  0  0  0
 24 23  1  0  0  0  0
 24 20  2  0  0  0  0
 26 27  1  0  0  0  0
 28 34  1  6  0  0  0
 28 31  1  0  0  0  0
 29 30  2  0  0  0  0
 29 32  1  0  0  0  0
 31 29  1  0  0  0  0
 34 33  1  0  0  0  0
M  END
>  <MODEL>
4

>  <REMARK>
 VINA RESULT:      -7.4      2.771      5.311
  Name = 
  5 active torsions:
  status: ('A' for Active; 'I' for Inactive)
    1  A    between atoms: C_1  and  C_19
    2  A    between atoms: C_3  and  C_13
    3  A    between atoms: C_12  and  N_23
    4  A    between atoms: C_12  and  S_27
    5  A    between atoms: C_12  and  C_28
                            x       y       z     vdW  Elec       q    Type
                         _______ _______ _______ _____ _____    ______ ____

>  <TORSDO>
F 5

$$$$
=
 OpenBabel11052418423D

 34 39  0  0  1  0  0  0  0  0999 V2000
  192.7100  175.5700  146.0580 C   0  0  0  0  0  0  0  0  0  0  0  0
  190.6730  176.4080  144.7060 C   0  0  0  0  0  0  0  0  0  0  0  0
  188.0870  174.9100  141.0100 C   0  0  1  0  0  3  0  0  0  0  0  0
  192.3190  174.7840  143.7940 C   0  0  0  0  0  0  0  0  0  0  0  0
  190.4930  173.7750  140.7720 C   0  0  0  0  0  2  0  0  0  0  0  0
  190.3970  177.3810  145.4570 O   0  0  0  0  0  0  0  0  0  0  0  0
  190.0720  174.8040  142.9330 C   0  0  2  0  0  3  0  0  0  0  0  0
  191.9480  175.6230  144.8700 C   0  0  0  0  0  0  0  0  0  0  0  0
  189.4590  174.5410  141.5900 C   0  0  1  0  0  0  0  0  0  0  0  0
  191.7850  173.9300  141.4600 N   0  0  2  0  0  0  0  0  0  0  0  0
  193.3060  173.8070  143.9340 C   0  0  0  0  0  0  0  0  0  0  0  0
  193.7520  174.6350  146.1680 C   0  0  0  0  0  3  0  0  0  0  0  0
  189.7590  176.0370  143.6490 N   0  0  0  0  0  2  0  0  0  0  0  0
  192.2150  172.6330  141.9990 C   0  0  0  0  0  2  0  0  0  0  0  0
  193.5040  172.7910  142.8330 C   0  0  1  0  0  3  0  0  0  0  0  0
  188.2620  173.6430  141.8230 C   0  0  0  0  0  2  0  0  0  0  0  0
  191.5110  174.8840  142.5430 C   0  0  2  0  0  3  0  0  0  0  0  0
  194.0370  173.7470  145.1230 C   0  0  0  0  0  3  0  0  0  0  0  0
  186.4000  178.2970  141.3220 C   0  0  0  0  0  2  0  0  0  0  0  0
  187.4330  176.0300  141.7730 C   0  0  0  0  0  0  0  0  0  0  0  0
  187.6490  177.4310  141.2440 C   0  0  0  0  0  2  0  0  0  0  0  0
  186.5850  178.0530  143.8650 C   0  0  0  0  0  2  0  0  0  0  0  0
  185.8830  176.7160  143.6890 C   0  0  0  0  0  2  0  0  0  0  0  0
  186.6890  175.7440  142.8640 C   0  0  0  0  0  3  0  0  0  0  0  0
  186.2950  178.9860  142.6850 C   0  0  0  0  0  2  0  0  0  0  0  0
  191.4740  175.6780  148.1940 C   0  0  0  0  0  1  0  0  0  0  0  0
  192.3960  176.4210  147.2450 C   0  0  0  0  0  2  0  0  0  0  0  0
  194.7170  173.0800  141.9360 C   0  0  1  0  0  3  0  0  0  0  0  0
  195.1120  175.4140  141.0390 C   0  0  0  0  0  0  0  0  0  0  0  0
  194.6190  175.1080  139.9210 O   0  0  0  0  0  0  0  0  0  0  0  0
  195.1800  174.4540  142.0930 N   0  0  0  0  0  2  0  0  0  0  0  0
  195.6230  176.7900  141.2650 C   0  0  0  0  0  1  0  0  0  0  0  0
  197.0730  173.1880  143.1030 C   0  0  0  0  0  1  0  0  0  0  0  0
  196.0750  171.9150  142.2790 S   0  0  0  0  0  0  0  0  0  0  0  0
  1 12  1  0  0  0  0
  1 27  1  0  0  0  0
  2  8  1  0  0  0  0
  2  6  2  0  0  0  0
  3  9  1  0  0  0  0
  3 20  1  1  0  0  0
  3 16  1  0  0  0  0
  4 11  2  0  0  0  0
  4  8  1  0  0  0  0
  7 13  1  6  0  0  0
  8  1  2  0  0  0  0
  9  5  1  6  0  0  0
  9 16  1  0  0  0  0
  9  7  1  0  0  0  0
 10  5  1  1  0  0  0
 10 14  1  0  0  0  0
 10 17  1  0  0  0  0
 11 18  1  0  0  0  0
 13  2  1  0  0  0  0
 14 15  1  0  0  0  0
 15 28  1  6  0  0  0
 15 11  1  0  0  0  0
 17  7  1  0  0  0  0
 17  4  1  1  0  0  0
 18 12  2  0  0  0  0
 19 25  1  0  0  0  0
 20 24  2  0  0  0  0
 21 19  1  0  0  0  0
 21 20  1  0  0  0  0
 23 22  1  0  0  0  0
 24 23  1  0  0  0  0
 25 22  1  0  0  0  0
 27 26  1  0  0  0  0
 28 31  1  1  0  0  0
 28 34  1  0  0  0  0
 29 32  1  0  0  0  0
 29 31  1  0  0  0  0
 30 29  2  0  0  0  0
 34 33  1  0  0  0  0
M  END
>  <MODEL>
5

>  <REMARK>
 VINA RESULT:      -7.3      3.081      8.207
  Name = 
  5 active torsions:
  status: ('A' for Active; 'I' for Inactive)
    1  A    between atoms: C_1  and  C_19
    2  A    between atoms: C_3  and  C_13
    3  A    between atoms: C_12  and  N_23
    4  A    between atoms: C_12  and  S_27
    5  A    between atoms: C_12  and  C_28
                            x       y       z     vdW  Elec       q    Type
                         _______ _______ _______ _____ _____    ______ ____

>  <TORSDO>
F 5

$$$$
=
 OpenBabel11052418423D

 34 39  0  0  1  0  0  0  0  0999 V2000
  189.5790  174.1540  141.0740 C   0  0  0  0  0  0  0  0  0  0  0  0
  191.8590  174.7940  142.1080 C   0  0  0  0  0  0  0  0  0  0  0  0
  193.5080  176.1180  146.3650 C   0  0  1  0  0  3  0  0  0  0  0  0
  189.6890  175.5000  143.0920 C   0  0  0  0  0  0  0  0  0  0  0  0
  190.9240  176.7910  146.3010 C   0  0  0  0  0  2  0  0  0  0  0  0
  192.5590  174.4890  141.1060 O   0  0  0  0  0  0  0  0  0  0  0  0
  191.6250  175.3080  144.5080 C   0  0  2  0  0  3  0  0  0  0  0  0
  190.3550  174.8370  142.0370 C   0  0  0  0  0  0  0  0  0  0  0  0
  192.1170  176.0390  145.7200 C   0  0  1  0  0  0  0  0  0  0  0  0
  189.8840  176.8150  145.2590 N   0  0  2  0  0  0  0  0  0  0  0  0
  188.3140  175.3650  143.2900 C   0  0  0  0  0  0  0  0  0  0  0  0
  188.1860  174.0840  141.2360 C   0  0  0  0  0  3  0  0  0  0  0  0
  192.5060  175.1270  143.3570 N   0  0  0  0  0  2  0  0  0  0  0  0
  188.7410  175.9980  145.6830 C   0  0  0  0  0  2  0  0  0  0  0  0
  187.6910  175.9040  144.5570 C   0  0  1  0  0  3  0  0  0  0  0  0
  192.5610  174.9880  146.7170 C   0  0  0  0  0  2  0  0  0  0  0  0
  190.5370  176.2340  144.0770 C   0  0  2  0  0  3  0  0  0  0  0  0
  187.5580  174.6670  142.3440 C   0  0  0  0  0  3  0  0  0  0  0  0
  195.3640  173.6590  144.1450 C   0  0  0  0  0  2  0  0  0  0  0  0
  194.5980  175.7150  145.4090 C   0  0  0  0  0  0  0  0  0  0  0  0
  195.0940  174.2880  145.5040 C   0  0  0  0  0  2  0  0  0  0  0  0
  197.1920  175.4310  143.8660 C   0  0  0  0  0  2  0  0  0  0  0  0
  196.0780  176.3700  143.4280 C   0  0  0  0  0  2  0  0  0  0  0  0
  195.0680  176.6180  144.5200 C   0  0  0  0  0  3  0  0  0  0  0  0
  196.7860  173.9680  143.6710 C   0  0  0  0  0  2  0  0  0  0  0  0
  189.3480  173.6100  138.6760 C   0  0  0  0  0  1  0  0  0  0  0  0
  190.1940  173.4290  139.9220 C   0  0  0  0  0  2  0  0  0  0  0  0
  186.9580  177.2400  144.3650 C   0  0  1  0  0  3  0  0  0  0  0  0
  185.8370  178.2210  146.4120 C   0  0  0  0  0  0  0  0  0  0  0  0
  184.7440  177.6640  146.1260 O   0  0  0  0  0  0  0  0  0  0  0  0
  186.9850  178.0430  145.5830 N   0  0  0  0  0  2  0  0  0  0  0  0
  185.9340  179.0700  147.6270 C   0  0  0  0  0  1  0  0  0  0  0  0
  186.0340  178.6710  142.3600 C   0  0  0  0  0  1  0  0  0  0  0  0
  187.6690  178.1810  142.9760 S   0  0  0  0  0  0  0  0  0  0  0  0
  1 12  2  0  0  0  0
  1  8  1  0  0  0  0
  2 13  1  0  0  0  0
  3 20  1  6  0  0  0
  3 16  1  0  0  0  0
  4 11  1  0  0  0  0
  6  2  2  0  0  0  0
  7 13  1  6  0  0  0
  7  9  1  0  0  0  0
  8  2  1  0  0  0  0
  8  4  2  0  0  0  0
  9  5  1  1  0  0  0
  9  3  1  0  0  0  0
  9 16  1  0  0  0  0
 10 14  1  1  0  0  0
 10  5  1  0  0  0  0
 11 15  1  0  0  0  0
 12 18  1  0  0  0  0
 15 28  1  6  0  0  0
 15 14  1  0  0  0  0
 17  4  1  1  0  0  0
 17  7  1  0  0  0  0
 17 10  1  0  0  0  0
 18 11  2  0  0  0  0
 19 21  1  0  0  0  0
 20 21  1  0  0  0  0
 23 22  1  0  0  0  0
 23 24  1  0  0  0  0
 24 20  2  0  0  0  0
 25 22  1  0  0  0  0
 25 19  1  0  0  0  0
 26 27  1  0  0  0  0
 27  1  1  0  0  0  0
 28 34  1  6  0  0  0
 28 31  1  0  0  0  0
 29 32  1  0  0  0  0
 30 29  2  0  0  0  0
 31 29  1  0  0  0  0
 33 34  1  0  0  0  0
M  END
>  <MODEL>
6

>  <REMARK>
 VINA RESULT:      -7.2      1.444      2.008
  Name = 
  5 active torsions:
  status: ('A' for Active; 'I' for Inactive)
    1  A    between atoms: C_1  and  C_19
    2  A    between atoms: C_3  and  C_13
    3  A    between atoms: C_12  and  N_23
    4  A    between atoms: C_12  and  S_27
    5  A    between atoms: C_12  and  C_28
                            x       y       z     vdW  Elec       q    Type
                         _______ _______ _______ _____ _____    ______ ____

>  <TORSDO>
F 5

$$$$
=
 OpenBabel11052418423D

 34 39  0  0  1  0  0  0  0  0999 V2000
  190.6590  176.8630  147.5350 C   0  0  0  0  0  0  0  0  0  0  0  0
  191.8480  174.9420  146.2810 C   0  0  0  0  0  0  0  0  0  0  0  0
  192.2230  173.4130  141.7960 C   0  0  1  0  0  3  0  0  0  0  0  0
  189.8550  176.1140  145.3700 C   0  0  0  0  0  0  0  0  0  0  0  0
  189.9240  174.7640  141.9550 C   0  0  0  0  0  2  0  0  0  0  0  0
  192.5210  174.5280  147.2620 O   0  0  0  0  0  0  0  0  0  0  0  0
  191.4050  175.0640  143.8580 C   0  0  2  0  0  3  0  0  0  0  0  0
  190.7560  175.9660  146.4480 C   0  0  0  0  0  0  0  0  0  0  0  0
  191.2760  174.3660  142.5380 C   0  0  1  0  0  0  0  0  0  0  0  0
  189.1370  175.3450  143.0550 N   0  0  2  0  0  0  0  0  0  0  0  0
  188.9900  177.2060  145.2830 C   0  0  0  0  0  0  0  0  0  0  0  0
  189.7340  177.9180  147.4780 C   0  0  0  0  0  3  0  0  0  0  0  0
  192.1120  174.4160  144.9600 N   0  0  0  0  0  2  0  0  0  0  0  0
  188.9280  176.7770  142.8090 C   0  0  0  0  0  2  0  0  0  0  0  0
  188.2140  177.4370  144.0070 C   0  0  1  0  0  3  0  0  0  0  0  0
  192.3700  174.9140  141.6440 C   0  0  0  0  0  2  0  0  0  0  0  0
  189.9660  175.1330  144.2500 C   0  0  2  0  0  3  0  0  0  0  0  0
  188.9180  178.1010  146.3540 C   0  0  0  0  0  3  0  0  0  0  0  0
  193.9140  170.5070  143.5600 C   0  0  0  0  0  2  0  0  0  0  0  0
  193.2420  172.7970  142.7160 C   0  0  0  0  0  0  0  0  0  0  0  0
  192.8170  171.5570  143.4710 C   0  0  0  0  0  2  0  0  0  0  0  0
  195.2240  172.2240  144.9370 C   0  0  0  0  0  2  0  0  0  0  0  0
  195.6400  172.8290  143.6060 C   0  0  0  0  0  2  0  0  0  0  0  0
  194.4680  173.3580  142.8190 C   0  0  0  0  0  3  0  0  0  0  0  0
  194.8150  170.7570  144.7710 C   0  0  0  0  0  2  0  0  0  0  0  0
  191.5100  178.0740  149.5130 C   0  0  0  0  0  1  0  0  0  0  0  0
  191.5650  176.7820  148.7190 C   0  0  0  0  0  2  0  0  0  0  0  0
  186.7440  177.0010  144.0900 C   0  0  1  0  0  3  0  0  0  0  0  0
  185.2620  177.5880  146.0580 C   0  0  0  0  0  0  0  0  0  0  0  0
  185.3400  176.4160  146.5120 O   0  0  0  0  0  0  0  0  0  0  0  0
  185.9480  177.9520  144.8600 N   0  0  0  0  0  2  0  0  0  0  0  0
  184.4540  178.6050  146.7770 C   0  0  0  0  0  1  0  0  0  0  0  0
  184.9230  178.2100  142.6250 C   0  0  0  0  0  1  0  0  0  0  0  0
  186.0320  176.7870  142.4270 S   0  0  0  0  0  0  0  0  0  0  0  0
  1 27  1  0  0  0  0
  2  8  1  0  0  0  0
  2  6  2  0  0  0  0
  3  9  1  0  0  0  0
  3 20  1  1  0  0  0
  4  8  1  0  0  0  0
  5  9  1  0  0  0  0
  7 17  1  0  0  0  0
  7 13  1  1  0  0  0
  8  1  2  0  0  0  0
  9 16  1  6  0  0  0
  9  7  1  0  0  0  0
 10  5  1  6  0  0  0
 10 17  1  0  0  0  0
 11  4  2  0  0  0  0
 11 18  1  0  0  0  0
 12  1  1  0  0  0  0
 13  2  1  0  0  0  0
 14 10  1  0  0  0  0
 14 15  1  0  0  0  0
 15 28  1  1  0  0  0
 15 11  1  0  0  0  0
 16  3  1  0  0  0  0
 17  4  1  1  0  0  0
 18 12  2  0  0  0  0
 19 25  1  0  0  0  0
 20 24  2  0  0  0  0
 20 21  1  0  0  0  0
 21 19  1  0  0  0  0
 23 22  1  0  0  0  0
 24 23  1  0  0  0  0
 25 22  1  0  0  0  0
 27 26  1  0  0  0  0
 28 34  1  6  0  0  0
 28 31  1  0  0  0  0
 29 30  2  0  0  0  0
 29 32  1  0  0  0  0
 31 29  1  0  0  0  0
 34 33  1  0  0  0  0
M  END
>  <MODEL>
7

>  <REMARK>
 VINA RESULT:      -6.7      2.335      4.698
  Name = 
  5 active torsions:
  status: ('A' for Active; 'I' for Inactive)
    1  A    between atoms: C_1  and  C_19
    2  A    between atoms: C_3  and  C_13
    3  A    between atoms: C_12  and  N_23
    4  A    between atoms: C_12  and  S_27
    5  A    between atoms: C_12  and  C_28
                            x       y       z     vdW  Elec       q    Type
                         _______ _______ _______ _____ _____    ______ ____

>  <TORSDO>
F 5

$$$$
=
 OpenBabel11052418423D

 34 39  0  0  1  0  0  0  0  0999 V2000
  187.1570  177.9160  143.6030 C   0  0  0  0  0  0  0  0  0  0  0  0
  188.2130  176.3550  141.8340 C   0  0  0  0  0  0  0  0  0  0  0  0
  190.5460  172.2140  141.7860 C   0  0  1  0  0  3  0  0  0  0  0  0
  188.8980  176.3400  144.2230 C   0  0  0  0  0  0  0  0  0  0  0  0
  190.9400  173.2870  144.1990 C   0  0  0  0  0  2  0  0  0  0  0  0
  187.7740  176.9690  140.8250 O   0  0  0  0  0  0  0  0  0  0  0  0
  189.1900  174.3550  142.8940 C   0  0  2  0  0  3  0  0  0  0  0  0
  188.0960  176.9320  143.2200 C   0  0  0  0  0  0  0  0  0  0  0  0
  190.2020  173.2500  142.8650 C   0  0  1  0  0  0  0  0  0  0  0  0
  190.6480  174.5930  144.8140 N   0  0  2  0  0  0  0  0  0  0  0  0
  188.6760  176.5870  145.5790 C   0  0  0  0  0  0  0  0  0  0  0  0
  186.9890  178.2160  144.9650 C   0  0  0  0  0  3  0  0  0  0  0  0
  188.8590  175.0730  141.6660 N   0  0  0  0  0  2  0  0  0  0  0  0
  189.8310  174.3990  146.0180 C   0  0  0  0  0  2  0  0  0  0  0  0
  189.4050  175.7590  146.6120 C   0  0  1  0  0  3  0  0  0  0  0  0
  189.4290  171.9500  142.7760 C   0  0  0  0  0  2  0  0  0  0  0  0
  189.8980  175.3240  143.7820 C   0  0  2  0  0  3  0  0  0  0  0  0
  187.7280  177.5450  145.9470 C   0  0  0  0  0  3  0  0  0  0  0  0
  190.9850  173.0110  138.0990 C   0  0  0  0  0  2  0  0  0  0  0  0
  190.0580  172.6330  140.4250 C   0  0  0  0  0  0  0  0  0  0  0  0
  191.0280  173.4160  139.5650 C   0  0  0  0  0  2  0  0  0  0  0  0
  188.5770  173.8830  138.0940 C   0  0  0  0  0  2  0  0  0  0  0  0
  188.1910  172.5330  138.6790 C   0  0  0  0  0  2  0  0  0  0  0  0
  188.8110  172.2910  140.0320 C   0  0  0  0  0  3  0  0  0  0  0  0
  189.9100  173.7970  137.3450 C   0  0  0  0  0  2  0  0  0  0  0  0
  184.8730  178.0070  142.6670 C   0  0  0  0  0  1  0  0  0  0  0  0
  186.2700  178.5980  142.6140 C   0  0  0  0  0  2  0  0  0  0  0  0
  190.5960  176.4840  147.2560 C   0  0  1  0  0  3  0  0  0  0  0  0
  192.8620  176.4150  146.1290 C   0  0  0  0  0  0  0  0  0  0  0  0
  193.2520  175.4880  146.8880 O   0  0  0  0  0  0  0  0  0  0  0  0
  191.5440  176.9500  146.2500 N   0  0  0  0  0  2  0  0  0  0  0  0
  193.7800  176.9540  145.0940 C   0  0  0  0  0  1  0  0  0  0  0  0
  191.5660  177.8940  149.2540 C   0  0  0  0  0  1  0  0  0  0  0  0
  190.0330  177.8790  148.2840 S   0  0  0  0  0  0  0  0  0  0  0  0
  1 12  1  0  0  0  0
  2  8  1  0  0  0  0
  3 20  1  6  0  0  0
  3 16  1  0  0  0  0
  3  9  1  0  0  0  0
  4 11  2  0  0  0  0
  6  2  2  0  0  0  0
  7 13  1  6  0  0  0
  7 17  1  0  0  0  0
  8  1  2  0  0  0  0
  8  4  1  0  0  0  0
  9 16  1  1  0  0  0
  9  7  1  0  0  0  0
  9  5  1  0  0  0  0
 10  5  1  6  0  0  0
 10 14  1  0  0  0  0
 11 18  1  0  0  0  0
 11 15  1  0  0  0  0
 12 18  2  0  0  0  0
 13  2  1  0  0  0  0
 14 15  1  0  0  0  0
 15 28  1  6  0  0  0
 17  4  1  1  0  0  0
 17 10  1  0  0  0  0
 19 21  1  0  0  0  0
 21 20  1  0  0  0  0
 22 23  1  0  0  0  0
 23 24  1  0  0  0  0
 24 20  2  0  0  0  0
 25 22  1  0  0  0  0
 25 19  1  0  0  0  0
 27 26  1  0  0  0  0
 27  1  1  0  0  0  0
 28 31  1  6  0  0  0
 28 34  1  0  0  0  0
 29 31  1  0  0  0  0
 29 30  2  0  0  0  0
 32 29  1  0  0  0  0
 34 33  1  0  0  0  0
M  END
>  <MODEL>
8

>  <REMARK>
 VINA RESULT:      -6.6      2.273      6.197
  Name = 
  5 active torsions:
  status: ('A' for Active; 'I' for Inactive)
    1  A    between atoms: C_1  and  C_19
    2  A    between atoms: C_3  and  C_13
    3  A    between atoms: C_12  and  N_23
    4  A    between atoms: C_12  and  S_27
    5  A    between atoms: C_12  and  C_28
                            x       y       z     vdW  Elec       q    Type
                         _______ _______ _______ _____ _____    ______ ____

>  <TORSDO>
F 5

$$$$
=
 OpenBabel11052418423D

 34 39  0  0  1  0  0  0  0  0999 V2000
  191.6150  172.0280  141.7460 C   0  0  0  0  0  0  0  0  0  0  0  0
  190.3040  173.5920  143.3320 C   0  0  0  0  0  0  0  0  0  0  0  0
  190.7720  177.9960  145.0560 C   0  0  1  0  0  3  0  0  0  0  0  0
  192.7330  173.8620  142.8780 C   0  0  0  0  0  0  0  0  0  0  0  0
  193.2280  177.1530  144.4320 C   0  0  0  0  0  2  0  0  0  0  0  0
  189.2870  172.8570  143.4460 O   0  0  0  0  0  0  0  0  0  0  0  0
  191.4330  175.7730  143.5500 C   0  0  2  0  0  3  0  0  0  0  0  0
  191.5610  173.1010  142.6630 C   0  0  0  0  0  0  0  0  0  0  0  0
  191.7120  177.0000  144.3640 C   0  0  1  0  0  0  0  0  0  0  0  0
  193.8080  175.8650  144.0160 N   0  0  2  0  0  0  0  0  0  0  0  0
  193.8770  173.6810  142.1000 C   0  0  0  0  0  0  0  0  0  0  0  0
  192.7940  171.8020  141.0180 C   0  0  0  0  0  3  0  0  0  0  0  0
  190.2790  174.9350  143.8670 N   0  0  0  0  0  2  0  0  0  0  0  0
  194.5060  176.0290  142.7350 C   0  0  0  0  0  2  0  0  0  0  0  0
  195.0150  174.6680  142.2150 C   0  0  1  0  0  3  0  0  0  0  0  0
  191.1400  178.1740  143.5970 C   0  0  0  0  0  2  0  0  0  0  0  0
  192.6500  174.9720  143.8740 C   0  0  2  0  0  3  0  0  0  0  0  0
  193.9100  172.6320  141.1780 C   0  0  0  0  0  3  0  0  0  0  0  0
  187.4580  176.5610  143.8840 C   0  0  0  0  0  2  0  0  0  0  0  0
  189.3960  177.4230  145.2660 C   0  0  0  0  0  0  0  0  0  0  0  0
  188.3580  177.7430  144.2120 C   0  0  0  0  0  2  0  0  0  0  0  0
  186.6370  176.7190  146.3050 C   0  0  0  0  0  2  0  0  0  0  0  0
  187.8780  175.9220  146.6740 C   0  0  0  0  0  2  0  0  0  0  0  0
  189.1550  176.6570  146.3530 C   0  0  0  0  0  3  0  0  0  0  0  0
  186.2610  176.5030  144.8360 C   0  0  0  0  0  2  0  0  0  0  0  0
  190.7900  169.7030  141.6300 C   0  0  0  0  0  1  0  0  0  0  0  0
  190.4290  171.1660  141.4570 C   0  0  0  0  0  2  0  0  0  0  0  0
  196.1950  174.1560  143.0550 C   0  0  1  0  0  3  0  0  0  0  0  0
  195.7110  172.7480  145.1030 C   0  0  0  0  0  0  0  0  0  0  0  0
  195.8050  173.7510  145.8590 O   0  0  0  0  0  0  0  0  0  0  0  0
  195.8820  172.8820  143.6920 N   0  0  0  0  0  2  0  0  0  0  0  0
  195.4150  171.4140  145.6830 C   0  0  0  0  0  1  0  0  0  0  0  0
  197.5630  172.1920  141.9640 C   0  0  0  0  0  1  0  0  0  0  0  0
  197.7000  174.0000  142.0400 S   0  0  0  0  0  0  0  0  0  0  0  0
  1  8  1  0  0  0  0
  2  6  2  0  0  0  0
  2 13  1  0  0  0  0
  3 20  1  6  0  0  0
  7 13  1  1  0  0  0
  7 17  1  0  0  0  0
  7  9  1  0  0  0  0
  8  4  2  0  0  0  0
  8  2  1  0  0  0  0
  9 16  1  6  0  0  0
  9  5  1  0  0  0  0
  9  3  1  0  0  0  0
 10 14  1  6  0  0  0
 10  5  1  0  0  0  0
 11 15  1  0  0  0  0
 11  4  1  0  0  0  0
 12 18  1  0  0  0  0
 12  1  2  0  0  0  0
 15 14  1  0  0  0  0
 15 28  1  1  0  0  0
 16  3  1  0  0  0  0
 17  4  1  6  0  0  0
 17 10  1  0  0  0  0
 18 11  2  0  0  0  0
 19 21  1  0  0  0  0
 19 25  1  0  0  0  0
 20 24  2  0  0  0  0
 21 20  1  0  0  0  0
 22 23  1  0  0  0  0
 24 23  1  0  0  0  0
 25 22  1  0  0  0  0
 27 26  1  0  0  0  0
 27  1  1  0  0  0  0
 28 34  1  6  0  0  0
 28 31  1  0  0  0  0
 29 32  1  0  0  0  0
 29 30  2  0  0  0  0
 31 29  1  0  0  0  0
 33 34  1  0  0  0  0
M  END
>  <MODEL>
9

>  <REMARK>
 VINA RESULT:      -6.6      3.544      7.739
  Name = 
  5 active torsions:
  status: ('A' for Active; 'I' for Inactive)
    1  A    between atoms: C_1  and  C_19
    2  A    between atoms: C_3  and  C_13
    3  A    between atoms: C_12  and  N_23
    4  A    between atoms: C_12  and  S_27
    5  A    between atoms: C_12  and  C_28
                            x       y       z     vdW  Elec       q    Type
                         _______ _______ _______ _____ _____    ______ ____

>  <TORSDO>
F 5

$$$$
