=
 OpenBabel11052418263D

 27 31  0  0  1  0  0  0  0  0999 V2000
  189.9710  173.1740  143.9540 N   0  0  0  0  0  2  0  0  0  0  0  0
  189.4520  175.5590  143.8700 C   0  0  0  0  0  0  0  0  0  0  0  0
  187.8350  174.4500  142.3780 N   0  0  0  0  0  2  0  0  0  0  0  0
  186.6980  178.7530  144.4770 C   0  0  0  0  0  3  0  0  0  0  0  0
  185.3970  178.6510  143.9760 C   0  0  0  0  0  0  0  0  0  0  0  0
  189.7520  176.6040  144.9280 C   0  0  0  0  0  2  0  0  0  0  0  0
  185.9150  176.4690  143.0640 C   0  0  0  0  0  3  0  0  0  0  0  0
  190.8720  173.2450  140.4830 C   0  0  0  0  0  0  0  0  0  0  0  0
  185.0040  177.5090  143.2740 C   0  0  0  0  0  3  0  0  0  0  0  0
  191.6380  173.5730  139.5390 O   0  0  0  0  0  0  0  0  0  0  0  0
  187.2210  176.5600  143.5670 C   0  0  0  0  0  0  0  0  0  0  0  0
  190.4870  174.4900  143.5960 C   0  0  1  0  0  3  0  0  0  0  0  0
  184.4940  179.6860  144.1770 O   0  0  0  0  0  1  0  0  0  0  0  0
  187.6030  177.7050  144.2810 C   0  0  0  0  0  0  0  0  0  0  0  0
  189.3360  172.5100  142.8070 C   0  0  2  0  0  3  0  0  0  0  0  0
  188.2230  175.5020  143.2870 C   0  0  0  0  0  0  0  0  0  0  0  0
  189.6700  174.0910  140.7730 C   0  0  0  0  0  2  0  0  0  0  0  0
  188.9310  177.8000  144.7830 N   0  0  0  0  0  2  0  0  0  0  0  0
  191.2200  172.1670  141.3020 O   0  0  0  0  0  0  0  0  0  0  0  0
  190.2760  171.5130  142.1440 C   0  0  0  0  0  2  0  0  0  0  0  0
  188.6880  173.4400  141.7580 C   0  0  2  0  0  3  0  0  0  0  0  0
  194.3600  175.2300  145.3170 C   0  0  0  0  0  3  0  0  0  0  0  0
  191.8380  174.7280  144.2040 C   0  0  0  0  0  0  0  0  0  0  0  0
  192.7580  175.5370  143.5270 C   0  0  0  0  0  3  0  0  0  0  0  0
  194.0170  175.7860  144.0810 C   0  0  0  0  0  3  0  0  0  0  0  0
  193.4430  174.4260  146.0010 C   0  0  0  0  0  3  0  0  0  0  0  0
  192.1830  174.1760  145.4480 C   0  0  0  0  0  3  0  0  0  0  0  0
  2  6  1  0  0  0  0
  3 16  1  0  0  0  0
  5 13  1  0  0  0  0
  5  4  2  0  0  0  0
  7  9  2  0  0  0  0
  7 11  1  0  0  0  0
  8 17  1  0  0  0  0
  8 19  1  0  0  0  0
  9  5  1  0  0  0  0
 10  8  2  0  0  0  0
 11 14  2  0  0  0  0
 12  2  1  0  0  0  0
 12  1  1  0  0  0  0
 12 23  1  1  0  0  0
 14  4  1  0  0  0  0
 14 18  1  0  0  0  0
 15 20  1  6  0  0  0
 15  1  1  0  0  0  0
 16 11  1  0  0  0  0
 16  2  2  0  0  0  0
 18  6  1  0  0  0  0
 19 20  1  0  0  0  0
 21 17  1  1  0  0  0
 21  3  1  0  0  0  0
 21 15  1  0  0  0  0
 22 26  1  0  0  0  0
 23 27  1  0  0  0  0
 24 25  1  0  0  0  0
 24 23  2  0  0  0  0
 25 22  2  0  0  0  0
 27 26  2  0  0  0  0
M  END
>  <MODEL>
1

>  <REMARK>
 VINA RESULT:      -7.2      0.000      0.000
  Name = 
  1 active torsions:
  status: ('A' for Active; 'I' for Inactive)
    1  A    between atoms: C_9  and  C_15
                            x       y       z     vdW  Elec       q    Type
                         _______ _______ _______ _____ _____    ______ ____

>  <TORSDO>
F 1

$$$$
=
 OpenBabel11052418263D

 27 31  0  0  1  0  0  0  0  0999 V2000
  191.0940  176.3810  142.9280 N   0  0  0  0  0  2  0  0  0  0  0  0
  188.7090  176.0240  143.3110 C   0  0  0  0  0  0  0  0  0  0  0  0
  189.3350  177.9910  144.6570 N   0  0  0  0  0  2  0  0  0  0  0  0
  184.6940  177.4390  143.1160 C   0  0  0  0  0  3  0  0  0  0  0  0
  184.3830  178.7120  143.6040 C   0  0  0  0  0  0  0  0  0  0  0  0
  187.7230  175.3280  142.3910 C   0  0  0  0  0  2  0  0  0  0  0  0
  186.6980  179.0400  144.2340 C   0  0  0  0  0  3  0  0  0  0  0  0
  191.7590  175.6610  146.3780 C   0  0  0  0  0  0  0  0  0  0  0  0
  185.3840  179.5130  144.1580 C   0  0  0  0  0  3  0  0  0  0  0  0
  191.8390  174.8690  147.3530 O   0  0  0  0  0  0  0  0  0  0  0  0
  187.0210  177.7660  143.7430 C   0  0  0  0  0  0  0  0  0  0  0  0
  190.1010  175.4480  143.4460 C   0  0  1  0  0  3  0  0  0  0  0  0
  183.0780  179.1800  143.5360 O   0  0  0  0  0  1  0  0  0  0  0  0
  186.0110  176.9730  143.1770 C   0  0  0  0  0  0  0  0  0  0  0  0
  191.6180  177.2580  143.9840 C   0  0  2  0  0  3  0  0  0  0  0  0
  188.3910  177.2170  143.8860 C   0  0  0  0  0  0  0  0  0  0  0  0
  190.5120  176.4720  146.1990 C   0  0  0  0  0  2  0  0  0  0  0  0
  186.3380  175.6780  142.6870 N   0  0  0  0  0  2  0  0  0  0  0  0
  192.7860  175.6840  145.4300 O   0  0  0  0  0  0  0  0  0  0  0  0
  192.9550  176.7610  144.5150 C   0  0  0  0  0  2  0  0  0  0  0  0
  190.6490  177.5780  145.1430 C   0  0  2  0  0  3  0  0  0  0  0  0
  190.5920  171.4960  141.8190 C   0  0  0  0  0  3  0  0  0  0  0  0
  190.2910  174.0750  142.8690 C   0  0  0  0  0  0  0  0  0  0  0  0
  189.8810  172.9620  143.6100 C   0  0  0  0  0  3  0  0  0  0  0  0
  190.0340  171.6740  143.0880 C   0  0  0  0  0  3  0  0  0  0  0  0
  190.9980  172.6060  141.0710 C   0  0  0  0  0  3  0  0  0  0  0  0
  190.8460  173.8940  141.5930 C   0  0  0  0  0  3  0  0  0  0  0  0
  1 12  1  0  0  0  0
  1 15  1  0  0  0  0
  2 12  1  0  0  0  0
  2 16  2  0  0  0  0
  3 21  1  0  0  0  0
  4 14  2  0  0  0  0
  4  5  1  0  0  0  0
  5  9  2  0  0  0  0
  6 18  1  0  0  0  0
  6  2  1  0  0  0  0
  8 10  2  0  0  0  0
  9  7  1  0  0  0  0
 11 16  1  0  0  0  0
 11  7  2  0  0  0  0
 12 23  1  6  0  0  0
 13  5  1  0  0  0  0
 14 11  1  0  0  0  0
 15 20  1  1  0  0  0
 15 21  1  0  0  0  0
 16  3  1  0  0  0  0
 17  8  1  0  0  0  0
 18 14  1  0  0  0  0
 19  8  1  0  0  0  0
 20 19  1  0  0  0  0
 21 17  1  1  0  0  0
 22 25  1  0  0  0  0
 23 24  1  0  0  0  0
 25 24  2  0  0  0  0
 26 27  1  0  0  0  0
 26 22  2  0  0  0  0
 27 23  2  0  0  0  0
M  END
>  <MODEL>
2

>  <REMARK>
 VINA RESULT:      -7.1      2.184      4.365
  Name = 
  1 active torsions:
  status: ('A' for Active; 'I' for Inactive)
    1  A    between atoms: C_9  and  C_15
                            x       y       z     vdW  Elec       q    Type
                         _______ _______ _______ _____ _____    ______ ____

>  <TORSDO>
F 1

$$$$
=
 OpenBabel11052418263D

 27 31  0  0  1  0  0  0  0  0999 V2000
  189.3870  177.2620  143.1860 N   0  0  0  0  0  2  0  0  0  0  0  0
  189.4590  174.8560  142.7770 C   0  0  0  0  0  0  0  0  0  0  0  0
  187.7830  175.7680  141.2190 N   0  0  0  0  0  2  0  0  0  0  0  0
  190.1390  171.5880  140.1280 C   0  0  0  0  0  3  0  0  0  0  0  0
  189.5490  171.5880  138.8610 C   0  0  0  0  0  0  0  0  0  0  0  0
  190.6150  173.9100  143.0490 C   0  0  0  0  0  2  0  0  0  0  0  0
  188.5020  173.7170  139.3460 C   0  0  0  0  0  3  0  0  0  0  0  0
  185.9980  176.9700  144.3230 C   0  0  0  0  0  0  0  0  0  0  0  0
  188.7350  172.6530  138.4680 C   0  0  0  0  0  3  0  0  0  0  0  0
  185.1350  176.6080  145.1650 O   0  0  0  0  0  0  0  0  0  0  0  0
  189.0940  173.7280  140.6170 C   0  0  0  0  0  0  0  0  0  0  0  0
  189.1690  175.9490  143.7810 C   0  0  1  0  0  3  0  0  0  0  0  0
  189.7730  170.5290  137.9920 O   0  0  0  0  0  1  0  0  0  0  0  0
  189.9190  172.6600  140.9990 C   0  0  0  0  0  0  0  0  0  0  0  0
  188.1530  177.8050  142.6020 C   0  0  2  0  0  3  0  0  0  0  0  0
  188.7960  174.8080  141.5890 C   0  0  0  0  0  0  0  0  0  0  0  0
  186.2760  176.0910  143.1410 C   0  0  0  0  0  2  0  0  0  0  0  0
  190.5120  172.6680  142.2920 N   0  0  0  0  0  2  0  0  0  0  0  0
  186.7490  178.1230  144.5680 O   0  0  0  0  0  0  0  0  0  0  0  0
  187.4740  178.7920  143.5420 C   0  0  0  0  0  2  0  0  0  0  0  0
  187.1410  176.7680  142.0680 C   0  0  2  0  0  3  0  0  0  0  0  0
  191.1840  175.5320  147.5590 C   0  0  0  0  0  3  0  0  0  0  0  0
  189.8800  175.8230  145.0970 C   0  0  0  0  0  0  0  0  0  0  0  0
  189.2700  175.1120  146.1360 C   0  0  0  0  0  3  0  0  0  0  0  0
  189.9190  174.9690  147.3660 C   0  0  0  0  0  3  0  0  0  0  0  0
  191.8010  176.2390  146.5230 C   0  0  0  0  0  3  0  0  0  0  0  0
  191.1520  176.3830  145.2920 C   0  0  0  0  0  3  0  0  0  0  0  0
  1 12  1  0  0  0  0
  2  6  1  0  0  0  0
  2 12  1  0  0  0  0
  3 16  1  0  0  0  0
  3 21  1  0  0  0  0
  4 14  1  0  0  0  0
  5  4  2  0  0  0  0
  7 11  1  0  0  0  0
  8 19  1  0  0  0  0
  8 10  2  0  0  0  0
  9  5  1  0  0  0  0
  9  7  2  0  0  0  0
 11 14  2  0  0  0  0
 11 16  1  0  0  0  0
 12 23  1  1  0  0  0
 13  5  1  0  0  0  0
 14 18  1  0  0  0  0
 15  1  1  0  0  0  0
 15 20  1  1  0  0  0
 16  2  2  0  0  0  0
 17  8  1  0  0  0  0
 18  6  1  0  0  0  0
 20 19  1  0  0  0  0
 21 15  1  0  0  0  0
 21 17  1  1  0  0  0
 23 27  2  0  0  0  0
 23 24  1  0  0  0  0
 24 25  2  0  0  0  0
 25 22  1  0  0  0  0
 26 22  2  0  0  0  0
 27 26  1  0  0  0  0
M  END
>  <MODEL>
3

>  <REMARK>
 VINA RESULT:      -7.0      2.037      5.968
  Name = 
  1 active torsions:
  status: ('A' for Active; 'I' for Inactive)
    1  A    between atoms: C_9  and  C_15
                            x       y       z     vdW  Elec       q    Type
                         _______ _______ _______ _____ _____    ______ ____

>  <TORSDO>
F 1

$$$$
=
 OpenBabel11052418263D

 27 31  0  0  1  0  0  0  0  0999 V2000
  190.6430  175.6700  142.4050 N   0  0  0  0  0  2  0  0  0  0  0  0
  188.3770  175.5580  143.3070 C   0  0  0  0  0  0  0  0  0  0  0  0
  189.8700  175.8960  145.2380 N   0  0  0  0  0  2  0  0  0  0  0  0
  185.1790  177.3660  145.4680 C   0  0  0  0  0  3  0  0  0  0  0  0
  185.4320  177.9720  146.7020 C   0  0  0  0  0  0  0  0  0  0  0  0
  187.0810  175.8770  142.5840 C   0  0  0  0  0  2  0  0  0  0  0  0
  187.7700  177.3720  146.5220 C   0  0  0  0  0  3  0  0  0  0  0  0
  191.4930  172.6600  144.1620 C   0  0  0  0  0  0  0  0  0  0  0  0
  186.7260  177.9790  147.2270 C   0  0  0  0  0  3  0  0  0  0  0  0
  191.4180  171.4150  144.3360 O   0  0  0  0  0  0  0  0  0  0  0  0
  187.5280  176.7660  145.2800 C   0  0  0  0  0  0  0  0  0  0  0  0
  189.4640  174.8250  142.5540 C   0  0  1  0  0  3  0  0  0  0  0  0
  184.3940  178.5690  147.4060 O   0  0  0  0  0  1  0  0  0  0  0  0
  186.2270  176.7740  144.7560 C   0  0  0  0  0  0  0  0  0  0  0  0
  191.6000  175.4620  143.5010 C   0  0  2  0  0  3  0  0  0  0  0  0
  188.6060  176.0490  144.5560 C   0  0  0  0  0  0  0  0  0  0  0  0
  190.6180  173.5640  144.9770 C   0  0  0  0  0  2  0  0  0  0  0  0
  185.9810  176.1520  143.5000 N   0  0  0  0  0  2  0  0  0  0  0  0
  192.3060  173.1590  143.1410 O   0  0  0  0  0  0  0  0  0  0  0  0
  192.7240  174.5190  143.0950 C   0  0  0  0  0  2  0  0  0  0  0  0
  190.9960  175.0470  144.8600 C   0  0  2  0  0  3  0  0  0  0  0  0
  188.2620  173.0740  138.8130 C   0  0  0  0  0  3  0  0  0  0  0  0
  189.0510  174.2320  141.2380 C   0  0  0  0  0  0  0  0  0  0  0  0
  189.2200  172.8600  141.0260 C   0  0  0  0  0  3  0  0  0  0  0  0
  188.8280  172.2810  139.8150 C   0  0  0  0  0  3  0  0  0  0  0  0
  188.0860  174.4450  139.0210 C   0  0  0  0  0  3  0  0  0  0  0  0
  188.4770  175.0240  140.2320 C   0  0  0  0  0  3  0  0  0  0  0  0
  1 12  1  0  0  0  0
  1 15  1  0  0  0  0
  2 16  2  0  0  0  0
  4  5  1  0  0  0  0
  5  9  2  0  0  0  0
  5 13  1  0  0  0  0
  6  2  1  0  0  0  0
  6 18  1  0  0  0  0
  7  9  1  0  0  0  0
  8 10  2  0  0  0  0
  8 17  1  0  0  0  0
 11  7  2  0  0  0  0
 12 23  1  6  0  0  0
 12  2  1  0  0  0  0
 14 11  1  0  0  0  0
 14  4  2  0  0  0  0
 15 20  1  6  0  0  0
 15 21  1  0  0  0  0
 16  3  1  0  0  0  0
 16 11  1  0  0  0  0
 18 14  1  0  0  0  0
 19  8  1  0  0  0  0
 20 19  1  0  0  0  0
 21 17  1  6  0  0  0
 21  3  1  0  0  0  0
 22 26  2  0  0  0  0
 22 25  1  0  0  0  0
 24 23  1  0  0  0  0
 25 24  2  0  0  0  0
 26 27  1  0  0  0  0
 27 23  2  0  0  0  0
M  END
>  <MODEL>
4

>  <REMARK>
 VINA RESULT:      -6.9      2.063      4.468
  Name = 
  1 active torsions:
  status: ('A' for Active; 'I' for Inactive)
    1  A    between atoms: C_9  and  C_15
                            x       y       z     vdW  Elec       q    Type
                         _______ _______ _______ _____ _____    ______ ____

>  <TORSDO>
F 1

$$$$
=
 OpenBabel11052418263D

 27 31  0  0  1  0  0  0  0  0999 V2000
  189.4950  176.0010  142.4400 N   0  0  0  0  0  2  0  0  0  0  0  0
  191.5580  175.8520  143.7370 C   0  0  0  0  0  0  0  0  0  0  0  0
  192.0090  174.7200  141.5960 N   0  0  0  0  0  2  0  0  0  0  0  0
  195.7130  176.7010  144.1590 C   0  0  0  0  0  3  0  0  0  0  0  0
  196.5870  176.4280  143.1030 C   0  0  0  0  0  0  0  0  0  0  0  0
  192.0150  176.7790  144.8480 C   0  0  0  0  0  2  0  0  0  0  0  0
  194.7380  175.5830  141.7870 C   0  0  0  0  0  3  0  0  0  0  0  0
  189.1610  172.4310  142.5570 C   0  0  0  0  0  0  0  0  0  0  0  0
  196.1000  175.8740  141.9160 C   0  0  0  0  0  3  0  0  0  0  0  0
  188.9260  171.3560  143.1680 O   0  0  0  0  0  0  0  0  0  0  0  0
  193.8530  175.8580  142.8390 C   0  0  0  0  0  0  0  0  0  0  0  0
  190.0940  175.4810  143.6630 C   0  0  1  0  0  3  0  0  0  0  0  0
  197.9400  176.7100  143.2330 O   0  0  0  0  0  1  0  0  0  0  0  0
  194.3480  176.4250  144.0220 C   0  0  0  0  0  0  0  0  0  0  0  0
  189.5490  175.0180  141.3480 C   0  0  2  0  0  3  0  0  0  0  0  0
  192.4200  175.4840  142.7490 C   0  0  0  0  0  0  0  0  0  0  0  0
  190.5840  172.8610  142.3610 C   0  0  0  0  0  2  0  0  0  0  0  0
  193.4500  176.6960  145.0920 N   0  0  0  0  0  2  0  0  0  0  0  0
  188.0940  173.2480  142.1750 O   0  0  0  0  0  0  0  0  0  0  0  0
  188.2300  174.2730  141.1970 C   0  0  0  0  0  2  0  0  0  0  0  0
  190.7380  174.0330  141.3810 C   0  0  2  0  0  3  0  0  0  0  0  0
  187.6980  176.5370  147.0760 C   0  0  0  0  0  3  0  0  0  0  0  0
  189.2740  175.8420  144.8670 C   0  0  0  0  0  0  0  0  0  0  0  0
  188.4470  176.9700  144.8140 C   0  0  0  0  0  3  0  0  0  0  0  0
  187.6620  177.3180  145.9170 C   0  0  0  0  0  3  0  0  0  0  0  0
  188.5180  175.4060  147.1320 C   0  0  0  0  0  3  0  0  0  0  0  0
  189.3030  175.0570  146.0300 C   0  0  0  0  0  3  0  0  0  0  0  0
  1 12  1  0  0  0  0
  2  6  1  0  0  0  0
  3 16  1  0  0  0  0
  5 13  1  0  0  0  0
  5  4  2  0  0  0  0
  6 18  1  0  0  0  0
  7  9  2  0  0  0  0
  7 11  1  0  0  0  0
  8 10  2  0  0  0  0
  9  5  1  0  0  0  0
 11 14  2  0  0  0  0
 12  2  1  0  0  0  0
 12 23  1  1  0  0  0
 14  4  1  0  0  0  0
 14 18  1  0  0  0  0
 15 20  1  1  0  0  0
 15 21  1  0  0  0  0
 15  1  1  0  0  0  0
 16 11  1  0  0  0  0
 16  2  2  0  0  0  0
 17  8  1  0  0  0  0
 19  8  1  0  0  0  0
 20 19  1  0  0  0  0
 21  3  1  0  0  0  0
 21 17  1  1  0  0  0
 22 26  1  0  0  0  0
 23 27  1  0  0  0  0
 24 23  2  0  0  0  0
 24 25  1  0  0  0  0
 25 22  2  0  0  0  0
 27 26  2  0  0  0  0
M  END
>  <MODEL>
5

>  <REMARK>
 VINA RESULT:      -6.9      2.653      6.158
  Name = 
  1 active torsions:
  status: ('A' for Active; 'I' for Inactive)
    1  A    between atoms: C_9  and  C_15
                            x       y       z     vdW  Elec       q    Type
                         _______ _______ _______ _____ _____    ______ ____

>  <TORSDO>
F 1

$$$$
=
 OpenBabel11052418263D

 27 31  0  0  1  0  0  0  0  0999 V2000
  189.5270  174.7430  145.1380 N   0  0  0  0  0  2  0  0  0  0  0  0
  191.5590  175.7320  144.2130 C   0  0  0  0  0  0  0  0  0  0  0  0
  192.0770  175.1610  146.5520 N   0  0  0  0  0  2  0  0  0  0  0  0
  195.6910  175.4130  143.2230 C   0  0  0  0  0  3  0  0  0  0  0  0
  196.5950  174.9220  144.1700 C   0  0  0  0  0  0  0  0  0  0  0  0
  191.9770  175.7820  142.7540 C   0  0  0  0  0  2  0  0  0  0  0  0
  194.7900  174.6650  145.7630 C   0  0  0  0  0  3  0  0  0  0  0  0
  189.2320  177.4860  147.4300 C   0  0  0  0  0  0  0  0  0  0  0  0
  196.1450  174.5440  145.4370 C   0  0  0  0  0  3  0  0  0  0  0  0
  188.9940  178.6940  147.6940 O   0  0  0  0  0  0  0  0  0  0  0  0
  193.8750  175.1510  144.8180 C   0  0  0  0  0  0  0  0  0  0  0  0
  190.1020  175.9500  144.5530 C   0  0  1  0  0  3  0  0  0  0  0  0
  197.9410  174.8090  143.8500 O   0  0  0  0  0  1  0  0  0  0  0  0
  194.3340  175.5170  143.5450 C   0  0  0  0  0  0  0  0  0  0  0  0
  189.6210  174.7530  146.6050 C   0  0  2  0  0  3  0  0  0  0  0  0
  192.4500  175.3590  145.1720 C   0  0  0  0  0  0  0  0  0  0  0  0
  190.6550  177.0460  147.2530 C   0  0  0  0  0  2  0  0  0  0  0  0
  193.4060  176.0180  142.5890 N   0  0  0  0  0  2  0  0  0  0  0  0
  188.1660  176.6130  147.2010 O   0  0  0  0  0  0  0  0  0  0  0  0
  188.3150  175.1980  147.2470 C   0  0  0  0  0  2  0  0  0  0  0  0
  190.8200  175.5210  147.2030 C   0  0  2  0  0  3  0  0  0  0  0  0
  187.6070  177.4090  141.3670 C   0  0  0  0  0  3  0  0  0  0  0  0
  189.2470  176.4720  143.4360 C   0  0  0  0  0  0  0  0  0  0  0  0
  188.3730  175.5980  142.7810 C   0  0  0  0  0  3  0  0  0  0  0  0
  187.5560  176.0650  141.7470 C   0  0  0  0  0  3  0  0  0  0  0  0
  188.4740  178.2890  142.0220 C   0  0  0  0  0  3  0  0  0  0  0  0
  189.2920  177.8230  143.0560 C   0  0  0  0  0  3  0  0  0  0  0  0
  1 15  1  0  0  0  0
  2 12  1  0  0  0  0
  2 16  2  0  0  0  0
  3 21  1  0  0  0  0
  4 14  2  0  0  0  0
  4  5  1  0  0  0  0
  5  9  2  0  0  0  0
  6  2  1  0  0  0  0
  8 10  2  0  0  0  0
  9  7  1  0  0  0  0
 11 16  1  0  0  0  0
 11  7  2  0  0  0  0
 12 23  1  6  0  0  0
 12  1  1  0  0  0  0
 13  5  1  0  0  0  0
 14 11  1  0  0  0  0
 15 21  1  0  0  0  0
 15 20  1  1  0  0  0
 16  3  1  0  0  0  0
 17  8  1  0  0  0  0
 18  6  1  0  0  0  0
 18 14  1  0  0  0  0
 19 20  1  0  0  0  0
 19  8  1  0  0  0  0
 21 17  1  6  0  0  0
 22 25  2  0  0  0  0
 22 26  1  0  0  0  0
 24 23  2  0  0  0  0
 25 24  1  0  0  0  0
 26 27  2  0  0  0  0
 27 23  1  0  0  0  0
M  END
>  <MODEL>
6

>  <REMARK>
 VINA RESULT:      -6.7      3.275      7.410
  Name = 
  1 active torsions:
  status: ('A' for Active; 'I' for Inactive)
    1  A    between atoms: C_9  and  C_15
                            x       y       z     vdW  Elec       q    Type
                         _______ _______ _______ _____ _____    ______ ____

>  <TORSDO>
F 1

$$$$
=
 OpenBabel11052418263D

 27 31  0  0  1  0  0  0  0  0999 V2000
  190.1270  174.1850  145.7480 N   0  0  0  0  0  2  0  0  0  0  0  0
  191.5960  175.1060  144.0280 C   0  0  0  0  0  0  0  0  0  0  0  0
  191.9510  176.4780  146.0430 N   0  0  0  0  0  2  0  0  0  0  0  0
  195.5130  176.0900  142.6710 C   0  0  0  0  0  3  0  0  0  0  0  0
  196.3840  176.7890  143.5130 C   0  0  0  0  0  0  0  0  0  0  0  0
  192.1640  174.3840  142.8200 C   0  0  0  0  0  2  0  0  0  0  0  0
  194.6760  176.8560  145.2280 C   0  0  0  0  0  3  0  0  0  0  0  0
  188.2610  177.2470  145.7980 C   0  0  0  0  0  0  0  0  0  0  0  0
  195.9670  177.1680  144.7910 C   0  0  0  0  0  3  0  0  0  0  0  0
  187.4590  178.0700  145.2830 O   0  0  0  0  0  0  0  0  0  0  0  0
  193.7970  176.1510  144.3920 C   0  0  0  0  0  0  0  0  0  0  0  0
  190.1680  174.8190  144.4350 C   0  0  1  0  0  3  0  0  0  0  0  0
  197.6630  177.1050  143.0780 O   0  0  0  0  0  1  0  0  0  0  0  0
  194.2280  175.7640  143.1150 C   0  0  0  0  0  0  0  0  0  0  0  0
  189.9790  175.1740  146.8240 C   0  0  2  0  0  3  0  0  0  0  0  0
  192.3990  175.8800  144.8080 C   0  0  0  0  0  0  0  0  0  0  0  0
  189.7350  177.4840  145.6620 C   0  0  0  0  0  2  0  0  0  0  0  0
  193.3330  175.0560  142.2650 N   0  0  0  0  0  2  0  0  0  0  0  0
  187.7610  176.0830  146.3880 O   0  0  0  0  0  0  0  0  0  0  0  0
  188.5320  175.2910  147.2850 C   0  0  0  0  0  2  0  0  0  0  0  0
  190.5850  176.5680  146.5530 C   0  0  2  0  0  3  0  0  0  0  0  0
  187.8410  172.6660  141.5270 C   0  0  0  0  0  3  0  0  0  0  0  0
  189.3520  174.0520  143.4350 C   0  0  0  0  0  0  0  0  0  0  0  0
  188.5830  174.7550  142.5010 C   0  0  0  0  0  3  0  0  0  0  0  0
  187.8270  174.0630  141.5500 C   0  0  0  0  0  3  0  0  0  0  0  0
  188.6120  171.9590  142.4540 C   0  0  0  0  0  3  0  0  0  0  0  0
  189.3690  172.6490  143.4060 C   0  0  0  0  0  3  0  0  0  0  0  0
  1 15  1  0  0  0  0
  2 12  1  0  0  0  0
  2 16  2  0  0  0  0
  3 21  1  0  0  0  0
  4 14  2  0  0  0  0
  4  5  1  0  0  0  0
  5  9  2  0  0  0  0
  6  2  1  0  0  0  0
  8 19  1  0  0  0  0
  9  7  1  0  0  0  0
 10  8  2  0  0  0  0
 11 16  1  0  0  0  0
 11  7  2  0  0  0  0
 12 23  1  6  0  0  0
 12  1  1  0  0  0  0
 13  5  1  0  0  0  0
 14 11  1  0  0  0  0
 15 20  1  6  0  0  0
 16  3  1  0  0  0  0
 17  8  1  0  0  0  0
 18  6  1  0  0  0  0
 18 14  1  0  0  0  0
 19 20  1  0  0  0  0
 21 17  1  6  0  0  0
 21 15  1  0  0  0  0
 22 25  2  0  0  0  0
 22 26  1  0  0  0  0
 24 23  2  0  0  0  0
 25 24  1  0  0  0  0
 26 27  2  0  0  0  0
 27 23  1  0  0  0  0
M  END
>  <MODEL>
7

>  <REMARK>
 VINA RESULT:      -6.6      3.050      6.970
  Name = 
  1 active torsions:
  status: ('A' for Active; 'I' for Inactive)
    1  A    between atoms: C_9  and  C_15
                            x       y       z     vdW  Elec       q    Type
                         _______ _______ _______ _____ _____    ______ ____

>  <TORSDO>
F 1

$$$$
=
 OpenBabel11052418263D

 27 31  0  0  1  0  0  0  0  0999 V2000
  192.3240  175.6140  142.1000 N   0  0  0  0  0  2  0  0  0  0  0  0
  189.9860  175.1320  142.6130 C   0  0  0  0  0  0  0  0  0  0  0  0
  190.7940  176.6060  144.4130 N   0  0  0  0  0  2  0  0  0  0  0  0
  186.0050  176.4950  143.2890 C   0  0  0  0  0  3  0  0  0  0  0  0
  185.7760  177.5570  144.1680 C   0  0  0  0  0  0  0  0  0  0  0  0
  188.8920  174.7360  141.6370 C   0  0  0  0  0  2  0  0  0  0  0  0
  188.1510  177.7040  144.6140 C   0  0  0  0  0  3  0  0  0  0  0  0
  193.3350  173.8910  145.0790 C   0  0  0  0  0  0  0  0  0  0  0  0
  186.8480  178.1640  144.8270 C   0  0  0  0  0  3  0  0  0  0  0  0
  193.5010  172.8420  145.7550 O   0  0  0  0  0  0  0  0  0  0  0  0
  188.3920  176.6430  143.7300 C   0  0  0  0  0  0  0  0  0  0  0  0
  191.3700  174.5570  142.4170 C   0  0  1  0  0  3  0  0  0  0  0  0
  184.4820  178.0090  144.3860 O   0  0  0  0  0  1  0  0  0  0  0  0
  187.3110  176.0470  143.0630 C   0  0  0  0  0  0  0  0  0  0  0  0
  192.9760  176.1360  143.3090 C   0  0  2  0  0  3  0  0  0  0  0  0
  189.7570  176.0910  143.5510 C   0  0  0  0  0  0  0  0  0  0  0  0
  192.0940  174.7050  145.2890 C   0  0  0  0  0  2  0  0  0  0  0  0
  187.5550  174.9650  142.1730 N   0  0  0  0  0  2  0  0  0  0  0  0
  194.2560  174.2110  144.0770 O   0  0  0  0  0  0  0  0  0  0  0  0
  194.3510  175.5170  143.5170 C   0  0  0  0  0  2  0  0  0  0  0  0
  192.1430  176.0800  144.6080 C   0  0  2  0  0  3  0  0  0  0  0  0
  191.7000  171.3400  139.5790 C   0  0  0  0  0  3  0  0  0  0  0  0
  191.4680  173.4260  141.4350 C   0  0  0  0  0  0  0  0  0  0  0  0
  191.9270  173.6850  140.1390 C   0  0  0  0  0  3  0  0  0  0  0  0
  192.0400  172.6460  139.2110 C   0  0  0  0  0  3  0  0  0  0  0  0
  191.2460  171.0740  140.8740 C   0  0  0  0  0  3  0  0  0  0  0  0
  191.1320  172.1130  141.8020 C   0  0  0  0  0  3  0  0  0  0  0  0
  1 12  1  0  0  0  0
  1 15  1  0  0  0  0
  2 16  2  0  0  0  0
  3 21  1  0  0  0  0
  4  5  1  0  0  0  0
  5 13  1  0  0  0  0
  5  9  2  0  0  0  0
  6 18  1  0  0  0  0
  6  2  1  0  0  0  0
  7  9  1  0  0  0  0
  8 17  1  0  0  0  0
  8 10  2  0  0  0  0
 11  7  2  0  0  0  0
 12 23  1  6  0  0  0
 12  2  1  0  0  0  0
 14  4  2  0  0  0  0
 14 11  1  0  0  0  0
 15 20  1  1  0  0  0
 15 21  1  0  0  0  0
 16 11  1  0  0  0  0
 16  3  1  0  0  0  0
 18 14  1  0  0  0  0
 19  8  1  0  0  0  0
 20 19  1  0  0  0  0
 21 17  1  6  0  0  0
 22 26  1  0  0  0  0
 23 27  1  0  0  0  0
 24 23  2  0  0  0  0
 25 22  2  0  0  0  0
 25 24  1  0  0  0  0
 26 27  2  0  0  0  0
M  END
>  <MODEL>
8

>  <REMARK>
 VINA RESULT:      -6.6      1.919      4.253
  Name = 
  1 active torsions:
  status: ('A' for Active; 'I' for Inactive)
    1  A    between atoms: C_9  and  C_15
                            x       y       z     vdW  Elec       q    Type
                         _______ _______ _______ _____ _____    ______ ____

>  <TORSDO>
F 1

$$$$
=
 OpenBabel11052418263D

 27 31  0  0  1  0  0  0  0  0999 V2000
  192.3660  173.9220  142.4100 N   0  0  0  0  0  2  0  0  0  0  0  0
  191.2870  174.4120  144.5450 C   0  0  0  0  0  0  0  0  0  0  0  0
  191.4940  176.5670  143.3680 N   0  0  0  0  0  2  0  0  0  0  0  0
  187.9540  175.9270  146.7250 C   0  0  0  0  0  3  0  0  0  0  0  0
  187.4110  177.1710  146.3870 C   0  0  0  0  0  0  0  0  0  0  0  0
  190.4700  173.4630  145.4030 C   0  0  0  0  0  2  0  0  0  0  0  0
  189.0690  177.4220  144.6400 C   0  0  0  0  0  3  0  0  0  0  0  0
  195.2080  175.8770  143.3950 C   0  0  0  0  0  0  0  0  0  0  0  0
  187.9650  177.9160  145.3440 C   0  0  0  0  0  3  0  0  0  0  0  0
  196.2390  176.0670  144.0910 O   0  0  0  0  0  0  0  0  0  0  0  0
  189.6160  176.1730  144.9680 C   0  0  0  0  0  0  0  0  0  0  0  0
  192.5260  173.8810  143.8590 C   0  0  1  0  0  3  0  0  0  0  0  0
  186.3210  177.6650  147.0900 O   0  0  0  0  0  1  0  0  0  0  0  0
  189.0460  175.4270  146.0100 C   0  0  0  0  0  0  0  0  0  0  0  0
  192.8850  175.1750  141.8420 C   0  0  2  0  0  3  0  0  0  0  0  0
  190.8330  175.6690  144.2850 C   0  0  0  0  0  0  0  0  0  0  0  0
  193.9150  176.5020  143.8240 C   0  0  0  0  0  2  0  0  0  0  0  0
  189.6080  174.1640  146.3470 N   0  0  0  0  0  2  0  0  0  0  0  0
  195.2700  175.0030  142.3060 O   0  0  0  0  0  0  0  0  0  0  0  0
  194.2870  174.9970  141.2760 C   0  0  0  0  0  2  0  0  0  0  0  0
  192.8130  176.4160  142.7580 C   0  0  2  0  0  3  0  0  0  0  0  0
  193.8500  169.9850  145.1130 C   0  0  0  0  0  3  0  0  0  0  0  0
  192.9890  172.5290  144.3170 C   0  0  0  0  0  0  0  0  0  0  0  0
  192.4920  171.3870  143.6800 C   0  0  0  0  0  3  0  0  0  0  0  0
  192.9200  170.1170  144.0790 C   0  0  0  0  0  3  0  0  0  0  0  0
  194.3550  171.1240  145.7500 C   0  0  0  0  0  3  0  0  0  0  0  0
  193.9270  172.3940  145.3520 C   0  0  0  0  0  3  0  0  0  0  0  0
  1 12  1  0  0  0  0
  2  6  1  0  0  0  0
  3 16  1  0  0  0  0
  5  4  1  0  0  0  0
  5 13  1  0  0  0  0
  6 18  1  0  0  0  0
  7 11  2  0  0  0  0
  7  9  1  0  0  0  0
  8 17  1  0  0  0  0
  8 10  2  0  0  0  0
  9  5  2  0  0  0  0
 11 14  1  0  0  0  0
 12 23  1  1  0  0  0
 12  2  1  0  0  0  0
 14 18  1  0  0  0  0
 14  4  2  0  0  0  0
 15 20  1  1  0  0  0
 15  1  1  0  0  0  0
 15 21  1  0  0  0  0
 16  2  2  0  0  0  0
 16 11  1  0  0  0  0
 19  8  1  0  0  0  0
 20 19  1  0  0  0  0
 21  3  1  0  0  0  0
 21 17  1  1  0  0  0
 22 26  1  0  0  0  0
 23 27  1  0  0  0  0
 24 25  1  0  0  0  0
 24 23  2  0  0  0  0
 25 22  2  0  0  0  0
 27 26  2  0  0  0  0
M  END
>  <MODEL>
9

>  <REMARK>
 VINA RESULT:      -6.5      2.848      4.213
  Name = 
  1 active torsions:
  status: ('A' for Active; 'I' for Inactive)
    1  A    between atoms: C_9  and  C_15
                            x       y       z     vdW  Elec       q    Type
                         _______ _______ _______ _____ _____    ______ ____

>  <TORSDO>
F 1

$$$$
