=
 OpenBabel11052417173D

 30 32  0  0  1  0  0  0  0  0999 V2000
  187.8180  177.1250  146.7170 C   0  0  0  0  0  2  0  0  0  0  0  0
  185.7680  178.3250  147.4990 C   0  0  2  0  0  3  0  0  0  0  0  0
  186.9190  178.2240  142.6500 N   0  0  0  0  0  2  0  0  0  0  0  0
  188.9590  177.1050  145.6910 C   0  0  2  0  0  3  0  0  0  0  0  0
  187.8090  177.9620  141.5240 C   0  0  0  0  0  2  0  0  0  0  0  0
  184.5830  177.6870  147.0790 O   0  0  0  0  0  0  0  0  0  0  0  0
  185.5290  179.6300  147.9040 F   0  0  0  0  0  0  0  0  0  0  0  0
  187.2890  177.9020  144.0000 C   0  0  0  0  0  0  0  0  0  0  0  0
  184.0830  178.4160  145.9900 C   0  0  0  0  0  2  0  0  0  0  0  0
  186.8720  178.2750  146.4340 C   0  0  2  0  0  3  0  0  0  0  0  0
  188.5280  177.4300  144.2700 C   0  0  0  0  0  0  0  0  0  0  0  0
  189.2500  178.1630  141.9650 C   0  0  0  0  0  2  0  0  0  0  0  0
  189.5310  177.2480  143.1550 C   0  0  0  0  0  2  0  0  0  0  0  0
  184.9210  178.1330  144.7530 C   0  0  0  0  0  2  0  0  0  0  0  0
  186.3530  178.1430  145.0650 N   0  0  0  0  0  0  0  0  0  0  0  0
  189.7730  175.7990  145.7640 C   0  0  2  0  0  3  0  0  0  0  0  0
  189.3030  174.7490  144.9350 O   0  0  0  0  0  0  0  0  0  0  0  0
  191.3400  174.2810  143.7620 C   0  0  0  0  0  1  0  0  0  0  0  0
  190.3130  173.7870  144.7660 C   0  0  2  0  0  3  0  0  0  0  0  0
  189.3420  171.6780  145.1400 O   0  0  0  0  0  0  0  0  0  0  0  0
  189.7210  172.4890  144.3100 C   0  0  0  0  0  0  0  0  0  0  0  0
  189.6240  172.1590  142.8510 C   0  0  0  0  0  2  0  0  0  0  0  0
  188.4210  173.9050  141.7550 O   0  0  0  0  0  1  0  0  0  0  0  0
  188.2950  172.6170  142.2730 C   0  0  0  0  0  2  0  0  0  0  0  0
  190.1490  175.3740  147.1870 C   0  0  0  0  0  2  0  0  0  0  0  0
  191.4620  176.0140  147.6120 C   0  0  0  0  0  2  0  0  0  0  0  0
  192.5660  175.3230  147.0350 O   0  0  0  0  0  0  0  0  0  0  0  0
  193.1330  176.9010  145.4420 O   0  0  0  0  0  0  0  0  0  0  0  0
  193.4850  175.9520  146.1930 C   0  0  0  0  0  0  0  0  0  0  0  0
  194.9000  175.5010  146.1890 C   0  0  0  0  0  1  0  0  0  0  0  0
  2  7  1  6  0  0  0
  3  8  1  0  0  0  0
  4 16  1  6  0  0  0
  4  1  1  0  0  0  0
  5 12  1  0  0  0  0
  5  3  1  0  0  0  0
  6  2  1  0  0  0  0
  8 11  2  0  0  0  0
  8 15  1  0  0  0  0
  9  6  1  0  0  0  0
 10  1  1  1  0  0  0
 10  2  1  0  0  0  0
 11  4  1  0  0  0  0
 12 13  1  0  0  0  0
 13 11  1  0  0  0  0
 14 15  1  0  0  0  0
 14  9  1  0  0  0  0
 15 10  1  0  0  0  0
 16 25  1  1  0  0  0
 17 16  1  0  0  0  0
 19 18  1  6  0  0  0
 19 17  1  0  0  0  0
 21 19  1  0  0  0  0
 21 20  2  0  0  0  0
 22 21  1  0  0  0  0
 23 24  1  0  0  0  0
 24 22  1  0  0  0  0
 25 26  1  0  0  0  0
 27 26  1  0  0  0  0
 28 29  2  0  0  0  0
 29 27  1  0  0  0  0
 30 29  1  0  0  0  0
M  END
>  <MODEL>
1

>  <REMARK>
 VINA RESULT:      -6.5      0.000      0.000
  Name = 
  10 active torsions:
  status: ('A' for Active; 'I' for Inactive)
    1  A    between atoms: C_4  and  C_27
    2  A    between atoms: C_5  and  C_12
    3  A    between atoms: C_5  and  C_21
    4  A    between atoms: O_7  and  C_15
    5  A    between atoms: O_7  and  C_16
    6  A    between atoms: C_8  and  C_12
    7  A    between atoms: C_8  and  O_13
    8  A    between atoms: O_13  and  C_27
    9  A    between atoms: C_16  and  C_30
   10  A    between atoms: C_27  and  C_30
                            x       y       z     vdW  Elec       q    Type
                         _______ _______ _______ _____ _____    ______ ____

>  <TORSDO>
F 10

$$$$
=
 OpenBabel11052417173D

 30 32  0  0  1  0  0  0  0  0999 V2000
  191.2830  176.1730  145.7800 C   0  0  0  0  0  2  0  0  0  0  0  0
  193.7410  176.4000  146.1840 C   0  0  2  0  0  3  0  0  0  0  0  0
  192.0740  174.0210  142.1330 N   0  0  0  0  0  2  0  0  0  0  0  0
  190.1720  175.2840  145.2060 C   0  0  2  0  0  3  0  0  0  0  0  0
  191.0360  173.3950  141.3210 C   0  0  0  0  0  2  0  0  0  0  0  0
  194.3590  177.2520  145.2470 O   0  0  0  0  0  0  0  0  0  0  0  0
  194.6690  175.6130  146.8490 F   0  0  0  0  0  0  0  0  0  0  0  0
  191.7730  174.6710  143.3790 C   0  0  0  0  0  0  0  0  0  0  0  0
  195.0140  176.4370  144.3130 C   0  0  0  0  0  2  0  0  0  0  0  0
  192.6400  175.5350  145.5550 C   0  0  2  0  0  3  0  0  0  0  0  0
  190.5160  174.6290  143.8780 C   0  0  0  0  0  0  0  0  0  0  0  0
  189.9780  172.7940  142.2320 C   0  0  0  0  0  2  0  0  0  0  0  0
  189.4260  173.8940  143.1350 C   0  0  0  0  0  2  0  0  0  0  0  0
  193.9950  175.8040  143.3770 C   0  0  0  0  0  2  0  0  0  0  0  0
  192.8290  175.3080  144.1150 N   0  0  0  0  0  0  0  0  0  0  0  0
  188.8180  176.0180  145.1560 C   0  0  2  0  0  3  0  0  0  0  0  0
  188.8470  177.2910  144.5310 O   0  0  0  0  0  0  0  0  0  0  0  0
  188.9270  177.9850  142.2380 C   0  0  0  0  0  1  0  0  0  0  0  0
  188.1530  177.2380  143.3100 C   0  0  2  0  0  3  0  0  0  0  0  0
  186.6480  178.8840  144.0550 O   0  0  0  0  0  0  0  0  0  0  0  0
  186.7830  177.8240  143.4670 C   0  0  0  0  0  0  0  0  0  0  0  0
  185.5760  177.1050  142.9440 C   0  0  0  0  0  2  0  0  0  0  0  0
  185.5650  178.3540  140.9110 O   0  0  0  0  0  1  0  0  0  0  0  0
  184.7770  177.9890  142.0020 C   0  0  0  0  0  2  0  0  0  0  0  0
  188.0270  175.9650  146.4660 C   0  0  0  0  0  2  0  0  0  0  0  0
  187.7860  177.3670  147.0070 C   0  0  0  0  0  2  0  0  0  0  0  0
  186.4930  177.4600  147.5980 O   0  0  0  0  0  0  0  0  0  0  0  0
  185.9010  179.6950  147.6490 O   0  0  0  0  0  0  0  0  0  0  0  0
  185.6170  178.5110  147.3220 C   0  0  0  0  0  0  0  0  0  0  0  0
  184.3350  178.2300  146.6260 C   0  0  0  0  0  1  0  0  0  0  0  0
  2  7  1  6  0  0  0
  3  8  1  0  0  0  0
  4 16  1  6  0  0  0
  4  1  1  0  0  0  0
  5  3  1  0  0  0  0
  5 12  1  0  0  0  0
  6  2  1  0  0  0  0
  8 11  2  0  0  0  0
  8 15  1  0  0  0  0
  9  6  1  0  0  0  0
 10  1  1  6  0  0  0
 10  2  1  0  0  0  0
 11  4  1  0  0  0  0
 12 13  1  0  0  0  0
 13 11  1  0  0  0  0
 14 15  1  0  0  0  0
 14  9  1  0  0  0  0
 15 10  1  0  0  0  0
 16 25  1  1  0  0  0
 17 16  1  0  0  0  0
 19 18  1  6  0  0  0
 19 21  1  0  0  0  0
 19 17  1  0  0  0  0
 21 20  2  0  0  0  0
 22 21  1  0  0  0  0
 23 24  1  0  0  0  0
 24 22  1  0  0  0  0
 25 26  1  0  0  0  0
 26 27  1  0  0  0  0
 29 27  1  0  0  0  0
 29 28  2  0  0  0  0
 30 29  1  0  0  0  0
M  END
>  <MODEL>
2

>  <REMARK>
 VINA RESULT:      -6.4      3.180      6.658
  Name = 
  10 active torsions:
  status: ('A' for Active; 'I' for Inactive)
    1  A    between atoms: C_4  and  C_27
    2  A    between atoms: C_5  and  C_12
    3  A    between atoms: C_5  and  C_21
    4  A    between atoms: O_7  and  C_15
    5  A    between atoms: O_7  and  C_16
    6  A    between atoms: C_8  and  C_12
    7  A    between atoms: C_8  and  O_13
    8  A    between atoms: O_13  and  C_27
    9  A    between atoms: C_16  and  C_30
   10  A    between atoms: C_27  and  C_30
                            x       y       z     vdW  Elec       q    Type
                         _______ _______ _______ _____ _____    ______ ____

>  <TORSDO>
F 10

$$$$
=
 OpenBabel11052417173D

 30 32  0  0  1  0  0  0  0  0999 V2000
  187.8390  175.2280  142.5520 C   0  0  0  0  0  2  0  0  0  0  0  0
  188.3440  172.9520  141.6460 C   0  0  2  0  0  3  0  0  0  0  0  0
  191.9420  175.6490  143.7980 N   0  0  0  0  0  2  0  0  0  0  0  0
  188.3830  176.6430  142.7940 C   0  0  2  0  0  3  0  0  0  0  0  0
  192.4980  176.8790  144.3510 C   0  0  0  0  0  2  0  0  0  0  0  0
  188.6340  172.0250  142.6670 O   0  0  0  0  0  0  0  0  0  0  0  0
  188.7670  172.4980  140.4070 F   0  0  0  0  0  0  0  0  0  0  0  0
  190.5850  175.5740  143.3310 C   0  0  0  0  0  0  0  0  0  0  0  0
  190.0270  171.8610  142.6950 C   0  0  0  0  0  2  0  0  0  0  0  0
  188.9120  174.3480  141.9410 C   0  0  2  0  0  3  0  0  0  0  0  0
  189.8140  176.6850  143.3070 C   0  0  0  0  0  0  0  0  0  0  0  0
  191.8960  178.0740  143.6300 C   0  0  0  0  0  2  0  0  0  0  0  0
  190.3760  178.0120  143.7610 C   0  0  0  0  0  2  0  0  0  0  0  0
  190.6750  173.0800  143.3330 C   0  0  0  0  0  2  0  0  0  0  0  0
  190.0790  174.3240  142.8360 N   0  0  0  0  0  0  0  0  0  0  0  0
  187.4310  177.4820  143.6680 C   0  0  2  0  0  3  0  0  0  0  0  0
  186.8070  176.7750  144.7270 O   0  0  0  0  0  0  0  0  0  0  0  0
  188.1450  176.1210  146.6060 C   0  0  0  0  0  1  0  0  0  0  0  0
  187.3170  177.2180  145.9600 C   0  0  2  0  0  3  0  0  0  0  0  0
  186.4480  178.2490  147.8870 O   0  0  0  0  0  0  0  0  0  0  0  0
  186.1970  177.6270  146.8670 C   0  0  0  0  0  0  0  0  0  0  0  0
  184.7800  177.2510  146.5560 C   0  0  0  0  0  2  0  0  0  0  0  0
  184.4410  179.3350  145.4440 O   0  0  0  0  0  1  0  0  0  0  0  0
  183.9050  178.4840  146.4090 C   0  0  0  0  0  2  0  0  0  0  0  0
  186.4970  178.4010  142.8740 C   0  0  0  0  0  2  0  0  0  0  0  0
  185.5270  177.5860  142.0320 C   0  0  0  0  0  2  0  0  0  0  0  0
  184.1810  177.9170  142.3580 O   0  0  0  0  0  0  0  0  0  0  0  0
  183.5820  178.4490  140.1890 O   0  0  0  0  0  0  0  0  0  0  0  0
  183.2390  178.2650  141.3880 C   0  0  0  0  0  0  0  0  0  0  0  0
  181.8130  178.4140  141.7740 C   0  0  0  0  0  1  0  0  0  0  0  0
  1  4  1  0  0  0  0
  2  7  1  6  0  0  0
  2 10  1  0  0  0  0
  2  6  1  0  0  0  0
  3  5  1  0  0  0  0
  4 11  1  0  0  0  0
  4 16  1  1  0  0  0
  6  9  1  0  0  0  0
  8  3  1  0  0  0  0
  9 14  1  0  0  0  0
 10  1  1  1  0  0  0
 10 15  1  0  0  0  0
 11  8  2  0  0  0  0
 11 13  1  0  0  0  0
 12 13  1  0  0  0  0
 12  5  1  0  0  0  0
 15  8  1  0  0  0  0
 15 14  1  0  0  0  0
 16 25  1  6  0  0  0
 16 17  1  0  0  0  0
 17 19  1  0  0  0  0
 19 18  1  1  0  0  0
 19 21  1  0  0  0  0
 21 20  2  0  0  0  0
 22 21  1  0  0  0  0
 23 24  1  0  0  0  0
 24 22  1  0  0  0  0
 26 27  1  0  0  0  0
 26 25  1  0  0  0  0
 28 29  2  0  0  0  0
 29 30  1  0  0  0  0
 29 27  1  0  0  0  0
M  END
>  <MODEL>
3

>  <REMARK>
 VINA RESULT:      -6.3      3.403      7.373
  Name = 
  10 active torsions:
  status: ('A' for Active; 'I' for Inactive)
    1  A    between atoms: C_4  and  C_27
    2  A    between atoms: C_5  and  C_12
    3  A    between atoms: C_5  and  C_21
    4  A    between atoms: O_7  and  C_15
    5  A    between atoms: O_7  and  C_16
    6  A    between atoms: C_8  and  C_12
    7  A    between atoms: C_8  and  O_13
    8  A    between atoms: O_13  and  C_27
    9  A    between atoms: C_16  and  C_30
   10  A    between atoms: C_27  and  C_30
                            x       y       z     vdW  Elec       q    Type
                         _______ _______ _______ _____ _____    ______ ____

>  <TORSDO>
F 10

$$$$
=
 OpenBabel11052417173D

 30 32  0  0  1  0  0  0  0  0999 V2000
  187.8970  176.9010  146.5990 C   0  0  0  0  0  2  0  0  0  0  0  0
  185.9020  178.0720  147.5500 C   0  0  2  0  0  3  0  0  0  0  0  0
  186.8910  178.3600  142.6730 N   0  0  0  0  0  2  0  0  0  0  0  0
  189.0020  176.9450  145.5360 C   0  0  2  0  0  3  0  0  0  0  0  0
  187.7370  178.1770  141.4990 C   0  0  0  0  0  2  0  0  0  0  0  0
  184.6900  177.4970  147.1190 O   0  0  0  0  0  0  0  0  0  0  0  0
  185.7080  179.3420  148.0720 F   0  0  0  0  0  0  0  0  0  0  0  0
  187.2970  177.9170  143.9780 C   0  0  0  0  0  0  0  0  0  0  0  0
  184.1710  178.3260  146.1140 C   0  0  0  0  0  2  0  0  0  0  0  0
  186.9690  178.0900  146.4470 C   0  0  2  0  0  3  0  0  0  0  0  0
  188.5330  177.3990  144.1630 C   0  0  0  0  0  0  0  0  0  0  0  0
  189.1960  178.3090  141.9050 C   0  0  0  0  0  2  0  0  0  0  0  0
  189.4950  177.2920  143.0030 C   0  0  0  0  0  2  0  0  0  0  0  0
  184.9610  178.1310  144.8290 C   0  0  0  0  0  2  0  0  0  0  0  0
  186.4030  178.0860  145.0900 N   0  0  0  0  0  0  0  0  0  0  0  0
  189.7890  175.6210  145.4700 C   0  0  2  0  0  3  0  0  0  0  0  0
  189.0500  174.5060  145.0010 O   0  0  0  0  0  0  0  0  0  0  0  0
  189.0000  173.6570  142.7590 C   0  0  0  0  0  1  0  0  0  0  0  0
  189.8010  173.8070  144.0400 C   0  0  2  0  0  3  0  0  0  0  0  0
  189.4040  171.8300  145.2500 O   0  0  0  0  0  0  0  0  0  0  0  0
  190.1950  172.4620  144.5690 C   0  0  0  0  0  0  0  0  0  0  0  0
  191.5600  171.9010  144.3020 C   0  0  0  0  0  2  0  0  0  0  0  0
  193.5590  172.4890  145.4660 O   0  0  0  0  0  1  0  0  0  0  0  0
  192.6360  172.9490  144.5270 C   0  0  0  0  0  2  0  0  0  0  0  0
  190.6540  175.3440  146.7040 C   0  0  0  0  0  2  0  0  0  0  0  0
  191.6530  176.4700  146.9250 C   0  0  0  0  0  2  0  0  0  0  0  0
  192.6410  176.4700  145.8990 O   0  0  0  0  0  0  0  0  0  0  0  0
  194.4240  177.4200  147.0250 O   0  0  0  0  0  0  0  0  0  0  0  0
  194.0050  176.5910  146.1730 C   0  0  0  0  0  0  0  0  0  0  0  0
  194.9750  175.7250  145.4550 C   0  0  0  0  0  1  0  0  0  0  0  0
  2  7  1  6  0  0  0
  3  8  1  0  0  0  0
  4 16  1  6  0  0  0
  4  1  1  0  0  0  0
  5 12  1  0  0  0  0
  5  3  1  0  0  0  0
  6  2  1  0  0  0  0
  8 11  2  0  0  0  0
  8 15  1  0  0  0  0
  9  6  1  0  0  0  0
 10  1  1  6  0  0  0
 10  2  1  0  0  0  0
 11  4  1  0  0  0  0
 12 13  1  0  0  0  0
 13 11  1  0  0  0  0
 14 15  1  0  0  0  0
 14  9  1  0  0  0  0
 15 10  1  0  0  0  0
 16 25  1  1  0  0  0
 17 16  1  0  0  0  0
 19 18  1  6  0  0  0
 19 21  1  0  0  0  0
 19 17  1  0  0  0  0
 21 20  2  0  0  0  0
 22 24  1  0  0  0  0
 22 21  1  0  0  0  0
 24 23  1  0  0  0  0
 25 26  1  0  0  0  0
 27 29  1  0  0  0  0
 27 26  1  0  0  0  0
 29 28  2  0  0  0  0
 30 29  1  0  0  0  0
M  END
>  <MODEL>
4

>  <REMARK>
 VINA RESULT:      -6.3      1.010      1.737
  Name = 
  10 active torsions:
  status: ('A' for Active; 'I' for Inactive)
    1  A    between atoms: C_4  and  C_27
    2  A    between atoms: C_5  and  C_12
    3  A    between atoms: C_5  and  C_21
    4  A    between atoms: O_7  and  C_15
    5  A    between atoms: O_7  and  C_16
    6  A    between atoms: C_8  and  C_12
    7  A    between atoms: C_8  and  O_13
    8  A    between atoms: O_13  and  C_27
    9  A    between atoms: C_16  and  C_30
   10  A    between atoms: C_27  and  C_30
                            x       y       z     vdW  Elec       q    Type
                         _______ _______ _______ _____ _____    ______ ____

>  <TORSDO>
F 10

$$$$
=
 OpenBabel11052417173D

 30 32  0  0  1  0  0  0  0  0999 V2000
  188.0840  174.9100  142.7390 C   0  0  0  0  0  2  0  0  0  0  0  0
  188.7850  172.7080  141.7820 C   0  0  2  0  0  3  0  0  0  0  0  0
  192.1660  175.7370  143.8430 N   0  0  0  0  0  2  0  0  0  0  0  0
  188.4890  176.3700  142.9830 C   0  0  2  0  0  3  0  0  0  0  0  0
  192.6140  177.0110  144.3940 C   0  0  0  0  0  2  0  0  0  0  0  0
  189.2070  171.8040  142.7780 O   0  0  0  0  0  0  0  0  0  0  0  0
  189.2060  172.3130  140.5210 F   0  0  0  0  0  0  0  0  0  0  0  0
  190.8080  175.5270  143.4240 C   0  0  0  0  0  0  0  0  0  0  0  0
  190.6090  171.7840  142.7530 C   0  0  0  0  0  2  0  0  0  0  0  0
  189.2180  174.1510  142.0770 C   0  0  2  0  0  3  0  0  0  0  0  0
  189.9260  176.5530  143.4440 C   0  0  0  0  0  0  0  0  0  0  0  0
  191.8650  178.1450  143.7130 C   0  0  0  0  0  2  0  0  0  0  0  0
  190.3660  177.9260  143.8980 C   0  0  0  0  0  2  0  0  0  0  0  0
  191.1530  173.0560  143.3850 C   0  0  0  0  0  2  0  0  0  0  0  0
  190.4140  174.2370  142.9290 N   0  0  0  0  0  0  0  0  0  0  0  0
  187.4890  177.0970  143.9030 C   0  0  2  0  0  3  0  0  0  0  0  0
  186.8440  178.2190  143.3240 O   0  0  0  0  0  0  0  0  0  0  0  0
  184.7660  178.1150  142.1330 C   0  0  0  0  0  1  0  0  0  0  0  0
  185.4530  178.1050  143.4870 C   0  0  2  0  0  3  0  0  0  0  0  0
  185.4080  180.3420  144.2100 O   0  0  0  0  0  0  0  0  0  0  0  0
  184.9380  179.2230  144.3410 C   0  0  0  0  0  0  0  0  0  0  0  0
  183.8830  178.9770  145.3760 C   0  0  0  0  0  2  0  0  0  0  0  0
  185.3570  178.9780  147.2530 O   0  0  0  0  0  1  0  0  0  0  0  0
  184.4410  178.1940  146.5520 C   0  0  0  0  0  2  0  0  0  0  0  0
  187.9980  177.3160  145.3320 C   0  0  0  0  0  2  0  0  0  0  0  0
  187.4660  176.2380  146.2650 C   0  0  0  0  0  2  0  0  0  0  0  0
  188.4490  175.8850  147.2330 O   0  0  0  0  0  0  0  0  0  0  0  0
  189.3980  174.0130  146.2620 O   0  0  0  0  0  0  0  0  0  0  0  0
  189.5440  175.0740  146.9270 C   0  0  0  0  0  0  0  0  0  0  0  0
  190.8990  175.4710  147.3860 C   0  0  0  0  0  1  0  0  0  0  0  0
  1  4  1  0  0  0  0
  2  7  1  6  0  0  0
  2 10  1  0  0  0  0
  2  6  1  0  0  0  0
  3  5  1  0  0  0  0
  4 11  1  0  0  0  0
  4 16  1  1  0  0  0
  8 11  2  0  0  0  0
  8  3  1  0  0  0  0
  9  6  1  0  0  0  0
  9 14  1  0  0  0  0
 10  1  1  1  0  0  0
 10 15  1  0  0  0  0
 11 13  1  0  0  0  0
 12 13  1  0  0  0  0
 12  5  1  0  0  0  0
 15 14  1  0  0  0  0
 15  8  1  0  0  0  0
 16 25  1  1  0  0  0
 17 19  1  0  0  0  0
 17 16  1  0  0  0  0
 19 18  1  6  0  0  0
 19 21  1  0  0  0  0
 20 21  2  0  0  0  0
 21 22  1  0  0  0  0
 22 24  1  0  0  0  0
 24 23  1  0  0  0  0
 25 26  1  0  0  0  0
 26 27  1  0  0  0  0
 28 29  2  0  0  0  0
 29 27  1  0  0  0  0
 29 30  1  0  0  0  0
M  END
>  <MODEL>
5

>  <REMARK>
 VINA RESULT:      -6.2      3.104      6.468
  Name = 
  10 active torsions:
  status: ('A' for Active; 'I' for Inactive)
    1  A    between atoms: C_4  and  C_27
    2  A    between atoms: C_5  and  C_12
    3  A    between atoms: C_5  and  C_21
    4  A    between atoms: O_7  and  C_15
    5  A    between atoms: O_7  and  C_16
    6  A    between atoms: C_8  and  C_12
    7  A    between atoms: C_8  and  O_13
    8  A    between atoms: O_13  and  C_27
    9  A    between atoms: C_16  and  C_30
   10  A    between atoms: C_27  and  C_30
                            x       y       z     vdW  Elec       q    Type
                         _______ _______ _______ _____ _____    ______ ____

>  <TORSDO>
F 10

$$$$
=
 OpenBabel11052417173D

 30 32  0  0  1  0  0  0  0  0999 V2000
  187.7720  177.5690  145.5780 C   0  0  0  0  0  2  0  0  0  0  0  0
  186.0710  178.8010  146.9350 C   0  0  2  0  0  3  0  0  0  0  0  0
  185.3780  178.1440  142.0430 N   0  0  0  0  0  2  0  0  0  0  0  0
  188.4580  177.4550  144.2090 C   0  0  2  0  0  3  0  0  0  0  0  0
  185.8120  177.7720  140.7000 C   0  0  0  0  0  2  0  0  0  0  0  0
  184.8620  178.0860  147.0510 O   0  0  0  0  0  0  0  0  0  0  0  0
  185.9070  180.1380  147.2630 F   0  0  0  0  0  0  0  0  0  0  0  0
  186.2360  177.9970  143.1850 C   0  0  0  0  0  0  0  0  0  0  0  0
  183.9500  178.6640  146.1570 C   0  0  0  0  0  2  0  0  0  0  0  0
  186.7110  178.6510  145.5480 C   0  0  2  0  0  3  0  0  0  0  0  0
  187.5180  177.5950  143.0240 C   0  0  0  0  0  0  0  0  0  0  0  0
  187.2970  178.0610  140.5530 C   0  0  0  0  0  2  0  0  0  0  0  0
  188.0560  177.3060  141.6410 C   0  0  0  0  0  2  0  0  0  0  0  0
  184.2960  178.2550  144.7330 C   0  0  0  0  0  2  0  0  0  0  0  0
  185.7390  178.3410  144.4890 N   0  0  0  0  0  0  0  0  0  0  0  0
  189.3320  176.1890  144.1090 C   0  0  2  0  0  3  0  0  0  0  0  0
  188.9430  175.1210  144.9570 O   0  0  0  0  0  0  0  0  0  0  0  0
  190.2290  173.1420  145.3760 C   0  0  0  0  0  1  0  0  0  0  0  0
  190.0650  174.6270  145.6450 C   0  0  2  0  0  3  0  0  0  0  0  0
  188.8250  174.7710  147.6380 O   0  0  0  0  0  0  0  0  0  0  0  0
  189.9220  174.8770  147.1150 C   0  0  0  0  0  0  0  0  0  0  0  0
  191.1020  175.2930  147.9420 C   0  0  0  0  0  2  0  0  0  0  0  0
  190.3010  177.5220  147.6540 O   0  0  0  0  0  1  0  0  0  0  0  0
  191.4600  176.7480  147.6940 C   0  0  0  0  0  2  0  0  0  0  0  0
  190.8380  176.4680  144.0790 C   0  0  0  0  0  2  0  0  0  0  0  0
  191.4610  175.9250  142.8020 C   0  0  0  0  0  2  0  0  0  0  0  0
  192.5010  175.0000  143.1060 O   0  0  0  0  0  0  0  0  0  0  0  0
  194.3660  176.2480  143.6610 O   0  0  0  0  0  0  0  0  0  0  0  0
  193.5640  175.3210  143.9520 C   0  0  0  0  0  0  0  0  0  0  0  0
  193.7480  174.5620  145.2160 C   0  0  0  0  0  1  0  0  0  0  0  0
  2  6  1  0  0  0  0
  2  7  1  6  0  0  0
  3  8  1  0  0  0  0
  4 16  1  1  0  0  0
  4  1  1  0  0  0  0
  5  3  1  0  0  0  0
  8 15  1  0  0  0  0
  9  6  1  0  0  0  0
 10  1  1  1  0  0  0
 10  2  1  0  0  0  0
 11  8  2  0  0  0  0
 11  4  1  0  0  0  0
 12  5  1  0  0  0  0
 12 13  1  0  0  0  0
 13 11  1  0  0  0  0
 14  9  1  0  0  0  0
 15 14  1  0  0  0  0
 15 10  1  0  0  0  0
 16 25  1  1  0  0  0
 16 17  1  0  0  0  0
 17 19  1  0  0  0  0
 19 18  1  1  0  0  0
 19 21  1  0  0  0  0
 21 20  2  0  0  0  0
 21 22  1  0  0  0  0
 23 24  1  0  0  0  0
 24 22  1  0  0  0  0
 26 27  1  0  0  0  0
 26 25  1  0  0  0  0
 27 29  1  0  0  0  0
 28 29  2  0  0  0  0
 29 30  1  0  0  0  0
M  END
>  <MODEL>
6

>  <REMARK>
 VINA RESULT:      -6.1      1.747      3.051
  Name = 
  10 active torsions:
  status: ('A' for Active; 'I' for Inactive)
    1  A    between atoms: C_4  and  C_27
    2  A    between atoms: C_5  and  C_12
    3  A    between atoms: C_5  and  C_21
    4  A    between atoms: O_7  and  C_15
    5  A    between atoms: O_7  and  C_16
    6  A    between atoms: C_8  and  C_12
    7  A    between atoms: C_8  and  O_13
    8  A    between atoms: O_13  and  C_27
    9  A    between atoms: C_16  and  C_30
   10  A    between atoms: C_27  and  C_30
                            x       y       z     vdW  Elec       q    Type
                         _______ _______ _______ _____ _____    ______ ____

>  <TORSDO>
F 10

$$$$
=
 OpenBabel11052417173D

 30 32  0  0  1  0  0  0  0  0999 V2000
  187.9520  177.2520  146.8560 C   0  0  0  0  0  2  0  0  0  0  0  0
  185.8520  178.3650  147.6360 C   0  0  2  0  0  3  0  0  0  0  0  0
  186.9350  178.1790  142.7740 N   0  0  0  0  0  2  0  0  0  0  0  0
  189.0770  177.2620  145.8120 C   0  0  2  0  0  3  0  0  0  0  0  0
  187.8220  177.9310  141.6410 C   0  0  0  0  0  2  0  0  0  0  0  0
  184.6980  177.6530  147.2540 O   0  0  0  0  0  0  0  0  0  0  0  0
  185.5500  179.6670  148.0060 F   0  0  0  0  0  0  0  0  0  0  0  0
  187.3420  177.9180  144.1270 C   0  0  0  0  0  0  0  0  0  0  0  0
  184.1430  178.3210  146.1530 C   0  0  0  0  0  2  0  0  0  0  0  0
  186.9420  178.3420  146.5550 C   0  0  2  0  0  3  0  0  0  0  0  0
  188.6080  177.5210  144.3890 C   0  0  0  0  0  0  0  0  0  0  0  0
  189.2560  178.2210  142.0530 C   0  0  0  0  0  2  0  0  0  0  0  0
  189.6040  177.3590  143.2640 C   0  0  0  0  0  2  0  0  0  0  0  0
  184.9770  178.0450  144.9100 C   0  0  0  0  0  2  0  0  0  0  0  0
  186.4110  178.1410  145.1980 N   0  0  0  0  0  0  0  0  0  0  0  0
  189.9620  176.0050  145.9100 C   0  0  2  0  0  3  0  0  0  0  0  0
  191.3380  176.2150  145.6420 O   0  0  0  0  0  0  0  0  0  0  0  0
  191.6340  176.6920  147.9720 C   0  0  0  0  0  1  0  0  0  0  0  0
  192.1000  175.8820  146.7750 C   0  0  2  0  0  3  0  0  0  0  0  0
  194.0630  177.1730  146.8920 O   0  0  0  0  0  0  0  0  0  0  0  0
  193.5540  176.1300  146.5130 C   0  0  0  0  0  0  0  0  0  0  0  0
  194.3800  175.1310  145.7590 C   0  0  0  0  0  2  0  0  0  0  0  0
  195.8470  175.7290  143.9750 O   0  0  0  0  0  1  0  0  0  0  0  0
  194.5070  175.5180  144.2960 C   0  0  0  0  0  2  0  0  0  0  0  0
  189.3610  174.7630  145.2440 C   0  0  0  0  0  2  0  0  0  0  0  0
  190.4440  173.9420  144.5590 C   0  0  0  0  0  2  0  0  0  0  0  0
  190.2290  173.9040  143.1520 O   0  0  0  0  0  0  0  0  0  0  0  0
  188.7510  172.1660  142.7770 O   0  0  0  0  0  0  0  0  0  0  0  0
  189.0710  173.3700  142.5850 C   0  0  0  0  0  0  0  0  0  0  0  0
  188.1990  174.2360  141.7510 C   0  0  0  0  0  1  0  0  0  0  0  0
  2  7  1  6  0  0  0
  3  8  1  0  0  0  0
  4 16  1  6  0  0  0
  4  1  1  0  0  0  0
  5 12  1  0  0  0  0
  5  3  1  0  0  0  0
  6  2  1  0  0  0  0
  8 11  2  0  0  0  0
  8 15  1  0  0  0  0
  9  6  1  0  0  0  0
 10  1  1  1  0  0  0
 10  2  1  0  0  0  0
 11  4  1  0  0  0  0
 12 13  1  0  0  0  0
 13 11  1  0  0  0  0
 14 15  1  0  0  0  0
 14  9  1  0  0  0  0
 15 10  1  0  0  0  0
 16 25  1  6  0  0  0
 17 16  1  0  0  0  0
 17 19  1  0  0  0  0
 19 18  1  1  0  0  0
 21 19  1  0  0  0  0
 21 20  2  0  0  0  0
 22 21  1  0  0  0  0
 23 24  1  0  0  0  0
 24 22  1  0  0  0  0
 26 25  1  0  0  0  0
 27 26  1  0  0  0  0
 29 28  2  0  0  0  0
 29 27  1  0  0  0  0
 30 29  1  0  0  0  0
M  END
>  <MODEL>
7

>  <REMARK>
 VINA RESULT:      -6.1      1.142      4.006
  Name = 
  10 active torsions:
  status: ('A' for Active; 'I' for Inactive)
    1  A    between atoms: C_4  and  C_27
    2  A    between atoms: C_5  and  C_12
    3  A    between atoms: C_5  and  C_21
    4  A    between atoms: O_7  and  C_15
    5  A    between atoms: O_7  and  C_16
    6  A    between atoms: C_8  and  C_12
    7  A    between atoms: C_8  and  O_13
    8  A    between atoms: O_13  and  C_27
    9  A    between atoms: C_16  and  C_30
   10  A    between atoms: C_27  and  C_30
                            x       y       z     vdW  Elec       q    Type
                         _______ _______ _______ _____ _____    ______ ____

>  <TORSDO>
F 10

$$$$
=
 OpenBabel11052417173D

 30 32  0  0  1  0  0  0  0  0999 V2000
  191.4680  176.4140  145.9860 C   0  0  0  0  0  2  0  0  0  0  0  0
  193.9470  176.7350  146.0560 C   0  0  2  0  0  3  0  0  0  0  0  0
  191.9770  172.9770  143.4400 N   0  0  0  0  0  2  0  0  0  0  0  0
  190.3260  175.3920  145.9100 C   0  0  2  0  0  3  0  0  0  0  0  0
  190.8840  172.0990  143.0350 C   0  0  0  0  0  2  0  0  0  0  0  0
  194.4680  177.1340  144.8080 O   0  0  0  0  0  0  0  0  0  0  0  0
  194.9420  176.2590  146.8960 F   0  0  0  0  0  0  0  0  0  0  0  0
  191.7740  174.0730  144.3460 C   0  0  0  0  0  0  0  0  0  0  0  0
  195.0540  176.0020  144.2230 C   0  0  0  0  0  2  0  0  0  0  0  0
  192.8100  175.7130  145.9190 C   0  0  2  0  0  3  0  0  0  0  0  0
  190.5660  174.2570  144.9270 C   0  0  0  0  0  0  0  0  0  0  0  0
  189.9180  171.9300  144.1970 C   0  0  0  0  0  2  0  0  0  0  0  0
  189.4270  173.3080  144.6320 C   0  0  0  0  0  2  0  0  0  0  0  0
  193.9690  175.0700  143.7050 C   0  0  0  0  0  2  0  0  0  0  0  0
  192.8790  174.9300  144.6760 N   0  0  0  0  0  0  0  0  0  0  0  0
  188.9610  176.0710  145.6870 C   0  0  2  0  0  3  0  0  0  0  0  0
  189.0120  177.3150  145.0090 O   0  0  0  0  0  0  0  0  0  0  0  0
  189.9220  177.9350  142.8790 C   0  0  0  0  0  1  0  0  0  0  0  0
  188.8900  177.1070  143.6240 C   0  0  2  0  0  3  0  0  0  0  0  0
  186.9490  178.4350  143.6470 O   0  0  0  0  0  0  0  0  0  0  0  0
  187.5080  177.4620  143.1660 C   0  0  0  0  0  0  0  0  0  0  0  0
  186.7920  176.6180  142.1560 C   0  0  0  0  0  2  0  0  0  0  0  0
  188.2030  175.1880  140.8670 O   0  0  0  0  0  1  0  0  0  0  0  0
  187.4370  175.2480  142.0310 C   0  0  0  0  0  2  0  0  0  0  0  0
  188.0410  176.0470  146.9120 C   0  0  0  0  0  2  0  0  0  0  0  0
  186.6230  176.4440  146.5300 C   0  0  0  0  0  2  0  0  0  0  0  0
  186.0750  177.3350  147.4970 O   0  0  0  0  0  0  0  0  0  0  0  0
  185.9420  179.6390  147.6430 O   0  0  0  0  0  0  0  0  0  0  0  0
  185.5100  178.5630  147.1490 C   0  0  0  0  0  0  0  0  0  0  0  0
  184.3880  178.6010  146.1760 C   0  0  0  0  0  1  0  0  0  0  0  0
  2  7  1  1  0  0  0
  3  8  1  0  0  0  0
  4 16  1  6  0  0  0
  4  1  1  0  0  0  0
  5  3  1  0  0  0  0
  5 12  1  0  0  0  0
  6  2  1  0  0  0  0
  8 15  1  0  0  0  0
  8 11  2  0  0  0  0
  9  6  1  0  0  0  0
 10  1  1  6  0  0  0
 10  2  1  0  0  0  0
 11  4  1  0  0  0  0
 12 13  1  0  0  0  0
 13 11  1  0  0  0  0
 14  9  1  0  0  0  0
 14 15  1  0  0  0  0
 15 10  1  0  0  0  0
 16 25  1  1  0  0  0
 17 16  1  0  0  0  0
 19 18  1  6  0  0  0
 19 17  1  0  0  0  0
 21 19  1  0  0  0  0
 21 20  2  0  0  0  0
 22 21  1  0  0  0  0
 23 24  1  0  0  0  0
 24 22  1  0  0  0  0
 26 25  1  0  0  0  0
 26 27  1  0  0  0  0
 29 27  1  0  0  0  0
 29 28  2  0  0  0  0
 30 29  1  0  0  0  0
M  END
>  <MODEL>
8

>  <REMARK>
 VINA RESULT:      -5.9      3.131      6.623
  Name = 
  10 active torsions:
  status: ('A' for Active; 'I' for Inactive)
    1  A    between atoms: C_4  and  C_27
    2  A    between atoms: C_5  and  C_12
    3  A    between atoms: C_5  and  C_21
    4  A    between atoms: O_7  and  C_15
    5  A    between atoms: O_7  and  C_16
    6  A    between atoms: C_8  and  C_12
    7  A    between atoms: C_8  and  O_13
    8  A    between atoms: O_13  and  C_27
    9  A    between atoms: C_16  and  C_30
   10  A    between atoms: C_27  and  C_30
                            x       y       z     vdW  Elec       q    Type
                         _______ _______ _______ _____ _____    ______ ____

>  <TORSDO>
F 10

$$$$
=
 OpenBabel11052417173D

 30 32  0  0  1  0  0  0  0  0999 V2000
  188.7420  177.4660  145.9790 C   0  0  0  0  0  2  0  0  0  0  0  0
  186.8610  178.0470  147.5220 C   0  0  2  0  0  3  0  0  0  0  0  0
  185.9960  177.3610  142.6610 N   0  0  0  0  0  2  0  0  0  0  0  0
  189.3090  177.6210  144.5620 C   0  0  2  0  0  3  0  0  0  0  0  0
  186.4090  177.1890  141.2720 C   0  0  0  0  0  2  0  0  0  0  0  0
  185.9540  176.9800  147.6820 O   0  0  0  0  0  0  0  0  0  0  0  0
  186.3120  179.2500  147.9380 F   0  0  0  0  0  0  0  0  0  0  0  0
  186.9510  177.4590  143.7300 C   0  0  0  0  0  0  0  0  0  0  0  0
  184.8330  177.2650  146.8890 C   0  0  0  0  0  2  0  0  0  0  0  0
  187.3950  178.1540  146.0870 C   0  0  2  0  0  3  0  0  0  0  0  0
  188.2750  177.4920  143.4550 C   0  0  0  0  0  0  0  0  0  0  0  0
  187.7090  177.9430  141.0380 C   0  0  0  0  0  2  0  0  0  0  0  0
  188.7570  177.4340  142.0240 C   0  0  0  0  0  2  0  0  0  0  0  0
  185.1680  177.0340  145.4230 C   0  0  0  0  0  2  0  0  0  0  0  0
  186.4840  177.5840  145.0830 N   0  0  0  0  0  0  0  0  0  0  0  0
  190.5250  176.7050  144.3270 C   0  0  2  0  0  3  0  0  0  0  0  0
  190.5630  175.5380  145.1320 O   0  0  0  0  0  0  0  0  0  0  0  0
  189.6920  173.3200  145.3960 C   0  0  0  0  0  1  0  0  0  0  0  0
  189.9800  174.4630  144.4390 C   0  0  2  0  0  3  0  0  0  0  0  0
  191.9830  173.5450  143.6160 O   0  0  0  0  0  0  0  0  0  0  0  0
  190.8870  174.0040  143.3380 C   0  0  0  0  0  0  0  0  0  0  0  0
  190.4800  174.1360  141.9020 C   0  0  0  0  0  2  0  0  0  0  0  0
  188.5600  174.2820  140.4910 O   0  0  0  0  0  1  0  0  0  0  0  0
  189.0130  173.7880  141.7140 C   0  0  0  0  0  2  0  0  0  0  0  0
  191.8590  177.4500  144.2160 C   0  0  0  0  0  2  0  0  0  0  0  0
  192.9590  176.6990  144.9510 C   0  0  0  0  0  2  0  0  0  0  0  0
  193.9610  176.2600  144.0390 O   0  0  0  0  0  0  0  0  0  0  0  0
  196.2200  176.7320  143.8840 O   0  0  0  0  0  0  0  0  0  0  0  0
  195.2910  176.0710  144.4210 C   0  0  0  0  0  0  0  0  0  0  0  0
  195.6140  175.0830  145.4820 C   0  0  0  0  0  1  0  0  0  0  0  0
  2  6  1  0  0  0  0
  2  7  1  6  0  0  0
  3  8  1  0  0  0  0
  4 16  1  6  0  0  0
  4  1  1  0  0  0  0
  5  3  1  0  0  0  0
  8 15  1  0  0  0  0
  9  6  1  0  0  0  0
 10  1  1  1  0  0  0
 10  2  1  0  0  0  0
 11  8  2  0  0  0  0
 11  4  1  0  0  0  0
 12  5  1  0  0  0  0
 12 13  1  0  0  0  0
 13 11  1  0  0  0  0
 14  9  1  0  0  0  0
 15 14  1  0  0  0  0
 15 10  1  0  0  0  0
 16 25  1  1  0  0  0
 16 17  1  0  0  0  0
 19 17  1  0  0  0  0
 19 18  1  1  0  0  0
 21 20  2  0  0  0  0
 21 19  1  0  0  0  0
 22 21  1  0  0  0  0
 23 24  1  0  0  0  0
 24 22  1  0  0  0  0
 25 26  1  0  0  0  0
 27 29  1  0  0  0  0
 27 26  1  0  0  0  0
 28 29  2  0  0  0  0
 29 30  1  0  0  0  0
M  END
>  <MODEL>
9

>  <REMARK>
 VINA RESULT:      -5.9      1.619      2.004
  Name = 
  10 active torsions:
  status: ('A' for Active; 'I' for Inactive)
    1  A    between atoms: C_4  and  C_27
    2  A    between atoms: C_5  and  C_12
    3  A    between atoms: C_5  and  C_21
    4  A    between atoms: O_7  and  C_15
    5  A    between atoms: O_7  and  C_16
    6  A    between atoms: C_8  and  C_12
    7  A    between atoms: C_8  and  O_13
    8  A    between atoms: O_13  and  C_27
    9  A    between atoms: C_16  and  C_30
   10  A    between atoms: C_27  and  C_30
                            x       y       z     vdW  Elec       q    Type
                         _______ _______ _______ _____ _____    ______ ____

>  <TORSDO>
F 10

$$$$
