=
 OpenBabel11052420203D

 34 37  0  0  1  0  0  0  0  0999 V2000
  190.5120  175.4480  144.4930 C   0  0  0  0  0  0  0  0  0  0  0  0
  191.7920  173.7280  141.5410 C   0  0  0  0  0  3  0  0  0  0  0  0
  192.8030  175.5860  142.7600 C   0  0  0  0  0  3  0  0  0  0  0  0
  191.9470  176.1420  146.3830 C   0  0  0  0  0  3  0  0  0  0  0  0
  194.3970  176.0210  146.0280 C   0  0  0  0  0  2  0  0  0  0  0  0
  193.1800  176.2820  146.8750 C   0  0  0  0  0  3  0  0  0  0  0  0
  192.8950  175.9000  144.0510 C   0  0  0  0  0  0  0  0  0  0  0  0
  191.7230  175.8160  144.9580 C   0  0  1  0  0  3  0  0  0  0  0  0
  194.1810  176.4610  144.5790 C   0  0  0  0  0  2  0  0  0  0  0  0
  190.9170  173.1150  140.7460 C   0  0  0  0  0  3  0  0  0  0  0  0
  189.5670  173.6210  140.3860 C   0  0  0  0  0  0  0  0  0  0  0  0
  188.7960  174.3040  141.2530 C   0  0  0  0  0  3  0  0  0  0  0  0
  191.5400  175.0710  142.1320 C   0  0  0  0  0  0  0  0  0  0  0  0
  189.1380  174.7470  142.6200 C   0  0  0  0  0  3  0  0  0  0  0  0
  190.3600  175.0420  143.0750 C   0  0  0  0  0  0  0  0  0  0  0  0
  189.0160  173.2520  139.1050 N   0  0  0  0  0  0  0  0  0  0  0  0
  188.2010  174.1750  138.3270 C   0  0  0  0  0  1  0  0  0  0  0  0
  189.2870  171.9490  138.5170 C   0  0  0  0  0  1  0  0  0  0  0  0
  189.3690  175.4270  145.3070 O   0  0  0  0  0  0  0  0  0  0  0  0
  188.5790  176.5800  145.5650 C   0  0  0  0  0  2  0  0  0  0  0  0
  187.6020  176.2960  146.6990 C   0  0  0  0  0  2  0  0  0  0  0  0
  184.8490  178.6880  147.5080 C   0  0  0  0  0  2  0  0  0  0  0  0
  186.5320  177.9940  145.4400 C   0  0  0  0  0  2  0  0  0  0  0  0
  184.1590  178.5560  146.1490 C   0  0  0  0  0  2  0  0  0  0  0  0
  185.1730  178.5460  144.9940 C   0  0  2  0  0  3  0  0  0  0  0  0
  186.3290  176.9610  146.4550 N   0  0  0  0  0  0  0  0  0  0  0  0
  185.9210  177.6020  147.7110 C   0  0  0  0  0  2  0  0  0  0  0  0
  184.6710  177.7560  143.9590 O   0  0  0  0  0  0  0  0  0  0  0  0
  185.7970  177.3250  143.2480 C   0  0  0  0  0  2  0  0  0  0  0  0
  186.0080  178.1770  141.9960 C   0  0  2  0  0  3  0  0  0  0  0  0
  184.7960  178.1070  141.0810 C   0  0  0  0  0  1  0  0  0  0  0  0
  187.2800  177.8710  141.2420 C   0  0  0  0  0  0  0  0  0  0  0  0
  187.2070  177.3540  140.1390 O   0  0  0  0  0  0  0  0  0  0  0  0
  188.6310  178.2130  141.7830 C   0  0  0  0  0  1  0  0  0  0  0  0
  1  8  1  0  0  0  0
  1 19  1  0  0  0  0
  2 13  2  0  0  0  0
  3  7  2  0  0  0  0
  4  6  2  0  0  0  0
  5  6  1  0  0  0  0
  7  9  1  0  0  0  0
  7  8  1  0  0  0  0
  8  4  1  1  0  0  0
  9  5  1  0  0  0  0
 10  2  1  0  0  0  0
 11 10  2  0  0  0  0
 11 12  1  0  0  0  0
 12 14  2  0  0  0  0
 13  3  1  0  0  0  0
 13 15  1  0  0  0  0
 14 15  1  0  0  0  0
 15  1  2  0  0  0  0
 16 11  1  0  0  0  0
 17 16  1  0  0  0  0
 18 16  1  0  0  0  0
 19 20  1  0  0  0  0
 20 21  1  0  0  0  0
 22 27  1  0  0  0  0
 23 26  1  0  0  0  0
 24 22  1  0  0  0  0
 25 28  1  6  0  0  0
 25 23  1  0  0  0  0
 25 24  1  0  0  0  0
 26 21  1  0  0  0  0
 26 27  1  0  0  0  0
 29 28  1  0  0  0  0
 30 31  1  6  0  0  0
 30 29  1  0  0  0  0
 32 34  1  0  0  0  0
 32 30  1  0  0  0  0
 33 32  2  0  0  0  0
M  END
>  <MODEL>
1

>  <REMARK>
 VINA RESULT:      -7.4      0.000      0.000
  Name = 
  9 active torsions:
  status: ('A' for Active; 'I' for Inactive)
    1  A    between atoms: C_1  and  O_9
    2  A    between atoms: N_3  and  C_25
    3  A    between atoms: C_7  and  C_11
    4  A    between atoms: C_7  and  C_29
    5  A    between atoms: C_8  and  O_9
    6  A    between atoms: C_8  and  C_18
    7  A    between atoms: C_18  and  N_30
    8  A    between atoms: O_26  and  C_28
    9  A    between atoms: O_26  and  C_29
                            x       y       z     vdW  Elec       q    Type
                         _______ _______ _______ _____ _____    ______ ____

>  <TORSDO>
F 9

$$$$
=
 OpenBabel11052420203D

 34 37  0  0  1  0  0  0  0  0999 V2000
  188.1750  176.5630  145.2330 C   0  0  0  0  0  0  0  0  0  0  0  0
  186.7120  176.8760  141.9060 C   0  0  0  0  0  3  0  0  0  0  0  0
  185.5580  176.7420  144.0530 C   0  0  0  0  0  3  0  0  0  0  0  0
  187.3280  177.7930  147.2030 C   0  0  0  0  0  3  0  0  0  0  0  0
  185.1460  178.9420  146.9510 C   0  0  0  0  0  2  0  0  0  0  0  0
  186.3840  178.5800  147.7270 C   0  0  0  0  0  3  0  0  0  0  0  0
  185.8040  177.2390  145.2640 C   0  0  0  0  0  0  0  0  0  0  0  0
  187.1540  177.1690  145.8750 C   0  0  1  0  0  3  0  0  0  0  0  0
  184.6680  177.7810  146.0780 C   0  0  0  0  0  2  0  0  0  0  0  0
  187.4230  176.4410  140.8660 C   0  0  0  0  0  3  0  0  0  0  0  0
  188.2670  175.2200  140.8420 C   0  0  0  0  0  0  0  0  0  0  0  0
  188.9690  174.8040  141.9130 C   0  0  0  0  0  3  0  0  0  0  0  0
  186.6230  176.1290  143.1900 C   0  0  0  0  0  0  0  0  0  0  0  0
  188.9770  175.3790  143.2730 C   0  0  0  0  0  3  0  0  0  0  0  0
  187.9710  176.0330  143.8630 C   0  0  0  0  0  0  0  0  0  0  0  0
  188.4410  174.5310  139.5860 N   0  0  0  0  0  0  0  0  0  0  0  0
  187.7620  174.9660  138.3730 C   0  0  0  0  0  1  0  0  0  0  0  0
  189.3380  173.3910  139.4730 C   0  0  0  0  0  1  0  0  0  0  0  0
  189.4440  176.4160  145.8120 O   0  0  0  0  0  0  0  0  0  0  0  0
  189.7490  175.4070  146.7660 C   0  0  0  0  0  2  0  0  0  0  0  0
  191.1020  175.6920  147.4060 C   0  0  0  0  0  2  0  0  0  0  0  0
  194.5180  176.4640  146.1030 C   0  0  0  0  0  2  0  0  0  0  0  0
  192.7670  174.3550  146.3780 C   0  0  0  0  0  2  0  0  0  0  0  0
  194.3810  175.5890  144.8550 C   0  0  0  0  0  2  0  0  0  0  0  0
  193.7100  174.2450  145.1730 C   0  0  2  0  0  3  0  0  0  0  0  0
  192.1550  175.6820  146.3980 N   0  0  0  0  0  0  0  0  0  0  0  0
  193.1640  176.6660  146.8090 C   0  0  0  0  0  2  0  0  0  0  0  0
  192.9830  173.8260  144.0570 O   0  0  0  0  0  0  0  0  0  0  0  0
  192.6370  172.4970  144.3210 C   0  0  0  0  0  2  0  0  0  0  0  0
  191.8260  171.9070  143.1660 C   0  0  2  0  0  3  0  0  0  0  0  0
  192.1120  172.6450  141.8690 C   0  0  0  0  0  1  0  0  0  0  0  0
  190.3410  171.8200  143.4280 C   0  0  0  0  0  0  0  0  0  0  0  0
  189.6020  171.4330  142.5380 O   0  0  0  0  0  0  0  0  0  0  0  0
  189.7440  172.1580  144.7560 C   0  0  0  0  0  1  0  0  0  0  0  0
  1 19  1  0  0  0  0
  1  8  1  0  0  0  0
  2 13  2  0  0  0  0
  3  7  2  0  0  0  0
  4  6  2  0  0  0  0
  5  6  1  0  0  0  0
  7  8  1  0  0  0  0
  7  9  1  0  0  0  0
  8  4  1  6  0  0  0
  9  5  1  0  0  0  0
 10  2  1  0  0  0  0
 11 10  2  0  0  0  0
 11 12  1  0  0  0  0
 12 14  2  0  0  0  0
 13 15  1  0  0  0  0
 13  3  1  0  0  0  0
 14 15  1  0  0  0  0
 15  1  2  0  0  0  0
 16 11  1  0  0  0  0
 17 16  1  0  0  0  0
 18 16  1  0  0  0  0
 19 20  1  0  0  0  0
 20 21  1  0  0  0  0
 22 27  1  0  0  0  0
 23 26  1  0  0  0  0
 24 25  1  0  0  0  0
 24 22  1  0  0  0  0
 25 28  1  6  0  0  0
 25 23  1  0  0  0  0
 26 27  1  0  0  0  0
 26 21  1  0  0  0  0
 28 29  1  0  0  0  0
 30 31  1  6  0  0  0
 30 32  1  0  0  0  0
 30 29  1  0  0  0  0
 32 34  1  0  0  0  0
 33 32  2  0  0  0  0
M  END
>  <MODEL>
2

>  <REMARK>
 VINA RESULT:      -7.3      2.234      6.502
  Name = 
  9 active torsions:
  status: ('A' for Active; 'I' for Inactive)
    1  A    between atoms: C_1  and  O_9
    2  A    between atoms: N_3  and  C_25
    3  A    between atoms: C_7  and  C_11
    4  A    between atoms: C_7  and  C_29
    5  A    between atoms: C_8  and  O_9
    6  A    between atoms: C_8  and  C_18
    7  A    between atoms: C_18  and  N_30
    8  A    between atoms: O_26  and  C_28
    9  A    between atoms: O_26  and  C_29
                            x       y       z     vdW  Elec       q    Type
                         _______ _______ _______ _____ _____    ______ ____

>  <TORSDO>
F 9

$$$$
=
 OpenBabel11052420203D

 34 37  0  0  1  0  0  0  0  0999 V2000
  187.4060  177.7680  144.2330 C   0  0  0  0  0  0  0  0  0  0  0  0
  189.2070  175.7160  146.6510 C   0  0  0  0  0  3  0  0  0  0  0  0
  187.7540  177.6290  147.0840 C   0  0  0  0  0  3  0  0  0  0  0  0
  185.0940  178.5670  144.5910 C   0  0  0  0  0  3  0  0  0  0  0  0
  184.1590  178.2930  146.8700 C   0  0  0  0  0  2  0  0  0  0  0  0
  184.0560  178.6930  145.4230 C   0  0  0  0  0  3  0  0  0  0  0  0
  186.6120  178.0590  146.5480 C   0  0  0  0  0  0  0  0  0  0  0  0
  186.4150  178.1190  145.0790 C   0  0  1  0  0  3  0  0  0  0  0  0
  185.5410  178.6040  147.4450 C   0  0  0  0  0  2  0  0  0  0  0  0
  190.2980  175.0740  146.2380 C   0  0  0  0  0  3  0  0  0  0  0  0
  191.3170  175.6090  145.2980 C   0  0  0  0  0  0  0  0  0  0  0  0
  190.9970  176.4080  144.2630 C   0  0  0  0  0  3  0  0  0  0  0  0
  188.9010  177.1200  146.2610 C   0  0  0  0  0  0  0  0  0  0  0  0
  189.6720  176.9610  143.9170 C   0  0  0  0  0  3  0  0  0  0  0  0
  188.6820  177.2380  144.7710 C   0  0  0  0  0  0  0  0  0  0  0  0
  192.6780  175.1480  145.4270 N   0  0  0  0  0  0  0  0  0  0  0  0
  193.0100  173.7290  145.4320 C   0  0  0  0  0  1  0  0  0  0  0  0
  193.7840  176.0890  145.5170 C   0  0  0  0  0  1  0  0  0  0  0  0
  187.2790  177.8810  142.8390 O   0  0  0  0  0  0  0  0  0  0  0  0
  186.6740  176.8780  142.0330 C   0  0  0  0  0  2  0  0  0  0  0  0
  187.6180  176.4820  140.9050 C   0  0  0  0  0  2  0  0  0  0  0  0
  187.8780  172.9890  142.2050 C   0  0  0  0  0  2  0  0  0  0  0  0
  188.5790  174.5070  140.0160 C   0  0  0  0  0  2  0  0  0  0  0  0
  189.3160  172.7780  141.7240 C   0  0  0  0  0  2  0  0  0  0  0  0
  189.5310  173.3410  140.3100 C   0  0  2  0  0  3  0  0  0  0  0  0
  188.3340  175.2590  141.2450 N   0  0  0  0  0  0  0  0  0  0  0  0
  187.4600  174.4690  142.1200 C   0  0  0  0  0  2  0  0  0  0  0  0
  190.8500  173.7830  140.1960 O   0  0  0  0  0  0  0  0  0  0  0  0
  191.4240  173.5540  141.4510 C   0  0  0  0  0  2  0  0  0  0  0  0
  192.9410  173.3940  141.3340 C   0  0  2  0  0  3  0  0  0  0  0  0
  193.4010  172.0990  141.9830 C   0  0  0  0  0  1  0  0  0  0  0  0
  193.7330  174.5720  141.8480 C   0  0  0  0  0  0  0  0  0  0  0  0
  193.2130  175.6770  141.8640 O   0  0  0  0  0  0  0  0  0  0  0  0
  195.1250  174.4300  142.3740 C   0  0  0  0  0  1  0  0  0  0  0  0
  1 15  2  0  0  0  0
  1  8  1  0  0  0  0
  4  6  2  0  0  0  0
  5  9  1  0  0  0  0
  6  5  1  0  0  0  0
  7  3  2  0  0  0  0
  7  9  1  0  0  0  0
  8  4  1  1  0  0  0
  8  7  1  0  0  0  0
 10  2  1  0  0  0  0
 11 16  1  0  0  0  0
 11 10  2  0  0  0  0
 12 11  1  0  0  0  0
 13  2  2  0  0  0  0
 13  3  1  0  0  0  0
 14 12  2  0  0  0  0
 14 15  1  0  0  0  0
 15 13  1  0  0  0  0
 16 17  1  0  0  0  0
 16 18  1  0  0  0  0
 19  1  1  0  0  0  0
 20 19  1  0  0  0  0
 21 26  1  0  0  0  0
 21 20  1  0  0  0  0
 23 25  1  0  0  0  0
 23 26  1  0  0  0  0
 24 22  1  0  0  0  0
 25 28  1  1  0  0  0
 25 24  1  0  0  0  0
 26 27  1  0  0  0  0
 27 22  1  0  0  0  0
 28 29  1  0  0  0  0
 30 29  1  0  0  0  0
 30 32  1  0  0  0  0
 30 31  1  1  0  0  0
 32 33  2  0  0  0  0
 32 34  1  0  0  0  0
M  END
>  <MODEL>
3

>  <REMARK>
 VINA RESULT:      -7.3      2.248      7.142
  Name = 
  9 active torsions:
  status: ('A' for Active; 'I' for Inactive)
    1  A    between atoms: C_1  and  O_9
    2  A    between atoms: N_3  and  C_25
    3  A    between atoms: C_7  and  C_11
    4  A    between atoms: C_7  and  C_29
    5  A    between atoms: C_8  and  O_9
    6  A    between atoms: C_8  and  C_18
    7  A    between atoms: C_18  and  N_30
    8  A    between atoms: O_26  and  C_28
    9  A    between atoms: O_26  and  C_29
                            x       y       z     vdW  Elec       q    Type
                         _______ _______ _______ _____ _____    ______ ____

>  <TORSDO>
F 9

$$$$
=
 OpenBabel11052420203D

 34 37  0  0  1  0  0  0  0  0999 V2000
  188.2030  176.3550  145.2710 C   0  0  0  0  0  0  0  0  0  0  0  0
  187.0220  176.5960  141.8280 C   0  0  0  0  0  3  0  0  0  0  0  0
  185.6990  176.6200  143.8800 C   0  0  0  0  0  3  0  0  0  0  0  0
  187.2780  177.7160  147.1160 C   0  0  0  0  0  3  0  0  0  0  0  0
  185.1910  178.9670  146.6450 C   0  0  0  0  0  2  0  0  0  0  0  0
  186.3420  178.5750  147.5310 C   0  0  0  0  0  3  0  0  0  0  0  0
  185.8790  177.1580  145.0850 C   0  0  0  0  0  0  0  0  0  0  0  0
  187.1720  177.0430  145.8050 C   0  0  1  0  0  3  0  0  0  0  0  0
  184.7160  177.7960  145.7840 C   0  0  0  0  0  2  0  0  0  0  0  0
  187.7840  176.0780  140.8670 C   0  0  0  0  0  3  0  0  0  0  0  0
  188.5570  174.8130  140.9590 C   0  0  0  0  0  0  0  0  0  0  0  0
  189.1500  174.4090  142.0990 C   0  0  0  0  0  3  0  0  0  0  0  0
  186.7910  175.9130  143.1300 C   0  0  0  0  0  0  0  0  0  0  0  0
  189.0860  175.0430  143.4310 C   0  0  0  0  0  3  0  0  0  0  0  0
  188.0760  175.7760  143.9120 C   0  0  0  0  0  0  0  0  0  0  0  0
  188.7880  174.0600  139.7500 N   0  0  0  0  0  0  0  0  0  0  0  0
  188.1330  174.4040  138.4960 C   0  0  0  0  0  1  0  0  0  0  0  0
  189.7220  172.9450  139.7270 C   0  0  0  0  0  1  0  0  0  0  0  0
  189.4140  176.1660  145.9540 O   0  0  0  0  0  0  0  0  0  0  0  0
  189.6000  175.1560  146.9370 C   0  0  0  0  0  2  0  0  0  0  0  0
  190.9910  175.2770  147.5460 C   0  0  0  0  0  2  0  0  0  0  0  0
  194.2180  176.8020  146.4400 C   0  0  0  0  0  2  0  0  0  0  0  0
  192.6310  174.5980  145.9770 C   0  0  0  0  0  2  0  0  0  0  0  0
  194.0190  176.4660  144.9610 C   0  0  0  0  0  2  0  0  0  0  0  0
  193.4630  175.0470  144.7690 C   0  0  2  0  0  3  0  0  0  0  0  0
  191.9440  175.7530  146.5520 N   0  0  0  0  0  0  0  0  0  0  0  0
  192.9250  176.5910  147.2510 C   0  0  0  0  0  2  0  0  0  0  0  0
  192.6630  175.0250  143.6250 O   0  0  0  0  0  0  0  0  0  0  0  0
  193.1440  176.0640  142.8210 C   0  0  0  0  0  2  0  0  0  0  0  0
  193.6090  175.5310  141.4650 C   0  0  2  0  0  3  0  0  0  0  0  0
  192.9470  174.2000  141.1490 C   0  0  0  0  0  1  0  0  0  0  0  0
  195.1090  175.4440  141.3120 C   0  0  0  0  0  0  0  0  0  0  0  0
  195.5960  174.4600  140.7780 O   0  0  0  0  0  0  0  0  0  0  0  0
  196.0220  176.5390  141.7590 C   0  0  0  0  0  1  0  0  0  0  0  0
  1  8  1  0  0  0  0
  1 19  1  0  0  0  0
  2 13  2  0  0  0  0
  3  7  2  0  0  0  0
  4  6  2  0  0  0  0
  5  6  1  0  0  0  0
  7  9  1  0  0  0  0
  7  8  1  0  0  0  0
  8  4  1  6  0  0  0
  9  5  1  0  0  0  0
 10 11  2  0  0  0  0
 10  2  1  0  0  0  0
 11 12  1  0  0  0  0
 12 14  2  0  0  0  0
 13  3  1  0  0  0  0
 13 15  1  0  0  0  0
 14 15  1  0  0  0  0
 15  1  2  0  0  0  0
 16 11  1  0  0  0  0
 17 16  1  0  0  0  0
 18 16  1  0  0  0  0
 19 20  1  0  0  0  0
 20 21  1  0  0  0  0
 22 27  1  0  0  0  0
 23 26  1  0  0  0  0
 24 22  1  0  0  0  0
 25 28  1  6  0  0  0
 25 24  1  0  0  0  0
 25 23  1  0  0  0  0
 26 27  1  0  0  0  0
 26 21  1  0  0  0  0
 29 28  1  0  0  0  0
 30 31  1  1  0  0  0
 30 29  1  0  0  0  0
 32 30  1  0  0  0  0
 32 34  1  0  0  0  0
 33 32  2  0  0  0  0
M  END
>  <MODEL>
4

>  <REMARK>
 VINA RESULT:      -7.3      2.237      6.400
  Name = 
  9 active torsions:
  status: ('A' for Active; 'I' for Inactive)
    1  A    between atoms: C_1  and  O_9
    2  A    between atoms: N_3  and  C_25
    3  A    between atoms: C_7  and  C_11
    4  A    between atoms: C_7  and  C_29
    5  A    between atoms: C_8  and  O_9
    6  A    between atoms: C_8  and  C_18
    7  A    between atoms: C_18  and  N_30
    8  A    between atoms: O_26  and  C_28
    9  A    between atoms: O_26  and  C_29
                            x       y       z     vdW  Elec       q    Type
                         _______ _______ _______ _____ _____    ______ ____

>  <TORSDO>
F 9

$$$$
=
 OpenBabel11052420203D

 34 37  0  0  1  0  0  0  0  0999 V2000
  188.0700  177.4350  144.3170 C   0  0  0  0  0  0  0  0  0  0  0  0
  190.5190  176.1260  146.6830 C   0  0  0  0  0  3  0  0  0  0  0  0
  188.7770  177.7900  147.0820 C   0  0  0  0  0  3  0  0  0  0  0  0
  185.7060  177.8500  144.9080 C   0  0  0  0  0  3  0  0  0  0  0  0
  185.1230  177.7580  147.3150 C   0  0  0  0  0  2  0  0  0  0  0  0
  184.7710  177.9110  145.8600 C   0  0  0  0  0  3  0  0  0  0  0  0
  187.5180  177.9230  146.6690 C   0  0  0  0  0  0  0  0  0  0  0  0
  187.1380  177.7250  145.2480 C   0  0  1  0  0  3  0  0  0  0  0  0
  186.4750  178.3950  147.6380 C   0  0  0  0  0  2  0  0  0  0  0  0
  191.6580  175.6360  146.1970 C   0  0  0  0  0  3  0  0  0  0  0  0
  192.4300  176.1980  145.0600 C   0  0  0  0  0  0  0  0  0  0  0  0
  191.8370  176.7620  143.9910 C   0  0  0  0  0  3  0  0  0  0  0  0
  189.8960  177.3780  146.1690 C   0  0  0  0  0  0  0  0  0  0  0  0
  190.3970  177.0100  143.7760 C   0  0  0  0  0  3  0  0  0  0  0  0
  189.4810  177.2300  144.7250 C   0  0  0  0  0  0  0  0  0  0  0  0
  193.8610  176.0140  145.0450 N   0  0  0  0  0  0  0  0  0  0  0  0
  194.6260  175.8450  146.2740 C   0  0  0  0  0  1  0  0  0  0  0  0
  194.5970  175.9470  143.7910 C   0  0  0  0  0  1  0  0  0  0  0  0
  187.7570  177.3120  142.9540 O   0  0  0  0  0  0  0  0  0  0  0  0
  187.3320  176.0910  142.3630 C   0  0  0  0  0  2  0  0  0  0  0  0
  187.8010  176.0260  140.9150 C   0  0  0  0  0  2  0  0  0  0  0  0
  188.9900  173.3620  138.5800 C   0  0  0  0  0  2  0  0  0  0  0  0
  189.5550  174.4390  141.0520 C   0  0  0  0  0  2  0  0  0  0  0  0
  189.2350  172.3260  139.6790 C   0  0  0  0  0  2  0  0  0  0  0  0
  189.9060  172.9520  140.9120 C   0  0  2  0  0  3  0  0  0  0  0  0
  188.1950  174.6670  140.5680 N   0  0  0  0  0  0  0  0  0  0  0  0
  188.1890  174.5700  139.1030 C   0  0  0  0  0  2  0  0  0  0  0  0
  189.4820  172.2690  142.0530 O   0  0  0  0  0  0  0  0  0  0  0  0
  190.5590  171.4530  142.4140 C   0  0  0  0  0  2  0  0  0  0  0  0
  191.0920  171.8350  143.7950 C   0  0  2  0  0  3  0  0  0  0  0  0
  190.0940  172.7050  144.5410 C   0  0  0  0  0  1  0  0  0  0  0  0
  192.4630  172.4680  143.7810 C   0  0  0  0  0  0  0  0  0  0  0  0
  192.8500  173.0250  142.7660 O   0  0  0  0  0  0  0  0  0  0  0  0
  193.3550  172.4700  144.9810 C   0  0  0  0  0  1  0  0  0  0  0  0
  1 15  2  0  0  0  0
  1  8  1  0  0  0  0
  4  6  2  0  0  0  0
  5  9  1  0  0  0  0
  6  5  1  0  0  0  0
  7  3  2  0  0  0  0
  7  9  1  0  0  0  0
  8  4  1  1  0  0  0
  8  7  1  0  0  0  0
 10  2  1  0  0  0  0
 11 10  2  0  0  0  0
 12 11  1  0  0  0  0
 13  2  2  0  0  0  0
 13  3  1  0  0  0  0
 14 12  2  0  0  0  0
 14 15  1  0  0  0  0
 15 13  1  0  0  0  0
 16 11  1  0  0  0  0
 16 17  1  0  0  0  0
 18 16  1  0  0  0  0
 19  1  1  0  0  0  0
 20 19  1  0  0  0  0
 21 20  1  0  0  0  0
 22 27  1  0  0  0  0
 22 24  1  0  0  0  0
 24 25  1  0  0  0  0
 25 23  1  0  0  0  0
 25 28  1  1  0  0  0
 26 21  1  0  0  0  0
 26 23  1  0  0  0  0
 27 26  1  0  0  0  0
 28 29  1  0  0  0  0
 29 30  1  0  0  0  0
 30 31  1  6  0  0  0
 32 30  1  0  0  0  0
 32 34  1  0  0  0  0
 33 32  2  0  0  0  0
M  END
>  <MODEL>
5

>  <REMARK>
 VINA RESULT:      -7.2      2.424      7.242
  Name = 
  9 active torsions:
  status: ('A' for Active; 'I' for Inactive)
    1  A    between atoms: C_1  and  O_9
    2  A    between atoms: N_3  and  C_25
    3  A    between atoms: C_7  and  C_11
    4  A    between atoms: C_7  and  C_29
    5  A    between atoms: C_8  and  O_9
    6  A    between atoms: C_8  and  C_18
    7  A    between atoms: C_18  and  N_30
    8  A    between atoms: O_26  and  C_28
    9  A    between atoms: O_26  and  C_29
                            x       y       z     vdW  Elec       q    Type
                         _______ _______ _______ _____ _____    ______ ____

>  <TORSDO>
F 9

$$$$
=
 OpenBabel11052420203D

 34 37  0  0  1  0  0  0  0  0999 V2000
  187.5130  177.7240  144.2410 C   0  0  0  0  0  0  0  0  0  0  0  0
  189.1060  175.7030  146.8260 C   0  0  0  0  0  3  0  0  0  0  0  0
  187.6280  177.6240  147.1130 C   0  0  0  0  0  3  0  0  0  0  0  0
  185.1810  178.5310  144.4000 C   0  0  0  0  0  3  0  0  0  0  0  0
  184.0640  178.2910  146.5990 C   0  0  0  0  0  2  0  0  0  0  0  0
  184.0800  178.6700  145.1430 C   0  0  0  0  0  3  0  0  0  0  0  0
  186.5350  178.0490  146.4810 C   0  0  0  0  0  0  0  0  0  0  0  0
  186.4580  178.0880  144.9990 C   0  0  1  0  0  3  0  0  0  0  0  0
  185.3960  178.6080  147.2790 C   0  0  0  0  0  2  0  0  0  0  0  0
  190.2260  175.0540  146.5110 C   0  0  0  0  0  3  0  0  0  0  0  0
  191.3180  175.5740  145.6500 C   0  0  0  0  0  0  0  0  0  0  0  0
  191.0860  176.3590  144.5810 C   0  0  0  0  0  3  0  0  0  0  0  0
  188.8370  177.1020  146.3920 C   0  0  0  0  0  0  0  0  0  0  0  0
  189.7950  176.9090  144.1220 C   0  0  0  0  0  3  0  0  0  0  0  0
  188.7390  177.1990  144.8890 C   0  0  0  0  0  0  0  0  0  0  0  0
  192.6630  175.1130  145.8960 N   0  0  0  0  0  0  0  0  0  0  0  0
  193.1010  173.7800  145.5010 C   0  0  0  0  0  1  0  0  0  0  0  0
  193.6540  175.9800  146.5140 C   0  0  0  0  0  1  0  0  0  0  0  0
  187.4990  177.8170  142.8410 O   0  0  0  0  0  0  0  0  0  0  0  0
  186.9110  176.8290  142.0040 C   0  0  0  0  0  2  0  0  0  0  0  0
  187.8150  176.5610  140.8070 C   0  0  0  0  0  2  0  0  0  0  0  0
  188.0230  173.0310  142.0150 C   0  0  0  0  0  2  0  0  0  0  0  0
  188.1800  174.5030  139.6910 C   0  0  0  0  0  2  0  0  0  0  0  0
  189.1930  172.6520  141.1050 C   0  0  0  0  0  2  0  0  0  0  0  0
  189.0180  173.2180  139.6880 C   0  0  2  0  0  3  0  0  0  0  0  0
  188.4370  175.2490  140.9220 N   0  0  0  0  0  0  0  0  0  0  0  0
  187.7930  174.5540  142.0430 C   0  0  0  0  0  2  0  0  0  0  0  0
  190.2780  173.4910  139.1520 O   0  0  0  0  0  0  0  0  0  0  0  0
  191.0480  172.3560  139.4280 C   0  0  0  0  0  2  0  0  0  0  0  0
  191.4420  171.6390  138.1360 C   0  0  2  0  0  3  0  0  0  0  0  0
  191.9880  172.6220  137.1140 C   0  0  0  0  0  1  0  0  0  0  0  0
  190.3480  170.7850  137.5400 C   0  0  0  0  0  0  0  0  0  0  0  0
  189.7150  170.0360  138.2670 O   0  0  0  0  0  0  0  0  0  0  0  0
  189.9850  170.8480  136.0910 C   0  0  0  0  0  1  0  0  0  0  0  0
  1 15  2  0  0  0  0
  1  8  1  0  0  0  0
  4  6  2  0  0  0  0
  5  9  1  0  0  0  0
  6  5  1  0  0  0  0
  7  3  2  0  0  0  0
  7  9  1  0  0  0  0
  8  4  1  6  0  0  0
  8  7  1  0  0  0  0
 10  2  1  0  0  0  0
 11 16  1  0  0  0  0
 11 10  2  0  0  0  0
 12 11  1  0  0  0  0
 13  2  2  0  0  0  0
 13  3  1  0  0  0  0
 14 12  2  0  0  0  0
 14 15  1  0  0  0  0
 15 13  1  0  0  0  0
 16 18  1  0  0  0  0
 17 16  1  0  0  0  0
 19  1  1  0  0  0  0
 20 19  1  0  0  0  0
 21 26  1  0  0  0  0
 21 20  1  0  0  0  0
 22 27  1  0  0  0  0
 23 26  1  0  0  0  0
 24 22  1  0  0  0  0
 25 28  1  1  0  0  0
 25 23  1  0  0  0  0
 25 24  1  0  0  0  0
 26 27  1  0  0  0  0
 28 29  1  0  0  0  0
 30 31  1  6  0  0  0
 30 29  1  0  0  0  0
 32 30  1  0  0  0  0
 32 33  2  0  0  0  0
 34 32  1  0  0  0  0
M  END
>  <MODEL>
6

>  <REMARK>
 VINA RESULT:      -7.2      2.522      7.453
  Name = 
  9 active torsions:
  status: ('A' for Active; 'I' for Inactive)
    1  A    between atoms: C_1  and  O_9
    2  A    between atoms: N_3  and  C_25
    3  A    between atoms: C_7  and  C_11
    4  A    between atoms: C_7  and  C_29
    5  A    between atoms: C_8  and  O_9
    6  A    between atoms: C_8  and  C_18
    7  A    between atoms: C_18  and  N_30
    8  A    between atoms: O_26  and  C_28
    9  A    between atoms: O_26  and  C_29
                            x       y       z     vdW  Elec       q    Type
                         _______ _______ _______ _____ _____    ______ ____

>  <TORSDO>
F 9

$$$$
=
 OpenBabel11052420203D

 34 37  0  0  1  0  0  0  0  0999 V2000
  190.6190  175.5680  142.5720 C   0  0  0  0  0  0  0  0  0  0  0  0
  189.4570  172.4560  141.0630 C   0  0  0  0  0  3  0  0  0  0  0  0
  188.1450  174.1360  142.2530 C   0  0  0  0  0  3  0  0  0  0  0  0
  189.3640  177.6930  142.4250 C   0  0  0  0  0  3  0  0  0  0  0  0
  187.0380  177.5610  141.5780 C   0  0  0  0  0  2  0  0  0  0  0  0
  188.2400  178.3220  142.0710 C   0  0  0  0  0  3  0  0  0  0  0  0
  188.1710  175.4670  142.2930 C   0  0  0  0  0  0  0  0  0  0  0  0
  189.4440  176.2170  142.4390 C   0  0  0  0  0  0  0  0  0  0  0  0
  186.8780  176.2260  142.3060 C   0  0  0  0  0  2  0  0  0  0  0  0
  190.3360  171.4670  140.9140 C   0  0  0  0  0  3  0  0  0  0  0  0
  191.3960  171.0940  141.8850 C   0  0  0  0  0  0  0  0  0  0  0  0
  192.0560  172.0070  142.6220 C   0  0  0  0  0  3  0  0  0  0  0  0
  189.3860  173.2930  142.2920 C   0  0  2  0  0  3  0  0  0  0  0  0
  191.8210  173.4630  142.6880 C   0  0  0  0  0  3  0  0  0  0  0  0
  190.6560  174.0880  142.4870 C   0  0  0  0  0  0  0  0  0  0  0  0
  191.8200  169.7160  141.9410 N   0  0  0  0  0  0  0  0  0  0  0  0
  193.1850  169.3470  142.2930 C   0  0  0  0  0  1  0  0  0  0  0  0
  190.8840  168.6310  141.6880 C   0  0  0  0  0  1  0  0  0  0  0  0
  191.8300  176.2430  142.7830 O   0  0  0  0  0  0  0  0  0  0  0  0
  192.0750  177.0590  143.9220 C   0  0  0  0  0  2  0  0  0  0  0  0
  192.0010  176.2160  145.1880 C   0  0  0  0  0  2  0  0  0  0  0  0
  189.2740  174.7270  147.2650 C   0  0  0  0  0  2  0  0  0  0  0  0
  190.2430  177.1750  146.4540 C   0  0  0  0  0  2  0  0  0  0  0  0
  188.1990  175.7050  146.7860 C   0  0  0  0  0  2  0  0  0  0  0  0
  188.7310  177.1450  146.7120 C   0  0  2  0  0  3  0  0  0  0  0  0
  190.6160  176.0440  145.6070 N   0  0  0  0  0  0  0  0  0  0  0  0
  190.5470  174.8110  146.4010 C   0  0  0  0  0  2  0  0  0  0  0  0
  188.0740  177.8170  145.6810 O   0  0  0  0  0  0  0  0  0  0  0  0
  186.7310  177.4420  145.7960 C   0  0  0  0  0  2  0  0  0  0  0  0
  185.8790  178.6130  146.2900 C   0  0  2  0  0  3  0  0  0  0  0  0
  185.2400  178.2910  147.6310 C   0  0  0  0  0  1  0  0  0  0  0  0
  184.8490  179.0960  145.2970 C   0  0  0  0  0  0  0  0  0  0  0  0
  183.6660  179.0390  145.5920 O   0  0  0  0  0  0  0  0  0  0  0  0
  185.2280  179.6780  143.9730 C   0  0  0  0  0  1  0  0  0  0  0  0
  1 19  1  0  0  0  0
  3 13  1  0  0  0  0
  3  7  2  0  0  0  0
  4  8  1  0  0  0  0
  5  6  1  0  0  0  0
  5  9  1  0  0  0  0
  6  4  2  0  0  0  0
  7  9  1  0  0  0  0
  7  8  1  0  0  0  0
  8  1  2  0  0  0  0
 10  2  2  0  0  0  0
 10 11  1  0  0  0  0
 11 16  1  0  0  0  0
 11 12  2  0  0  0  0
 12 14  1  0  0  0  0
 13  2  1  6  0  0  0
 13 15  1  0  0  0  0
 15  1  1  0  0  0  0
 15 14  2  0  0  0  0
 16 17  1  0  0  0  0
 18 16  1  0  0  0  0
 19 20  1  0  0  0  0
 20 21  1  0  0  0  0
 21 26  1  0  0  0  0
 23 25  1  0  0  0  0
 24 22  1  0  0  0  0
 25 28  1  6  0  0  0
 25 24  1  0  0  0  0
 26 27  1  0  0  0  0
 26 23  1  0  0  0  0
 27 22  1  0  0  0  0
 28 29  1  0  0  0  0
 29 30  1  0  0  0  0
 30 31  1  1  0  0  0
 32 33  2  0  0  0  0
 32 30  1  0  0  0  0
 34 32  1  0  0  0  0
M  END
>  <MODEL>
7

>  <REMARK>
 VINA RESULT:      -7.2      2.241      4.898
  Name = 
  9 active torsions:
  status: ('A' for Active; 'I' for Inactive)
    1  A    between atoms: C_1  and  O_9
    2  A    between atoms: N_3  and  C_25
    3  A    between atoms: C_7  and  C_11
    4  A    between atoms: C_7  and  C_29
    5  A    between atoms: C_8  and  O_9
    6  A    between atoms: C_8  and  C_18
    7  A    between atoms: C_18  and  N_30
    8  A    between atoms: O_26  and  C_28
    9  A    between atoms: O_26  and  C_29
                            x       y       z     vdW  Elec       q    Type
                         _______ _______ _______ _____ _____    ______ ____

>  <TORSDO>
F 9

$$$$
=
 OpenBabel11052420203D

 34 37  0  0  1  0  0  0  0  0999 V2000
  188.0260  176.3950  145.4100 C   0  0  0  0  0  0  0  0  0  0  0  0
  187.0200  176.7170  141.9180 C   0  0  0  0  0  3  0  0  0  0  0  0
  185.6000  176.7410  143.9040 C   0  0  0  0  0  3  0  0  0  0  0  0
  187.0440  177.7490  147.2310 C   0  0  0  0  0  3  0  0  0  0  0  0
  185.0130  179.0570  146.6790 C   0  0  0  0  0  2  0  0  0  0  0  0
  186.1100  178.6230  147.6140 C   0  0  0  0  0  3  0  0  0  0  0  0
  185.7330  177.2560  145.1260 C   0  0  0  0  0  0  0  0  0  0  0  0
  186.9860  177.0980  145.9050 C   0  0  1  0  0  3  0  0  0  0  0  0
  184.5530  177.9110  145.7780 C   0  0  0  0  0  2  0  0  0  0  0  0
  187.8160  176.1950  140.9870 C   0  0  0  0  0  3  0  0  0  0  0  0
  188.5540  174.9100  141.0960 C   0  0  0  0  0  0  0  0  0  0  0  0
  189.0810  174.4740  142.2560 C   0  0  0  0  0  3  0  0  0  0  0  0
  186.7100  176.0190  143.1970 C   0  0  0  0  0  0  0  0  0  0  0  0
  188.9660  175.0890  143.5940 C   0  0  0  0  0  3  0  0  0  0  0  0
  187.9520  175.8390  144.0370 C   0  0  0  0  0  0  0  0  0  0  0  0
  188.8260  174.1700  139.8880 N   0  0  0  0  0  0  0  0  0  0  0  0
  189.7510  173.0460  139.8680 C   0  0  0  0  0  1  0  0  0  0  0  0
  188.1500  174.4950  138.6400 C   0  0  0  0  0  1  0  0  0  0  0  0
  189.1970  176.1650  146.1480 O   0  0  0  0  0  0  0  0  0  0  0  0
  190.3310  177.0210  146.0890 C   0  0  0  0  0  2  0  0  0  0  0  0
  191.4910  176.3960  146.8530 C   0  0  0  0  0  2  0  0  0  0  0  0
  193.3060  176.4150  143.5860 C   0  0  0  0  0  2  0  0  0  0  0  0
  193.7760  176.6690  146.2890 C   0  0  0  0  0  2  0  0  0  0  0  0
  194.5010  175.6090  144.0970 C   0  0  0  0  0  2  0  0  0  0  0  0
  194.9450  176.0720  145.4940 C   0  0  2  0  0  3  0  0  0  0  0  0
  192.5400  175.9760  145.9320 N   0  0  0  0  0  0  0  0  0  0  0  0
  192.1330  176.3910  144.5840 C   0  0  0  0  0  2  0  0  0  0  0  0
  195.4640  174.9780  146.1890 O   0  0  0  0  0  0  0  0  0  0  0  0
  195.9040  174.0910  145.2010 C   0  0  0  0  0  2  0  0  0  0  0  0
  195.9490  172.6590  145.7370 C   0  0  2  0  0  3  0  0  0  0  0  0
  197.1620  171.9170  145.2020 C   0  0  0  0  0  1  0  0  0  0  0  0
  194.6820  171.8690  145.5090 C   0  0  0  0  0  0  0  0  0  0  0  0
  193.6230  172.4640  145.3880 O   0  0  0  0  0  0  0  0  0  0  0  0
  194.6810  170.3780  145.3900 C   0  0  0  0  0  1  0  0  0  0  0  0
  1  8  1  0  0  0  0
  1 19  1  0  0  0  0
  2 13  2  0  0  0  0
  3  7  2  0  0  0  0
  4  6  2  0  0  0  0
  5  6  1  0  0  0  0
  7  9  1  0  0  0  0
  7  8  1  0  0  0  0
  8  4  1  6  0  0  0
  9  5  1  0  0  0  0
 10 11  2  0  0  0  0
 10  2  1  0  0  0  0
 11 12  1  0  0  0  0
 12 14  2  0  0  0  0
 13  3  1  0  0  0  0
 13 15  1  0  0  0  0
 14 15  1  0  0  0  0
 15  1  2  0  0  0  0
 16 11  1  0  0  0  0
 17 16  1  0  0  0  0
 18 16  1  0  0  0  0
 20 19  1  0  0  0  0
 20 21  1  0  0  0  0
 22 24  1  0  0  0  0
 22 27  1  0  0  0  0
 24 25  1  0  0  0  0
 25 28  1  1  0  0  0
 25 23  1  0  0  0  0
 26 23  1  0  0  0  0
 26 21  1  0  0  0  0
 27 26  1  0  0  0  0
 29 30  1  0  0  0  0
 29 28  1  0  0  0  0
 30 31  1  6  0  0  0
 32 30  1  0  0  0  0
 33 32  2  0  0  0  0
 34 32  1  0  0  0  0
M  END
>  <MODEL>
8

>  <REMARK>
 VINA RESULT:      -7.1      2.613      7.498
  Name = 
  9 active torsions:
  status: ('A' for Active; 'I' for Inactive)
    1  A    between atoms: C_1  and  O_9
    2  A    between atoms: N_3  and  C_25
    3  A    between atoms: C_7  and  C_11
    4  A    between atoms: C_7  and  C_29
    5  A    between atoms: C_8  and  O_9
    6  A    between atoms: C_8  and  C_18
    7  A    between atoms: C_18  and  N_30
    8  A    between atoms: O_26  and  C_28
    9  A    between atoms: O_26  and  C_29
                            x       y       z     vdW  Elec       q    Type
                         _______ _______ _______ _____ _____    ______ ____

>  <TORSDO>
F 9

$$$$
=
 OpenBabel11052420203D

 34 37  0  0  1  0  0  0  0  0999 V2000
  191.0430  174.6010  143.8190 C   0  0  0  0  0  0  0  0  0  0  0  0
  194.6370  175.2150  143.7110 C   0  0  0  0  0  3  0  0  0  0  0  0
  192.9550  176.3490  145.0680 C   0  0  0  0  0  3  0  0  0  0  0  0
  189.7350  174.5950  145.9170 C   0  0  0  0  0  3  0  0  0  0  0  0
  190.8700  175.4590  147.9440 C   0  0  0  0  0  2  0  0  0  0  0  0
  189.7010  174.8330  147.2310 C   0  0  0  0  0  3  0  0  0  0  0  0
  191.8660  175.9410  145.7180 C   0  0  0  0  0  0  0  0  0  0  0  0
  190.8820  175.0240  145.0900 C   0  0  1  0  0  3  0  0  0  0  0  0
  191.5660  176.5060  147.0740 C   0  0  0  0  0  2  0  0  0  0  0  0
  195.2960  174.8800  142.6030 C   0  0  0  0  0  3  0  0  0  0  0  0
  194.7990  175.0450  141.2130 C   0  0  0  0  0  0  0  0  0  0  0  0
  193.5030  174.8800  140.8840 C   0  0  0  0  0  3  0  0  0  0  0  0
  193.3050  175.8800  143.6860 C   0  0  0  0  0  0  0  0  0  0  0  0
  192.3640  174.6110  141.7840 C   0  0  0  0  0  3  0  0  0  0  0  0
  192.2590  174.9860  143.0630 C   0  0  0  0  0  0  0  0  0  0  0  0
  195.7620  175.2610  140.1610 N   0  0  0  0  0  0  0  0  0  0  0  0
  197.1250  175.6880  140.4450 C   0  0  0  0  0  1  0  0  0  0  0  0
  195.4190  175.0180  138.7680 C   0  0  0  0  0  1  0  0  0  0  0  0
  190.0960  173.7930  143.1710 O   0  0  0  0  0  0  0  0  0  0  0  0
  188.7860  174.2400  142.8490 C   0  0  0  0  0  2  0  0  0  0  0  0
  188.8200  175.0620  141.5680 C   0  0  0  0  0  2  0  0  0  0  0  0
  186.2280  177.5420  140.5210 C   0  0  0  0  0  2  0  0  0  0  0  0
  186.9720  176.0240  142.6960 C   0  0  0  0  0  2  0  0  0  0  0  0
  186.2310  178.3010  141.8500 C   0  0  0  0  0  2  0  0  0  0  0  0
  186.2760  177.3440  143.0510 C   0  0  2  0  0  3  0  0  0  0  0  0
  188.0290  176.2770  141.7200 N   0  0  0  0  0  0  0  0  0  0  0  0
  187.4160  176.5680  140.4180 C   0  0  0  0  0  2  0  0  0  0  0  0
  186.9670  177.9620  144.0950 O   0  0  0  0  0  0  0  0  0  0  0  0
  186.0690  178.8940  144.6280 C   0  0  0  0  0  2  0  0  0  0  0  0
  185.1210  178.2270  145.6250 C   0  0  2  0  0  3  0  0  0  0  0  0
  183.8040  178.9820  145.7100 C   0  0  0  0  0  1  0  0  0  0  0  0
  185.7120  178.0080  146.9960 C   0  0  0  0  0  0  0  0  0  0  0  0
  185.4730  178.8110  147.8830 O   0  0  0  0  0  0  0  0  0  0  0  0
  186.5560  176.8170  147.3210 C   0  0  0  0  0  1  0  0  0  0  0  0
  1  8  1  0  0  0  0
  3  7  2  0  0  0  0
  4  6  2  0  0  0  0
  6  5  1  0  0  0  0
  7  9  1  0  0  0  0
  8  7  1  0  0  0  0
  8  4  1  1  0  0  0
  9  5  1  0  0  0  0
 10  2  1  0  0  0  0
 11 10  2  0  0  0  0
 12 11  1  0  0  0  0
 12 14  2  0  0  0  0
 13  2  2  0  0  0  0
 13  3  1  0  0  0  0
 14 15  1  0  0  0  0
 15 13  1  0  0  0  0
 15  1  2  0  0  0  0
 16 17  1  0  0  0  0
 16 11  1  0  0  0  0
 18 16  1  0  0  0  0
 19  1  1  0  0  0  0
 20 19  1  0  0  0  0
 21 26  1  0  0  0  0
 21 20  1  0  0  0  0
 22 24  1  0  0  0  0
 23 25  1  0  0  0  0
 24 25  1  0  0  0  0
 25 28  1  1  0  0  0
 26 23  1  0  0  0  0
 27 22  1  0  0  0  0
 27 26  1  0  0  0  0
 28 29  1  0  0  0  0
 29 30  1  0  0  0  0
 30 31  1  1  0  0  0
 30 32  1  0  0  0  0
 32 34  1  0  0  0  0
 32 33  2  0  0  0  0
M  END
>  <MODEL>
9

>  <REMARK>
 VINA RESULT:      -6.9      2.416      4.766
  Name = 
  9 active torsions:
  status: ('A' for Active; 'I' for Inactive)
    1  A    between atoms: C_1  and  O_9
    2  A    between atoms: N_3  and  C_25
    3  A    between atoms: C_7  and  C_11
    4  A    between atoms: C_7  and  C_29
    5  A    between atoms: C_8  and  O_9
    6  A    between atoms: C_8  and  C_18
    7  A    between atoms: C_18  and  N_30
    8  A    between atoms: O_26  and  C_28
    9  A    between atoms: O_26  and  C_29
                            x       y       z     vdW  Elec       q    Type
                         _______ _______ _______ _____ _____    ______ ____

>  <TORSDO>
F 9

$$$$
