=
 OpenBabel11052420323D

 34 40  0  0  1  0  0  0  0  0999 V2000
  190.7000  175.1090  143.2200 C   0  0  0  0  0  0  0  0  0  0  0  0
  192.5980  172.4950  141.4300 C   0  0  0  0  0  3  0  0  0  0  0  0
  192.9280  173.4900  143.5760 N   0  0  0  0  0  0  0  0  0  0  0  0
  189.9040  177.4980  145.1580 S   0  0  0  0  0  0  0  0  0  0  0  0
  189.4470  175.7950  143.1230 N   0  0  0  0  0  2  0  0  0  0  0  0
  191.2190  176.2920  145.3860 C   0  0  0  0  0  0  0  0  0  0  0  0
  193.3400  175.7010  146.5440 C   0  0  0  0  0  2  0  0  0  0  0  0
  192.0430  176.4550  146.4250 C   0  0  0  0  0  3  0  0  0  0  0  0
  188.7930  176.3370  144.3080 C   0  0  2  0  0  3  0  0  0  0  0  0
  192.5990  174.3860  144.5440 C   0  0  0  0  0  0  0  0  0  0  0  0
  191.5110  175.2590  144.3600 C   0  0  0  0  0  0  0  0  0  0  0  0
  193.2880  174.3270  145.8750 C   0  0  0  0  0  2  0  0  0  0  0  0
  191.8330  172.3740  140.2640 C   0  0  0  0  0  0  0  0  0  0  0  0
  190.7130  173.2010  140.1000 C   0  0  0  0  0  3  0  0  0  0  0  0
  192.2260  173.4060  142.4160 C   0  0  0  0  0  0  0  0  0  0  0  0
  190.3590  174.0830  141.0730 N   0  0  0  0  0  0  0  0  0  0  0  0
  191.0840  174.2100  142.2190 C   0  0  0  0  0  0  0  0  0  0  0  0
  185.2300  177.8380  144.5070 C   0  0  0  0  0  2  0  0  0  0  0  0
  187.2600  177.3330  142.5680 N   0  0  0  0  0  0  0  0  0  0  0  0
  183.3200  178.0120  141.2230 N   0  0  0  0  0  0  0  0  0  0  0  0
  183.6150  178.3060  142.6290 C   0  0  0  0  0  2  0  0  0  0  0  0
  184.8790  177.5660  143.0480 C   0  0  1  0  0  3  0  0  0  0  0  0
  185.7230  177.8030  140.7080 C   0  0  0  0  0  2  0  0  0  0  0  0
  186.0430  178.0360  142.1770 C   0  0  2  0  0  3  0  0  0  0  0  0
  184.4120  178.5140  140.3720 C   0  0  0  0  0  2  0  0  0  0  0  0
  187.5060  177.0050  143.9440 C   0  0  0  0  0  0  0  0  0  0  0  0
  186.5420  177.1880  144.8620 C   0  0  0  0  0  2  0  0  0  0  0  0
  182.0540  178.6700  140.8820 C   0  0  1  0  0  3  0  0  0  0  0  0
  181.2630  177.8740  140.0460 O   0  0  0  0  0  1  0  0  0  0  0  0
  181.2840  179.0410  142.1370 C   0  0  0  0  0  1  0  0  0  0  0  0
  191.8270  170.0120  139.3350 N   0  0  0  0  0  0  0  0  0  0  0  0
  191.1610  170.9080  138.3790 C   0  0  0  0  0  2  0  0  0  0  0  0
  190.8600  169.7970  140.4090 C   0  0  0  0  0  1  0  0  0  0  0  0
  192.2760  171.4260  139.1730 C   0  0  1  0  0  3  0  0  0  0  0  0
  1 11  1  0  0  0  0
  2 15  1  0  0  0  0
  3 10  1  0  0  0  0
  4  6  1  0  0  0  0
  5  1  1  0  0  0  0
  5  9  1  0  0  0  0
  6  8  2  0  0  0  0
  8  7  1  0  0  0  0
  9 26  1  6  0  0  0
  9  4  1  0  0  0  0
 10 12  1  0  0  0  0
 11 10  2  0  0  0  0
 11  6  1  0  0  0  0
 12  7  1  0  0  0  0
 13  2  2  0  0  0  0
 14 13  1  0  0  0  0
 14 16  2  0  0  0  0
 15  3  2  0  0  0  0
 16 17  1  0  0  0  0
 17 15  1  0  0  0  0
 17  1  2  0  0  0  0
 18 27  1  0  0  0  0
 19 26  2  0  0  0  0
 20 21  1  0  0  0  0
 22 21  1  6  0  0  0
 22 18  1  0  0  0  0
 24 23  1  6  0  0  0
 24 19  1  0  0  0  0
 24 22  1  0  0  0  0
 25 23  1  0  0  0  0
 25 20  1  0  0  0  0
 26 27  1  0  0  0  0
 28 20  1  0  0  0  0
 28 30  1  1  0  0  0
 29 28  1  0  0  0  0
 31 33  1  0  0  0  0
 32 34  1  0  0  0  0
 32 31  1  0  0  0  0
 34 31  1  0  0  0  0
 34 13  1  1  0  0  0
M  END
>  <MODEL>
1

>  <REMARK>
 VINA RESULT:      -7.8      0.000      0.000
  Name = 
  3 active torsions:
  status: ('A' for Active; 'I' for Inactive)
    1  A    between atoms: N_7  and  C_11
    2  A    between atoms: C_18  and  C_30
    3  A    between atoms: C_23  and  C_25
                            x       y       z     vdW  Elec       q    Type
                         _______ _______ _______ _____ _____    ______ ____

>  <TORSDO>
F 3

$$$$
=
 OpenBabel11052420323D

 34 40  0  0  1  0  0  0  0  0999 V2000
  192.6800  173.7930  143.7930 C   0  0  0  0  0  0  0  0  0  0  0  0
  193.3310  170.8360  141.6780 C   0  0  0  0  0  3  0  0  0  0  0  0
  194.6020  171.8180  143.4460 N   0  0  0  0  0  0  0  0  0  0  0  0
  193.0550  176.3380  145.6560 S   0  0  0  0  0  0  0  0  0  0  0  0
  191.6040  174.6850  144.1040 N   0  0  0  0  0  2  0  0  0  0  0  0
  194.1590  174.9280  145.4920 C   0  0  0  0  0  0  0  0  0  0  0  0
  196.4450  174.0070  145.8290 C   0  0  0  0  0  2  0  0  0  0  0  0
  195.3310  174.9730  146.1310 C   0  0  0  0  0  3  0  0  0  0  0  0
  191.5420  175.3670  145.3920 C   0  0  2  0  0  3  0  0  0  0  0  0
  194.8070  172.7860  144.3790 C   0  0  0  0  0  0  0  0  0  0  0  0
  193.8770  173.8300  144.5320 C   0  0  0  0  0  0  0  0  0  0  0  0
  195.9340  172.6440  145.3580 C   0  0  0  0  0  2  0  0  0  0  0  0
  192.1710  170.8180  140.8960 C   0  0  0  0  0  0  0  0  0  0  0  0
  191.2120  171.8240  141.0830 C   0  0  0  0  0  3  0  0  0  0  0  0
  193.5060  171.8260  142.6420 C   0  0  0  0  0  0  0  0  0  0  0  0
  191.3940  172.7820  142.0310 N   0  0  0  0  0  0  0  0  0  0  0  0
  192.5120  172.8120  142.8090 C   0  0  0  0  0  0  0  0  0  0  0  0
  188.4990  177.3410  146.7450 C   0  0  0  0  0  2  0  0  0  0  0  0
  189.7350  176.7110  144.2520 N   0  0  0  0  0  0  0  0  0  0  0  0
  185.7360  178.0550  144.2300 N   0  0  0  0  0  0  0  0  0  0  0  0
  186.4880  178.1870  145.4820 C   0  0  0  0  0  2  0  0  0  0  0  0
  187.6830  177.2420  145.4600 C   0  0  1  0  0  3  0  0  0  0  0  0
  187.8030  177.5470  142.9830 C   0  0  0  0  0  2  0  0  0  0  0  0
  188.5870  177.6110  144.2860 C   0  0  2  0  0  3  0  0  0  0  0  0
  186.5840  178.4640  143.0970 C   0  0  0  0  0  2  0  0  0  0  0  0
  190.3310  176.2390  145.4700 C   0  0  0  0  0  0  0  0  0  0  0  0
  189.7330  176.4830  146.6490 C   0  0  0  0  0  2  0  0  0  0  0  0
  184.5510  178.9130  144.3240 C   0  0  1  0  0  3  0  0  0  0  0  0
  183.6100  178.6110  143.3330 O   0  0  0  0  0  1  0  0  0  0  0  0
  183.9160  178.8080  145.7000 C   0  0  0  0  0  1  0  0  0  0  0  0
  191.3940  168.4900  140.2470 N   0  0  0  0  0  0  0  0  0  0  0  0
  190.6150  169.4850  139.4960 C   0  0  0  0  0  2  0  0  0  0  0  0
  190.8450  168.5030  141.6000 C   0  0  0  0  0  1  0  0  0  0  0  0
  192.0150  169.7770  139.8120 C   0  0  1  0  0  3  0  0  0  0  0  0
  1  5  1  0  0  0  0
  1 11  1  0  0  0  0
  2 15  1  0  0  0  0
  3 10  1  0  0  0  0
  5  9  1  0  0  0  0
  6  4  1  0  0  0  0
  6  8  2  0  0  0  0
  7  8  1  0  0  0  0
  9 26  1  6  0  0  0
  9  4  1  0  0  0  0
 10 11  2  0  0  0  0
 10 12  1  0  0  0  0
 11  6  1  0  0  0  0
 12  7  1  0  0  0  0
 13 14  1  0  0  0  0
 13  2  2  0  0  0  0
 14 16  2  0  0  0  0
 15 17  1  0  0  0  0
 15  3  2  0  0  0  0
 16 17  1  0  0  0  0
 17  1  2  0  0  0  0
 19 24  1  0  0  0  0
 19 26  2  0  0  0  0
 20 28  1  0  0  0  0
 20 21  1  0  0  0  0
 22 21  1  1  0  0  0
 22 18  1  0  0  0  0
 23 25  1  0  0  0  0
 24 23  1  6  0  0  0
 24 22  1  0  0  0  0
 25 20  1  0  0  0  0
 26 27  1  0  0  0  0
 27 18  1  0  0  0  0
 28 30  1  1  0  0  0
 29 28  1  0  0  0  0
 31 33  1  0  0  0  0
 32 34  1  0  0  0  0
 32 31  1  0  0  0  0
 34 31  1  0  0  0  0
 34 13  1  1  0  0  0
M  END
>  <MODEL>
2

>  <REMARK>
 VINA RESULT:      -7.7      2.188      3.063
  Name = 
  3 active torsions:
  status: ('A' for Active; 'I' for Inactive)
    1  A    between atoms: N_7  and  C_11
    2  A    between atoms: C_18  and  C_30
    3  A    between atoms: C_23  and  C_25
                            x       y       z     vdW  Elec       q    Type
                         _______ _______ _______ _____ _____    ______ ____

>  <TORSDO>
F 3

$$$$
=
 OpenBabel11052420323D

 34 40  0  0  1  0  0  0  0  0999 V2000
  189.3400  175.5050  144.3550 C   0  0  0  0  0  0  0  0  0  0  0  0
  186.6520  177.5810  145.8070 C   0  0  0  0  0  3  0  0  0  0  0  0
  188.7990  176.9640  146.6550 N   0  0  0  0  0  0  0  0  0  0  0  0
  191.8460  173.5820  144.0120 S   0  0  0  0  0  0  0  0  0  0  0  0
  189.6980  174.9230  143.0970 N   0  0  0  0  0  2  0  0  0  0  0  0
  191.4950  174.6920  145.3830 C   0  0  0  0  0  0  0  0  0  0  0  0
  191.9420  175.2970  147.7540 C   0  0  0  0  0  2  0  0  0  0  0  0
  192.3040  174.6490  146.4450 C   0  0  0  0  0  3  0  0  0  0  0  0
  191.0920  174.6620  142.7580 C   0  0  2  0  0  3  0  0  0  0  0  0
  189.9750  176.2890  146.5600 C   0  0  0  0  0  0  0  0  0  0  0  0
  190.2460  175.4940  145.4310 C   0  0  0  0  0  0  0  0  0  0  0  0
  191.0510  176.5280  147.5770 C   0  0  0  0  0  2  0  0  0  0  0  0
  185.7160  177.5540  144.7670 C   0  0  0  0  0  0  0  0  0  0  0  0
  186.0050  176.8110  143.6140 C   0  0  0  0  0  3  0  0  0  0  0  0
  187.8600  176.8970  145.6750 C   0  0  0  0  0  0  0  0  0  0  0  0
  187.1900  176.1520  143.4970 N   0  0  0  0  0  0  0  0  0  0  0  0
  188.1180  176.1730  144.4940 C   0  0  0  0  0  0  0  0  0  0  0  0
  192.5330  173.1440  139.5010 C   0  0  0  0  0  2  0  0  0  0  0  0
  190.0180  173.9270  140.5960 N   0  0  0  0  0  0  0  0  0  0  0  0
  190.3280  173.4460  136.4170 N   0  0  0  0  0  0  0  0  0  0  0  0
  191.4370  172.9510  137.2400 C   0  0  0  0  0  2  0  0  0  0  0  0
  191.3960  173.6240  138.6060 C   0  0  1  0  0  3  0  0  0  0  0  0
  188.9060  173.7300  138.4120 C   0  0  0  0  0  2  0  0  0  0  0  0
  190.0710  173.2870  139.2860 C   0  0  2  0  0  3  0  0  0  0  0  0
  189.0460  173.0740  137.0380 C   0  0  0  0  0  2  0  0  0  0  0  0
  191.2020  174.0520  141.3980 C   0  0  0  0  0  0  0  0  0  0  0  0
  192.4010  173.7370  140.8800 C   0  0  0  0  0  2  0  0  0  0  0  0
  190.4520  172.8420  135.0860 C   0  0  1  0  0  3  0  0  0  0  0  0
  191.7900  172.6280  134.7340 O   0  0  0  0  0  1  0  0  0  0  0  0
  189.6740  171.5400  135.0100 C   0  0  0  0  0  1  0  0  0  0  0  0
  184.3630  179.6920  144.5610 N   0  0  0  0  0  0  0  0  0  0  0  0
  183.7910  178.6710  143.6720 C   0  0  0  0  0  2  0  0  0  0  0  0
  185.5700  180.1650  143.8880 C   0  0  0  0  0  1  0  0  0  0  0  0
  184.3850  178.2480  144.9410 C   0  0  1  0  0  3  0  0  0  0  0  0
  1 17  2  0  0  0  0
  1 11  1  0  0  0  0
  4  6  1  0  0  0  0
  5  1  1  0  0  0  0
  6 11  1  0  0  0  0
  6  8  2  0  0  0  0
  8  7  1  0  0  0  0
  9 26  1  6  0  0  0
  9  5  1  0  0  0  0
  9  4  1  0  0  0  0
 10  3  1  0  0  0  0
 10 12  1  0  0  0  0
 11 10  2  0  0  0  0
 12  7  1  0  0  0  0
 13  2  2  0  0  0  0
 14 13  1  0  0  0  0
 15  2  1  0  0  0  0
 15  3  2  0  0  0  0
 16 14  2  0  0  0  0
 16 17  1  0  0  0  0
 17 15  1  0  0  0  0
 18 27  1  0  0  0  0
 19 26  2  0  0  0  0
 20 25  1  0  0  0  0
 20 21  1  0  0  0  0
 22 21  1  6  0  0  0
 22 24  1  0  0  0  0
 22 18  1  0  0  0  0
 24 23  1  6  0  0  0
 24 19  1  0  0  0  0
 25 23  1  0  0  0  0
 27 26  1  0  0  0  0
 28 30  1  1  0  0  0
 28 20  1  0  0  0  0
 29 28  1  0  0  0  0
 31 34  1  0  0  0  0
 32 31  1  0  0  0  0
 32 34  1  0  0  0  0
 33 31  1  0  0  0  0
 34 13  1  6  0  0  0
M  END
>  <MODEL>
3

>  <REMARK>
 VINA RESULT:      -7.6      3.120      7.938
  Name = 
  3 active torsions:
  status: ('A' for Active; 'I' for Inactive)
    1  A    between atoms: N_7  and  C_11
    2  A    between atoms: C_18  and  C_30
    3  A    between atoms: C_23  and  C_25
                            x       y       z     vdW  Elec       q    Type
                         _______ _______ _______ _____ _____    ______ ____

>  <TORSDO>
F 3

$$$$
=
 OpenBabel11052420323D

 34 40  0  0  1  0  0  0  0  0999 V2000
  194.7310  175.0770  142.6660 C   0  0  0  0  0  0  0  0  0  0  0  0
  196.9780  174.3000  139.8400 C   0  0  0  0  0  3  0  0  0  0  0  0
  197.1640  173.8320  142.1750 N   0  0  0  0  0  0  0  0  0  0  0  0
  193.6060  175.7100  145.5690 S   0  0  0  0  0  0  0  0  0  0  0  0
  193.3940  175.5380  142.8910 N   0  0  0  0  0  2  0  0  0  0  0  0
  195.0770  174.7660  145.1450 C   0  0  0  0  0  0  0  0  0  0  0  0
  197.2590  173.8390  145.8970 C   0  0  0  0  0  2  0  0  0  0  0  0
  195.8690  174.3610  146.1420 C   0  0  0  0  0  3  0  0  0  0  0  0
  192.6690  175.1790  144.1040 C   0  0  2  0  0  3  0  0  0  0  0  0
  196.7120  173.9210  143.4540 C   0  0  0  0  0  0  0  0  0  0  0  0
  195.5120  174.5990  143.7350 C   0  0  0  0  0  0  0  0  0  0  0  0
  197.4020  173.1500  144.5390 C   0  0  0  0  0  2  0  0  0  0  0  0
  196.2390  174.8210  138.7720 C   0  0  0  0  0  0  0  0  0  0  0  0
  195.0130  175.4480  139.0390 C   0  0  0  0  0  3  0  0  0  0  0  0
  196.4810  174.3860  141.1390 C   0  0  0  0  0  0  0  0  0  0  0  0
  194.5380  175.5200  140.3110 N   0  0  0  0  0  0  0  0  0  0  0  0
  195.2380  175.0120  141.3630 C   0  0  0  0  0  0  0  0  0  0  0  0
  189.6000  177.3570  143.1980 C   0  0  0  0  0  2  0  0  0  0  0  0
  190.3900  175.4410  145.1580 N   0  0  0  0  0  2  0  0  0  0  0  0
  187.0900  177.9310  145.9980 N   0  0  0  0  0  0  0  0  0  0  0  0
  187.5970  177.9200  144.6220 C   0  0  0  0  0  2  0  0  0  0  0  0
  189.0250  177.3870  144.6100 C   0  0  1  0  0  3  0  0  0  0  0  0
  188.4390  175.9450  146.5650 C   0  0  0  0  0  2  0  0  0  0  0  0
  189.0280  175.9630  145.1620 C   0  0  2  0  0  3  0  0  0  0  0  0
  187.0370  176.5540  146.5170 C   0  0  0  0  0  2  0  0  0  0  0  0
  191.3020  175.7830  144.1020 C   0  0  0  0  0  0  0  0  0  0  0  0
  190.9650  176.7210  143.2010 C   0  0  0  0  0  3  0  0  0  0  0  0
  185.7510  178.5280  145.9800 C   0  0  1  0  0  3  0  0  0  0  0  0
  185.4840  179.2420  147.1540 O   0  0  0  0  0  1  0  0  0  0  0  0
  185.5780  179.4280  144.7680 C   0  0  0  0  0  1  0  0  0  0  0  0
  196.4880  173.5500  136.5890 N   0  0  0  0  0  0  0  0  0  0  0  0
  195.7820  174.8120  136.3340 C   0  0  0  0  0  2  0  0  0  0  0  0
  195.5030  172.6690  137.2110 C   0  0  0  0  0  1  0  0  0  0  0  0
  196.8110  174.7780  137.3740 C   0  0  1  0  0  3  0  0  0  0  0  0
  1  5  1  0  0  0  0
  1 11  1  0  0  0  0
  2 15  1  0  0  0  0
  3 10  1  0  0  0  0
  5  9  1  0  0  0  0
  6  4  1  0  0  0  0
  6  8  2  0  0  0  0
  7  8  1  0  0  0  0
  9 26  1  6  0  0  0
  9  4  1  0  0  0  0
 10 11  2  0  0  0  0
 10 12  1  0  0  0  0
 11  6  1  0  0  0  0
 12  7  1  0  0  0  0
 13 14  1  0  0  0  0
 13  2  2  0  0  0  0
 14 16  2  0  0  0  0
 15 17  1  0  0  0  0
 15  3  2  0  0  0  0
 16 17  1  0  0  0  0
 17  1  2  0  0  0  0
 18 27  1  0  0  0  0
 19 24  1  0  0  0  0
 20 25  1  0  0  0  0
 21 20  1  0  0  0  0
 22 18  1  6  0  0  0
 22 21  1  0  0  0  0
 22 24  1  0  0  0  0
 24 23  1  1  0  0  0
 25 23  1  0  0  0  0
 26 19  1  0  0  0  0
 27 26  2  0  0  0  0
 28 30  1  6  0  0  0
 28 20  1  0  0  0  0
 28 29  1  0  0  0  0
 31 33  1  0  0  0  0
 31 34  1  0  0  0  0
 32 31  1  0  0  0  0
 32 34  1  0  0  0  0
 34 13  1  1  0  0  0
M  END
>  <MODEL>
4

>  <REMARK>
 VINA RESULT:      -7.6      3.805      5.140
  Name = 
  3 active torsions:
  status: ('A' for Active; 'I' for Inactive)
    1  A    between atoms: N_7  and  C_11
    2  A    between atoms: C_18  and  C_30
    3  A    between atoms: C_23  and  C_25
                            x       y       z     vdW  Elec       q    Type
                         _______ _______ _______ _____ _____    ______ ____

>  <TORSDO>
F 3

$$$$
=
 OpenBabel11052420323D

 34 40  0  0  1  0  0  0  0  0999 V2000
  193.0070  174.4290  143.3610 C   0  0  0  0  0  0  0  0  0  0  0  0
  193.7150  172.2780  140.4440 C   0  0  0  0  0  3  0  0  0  0  0  0
  194.9690  172.6970  142.4330 N   0  0  0  0  0  0  0  0  0  0  0  0
  193.3340  176.2880  145.9170 S   0  0  0  0  0  0  0  0  0  0  0  0
  191.9140  175.1610  143.9270 N   0  0  0  0  0  2  0  0  0  0  0  0
  194.4660  175.0190  145.3320 C   0  0  0  0  0  0  0  0  0  0  0  0
  196.7720  174.0870  145.3800 C   0  0  0  0  0  2  0  0  0  0  0  0
  195.6380  174.8910  145.9590 C   0  0  0  0  0  3  0  0  0  0  0  0
  191.8400  175.4130  145.3610 C   0  0  2  0  0  3  0  0  0  0  0  0
  195.1560  173.3360  143.6190 C   0  0  0  0  0  0  0  0  0  0  0  0
  194.2050  174.2630  144.0810 C   0  0  0  0  0  0  0  0  0  0  0  0
  196.2890  172.9240  144.5120 C   0  0  0  0  0  2  0  0  0  0  0  0
  192.5530  172.4770  139.6890 C   0  0  0  0  0  0  0  0  0  0  0  0
  191.5740  173.3560  140.1720 C   0  0  0  0  0  3  0  0  0  0  0  0
  193.8720  172.9280  141.6670 C   0  0  0  0  0  0  0  0  0  0  0  0
  191.7380  173.9810  141.3690 N   0  0  0  0  0  0  0  0  0  0  0  0
  192.8570  173.7940  142.1230 C   0  0  0  0  0  0  0  0  0  0  0  0
  189.2330  177.5470  147.2690 C   0  0  0  0  0  2  0  0  0  0  0  0
  189.5200  176.2080  144.7660 N   0  0  0  0  0  0  0  0  0  0  0  0
  185.6400  177.2440  146.0590 N   0  0  0  0  0  0  0  0  0  0  0  0
  186.7740  177.8200  146.7900 C   0  0  0  0  0  2  0  0  0  0  0  0
  188.0230  176.9880  146.5280 C   0  0  1  0  0  3  0  0  0  0  0  0
  187.1310  176.4730  144.2510 C   0  0  0  0  0  2  0  0  0  0  0  0
  188.3250  177.0030  145.0310 C   0  0  2  0  0  3  0  0  0  0  0  0
  185.9000  177.3070  144.6110 C   0  0  0  0  0  2  0  0  0  0  0  0
  190.6110  176.1940  145.6990 C   0  0  0  0  0  0  0  0  0  0  0  0
  190.4740  176.7760  146.9030 C   0  0  0  0  0  2  0  0  0  0  0  0
  184.4430  178.0180  146.4030 C   0  0  1  0  0  3  0  0  0  0  0  0
  184.5780  178.6640  147.6380 O   0  0  0  0  0  1  0  0  0  0  0  0
  184.1220  179.0280  145.3150 C   0  0  0  0  0  1  0  0  0  0  0  0
  191.7930  170.4580  138.3510 N   0  0  0  0  0  0  0  0  0  0  0  0
  191.0230  171.6360  137.9270 C   0  0  0  0  0  2  0  0  0  0  0  0
  191.2240  170.0600  139.6360 C   0  0  0  0  0  1  0  0  0  0  0  0
  192.4160  171.8150  138.3380 C   0  0  1  0  0  3  0  0  0  0  0  0
  1  5  1  0  0  0  0
  1 11  1  0  0  0  0
  2 15  1  0  0  0  0
  3 10  1  0  0  0  0
  5  9  1  0  0  0  0
  6  4  1  0  0  0  0
  6  8  2  0  0  0  0
  7  8  1  0  0  0  0
  9 26  1  6  0  0  0
  9  4  1  0  0  0  0
 10 11  2  0  0  0  0
 10 12  1  0  0  0  0
 11  6  1  0  0  0  0
 12  7  1  0  0  0  0
 13 14  1  0  0  0  0
 13  2  2  0  0  0  0
 14 16  2  0  0  0  0
 15 17  1  0  0  0  0
 15  3  2  0  0  0  0
 16 17  1  0  0  0  0
 17  1  2  0  0  0  0
 19 24  1  0  0  0  0
 19 26  2  0  0  0  0
 20 28  1  0  0  0  0
 20 21  1  0  0  0  0
 22 21  1  6  0  0  0
 22 18  1  0  0  0  0
 23 25  1  0  0  0  0
 24 23  1  6  0  0  0
 24 22  1  0  0  0  0
 25 20  1  0  0  0  0
 26 27  1  0  0  0  0
 27 18  1  0  0  0  0
 28 30  1  6  0  0  0
 28 29  1  0  0  0  0
 31 33  1  0  0  0  0
 32 34  1  0  0  0  0
 32 31  1  0  0  0  0
 34 31  1  0  0  0  0
 34 13  1  1  0  0  0
M  END
>  <MODEL>
5

>  <REMARK>
 VINA RESULT:      -7.5      2.768      3.667
  Name = 
  3 active torsions:
  status: ('A' for Active; 'I' for Inactive)
    1  A    between atoms: N_7  and  C_11
    2  A    between atoms: C_18  and  C_30
    3  A    between atoms: C_23  and  C_25
                            x       y       z     vdW  Elec       q    Type
                         _______ _______ _______ _____ _____    ______ ____

>  <TORSDO>
F 3

$$$$
=
 OpenBabel11052420323D

 34 40  0  0  1  0  0  0  0  0999 V2000
  194.1770  174.8460  142.7900 C   0  0  0  0  0  0  0  0  0  0  0  0
  195.8360  173.2000  139.9300 C   0  0  0  0  0  3  0  0  0  0  0  0
  196.3000  173.1320  142.2720 N   0  0  0  0  0  0  0  0  0  0  0  0
  193.6070  176.1730  145.6200 S   0  0  0  0  0  0  0  0  0  0  0  0
  192.9710  175.5630  143.0760 N   0  0  0  0  0  2  0  0  0  0  0  0
  194.8430  174.9290  145.2210 C   0  0  0  0  0  0  0  0  0  0  0  0
  196.9550  173.7900  145.8780 C   0  0  0  0  0  2  0  0  0  0  0  0
  195.7080  174.5790  146.1770 C   0  0  0  0  0  3  0  0  0  0  0  0
  192.3930  175.5590  144.4150 C   0  0  2  0  0  3  0  0  0  0  0  0
  196.0630  173.5260  143.5510 C   0  0  0  0  0  0  0  0  0  0  0  0
  195.0320  174.4400  143.8320 C   0  0  0  0  0  0  0  0  0  0  0  0
  196.7880  172.8540  144.6800 C   0  0  0  0  0  2  0  0  0  0  0  0
  195.0280  173.6410  138.8750 C   0  0  0  0  0  0  0  0  0  0  0  0
  193.9620  174.5080  139.1550 C   0  0  0  0  0  3  0  0  0  0  0  0
  195.5570  173.6010  141.2350 C   0  0  0  0  0  0  0  0  0  0  0  0
  193.6990  174.8870  140.4350 N   0  0  0  0  0  0  0  0  0  0  0  0
  194.4670  174.4620  141.4760 C   0  0  0  0  0  0  0  0  0  0  0  0
  189.2380  177.4160  145.6730 C   0  0  0  0  0  2  0  0  0  0  0  0
  190.5550  176.8070  143.2170 N   0  0  0  0  0  0  0  0  0  0  0  0
  186.5030  177.9750  143.0890 N   0  0  0  0  0  0  0  0  0  0  0  0
  187.2210  178.1570  144.3560 C   0  0  0  0  0  2  0  0  0  0  0  0
  188.4560  177.2650  144.3730 C   0  0  1  0  0  3  0  0  0  0  0  0
  188.6170  177.5410  141.8940 C   0  0  0  0  0  2  0  0  0  0  0  0
  189.3690  177.6560  143.2130 C   0  0  2  0  0  3  0  0  0  0  0  0
  187.3580  178.4050  141.9690 C   0  0  0  0  0  2  0  0  0  0  0  0
  191.1440  176.3780  144.4540 C   0  0  0  0  0  0  0  0  0  0  0  0
  190.5110  176.6120  145.6170 C   0  0  0  0  0  2  0  0  0  0  0  0
  185.2800  178.7820  143.1450 C   0  0  1  0  0  3  0  0  0  0  0  0
  184.1310  177.9830  143.1770 O   0  0  0  0  0  1  0  0  0  0  0  0
  185.3040  179.7140  144.3440 C   0  0  0  0  0  1  0  0  0  0  0  0
  196.2430  174.2130  136.7210 N   0  0  0  0  0  0  0  0  0  0  0  0
  196.7940  172.9650  137.2700 C   0  0  0  0  0  2  0  0  0  0  0  0
  196.8020  175.2820  137.5440 C   0  0  0  0  0  1  0  0  0  0  0  0
  195.3700  173.2500  137.4560 C   0  0  1  0  0  3  0  0  0  0  0  0
  1  5  1  0  0  0  0
  1 11  1  0  0  0  0
  2 15  1  0  0  0  0
  3 10  1  0  0  0  0
  5  9  1  0  0  0  0
  6  4  1  0  0  0  0
  6  8  2  0  0  0  0
  7  8  1  0  0  0  0
  9 26  1  6  0  0  0
  9  4  1  0  0  0  0
 10 11  2  0  0  0  0
 10 12  1  0  0  0  0
 11  6  1  0  0  0  0
 12  7  1  0  0  0  0
 13 14  1  0  0  0  0
 13  2  2  0  0  0  0
 14 16  2  0  0  0  0
 15 17  1  0  0  0  0
 15  3  2  0  0  0  0
 16 17  1  0  0  0  0
 17  1  2  0  0  0  0
 19 26  2  0  0  0  0
 20 28  1  0  0  0  0
 20 21  1  0  0  0  0
 22 21  1  1  0  0  0
 22 18  1  0  0  0  0
 23 25  1  0  0  0  0
 24 23  1  6  0  0  0
 24 19  1  0  0  0  0
 24 22  1  0  0  0  0
 25 20  1  0  0  0  0
 26 27  1  0  0  0  0
 27 18  1  0  0  0  0
 28 29  1  0  0  0  0
 28 30  1  1  0  0  0
 31 32  1  0  0  0  0
 31 34  1  0  0  0  0
 31 33  1  0  0  0  0
 32 34  1  0  0  0  0
 34 13  1  1  0  0  0
M  END
>  <MODEL>
6

>  <REMARK>
 VINA RESULT:      -7.4      3.133      4.199
  Name = 
  3 active torsions:
  status: ('A' for Active; 'I' for Inactive)
    1  A    between atoms: N_7  and  C_11
    2  A    between atoms: C_18  and  C_30
    3  A    between atoms: C_23  and  C_25
                            x       y       z     vdW  Elec       q    Type
                         _______ _______ _______ _____ _____    ______ ____

>  <TORSDO>
F 3

$$$$
=
 OpenBabel11052420323D

 34 40  0  0  1  0  0  0  0  0999 V2000
  191.2870  172.1460  142.4570 C   0  0  0  0  0  0  0  0  0  0  0  0
  191.3220  169.6320  139.7520 C   0  0  0  0  0  3  0  0  0  0  0  0
  192.5510  169.7630  141.7960 N   0  0  0  0  0  0  0  0  0  0  0  0
  192.1320  173.9940  144.9000 S   0  0  0  0  0  0  0  0  0  0  0  0
  190.4980  173.2590  142.8900 N   0  0  0  0  0  2  0  0  0  0  0  0
  192.7690  172.3630  144.4870 C   0  0  0  0  0  0  0  0  0  0  0  0
  194.5920  170.6940  144.7680 C   0  0  0  0  0  2  0  0  0  0  0  0
  193.7900  171.8900  145.2060 C   0  0  0  0  0  3  0  0  0  0  0  0
  190.4530  173.6480  144.2950 C   0  0  2  0  0  3  0  0  0  0  0  0
  192.8970  170.3990  142.9460 C   0  0  0  0  0  0  0  0  0  0  0  0
  192.3150  171.6370  143.2730 C   0  0  0  0  0  0  0  0  0  0  0  0
  193.7690  169.7000  143.9460 C   0  0  0  0  0  2  0  0  0  0  0  0
  190.3410  170.1550  138.9010 C   0  0  0  0  0  0  0  0  0  0  0  0
  189.7150  171.3600  139.2500 C   0  0  0  0  0  3  0  0  0  0  0  0
  191.6420  170.2930  140.9360 C   0  0  0  0  0  0  0  0  0  0  0  0
  190.0340  171.9920  140.4120 N   0  0  0  0  0  0  0  0  0  0  0  0
  190.9790  171.4950  141.2570 C   0  0  0  0  0  0  0  0  0  0  0  0
  188.6670  176.7030  145.8650 C   0  0  0  0  0  2  0  0  0  0  0  0
  188.6100  175.1600  143.4660 N   0  0  0  0  0  0  0  0  0  0  0  0
  185.2830  177.5920  144.3710 N   0  0  0  0  0  0  0  0  0  0  0  0
  186.5010  177.7870  145.1660 C   0  0  0  0  0  2  0  0  0  0  0  0
  187.3850  176.5510  145.0530 C   0  0  1  0  0  3  0  0  0  0  0  0
  186.5090  176.2090  142.7370 C   0  0  0  0  0  2  0  0  0  0  0  0
  187.7640  176.3430  143.5880 C   0  0  2  0  0  3  0  0  0  0  0  0
  185.6380  177.4470  142.9490 C   0  0  0  0  0  2  0  0  0  0  0  0
  189.5650  174.8350  144.4870 C   0  0  0  0  0  0  0  0  0  0  0  0
  189.5710  175.5190  145.6440 C   0  0  0  0  0  2  0  0  0  0  0  0
  184.4220  178.7610  144.5730 C   0  0  1  0  0  3  0  0  0  0  0  0
  183.8830  178.7930  145.8640 O   0  0  0  0  0  1  0  0  0  0  0  0
  185.1820  180.0460  144.2900 C   0  0  0  0  0  1  0  0  0  0  0  0
  190.8030  169.9730  136.4120 N   0  0  0  0  0  0  0  0  0  0  0  0
  191.1820  168.7130  137.0670 C   0  0  0  0  0  2  0  0  0  0  0  0
  191.8690  170.9170  136.7350 C   0  0  0  0  0  1  0  0  0  0  0  0
  190.0410  169.4650  137.5910 C   0  0  1  0  0  3  0  0  0  0  0  0
  1  5  1  0  0  0  0
  1 11  1  0  0  0  0
  2 15  1  0  0  0  0
  3 10  1  0  0  0  0
  5  9  1  0  0  0  0
  6  4  1  0  0  0  0
  6  8  2  0  0  0  0
  7  8  1  0  0  0  0
  9 26  1  6  0  0  0
  9  4  1  0  0  0  0
 10 11  2  0  0  0  0
 10 12  1  0  0  0  0
 11  6  1  0  0  0  0
 12  7  1  0  0  0  0
 13 14  1  0  0  0  0
 13  2  2  0  0  0  0
 14 16  2  0  0  0  0
 15 17  1  0  0  0  0
 15  3  2  0  0  0  0
 16 17  1  0  0  0  0
 17  1  2  0  0  0  0
 19 24  1  0  0  0  0
 19 26  2  0  0  0  0
 20 28  1  0  0  0  0
 20 21  1  0  0  0  0
 22 21  1  6  0  0  0
 22 18  1  0  0  0  0
 23 25  1  0  0  0  0
 24 23  1  6  0  0  0
 24 22  1  0  0  0  0
 25 20  1  0  0  0  0
 26 27  1  0  0  0  0
 27 18  1  0  0  0  0
 28 30  1  1  0  0  0
 28 29  1  0  0  0  0
 31 33  1  0  0  0  0
 31 32  1  0  0  0  0
 31 34  1  0  0  0  0
 32 34  1  0  0  0  0
 34 13  1  1  0  0  0
M  END
>  <MODEL>
7

>  <REMARK>
 VINA RESULT:      -7.4      2.566      3.759
  Name = 
  3 active torsions:
  status: ('A' for Active; 'I' for Inactive)
    1  A    between atoms: N_7  and  C_11
    2  A    between atoms: C_18  and  C_30
    3  A    between atoms: C_23  and  C_25
                            x       y       z     vdW  Elec       q    Type
                         _______ _______ _______ _____ _____    ______ ____

>  <TORSDO>
F 3

$$$$
=
 OpenBabel11052420323D

 34 40  0  0  1  0  0  0  0  0999 V2000
  192.0700  172.2720  143.0450 C   0  0  0  0  0  0  0  0  0  0  0  0
  195.1770  170.5600  144.0730 C   0  0  0  0  0  3  0  0  0  0  0  0
  193.8430  170.3530  142.1030 N   0  0  0  0  0  0  0  0  0  0  0  0
  189.2840  172.9500  141.6770 S   0  0  0  0  0  0  0  0  0  0  0  0
  191.2720  173.3950  143.4360 N   0  0  0  0  0  2  0  0  0  0  0  0
  190.5700  171.8540  141.0600 C   0  0  0  0  0  0  0  0  0  0  0  0
  191.1770  169.9920  139.5270 C   0  0  0  0  0  2  0  0  0  0  0  0
  190.3130  171.1460  139.9570 C   0  0  0  0  0  3  0  0  0  0  0  0
  190.4450  174.1040  142.4660 C   0  0  2  0  0  3  0  0  0  0  0  0
  192.7490  170.6660  141.3590 C   0  0  0  0  0  0  0  0  0  0  0  0
  191.8050  171.5900  141.8420 C   0  0  0  0  0  0  0  0  0  0  0  0
  192.6370  170.1560  139.9530 C   0  0  0  0  0  2  0  0  0  0  0  0
  195.4240  171.1900  145.2990 C   0  0  0  0  0  0  0  0  0  0  0  0
  194.5170  172.1550  145.7600 C   0  0  0  0  0  3  0  0  0  0  0  0
  194.0590  170.9160  143.3200 C   0  0  0  0  0  0  0  0  0  0  0  0
  193.4330  172.4950  145.0120 N   0  0  0  0  0  0  0  0  0  0  0  0
  193.1790  171.9010  143.8130 C   0  0  0  0  0  0  0  0  0  0  0  0
  189.5050  176.9980  144.8590 C   0  0  0  0  0  2  0  0  0  0  0  0
  188.3760  175.5310  142.6880 N   0  0  0  0  0  0  0  0  0  0  0  0
  185.7880  177.7360  145.1870 N   0  0  0  0  0  0  0  0  0  0  0  0
  187.2290  177.9760  145.3230 C   0  0  0  0  0  2  0  0  0  0  0  0
  187.9980  176.7980  144.7390 C   0  0  1  0  0  3  0  0  0  0  0  0
  186.1440  176.4780  143.0940 C   0  0  0  0  0  2  0  0  0  0  0  0
  187.6460  176.6580  143.2590 C   0  0  2  0  0  3  0  0  0  0  0  0
  185.4320  177.6570  143.7590 C   0  0  0  0  0  2  0  0  0  0  0  0
  189.7120  175.2300  143.1190 C   0  0  0  0  0  0  0  0  0  0  0  0
  190.2400  175.8760  144.1730 C   0  0  0  0  0  2  0  0  0  0  0  0
  185.0830  178.8460  145.8340 C   0  0  1  0  0  3  0  0  0  0  0  0
  183.6950  178.6660  145.8110 O   0  0  0  0  0  1  0  0  0  0  0  0
  185.5640  179.0300  147.2630 C   0  0  0  0  0  1  0  0  0  0  0  0
  196.3430  169.6250  147.0730 N   0  0  0  0  0  0  0  0  0  0  0  0
  197.0710  169.4080  145.8160 C   0  0  0  0  0  2  0  0  0  0  0  0
  195.0500  168.9700  146.8940 C   0  0  0  0  0  1  0  0  0  0  0  0
  196.6040  170.7580  146.1370 C   0  0  1  0  0  3  0  0  0  0  0  0
  1  5  1  0  0  0  0
  1 17  1  0  0  0  0
  2 13  1  0  0  0  0
  3 15  1  0  0  0  0
  4  9  1  0  0  0  0
  6  4  1  0  0  0  0
  6 11  1  0  0  0  0
  7 12  1  0  0  0  0
  7  8  1  0  0  0  0
  8  6  2  0  0  0  0
  9 26  1  1  0  0  0
  9  5  1  0  0  0  0
 10 11  1  0  0  0  0
 10  3  2  0  0  0  0
 11  1  2  0  0  0  0
 12 10  1  0  0  0  0
 13 14  2  0  0  0  0
 15 17  1  0  0  0  0
 15  2  2  0  0  0  0
 16 14  1  0  0  0  0
 17 16  2  0  0  0  0
 19 26  2  0  0  0  0
 19 24  1  0  0  0  0
 20 21  1  0  0  0  0
 20 28  1  0  0  0  0
 22 18  1  6  0  0  0
 22 21  1  0  0  0  0
 23 25  1  0  0  0  0
 24 23  1  1  0  0  0
 24 22  1  0  0  0  0
 25 20  1  0  0  0  0
 26 27  1  0  0  0  0
 27 18  1  0  0  0  0
 28 30  1  1  0  0  0
 29 28  1  0  0  0  0
 32 34  1  0  0  0  0
 32 31  1  0  0  0  0
 33 31  1  0  0  0  0
 34 13  1  6  0  0  0
 34 31  1  0  0  0  0
M  END
>  <MODEL>
8

>  <REMARK>
 VINA RESULT:      -7.2      3.090      5.624
  Name = 
  3 active torsions:
  status: ('A' for Active; 'I' for Inactive)
    1  A    between atoms: N_7  and  C_11
    2  A    between atoms: C_18  and  C_30
    3  A    between atoms: C_23  and  C_25
                            x       y       z     vdW  Elec       q    Type
                         _______ _______ _______ _____ _____    ______ ____

>  <TORSDO>
F 3

$$$$
=
 OpenBabel11052420323D

 34 40  0  0  1  0  0  0  0  0999 V2000
  190.2720  176.2410  144.3020 C   0  0  0  0  0  0  0  0  0  0  0  0
  186.7840  177.3410  144.8110 C   0  0  0  0  0  3  0  0  0  0  0  0
  188.6170  177.1630  146.3320 N   0  0  0  0  0  0  0  0  0  0  0  0
  193.1920  175.0780  144.7720 S   0  0  0  0  0  0  0  0  0  0  0  0
  191.1720  175.9590  143.2250 N   0  0  0  0  0  2  0  0  0  0  0  0
  192.1100  175.8500  145.9850 C   0  0  0  0  0  0  0  0  0  0  0  0
  191.5660  176.1910  148.3880 C   0  0  0  0  0  2  0  0  0  0  0  0
  192.5050  175.8540  147.2610 C   0  0  0  0  0  3  0  0  0  0  0  0
  192.6130  176.1080  143.3900 C   0  0  2  0  0  3  0  0  0  0  0  0
  189.9000  176.8240  146.6260 C   0  0  0  0  0  0  0  0  0  0  0  0
  190.7400  176.2980  145.6280 C   0  0  0  0  0  0  0  0  0  0  0  0
  190.4690  177.1720  147.9700 C   0  0  0  0  0  2  0  0  0  0  0  0
  186.2870  177.2350  143.5070 C   0  0  0  0  0  0  0  0  0  0  0  0
  187.1370  176.7660  142.4950 C   0  0  0  0  0  3  0  0  0  0  0  0
  188.1100  177.0080  145.0810 C   0  0  0  0  0  0  0  0  0  0  0  0
  188.4300  176.4490  142.7720 N   0  0  0  0  0  0  0  0  0  0  0  0
  188.9350  176.5540  144.0330 C   0  0  0  0  0  0  0  0  0  0  0  0
  193.4950  174.5270  139.9680 C   0  0  0  0  0  2  0  0  0  0  0  0
  194.6760  176.2160  141.9400 N   0  0  0  0  0  2  0  0  0  0  0  0
  197.2030  174.3160  139.1460 N   0  0  0  0  0  0  0  0  0  0  0  0
  195.7590  174.2800  138.8890 C   0  0  0  0  0  2  0  0  0  0  0  0
  195.0050  174.5560  140.1830 C   0  0  1  0  0  3  0  0  0  0  0  0
  196.8980  176.0190  140.9050 C   0  0  0  0  0  2  0  0  0  0  0  0
  195.3920  175.9400  140.6990 C   0  0  2  0  0  3  0  0  0  0  0  0
  197.5930  175.6660  139.5900 C   0  0  0  0  0  2  0  0  0  0  0  0
  193.3300  175.7520  142.1280 C   0  0  0  0  0  0  0  0  0  0  0  0
  192.7770  174.9140  141.2340 C   0  0  0  0  0  3  0  0  0  0  0  0
  197.8920  173.9630  137.9010 C   0  0  1  0  0  3  0  0  0  0  0  0
  197.4580  172.7300  137.3990 O   0  0  0  0  0  1  0  0  0  0  0  0
  197.7080  175.0490  136.8560 C   0  0  0  0  0  1  0  0  0  0  0  0
  184.4020  178.9330  143.5520 N   0  0  0  0  0  0  0  0  0  0  0  0
  184.6470  178.5220  142.1630 C   0  0  0  0  0  2  0  0  0  0  0  0
  185.4900  179.8480  143.8880 C   0  0  0  0  0  1  0  0  0  0  0  0
  184.8330  177.5410  143.2330 C   0  0  1  0  0  3  0  0  0  0  0  0
  1 11  1  0  0  0  0
  2 15  1  0  0  0  0
  3 10  1  0  0  0  0
  4  6  1  0  0  0  0
  5  9  1  0  0  0  0
  5  1  1  0  0  0  0
  6  8  2  0  0  0  0
  8  7  1  0  0  0  0
  9 26  1  6  0  0  0
  9  4  1  0  0  0  0
 10 12  1  0  0  0  0
 11  6  1  0  0  0  0
 11 10  2  0  0  0  0
 12  7  1  0  0  0  0
 13  2  2  0  0  0  0
 14 16  2  0  0  0  0
 14 13  1  0  0  0  0
 15  3  2  0  0  0  0
 16 17  1  0  0  0  0
 17  1  2  0  0  0  0
 17 15  1  0  0  0  0
 18 22  1  0  0  0  0
 18 27  1  0  0  0  0
 19 26  1  0  0  0  0
 20 25  1  0  0  0  0
 21 20  1  0  0  0  0
 22 21  1  6  0  0  0
 22 24  1  0  0  0  0
 24 23  1  1  0  0  0
 24 19  1  0  0  0  0
 25 23  1  0  0  0  0
 27 26  2  0  0  0  0
 28 30  1  6  0  0  0
 28 20  1  0  0  0  0
 29 28  1  0  0  0  0
 31 33  1  0  0  0  0
 32 34  1  0  0  0  0
 32 31  1  0  0  0  0
 34 13  1  1  0  0  0
 34 31  1  0  0  0  0
M  END
>  <MODEL>
9

>  <REMARK>
 VINA RESULT:      -7.1      4.360      9.284
  Name = 
  3 active torsions:
  status: ('A' for Active; 'I' for Inactive)
    1  A    between atoms: N_7  and  C_11
    2  A    between atoms: C_18  and  C_30
    3  A    between atoms: C_23  and  C_25
                            x       y       z     vdW  Elec       q    Type
                         _______ _______ _______ _____ _____    ______ ____

>  <TORSDO>
F 3

$$$$
