=
 OpenBabel11052419153D

 32 37  0  0  1  0  0  0  0  0999 V2000
  191.0420  174.4930  145.1700 C   0  0  1  0  0  3  0  0  0  0  0  0
  189.4060  174.7760  143.1630 C   0  0  0  0  0  0  0  0  0  0  0  0
  191.5830  175.4480  146.2460 C   0  0  0  0  0  2  0  0  0  0  0  0
  189.6250  174.9010  144.6550 C   0  0  2  0  0  3  0  0  0  0  0  0
  188.2420  175.3160  142.6070 C   0  0  0  0  0  0  0  0  0  0  0  0
  190.3760  172.6470  138.8990 C   0  0  0  0  0  3  0  0  0  0  0  0
  190.2790  174.0340  142.3480 C   0  0  0  0  0  0  0  0  0  0  0  0
  188.4380  174.2390  139.0280 C   0  0  0  0  0  2  0  0  0  0  0  0
  188.7580  174.3720  140.4900 C   0  0  0  0  0  0  0  0  0  0  0  0
  187.3940  176.1250  143.4250 N   0  0  0  0  0  0  0  0  0  0  0  0
  189.0640  176.2060  145.2820 C   0  0  2  0  0  3  0  0  0  0  0  0
  187.9490  175.1090  141.2940 N   0  0  0  0  0  0  0  0  0  0  0  0
  188.5990  176.0300  146.7330 C   0  0  0  0  0  2  0  0  0  0  0  0
  189.3940  174.9900  147.5270 C   0  0  0  0  0  2  0  0  0  0  0  0
  191.5090  173.4190  142.9400 C   0  0  0  0  0  2  0  0  0  0  0  0
  187.9850  176.9460  144.4770 C   0  0  0  0  0  2  0  0  0  0  0  0
  192.0720  174.3070  144.0440 C   0  0  2  0  0  3  0  0  0  0  0  0
  189.9490  173.8220  140.9980 C   0  0  0  0  0  0  0  0  0  0  0  0
  186.0130  176.3710  143.0480 C   0  0  0  0  0  1  0  0  0  0  0  0
  190.8940  175.2840  147.6050 C   0  0  0  0  0  2  0  0  0  0  0  0
  188.9540  172.9060  138.4770 C   0  0  0  0  0  2  0  0  0  0  0  0
  190.8190  173.0380  140.0970 C   0  0  0  0  0  3  0  0  0  0  0  0
  195.7260  173.9950  145.0690 C   0  0  0  0  0  0  0  0  0  0  0  0
  196.8430  174.7600  145.1150 F   0  0  0  0  0  0  0  0  0  0  0  0
  193.3670  173.7330  144.5500 C   0  0  0  0  0  0  0  0  0  0  0  0
  195.7790  172.6680  145.5040 C   0  0  0  0  0  3  0  0  0  0  0  0
  193.4310  172.4010  144.9870 C   0  0  0  0  0  3  0  0  0  0  0  0
  194.5230  174.5300  144.5910 C   0  0  0  0  0  0  0  0  0  0  0  0
  194.4800  175.8530  144.1610 O   0  0  0  0  0  1  0  0  0  0  0  0
  194.6330  171.8680  145.4590 C   0  0  0  0  0  0  0  0  0  0  0  0
  196.1150  170.0800  146.2840 C   0  0  0  0  0  1  0  0  0  0  0  0
  194.6880  170.4600  145.9400 C   0  0  0  0  0  2  0  0  0  0  0  0
  1  3  1  1  0  0  0
  3 20  1  0  0  0  0
  4  2  1  6  0  0  0
  4  1  1  0  0  0  0
  4 11  1  0  0  0  0
  5  2  1  0  0  0  0
  5 10  1  0  0  0  0
  6 22  2  0  0  0  0
  7 15  1  0  0  0  0
  7  2  2  0  0  0  0
  8  9  1  0  0  0  0
  9 18  2  0  0  0  0
  9 12  1  0  0  0  0
 10 16  1  0  0  0  0
 11 16  1  6  0  0  0
 11 13  1  0  0  0  0
 12  5  2  0  0  0  0
 13 14  1  0  0  0  0
 14 20  1  0  0  0  0
 15 17  1  0  0  0  0
 17 25  1  1  0  0  0
 17  1  1  0  0  0  0
 18  7  1  0  0  0  0
 19 10  1  0  0  0  0
 21  6  1  0  0  0  0
 21  8  1  0  0  0  0
 22 18  1  0  0  0  0
 23 24  1  0  0  0  0
 23 26  1  0  0  0  0
 25 28  1  0  0  0  0
 25 27  2  0  0  0  0
 27 30  1  0  0  0  0
 28 23  2  0  0  0  0
 29 28  1  0  0  0  0
 30 26  2  0  0  0  0
 30 32  1  0  0  0  0
 32 31  1  0  0  0  0
M  END
>  <MODEL>
1

>  <REMARK>
 VINA RESULT:      -8.4      0.000      0.000
  Name = 
  2 active torsions:
  status: ('A' for Active; 'I' for Inactive)
    1  A    between atoms: C_15  and  C_26
    2  A    between atoms: C_16  and  C_27
                            x       y       z     vdW  Elec       q    Type
                         _______ _______ _______ _____ _____    ______ ____

>  <TORSDO>
F 2

$$$$
=
 OpenBabel11052419153D

 32 37  0  0  1  0  0  0  0  0999 V2000
  189.3160  175.6260  144.5890 C   0  0  1  0  0  3  0  0  0  0  0  0
  187.0300  176.8020  144.1690 C   0  0  0  0  0  0  0  0  0  0  0  0
  190.4650  175.8560  145.5830 C   0  0  0  0  0  2  0  0  0  0  0  0
  187.9310  176.0810  145.1490 C   0  0  2  0  0  3  0  0  0  0  0  0
  185.8710  177.4180  144.6510 C   0  0  0  0  0  0  0  0  0  0  0  0
  185.4950  177.6140  139.6260 C   0  0  0  0  0  3  0  0  0  0  0  0
  187.2670  176.7680  142.7840 C   0  0  0  0  0  0  0  0  0  0  0  0
  184.1850  178.6030  141.5260 C   0  0  0  0  0  2  0  0  0  0  0  0
  185.1600  177.9180  142.4400 C   0  0  0  0  0  0  0  0  0  0  0  0
  185.6700  177.5100  146.0640 N   0  0  0  0  0  0  0  0  0  0  0  0
  187.9870  176.7180  146.5640 C   0  0  2  0  0  3  0  0  0  0  0  0
  184.9720  177.9620  143.7850 N   0  0  0  0  0  0  0  0  0  0  0  0
  188.2180  175.6940  147.6810 C   0  0  0  0  0  2  0  0  0  0  0  0
  189.0690  174.4910  147.2660 C   0  0  0  0  0  2  0  0  0  0  0  0
  188.4860  176.0770  142.2540 C   0  0  0  0  0  2  0  0  0  0  0  0
  186.8250  177.6490  146.9430 C   0  0  0  0  0  2  0  0  0  0  0  0
  189.6540  176.2390  143.2200 C   0  0  2  0  0  3  0  0  0  0  0  0
  186.3190  177.3240  141.9080 C   0  0  0  0  0  0  0  0  0  0  0  0
  184.3480  177.7590  146.6110 C   0  0  0  0  0  1  0  0  0  0  0  0
  190.4620  174.8660  146.7530 C   0  0  0  0  0  2  0  0  0  0  0  0
  184.1190  177.8940  140.1700 C   0  0  0  0  0  2  0  0  0  0  0  0
  186.5050  177.3030  140.4420 C   0  0  0  0  0  3  0  0  0  0  0  0
  193.2520  175.8100  142.0520 C   0  0  0  0  0  0  0  0  0  0  0  0
  194.4120  176.5110  142.0330 F   0  0  0  0  0  0  0  0  0  0  0  0
  190.8970  175.6390  142.6220 C   0  0  0  0  0  0  0  0  0  0  0  0
  193.2180  174.5190  141.5180 C   0  0  0  0  0  3  0  0  0  0  0  0
  190.8720  174.3440  142.0830 C   0  0  0  0  0  3  0  0  0  0  0  0
  192.0950  176.3740  142.6030 C   0  0  0  0  0  0  0  0  0  0  0  0
  192.1390  177.6600  143.1320 O   0  0  0  0  0  1  0  0  0  0  0  0
  192.0270  173.7860  141.5290 C   0  0  0  0  0  0  0  0  0  0  0  0
  190.6040  171.8190  141.1060 C   0  0  0  0  0  1  0  0  0  0  0  0
  191.9980  172.4030  140.9770 C   0  0  0  0  0  2  0  0  0  0  0  0
  1  4  1  0  0  0  0
  1  3  1  1  0  0  0
  2  5  1  0  0  0  0
  3 20  1  0  0  0  0
  4  2  1  6  0  0  0
  4 11  1  0  0  0  0
  5 10  1  0  0  0  0
  6 21  1  0  0  0  0
  6 22  2  0  0  0  0
  7  2  2  0  0  0  0
  8  9  1  0  0  0  0
  9 12  1  0  0  0  0
 10 19  1  0  0  0  0
 10 16  1  0  0  0  0
 11 16  1  1  0  0  0
 11 13  1  0  0  0  0
 12  5  2  0  0  0  0
 14 13  1  0  0  0  0
 15  7  1  0  0  0  0
 15 17  1  0  0  0  0
 17 25  1  6  0  0  0
 17  1  1  0  0  0  0
 18  9  2  0  0  0  0
 18  7  1  0  0  0  0
 20 14  1  0  0  0  0
 21  8  1  0  0  0  0
 22 18  1  0  0  0  0
 23 28  1  0  0  0  0
 24 23  1  0  0  0  0
 26 30  1  0  0  0  0
 26 23  2  0  0  0  0
 27 25  1  0  0  0  0
 28 25  2  0  0  0  0
 28 29  1  0  0  0  0
 30 27  2  0  0  0  0
 32 31  1  0  0  0  0
 32 30  1  0  0  0  0
M  END
>  <MODEL>
2

>  <REMARK>
 VINA RESULT:      -8.1      3.133      4.407
  Name = 
  2 active torsions:
  status: ('A' for Active; 'I' for Inactive)
    1  A    between atoms: C_15  and  C_26
    2  A    between atoms: C_16  and  C_27
                            x       y       z     vdW  Elec       q    Type
                         _______ _______ _______ _____ _____    ______ ____

>  <TORSDO>
F 2

$$$$
=
 OpenBabel11052419153D

 32 37  0  0  1  0  0  0  0  0999 V2000
  187.0550  177.0860  143.2010 C   0  0  1  0  0  3  0  0  0  0  0  0
  188.4160  177.2850  145.4130 C   0  0  0  0  0  0  0  0  0  0  0  0
  185.6120  176.6730  142.8730 C   0  0  0  0  0  2  0  0  0  0  0  0
  187.1960  177.7120  144.6250 C   0  0  2  0  0  3  0  0  0  0  0  0
  188.5010  177.6380  146.7640 C   0  0  0  0  0  0  0  0  0  0  0  0
  193.0340  175.7680  145.5890 C   0  0  0  0  0  3  0  0  0  0  0  0
  189.5100  176.6520  144.7980 C   0  0  0  0  0  0  0  0  0  0  0  0
  191.9230  176.4680  147.7290 C   0  0  0  0  0  2  0  0  0  0  0  0
  190.7200  176.8020  146.8930 C   0  0  0  0  0  0  0  0  0  0  0  0
  187.3610  178.2210  147.4010 N   0  0  0  0  0  0  0  0  0  0  0  0
  185.8790  177.7480  145.4460 C   0  0  2  0  0  3  0  0  0  0  0  0
  189.6370  177.3870  147.4690 N   0  0  0  0  0  0  0  0  0  0  0  0
  184.8920  178.8170  144.9610 C   0  0  0  0  0  2  0  0  0  0  0  0
  184.9550  179.0950  143.4570 C   0  0  0  0  0  2  0  0  0  0  0  0
  189.4450  176.3030  143.3420 C   0  0  0  0  0  2  0  0  0  0  0  0
  186.0230  177.8280  146.9730 C   0  0  0  0  0  2  0  0  0  0  0  0
  188.0240  175.9190  142.9470 C   0  0  2  0  0  3  0  0  0  0  0  0
  190.6780  176.4140  145.5420 C   0  0  0  0  0  0  0  0  0  0  0  0
  187.5020  178.9620  148.6420 C   0  0  0  0  0  1  0  0  0  0  0  0
  184.6900  177.8630  142.5880 C   0  0  0  0  0  2  0  0  0  0  0  0
  193.2010  176.5130  146.8870 C   0  0  0  0  0  2  0  0  0  0  0  0
  191.8640  175.7660  144.9450 C   0  0  0  0  0  3  0  0  0  0  0  0
  188.5240  173.7990  139.8240 C   0  0  0  0  0  0  0  0  0  0  0  0
  189.0560  172.6030  139.4750 F   0  0  0  0  0  0  0  0  0  0  0  0
  187.9990  175.4640  141.5140 C   0  0  0  0  0  0  0  0  0  0  0  0
  187.9420  174.6080  138.8450 C   0  0  0  0  0  3  0  0  0  0  0  0
  187.4180  176.2700  140.5220 C   0  0  0  0  0  3  0  0  0  0  0  0
  188.5550  174.2240  141.1590 C   0  0  0  0  0  0  0  0  0  0  0  0
  189.1360  173.4110  142.1270 O   0  0  0  0  0  1  0  0  0  0  0  0
  187.3930  175.8460  139.1920 C   0  0  0  0  0  0  0  0  0  0  0  0
  186.6590  175.9380  136.8400 C   0  0  0  0  0  1  0  0  0  0  0  0
  186.7570  176.6980  138.1490 C   0  0  0  0  0  2  0  0  0  0  0  0
  1  3  1  1  0  0  0
  1  4  1  0  0  0  0
  2  5  1  0  0  0  0
  4  2  1  1  0  0  0
  4 11  1  0  0  0  0
  5 10  1  0  0  0  0
  5 12  2  0  0  0  0
  6 21  1  0  0  0  0
  7  2  2  0  0  0  0
  7 18  1  0  0  0  0
  9 12  1  0  0  0  0
  9  8  1  0  0  0  0
 10 19  1  0  0  0  0
 11 13  1  6  0  0  0
 11 16  1  0  0  0  0
 14 13  1  0  0  0  0
 15  7  1  0  0  0  0
 16 10  1  0  0  0  0
 17 25  1  6  0  0  0
 17  1  1  0  0  0  0
 17 15  1  0  0  0  0
 18  9  2  0  0  0  0
 20  3  1  0  0  0  0
 20 14  1  0  0  0  0
 21  8  1  0  0  0  0
 22 18  1  0  0  0  0
 22  6  2  0  0  0  0
 23 28  1  0  0  0  0
 24 23  1  0  0  0  0
 26 30  1  0  0  0  0
 26 23  2  0  0  0  0
 27 25  1  0  0  0  0
 28 25  2  0  0  0  0
 28 29  1  0  0  0  0
 30 27  2  0  0  0  0
 31 32  1  0  0  0  0
 32 30  1  0  0  0  0
M  END
>  <MODEL>
3

>  <REMARK>
 VINA RESULT:      -7.8      3.537      7.463
  Name = 
  2 active torsions:
  status: ('A' for Active; 'I' for Inactive)
    1  A    between atoms: C_15  and  C_26
    2  A    between atoms: C_16  and  C_27
                            x       y       z     vdW  Elec       q    Type
                         _______ _______ _______ _____ _____    ______ ____

>  <TORSDO>
F 2

$$$$
=
 OpenBabel11052419153D

 32 37  0  0  1  0  0  0  0  0999 V2000
  190.7370  175.7180  145.2300 C   0  0  1  0  0  3  0  0  0  0  0  0
  191.4280  173.9070  143.4890 C   0  0  0  0  0  0  0  0  0  0  0  0
  190.8950  175.8460  146.7530 C   0  0  0  0  0  2  0  0  0  0  0  0
  191.8700  174.8670  144.5730 C   0  0  2  0  0  3  0  0  0  0  0  0
  192.3470  172.9710  143.0050 C   0  0  0  0  0  0  0  0  0  0  0  0
  188.3780  172.6650  139.9100 C   0  0  0  0  0  3  0  0  0  0  0  0
  190.1650  174.0100  142.8810 C   0  0  0  0  0  0  0  0  0  0  0  0
  190.4840  171.3300  140.2040 C   0  0  0  0  0  2  0  0  0  0  0  0
  190.8260  172.2780  141.3180 C   0  0  0  0  0  0  0  0  0  0  0  0
  193.6040  172.8260  143.6710 N   0  0  0  0  0  0  0  0  0  0  0  0
  192.8970  174.2780  145.5770 C   0  0  2  0  0  3  0  0  0  0  0  0
  192.0280  172.1810  141.9440 N   0  0  0  0  0  0  0  0  0  0  0  0
  193.8670  175.3260  146.1370 C   0  0  0  0  0  2  0  0  0  0  0  0
  193.2680  176.7290  146.2710 C   0  0  0  0  0  2  0  0  0  0  0  0
  189.1850  175.0350  143.3660 C   0  0  0  0  0  2  0  0  0  0  0  0
  193.6800  173.0410  145.1120 C   0  0  0  0  0  2  0  0  0  0  0  0
  189.3220  175.2330  144.8720 C   0  0  2  0  0  3  0  0  0  0  0  0
  189.8620  173.1930  141.7790 C   0  0  0  0  0  0  0  0  0  0  0  0
  194.7280  172.1900  143.0040 C   0  0  0  0  0  1  0  0  0  0  0  0
  192.0290  176.7910  147.1670 C   0  0  0  0  0  2  0  0  0  0  0  0
  189.5230  171.9840  139.2070 C   0  0  0  0  0  2  0  0  0  0  0  0
  188.5570  173.2670  141.0890 C   0  0  0  0  0  3  0  0  0  0  0  0
  186.7510  176.9280  147.1100 C   0  0  0  0  0  0  0  0  0  0  0  0
  186.2440  176.8040  148.3610 F   0  0  0  0  0  0  0  0  0  0  0  0
  188.2590  176.1790  145.3590 C   0  0  0  0  0  0  0  0  0  0  0  0
  186.2860  177.9470  146.2750 C   0  0  0  0  0  3  0  0  0  0  0  0
  187.7850  177.2050  144.5280 C   0  0  0  0  0  3  0  0  0  0  0  0
  187.7360  176.0420  146.6560 C   0  0  0  0  0  0  0  0  0  0  0  0
  188.1920  175.0300  147.4950 O   0  0  0  0  0  1  0  0  0  0  0  0
  186.7990  178.0840  144.9820 C   0  0  0  0  0  0  0  0  0  0  0  0
  184.8490  179.4620  144.3690 C   0  0  0  0  0  1  0  0  0  0  0  0
  186.3160  179.1830  144.1000 C   0  0  0  0  0  2  0  0  0  0  0  0
  1  3  1  1  0  0  0
  3 20  1  0  0  0  0
  4  2  1  1  0  0  0
  4  1  1  0  0  0  0
  4 11  1  0  0  0  0
  5  2  1  0  0  0  0
  5 10  1  0  0  0  0
  6 22  2  0  0  0  0
  7 15  1  0  0  0  0
  7  2  2  0  0  0  0
  8  9  1  0  0  0  0
  9 18  2  0  0  0  0
  9 12  1  0  0  0  0
 10 16  1  0  0  0  0
 11 16  1  6  0  0  0
 11 13  1  0  0  0  0
 12  5  2  0  0  0  0
 13 14  1  0  0  0  0
 14 20  1  0  0  0  0
 15 17  1  0  0  0  0
 17  1  1  0  0  0  0
 17 25  1  6  0  0  0
 18  7  1  0  0  0  0
 19 10  1  0  0  0  0
 21  6  1  0  0  0  0
 21  8  1  0  0  0  0
 22 18  1  0  0  0  0
 23 24  1  0  0  0  0
 25 28  2  0  0  0  0
 26 23  2  0  0  0  0
 27 30  2  0  0  0  0
 27 25  1  0  0  0  0
 28 23  1  0  0  0  0
 28 29  1  0  0  0  0
 30 26  1  0  0  0  0
 32 31  1  0  0  0  0
 32 30  1  0  0  0  0
M  END
>  <MODEL>
4

>  <REMARK>
 VINA RESULT:      -7.8      3.156      6.558
  Name = 
  2 active torsions:
  status: ('A' for Active; 'I' for Inactive)
    1  A    between atoms: C_15  and  C_26
    2  A    between atoms: C_16  and  C_27
                            x       y       z     vdW  Elec       q    Type
                         _______ _______ _______ _____ _____    ______ ____

>  <TORSDO>
F 2

$$$$
=
 OpenBabel11052419153D

 32 37  0  0  1  0  0  0  0  0999 V2000
  190.8220  174.2890  143.7710 C   0  0  1  0  0  3  0  0  0  0  0  0
  189.8510  175.8840  145.5870 C   0  0  0  0  0  0  0  0  0  0  0  0
  192.1450  174.2440  142.9910 C   0  0  0  0  0  2  0  0  0  0  0  0
  190.9710  174.9520  145.1770 C   0  0  2  0  0  3  0  0  0  0  0  0
  190.0160  176.6690  146.7330 C   0  0  0  0  0  0  0  0  0  0  0  0
  185.1840  177.2400  145.4090 C   0  0  0  0  0  3  0  0  0  0  0  0
  188.6150  175.8930  144.9190 C   0  0  0  0  0  0  0  0  0  0  0  0
  186.6830  178.3320  147.1020 C   0  0  0  0  0  2  0  0  0  0  0  0
  187.7680  177.4250  146.5960 C   0  0  0  0  0  0  0  0  0  0  0  0
  191.2960  176.7080  147.3690 N   0  0  0  0  0  0  0  0  0  0  0  0
  192.3970  175.4800  145.4920 C   0  0  2  0  0  3  0  0  0  0  0  0
  188.9830  177.4200  147.2050 N   0  0  0  0  0  0  0  0  0  0  0  0
  193.4030  174.3630  145.7980 C   0  0  0  0  0  2  0  0  0  0  0  0
  193.1360  173.0540  145.0510 C   0  0  0  0  0  2  0  0  0  0  0  0
  188.4140  175.0270  143.7120 C   0  0  0  0  0  2  0  0  0  0  0  0
  192.5020  176.5810  146.5580 C   0  0  0  0  0  2  0  0  0  0  0  0
  189.7090  174.9140  142.9150 C   0  0  2  0  0  3  0  0  0  0  0  0
  187.5590  176.6650  145.4310 C   0  0  0  0  0  0  0  0  0  0  0  0
  191.4280  177.1590  148.7430 C   0  0  0  0  0  1  0  0  0  0  0  0
  193.1310  173.2000  143.5270 C   0  0  0  0  0  2  0  0  0  0  0  0
  185.3000  177.7320  146.8270 C   0  0  0  0  0  2  0  0  0  0  0  0
  186.2320  176.7020  144.7810 C   0  0  0  0  0  3  0  0  0  0  0  0
  188.4470  173.9630  139.4510 C   0  0  0  0  0  0  0  0  0  0  0  0
  187.6880  174.4890  138.4600 F   0  0  0  0  0  0  0  0  0  0  0  0
  189.4620  174.1360  141.6510 C   0  0  0  0  0  0  0  0  0  0  0  0
  189.0110  172.6940  139.2900 C   0  0  0  0  0  3  0  0  0  0  0  0
  190.0220  172.8610  141.4810 C   0  0  0  0  0  3  0  0  0  0  0  0
  188.6700  174.6860  140.6290 C   0  0  0  0  0  0  0  0  0  0  0  0
  188.1050  175.9490  140.7800 O   0  0  0  0  0  1  0  0  0  0  0  0
  189.7940  172.1400  140.3060 C   0  0  0  0  0  0  0  0  0  0  0  0
  190.8930  170.2580  141.4580 C   0  0  0  0  0  1  0  0  0  0  0  0
  190.4090  170.7960  140.1240 C   0  0  0  0  0  2  0  0  0  0  0  0
  1  3  1  6  0  0  0
  1  4  1  0  0  0  0
  2  5  1  0  0  0  0
  3 20  1  0  0  0  0
  4 11  1  0  0  0  0
  4  2  1  6  0  0  0
  5 12  2  0  0  0  0
  5 10  1  0  0  0  0
  6 21  1  0  0  0  0
  7 18  1  0  0  0  0
  7  2  2  0  0  0  0
  9  8  1  0  0  0  0
  9 12  1  0  0  0  0
 10 19  1  0  0  0  0
 11 13  1  1  0  0  0
 11 16  1  0  0  0  0
 14 13  1  0  0  0  0
 15  7  1  0  0  0  0
 16 10  1  0  0  0  0
 17 25  1  6  0  0  0
 17 15  1  0  0  0  0
 17  1  1  0  0  0  0
 18  9  2  0  0  0  0
 20 14  1  0  0  0  0
 21  8  1  0  0  0  0
 22  6  2  0  0  0  0
 22 18  1  0  0  0  0
 23 28  1  0  0  0  0
 24 23  1  0  0  0  0
 26 23  2  0  0  0  0
 26 30  1  0  0  0  0
 27 25  1  0  0  0  0
 28 29  1  0  0  0  0
 28 25  2  0  0  0  0
 30 27  2  0  0  0  0
 32 30  1  0  0  0  0
 32 31  1  0  0  0  0
M  END
>  <MODEL>
5

>  <REMARK>
 VINA RESULT:      -7.7      3.157      6.485
  Name = 
  2 active torsions:
  status: ('A' for Active; 'I' for Inactive)
    1  A    between atoms: C_15  and  C_26
    2  A    between atoms: C_16  and  C_27
                            x       y       z     vdW  Elec       q    Type
                         _______ _______ _______ _____ _____    ______ ____

>  <TORSDO>
F 2

$$$$
=
 OpenBabel11052419153D

 32 37  0  0  1  0  0  0  0  0999 V2000
  187.2180  176.7900  142.4790 C   0  0  1  0  0  3  0  0  0  0  0  0
  187.8300  175.3900  140.3700 C   0  0  0  0  0  0  0  0  0  0  0  0
  187.0890  178.2950  142.7570 C   0  0  0  0  0  2  0  0  0  0  0  0
  186.9140  176.4200  140.9920 C   0  0  2  0  0  3  0  0  0  0  0  0
  187.7500  175.1640  138.9920 C   0  0  0  0  0  0  0  0  0  0  0  0
  190.7480  171.5180  140.7660 C   0  0  0  0  0  3  0  0  0  0  0  0
  188.6690  174.5770  141.1520 C   0  0  0  0  0  0  0  0  0  0  0  0
  190.0920  172.2920  138.4690 C   0  0  0  0  0  2  0  0  0  0  0  0
  189.2590  173.3380  139.1540 C   0  0  0  0  0  0  0  0  0  0  0  0
  186.9480  176.0370  138.1920 N   0  0  0  0  0  0  0  0  0  0  0  0
  186.5950  177.6350  140.0800 C   0  0  2  0  0  3  0  0  0  0  0  0
  188.4630  174.1570  138.4180 N   0  0  0  0  0  0  0  0  0  0  0  0
  185.2020  178.2290  140.3260 C   0  0  0  0  0  2  0  0  0  0  0  0
  184.7150  178.1120  141.7720 C   0  0  0  0  0  2  0  0  0  0  0  0
  188.7340  174.7840  142.6350 C   0  0  0  0  0  2  0  0  0  0  0  0
  186.8180  177.4390  138.5730 C   0  0  0  0  0  2  0  0  0  0  0  0
  188.5740  176.2610  142.9750 C   0  0  2  0  0  3  0  0  0  0  0  0
  189.3860  173.5350  140.5410 C   0  0  0  0  0  0  0  0  0  0  0  0
  186.5060  175.6330  136.8680 C   0  0  0  0  0  1  0  0  0  0  0  0
  185.6370  178.7840  142.7920 C   0  0  0  0  0  2  0  0  0  0  0  0
  190.3190  171.0880  139.3880 C   0  0  0  0  0  2  0  0  0  0  0  0
  190.2710  172.6380  141.3140 C   0  0  0  0  0  3  0  0  0  0  0  0
  190.2110  176.7580  146.3760 C   0  0  0  0  0  0  0  0  0  0  0  0
  191.4530  176.8550  146.9090 F   0  0  0  0  0  0  0  0  0  0  0  0
  188.7550  176.4660  144.4540 C   0  0  0  0  0  0  0  0  0  0  0  0
  189.0940  176.8590  147.2100 C   0  0  0  0  0  3  0  0  0  0  0  0
  187.6380  176.5660  145.3000 C   0  0  0  0  0  3  0  0  0  0  0  0
  190.0460  176.5610  145.0000 C   0  0  0  0  0  0  0  0  0  0  0  0
  191.1650  176.4630  144.1780 O   0  0  0  0  0  1  0  0  0  0  0  0
  187.8070  176.7580  146.6730 C   0  0  0  0  0  0  0  0  0  0  0  0
  185.3480  176.9260  146.7300 C   0  0  0  0  0  1  0  0  0  0  0  0
  186.6170  176.8840  147.5600 C   0  0  0  0  0  2  0  0  0  0  0  0
  1  3  1  6  0  0  0
  1 17  1  0  0  0  0
  2  7  1  0  0  0  0
  3 20  1  0  0  0  0
  4  2  1  6  0  0  0
  4  1  1  0  0  0  0
  5  2  2  0  0  0  0
  6 22  2  0  0  0  0
  7 15  1  0  0  0  0
  8  9  1  0  0  0  0
  8 21  1  0  0  0  0
  9 18  1  0  0  0  0
 10 16  1  0  0  0  0
 10  5  1  0  0  0  0
 11 16  1  6  0  0  0
 11 13  1  0  0  0  0
 11  4  1  0  0  0  0
 12  5  1  0  0  0  0
 12  9  2  0  0  0  0
 13 14  1  0  0  0  0
 14 20  1  0  0  0  0
 15 17  1  0  0  0  0
 17 25  1  1  0  0  0
 18  7  2  0  0  0  0
 18 22  1  0  0  0  0
 19 10  1  0  0  0  0
 21  6  1  0  0  0  0
 23 24  1  0  0  0  0
 23 26  1  0  0  0  0
 25 28  1  0  0  0  0
 25 27  2  0  0  0  0
 27 30  1  0  0  0  0
 28 23  2  0  0  0  0
 29 28  1  0  0  0  0
 30 26  2  0  0  0  0
 30 32  1  0  0  0  0
 31 32  1  0  0  0  0
M  END
>  <MODEL>
6

>  <REMARK>
 VINA RESULT:      -7.6      3.664      5.871
  Name = 
  2 active torsions:
  status: ('A' for Active; 'I' for Inactive)
    1  A    between atoms: C_15  and  C_26
    2  A    between atoms: C_16  and  C_27
                            x       y       z     vdW  Elec       q    Type
                         _______ _______ _______ _____ _____    ______ ____

>  <TORSDO>
F 2

$$$$
=
 OpenBabel11052419153D

 32 37  0  0  1  0  0  0  0  0999 V2000
  191.5820  175.4880  145.2070 C   0  0  1  0  0  3  0  0  0  0  0  0
  192.5140  173.6800  143.5800 C   0  0  0  0  0  0  0  0  0  0  0  0
  191.6600  175.6930  146.7280 C   0  0  0  0  0  2  0  0  0  0  0  0
  192.8170  174.7220  144.6360 C   0  0  2  0  0  3  0  0  0  0  0  0
  193.5360  172.8160  143.1760 C   0  0  0  0  0  0  0  0  0  0  0  0
  189.7540  172.0110  139.9390 C   0  0  0  0  0  3  0  0  0  0  0  0
  191.2750  173.6380  142.9170 C   0  0  0  0  0  0  0  0  0  0  0  0
  191.9590  170.8920  140.3790 C   0  0  0  0  0  2  0  0  0  0  0  0
  192.1620  171.9140  141.4620 C   0  0  0  0  0  0  0  0  0  0  0  0
  194.7700  172.8160  143.8980 N   0  0  0  0  0  0  0  0  0  0  0  0
  193.8480  174.2730  145.7070 C   0  0  2  0  0  3  0  0  0  0  0  0
  193.3390  171.9560  142.1400 N   0  0  0  0  0  0  0  0  0  0  0  0
  194.6910  175.4300  146.2580 C   0  0  0  0  0  2  0  0  0  0  0  0
  193.9600  176.7750  146.3040 C   0  0  0  0  0  2  0  0  0  0  0  0
  190.1850  174.5860  143.3150 C   0  0  0  0  0  2  0  0  0  0  0  0
  194.7620  173.0970  145.3300 C   0  0  0  0  0  2  0  0  0  0  0  0
  190.2350  174.8580  144.8140 C   0  0  2  0  0  3  0  0  0  0  0  0
  191.0980  172.7520  141.8410 C   0  0  0  0  0  0  0  0  0  0  0  0
  195.9760  172.2630  143.3080 C   0  0  0  0  0  1  0  0  0  0  0  0
  192.6820  176.7570  147.1450 C   0  0  0  0  0  2  0  0  0  0  0  0
  190.9870  171.4120  139.3150 C   0  0  0  0  0  2  0  0  0  0  0  0
  189.8240  172.6740  141.0960 C   0  0  0  0  0  3  0  0  0  0  0  0
  187.3750  176.3450  146.8410 C   0  0  0  0  0  0  0  0  0  0  0  0
  186.7820  176.1780  148.0470 F   0  0  0  0  0  0  0  0  0  0  0  0
  189.0690  175.7190  145.2150 C   0  0  0  0  0  0  0  0  0  0  0  0
  186.9020  177.3300  145.9700 C   0  0  0  0  0  3  0  0  0  0  0  0
  188.5860  176.7110  144.3470 C   0  0  0  0  0  3  0  0  0  0  0  0
  188.4570  175.5370  146.4670 C   0  0  0  0  0  0  0  0  0  0  0  0
  188.9210  174.5590  147.3400 O   0  0  0  0  0  1  0  0  0  0  0  0
  187.5040  177.5110  144.7210 C   0  0  0  0  0  0  0  0  0  0  0  0
  187.2800  178.1870  142.3610 C   0  0  0  0  0  1  0  0  0  0  0  0
  187.0100  178.5750  143.8020 C   0  0  0  0  0  2  0  0  0  0  0  0
  1  3  1  1  0  0  0
  3 20  1  0  0  0  0
  4  2  1  1  0  0  0
  4  1  1  0  0  0  0
  4 11  1  0  0  0  0
  5  2  1  0  0  0  0
  5 10  1  0  0  0  0
  6 22  2  0  0  0  0
  7 15  1  0  0  0  0
  7  2  2  0  0  0  0
  8  9  1  0  0  0  0
  9 18  2  0  0  0  0
  9 12  1  0  0  0  0
 10 16  1  0  0  0  0
 11 16  1  6  0  0  0
 11 13  1  0  0  0  0
 12  5  2  0  0  0  0
 13 14  1  0  0  0  0
 14 20  1  0  0  0  0
 15 17  1  0  0  0  0
 17  1  1  0  0  0  0
 17 25  1  6  0  0  0
 18  7  1  0  0  0  0
 19 10  1  0  0  0  0
 21  6  1  0  0  0  0
 21  8  1  0  0  0  0
 22 18  1  0  0  0  0
 23 24  1  0  0  0  0
 25 28  2  0  0  0  0
 26 23  2  0  0  0  0
 27 30  2  0  0  0  0
 27 25  1  0  0  0  0
 28 23  1  0  0  0  0
 28 29  1  0  0  0  0
 30 26  1  0  0  0  0
 31 32  1  0  0  0  0
 32 30  1  0  0  0  0
M  END
>  <MODEL>
7

>  <REMARK>
 VINA RESULT:      -7.5      3.153      6.411
  Name = 
  2 active torsions:
  status: ('A' for Active; 'I' for Inactive)
    1  A    between atoms: C_15  and  C_26
    2  A    between atoms: C_16  and  C_27
                            x       y       z     vdW  Elec       q    Type
                         _______ _______ _______ _____ _____    ______ ____

>  <TORSDO>
F 2

$$$$
=
 OpenBabel11052419153D

 32 37  0  0  1  0  0  0  0  0999 V2000
  188.2120  176.1430  142.8470 C   0  0  1  0  0  3  0  0  0  0  0  0
  189.9810  176.4120  144.7400 C   0  0  0  0  0  0  0  0  0  0  0  0
  186.7260  175.7520  142.8270 C   0  0  0  0  0  2  0  0  0  0  0  0
  188.6380  176.8320  144.1830 C   0  0  2  0  0  3  0  0  0  0  0  0
  190.3340  176.8270  146.0280 C   0  0  0  0  0  0  0  0  0  0  0  0
  194.5200  174.7880  144.0930 C   0  0  0  0  0  3  0  0  0  0  0  0
  190.9240  175.7220  143.9570 C   0  0  0  0  0  0  0  0  0  0  0  0
  193.8590  175.6170  146.3690 C   0  0  0  0  0  2  0  0  0  0  0  0
  192.5220  175.9410  145.7660 C   0  0  0  0  0  0  0  0  0  0  0  0
  189.3500  177.4680  146.8430 N   0  0  0  0  0  0  0  0  0  0  0  0
  187.5070  176.9410  145.2410 C   0  0  2  0  0  3  0  0  0  0  0  0
  191.5820  176.5800  146.5110 N   0  0  0  0  0  0  0  0  0  0  0  0
  186.4620  178.0110  144.9020 C   0  0  0  0  0  2  0  0  0  0  0  0
  186.2340  178.2150  143.4020 C   0  0  0  0  0  2  0  0  0  0  0  0
  190.5700  175.3060  142.5610 C   0  0  0  0  0  2  0  0  0  0  0  0
  187.9480  177.0890  146.7050 C   0  0  0  0  0  2  0  0  0  0  0  0
  189.0930  174.9410  142.4700 C   0  0  2  0  0  3  0  0  0  0  0  0
  192.2100  175.4900  144.4710 C   0  0  0  0  0  0  0  0  0  0  0  0
  189.7430  178.2630  147.9940 C   0  0  0  0  0  1  0  0  0  0  0  0
  185.7850  176.9510  142.6660 C   0  0  0  0  0  2  0  0  0  0  0  0
  194.9490  175.5890  145.2930 C   0  0  0  0  0  2  0  0  0  0  0  0
  193.2470  174.7840  143.6890 C   0  0  0  0  0  3  0  0  0  0  0  0
  188.8080  172.6100  139.4740 C   0  0  0  0  0  0  0  0  0  0  0  0
  189.1140  171.3330  139.1390 F   0  0  0  0  0  0  0  0  0  0  0  0
  188.7810  174.4190  141.0950 C   0  0  0  0  0  0  0  0  0  0  0  0
  188.1900  173.4400  138.5350 C   0  0  0  0  0  3  0  0  0  0  0  0
  188.1620  175.2460  140.1440 C   0  0  0  0  0  3  0  0  0  0  0  0
  189.1050  173.0950  140.7530 C   0  0  0  0  0  0  0  0  0  0  0  0
  189.7200  172.2610  141.6810 O   0  0  0  0  0  1  0  0  0  0  0  0
  187.8710  174.7600  138.8670 C   0  0  0  0  0  0  0  0  0  0  0  0
  186.5500  176.8200  138.5690 C   0  0  0  0  0  1  0  0  0  0  0  0
  187.1960  175.6380  137.8710 C   0  0  0  0  0  2  0  0  0  0  0  0
  1  3  1  1  0  0  0
  1  4  1  0  0  0  0
  2  5  1  0  0  0  0
  4  2  1  1  0  0  0
  4 11  1  0  0  0  0
  5 12  2  0  0  0  0
  5 10  1  0  0  0  0
  6 21  1  0  0  0  0
  7 18  1  0  0  0  0
  7  2  2  0  0  0  0
  9  8  1  0  0  0  0
  9 12  1  0  0  0  0
 10 19  1  0  0  0  0
 11 13  1  6  0  0  0
 11 16  1  0  0  0  0
 14 13  1  0  0  0  0
 15  7  1  0  0  0  0
 16 10  1  0  0  0  0
 17 25  1  6  0  0  0
 17 15  1  0  0  0  0
 17  1  1  0  0  0  0
 18  9  2  0  0  0  0
 20  3  1  0  0  0  0
 20 14  1  0  0  0  0
 21  8  1  0  0  0  0
 22  6  2  0  0  0  0
 22 18  1  0  0  0  0
 23 28  1  0  0  0  0
 24 23  1  0  0  0  0
 26 30  1  0  0  0  0
 26 23  2  0  0  0  0
 27 25  1  0  0  0  0
 28 25  2  0  0  0  0
 28 29  1  0  0  0  0
 30 27  2  0  0  0  0
 32 31  1  0  0  0  0
 32 30  1  0  0  0  0
M  END
>  <MODEL>
8

>  <REMARK>
 VINA RESULT:      -7.5      3.202      6.942
  Name = 
  2 active torsions:
  status: ('A' for Active; 'I' for Inactive)
    1  A    between atoms: C_15  and  C_26
    2  A    between atoms: C_16  and  C_27
                            x       y       z     vdW  Elec       q    Type
                         _______ _______ _______ _____ _____    ______ ____

>  <TORSDO>
F 2

$$$$
=
 OpenBabel11052419153D

 32 37  0  0  1  0  0  0  0  0999 V2000
  188.9220  174.8360  143.0810 C   0  0  1  0  0  3  0  0  0  0  0  0
  191.4780  174.3650  143.2430 C   0  0  0  0  0  0  0  0  0  0  0  0
  187.9430  175.0050  141.9090 C   0  0  0  0  0  2  0  0  0  0  0  0
  190.1290  173.9090  142.7320 C   0  0  2  0  0  3  0  0  0  0  0  0
  192.6260  173.7020  142.7960 C   0  0  0  0  0  0  0  0  0  0  0  0
  194.1970  176.7240  146.5140 C   0  0  0  0  0  3  0  0  0  0  0  0
  191.5970  175.3520  144.2370 C   0  0  0  0  0  0  0  0  0  0  0  0
  195.3530  175.2780  144.8180 C   0  0  0  0  0  2  0  0  0  0  0  0
  193.9830  174.9250  144.3140 C   0  0  0  0  0  0  0  0  0  0  0  0
  192.5070  172.7480  141.7380 N   0  0  0  0  0  0  0  0  0  0  0  0
  190.1370  173.3850  141.2700 C   0  0  2  0  0  3  0  0  0  0  0  0
  193.8420  173.9970  143.3320 N   0  0  0  0  0  0  0  0  0  0  0  0
  189.0910  172.2940  141.0120 C   0  0  0  0  0  2  0  0  0  0  0  0
  187.8170  172.4320  141.8490 C   0  0  0  0  0  2  0  0  0  0  0  0
  190.3700  176.0420  144.7520 C   0  0  0  0  0  2  0  0  0  0  0  0
  191.4960  172.9470  140.7050 C   0  0  0  0  0  2  0  0  0  0  0  0
  189.3430  176.2050  143.6370 C   0  0  2  0  0  3  0  0  0  0  0  0
  192.8610  175.6310  144.7850 C   0  0  0  0  0  0  0  0  0  0  0  0
  193.5470  171.7600  141.5090 C   0  0  0  0  0  1  0  0  0  0  0  0
  187.0850  173.7620  141.6490 C   0  0  0  0  0  2  0  0  0  0  0  0
  195.2970  175.7230  146.2830 C   0  0  0  0  0  2  0  0  0  0  0  0
  193.0450  176.6460  145.8430 C   0  0  0  0  0  3  0  0  0  0  0  0
  186.5090  178.7430  143.8100 C   0  0  0  0  0  0  0  0  0  0  0  0
  185.9620  179.7170  143.0450 F   0  0  0  0  0  0  0  0  0  0  0  0
  188.1680  176.9980  144.1400 C   0  0  0  0  0  0  0  0  0  0  0  0
  185.9700  178.4700  145.0710 C   0  0  0  0  0  3  0  0  0  0  0  0
  187.6210  176.7330  145.4050 C   0  0  0  0  0  3  0  0  0  0  0  0
  187.6080  178.0100  143.3430 C   0  0  0  0  0  0  0  0  0  0  0  0
  188.1370  178.2890  142.0870 O   0  0  0  0  0  1  0  0  0  0  0  0
  186.5280  177.4680  145.8710 C   0  0  0  0  0  0  0  0  0  0  0  0
  185.0180  178.2910  147.6370 C   0  0  0  0  0  1  0  0  0  0  0  0
  185.9400  177.1660  147.2060 C   0  0  0  0  0  2  0  0  0  0  0  0
  1  3  1  6  0  0  0
  1 17  1  0  0  0  0
  2  7  1  0  0  0  0
  4  1  1  0  0  0  0
  4  2  1  6  0  0  0
  5  2  2  0  0  0  0
  5 12  1  0  0  0  0
  7 15  1  0  0  0  0
  7 18  2  0  0  0  0
  8 21  1  0  0  0  0
  9 18  1  0  0  0  0
  9  8  1  0  0  0  0
 10  5  1  0  0  0  0
 11 16  1  1  0  0  0
 11  4  1  0  0  0  0
 12  9  2  0  0  0  0
 13 11  1  0  0  0  0
 13 14  1  0  0  0  0
 16 10  1  0  0  0  0
 17 25  1  1  0  0  0
 17 15  1  0  0  0  0
 18 22  1  0  0  0  0
 19 10  1  0  0  0  0
 20 14  1  0  0  0  0
 20  3  1  0  0  0  0
 21  6  1  0  0  0  0
 22  6  2  0  0  0  0
 23 26  1  0  0  0  0
 24 23  1  0  0  0  0
 25 27  2  0  0  0  0
 26 30  2  0  0  0  0
 27 30  1  0  0  0  0
 28 23  2  0  0  0  0
 28 25  1  0  0  0  0
 29 28  1  0  0  0  0
 30 32  1  0  0  0  0
 32 31  1  0  0  0  0
M  END
>  <MODEL>
9

>  <REMARK>
 VINA RESULT:      -7.4      3.583      7.651
  Name = 
  2 active torsions:
  status: ('A' for Active; 'I' for Inactive)
    1  A    between atoms: C_15  and  C_26
    2  A    between atoms: C_16  and  C_27
                            x       y       z     vdW  Elec       q    Type
                         _______ _______ _______ _____ _____    ______ ____

>  <TORSDO>
F 2

$$$$
