=
 OpenBabel11052418533D

 34 38  0  0  1  0  0  0  0  0999 V2000
  193.3980  174.0380  143.0530 C   0  0  2  0  0  3  0  0  0  0  0  0
  194.0580  175.7600  146.0620 C   0  0  0  0  0  2  0  0  0  0  0  0
  191.7330  175.5860  145.3180 N   0  0  1  0  0  0  0  0  0  0  0  0
  189.3630  176.1270  145.9160 C   0  0  2  0  0  3  0  0  0  0  0  0
  195.5940  174.1000  143.8900 O   0  0  0  0  0  0  0  0  0  0  0  0
  196.1020  175.0220  144.8130 C   0  0  0  0  0  2  0  0  0  0  0  0
  191.1960  176.4430  147.5630 C   0  0  0  0  0  1  0  0  0  0  0  0
  192.8740  174.8340  145.8450 C   0  0  0  0  0  2  0  0  0  0  0  0
  194.6880  174.8280  143.1170 C   0  0  1  0  0  3  0  0  0  0  0  0
  191.2710  174.8670  144.1040 C   0  0  1  0  0  3  0  0  0  0  0  0
  194.3170  174.0850  141.8510 C   0  0  0  0  0  2  0  0  0  0  0  0
  195.3460  174.9540  146.1380 C   0  0  0  0  0  2  0  0  0  0  0  0
  188.8760  175.3480  144.7150 C   0  0  0  0  0  2  0  0  0  0  0  0
  189.9070  175.3790  143.6070 C   0  0  2  0  0  3  0  0  0  0  0  0
  190.7170  175.5830  146.3920 C   0  0  2  0  0  3  0  0  0  0  0  0
  192.2710  175.0440  142.9500 C   0  0  0  0  0  2  0  0  0  0  0  0
  188.4140  174.4230  140.2330 C   0  0  0  0  0  0  0  0  0  0  0  0
  188.4920  173.0290  140.2930 C   0  0  0  0  0  3  0  0  0  0  0  0
  189.3890  174.5710  142.4530 C   0  0  0  0  0  0  0  0  0  0  0  0
  189.0180  172.4050  141.4270 C   0  0  0  0  0  3  0  0  0  0  0  0
  188.8620  175.1930  141.3090 C   0  0  0  0  0  3  0  0  0  0  0  0
  189.4670  173.1750  142.5040 C   0  0  0  0  0  3  0  0  0  0  0  0
  187.9090  175.0290  139.1320 F   0  0  0  0  0  0  0  0  0  0  0  0
  188.2980  176.0610  147.0170 C   0  0  0  0  0  2  0  0  0  0  0  0
  187.6140  177.3380  147.1620 N   0  0  0  0  0  2  0  0  0  0  0  0
  186.1860  177.0650  147.1220 C   0  0  0  0  0  2  0  0  0  0  0  0
  185.7470  176.8230  145.6870 C   0  0  0  0  0  2  0  0  0  0  0  0
  183.6410  179.0590  145.3560 O   0  0  0  0  0  0  0  0  0  0  0  0
  185.7910  178.1160  144.8810 C   0  0  2  0  0  3  0  0  0  0  0  0
  184.4030  178.5520  144.4920 C   0  0  0  0  0  0  0  0  0  0  0  0
  184.8090  178.0200  142.0560 C   0  0  0  0  0  2  0  0  0  0  0  0
  185.9890  177.1900  142.5390 C   0  0  0  0  0  2  0  0  0  0  0  0
  186.6980  177.9440  143.6600 C   0  0  0  0  0  2  0  0  0  0  0  0
  183.9140  178.3330  143.1640 N   0  0  0  0  0  2  0  0  0  0  0  0
  1 11  1  6  0  0  0
  1  9  1  0  0  0  0
  2 12  1  0  0  0  0
  3  8  1  1  0  0  0
  3 15  1  0  0  0  0
  4 15  1  0  0  0  0
  4 24  1  1  0  0  0
  5  6  1  0  0  0  0
  6 12  1  0  0  0  0
  8  2  1  0  0  0  0
  9 11  1  6  0  0  0
  9  5  1  0  0  0  0
 10 16  1  6  0  0  0
 10  3  1  0  0  0  0
 13  4  1  0  0  0  0
 14 19  1  6  0  0  0
 14 10  1  0  0  0  0
 14 13  1  0  0  0  0
 15  7  1  1  0  0  0
 16  1  1  0  0  0  0
 17 18  2  0  0  0  0
 17 21  1  0  0  0  0
 18 20  1  0  0  0  0
 19 22  1  0  0  0  0
 20 22  2  0  0  0  0
 21 19  2  0  0  0  0
 23 17  1  0  0  0  0
 24 25  1  0  0  0  0
 26 25  1  0  0  0  0
 27 26  1  0  0  0  0
 29 27  1  6  0  0  0
 30 29  1  0  0  0  0
 30 28  2  0  0  0  0
 31 32  1  0  0  0  0
 31 34  1  0  0  0  0
 32 33  1  0  0  0  0
 33 29  1  0  0  0  0
 34 30  1  0  0  0  0
M  END
>  <MODEL>
1

>  <REMARK>
 VINA RESULT:      -8.0      0.000      0.000
  Name = 
  6 active torsions:
  status: ('A' for Active; 'I' for Inactive)
    1  A    between atoms: C_3  and  C_13
    2  A    between atoms: C_3  and  C_17
    3  A    between atoms: C_5  and  C_18
    4  A    between atoms: C_12  and  C_28
    5  A    between atoms: C_17  and  N_29
    6  A    between atoms: C_18  and  N_29
                            x       y       z     vdW  Elec       q    Type
                         _______ _______ _______ _____ _____    ______ ____

>  <TORSDO>
F 6

$$$$
=
 OpenBabel11052418533D

 34 38  0  0  1  0  0  0  0  0999 V2000
  192.1130  171.9620  143.2620 C   0  0  2  0  0  3  0  0  0  0  0  0
  190.3880  171.5810  140.2060 C   0  0  0  0  0  2  0  0  0  0  0  0
  189.6820  173.3740  141.7140 N   0  0  1  0  0  0  0  0  0  0  0  0
  188.1130  175.3070  141.9780 C   0  0  2  0  0  3  0  0  0  0  0  0
  192.8500  170.3540  141.7120 O   0  0  0  0  0  0  0  0  0  0  0  0
  192.0970  169.8060  140.6670 C   0  0  0  0  0  2  0  0  0  0  0  0
  188.3460  174.1450  139.7950 C   0  0  0  0  0  1  0  0  0  0  0  0
  190.7530  172.9190  140.8250 C   0  0  0  0  0  2  0  0  0  0  0  0
  191.9370  170.5480  142.7500 C   0  0  1  0  0  3  0  0  0  0  0  0
  190.3180  173.7030  143.0150 C   0  0  1  0  0  3  0  0  0  0  0  0
  192.6400  170.7940  144.0680 C   0  0  0  0  0  2  0  0  0  0  0  0
  191.6380  170.8840  139.6890 C   0  0  0  0  0  2  0  0  0  0  0  0
  188.7900  175.6870  143.2760 C   0  0  0  0  0  2  0  0  0  0  0  0
  189.3640  174.4630  143.9550 C   0  0  2  0  0  3  0  0  0  0  0  0
  189.0950  174.5630  141.0610 C   0  0  2  0  0  3  0  0  0  0  0  0
  190.7550  172.4250  143.7480 C   0  0  0  0  0  2  0  0  0  0  0  0
  191.8410  176.0560  146.3740 C   0  0  0  0  0  0  0  0  0  0  0  0
  191.2560  175.7380  147.6020 C   0  0  0  0  0  3  0  0  0  0  0  0
  190.0460  174.8960  145.2200 C   0  0  0  0  0  0  0  0  0  0  0  0
  190.0690  175.0020  147.6420 C   0  0  0  0  0  3  0  0  0  0  0  0
  191.2380  175.6380  145.1850 C   0  0  0  0  0  3  0  0  0  0  0  0
  189.4640  174.5830  146.4530 C   0  0  0  0  0  3  0  0  0  0  0  0
  192.9890  176.7740  146.3330 F   0  0  0  0  0  0  0  0  0  0  0  0
  187.5560  176.5740  141.3170 C   0  0  0  0  0  2  0  0  0  0  0  0
  187.7810  177.7440  142.1530 N   0  0  0  0  0  2  0  0  0  0  0  0
  186.4740  178.2340  142.5630 C   0  0  0  0  0  2  0  0  0  0  0  0
  186.5060  178.6250  144.0300 C   0  0  0  0  0  2  0  0  0  0  0  0
  183.6740  178.9400  145.2260 O   0  0  0  0  0  0  0  0  0  0  0  0
  185.6690  177.6640  144.8660 C   0  0  2  0  0  3  0  0  0  0  0  0
  184.6980  178.4170  145.7370 C   0  0  0  0  0  0  0  0  0  0  0  0
  185.9550  177.8060  147.8420 C   0  0  0  0  0  2  0  0  0  0  0  0
  187.1190  177.4620  146.9240 C   0  0  0  0  0  2  0  0  0  0  0  0
  186.5810  176.7500  145.6890 C   0  0  0  0  0  2  0  0  0  0  0  0
  184.9610  178.6040  147.1330 N   0  0  0  0  0  2  0  0  0  0  0  0
  1 16  1  1  0  0  0
  1 11  1  0  0  0  0
  2  8  1  0  0  0  0
  3  8  1  6  0  0  0
  3 10  1  0  0  0  0
  4 24  1  6  0  0  0
  4 13  1  0  0  0  0
  5  9  1  0  0  0  0
  6  5  1  0  0  0  0
  9  1  1  0  0  0  0
  9 11  1  1  0  0  0
 10 16  1  1  0  0  0
 10 14  1  0  0  0  0
 12  2  1  0  0  0  0
 12  6  1  0  0  0  0
 13 14  1  0  0  0  0
 14 19  1  1  0  0  0
 15  7  1  6  0  0  0
 15  3  1  0  0  0  0
 15  4  1  0  0  0  0
 17 18  1  0  0  0  0
 18 20  2  0  0  0  0
 19 22  2  0  0  0  0
 21 19  1  0  0  0  0
 21 17  2  0  0  0  0
 22 20  1  0  0  0  0
 23 17  1  0  0  0  0
 24 25  1  0  0  0  0
 25 26  1  0  0  0  0
 26 27  1  0  0  0  0
 28 30  2  0  0  0  0
 29 27  1  1  0  0  0
 29 33  1  0  0  0  0
 29 30  1  0  0  0  0
 30 34  1  0  0  0  0
 32 31  1  0  0  0  0
 33 32  1  0  0  0  0
 34 31  1  0  0  0  0
M  END
>  <MODEL>
2

>  <REMARK>
 VINA RESULT:      -7.8      2.794      5.235
  Name = 
  6 active torsions:
  status: ('A' for Active; 'I' for Inactive)
    1  A    between atoms: C_3  and  C_13
    2  A    between atoms: C_3  and  C_17
    3  A    between atoms: C_5  and  C_18
    4  A    between atoms: C_12  and  C_28
    5  A    between atoms: C_17  and  N_29
    6  A    between atoms: C_18  and  N_29
                            x       y       z     vdW  Elec       q    Type
                         _______ _______ _______ _____ _____    ______ ____

>  <TORSDO>
F 6

$$$$
=
 OpenBabel11052418533D

 34 38  0  0  1  0  0  0  0  0999 V2000
  186.2590  177.7360  145.6140 C   0  0  2  0  0  3  0  0  0  0  0  0
  185.3080  177.9530  142.2230 C   0  0  0  0  0  2  0  0  0  0  0  0
  187.3910  176.7890  142.7650 N   0  0  1  0  0  0  0  0  0  0  0  0
  189.2980  175.4830  141.8020 C   0  0  2  0  0  3  0  0  0  0  0  0
  184.1930  178.7090  145.0550 O   0  0  0  0  0  0  0  0  0  0  0  0
  183.8310  179.2210  143.8040 C   0  0  0  0  0  2  0  0  0  0  0  0
  187.3170  176.0530  140.4170 C   0  0  0  0  0  1  0  0  0  0  0  0
  185.9300  176.7250  142.8630 C   0  0  0  0  0  2  0  0  0  0  0  0
  185.5510  179.0030  145.1860 C   0  0  1  0  0  3  0  0  0  0  0  0
  187.9210  176.5690  144.1340 C   0  0  1  0  0  3  0  0  0  0  0  0
  186.0180  178.8450  146.6170 C   0  0  0  0  0  2  0  0  0  0  0  0
  183.8840  178.1400  142.7260 C   0  0  0  0  0  2  0  0  0  0  0  0
  189.8170  175.2030  143.1950 C   0  0  0  0  0  2  0  0  0  0  0  0
  189.4410  176.3250  144.1380 C   0  0  2  0  0  3  0  0  0  0  0  0
  187.7800  175.7090  141.8330 C   0  0  2  0  0  3  0  0  0  0  0  0
  187.6540  177.7910  145.0260 C   0  0  0  0  0  2  0  0  0  0  0  0
  191.5320  176.3120  147.3250 C   0  0  0  0  0  0  0  0  0  0  0  0
  190.8390  175.3730  148.0940 C   0  0  0  0  0  3  0  0  0  0  0  0
  189.9530  175.9870  145.5080 C   0  0  0  0  0  0  0  0  0  0  0  0
  189.7050  174.7420  147.5750 C   0  0  0  0  0  3  0  0  0  0  0  0
  191.0900  176.6200  146.0360 C   0  0  0  0  0  3  0  0  0  0  0  0
  189.2620  175.0500  146.2850 C   0  0  0  0  0  3  0  0  0  0  0  0
  192.6280  176.9270  147.8290 F   0  0  0  0  0  0  0  0  0  0  0  0
  189.6880  174.3210  140.8820 C   0  0  0  0  0  2  0  0  0  0  0  0
  190.7960  173.5590  141.4400 N   0  0  0  0  0  2  0  0  0  0  0  0
  191.9940  173.9530  140.7150 C   0  0  0  0  0  2  0  0  0  0  0  0
  193.1420  174.1600  141.6890 C   0  0  0  0  0  2  0  0  0  0  0  0
  195.2390  175.8000  140.1190 O   0  0  0  0  0  0  0  0  0  0  0  0
  193.5180  175.6340  141.7780 C   0  0  2  0  0  3  0  0  0  0  0  0
  194.9440  175.8510  141.3410 C   0  0  0  0  0  0  0  0  0  0  0  0
  195.6870  176.3970  143.6930 C   0  0  0  0  0  2  0  0  0  0  0  0
  194.3900  175.7430  144.1460 C   0  0  0  0  0  2  0  0  0  0  0  0
  193.2710  176.1560  143.1960 C   0  0  0  0  0  2  0  0  0  0  0  0
  195.9820  176.0470  142.3080 N   0  0  0  0  0  2  0  0  0  0  0  0
  1 16  1  6  0  0  0
  1 11  1  0  0  0  0
  2 12  1  0  0  0  0
  2  8  1  0  0  0  0
  3  8  1  1  0  0  0
  3 10  1  0  0  0  0
  4 24  1  6  0  0  0
  4 15  1  0  0  0  0
  4 13  1  0  0  0  0
  5  9  1  0  0  0  0
  6  5  1  0  0  0  0
  9  1  1  0  0  0  0
  9 11  1  1  0  0  0
 10 14  1  0  0  0  0
 10 16  1  1  0  0  0
 12  6  1  0  0  0  0
 13 14  1  0  0  0  0
 14 19  1  1  0  0  0
 15  7  1  6  0  0  0
 15  3  1  0  0  0  0
 17 23  1  0  0  0  0
 17 18  1  0  0  0  0
 19 21  1  0  0  0  0
 19 22  2  0  0  0  0
 20 18  2  0  0  0  0
 21 17  2  0  0  0  0
 22 20  1  0  0  0  0
 24 25  1  0  0  0  0
 26 25  1  0  0  0  0
 26 27  1  0  0  0  0
 28 30  2  0  0  0  0
 29 27  1  1  0  0  0
 29 33  1  0  0  0  0
 30 29  1  0  0  0  0
 30 34  1  0  0  0  0
 31 32  1  0  0  0  0
 33 32  1  0  0  0  0
 34 31  1  0  0  0  0
M  END
>  <MODEL>
3

>  <REMARK>
 VINA RESULT:      -7.6      2.628      8.556
  Name = 
  6 active torsions:
  status: ('A' for Active; 'I' for Inactive)
    1  A    between atoms: C_3  and  C_13
    2  A    between atoms: C_3  and  C_17
    3  A    between atoms: C_5  and  C_18
    4  A    between atoms: C_12  and  C_28
    5  A    between atoms: C_17  and  N_29
    6  A    between atoms: C_18  and  N_29
                            x       y       z     vdW  Elec       q    Type
                         _______ _______ _______ _____ _____    ______ ____

>  <TORSDO>
F 6

$$$$
=
 OpenBabel11052418533D

 34 38  0  0  1  0  0  0  0  0999 V2000
  186.4590  177.6820  145.4990 C   0  0  2  0  0  3  0  0  0  0  0  0
  185.4510  177.7170  142.1170 C   0  0  0  0  0  2  0  0  0  0  0  0
  187.5540  176.6010  142.6830 N   0  0  1  0  0  0  0  0  0  0  0  0
  189.4580  175.2660  141.7570 C   0  0  2  0  0  3  0  0  0  0  0  0
  184.3740  178.6050  144.9250 O   0  0  0  0  0  0  0  0  0  0  0  0
  183.9870  179.0490  143.6560 C   0  0  0  0  0  2  0  0  0  0  0  0
  187.4500  175.7450  140.3770 C   0  0  0  0  0  1  0  0  0  0  0  0
  186.0960  176.5280  142.8080 C   0  0  0  0  0  2  0  0  0  0  0  0
  185.7310  178.9190  145.0180 C   0  0  1  0  0  3  0  0  0  0  0  0
  188.1080  176.4560  144.0530 C   0  0  1  0  0  3  0  0  0  0  0  0
  186.2230  178.8380  146.4480 C   0  0  0  0  0  2  0  0  0  0  0  0
  184.0330  177.9160  142.6340 C   0  0  0  0  0  2  0  0  0  0  0  0
  190.0020  175.0620  143.1540 C   0  0  0  0  0  2  0  0  0  0  0  0
  189.6310  176.2270  144.0440 C   0  0  2  0  0  3  0  0  0  0  0  0
  187.9390  175.4790  141.8010 C   0  0  2  0  0  3  0  0  0  0  0  0
  187.8430  177.7200  144.8860 C   0  0  0  0  0  2  0  0  0  0  0  0
  191.8340  176.3150  147.1530 C   0  0  0  0  0  0  0  0  0  0  0  0
  191.1040  175.4980  148.0210 C   0  0  0  0  0  3  0  0  0  0  0  0
  190.1680  175.9640  145.4210 C   0  0  0  0  0  0  0  0  0  0  0  0
  189.9080  174.9160  147.5930 C   0  0  0  0  0  3  0  0  0  0  0  0
  191.3680  176.5490  145.8570 C   0  0  0  0  0  3  0  0  0  0  0  0
  189.4400  175.1500  146.2960 C   0  0  0  0  0  3  0  0  0  0  0  0
  192.9920  176.8830  147.5680 F   0  0  0  0  0  0  0  0  0  0  0  0
  189.8460  174.0610  140.8910 C   0  0  0  0  0  2  0  0  0  0  0  0
  189.3190  172.8230  141.4480 N   0  0  0  0  0  2  0  0  0  0  0  0
  190.3900  171.8420  141.3960 C   0  0  0  0  0  2  0  0  0  0  0  0
  190.9800  171.6470  142.7830 C   0  0  0  0  0  2  0  0  0  0  0  0
  193.2790  169.5930  142.9990 O   0  0  0  0  0  0  0  0  0  0  0  0
  192.4920  171.8430  142.7610 C   0  0  2  0  0  3  0  0  0  0  0  0
  193.1860  170.7380  143.5140 C   0  0  0  0  0  0  0  0  0  0  0  0
  193.8650  172.2980  145.3810 C   0  0  0  0  0  2  0  0  0  0  0  0
  192.8020  173.2430  144.8410 C   0  0  0  0  0  2  0  0  0  0  0  0
  192.8510  173.2240  143.3170 C   0  0  0  0  0  2  0  0  0  0  0  0
  193.6830  170.9560  144.8390 N   0  0  0  0  0  2  0  0  0  0  0  0
  1 16  1  6  0  0  0
  1 11  1  0  0  0  0
  2 12  1  0  0  0  0
  2  8  1  0  0  0  0
  3  8  1  1  0  0  0
  3 10  1  0  0  0  0
  4 24  1  6  0  0  0
  4 15  1  0  0  0  0
  4 13  1  0  0  0  0
  5  9  1  0  0  0  0
  6  5  1  0  0  0  0
  9  1  1  0  0  0  0
  9 11  1  1  0  0  0
 10 16  1  1  0  0  0
 12  6  1  0  0  0  0
 13 14  1  0  0  0  0
 14 10  1  0  0  0  0
 14 19  1  1  0  0  0
 15  7  1  6  0  0  0
 15  3  1  0  0  0  0
 17 23  1  0  0  0  0
 17 18  1  0  0  0  0
 19 21  1  0  0  0  0
 19 22  2  0  0  0  0
 20 18  2  0  0  0  0
 21 17  2  0  0  0  0
 22 20  1  0  0  0  0
 24 25  1  0  0  0  0
 26 25  1  0  0  0  0
 26 27  1  0  0  0  0
 28 30  2  0  0  0  0
 29 27  1  1  0  0  0
 29 33  1  0  0  0  0
 29 30  1  0  0  0  0
 30 34  1  0  0  0  0
 32 31  1  0  0  0  0
 33 32  1  0  0  0  0
 34 31  1  0  0  0  0
M  END
>  <MODEL>
4

>  <REMARK>
 VINA RESULT:      -7.4      2.829      8.536
  Name = 
  6 active torsions:
  status: ('A' for Active; 'I' for Inactive)
    1  A    between atoms: C_3  and  C_13
    2  A    between atoms: C_3  and  C_17
    3  A    between atoms: C_5  and  C_18
    4  A    between atoms: C_12  and  C_28
    5  A    between atoms: C_17  and  N_29
    6  A    between atoms: C_18  and  N_29
                            x       y       z     vdW  Elec       q    Type
                         _______ _______ _______ _____ _____    ______ ____

>  <TORSDO>
F 6

$$$$
=
 OpenBabel11052418533D

 34 38  0  0  1  0  0  0  0  0999 V2000
  187.5800  177.0290  141.5490 C   0  0  2  0  0  3  0  0  0  0  0  0
  185.9110  177.8600  144.5460 C   0  0  0  0  0  2  0  0  0  0  0  0
  187.7710  176.2740  144.6620 N   0  0  1  0  0  0  0  0  0  0  0  0
  189.1760  174.9020  146.2150 C   0  0  2  0  0  3  0  0  0  0  0  0
  185.8890  178.6620  141.5140 O   0  0  0  0  0  0  0  0  0  0  0  0
  184.8870  178.8370  142.4760 C   0  0  0  0  0  2  0  0  0  0  0  0
  187.5800  176.5880  147.0970 C   0  0  0  0  0  1  0  0  0  0  0  0
  187.4130  177.6740  144.4230 C   0  0  0  0  0  2  0  0  0  0  0  0
  186.0910  177.2830  141.4520 C   0  0  1  0  0  3  0  0  0  0  0  0
  188.6070  175.8440  143.5130 C   0  0  1  0  0  3  0  0  0  0  0  0
  186.8740  176.8920  140.2170 C   0  0  0  0  0  2  0  0  0  0  0  0
  185.4840  179.1430  143.8480 C   0  0  0  0  0  2  0  0  0  0  0  0
  190.0700  174.5020  145.0620 C   0  0  0  0  0  2  0  0  0  0  0  0
  189.2910  174.4880  143.7650 C   0  0  2  0  0  3  0  0  0  0  0  0
  188.5210  176.2620  145.9360 C   0  0  2  0  0  3  0  0  0  0  0  0
  187.7540  175.6940  142.2430 C   0  0  0  0  0  2  0  0  0  0  0  0
  192.2120  174.5310  141.3170 C   0  0  0  0  0  0  0  0  0  0  0  0
  191.9830  173.3490  140.6080 C   0  0  0  0  0  3  0  0  0  0  0  0
  190.2260  174.1140  142.6520 C   0  0  0  0  0  0  0  0  0  0  0  0
  190.8800  172.5490  140.9180 C   0  0  0  0  0  3  0  0  0  0  0  0
  191.3370  174.9130  142.3370 C   0  0  0  0  0  3  0  0  0  0  0  0
  190.0040  172.9300  141.9400 C   0  0  0  0  0  3  0  0  0  0  0  0
  193.2830  175.3060  141.0200 F   0  0  0  0  0  0  0  0  0  0  0  0
  190.0040  174.9160  147.5050 C   0  0  0  0  0  2  0  0  0  0  0  0
  190.7490  176.1600  147.6380 N   0  0  0  0  0  2  0  0  0  0  0  0
  192.1610  175.8180  147.6000 C   0  0  0  0  0  2  0  0  0  0  0  0
  192.8080  176.4290  146.3680 C   0  0  0  0  0  2  0  0  0  0  0  0
  195.2920  177.9830  145.3860 O   0  0  0  0  0  0  0  0  0  0  0  0
  194.2660  175.9990  146.2510 C   0  0  2  0  0  3  0  0  0  0  0  0
  194.9710  176.7840  145.1770 C   0  0  0  0  0  0  0  0  0  0  0  0
  195.1400  174.7640  143.6690 C   0  0  0  0  0  2  0  0  0  0  0  0
  194.0610  174.1470  144.5450 C   0  0  0  0  0  2  0  0  0  0  0  0
  194.3500  174.4900  146.0020 C   0  0  0  0  0  2  0  0  0  0  0  0
  195.2220  176.2030  143.8920 N   0  0  0  0  0  2  0  0  0  0  0  0
  1 11  1  6  0  0  0
  1 16  1  0  0  0  0
  3  8  1  6  0  0  0
  3 15  1  0  0  0  0
  4 24  1  1  0  0  0
  5  6  1  0  0  0  0
  6 12  1  0  0  0  0
  8  2  1  0  0  0  0
  9 11  1  6  0  0  0
  9  5  1  0  0  0  0
  9  1  1  0  0  0  0
 10 16  1  6  0  0  0
 10 14  1  0  0  0  0
 10  3  1  0  0  0  0
 12  2  1  0  0  0  0
 13  4  1  0  0  0  0
 14 19  1  6  0  0  0
 14 13  1  0  0  0  0
 15  4  1  0  0  0  0
 15  7  1  1  0  0  0
 17 21  1  0  0  0  0
 18 20  1  0  0  0  0
 18 17  2  0  0  0  0
 20 22  2  0  0  0  0
 21 19  2  0  0  0  0
 22 19  1  0  0  0  0
 23 17  1  0  0  0  0
 24 25  1  0  0  0  0
 26 25  1  0  0  0  0
 27 26  1  0  0  0  0
 29 27  1  6  0  0  0
 30 28  2  0  0  0  0
 30 29  1  0  0  0  0
 31 34  1  0  0  0  0
 31 32  1  0  0  0  0
 32 33  1  0  0  0  0
 33 29  1  0  0  0  0
 34 30  1  0  0  0  0
M  END
>  <MODEL>
5

>  <REMARK>
 VINA RESULT:      -7.3      2.150      7.025
  Name = 
  6 active torsions:
  status: ('A' for Active; 'I' for Inactive)
    1  A    between atoms: C_3  and  C_13
    2  A    between atoms: C_3  and  C_17
    3  A    between atoms: C_5  and  C_18
    4  A    between atoms: C_12  and  C_28
    5  A    between atoms: C_17  and  N_29
    6  A    between atoms: C_18  and  N_29
                            x       y       z     vdW  Elec       q    Type
                         _______ _______ _______ _____ _____    ______ ____

>  <TORSDO>
F 6

$$$$
=
 OpenBabel11052418533D

 34 38  0  0  1  0  0  0  0  0999 V2000
  193.9280  174.7350  141.7370 C   0  0  2  0  0  3  0  0  0  0  0  0
  194.8760  176.2630  144.7730 C   0  0  0  0  0  2  0  0  0  0  0  0
  192.5350  175.6050  144.4930 N   0  0  1  0  0  0  0  0  0  0  0  0
  190.3060  175.4950  145.6280 C   0  0  2  0  0  3  0  0  0  0  0  0
  196.1920  175.2440  142.1160 O   0  0  0  0  0  0  0  0  0  0  0  0
  196.6880  176.1670  143.0440 C   0  0  0  0  0  2  0  0  0  0  0  0
  192.3560  176.0830  146.9020 C   0  0  0  0  0  1  0  0  0  0  0  0
  193.9010  175.1040  144.6630 C   0  0  0  0  0  2  0  0  0  0  0  0
  194.9980  175.8030  141.6570 C   0  0  1  0  0  3  0  0  0  0  0  0
  191.9720  174.9180  143.3040 C   0  0  1  0  0  3  0  0  0  0  0  0
  194.5150  175.1200  140.3950 C   0  0  0  0  0  2  0  0  0  0  0  0
  196.2890  175.7890  144.4690 C   0  0  0  0  0  2  0  0  0  0  0  0
  189.7350  174.7430  144.4460 C   0  0  0  0  0  2  0  0  0  0  0  0
  190.4530  175.1310  143.1720 C   0  0  2  0  0  3  0  0  0  0  0  0
  191.8180  175.2510  145.7360 C   0  0  2  0  0  3  0  0  0  0  0  0
  192.6180  175.4440  142.0120 C   0  0  0  0  0  2  0  0  0  0  0  0
  189.6850  172.2820  140.7590 C   0  0  0  0  0  0  0  0  0  0  0  0
  188.7130  172.8740  139.9480 C   0  0  0  0  0  3  0  0  0  0  0  0
  189.8700  174.3390  142.0380 C   0  0  0  0  0  0  0  0  0  0  0  0
  188.3180  174.1940  140.1800 C   0  0  0  0  0  3  0  0  0  0  0  0
  190.2620  173.0110  141.8020 C   0  0  0  0  0  3  0  0  0  0  0  0
  188.8940  174.9250  141.2240 C   0  0  0  0  0  3  0  0  0  0  0  0
  190.0660  171.0010  140.5390 F   0  0  0  0  0  0  0  0  0  0  0  0
  189.5620  175.0670  146.8980 C   0  0  0  0  0  2  0  0  0  0  0  0
  188.1910  175.5570  146.8940 N   0  0  0  0  0  2  0  0  0  0  0  0
  188.2570  177.0100  146.8880 C   0  0  0  0  0  2  0  0  0  0  0  0
  187.6060  177.5510  145.6260 C   0  0  0  0  0  2  0  0  0  0  0  0
  186.3070  176.1900  143.1740 O   0  0  0  0  0  0  0  0  0  0  0  0
  186.2120  176.9630  145.4390 C   0  0  2  0  0  3  0  0  0  0  0  0
  185.8020  177.0040  143.9900 C   0  0  0  0  0  0  0  0  0  0  0  0
  184.0640  178.7850  144.4280 C   0  0  0  0  0  2  0  0  0  0  0  0
  184.7960  179.0330  145.7380 C   0  0  0  0  0  2  0  0  0  0  0  0
  185.2080  177.6930  146.3370 C   0  0  0  0  0  2  0  0  0  0  0  0
  184.8940  178.0040  143.5160 N   0  0  0  0  0  2  0  0  0  0  0  0
  1 11  1  6  0  0  0
  1 16  1  0  0  0  0
  3  8  1  1  0  0  0
  3 15  1  0  0  0  0
  4 15  1  0  0  0  0
  4 24  1  1  0  0  0
  5  6  1  0  0  0  0
  6 12  1  0  0  0  0
  8  2  1  0  0  0  0
  9 11  1  6  0  0  0
  9  1  1  0  0  0  0
  9  5  1  0  0  0  0
 10 16  1  6  0  0  0
 10  3  1  0  0  0  0
 12  2  1  0  0  0  0
 13  4  1  0  0  0  0
 14 19  1  6  0  0  0
 14 10  1  0  0  0  0
 14 13  1  0  0  0  0
 15  7  1  1  0  0  0
 17 21  1  0  0  0  0
 18 20  1  0  0  0  0
 18 17  2  0  0  0  0
 20 22  2  0  0  0  0
 21 19  2  0  0  0  0
 22 19  1  0  0  0  0
 23 17  1  0  0  0  0
 25 24  1  0  0  0  0
 26 25  1  0  0  0  0
 27 26  1  0  0  0  0
 28 30  2  0  0  0  0
 29 27  1  6  0  0  0
 29 33  1  0  0  0  0
 30 29  1  0  0  0  0
 31 32  1  0  0  0  0
 32 33  1  0  0  0  0
 34 30  1  0  0  0  0
 34 31  1  0  0  0  0
M  END
>  <MODEL>
6

>  <REMARK>
 VINA RESULT:      -7.2      1.660      2.163
  Name = 
  6 active torsions:
  status: ('A' for Active; 'I' for Inactive)
    1  A    between atoms: C_3  and  C_13
    2  A    between atoms: C_3  and  C_17
    3  A    between atoms: C_5  and  C_18
    4  A    between atoms: C_12  and  C_28
    5  A    between atoms: C_17  and  N_29
    6  A    between atoms: C_18  and  N_29
                            x       y       z     vdW  Elec       q    Type
                         _______ _______ _______ _____ _____    ______ ____

>  <TORSDO>
F 6

$$$$
=
 OpenBabel11052418533D

 34 38  0  0  1  0  0  0  0  0999 V2000
  187.6300  177.0090  141.6640 C   0  0  2  0  0  3  0  0  0  0  0  0
  186.3330  178.0860  144.7640 C   0  0  0  0  0  2  0  0  0  0  0  0
  188.1790  176.4790  144.7800 N   0  0  1  0  0  0  0  0  0  0  0  0
  189.7440  175.1980  146.2560 C   0  0  2  0  0  3  0  0  0  0  0  0
  185.9620  178.6660  141.7050 O   0  0  0  0  0  0  0  0  0  0  0  0
  185.0820  178.9280  142.7620 C   0  0  0  0  0  2  0  0  0  0  0  0
  188.2790  176.9720  147.1900 C   0  0  0  0  0  1  0  0  0  0  0  0
  187.8080  177.8650  144.4810 C   0  0  0  0  0  2  0  0  0  0  0  0
  186.1420  177.2820  141.7220 C   0  0  1  0  0  3  0  0  0  0  0  0
  188.8700  175.9520  143.5770 C   0  0  1  0  0  3  0  0  0  0  0  0
  186.7710  176.7890  140.4360 C   0  0  0  0  0  2  0  0  0  0  0  0
  185.8390  179.3220  144.0290 C   0  0  0  0  0  2  0  0  0  0  0  0
  190.4920  174.7000  145.0390 C   0  0  0  0  0  2  0  0  0  0  0  0
  189.5660  174.6050  143.8470 C   0  0  2  0  0  3  0  0  0  0  0  0
  189.0730  176.5460  145.9550 C   0  0  2  0  0  3  0  0  0  0  0  0
  187.8720  175.7250  142.4300 C   0  0  0  0  0  2  0  0  0  0  0  0
  190.6750  172.6370  140.7770 C   0  0  0  0  0  0  0  0  0  0  0  0
  191.8370  173.3280  140.4230 C   0  0  0  0  0  3  0  0  0  0  0  0
  190.3600  174.1350  142.6630 C   0  0  0  0  0  0  0  0  0  0  0  0
  192.2610  174.4210  141.1840 C   0  0  0  0  0  3  0  0  0  0  0  0
  189.9370  173.0400  141.8930 C   0  0  0  0  0  3  0  0  0  0  0  0
  191.5230  174.8250  142.3010 C   0  0  0  0  0  3  0  0  0  0  0  0
  190.2600  171.5810  140.0370 F   0  0  0  0  0  0  0  0  0  0  0  0
  190.7180  175.2910  147.4360 C   0  0  0  0  0  2  0  0  0  0  0  0
  192.0870  175.0390  147.0080 N   0  0  0  0  0  2  0  0  0  0  0  0
  192.7950  176.3070  147.0730 C   0  0  0  0  0  2  0  0  0  0  0  0
  194.1910  176.1500  146.4940 C   0  0  0  0  0  2  0  0  0  0  0  0
  194.7950  173.2090  145.7630 O   0  0  0  0  0  0  0  0  0  0  0  0
  194.1430  175.4310  145.1510 C   0  0  2  0  0  3  0  0  0  0  0  0
  195.0890  174.2590  145.1350 C   0  0  0  0  0  0  0  0  0  0  0  0
  196.6410  175.4040  143.5030 C   0  0  0  0  0  2  0  0  0  0  0  0
  195.9300  176.6930  143.8890 C   0  0  0  0  0  2  0  0  0  0  0  0
  194.4360  176.4160  144.0160 C   0  0  0  0  0  2  0  0  0  0  0  0
  196.3540  174.3510  144.4700 N   0  0  0  0  0  2  0  0  0  0  0  0
  1 11  1  6  0  0  0
  1  9  1  0  0  0  0
  1 16  1  0  0  0  0
  3  8  1  6  0  0  0
  3 15  1  0  0  0  0
  4 24  1  1  0  0  0
  5  9  1  0  0  0  0
  5  6  1  0  0  0  0
  6 12  1  0  0  0  0
  8  2  1  0  0  0  0
  9 11  1  6  0  0  0
 10 16  1  6  0  0  0
 10 14  1  0  0  0  0
 10  3  1  0  0  0  0
 12  2  1  0  0  0  0
 13  4  1  0  0  0  0
 14 19  1  6  0  0  0
 14 13  1  0  0  0  0
 15  4  1  0  0  0  0
 15  7  1  1  0  0  0
 17 21  1  0  0  0  0
 18 17  2  0  0  0  0
 18 20  1  0  0  0  0
 20 22  2  0  0  0  0
 21 19  2  0  0  0  0
 22 19  1  0  0  0  0
 23 17  1  0  0  0  0
 25 26  1  0  0  0  0
 25 24  1  0  0  0  0
 27 26  1  0  0  0  0
 29 27  1  1  0  0  0
 30 29  1  0  0  0  0
 30 28  2  0  0  0  0
 31 32  1  0  0  0  0
 31 34  1  0  0  0  0
 32 33  1  0  0  0  0
 33 29  1  0  0  0  0
 34 30  1  0  0  0  0
M  END
>  <MODEL>
7

>  <REMARK>
 VINA RESULT:      -7.1      1.993      7.268
  Name = 
  6 active torsions:
  status: ('A' for Active; 'I' for Inactive)
    1  A    between atoms: C_3  and  C_13
    2  A    between atoms: C_3  and  C_17
    3  A    between atoms: C_5  and  C_18
    4  A    between atoms: C_12  and  C_28
    5  A    between atoms: C_17  and  N_29
    6  A    between atoms: C_18  and  N_29
                            x       y       z     vdW  Elec       q    Type
                         _______ _______ _______ _____ _____    ______ ____

>  <TORSDO>
F 6

$$$$
=
 OpenBabel11052418533D

 34 38  0  0  1  0  0  0  0  0999 V2000
  187.7880  176.9330  141.4850 C   0  0  2  0  0  3  0  0  0  0  0  0
  186.8000  178.0660  144.6780 C   0  0  0  0  0  2  0  0  0  0  0  0
  188.6330  176.4510  144.5430 N   0  0  1  0  0  0  0  0  0  0  0  0
  190.3300  175.1870  145.8820 C   0  0  2  0  0  3  0  0  0  0  0  0
  186.1370  178.5980  141.6600 O   0  0  0  0  0  0  0  0  0  0  0  0
  185.3640  178.8820  142.7920 C   0  0  0  0  0  2  0  0  0  0  0  0
  188.9670  176.9830  146.9240 C   0  0  0  0  0  1  0  0  0  0  0  0
  188.2400  177.8330  144.2580 C   0  0  0  0  0  2  0  0  0  0  0  0
  186.3140  177.2140  141.6820 C   0  0  1  0  0  3  0  0  0  0  0  0
  189.2030  175.9010  143.2870 C   0  0  1  0  0  3  0  0  0  0  0  0
  186.8140  176.6970  140.3500 C   0  0  0  0  0  2  0  0  0  0  0  0
  186.2410  179.2930  143.9730 C   0  0  0  0  0  2  0  0  0  0  0  0
  190.9550  174.6650  144.6070 C   0  0  0  0  0  2  0  0  0  0  0  0
  189.9180  174.5560  143.5120 C   0  0  2  0  0  3  0  0  0  0  0  0
  189.6370  176.5330  145.6250 C   0  0  2  0  0  3  0  0  0  0  0  0
  188.0990  175.6610  142.2460 C   0  0  0  0  0  2  0  0  0  0  0  0
  192.3790  174.1920  140.6240 C   0  0  0  0  0  0  0  0  0  0  0  0
  191.8580  173.0730  139.9690 C   0  0  0  0  0  3  0  0  0  0  0  0
  190.5920  174.0630  142.2650 C   0  0  0  0  0  0  0  0  0  0  0  0
  190.7080  172.4480  140.4590 C   0  0  0  0  0  3  0  0  0  0  0  0
  191.7500  174.6860  141.7700 C   0  0  0  0  0  3  0  0  0  0  0  0
  190.0780  172.9410  141.6060 C   0  0  0  0  0  3  0  0  0  0  0  0
  193.4960  174.7960  140.1540 F   0  0  0  0  0  0  0  0  0  0  0  0
  191.4130  175.2940  146.9610 C   0  0  0  0  0  2  0  0  0  0  0  0
  192.7420  175.1350  146.3880 N   0  0  0  0  0  2  0  0  0  0  0  0
  193.5140  176.3080  146.7670 C   0  0  0  0  0  2  0  0  0  0  0  0
  194.5520  176.6090  145.6990 C   0  0  0  0  0  2  0  0  0  0  0  0
  196.1760  174.0180  146.1430 O   0  0  0  0  0  0  0  0  0  0  0  0
  194.7630  175.4020  144.7920 C   0  0  2  0  0  3  0  0  0  0  0  0
  196.0690  174.7200  145.1030 C   0  0  0  0  0  0  0  0  0  0  0  0
  197.0970  175.4680  142.9200 C   0  0  0  0  0  2  0  0  0  0  0  0
  195.9700  176.4880  142.8570 C   0  0  0  0  0  2  0  0  0  0  0  0
  194.6780  175.8270  143.3230 C   0  0  0  0  0  2  0  0  0  0  0  0
  197.2140  174.9150  144.2650 N   0  0  0  0  0  2  0  0  0  0  0  0
  1 11  1  6  0  0  0
  1  9  1  0  0  0  0
  1 16  1  0  0  0  0
  3  8  1  6  0  0  0
  3 15  1  0  0  0  0
  4 24  1  1  0  0  0
  5  9  1  0  0  0  0
  5  6  1  0  0  0  0
  6 12  1  0  0  0  0
  8  2  1  0  0  0  0
  9 11  1  6  0  0  0
 10 16  1  6  0  0  0
 10 14  1  0  0  0  0
 10  3  1  0  0  0  0
 12  2  1  0  0  0  0
 13  4  1  0  0  0  0
 14 19  1  6  0  0  0
 14 13  1  0  0  0  0
 15  4  1  0  0  0  0
 15  7  1  1  0  0  0
 17 21  1  0  0  0  0
 18 20  1  0  0  0  0
 18 17  2  0  0  0  0
 20 22  2  0  0  0  0
 21 19  2  0  0  0  0
 22 19  1  0  0  0  0
 23 17  1  0  0  0  0
 25 26  1  0  0  0  0
 25 24  1  0  0  0  0
 27 26  1  0  0  0  0
 29 30  1  0  0  0  0
 29 27  1  1  0  0  0
 30 28  2  0  0  0  0
 31 34  1  0  0  0  0
 32 31  1  0  0  0  0
 32 33  1  0  0  0  0
 33 29  1  0  0  0  0
 34 30  1  0  0  0  0
M  END
>  <MODEL>
8

>  <REMARK>
 VINA RESULT:      -7.0      2.200      7.422
  Name = 
  6 active torsions:
  status: ('A' for Active; 'I' for Inactive)
    1  A    between atoms: C_3  and  C_13
    2  A    between atoms: C_3  and  C_17
    3  A    between atoms: C_5  and  C_18
    4  A    between atoms: C_12  and  C_28
    5  A    between atoms: C_17  and  N_29
    6  A    between atoms: C_18  and  N_29
                            x       y       z     vdW  Elec       q    Type
                         _______ _______ _______ _____ _____    ______ ____

>  <TORSDO>
F 6

$$$$
=
 OpenBabel11052418533D

 34 38  0  0  1  0  0  0  0  0999 V2000
  193.4140  172.9350  142.2940 C   0  0  2  0  0  3  0  0  0  0  0  0
  191.2260  172.0500  139.6700 C   0  0  0  0  0  2  0  0  0  0  0  0
  190.3960  173.5640  141.4040 N   0  0  1  0  0  0  0  0  0  0  0  0
  188.4390  174.9510  142.1240 C   0  0  2  0  0  3  0  0  0  0  0  0
  194.2110  171.6090  140.5230 O   0  0  0  0  0  0  0  0  0  0  0  0
  193.4310  170.8580  139.6350 C   0  0  0  0  0  2  0  0  0  0  0  0
  188.4960  173.8990  139.8750 C   0  0  0  0  0  1  0  0  0  0  0  0
  191.3210  173.4390  140.2760 C   0  0  0  0  0  2  0  0  0  0  0  0
  193.5410  171.5300  141.7450 C   0  0  1  0  0  3  0  0  0  0  0  0
  191.1870  174.0710  142.5540 C   0  0  1  0  0  3  0  0  0  0  0  0
  194.4230  171.9770  142.8910 C   0  0  0  0  0  2  0  0  0  0  0  0
  192.4720  171.7500  138.8500 C   0  0  0  0  0  2  0  0  0  0  0  0
  189.2540  175.5180  143.2650 C   0  0  0  0  0  2  0  0  0  0  0  0
  190.2940  174.5200  143.7240 C   0  0  2  0  0  3  0  0  0  0  0  0
  189.3590  174.5250  140.9710 C   0  0  2  0  0  3  0  0  0  0  0  0
  192.1280  172.9810  143.0920 C   0  0  0  0  0  2  0  0  0  0  0  0
  191.6240  175.3720  147.1930 C   0  0  0  0  0  0  0  0  0  0  0  0
  192.6440  176.2720  146.8740 C   0  0  0  0  0  3  0  0  0  0  0  0
  191.0920  175.1400  144.8350 C   0  0  0  0  0  0  0  0  0  0  0  0
  192.8910  176.6050  145.5390 C   0  0  0  0  0  3  0  0  0  0  0  0
  190.8490  174.8060  146.1770 C   0  0  0  0  0  3  0  0  0  0  0  0
  192.1170  176.0390  144.5220 C   0  0  0  0  0  3  0  0  0  0  0  0
  191.3860  175.0440  148.4860 F   0  0  0  0  0  0  0  0  0  0  0  0
  187.4080  175.9950  141.6810 C   0  0  0  0  0  2  0  0  0  0  0  0
  187.9100  177.3470  141.8800 N   0  0  0  0  0  2  0  0  0  0  0  0
  186.7630  178.1910  142.1720 C   0  0  0  0  0  2  0  0  0  0  0  0
  186.0670  177.7000  143.4310 C   0  0  0  0  0  2  0  0  0  0  0  0
  187.9210  177.2880  145.8680 O   0  0  0  0  0  0  0  0  0  0  0  0
  186.3740  178.6150  144.6110 C   0  0  2  0  0  3  0  0  0  0  0  0
  186.7790  177.8130  145.8200 C   0  0  0  0  0  0  0  0  0  0  0  0
  184.6370  178.3760  147.0360 C   0  0  0  0  0  2  0  0  0  0  0  0
  184.0890  178.7750  145.6740 C   0  0  0  0  0  2  0  0  0  0  0  0
  185.1730  179.5190  144.9020 C   0  0  0  0  0  2  0  0  0  0  0  0
  185.8530  177.5830  146.8880 N   0  0  0  0  0  2  0  0  0  0  0  0
  1 11  1  1  0  0  0
  1 16  1  0  0  0  0
  2  8  1  0  0  0  0
  3  8  1  6  0  0  0
  3 10  1  0  0  0  0
  4 24  1  6  0  0  0
  4 13  1  0  0  0  0
  5  9  1  0  0  0  0
  6  5  1  0  0  0  0
  9  1  1  0  0  0  0
  9 11  1  1  0  0  0
 10 16  1  1  0  0  0
 10 14  1  0  0  0  0
 12  6  1  0  0  0  0
 12  2  1  0  0  0  0
 13 14  1  0  0  0  0
 14 19  1  1  0  0  0
 15  7  1  6  0  0  0
 15  3  1  0  0  0  0
 15  4  1  0  0  0  0
 17 23  1  0  0  0  0
 18 17  1  0  0  0  0
 19 21  1  0  0  0  0
 20 18  2  0  0  0  0
 21 17  2  0  0  0  0
 22 19  2  0  0  0  0
 22 20  1  0  0  0  0
 24 25  1  0  0  0  0
 25 26  1  0  0  0  0
 26 27  1  0  0  0  0
 29 27  1  6  0  0  0
 29 33  1  0  0  0  0
 29 30  1  0  0  0  0
 30 28  2  0  0  0  0
 30 34  1  0  0  0  0
 32 31  1  0  0  0  0
 33 32  1  0  0  0  0
 34 31  1  0  0  0  0
M  END
>  <MODEL>
9

>  <REMARK>
 VINA RESULT:      -6.9      2.877      5.248
  Name = 
  6 active torsions:
  status: ('A' for Active; 'I' for Inactive)
    1  A    between atoms: C_3  and  C_13
    2  A    between atoms: C_3  and  C_17
    3  A    between atoms: C_5  and  C_18
    4  A    between atoms: C_12  and  C_28
    5  A    between atoms: C_17  and  N_29
    6  A    between atoms: C_18  and  N_29
                            x       y       z     vdW  Elec       q    Type
                         _______ _______ _______ _____ _____    ______ ____

>  <TORSDO>
F 6

$$$$
