=
 OpenBabel11052420223D

 34 39  0  0  1  0  0  0  0  0999 V2000
  192.5510  173.0380  144.0690 C   0  0  0  0  0  0  0  0  0  0  0  0
  189.6770  173.2450  144.0790 C   0  0  0  0  0  0  0  0  0  0  0  0
  190.9690  171.6810  141.2260 C   0  0  2  0  0  0  0  0  0  0  0  0
  188.9080  174.8380  146.9660 C   0  0  0  0  0  2  0  0  0  0  0  0
  190.2100  175.0290  147.6150 C   0  0  0  0  0  2  0  0  0  0  0  0
  192.3940  171.5990  141.8250 C   0  0  0  0  0  2  0  0  0  0  0  0
  192.5600  172.4140  143.0380 C   0  0  0  0  0  0  0  0  0  0  0  0
  190.1270  174.0970  146.3910 C   0  0  0  0  0  0  0  0  0  0  0  0
  189.8630  171.3050  142.2500 C   0  0  0  0  0  2  0  0  0  0  0  0
  189.6810  172.3370  143.2850 C   0  0  0  0  0  0  0  0  0  0  0  0
  190.9090  170.6480  140.1190 C   0  0  0  0  0  1  0  0  0  0  0  0
  189.7970  174.4290  144.9360 C   0  0  1  0  0  3  0  0  0  0  0  0
  192.3800  173.7150  145.3600 C   0  0  0  0  0  2  0  0  0  0  0  0
  191.2010  174.7200  145.4160 C   0  0  2  0  0  0  0  0  0  0  0  0
  190.4350  177.2240  145.6490 C   0  0  0  0  0  2  0  0  0  0  0  0
  193.5950  176.1910  143.7730 C   0  0  0  0  0  2  0  0  0  0  0  0
  191.2040  176.3920  142.8580 C   0  0  0  0  0  2  0  0  0  0  0  0
  188.2350  177.9450  144.6990 C   0  0  0  0  0  3  0  0  0  0  0  0
  187.7140  177.7650  142.3420 C   0  0  0  0  0  3  0  0  0  0  0  0
  187.3450  178.1320  143.6390 C   0  0  0  0  0  3  0  0  0  0  0  0
  189.8780  177.0380  143.1520 C   0  0  0  0  0  0  0  0  0  0  0  0
  189.4970  177.3890  144.4720 C   0  0  0  0  0  0  0  0  0  0  0  0
  188.9750  177.2160  142.1010 C   0  0  0  0  0  3  0  0  0  0  0  0
  194.4720  176.6480  144.9500 C   0  0  1  0  0  3  0  0  0  0  0  0
  192.7030  176.4930  146.4370 C   0  0  0  0  0  2  0  0  0  0  0  0
  193.7490  177.3240  145.9700 O   0  0  0  0  0  0  0  0  0  0  0  0
  192.1690  176.6630  144.0010 C   0  0  1  0  0  3  0  0  0  0  0  0
  191.6050  176.2540  145.3780 C   0  0  1  0  0  0  0  0  0  0  0  0
  195.3200  175.4960  145.4880 C   0  0  0  0  0  2  0  0  0  0  0  0
  197.1210  175.3710  143.9210 O   0  0  0  0  0  1  0  0  0  0  0  0
  195.9670  174.7180  144.3570 C   0  0  0  0  0  2  0  0  0  0  0  0
  190.7150  173.0340  140.5960 C   0  0  0  0  0  0  0  0  0  0  0  0
  189.5520  173.3580  140.2330 O   0  0  0  0  0  0  0  0  0  0  0  0
  191.7660  173.9100  140.3540 O   0  0  0  0  0  1  0  0  0  0  0  0
  1 13  1  0  0  0  0
  3 11  1  6  0  0  0
  3  6  1  0  0  0  0
  3  9  1  0  0  0  0
  4  5  1  0  0  0  0
  6  7  1  0  0  0  0
  7  1  3  0  0  0  0
  8  4  1  0  0  0  0
  8  5  1  0  0  0  0
  9 10  1  0  0  0  0
 10  2  3  0  0  0  0
 12  2  1  6  0  0  0
 12 14  1  0  0  0  0
 12  8  1  0  0  0  0
 14 13  1  6  0  0  0
 14  8  1  0  0  0  0
 16 27  1  0  0  0  0
 16 24  1  0  0  0  0
 17 21  1  0  0  0  0
 19 20  1  0  0  0  0
 20 18  2  0  0  0  0
 21 22  2  0  0  0  0
 22 18  1  0  0  0  0
 22 15  1  0  0  0  0
 23 19  2  0  0  0  0
 23 21  1  0  0  0  0
 24 29  1  1  0  0  0
 24 26  1  0  0  0  0
 26 25  1  0  0  0  0
 27 17  1  6  0  0  0
 27 28  1  0  0  0  0
 28 14  1  0  0  0  0
 28 15  1  1  0  0  0
 28 25  1  0  0  0  0
 30 31  1  0  0  0  0
 31 29  1  0  0  0  0
 32  3  1  0  0  0  0
 33 32  2  0  0  0  0
 34 32  1  0  0  0  0
M  END
>  <MODEL>
1

>  <REMARK>
 VINA RESULT:      -7.6      0.000      0.000
  Name = 
  4 active torsions:
  status: ('A' for Active; 'I' for Inactive)
    1  A    between atoms: C_3  and  C_23
    2  A    between atoms: C_3  and  C_24
    3  A    between atoms: C_7  and  C_11
    4  A    between atoms: C_33  and  C_34
                            x       y       z     vdW  Elec       q    Type
                         _______ _______ _______ _____ _____    ______ ____

>  <TORSDO>
F 4

$$$$
=
 OpenBabel11052420223D

 34 39  0  0  1  0  0  0  0  0999 V2000
  189.2750  174.1130  143.1280 C   0  0  0  0  0  0  0  0  0  0  0  0
  191.7760  175.0230  142.0240 C   0  0  0  0  0  0  0  0  0  0  0  0
  191.0550  171.6730  141.3100 C   0  0  2  0  0  0  0  0  0  0  0  0
  192.0560  178.2540  142.9980 C   0  0  0  0  0  2  0  0  0  0  0  0
  190.8090  178.5060  143.7290 C   0  0  0  0  0  2  0  0  0  0  0  0
  189.6110  171.7890  141.8540 C   0  0  0  0  0  2  0  0  0  0  0  0
  189.3760  173.0270  142.6120 C   0  0  0  0  0  0  0  0  0  0  0  0
  190.9300  177.2100  142.9040 C   0  0  0  0  0  0  0  0  0  0  0  0
  191.4720  172.8910  140.4420 C   0  0  0  0  0  2  0  0  0  0  0  0
  191.6820  174.1080  141.2440 C   0  0  0  0  0  0  0  0  0  0  0  0
  191.0740  170.4600  140.4010 C   0  0  0  0  0  1  0  0  0  0  0  0
  191.8560  176.0120  143.1050 C   0  0  1  0  0  3  0  0  0  0  0  0
  189.2400  175.4980  143.6090 C   0  0  0  0  0  2  0  0  0  0  0  0
  190.6230  176.0940  143.9770 C   0  0  2  0  0  0  0  0  0  0  0  0
  192.3830  176.5960  145.8630 C   0  0  0  0  0  2  0  0  0  0  0  0
  189.1700  174.6340  146.4970 C   0  0  0  0  0  2  0  0  0  0  0  0
  191.4520  173.7350  145.7330 C   0  0  0  0  0  2  0  0  0  0  0  0
  194.7180  175.7200  145.6520 C   0  0  0  0  0  3  0  0  0  0  0  0
  195.2120  173.3550  145.5030 C   0  0  0  0  0  3  0  0  0  0  0  0
  195.6470  174.6830  145.5410 C   0  0  0  0  0  3  0  0  0  0  0  0
  192.9120  174.0910  145.7080 C   0  0  0  0  0  0  0  0  0  0  0  0
  193.3500  175.4400  145.7230 C   0  0  0  0  0  0  0  0  0  0  0  0
  193.8480  173.0610  145.5820 C   0  0  0  0  0  3  0  0  0  0  0  0
  188.5270  175.8580  147.1680 C   0  0  1  0  0  3  0  0  0  0  0  0
  189.9900  177.3110  146.1130 C   0  0  0  0  0  2  0  0  0  0  0  0
  189.4260  176.9420  147.3560 O   0  0  0  0  0  0  0  0  0  0  0  0
  190.6490  174.9050  146.2790 C   0  0  1  0  0  3  0  0  0  0  0  0
  190.9220  176.2270  145.5290 C   0  0  1  0  0  0  0  0  0  0  0  0
  187.2430  176.2710  146.4490 C   0  0  0  0  0  2  0  0  0  0  0  0
  186.3350  178.4310  146.9270 O   0  0  0  0  0  1  0  0  0  0  0  0
  186.3520  177.1020  147.3550 C   0  0  0  0  0  2  0  0  0  0  0  0
  192.0440  171.4150  142.4280 C   0  0  0  0  0  0  0  0  0  0  0  0
  193.2820  171.5120  142.2160 O   0  0  0  0  0  0  0  0  0  0  0  0
  191.6040  171.0090  143.6820 O   0  0  0  0  0  1  0  0  0  0  0  0
  1 13  1  0  0  0  0
  3 11  1  6  0  0  0
  3  6  1  0  0  0  0
  3 32  1  0  0  0  0
  4  5  1  0  0  0  0
  6  7  1  0  0  0  0
  7  1  3  0  0  0  0
  8  4  1  0  0  0  0
  8 12  1  0  0  0  0
  8  5  1  0  0  0  0
  8 14  1  0  0  0  0
  9 10  1  0  0  0  0
  9  3  1  0  0  0  0
 10  2  3  0  0  0  0
 12  2  1  6  0  0  0
 12 14  1  0  0  0  0
 14 13  1  6  0  0  0
 14 28  1  0  0  0  0
 16 24  1  0  0  0  0
 18 22  1  0  0  0  0
 19 20  1  0  0  0  0
 19 23  2  0  0  0  0
 20 18  2  0  0  0  0
 21 22  2  0  0  0  0
 21 17  1  0  0  0  0
 22 15  1  0  0  0  0
 23 21  1  0  0  0  0
 24 29  1  6  0  0  0
 24 26  1  0  0  0  0
 25 26  1  0  0  0  0
 27 17  1  6  0  0  0
 27 16  1  0  0  0  0
 28 15  1  1  0  0  0
 28 25  1  0  0  0  0
 28 27  1  0  0  0  0
 29 31  1  0  0  0  0
 30 31  1  0  0  0  0
 32 34  1  0  0  0  0
 33 32  2  0  0  0  0
M  END
>  <MODEL>
2

>  <REMARK>
 VINA RESULT:      -7.1      2.191      5.378
  Name = 
  4 active torsions:
  status: ('A' for Active; 'I' for Inactive)
    1  A    between atoms: C_3  and  C_23
    2  A    between atoms: C_3  and  C_24
    3  A    between atoms: C_7  and  C_11
    4  A    between atoms: C_33  and  C_34
                            x       y       z     vdW  Elec       q    Type
                         _______ _______ _______ _____ _____    ______ ____

>  <TORSDO>
F 4

$$$$
=
 OpenBabel11052420223D

 34 39  0  0  1  0  0  0  0  0999 V2000
  191.5650  175.4980  142.7310 C   0  0  0  0  0  0  0  0  0  0  0  0
  193.8750  173.9750  141.9270 C   0  0  0  0  0  0  0  0  0  0  0  0
  190.8400  172.6210  140.8270 C   0  0  2  0  0  0  0  0  0  0  0  0
  196.5280  175.6220  143.2370 C   0  0  0  0  0  2  0  0  0  0  0  0
  195.9250  176.7910  143.8870 C   0  0  0  0  0  2  0  0  0  0  0  0
  190.0390  173.8710  141.2630 C   0  0  0  0  0  2  0  0  0  0  0  0
  190.8100  174.7850  142.1190 C   0  0  0  0  0  0  0  0  0  0  0  0
  195.0500  175.9370  142.9490 C   0  0  0  0  0  0  0  0  0  0  0  0
  192.1760  172.9790  140.1210 C   0  0  0  0  0  2  0  0  0  0  0  0
  193.1790  173.5180  141.0540 C   0  0  0  0  0  0  0  0  0  0  0  0
  189.9850  171.8980  139.8060 C   0  0  0  0  0  1  0  0  0  0  0  0
  194.5850  174.4900  143.1030 C   0  0  1  0  0  3  0  0  0  0  0  0
  192.6060  176.3310  143.3440 C   0  0  0  0  0  2  0  0  0  0  0  0
  193.8340  175.5500  143.8780 C   0  0  2  0  0  0  0  0  0  0  0  0
  195.2820  174.8990  145.9720 C   0  0  0  0  0  2  0  0  0  0  0  0
  191.4650  174.9270  146.0210 C   0  0  0  0  0  2  0  0  0  0  0  0
  193.0270  173.0000  145.3560 C   0  0  0  0  0  2  0  0  0  0  0  0
  196.8170  172.9250  145.8590 C   0  0  0  0  0  3  0  0  0  0  0  0
  196.0190  170.6800  145.4270 C   0  0  0  0  0  3  0  0  0  0  0  0
  197.0710  171.5620  145.6910 C   0  0  0  0  0  3  0  0  0  0  0  0
  194.4430  172.5190  145.5170 C   0  0  0  0  0  0  0  0  0  0  0  0
  195.5120  173.4180  145.7630 C   0  0  0  0  0  0  0  0  0  0  0  0
  194.7100  171.1590  145.3370 C   0  0  0  0  0  3  0  0  0  0  0  0
  191.4610  176.2550  146.7940 C   0  0  1  0  0  3  0  0  0  0  0  0
  193.6090  176.7660  146.0950 C   0  0  0  0  0  2  0  0  0  0  0  0
  192.7520  176.6730  147.2160 O   0  0  0  0  0  0  0  0  0  0  0  0
  192.8810  174.3770  145.9820 C   0  0  1  0  0  3  0  0  0  0  0  0
  193.9150  175.3940  145.4540 C   0  0  1  0  0  0  0  0  0  0  0  0
  190.7090  177.3410  146.0230 C   0  0  0  0  0  2  0  0  0  0  0  0
  189.0440  177.5230  144.3180 O   0  0  0  0  0  1  0  0  0  0  0  0
  189.4030  176.8080  145.4610 C   0  0  0  0  0  2  0  0  0  0  0  0
  191.0550  171.6740  141.9890 C   0  0  0  0  0  0  0  0  0  0  0  0
  191.8480  170.7010  141.8770 O   0  0  0  0  0  0  0  0  0  0  0  0
  190.3380  171.8280  143.1690 O   0  0  0  0  0  1  0  0  0  0  0  0
  1 13  1  0  0  0  0
  3 11  1  6  0  0  0
  3  6  1  0  0  0  0
  3 32  1  0  0  0  0
  4  5  1  0  0  0  0
  6  7  1  0  0  0  0
  7  1  3  0  0  0  0
  8 12  1  0  0  0  0
  8  4  1  0  0  0  0
  8 14  1  0  0  0  0
  8  5  1  0  0  0  0
  9  3  1  0  0  0  0
  9 10  1  0  0  0  0
 10  2  3  0  0  0  0
 12  2  1  6  0  0  0
 12 14  1  0  0  0  0
 14 13  1  6  0  0  0
 14 28  1  0  0  0  0
 16 24  1  0  0  0  0
 17 21  1  0  0  0  0
 19 20  1  0  0  0  0
 20 18  2  0  0  0  0
 21 22  2  0  0  0  0
 22 18  1  0  0  0  0
 22 15  1  0  0  0  0
 23 19  2  0  0  0  0
 23 21  1  0  0  0  0
 24 29  1  6  0  0  0
 24 26  1  0  0  0  0
 25 26  1  0  0  0  0
 27 17  1  6  0  0  0
 27 16  1  0  0  0  0
 28 15  1  1  0  0  0
 28 27  1  0  0  0  0
 28 25  1  0  0  0  0
 30 31  1  0  0  0  0
 31 29  1  0  0  0  0
 32 34  1  0  0  0  0
 33 32  2  0  0  0  0
M  END
>  <MODEL>
3

>  <REMARK>
 VINA RESULT:      -6.9      2.127      5.734
  Name = 
  4 active torsions:
  status: ('A' for Active; 'I' for Inactive)
    1  A    between atoms: C_3  and  C_23
    2  A    between atoms: C_3  and  C_24
    3  A    between atoms: C_7  and  C_11
    4  A    between atoms: C_33  and  C_34
                            x       y       z     vdW  Elec       q    Type
                         _______ _______ _______ _____ _____    ______ ____

>  <TORSDO>
F 4

$$$$
=
 OpenBabel11052420223D

 34 39  0  0  1  0  0  0  0  0999 V2000
  193.0520  173.6040  141.4490 C   0  0  0  0  0  0  0  0  0  0  0  0
  191.9960  172.3330  143.8080 C   0  0  0  0  0  0  0  0  0  0  0  0
  189.5460  173.2370  141.4770 C   0  0  2  0  0  0  0  0  0  0  0  0
  194.6900  171.6900  145.7560 C   0  0  0  0  0  2  0  0  0  0  0  0
  195.8230  172.1530  144.9460 C   0  0  0  0  0  2  0  0  0  0  0  0
  190.5970  173.5880  140.3960 C   0  0  0  0  0  2  0  0  0  0  0  0
  191.9670  173.6640  140.9250 C   0  0  0  0  0  0  0  0  0  0  0  0
  194.4380  172.0390  144.2790 C   0  0  0  0  0  0  0  0  0  0  0  0
  189.8760  171.9220  142.2330 C   0  0  0  0  0  2  0  0  0  0  0  0
  191.0240  172.0690  143.1430 C   0  0  0  0  0  0  0  0  0  0  0  0
  188.2390  173.0050  140.7440 C   0  0  0  0  0  1  0  0  0  0  0  0
  193.1570  172.8250  144.5550 C   0  0  1  0  0  3  0  0  0  0  0  0
  194.3130  173.3780  142.1630 C   0  0  0  0  0  2  0  0  0  0  0  0
  194.2160  173.4930  143.7060 C   0  0  2  0  0  0  0  0  0  0  0  0
  194.4170  175.0670  145.8010 C   0  0  0  0  0  2  0  0  0  0  0  0
  195.1200  176.2550  142.2420 C   0  0  0  0  0  2  0  0  0  0  0  0
  192.8760  176.2300  143.4890 C   0  0  0  0  0  2  0  0  0  0  0  0
  192.4020  175.5190  147.2160 C   0  0  0  0  0  3  0  0  0  0  0  0
  190.4020  176.5620  146.3370 C   0  0  0  0  0  3  0  0  0  0  0  0
  191.1060  176.0030  147.4070 C   0  0  0  0  0  3  0  0  0  0  0  0
  192.2960  176.1750  144.8750 C   0  0  0  0  0  0  0  0  0  0  0  0
  193.0030  175.5870  145.9560 C   0  0  0  0  0  0  0  0  0  0  0  0
  190.9950  176.6440  145.0740 C   0  0  0  0  0  3  0  0  0  0  0  0
  196.6350  176.1980  142.4970 C   0  0  1  0  0  3  0  0  0  0  0  0
  196.3680  174.7210  144.2600 C   0  0  0  0  0  2  0  0  0  0  0  0
  196.9750  175.9310  143.8500 O   0  0  0  0  0  0  0  0  0  0  0  0
  194.3860  176.0740  143.5590 C   0  0  1  0  0  3  0  0  0  0  0  0
  194.8280  174.8150  144.3350 C   0  0  1  0  0  0  0  0  0  0  0  0
  197.3260  175.2530  141.5140 C   0  0  0  0  0  2  0  0  0  0  0  0
  197.8550  175.6650  139.2200 O   0  0  0  0  0  1  0  0  0  0  0  0
  196.7980  175.4480  140.1040 C   0  0  0  0  0  2  0  0  0  0  0  0
  189.3300  174.3940  142.4300 C   0  0  0  0  0  0  0  0  0  0  0  0
  188.9160  174.1840  143.6010 O   0  0  0  0  0  1  0  0  0  0  0  0
  189.5270  175.7030  142.0090 O   0  0  0  0  0  0  0  0  0  0  0  0
  1 13  1  0  0  0  0
  3 11  1  6  0  0  0
  3  9  1  0  0  0  0
  3 32  1  0  0  0  0
  5  4  1  0  0  0  0
  6  7  1  0  0  0  0
  6  3  1  0  0  0  0
  7  1  3  0  0  0  0
  8 12  1  0  0  0  0
  8  5  1  0  0  0  0
  8  4  1  0  0  0  0
  9 10  1  0  0  0  0
 10  2  3  0  0  0  0
 12  2  1  6  0  0  0
 14 13  1  6  0  0  0
 14  8  1  0  0  0  0
 14 28  1  0  0  0  0
 14 12  1  0  0  0  0
 15 22  1  0  0  0  0
 16 24  1  0  0  0  0
 17 27  1  0  0  0  0
 17 21  1  0  0  0  0
 18 20  1  0  0  0  0
 19 20  2  0  0  0  0
 21 23  2  0  0  0  0
 21 22  1  0  0  0  0
 22 18  2  0  0  0  0
 23 19  1  0  0  0  0
 24 29  1  6  0  0  0
 24 26  1  0  0  0  0
 26 25  1  0  0  0  0
 27 16  1  6  0  0  0
 27 28  1  0  0  0  0
 28 25  1  6  0  0  0
 28 15  1  0  0  0  0
 30 31  1  0  0  0  0
 31 29  1  0  0  0  0
 32 33  1  0  0  0  0
 34 32  2  0  0  0  0
M  END
>  <MODEL>
4

>  <REMARK>
 VINA RESULT:      -6.8      2.108      3.935
  Name = 
  4 active torsions:
  status: ('A' for Active; 'I' for Inactive)
    1  A    between atoms: C_3  and  C_23
    2  A    between atoms: C_3  and  C_24
    3  A    between atoms: C_7  and  C_11
    4  A    between atoms: C_33  and  C_34
                            x       y       z     vdW  Elec       q    Type
                         _______ _______ _______ _____ _____    ______ ____

>  <TORSDO>
F 4

$$$$
=
 OpenBabel11052420223D

 34 39  0  0  1  0  0  0  0  0999 V2000
  193.2130  175.0890  145.8600 C   0  0  0  0  0  0  0  0  0  0  0  0
  192.0510  176.2530  143.4950 C   0  0  0  0  0  0  0  0  0  0  0  0
  190.1330  176.7210  146.3850 C   0  0  2  0  0  0  0  0  0  0  0  0
  194.2070  175.5180  140.9890 C   0  0  0  0  0  2  0  0  0  0  0  0
  195.2990  174.8090  141.6670 C   0  0  0  0  0  2  0  0  0  0  0  0
  191.2560  176.1890  147.3070 C   0  0  0  0  0  2  0  0  0  0  0  0
  192.3420  175.5230  146.5720 C   0  0  0  0  0  0  0  0  0  0  0  0
  194.2470  175.5370  142.5270 C   0  0  0  0  0  0  0  0  0  0  0  0
  190.6620  177.6750  145.2800 C   0  0  0  0  0  2  0  0  0  0  0  0
  191.4240  176.9640  144.2400 C   0  0  0  0  0  0  0  0  0  0  0  0
  189.2080  177.5390  147.2640 C   0  0  0  0  0  1  0  0  0  0  0  0
  192.7560  175.2480  142.6920 C   0  0  1  0  0  3  0  0  0  0  0  0
  194.2490  174.7100  144.8930 C   0  0  0  0  0  2  0  0  0  0  0  0
  193.7240  174.3860  143.4710 C   0  0  2  0  0  0  0  0  0  0  0  0
  192.8650  172.5270  141.8230 C   0  0  0  0  0  2  0  0  0  0  0  0
  194.0170  171.7680  145.3830 C   0  0  0  0  0  2  0  0  0  0  0  0
  191.6650  172.4210  144.5840 C   0  0  0  0  0  2  0  0  0  0  0  0
  190.5250  172.6320  140.9410 C   0  0  0  0  0  3  0  0  0  0  0  0
  188.5840  172.5700  142.3870 C   0  0  0  0  0  3  0  0  0  0  0  0
  189.1380  172.6420  141.1050 C   0  0  0  0  0  3  0  0  0  0  0  0
  190.8050  172.4590  143.3510 C   0  0  0  0  0  0  0  0  0  0  0  0
  191.3680  172.5540  142.0530 C   0  0  0  0  0  0  0  0  0  0  0  0
  189.4160  172.4830  143.5060 C   0  0  0  0  0  3  0  0  0  0  0  0
  195.3510  171.2130  144.8580 C   0  0  1  0  0  3  0  0  0  0  0  0
  195.1440  172.3710  142.8630 C   0  0  0  0  0  2  0  0  0  0  0  0
  195.4060  171.1070  143.4420 O   0  0  0  0  0  0  0  0  0  0  0  0
  193.0740  171.9890  144.2120 C   0  0  1  0  0  3  0  0  0  0  0  0
  193.6920  172.8470  143.0870 C   0  0  1  0  0  0  0  0  0  0  0  0
  196.5360  171.9810  145.4420 C   0  0  0  0  0  2  0  0  0  0  0  0
  197.9000  170.0190  145.3870 O   0  0  0  0  0  1  0  0  0  0  0  0
  197.8540  171.3620  145.0120 C   0  0  0  0  0  2  0  0  0  0  0  0
  189.3160  175.5860  145.8030 C   0  0  0  0  0  0  0  0  0  0  0  0
  188.5810  175.7830  144.7970 O   0  0  0  0  0  0  0  0  0  0  0  0
  189.3180  174.3330  146.4030 O   0  0  0  0  0  1  0  0  0  0  0  0
  1  7  3  0  0  0  0
  2 10  3  0  0  0  0
  3 11  1  1  0  0  0
  3  6  1  0  0  0  0
  4  5  1  0  0  0  0
  4  8  1  0  0  0  0
  5  8  1  0  0  0  0
  7  6  1  0  0  0  0
  8 12  1  0  0  0  0
  8 14  1  0  0  0  0
  9  3  1  0  0  0  0
 10  9  1  0  0  0  0
 12 14  1  0  0  0  0
 12  2  1  1  0  0  0
 13  1  1  0  0  0  0
 14 13  1  1  0  0  0
 15 22  1  0  0  0  0
 18 20  2  0  0  0  0
 18 22  1  0  0  0  0
 19 23  2  0  0  0  0
 20 19  1  0  0  0  0
 21 23  1  0  0  0  0
 21 17  1  0  0  0  0
 22 21  2  0  0  0  0
 24 16  1  0  0  0  0
 24 29  1  6  0  0  0
 25 28  1  0  0  0  0
 25 26  1  0  0  0  0
 26 24  1  0  0  0  0
 27 17  1  1  0  0  0
 27 16  1  0  0  0  0
 28 15  1  6  0  0  0
 28 14  1  0  0  0  0
 28 27  1  0  0  0  0
 31 30  1  0  0  0  0
 31 29  1  0  0  0  0
 32  3  1  0  0  0  0
 32 34  1  0  0  0  0
 33 32  2  0  0  0  0
M  END
>  <MODEL>
5

>  <REMARK>
 VINA RESULT:      -6.6      2.502      5.736
  Name = 
  4 active torsions:
  status: ('A' for Active; 'I' for Inactive)
    1  A    between atoms: C_3  and  C_23
    2  A    between atoms: C_3  and  C_24
    3  A    between atoms: C_7  and  C_11
    4  A    between atoms: C_33  and  C_34
                            x       y       z     vdW  Elec       q    Type
                         _______ _______ _______ _____ _____    ______ ____

>  <TORSDO>
F 4

$$$$
=
 OpenBabel11052420223D

 34 39  0  0  1  0  0  0  0  0999 V2000
  193.4420  172.1950  145.2820 C   0  0  0  0  0  0  0  0  0  0  0  0
  194.3370  172.0960  142.5450 C   0  0  0  0  0  0  0  0  0  0  0  0
  196.7160  170.9630  144.8490 C   0  0  2  0  0  0  0  0  0  0  0  0
  191.7560  173.3110  140.7190 C   0  0  0  0  0  2  0  0  0  0  0  0
  190.7160  173.5730  141.7200 C   0  0  0  0  0  2  0  0  0  0  0  0
  195.7000  170.9740  146.0170 C   0  0  0  0  0  2  0  0  0  0  0  0
  194.4520  171.6790  145.6920 C   0  0  0  0  0  0  0  0  0  0  0  0
  191.9560  172.7620  142.1420 C   0  0  0  0  0  0  0  0  0  0  0  0
  196.1230  170.3750  143.5400 C   0  0  0  0  0  2  0  0  0  0  0  0
  195.1400  171.2760  142.9140 C   0  0  0  0  0  0  0  0  0  0  0  0
  197.8440  170.0420  145.2700 C   0  0  0  0  0  1  0  0  0  0  0  0
  193.4180  173.1970  142.2380 C   0  0  1  0  0  3  0  0  0  0  0  0
  192.2360  172.7210  144.6330 C   0  0  0  0  0  2  0  0  0  0  0  0
  192.4990  173.5860  143.3740 C   0  0  2  0  0  0  0  0  0  0  0  0
  192.8870  176.0020  142.4130 C   0  0  0  0  0  2  0  0  0  0  0  0
  192.2640  175.3220  146.1170 C   0  0  0  0  0  2  0  0  0  0  0  0
  194.5060  175.3420  144.8660 C   0  0  0  0  0  2  0  0  0  0  0  0
  195.0500  176.5570  141.2820 C   0  0  0  0  0  3  0  0  0  0  0  0
  197.1850  176.4160  142.4140 C   0  0  0  0  0  3  0  0  0  0  0  0
  196.4390  176.7020  141.2670 C   0  0  0  0  0  3  0  0  0  0  0  0
  195.1520  175.8560  143.6090 C   0  0  0  0  0  0  0  0  0  0  0  0
  194.3960  176.1240  142.4390 C   0  0  0  0  0  0  0  0  0  0  0  0
  196.5430  175.9900  143.5800 C   0  0  0  0  0  3  0  0  0  0  0  0
  190.8130  175.8140  145.9880 C   0  0  1  0  0  3  0  0  0  0  0  0
  190.8050  175.4490  143.7010 C   0  0  0  0  0  2  0  0  0  0  0  0
  190.5170  176.3860  144.7210 O   0  0  0  0  0  0  0  0  0  0  0  0
  193.0190  175.6570  144.8420 C   0  0  1  0  0  3  0  0  0  0  0  0
  192.3140  175.1500  143.5660 C   0  0  1  0  0  0  0  0  0  0  0  0
  189.8220  174.7240  146.3930 C   0  0  0  0  0  2  0  0  0  0  0  0
  187.8280  176.0390  146.4870 O   0  0  0  0  0  1  0  0  0  0  0  0
  188.7130  175.2880  147.2630 C   0  0  0  0  0  2  0  0  0  0  0  0
  197.3130  172.3370  144.6280 C   0  0  0  0  0  0  0  0  0  0  0  0
  197.9130  172.6030  143.5520 O   0  0  0  0  0  0  0  0  0  0  0  0
  197.2610  173.3000  145.6280 O   0  0  0  0  0  1  0  0  0  0  0  0
  1  7  3  0  0  0  0
  2 10  3  0  0  0  0
  3 11  1  1  0  0  0
  3  6  1  0  0  0  0
  4  5  1  0  0  0  0
  4  8  1  0  0  0  0
  5  8  1  0  0  0  0
  7  6  1  0  0  0  0
  8 12  1  0  0  0  0
  8 14  1  0  0  0  0
  9  3  1  0  0  0  0
 10  9  1  0  0  0  0
 12  2  1  1  0  0  0
 12 14  1  0  0  0  0
 13  1  1  0  0  0  0
 14 28  1  0  0  0  0
 14 13  1  1  0  0  0
 15 22  1  0  0  0  0
 18 22  1  0  0  0  0
 19 23  2  0  0  0  0
 20 18  2  0  0  0  0
 20 19  1  0  0  0  0
 21 17  1  0  0  0  0
 22 21  2  0  0  0  0
 23 21  1  0  0  0  0
 24 16  1  0  0  0  0
 24 29  1  6  0  0  0
 25 26  1  0  0  0  0
 26 24  1  0  0  0  0
 27 17  1  1  0  0  0
 27 16  1  0  0  0  0
 28 15  1  6  0  0  0
 28 25  1  0  0  0  0
 28 27  1  0  0  0  0
 29 31  1  0  0  0  0
 30 31  1  0  0  0  0
 32  3  1  0  0  0  0
 32 34  1  0  0  0  0
 33 32  2  0  0  0  0
M  END
>  <MODEL>
6

>  <REMARK>
 VINA RESULT:      -6.6      2.595      6.043
  Name = 
  4 active torsions:
  status: ('A' for Active; 'I' for Inactive)
    1  A    between atoms: C_3  and  C_23
    2  A    between atoms: C_3  and  C_24
    3  A    between atoms: C_7  and  C_11
    4  A    between atoms: C_33  and  C_34
                            x       y       z     vdW  Elec       q    Type
                         _______ _______ _______ _____ _____    ______ ____

>  <TORSDO>
F 4

$$$$
=
 OpenBabel11052420223D

 34 39  0  0  1  0  0  0  0  0999 V2000
  192.6720  174.8110  145.7660 C   0  0  0  0  0  0  0  0  0  0  0  0
  193.1520  172.4080  144.2510 C   0  0  0  0  0  0  0  0  0  0  0  0
  196.0610  173.8700  145.5370 C   0  0  2  0  0  0  0  0  0  0  0  0
  190.0990  171.3970  143.1920 C   0  0  0  0  0  2  0  0  0  0  0  0
  189.1830  172.3780  143.7850 C   0  0  0  0  0  2  0  0  0  0  0  0
  195.2640  174.8700  146.4080 C   0  0  0  0  0  2  0  0  0  0  0  0
  193.8340  174.9230  146.0670 C   0  0  0  0  0  0  0  0  0  0  0  0
  190.6480  172.3560  144.2620 C   0  0  0  0  0  0  0  0  0  0  0  0
  195.4730  172.4340  145.5760 C   0  0  0  0  0  2  0  0  0  0  0  0
  194.1980  172.3280  144.8470 C   0  0  0  0  0  0  0  0  0  0  0  0
  197.4510  173.7910  146.1380 C   0  0  0  0  0  1  0  0  0  0  0  0
  191.9270  172.6800  143.4910 C   0  0  1  0  0  3  0  0  0  0  0  0
  191.2860  174.4950  145.4030 C   0  0  0  0  0  2  0  0  0  0  0  0
  191.1110  173.8440  144.0070 C   0  0  2  0  0  0  0  0  0  0  0  0
  190.5430  174.1730  141.4620 C   0  0  0  0  0  2  0  0  0  0  0  0
  191.0180  177.0940  143.8740 C   0  0  0  0  0  2  0  0  0  0  0  0
  192.8040  175.8810  142.4840 C   0  0  0  0  0  2  0  0  0  0  0  0
  192.1270  173.3330  139.7150 C   0  0  0  0  0  3  0  0  0  0  0  0
  194.4100  174.1180  139.5430 C   0  0  0  0  0  3  0  0  0  0  0  0
  193.3700  173.3070  139.0800 C   0  0  0  0  0  3  0  0  0  0  0  0
  192.9630  175.0030  141.2740 C   0  0  0  0  0  0  0  0  0  0  0  0
  191.9140  174.1650  140.8180 C   0  0  0  0  0  0  0  0  0  0  0  0
  194.2080  174.9590  140.6390 C   0  0  0  0  0  3  0  0  0  0  0  0
  189.4980  177.3120  143.9470 C   0  0  1  0  0  3  0  0  0  0  0  0
  189.0700  175.1460  143.2460 C   0  0  0  0  0  2  0  0  0  0  0  0
  188.7640  176.5110  143.0320 O   0  0  0  0  0  0  0  0  0  0  0  0
  191.3270  176.1060  142.7630 C   0  0  1  0  0  3  0  0  0  0  0  0
  190.5270  174.7910  142.8770 C   0  0  1  0  0  0  0  0  0  0  0  0
  188.9900  177.1880  145.3830 C   0  0  0  0  0  2  0  0  0  0  0  0
  186.8420  176.5950  146.2490 O   0  0  0  0  0  1  0  0  0  0  0  0
  187.5170  177.5410  145.4750 C   0  0  0  0  0  2  0  0  0  0  0  0
  196.2120  174.3770  144.1170 C   0  0  0  0  0  0  0  0  0  0  0  0
  196.5220  173.5830  143.1890 O   0  0  0  0  0  0  0  0  0  0  0  0
  196.0700  175.7290  143.8300 O   0  0  0  0  0  1  0  0  0  0  0  0
  1  7  3  0  0  0  0
  2 10  3  0  0  0  0
  3  9  1  0  0  0  0
  3 11  1  1  0  0  0
  3  6  1  0  0  0  0
  4  5  1  0  0  0  0
  4  8  1  0  0  0  0
  5  8  1  0  0  0  0
  7  6  1  0  0  0  0
 10  9  1  0  0  0  0
 12 14  1  0  0  0  0
 12  2  1  1  0  0  0
 12  8  1  0  0  0  0
 13  1  1  0  0  0  0
 14  8  1  0  0  0  0
 14 13  1  1  0  0  0
 16 24  1  0  0  0  0
 18 22  1  0  0  0  0
 19 23  2  0  0  0  0
 20 19  1  0  0  0  0
 20 18  2  0  0  0  0
 21 17  1  0  0  0  0
 22 21  2  0  0  0  0
 22 15  1  0  0  0  0
 23 21  1  0  0  0  0
 24 29  1  1  0  0  0
 26 25  1  0  0  0  0
 26 24  1  0  0  0  0
 27 17  1  1  0  0  0
 27 28  1  0  0  0  0
 27 16  1  0  0  0  0
 28 15  1  6  0  0  0
 28 25  1  0  0  0  0
 28 14  1  0  0  0  0
 29 31  1  0  0  0  0
 31 30  1  0  0  0  0
 32  3  1  0  0  0  0
 33 32  2  0  0  0  0
 34 32  1  0  0  0  0
M  END
>  <MODEL>
7

>  <REMARK>
 VINA RESULT:      -6.6      2.234      5.813
  Name = 
  4 active torsions:
  status: ('A' for Active; 'I' for Inactive)
    1  A    between atoms: C_3  and  C_23
    2  A    between atoms: C_3  and  C_24
    3  A    between atoms: C_7  and  C_11
    4  A    between atoms: C_33  and  C_34
                            x       y       z     vdW  Elec       q    Type
                         _______ _______ _______ _____ _____    ______ ____

>  <TORSDO>
F 4

$$$$
=
 OpenBabel11052420223D

 34 39  0  0  1  0  0  0  0  0999 V2000
  190.3870  175.8300  142.7680 C   0  0  0  0  0  0  0  0  0  0  0  0
  192.5830  174.3130  141.6830 C   0  0  0  0  0  0  0  0  0  0  0  0
  189.4480  173.2990  140.5020 C   0  0  2  0  0  0  0  0  0  0  0  0
  195.3600  175.6070  143.1260 C   0  0  0  0  0  2  0  0  0  0  0  0
  194.8420  176.7030  143.9540 C   0  0  0  0  0  2  0  0  0  0  0  0
  188.7320  174.5160  141.1350 C   0  0  0  0  0  2  0  0  0  0  0  0
  189.5760  175.2540  142.0870 C   0  0  0  0  0  0  0  0  0  0  0  0
  193.8960  176.0400  142.9330 C   0  0  0  0  0  0  0  0  0  0  0  0
  190.7850  173.6780  139.8110 C   0  0  0  0  0  2  0  0  0  0  0  0
  191.8410  174.0230  140.7780 C   0  0  0  0  0  0  0  0  0  0  0  0
  188.5270  172.7760  139.4170 C   0  0  0  0  0  1  0  0  0  0  0  0
  193.3500  174.6140  142.8970 C   0  0  1  0  0  3  0  0  0  0  0  0
  191.4900  176.5080  143.4580 C   0  0  0  0  0  2  0  0  0  0  0  0
  192.6820  175.5930  143.8370 C   0  0  2  0  0  0  0  0  0  0  0  0
  194.1260  174.5410  145.7650 C   0  0  0  0  0  2  0  0  0  0  0  0
  190.3270  174.8610  145.9610 C   0  0  0  0  0  2  0  0  0  0  0  0
  191.7060  172.9310  144.9770 C   0  0  0  0  0  2  0  0  0  0  0  0
  195.4880  172.4880  145.3210 C   0  0  0  0  0  3  0  0  0  0  0  0
  194.4950  170.3970  144.6120 C   0  0  0  0  0  3  0  0  0  0  0  0
  195.6240  171.1470  144.9560 C   0  0  0  0  0  3  0  0  0  0  0  0
  193.0800  172.3220  145.0160 C   0  0  0  0  0  0  0  0  0  0  0  0
  194.2260  173.0900  145.3430 C   0  0  0  0  0  0  0  0  0  0  0  0
  193.2280  170.9850  144.6380 C   0  0  0  0  0  3  0  0  0  0  0  0
  190.4530  176.0630  146.9100 C   0  0  1  0  0  3  0  0  0  0  0  0
  192.6170  176.4970  146.2080 C   0  0  0  0  0  2  0  0  0  0  0  0
  191.7850  176.3140  147.3370 O   0  0  0  0  0  0  0  0  0  0  0  0
  191.6910  174.2130  145.7930 C   0  0  1  0  0  3  0  0  0  0  0  0
  192.7910  175.2100  145.3730 C   0  0  1  0  0  0  0  0  0  0  0  0
  189.7750  177.3020  146.3270 C   0  0  0  0  0  2  0  0  0  0  0  0
  188.1260  177.8260  144.6770 O   0  0  0  0  0  1  0  0  0  0  0  0
  188.4250  176.9540  145.7250 C   0  0  0  0  0  2  0  0  0  0  0  0
  189.6340  172.1850  141.5110 C   0  0  0  0  0  0  0  0  0  0  0  0
  190.3610  171.1930  141.2360 O   0  0  0  0  0  0  0  0  0  0  0  0
  188.9600  172.2110  142.7270 O   0  0  0  0  0  1  0  0  0  0  0  0
  1 13  1  0  0  0  0
  3 11  1  6  0  0  0
  3  6  1  0  0  0  0
  3 32  1  0  0  0  0
  4  5  1  0  0  0  0
  6  7  1  0  0  0  0
  7  1  3  0  0  0  0
  8  4  1  0  0  0  0
  8 14  1  0  0  0  0
  8  5  1  0  0  0  0
  9  3  1  0  0  0  0
  9 10  1  0  0  0  0
 10  2  3  0  0  0  0
 12  2  1  6  0  0  0
 12  8  1  0  0  0  0
 12 14  1  0  0  0  0
 14 13  1  6  0  0  0
 14 28  1  0  0  0  0
 16 24  1  0  0  0  0
 17 21  1  0  0  0  0
 18 22  1  0  0  0  0
 19 23  2  0  0  0  0
 19 20  1  0  0  0  0
 20 18  2  0  0  0  0
 21 22  2  0  0  0  0
 22 15  1  0  0  0  0
 23 21  1  0  0  0  0
 24 29  1  6  0  0  0
 24 26  1  0  0  0  0
 25 26  1  0  0  0  0
 27 17  1  6  0  0  0
 27 16  1  0  0  0  0
 28 15  1  1  0  0  0
 28 27  1  0  0  0  0
 28 25  1  0  0  0  0
 30 31  1  0  0  0  0
 31 29  1  0  0  0  0
 32 34  1  0  0  0  0
 33 32  2  0  0  0  0
M  END
>  <MODEL>
8

>  <REMARK>
 VINA RESULT:      -6.6      2.073      5.490
  Name = 
  4 active torsions:
  status: ('A' for Active; 'I' for Inactive)
    1  A    between atoms: C_3  and  C_23
    2  A    between atoms: C_3  and  C_24
    3  A    between atoms: C_7  and  C_11
    4  A    between atoms: C_33  and  C_34
                            x       y       z     vdW  Elec       q    Type
                         _______ _______ _______ _____ _____    ______ ____

>  <TORSDO>
F 4

$$$$
=
 OpenBabel11052420223D

 34 39  0  0  1  0  0  0  0  0999 V2000
  189.4610  173.3960  143.9620 C   0  0  0  0  0  0  0  0  0  0  0  0
  190.8740  174.9790  142.0130 C   0  0  0  0  0  0  0  0  0  0  0  0
  192.1610  171.7480  142.4070 C   0  0  2  0  0  0  0  0  0  0  0  0
  189.3180  177.9870  142.0120 C   0  0  0  0  0  2  0  0  0  0  0  0
  188.2220  177.8120  142.9710 C   0  0  0  0  0  2  0  0  0  0  0  0
  190.9670  171.2980  143.2820 C   0  0  0  0  0  2  0  0  0  0  0  0
  190.1260  172.4160  143.7340 C   0  0  0  0  0  0  0  0  0  0  0  0
  188.9980  176.5650  142.5040 C   0  0  0  0  0  0  0  0  0  0  0  0
  191.7240  172.5880  141.1770 C   0  0  0  0  0  2  0  0  0  0  0  0
  191.2590  173.9340  141.5500 C   0  0  0  0  0  0  0  0  0  0  0  0
  192.8000  170.4830  141.8690 C   0  0  0  0  0  1  0  0  0  0  0  0
  190.4590  176.1850  142.7380 C   0  0  1  0  0  3  0  0  0  0  0  0
  188.6740  174.6300  144.0640 C   0  0  0  0  0  2  0  0  0  0  0  0
  189.4840  175.9370  143.8680 C   0  0  2  0  0  0  0  0  0  0  0  0
  191.1170  177.5370  145.1640 C   0  0  0  0  0  2  0  0  0  0  0  0
  188.4930  175.3910  146.9190 C   0  0  0  0  0  2  0  0  0  0  0  0
  190.9040  174.7570  146.3030 C   0  0  0  0  0  2  0  0  0  0  0  0
  193.5890  177.1640  145.0330 C   0  0  0  0  0  3  0  0  0  0  0  0
  194.6370  175.1140  145.7800 C   0  0  0  0  0  3  0  0  0  0  0  0
  194.7380  176.3960  145.2310 C   0  0  0  0  0  3  0  0  0  0  0  0
  192.2330  175.3680  145.9570 C   0  0  0  0  0  0  0  0  0  0  0  0
  192.3320  176.6590  145.3790 C   0  0  0  0  0  0  0  0  0  0  0  0
  193.3880  174.6010  146.1380 C   0  0  0  0  0  3  0  0  0  0  0  0
  187.5890  176.6180  147.1200 C   0  0  1  0  0  3  0  0  0  0  0  0
  188.6290  177.7700  145.4010 C   0  0  0  0  0  2  0  0  0  0  0  0
  188.2030  177.8440  146.7480 O   0  0  0  0  0  0  0  0  0  0  0  0
  189.8560  175.8500  146.4300 C   0  0  1  0  0  3  0  0  0  0  0  0
  189.7810  176.7640  145.1880 C   0  0  1  0  0  0  0  0  0  0  0  0
  186.2250  176.4140  146.4610 C   0  0  0  0  0  2  0  0  0  0  0  0
  184.7180  178.1360  145.7700 O   0  0  0  0  0  1  0  0  0  0  0  0
  185.2440  177.4900  146.8900 C   0  0  0  0  0  2  0  0  0  0  0  0
  193.2080  172.4660  143.2340 C   0  0  0  0  0  0  0  0  0  0  0  0
  193.8580  173.4270  142.7400 O   0  0  0  0  0  0  0  0  0  0  0  0
  193.5080  172.0390  144.5220 O   0  0  0  0  0  1  0  0  0  0  0  0
  1 13  1  0  0  0  0
  3 11  1  6  0  0  0
  3 32  1  0  0  0  0
  3  6  1  0  0  0  0
  4  8  1  0  0  0  0
  4  5  1  0  0  0  0
  6  7  1  0  0  0  0
  7  1  3  0  0  0  0
  8 12  1  0  0  0  0
  8  5  1  0  0  0  0
  8 14  1  0  0  0  0
  9 10  1  0  0  0  0
  9  3  1  0  0  0  0
 10  2  3  0  0  0  0
 12  2  1  6  0  0  0
 12 14  1  0  0  0  0
 14 13  1  1  0  0  0
 14 28  1  0  0  0  0
 15 22  1  0  0  0  0
 16 24  1  0  0  0  0
 18 20  2  0  0  0  0
 18 22  1  0  0  0  0
 19 23  2  0  0  0  0
 20 19  1  0  0  0  0
 21 23  1  0  0  0  0
 21 17  1  0  0  0  0
 22 21  2  0  0  0  0
 24 29  1  6  0  0  0
 25 26  1  0  0  0  0
 26 24  1  0  0  0  0
 27 17  1  6  0  0  0
 27 16  1  0  0  0  0
 28 15  1  6  0  0  0
 28 25  1  0  0  0  0
 28 27  1  0  0  0  0
 29 31  1  0  0  0  0
 30 31  1  0  0  0  0
 32 34  1  0  0  0  0
 33 32  2  0  0  0  0
M  END
>  <MODEL>
9

>  <REMARK>
 VINA RESULT:      -6.3      2.433      5.452
  Name = 
  4 active torsions:
  status: ('A' for Active; 'I' for Inactive)
    1  A    between atoms: C_3  and  C_23
    2  A    between atoms: C_3  and  C_24
    3  A    between atoms: C_7  and  C_11
    4  A    between atoms: C_33  and  C_34
                            x       y       z     vdW  Elec       q    Type
                         _______ _______ _______ _____ _____    ______ ____

>  <TORSDO>
F 4

$$$$
