=
 OpenBabel11052417233D

 30 32  0  0  1  0  0  0  0  0999 V2000
  188.3600  176.4330  142.8550 C   0  0  2  0  0  3  0  0  0  0  0  0
  189.4620  177.3930  143.2930 C   0  0  2  0  0  3  0  0  0  0  0  0
  190.2840  176.7320  144.3170 N   0  0  0  0  0  0  0  0  0  0  0  0
  189.3150  177.7680  144.6950 C   0  0  0  0  0  2  0  0  0  0  0  0
  191.5960  177.3570  144.2650 C   0  0  0  0  0  2  0  0  0  0  0  0
  194.8590  177.5710  145.5540 O   0  0  0  0  0  0  0  0  0  0  0  0
  192.5610  176.5830  145.1020 C   0  0  0  0  0  0  0  0  0  0  0  0
  193.7390  177.0900  145.3330 C   0  0  0  0  0  0  0  0  0  0  0  0
  192.2040  175.3320  145.6970 N   0  0  0  0  0  2  0  0  0  0  0  0
  192.0790  175.1540  147.1320 C   0  0  0  0  0  2  0  0  0  0  0  0
  190.7730  175.7560  147.6130 C   0  0  0  0  0  2  0  0  0  0  0  0
  189.6350  174.8450  147.2010 C   0  0  0  0  0  1  0  0  0  0  0  0
  187.8400  175.8280  140.5530 O   0  0  0  0  0  1  0  0  0  0  0  0
  188.7970  175.7080  141.5700 C   0  0  2  0  0  3  0  0  0  0  0  0
  191.6620  174.6270  142.0560 O   0  0  0  0  0  0  0  0  0  0  0  0
  191.2420  172.7440  143.4490 C   0  0  0  0  0  2  0  0  0  0  0  0
  188.3900  173.4230  141.0460 O   0  0  0  0  0  1  0  0  0  0  0  0
  189.2470  171.5340  142.8910 O   0  0  0  0  0  1  0  0  0  0  0  0
  191.6440  173.2130  142.0430 C   0  0  1  0  0  3  0  0  0  0  0  0
  189.7460  172.6020  143.6460 C   0  0  2  0  0  3  0  0  0  0  0  0
  190.6850  174.0360  141.2340 C   0  0  1  0  0  3  0  0  0  0  0  0
  189.2480  174.2510  141.7780 C   0  0  1  0  0  0  0  0  0  0  0  0
  189.0690  173.9090  143.2620 C   0  0  0  0  0  2  0  0  0  0  0  0
  186.9460  178.6020  142.7510 C   0  0  0  0  0  1  0  0  0  0  0  0
  186.9650  177.0800  142.7150 C   0  0  2  0  0  3  0  0  0  0  0  0
  185.9140  176.4630  143.6350 C   0  0  0  0  0  2  0  0  0  0  0  0
  185.7550  177.2170  144.9170 C   0  0  0  0  0  3  0  0  0  0  0  0
  186.2430  176.7180  146.0510 C   0  0  0  0  0  3  0  0  0  0  0  0
  186.1230  177.4720  147.3380 C   0  0  0  0  0  2  0  0  0  0  0  0
  185.4980  178.8300  147.0890 C   0  0  0  0  0  1  0  0  0  0  0  0
  1 14  1  6  0  0  0
  2  1  1  1  0  0  0
  2  3  1  0  0  0  0
  2  4  1  0  0  0  0
  3  4  1  0  0  0  0
  5  3  1  0  0  0  0
  5  7  1  0  0  0  0
  7  8  2  0  0  0  0
  7  9  1  0  0  0  0
  8  6  2  0  0  0  0
  9 10  1  0  0  0  0
 10 11  1  0  0  0  0
 12 11  1  0  0  0  0
 14 13  1  6  0  0  0
 14 22  1  0  0  0  0
 16 20  1  0  0  0  0
 19 15  1  0  0  0  0
 19 16  1  1  0  0  0
 20 18  1  6  0  0  0
 21 22  1  0  0  0  0
 21 19  1  0  0  0  0
 21 15  1  1  0  0  0
 22 17  1  6  0  0  0
 22 23  1  0  0  0  0
 23 20  1  0  0  0  0
 25 24  1  1  0  0  0
 25  1  1  0  0  0  0
 25 26  1  0  0  0  0
 26 27  1  0  0  0  0
 27 28  2  0  0  0  0
 28 29  1  0  0  0  0
 30 29  1  0  0  0  0
M  END
>  <MODEL>
1

>  <REMARK>
 VINA RESULT:      -5.8      0.000      0.000
  Name = 
  12 active torsions:
  status: ('A' for Active; 'I' for Inactive)
    1  A    between atoms: C_4  and  C_19
    2  A    between atoms: N_6  and  CA_8
    3  A    between atoms: N_6  and  C_21
    4  A    between atoms: C_7  and  C_26
    5  A    between atoms: CA_8  and  C_30
    6  A    between atoms: C_9  and  C_21
    7  A    between atoms: C_10  and  C_15
    8  A    between atoms: C_10  and  C_25
    9  A    between atoms: N_13  and  C_30
   10  A    between atoms: C_19  and  C_24
   11  A    between atoms: C_19  and  C_25
   12  A    between atoms: C_24  and  C_28
                            x       y       z     vdW  Elec       q    Type
                         _______ _______ _______ _____ _____    ______ ____

>  <TORSDO>
F 12

$$$$
=
 OpenBabel11052417233D

 30 32  0  0  1  0  0  0  0  0999 V2000
  190.0450  174.7160  142.8750 C   0  0  2  0  0  3  0  0  0  0  0  0
  189.0350  175.2330  141.8540 C   0  0  2  0  0  3  0  0  0  0  0  0
  187.8430  175.7080  142.5700 N   0  0  0  0  0  0  0  0  0  0  0  0
  187.8200  174.4280  141.8530 C   0  0  0  0  0  2  0  0  0  0  0  0
  187.2120  176.7010  141.7140 C   0  0  0  0  0  2  0  0  0  0  0  0
  184.2860  178.4810  140.9250 O   0  0  0  0  0  0  0  0  0  0  0  0
  185.9490  177.1880  142.3460 C   0  0  0  0  0  0  0  0  0  0  0  0
  185.0970  177.8510  141.6180 C   0  0  0  0  0  0  0  0  0  0  0  0
  185.6310  176.8960  143.7100 N   0  0  0  0  0  2  0  0  0  0  0  0
  185.1580  177.9070  144.6390 C   0  0  0  0  0  2  0  0  0  0  0  0
  184.9450  177.2910  146.0070 C   0  0  0  0  0  2  0  0  0  0  0  0
  184.9480  178.3940  147.0450 C   0  0  0  0  0  1  0  0  0  0  0  0
  192.0850  176.0080  143.1960 O   0  0  0  0  0  1  0  0  0  0  0  0
  190.7350  175.9090  143.5590 C   0  0  2  0  0  3  0  0  0  0  0  0
  188.5800  177.4690  145.1520 O   0  0  0  0  0  0  0  0  0  0  0  0
  188.2510  176.0550  147.0380 C   0  0  0  0  0  2  0  0  0  0  0  0
  191.7890  175.8590  145.6910 O   0  0  0  0  0  1  0  0  0  0  0  0
  190.2520  175.0010  147.8380 O   0  0  0  0  0  1  0  0  0  0  0  0
  188.8540  177.3760  146.5370 C   0  0  1  0  0  3  0  0  0  0  0  0
  189.1910  174.8700  146.9350 C   0  0  2  0  0  3  0  0  0  0  0  0
  189.9390  177.3480  145.5000 C   0  0  1  0  0  3  0  0  0  0  0  0
  190.5350  175.9780  145.0830 C   0  0  1  0  0  0  0  0  0  0  0  0
  189.6990  174.7630  145.5040 C   0  0  0  0  0  2  0  0  0  0  0  0
  191.1460  173.6340  140.7930 C   0  0  0  0  0  1  0  0  0  0  0  0
  191.0600  173.6980  142.3120 C   0  0  2  0  0  3  0  0  0  0  0  0
  190.9490  172.3140  142.9470 C   0  0  0  0  0  2  0  0  0  0  0  0
  191.8040  172.1690  144.1670 C   0  0  0  0  0  3  0  0  0  0  0  0
  192.9810  172.7890  144.2360 C   0  0  0  0  0  3  0  0  0  0  0  0
  193.8350  172.6830  145.4600 C   0  0  0  0  0  2  0  0  0  0  0  0
  194.8280  173.8280  145.5010 C   0  0  0  0  0  1  0  0  0  0  0  0
  1 25  1  6  0  0  0
  1 14  1  0  0  0  0
  2  3  1  0  0  0  0
  2  1  1  1  0  0  0
  4  2  1  0  0  0  0
  4  3  1  0  0  0  0
  5  7  1  0  0  0  0
  5  3  1  0  0  0  0
  6  8  2  0  0  0  0
  7  9  1  0  0  0  0
  8  7  2  0  0  0  0
  9 10  1  0  0  0  0
 10 11  1  0  0  0  0
 11 12  1  0  0  0  0
 14 13  1  1  0  0  0
 14 22  1  0  0  0  0
 15 19  1  0  0  0  0
 19 16  1  6  0  0  0
 20 16  1  0  0  0  0
 20 18  1  1  0  0  0
 21 15  1  6  0  0  0
 21 19  1  0  0  0  0
 22 21  1  0  0  0  0
 22 23  1  0  0  0  0
 22 17  1  1  0  0  0
 23 20  1  0  0  0  0
 25 24  1  6  0  0  0
 25 26  1  0  0  0  0
 26 27  1  0  0  0  0
 27 28  2  0  0  0  0
 28 29  1  0  0  0  0
 29 30  1  0  0  0  0
M  END
>  <MODEL>
2

>  <REMARK>
 VINA RESULT:      -5.7      2.503      6.473
  Name = 
  12 active torsions:
  status: ('A' for Active; 'I' for Inactive)
    1  A    between atoms: C_4  and  C_19
    2  A    between atoms: N_6  and  CA_8
    3  A    between atoms: N_6  and  C_21
    4  A    between atoms: C_7  and  C_26
    5  A    between atoms: CA_8  and  C_30
    6  A    between atoms: C_9  and  C_21
    7  A    between atoms: C_10  and  C_15
    8  A    between atoms: C_10  and  C_25
    9  A    between atoms: N_13  and  C_30
   10  A    between atoms: C_19  and  C_24
   11  A    between atoms: C_19  and  C_25
   12  A    between atoms: C_24  and  C_28
                            x       y       z     vdW  Elec       q    Type
                         _______ _______ _______ _____ _____    ______ ____

>  <TORSDO>
F 12

$$$$
=
 OpenBabel11052417233D

 30 32  0  0  1  0  0  0  0  0999 V2000
  189.5400  175.8060  144.3100 C   0  0  2  0  0  3  0  0  0  0  0  0
  188.1400  176.4070  144.2330 C   0  0  2  0  0  3  0  0  0  0  0  0
  187.7640  176.5450  142.8190 N   0  0  0  0  0  0  0  0  0  0  0  0
  188.1590  177.7220  143.6020 C   0  0  0  0  0  2  0  0  0  0  0  0
  186.3100  176.5190  142.7710 C   0  0  0  0  0  2  0  0  0  0  0  0
  186.6060  177.4350  139.3900 O   0  0  0  0  0  0  0  0  0  0  0  0
  185.8160  177.5450  141.8040 C   0  0  0  0  0  0  0  0  0  0  0  0
  186.2210  177.4880  140.5670 C   0  0  0  0  0  0  0  0  0  0  0  0
  184.8700  178.5470  142.1890 N   0  0  0  0  0  2  0  0  0  0  0  0
  184.3480  178.6550  143.5390 C   0  0  0  0  0  2  0  0  0  0  0  0
  185.1280  179.7010  144.3100 C   0  0  0  0  0  2  0  0  0  0  0  0
  185.4910  179.1370  145.6680 C   0  0  0  0  0  1  0  0  0  0  0  0
  189.8720  173.8240  145.6870 O   0  0  0  0  0  1  0  0  0  0  0  0
  189.4310  174.2760  144.4360 C   0  0  2  0  0  3  0  0  0  0  0  0
  188.1340  173.4020  141.7590 O   0  0  0  0  0  0  0  0  0  0  0  0
  189.9880  173.4860  140.2690 C   0  0  0  0  0  2  0  0  0  0  0  0
  191.0240  172.6230  143.8120 O   0  0  0  0  0  1  0  0  0  0  0  0
  192.0640  172.7780  141.2420 O   0  0  0  0  0  1  0  0  0  0  0  0
  189.0300  172.5710  141.0460 C   0  0  1  0  0  3  0  0  0  0  0  0
  191.2270  173.8840  141.0470 C   0  0  2  0  0  3  0  0  0  0  0  0
  189.0060  172.6270  142.5460 C   0  0  1  0  0  3  0  0  0  0  0  0
  190.0680  173.4910  143.2750 C   0  0  1  0  0  0  0  0  0  0  0  0
  190.8040  174.4920  142.3760 C   0  0  0  0  0  2  0  0  0  0  0  0
  189.7060  177.1430  146.5240 C   0  0  0  0  0  1  0  0  0  0  0  0
  190.4410  176.4200  145.4040 C   0  0  2  0  0  3  0  0  0  0  0  0
  191.6020  177.2390  144.8450 C   0  0  0  0  0  2  0  0  0  0  0  0
  192.9120  176.5240  144.9420 C   0  0  0  0  0  3  0  0  0  0  0  0
  193.0180  175.4200  145.6810 C   0  0  0  0  0  3  0  0  0  0  0  0
  194.3110  174.6710  145.7650 C   0  0  0  0  0  2  0  0  0  0  0  0
  194.0830  173.2040  145.4620 C   0  0  0  0  0  1  0  0  0  0  0  0
  1 14  1  1  0  0  0
  1 25  1  0  0  0  0
  2  1  1  6  0  0  0
  3  4  1  0  0  0  0
  3  2  1  0  0  0  0
  4  2  1  0  0  0  0
  5  3  1  0  0  0  0
  6  8  2  0  0  0  0
  7  9  1  0  0  0  0
  7  5  1  0  0  0  0
  8  7  2  0  0  0  0
  9 10  1  0  0  0  0
 10 11  1  0  0  0  0
 11 12  1  0  0  0  0
 14 13  1  1  0  0  0
 16 20  1  0  0  0  0
 19 16  1  6  0  0  0
 19 15  1  0  0  0  0
 19 21  1  0  0  0  0
 20 18  1  1  0  0  0
 20 23  1  0  0  0  0
 21 15  1  6  0  0  0
 21 22  1  0  0  0  0
 22 17  1  1  0  0  0
 22 14  1  0  0  0  0
 23 22  1  0  0  0  0
 25 24  1  1  0  0  0
 26 27  1  0  0  0  0
 26 25  1  0  0  0  0
 27 28  2  0  0  0  0
 28 29  1  0  0  0  0
 30 29  1  0  0  0  0
M  END
>  <MODEL>
3

>  <REMARK>
 VINA RESULT:      -5.6      2.253      5.901
  Name = 
  12 active torsions:
  status: ('A' for Active; 'I' for Inactive)
    1  A    between atoms: C_4  and  C_19
    2  A    between atoms: N_6  and  CA_8
    3  A    between atoms: N_6  and  C_21
    4  A    between atoms: C_7  and  C_26
    5  A    between atoms: CA_8  and  C_30
    6  A    between atoms: C_9  and  C_21
    7  A    between atoms: C_10  and  C_15
    8  A    between atoms: C_10  and  C_25
    9  A    between atoms: N_13  and  C_30
   10  A    between atoms: C_19  and  C_24
   11  A    between atoms: C_19  and  C_25
   12  A    between atoms: C_24  and  C_28
                            x       y       z     vdW  Elec       q    Type
                         _______ _______ _______ _____ _____    ______ ____

>  <TORSDO>
F 12

$$$$
=
 OpenBabel11052417233D

 30 32  0  0  1  0  0  0  0  0999 V2000
  189.0250  175.3510  143.2600 C   0  0  2  0  0  3  0  0  0  0  0  0
  188.0890  176.2700  142.4800 C   0  0  2  0  0  3  0  0  0  0  0  0
  187.0760  176.8030  143.4020 N   0  0  0  0  0  0  0  0  0  0  0  0
  186.7300  175.7430  142.4480 C   0  0  0  0  0  2  0  0  0  0  0  0
  186.6220  178.0640  142.8380 C   0  0  0  0  0  2  0  0  0  0  0  0
  183.1660  178.2840  142.2390 O   0  0  0  0  0  0  0  0  0  0  0  0
  185.3580  178.4950  143.5070 C   0  0  0  0  0  0  0  0  0  0  0  0
  184.2350  178.3870  142.8570 C   0  0  0  0  0  0  0  0  0  0  0  0
  185.3470  178.9690  144.8570 N   0  0  0  0  0  2  0  0  0  0  0  0
  184.2150  178.7770  145.7460 C   0  0  0  0  0  2  0  0  0  0  0  0
  184.7030  178.3600  147.1190 C   0  0  0  0  0  2  0  0  0  0  0  0
  186.0540  177.6910  146.9730 C   0  0  0  0  0  1  0  0  0  0  0  0
  191.4280  175.6590  143.5150 O   0  0  0  0  0  1  0  0  0  0  0  0
  190.1730  176.1820  143.8580 C   0  0  2  0  0  3  0  0  0  0  0  0
  189.6910  174.1500  146.1490 O   0  0  0  0  0  0  0  0  0  0  0  0
  190.8790  175.1550  147.9490 C   0  0  0  0  0  2  0  0  0  0  0  0
  189.4810  177.7210  145.5350 O   0  0  0  0  0  1  0  0  0  0  0  0
  190.7420  177.5490  148.0030 O   0  0  0  0  0  1  0  0  0  0  0  0
  189.4920  174.8440  147.3650 C   0  0  1  0  0  3  0  0  0  0  0  0
  191.4650  176.4710  147.4790 C   0  0  2  0  0  3  0  0  0  0  0  0
  189.1020  175.4230  146.0370 C   0  0  1  0  0  3  0  0  0  0  0  0
  190.0490  176.4540  145.3670 C   0  0  1  0  0  0  0  0  0  0  0  0
  191.4640  176.4980  145.9570 C   0  0  0  0  0  2  0  0  0  0  0  0
  189.4950  174.2820  140.9460 C   0  0  0  0  0  1  0  0  0  0  0  0
  189.5380  174.1340  142.4610 C   0  0  2  0  0  3  0  0  0  0  0  0
  188.9510  172.8060  142.9330 C   0  0  0  0  0  2  0  0  0  0  0  0
  190.0030  171.8130  143.3150 C   0  0  0  0  0  3  0  0  0  0  0  0
  191.2120  172.2310  143.6880 C   0  0  0  0  0  3  0  0  0  0  0  0
  192.2680  171.2560  144.1050 C   0  0  0  0  0  2  0  0  0  0  0  0
  193.3790  171.9760  144.8420 C   0  0  0  0  0  1  0  0  0  0  0  0
  1 25  1  6  0  0  0
  1 14  1  0  0  0  0
  2  1  1  1  0  0  0
  2  3  1  0  0  0  0
  4  2  1  0  0  0  0
  4  3  1  0  0  0  0
  5  3  1  0  0  0  0
  5  7  1  0  0  0  0
  6  8  2  0  0  0  0
  7  9  1  0  0  0  0
  8  7  2  0  0  0  0
  9 10  1  0  0  0  0
 10 11  1  0  0  0  0
 12 11  1  0  0  0  0
 14 13  1  1  0  0  0
 14 22  1  0  0  0  0
 15 19  1  0  0  0  0
 19 16  1  6  0  0  0
 20 16  1  0  0  0  0
 20 18  1  1  0  0  0
 21 15  1  6  0  0  0
 21 19  1  0  0  0  0
 22 17  1  1  0  0  0
 22 23  1  0  0  0  0
 22 21  1  0  0  0  0
 23 20  1  0  0  0  0
 25 24  1  6  0  0  0
 25 26  1  0  0  0  0
 26 27  1  0  0  0  0
 27 28  2  0  0  0  0
 28 29  1  0  0  0  0
 29 30  1  0  0  0  0
M  END
>  <MODEL>
4

>  <REMARK>
 VINA RESULT:      -5.6      2.488      6.453
  Name = 
  12 active torsions:
  status: ('A' for Active; 'I' for Inactive)
    1  A    between atoms: C_4  and  C_19
    2  A    between atoms: N_6  and  CA_8
    3  A    between atoms: N_6  and  C_21
    4  A    between atoms: C_7  and  C_26
    5  A    between atoms: CA_8  and  C_30
    6  A    between atoms: C_9  and  C_21
    7  A    between atoms: C_10  and  C_15
    8  A    between atoms: C_10  and  C_25
    9  A    between atoms: N_13  and  C_30
   10  A    between atoms: C_19  and  C_24
   11  A    between atoms: C_19  and  C_25
   12  A    between atoms: C_24  and  C_28
                            x       y       z     vdW  Elec       q    Type
                         _______ _______ _______ _____ _____    ______ ____

>  <TORSDO>
F 12

$$$$
=
 OpenBabel11052417233D

 30 32  0  0  1  0  0  0  0  0999 V2000
  189.1660  175.6720  144.8260 C   0  0  2  0  0  3  0  0  0  0  0  0
  190.2770  174.6260  144.7900 C   0  0  2  0  0  3  0  0  0  0  0  0
  189.8600  173.5260  143.9090 N   0  0  0  0  0  0  0  0  0  0  0  0
  189.8370  173.3610  145.3670 C   0  0  0  0  0  2  0  0  0  0  0  0
  191.0780  172.9020  143.4170 C   0  0  0  0  0  2  0  0  0  0  0  0
  190.2650  171.6240  140.2450 O   0  0  0  0  0  0  0  0  0  0  0  0
  191.2560  173.2100  141.9660 C   0  0  0  0  0  0  0  0  0  0  0  0
  190.7480  172.3970  141.0840 C   0  0  0  0  0  0  0  0  0  0  0  0
  191.9180  174.4000  141.5260 N   0  0  0  0  0  2  0  0  0  0  0  0
  193.1060  174.9220  142.1760 C   0  0  0  0  0  2  0  0  0  0  0  0
  192.8700  176.3570  142.6040 C   0  0  0  0  0  2  0  0  0  0  0  0
  193.1400  176.4730  144.0900 C   0  0  0  0  0  1  0  0  0  0  0  0
  189.5430  177.9530  144.0610 O   0  0  0  0  0  1  0  0  0  0  0  0
  189.3330  176.6330  143.6370 C   0  0  2  0  0  3  0  0  0  0  0  0
  186.3360  177.3880  143.8940 O   0  0  0  0  0  0  0  0  0  0  0  0
  185.8260  178.1130  141.6850 C   0  0  0  0  0  2  0  0  0  0  0  0
  188.5210  175.4490  141.7400 O   0  0  0  0  0  1  0  0  0  0  0  0
  186.9240  176.8580  139.9600 O   0  0  0  0  0  1  0  0  0  0  0  0
  185.6460  176.9950  142.7230 C   0  0  1  0  0  3  0  0  0  0  0  0
  187.0590  177.9560  140.8190 C   0  0  2  0  0  3  0  0  0  0  0  0
  186.8490  176.2560  143.2320 C   0  0  1  0  0  3  0  0  0  0  0  0
  188.2260  176.5330  142.5720 C   0  0  1  0  0  0  0  0  0  0  0  0
  188.2790  177.8030  141.7150 C   0  0  0  0  0  2  0  0  0  0  0  0
  190.3380  176.6170  146.9370 C   0  0  0  0  0  1  0  0  0  0  0  0
  189.0360  176.4200  146.1710 C   0  0  2  0  0  3  0  0  0  0  0  0
  187.9140  175.8860  147.0580 C   0  0  0  0  0  2  0  0  0  0  0  0
  186.7120  176.7760  147.0640 C   0  0  0  0  0  3  0  0  0  0  0  0
  186.8440  178.0780  147.3170 C   0  0  0  0  0  3  0  0  0  0  0  0
  185.6590  178.9900  147.2960 C   0  0  0  0  0  2  0  0  0  0  0  0
  184.4610  178.2730  146.7080 C   0  0  0  0  0  1  0  0  0  0  0  0
  1 14  1  6  0  0  0
  1 25  1  0  0  0  0
  2  1  1  1  0  0  0
  2  4  1  0  0  0  0
  3  2  1  0  0  0  0
  3  4  1  0  0  0  0
  5  3  1  0  0  0  0
  6  8  2  0  0  0  0
  7  5  1  0  0  0  0
  8  7  2  0  0  0  0
  9  7  1  0  0  0  0
  9 10  1  0  0  0  0
 10 11  1  0  0  0  0
 11 12  1  0  0  0  0
 14 13  1  1  0  0  0
 19 16  1  6  0  0  0
 19 21  1  0  0  0  0
 19 15  1  0  0  0  0
 20 18  1  1  0  0  0
 20 16  1  0  0  0  0
 20 23  1  0  0  0  0
 21 15  1  1  0  0  0
 22 17  1  6  0  0  0
 22 21  1  0  0  0  0
 22 14  1  0  0  0  0
 23 22  1  0  0  0  0
 25 24  1  1  0  0  0
 25 26  1  0  0  0  0
 26 27  1  0  0  0  0
 27 28  2  0  0  0  0
 29 28  1  0  0  0  0
 30 29  1  0  0  0  0
M  END
>  <MODEL>
5

>  <REMARK>
 VINA RESULT:      -5.6      2.050      4.891
  Name = 
  12 active torsions:
  status: ('A' for Active; 'I' for Inactive)
    1  A    between atoms: C_4  and  C_19
    2  A    between atoms: N_6  and  CA_8
    3  A    between atoms: N_6  and  C_21
    4  A    between atoms: C_7  and  C_26
    5  A    between atoms: CA_8  and  C_30
    6  A    between atoms: C_9  and  C_21
    7  A    between atoms: C_10  and  C_15
    8  A    between atoms: C_10  and  C_25
    9  A    between atoms: N_13  and  C_30
   10  A    between atoms: C_19  and  C_24
   11  A    between atoms: C_19  and  C_25
   12  A    between atoms: C_24  and  C_28
                            x       y       z     vdW  Elec       q    Type
                         _______ _______ _______ _____ _____    ______ ____

>  <TORSDO>
F 12

$$$$
=
 OpenBabel11052417233D

 30 32  0  0  1  0  0  0  0  0999 V2000
  190.2820  176.2210  145.4910 C   0  0  2  0  0  3  0  0  0  0  0  0
  189.3470  176.2530  146.6970 C   0  0  2  0  0  3  0  0  0  0  0  0
  188.3050  177.2620  146.4590 N   0  0  0  0  0  0  0  0  0  0  0  0
  189.4100  177.5360  147.3860 C   0  0  0  0  0  2  0  0  0  0  0  0
  187.1540  176.8670  147.2550 C   0  0  0  0  0  2  0  0  0  0  0  0
  186.2780  180.1320  148.2200 O   0  0  0  0  0  0  0  0  0  0  0  0
  186.0550  177.8660  147.0900 C   0  0  0  0  0  0  0  0  0  0  0  0
  186.1700  179.0270  147.6700 C   0  0  0  0  0  0  0  0  0  0  0  0
  184.9140  177.5990  146.2700 N   0  0  0  0  0  2  0  0  0  0  0  0
  184.0370  178.6470  145.7810 C   0  0  0  0  0  2  0  0  0  0  0  0
  184.2620  178.8550  144.2960 C   0  0  0  0  0  2  0  0  0  0  0  0
  185.3590  179.8830  144.1080 C   0  0  0  0  0  1  0  0  0  0  0  0
  190.3220  174.2030  144.1280 O   0  0  0  0  0  1  0  0  0  0  0  0
  189.6320  175.4000  144.3640 C   0  0  2  0  0  3  0  0  0  0  0  0
  187.8490  174.6050  141.9560 O   0  0  0  0  0  0  0  0  0  0  0  0
  187.0700  176.7240  141.2050 C   0  0  0  0  0  2  0  0  0  0  0  0
  190.5170  176.9270  142.7690 O   0  0  0  0  0  1  0  0  0  0  0  0
  188.6960  178.4810  141.3650 O   0  0  0  0  0  1  0  0  0  0  0  0
  188.0120  175.5460  140.9130 C   0  0  1  0  0  3  0  0  0  0  0  0
  187.6880  177.8080  142.0660 C   0  0  2  0  0  3  0  0  0  0  0  0
  189.1120  175.2200  141.8800 C   0  0  1  0  0  3  0  0  0  0  0  0
  189.3690  176.1860  143.0680 C   0  0  1  0  0  0  0  0  0  0  0  0
  188.2340  177.1800  143.3400 C   0  0  0  0  0  2  0  0  0  0  0  0
  191.9000  175.0750  147.1600 C   0  0  0  0  0  1  0  0  0  0  0  0
  191.7170  175.7480  145.8070 C   0  0  2  0  0  3  0  0  0  0  0  0
  192.7800  176.8110  145.5370 C   0  0  0  0  0  2  0  0  0  0  0  0
  193.8640  176.3240  144.6280 C   0  0  0  0  0  3  0  0  0  0  0  0
  193.5750  175.4930  143.6280 C   0  0  0  0  0  3  0  0  0  0  0  0
  194.6390  175.0200  142.6880 C   0  0  0  0  0  2  0  0  0  0  0  0
  195.8220  175.9670  142.7240 C   0  0  0  0  0  1  0  0  0  0  0  0
  1 14  1  6  0  0  0
  1 25  1  0  0  0  0
  2  1  1  6  0  0  0
  2  4  1  0  0  0  0
  3  2  1  0  0  0  0
  3  5  1  0  0  0  0
  3  4  1  0  0  0  0
  7  5  1  0  0  0  0
  7  8  2  0  0  0  0
  8  6  2  0  0  0  0
  9  7  1  0  0  0  0
 10  9  1  0  0  0  0
 11 10  1  0  0  0  0
 12 11  1  0  0  0  0
 14 13  1  6  0  0  0
 16 20  1  0  0  0  0
 19 16  1  1  0  0  0
 19 21  1  0  0  0  0
 19 15  1  0  0  0  0
 20 18  1  6  0  0  0
 20 23  1  0  0  0  0
 21 15  1  1  0  0  0
 21 22  1  0  0  0  0
 22 17  1  6  0  0  0
 22 23  1  0  0  0  0
 22 14  1  0  0  0  0
 25 24  1  1  0  0  0
 26 25  1  0  0  0  0
 27 26  1  0  0  0  0
 28 27  2  0  0  0  0
 29 30  1  0  0  0  0
 29 28  1  0  0  0  0
M  END
>  <MODEL>
6

>  <REMARK>
 VINA RESULT:      -5.5      2.699      6.469
  Name = 
  12 active torsions:
  status: ('A' for Active; 'I' for Inactive)
    1  A    between atoms: C_4  and  C_19
    2  A    between atoms: N_6  and  CA_8
    3  A    between atoms: N_6  and  C_21
    4  A    between atoms: C_7  and  C_26
    5  A    between atoms: CA_8  and  C_30
    6  A    between atoms: C_9  and  C_21
    7  A    between atoms: C_10  and  C_15
    8  A    between atoms: C_10  and  C_25
    9  A    between atoms: N_13  and  C_30
   10  A    between atoms: C_19  and  C_24
   11  A    between atoms: C_19  and  C_25
   12  A    between atoms: C_24  and  C_28
                            x       y       z     vdW  Elec       q    Type
                         _______ _______ _______ _____ _____    ______ ____

>  <TORSDO>
F 12

$$$$
=
 OpenBabel11052417233D

 30 32  0  0  1  0  0  0  0  0999 V2000
  188.9200  177.5800  144.4840 C   0  0  2  0  0  3  0  0  0  0  0  0
  189.9230  177.6240  145.6340 C   0  0  2  0  0  3  0  0  0  0  0  0
  190.1720  176.2510  146.0950 N   0  0  0  0  0  0  0  0  0  0  0  0
  189.3270  177.1580  146.8800 C   0  0  0  0  0  2  0  0  0  0  0  0
  191.4940  176.2490  146.7020 C   0  0  0  0  0  2  0  0  0  0  0  0
  194.8920  175.4630  146.2660 O   0  0  0  0  0  0  0  0  0  0  0  0
  192.3720  175.2620  146.0040 C   0  0  0  0  0  0  0  0  0  0  0  0
  193.6630  175.3650  146.1380 C   0  0  0  0  0  0  0  0  0  0  0  0
  191.8280  174.1800  145.2420 N   0  0  0  0  0  2  0  0  0  0  0  0
  192.0890  174.0110  143.8240 C   0  0  0  0  0  2  0  0  0  0  0  0
  190.9610  173.2280  143.1830 C   0  0  0  0  0  2  0  0  0  0  0  0
  190.5270  173.9430  141.9200 C   0  0  0  0  0  1  0  0  0  0  0  0
  188.0050  175.3850  143.9560 O   0  0  0  0  0  1  0  0  0  0  0  0
  187.8550  176.5100  144.7790 C   0  0  2  0  0  3  0  0  0  0  0  0
  186.1090  177.2930  147.2180 O   0  0  0  0  0  0  0  0  0  0  0  0
  184.7680  179.0400  146.3170 C   0  0  0  0  0  2  0  0  0  0  0  0
  185.7320  176.4700  143.7030 O   0  0  0  0  0  1  0  0  0  0  0  0
  184.1070  178.6960  144.0370 O   0  0  0  0  0  1  0  0  0  0  0  0
  184.7920  177.5780  146.7880 C   0  0  1  0  0  3  0  0  0  0  0  0
  185.1160  179.2220  144.8530 C   0  0  2  0  0  3  0  0  0  0  0  0
  185.6710  176.5870  146.0820 C   0  0  1  0  0  3  0  0  0  0  0  0
  186.4070  177.0330  144.7910 C   0  0  1  0  0  0  0  0  0  0  0  0
  186.4520  178.5510  144.5740 C   0  0  0  0  0  2  0  0  0  0  0  0
  191.0770  177.4450  143.0530 C   0  0  0  0  0  1  0  0  0  0  0  0
  189.5550  177.4040  143.0880 C   0  0  2  0  0  3  0  0  0  0  0  0
  188.9240  178.2920  142.0170 C   0  0  0  0  0  2  0  0  0  0  0  0
  187.8210  177.6050  141.2760 C   0  0  0  0  0  3  0  0  0  0  0  0
  186.6950  178.2590  140.9960 C   0  0  0  0  0  3  0  0  0  0  0  0
  185.5930  177.6000  140.2270 C   0  0  0  0  0  2  0  0  0  0  0  0
  184.2750  178.2910  140.5120 C   0  0  0  0  0  1  0  0  0  0  0  0
  1 25  1  6  0  0  0
  1 14  1  0  0  0  0
  2  1  1  6  0  0  0
  2  3  1  0  0  0  0
  2  4  1  0  0  0  0
  3  5  1  0  0  0  0
  3  4  1  0  0  0  0
  7  8  2  0  0  0  0
  7  5  1  0  0  0  0
  8  6  2  0  0  0  0
  9  7  1  0  0  0  0
 10  9  1  0  0  0  0
 11 10  1  0  0  0  0
 12 11  1  0  0  0  0
 14 13  1  6  0  0  0
 14 22  1  0  0  0  0
 19 16  1  6  0  0  0
 19 15  1  0  0  0  0
 20 18  1  6  0  0  0
 20 16  1  0  0  0  0
 21 19  1  0  0  0  0
 21 15  1  1  0  0  0
 22 17  1  6  0  0  0
 22 21  1  0  0  0  0
 23 22  1  0  0  0  0
 23 20  1  0  0  0  0
 25 24  1  1  0  0  0
 26 25  1  0  0  0  0
 27 26  1  0  0  0  0
 28 27  2  0  0  0  0
 29 30  1  0  0  0  0
 29 28  1  0  0  0  0
M  END
>  <MODEL>
7

>  <REMARK>
 VINA RESULT:      -5.5      2.466      5.274
  Name = 
  12 active torsions:
  status: ('A' for Active; 'I' for Inactive)
    1  A    between atoms: C_4  and  C_19
    2  A    between atoms: N_6  and  CA_8
    3  A    between atoms: N_6  and  C_21
    4  A    between atoms: C_7  and  C_26
    5  A    between atoms: CA_8  and  C_30
    6  A    between atoms: C_9  and  C_21
    7  A    between atoms: C_10  and  C_15
    8  A    between atoms: C_10  and  C_25
    9  A    between atoms: N_13  and  C_30
   10  A    between atoms: C_19  and  C_24
   11  A    between atoms: C_19  and  C_25
   12  A    between atoms: C_24  and  C_28
                            x       y       z     vdW  Elec       q    Type
                         _______ _______ _______ _____ _____    ______ ____

>  <TORSDO>
F 12

$$$$
=
 OpenBabel11052417233D

 30 32  0  0  1  0  0  0  0  0999 V2000
  188.9710  177.5330  144.4630 C   0  0  2  0  0  3  0  0  0  0  0  0
  190.0260  177.5390  145.5660 C   0  0  2  0  0  3  0  0  0  0  0  0
  189.9290  176.2800  146.3170 N   0  0  0  0  0  0  0  0  0  0  0  0
  189.4140  177.5290  146.8890 C   0  0  0  0  0  2  0  0  0  0  0  0
  191.2400  176.0400  146.8980 C   0  0  0  0  0  2  0  0  0  0  0  0
  190.7390  173.1820  144.9140 O   0  0  0  0  0  0  0  0  0  0  0  0
  192.0010  175.0710  146.0530 C   0  0  0  0  0  0  0  0  0  0  0  0
  191.3540  174.1030  145.4700 C   0  0  0  0  0  0  0  0  0  0  0  0
  193.4060  175.2150  145.8260 N   0  0  0  0  0  2  0  0  0  0  0  0
  194.2140  176.2070  146.5120 C   0  0  0  0  0  2  0  0  0  0  0  0
  194.8020  177.1760  145.5070 C   0  0  0  0  0  2  0  0  0  0  0  0
  195.1590  176.4150  144.2460 C   0  0  0  0  0  1  0  0  0  0  0  0
  188.0150  175.3430  143.9910 O   0  0  0  0  0  1  0  0  0  0  0  0
  187.8940  176.4860  144.7940 C   0  0  2  0  0  3  0  0  0  0  0  0
  186.1630  177.2580  147.2480 O   0  0  0  0  0  0  0  0  0  0  0  0
  184.8500  179.0410  146.3760 C   0  0  0  0  0  2  0  0  0  0  0  0
  185.7700  176.4980  143.7210 O   0  0  0  0  0  1  0  0  0  0  0  0
  184.1810  178.7430  144.0920 O   0  0  0  0  0  1  0  0  0  0  0  0
  184.8510  177.5710  146.8240 C   0  0  1  0  0  3  0  0  0  0  0  0
  185.1990  179.2400  144.9150 C   0  0  2  0  0  3  0  0  0  0  0  0
  185.7130  176.5780  146.1010 C   0  0  1  0  0  3  0  0  0  0  0  0
  186.4550  177.0330  144.8160 C   0  0  1  0  0  0  0  0  0  0  0  0
  186.5240  178.5520  144.6230 C   0  0  0  0  0  2  0  0  0  0  0  0
  191.0570  177.3330  142.9370 C   0  0  0  0  0  1  0  0  0  0  0  0
  189.5380  177.3590  143.0370 C   0  0  2  0  0  3  0  0  0  0  0  0
  188.9030  178.2960  142.0120 C   0  0  0  0  0  2  0  0  0  0  0  0
  187.8180  177.6350  141.2210 C   0  0  0  0  0  3  0  0  0  0  0  0
  186.6560  178.2570  141.0310 C   0  0  0  0  0  3  0  0  0  0  0  0
  185.5700  177.6270  140.2160 C   0  0  0  0  0  2  0  0  0  0  0  0
  184.2420  178.2910  140.5160 C   0  0  0  0  0  1  0  0  0  0  0  0
  1 25  1  6  0  0  0
  1 14  1  0  0  0  0
  2  1  1  6  0  0  0
  2  3  1  0  0  0  0
  2  4  1  0  0  0  0
  3  4  1  0  0  0  0
  3  5  1  0  0  0  0
  6  8  2  0  0  0  0
  7  5  1  0  0  0  0
  8  7  2  0  0  0  0
  9  7  1  0  0  0  0
  9 10  1  0  0  0  0
 11 10  1  0  0  0  0
 12 11  1  0  0  0  0
 14 13  1  6  0  0  0
 14 22  1  0  0  0  0
 19 16  1  6  0  0  0
 19 15  1  0  0  0  0
 20 18  1  6  0  0  0
 20 16  1  0  0  0  0
 21 19  1  0  0  0  0
 21 15  1  1  0  0  0
 22 17  1  6  0  0  0
 22 21  1  0  0  0  0
 23 22  1  0  0  0  0
 23 20  1  0  0  0  0
 25 24  1  1  0  0  0
 26 25  1  0  0  0  0
 27 26  1  0  0  0  0
 28 27  2  0  0  0  0
 29 30  1  0  0  0  0
 29 28  1  0  0  0  0
M  END
>  <MODEL>
8

>  <REMARK>
 VINA RESULT:      -5.4      2.532      5.417
  Name = 
  12 active torsions:
  status: ('A' for Active; 'I' for Inactive)
    1  A    between atoms: C_4  and  C_19
    2  A    between atoms: N_6  and  CA_8
    3  A    between atoms: N_6  and  C_21
    4  A    between atoms: C_7  and  C_26
    5  A    between atoms: CA_8  and  C_30
    6  A    between atoms: C_9  and  C_21
    7  A    between atoms: C_10  and  C_15
    8  A    between atoms: C_10  and  C_25
    9  A    between atoms: N_13  and  C_30
   10  A    between atoms: C_19  and  C_24
   11  A    between atoms: C_19  and  C_25
   12  A    between atoms: C_24  and  C_28
                            x       y       z     vdW  Elec       q    Type
                         _______ _______ _______ _____ _____    ______ ____

>  <TORSDO>
F 12

$$$$
=
 OpenBabel11052417233D

 30 32  0  0  1  0  0  0  0  0999 V2000
  190.4140  175.3790  144.9300 C   0  0  2  0  0  3  0  0  0  0  0  0
  189.3290  176.3130  145.4600 C   0  0  2  0  0  3  0  0  0  0  0  0
  188.8680  177.1710  144.3600 N   0  0  0  0  0  0  0  0  0  0  0  0
  189.7510  177.7070  145.4020 C   0  0  0  0  0  2  0  0  0  0  0  0
  187.5090  177.5740  144.6880 C   0  0  0  0  0  2  0  0  0  0  0  0
  187.8890  177.8730  141.2060 O   0  0  0  0  0  0  0  0  0  0  0  0
  186.8790  178.2420  143.5100 C   0  0  0  0  0  0  0  0  0  0  0  0
  187.3970  178.0530  142.3290 C   0  0  0  0  0  0  0  0  0  0  0  0
  185.6940  179.0340  143.6390 N   0  0  0  0  0  2  0  0  0  0  0  0
  184.4540  178.5060  144.1790 C   0  0  0  0  0  2  0  0  0  0  0  0
  184.2520  179.0130  145.5930 C   0  0  0  0  0  2  0  0  0  0  0  0
  184.4210  177.8540  146.5550 C   0  0  0  0  0  1  0  0  0  0  0  0
  190.3640  172.9460  145.0320 O   0  0  0  0  0  1  0  0  0  0  0  0
  189.7670  174.0700  144.4460 C   0  0  2  0  0  3  0  0  0  0  0  0
  192.0480  173.9440  142.3500 O   0  0  0  0  0  0  0  0  0  0  0  0
  191.0980  172.5390  140.6800 C   0  0  0  0  0  2  0  0  0  0  0  0
  188.4770  174.5760  142.5110 O   0  0  0  0  0  1  0  0  0  0  0  0
  188.7480  172.8740  140.3340 O   0  0  0  0  0  1  0  0  0  0  0  0
  191.4980  173.9760  141.0470 C   0  0  1  0  0  3  0  0  0  0  0  0
  189.6880  172.1670  141.0940 C   0  0  2  0  0  3  0  0  0  0  0  0
  190.8400  174.6530  142.2130 C   0  0  1  0  0  3  0  0  0  0  0  0
  189.6550  173.9390  142.9160 C   0  0  1  0  0  0  0  0  0  0  0  0
  189.5160  172.4500  142.5790 C   0  0  0  0  0  2  0  0  0  0  0  0
  191.2340  175.2950  147.3880 C   0  0  0  0  0  1  0  0  0  0  0  0
  191.5770  175.1270  145.9140 C   0  0  2  0  0  3  0  0  0  0  0  0
  192.8650  175.8520  145.5300 C   0  0  0  0  0  2  0  0  0  0  0  0
  194.0780  174.9900  145.6800 C   0  0  0  0  0  3  0  0  0  0  0  0
  194.0560  173.7260  145.2590 C   0  0  0  0  0  3  0  0  0  0  0  0
  195.2690  172.8570  145.3700 C   0  0  0  0  0  2  0  0  0  0  0  0
  196.4680  173.6880  145.7790 C   0  0  0  0  0  1  0  0  0  0  0  0
  1 14  1  1  0  0  0
  1 25  1  0  0  0  0
  2  1  1  6  0  0  0
  3  5  1  0  0  0  0
  3  4  1  0  0  0  0
  3  2  1  0  0  0  0
  4  2  1  0  0  0  0
  6  8  2  0  0  0  0
  7  9  1  0  0  0  0
  7  5  1  0  0  0  0
  8  7  2  0  0  0  0
  9 10  1  0  0  0  0
 10 11  1  0  0  0  0
 11 12  1  0  0  0  0
 14 13  1  6  0  0  0
 16 20  1  0  0  0  0
 19 16  1  1  0  0  0
 19 21  1  0  0  0  0
 19 15  1  0  0  0  0
 20 18  1  6  0  0  0
 20 23  1  0  0  0  0
 21 15  1  1  0  0  0
 21 22  1  0  0  0  0
 22 17  1  6  0  0  0
 22 14  1  0  0  0  0
 23 22  1  0  0  0  0
 25 24  1  1  0  0  0
 26 27  1  0  0  0  0
 26 25  1  0  0  0  0
 28 29  1  0  0  0  0
 28 27  2  0  0  0  0
 29 30  1  0  0  0  0
M  END
>  <MODEL>
9

>  <REMARK>
 VINA RESULT:      -5.4      2.146      5.903
  Name = 
  12 active torsions:
  status: ('A' for Active; 'I' for Inactive)
    1  A    between atoms: C_4  and  C_19
    2  A    between atoms: N_6  and  CA_8
    3  A    between atoms: N_6  and  C_21
    4  A    between atoms: C_7  and  C_26
    5  A    between atoms: CA_8  and  C_30
    6  A    between atoms: C_9  and  C_21
    7  A    between atoms: C_10  and  C_15
    8  A    between atoms: C_10  and  C_25
    9  A    between atoms: N_13  and  C_30
   10  A    between atoms: C_19  and  C_24
   11  A    between atoms: C_19  and  C_25
   12  A    between atoms: C_24  and  C_28
                            x       y       z     vdW  Elec       q    Type
                         _______ _______ _______ _____ _____    ______ ____

>  <TORSDO>
F 12

$$$$
