=
 OpenBabel11052419303D

 55 62  0  0  1  0  0  0  0  0999 V2000
  189.3010  174.3820  146.2750 C   0  0  0  0  0  3  0  0  0  0  0  0
  191.7980  175.6420  146.3730 C   0  0  0  0  0  0  0  0  0  0  0  0
  191.3330  175.1030  145.1700 C   0  0  0  0  0  3  0  0  0  0  0  0
  189.7650  174.9200  147.4770 C   0  0  0  0  0  3  0  0  0  0  0  0
  190.0780  174.4700  145.1160 C   0  0  0  0  0  0  0  0  0  0  0  0
  191.0110  175.5510  147.5280 C   0  0  0  0  0  3  0  0  0  0  0  0
  193.1190  176.3290  146.4190 C   0  0  0  0  0  2  0  0  0  0  0  0
  194.1480  175.5440  145.6300 C   0  0  0  0  0  2  0  0  0  0  0  0
  195.2090  176.4850  145.1000 C   0  0  0  0  0  2  0  0  0  0  0  0
  196.0050  175.8090  143.9980 C   0  0  0  0  0  2  0  0  0  0  0  0
  196.7550  174.6860  144.5380 N   0  0  0  0  0  2  0  0  0  0  0  0
  196.3060  171.3990  145.8860 C   0  0  2  0  0  3  0  0  0  0  0  0
  197.2680  171.1190  141.8300 C   0  0  0  0  0  1  0  0  0  0  0  0
  196.6430  171.2800  143.2090 C   0  0  2  0  0  0  0  0  0  0  0  0
  196.8440  173.6850  143.4840 C   0  0  1  0  0  3  0  0  0  0  0  0
  192.9340  172.2690  144.0850 C   0  0  0  0  0  2  0  0  0  0  0  0
  193.6390  170.2500  144.2070 C   0  0  0  0  0  2  0  0  0  0  0  0
  195.2320  171.8820  143.0560 C   0  0  1  0  0  3  0  0  0  0  0  0
  197.4090  172.3550  143.9920 C   0  0  1  0  0  3  0  0  0  0  0  0
  197.6990  169.3390  146.0990 C   0  0  0  0  0  1  0  0  0  0  0  0
  194.8860  171.9460  145.6450 C   0  0  0  0  0  2  0  0  0  0  0  0
  192.2810  170.9000  144.0370 C   0  0  0  0  0  2  0  0  0  0  0  0
  195.4360  173.7380  141.5800 F   0  0  0  0  0  0  0  0  0  0  0  0
  194.2970  171.6200  144.2600 C   0  0  0  0  0  0  0  0  0  0  0  0
  197.3260  172.2700  145.4180 O   0  0  0  0  0  0  0  0  0  0  0  0
  196.7050  169.9040  143.8920 C   0  0  0  0  0  2  0  0  0  0  0  0
  195.4630  173.3890  142.9160 C   0  0  2  0  0  3  0  0  0  0  0  0
  196.5050  169.9620  145.4050 C   0  0  2  0  0  3  0  0  0  0  0  0
  189.5850  173.9160  143.9330 O   0  0  0  0  0  0  0  0  0  0  0  0
  189.9390  174.4070  142.6430 C   0  0  0  0  0  2  0  0  0  0  0  0
  188.9220  173.9560  141.5960 C   0  0  2  0  0  3  0  0  0  0  0  0
  190.5690  173.3980  139.7970 C   0  0  0  0  0  2  0  0  0  0  0  0
  191.5980  171.1260  139.6430 N   0  0  1  0  0  0  0  0  0  0  0  0
  190.0010  171.6540  141.4860 C   0  0  0  0  0  2  0  0  0  0  0  0
  190.5480  170.5950  140.5250 C   0  0  0  0  0  2  0  0  0  0  0  0
  191.1040  172.2890  138.8870 C   0  0  0  0  0  2  0  0  0  0  0  0
  189.4690  172.8470  140.6930 C   0  0  1  0  0  3  0  0  0  0  0  0
  192.7800  171.4890  140.4250 C   0  0  0  0  0  3  0  0  0  0  0  0
  193.9450  171.7680  139.4960 C   0  0  0  0  0  2  0  0  0  0  0  0
  193.8630  170.4450  140.2250 C   0  0  0  0  0  2  0  0  0  0  0  0
  188.4390  175.0960  140.8200 N   0  0  0  0  0  2  0  0  0  0  0  0
  188.4650  176.2740  141.6760 C   0  0  0  0  0  2  0  0  0  0  0  0
  185.0670  177.4960  142.9140 C   0  0  0  0  0  3  0  0  0  0  0  0
  184.5870  178.1300  141.7650 C   0  0  0  0  0  3  0  0  0  0  0  0
  187.1110  176.9150  141.7410 C   0  0  0  0  0  0  0  0  0  0  0  0
  186.6220  177.5520  140.5960 C   0  0  0  0  0  3  0  0  0  0  0  0
  185.3650  178.1570  140.6060 C   0  0  0  0  0  3  0  0  0  0  0  0
  186.3240  176.8800  142.9120 C   0  0  0  0  0  0  0  0  0  0  0  0
  186.7980  176.2000  144.1580 C   0  0  0  0  0  2  0  0  0  0  0  0
  187.3520  177.1920  145.1360 C   0  0  0  0  0  0  0  0  0  0  0  0
  188.4170  177.8020  144.8570 O   0  0  0  0  0  0  0  0  0  0  0  0
  186.7060  177.4470  146.3860 N   0  0  0  0  0  2  0  0  0  0  0  0
  185.4230  176.8640  146.7520 C   0  0  0  0  0  2  0  0  0  0  0  0
  184.8640  178.9970  146.6970 C   0  0  0  0  0  1  0  0  0  0  0  0
  184.3890  177.7240  146.3800 O   0  0  0  0  0  0  0  0  0  0  0  0
  1  4  1  0  0  0  0
  2  7  1  0  0  0  0
  2  6  1  0  0  0  0
  3  2  2  0  0  0  0
  4  6  2  0  0  0  0
  5  3  1  0  0  0  0
  5  1  2  0  0  0  0
  8  7  1  0  0  0  0
  9  8  1  0  0  0  0
 10 11  1  0  0  0  0
 10  9  1  0  0  0  0
 12 21  1  6  0  0  0
 14 13  1  6  0  0  0
 14 26  1  0  0  0  0
 14 19  1  0  0  0  0
 15 19  1  0  0  0  0
 15 11  1  1  0  0  0
 16 24  1  0  0  0  0
 17 24  1  0  0  0  0
 18 14  1  0  0  0  0
 18 24  1  1  0  0  0
 19 25  1  1  0  0  0
 22 16  1  0  0  0  0
 22 17  1  0  0  0  0
 24 21  1  0  0  0  0
 25 12  1  0  0  0  0
 26 28  1  0  0  0  0
 27 23  1  6  0  0  0
 27 18  1  0  0  0  0
 27 15  1  0  0  0  0
 28 12  1  0  0  0  0
 28 20  1  1  0  0  0
 29  5  1  0  0  0  0
 30 29  1  0  0  0  0
 31 30  1  1  0  0  0
 32 37  1  0  0  0  0
 33 38  1  1  0  0  0
 33 35  1  0  0  0  0
 35 34  1  0  0  0  0
 36 33  1  0  0  0  0
 36 32  1  0  0  0  0
 37 34  1  0  0  0  0
 37 31  1  1  0  0  0
 39 40  1  0  0  0  0
 39 38  1  0  0  0  0
 40 38  1  0  0  0  0
 41 31  1  0  0  0  0
 41 42  1  0  0  0  0
 42 45  1  0  0  0  0
 44 43  2  0  0  0  0
 45 48  2  0  0  0  0
 46 47  2  0  0  0  0
 46 45  1  0  0  0  0
 47 44  1  0  0  0  0
 48 43  1  0  0  0  0
 48 49  1  0  0  0  0
 49 50  1  0  0  0  0
 50 52  1  0  0  0  0
 51 50  2  0  0  0  0
 52 53  1  0  0  0  0
 55 54  1  0  0  0  0
 55 53  1  0  0  0  0
M  END
>  <MODEL>
1

>  <REMARK>
 VINA RESULT:      -7.1      0.000      0.000
  Name = 
  18 active torsions:
  status: ('A' for Active; 'I' for Inactive)
    1  A    between atoms: O_2  and  C_28
    2  A    between atoms: O_2  and  C_44
    3  A    between atoms: C_4  and  O_37
    4  A    between atoms: C_4  and  N_40
    5  A    between atoms: C_5  and  C_45
    6  A    between atoms: C_7  and  N_22
    7  A    between atoms: C_8  and  N_22
    8  A    between atoms: C_8  and  C_43
    9  A    between atoms: C_10  and  N_32
   10  A    between atoms: C_16  and  C_36
   11  A    between atoms: C_26  and  C_45
   12  A    between atoms: C_27  and  C_54
   13  A    between atoms: C_28  and  C_49
   14  A    between atoms: N_33  and  C_36
   15  A    between atoms: N_33  and  C_49
   16  A    between atoms: C_43  and  C_51
   17  A    between atoms: C_49  and  C_52
   18  A    between atoms: C_51  and  C_54
                            x       y       z     vdW  Elec       q    Type
                         _______ _______ _______ _____ _____    ______ ____

>  <TORSDO>
F 18

$$$$
=
 OpenBabel11052419303D

 55 62  0  0  1  0  0  0  0  0999 V2000
  190.7930  172.8620  143.0270 C   0  0  0  0  0  3  0  0  0  0  0  0
  192.9500  173.9940  141.6480 C   0  0  0  0  0  0  0  0  0  0  0  0
  191.8340  174.7750  141.9620 C   0  0  0  0  0  3  0  0  0  0  0  0
  191.9070  172.0820  142.7130 C   0  0  0  0  0  3  0  0  0  0  0  0
  190.7480  174.2100  142.6570 C   0  0  0  0  0  0  0  0  0  0  0  0
  192.9860  172.6460  142.0250 C   0  0  0  0  0  3  0  0  0  0  0  0
  194.1050  174.6030  140.9300 C   0  0  0  0  0  2  0  0  0  0  0  0
  194.2440  173.9960  139.5480 C   0  0  0  0  0  2  0  0  0  0  0  0
  194.3070  175.0990  138.5130 C   0  0  0  0  0  2  0  0  0  0  0  0
  193.1680  174.9510  137.5200 C   0  0  0  0  0  2  0  0  0  0  0  0
  193.4280  173.8370  136.6220 N   0  0  0  0  0  2  0  0  0  0  0  0
  191.9240  170.7940  137.7640 C   0  0  2  0  0  3  0  0  0  0  0  0
  189.7500  172.2890  134.5250 C   0  0  0  0  0  1  0  0  0  0  0  0
  190.3890  171.9450  135.8630 C   0  0  2  0  0  0  0  0  0  0  0  0
  192.1920  173.5740  135.8980 C   0  0  1  0  0  3  0  0  0  0  0  0
  189.7960  173.6790  139.3480 C   0  0  0  0  0  2  0  0  0  0  0  0
  188.9100  171.7950  138.8420 C   0  0  0  0  0  2  0  0  0  0  0  0
  190.0140  173.0280  136.8940 C   0  0  1  0  0  3  0  0  0  0  0  0
  191.9150  172.0750  135.7450 C   0  0  1  0  0  3  0  0  0  0  0  0
  191.3940  168.5680  136.7680 C   0  0  0  0  0  1  0  0  0  0  0  0
  191.4560  171.8820  138.7490 C   0  0  0  0  0  2  0  0  0  0  0  0
  188.5800  172.9040  139.8210 C   0  0  0  0  0  2  0  0  0  0  0  0
  190.4070  175.1320  135.8540 F   0  0  0  0  0  0  0  0  0  0  0  0
  190.1320  172.5690  138.3670 C   0  0  0  0  0  0  0  0  0  0  0  0
  192.6830  171.3110  136.6800 O   0  0  0  0  0  0  0  0  0  0  0  0
  189.9510  170.5150  136.2150 C   0  0  0  0  0  2  0  0  0  0  0  0
  191.0040  174.1690  136.6420 C   0  0  2  0  0  3  0  0  0  0  0  0
  190.8080  169.8600  137.2980 C   0  0  2  0  0  3  0  0  0  0  0  0
  189.6150  174.9590  142.9820 O   0  0  0  0  0  0  0  0  0  0  0  0
  189.3740  175.4670  144.2910 C   0  0  0  0  0  2  0  0  0  0  0  0
  190.1190  176.7830  144.5060 C   0  0  2  0  0  3  0  0  0  0  0  0
  191.4090  175.2010  145.9530 C   0  0  0  0  0  2  0  0  0  0  0  0
  193.8960  175.3480  146.1360 N   0  0  1  0  0  0  0  0  0  0  0  0
  192.6570  176.9140  144.6390 C   0  0  0  0  0  2  0  0  0  0  0  0
  193.8540  176.7050  145.5710 C   0  0  0  0  0  2  0  0  0  0  0  0
  192.6430  175.0380  146.8440 C   0  0  0  0  0  2  0  0  0  0  0  0
  191.3590  176.6130  145.3880 C   0  0  1  0  0  3  0  0  0  0  0  0
  194.1410  174.3680  145.0780 C   0  0  0  0  0  3  0  0  0  0  0  0
  194.1030  172.9660  145.6560 C   0  0  0  0  0  2  0  0  0  0  0  0
  195.4330  173.6240  145.3630 C   0  0  0  0  0  2  0  0  0  0  0  0
  189.2190  177.8070  145.0290 N   0  0  0  0  0  2  0  0  0  0  0  0
  187.9330  177.6700  144.3580 C   0  0  0  0  0  2  0  0  0  0  0  0
  184.6770  178.9600  145.8770 C   0  0  0  0  0  3  0  0  0  0  0  0
  184.7510  178.4030  147.1550 C   0  0  0  0  0  3  0  0  0  0  0  0
  186.8060  177.9410  145.3080 C   0  0  0  0  0  0  0  0  0  0  0  0
  186.8700  177.3870  146.5910 C   0  0  0  0  0  3  0  0  0  0  0  0
  185.8480  177.6170  147.5120 C   0  0  0  0  0  3  0  0  0  0  0  0
  185.7010  178.7420  144.9470 C   0  0  0  0  0  0  0  0  0  0  0  0
  185.5920  179.3660  143.5910 C   0  0  0  0  0  2  0  0  0  0  0  0
  184.6930  178.5660  142.7000 C   0  0  0  0  0  0  0  0  0  0  0  0
  183.4930  178.3880  143.0360 O   0  0  0  0  0  0  0  0  0  0  0  0
  185.1720  177.9860  141.4830 N   0  0  0  0  0  2  0  0  0  0  0  0
  186.5130  178.2180  140.9650 C   0  0  0  0  0  2  0  0  0  0  0  0
  187.4820  176.2370  140.9300 C   0  0  0  0  0  1  0  0  0  0  0  0
  186.8720  177.1820  140.1030 O   0  0  0  0  0  0  0  0  0  0  0  0
  2  3  2  0  0  0  0
  2  6  1  0  0  0  0
  3  5  1  0  0  0  0
  4  1  1  0  0  0  0
  5 29  1  0  0  0  0
  5  1  2  0  0  0  0
  6  4  2  0  0  0  0
  7  2  1  0  0  0  0
  8  7  1  0  0  0  0
  9  8  1  0  0  0  0
 10  9  1  0  0  0  0
 11 10  1  0  0  0  0
 12 21  1  6  0  0  0
 14 13  1  6  0  0  0
 14 26  1  0  0  0  0
 14 18  1  0  0  0  0
 15 11  1  1  0  0  0
 15 27  1  0  0  0  0
 16 22  1  0  0  0  0
 17 22  1  0  0  0  0
 18 24  1  1  0  0  0
 19 14  1  0  0  0  0
 19 15  1  0  0  0  0
 19 25  1  1  0  0  0
 24 21  1  0  0  0  0
 24 17  1  0  0  0  0
 24 16  1  0  0  0  0
 25 12  1  0  0  0  0
 26 28  1  0  0  0  0
 27 23  1  6  0  0  0
 27 18  1  0  0  0  0
 28 20  1  6  0  0  0
 28 12  1  0  0  0  0
 29 30  1  0  0  0  0
 31 30  1  1  0  0  0
 31 41  1  0  0  0  0
 32 36  1  0  0  0  0
 33 38  1  6  0  0  0
 33 36  1  0  0  0  0
 34 37  1  0  0  0  0
 34 35  1  0  0  0  0
 35 33  1  0  0  0  0
 37 31  1  6  0  0  0
 37 32  1  0  0  0  0
 38 40  1  0  0  0  0
 38 39  1  0  0  0  0
 40 39  1  0  0  0  0
 42 41  1  0  0  0  0
 42 45  1  0  0  0  0
 43 44  1  0  0  0  0
 44 47  2  0  0  0  0
 45 46  2  0  0  0  0
 46 47  1  0  0  0  0
 48 45  1  0  0  0  0
 48 43  2  0  0  0  0
 49 48  1  0  0  0  0
 50 51  2  0  0  0  0
 50 49  1  0  0  0  0
 52 50  1  0  0  0  0
 53 52  1  0  0  0  0
 55 54  1  0  0  0  0
 55 53  1  0  0  0  0
M  END
>  <MODEL>
2

>  <REMARK>
 VINA RESULT:      -6.9      2.852      6.831
  Name = 
  18 active torsions:
  status: ('A' for Active; 'I' for Inactive)
    1  A    between atoms: O_2  and  C_28
    2  A    between atoms: O_2  and  C_44
    3  A    between atoms: C_4  and  O_37
    4  A    between atoms: C_4  and  N_40
    5  A    between atoms: C_5  and  C_45
    6  A    between atoms: C_7  and  N_22
    7  A    between atoms: C_8  and  N_22
    8  A    between atoms: C_8  and  C_43
    9  A    between atoms: C_10  and  N_32
   10  A    between atoms: C_16  and  C_36
   11  A    between atoms: C_26  and  C_45
   12  A    between atoms: C_27  and  C_54
   13  A    between atoms: C_28  and  C_49
   14  A    between atoms: N_33  and  C_36
   15  A    between atoms: N_33  and  C_49
   16  A    between atoms: C_43  and  C_51
   17  A    between atoms: C_49  and  C_52
   18  A    between atoms: C_51  and  C_54
                            x       y       z     vdW  Elec       q    Type
                         _______ _______ _______ _____ _____    ______ ____

>  <TORSDO>
F 18

$$$$
=
 OpenBabel11052419303D

 55 62  0  0  1  0  0  0  0  0999 V2000
  185.5040  179.0820  146.4420 C   0  0  0  0  0  3  0  0  0  0  0  0
  187.2170  176.8850  146.7220 C   0  0  0  0  0  0  0  0  0  0  0  0
  187.0040  177.4500  145.4610 C   0  0  0  0  0  3  0  0  0  0  0  0
  185.7150  178.5180  147.7010 C   0  0  0  0  0  3  0  0  0  0  0  0
  186.1450  178.5550  145.3150 C   0  0  0  0  0  0  0  0  0  0  0  0
  186.5710  177.4220  147.8430 C   0  0  0  0  0  3  0  0  0  0  0  0
  188.1430  175.7290  146.8720 C   0  0  0  0  0  2  0  0  0  0  0  0
  189.4510  176.0060  146.1580 C   0  0  0  0  0  2  0  0  0  0  0  0
  190.4920  176.4550  147.1620 C   0  0  0  0  0  2  0  0  0  0  0  0
  191.6550  175.4800  147.1820 C   0  0  0  0  0  2  0  0  0  0  0  0
  192.7800  176.0250  146.4390 N   0  0  0  0  0  2  0  0  0  0  0  0
  195.9850  175.4630  144.9430 C   0  0  2  0  0  3  0  0  0  0  0  0
  193.0030  175.0030  142.0550 C   0  0  0  0  0  1  0  0  0  0  0  0
  194.0150  174.8940  143.1860 C   0  0  2  0  0  0  0  0  0  0  0  0
  192.6300  175.5930  145.0570 C   0  0  1  0  0  3  0  0  0  0  0  0
  194.5320  171.9010  145.6910 C   0  0  0  0  0  2  0  0  0  0  0  0
  195.8400  172.2400  144.0280 C   0  0  0  0  0  2  0  0  0  0  0  0
  193.7010  173.6390  144.0240 C   0  0  1  0  0  3  0  0  0  0  0  0
  193.7970  176.0480  144.1750 C   0  0  1  0  0  3  0  0  0  0  0  0
  197.2940  176.4660  143.0690 C   0  0  0  0  0  1  0  0  0  0  0  0
  195.6430  174.1610  145.6920 C   0  0  0  0  0  2  0  0  0  0  0  0
  195.4740  171.0360  144.8740 C   0  0  0  0  0  2  0  0  0  0  0  0
  191.3640  173.6790  144.4710 F   0  0  0  0  0  0  0  0  0  0  0  0
  194.8990  173.1100  144.8480 C   0  0  0  0  0  0  0  0  0  0  0  0
  194.9310  176.4150  144.9680 O   0  0  0  0  0  0  0  0  0  0  0  0
  195.4100  174.9300  142.5440 C   0  0  0  0  0  2  0  0  0  0  0  0
  192.5850  174.0730  144.9790 C   0  0  2  0  0  3  0  0  0  0  0  0
  196.5320  175.2410  143.5340 C   0  0  2  0  0  3  0  0  0  0  0  0
  185.9050  179.1410  144.0710 O   0  0  0  0  0  0  0  0  0  0  0  0
  184.6000  179.2670  143.5140 C   0  0  0  0  0  2  0  0  0  0  0  0
  184.4590  178.4000  142.2640 C   0  0  2  0  0  3  0  0  0  0  0  0
  182.0760  179.0220  142.7040 C   0  0  0  0  0  2  0  0  0  0  0  0
  180.3260  178.7740  140.9390 N   0  0  1  0  0  0  0  0  0  0  0  0
  182.7000  178.1910  140.4380 C   0  0  0  0  0  2  0  0  0  0  0  0
  181.2210  177.8870  140.1810 C   0  0  0  0  0  2  0  0  0  0  0  0
  180.6150  178.6980  142.3800 C   0  0  0  0  0  2  0  0  0  0  0  0
  182.9980  178.0880  141.9330 C   0  0  1  0  0  3  0  0  0  0  0  0
  180.4560  180.1500  140.4620 C   0  0  0  0  0  3  0  0  0  0  0  0
  179.2450  180.9580  140.8870 C   0  0  0  0  0  2  0  0  0  0  0  0
  179.3510  180.4510  139.4670 C   0  0  0  0  0  2  0  0  0  0  0  0
  185.2590  177.1850  142.3860 N   0  0  0  0  0  2  0  0  0  0  0  0
  186.2290  177.1650  141.3000 C   0  0  0  0  0  2  0  0  0  0  0  0
  189.5840  175.9340  142.6420 C   0  0  0  0  0  3  0  0  0  0  0  0
  190.2420  177.1490  142.8440 C   0  0  0  0  0  3  0  0  0  0  0  0
  187.6280  177.1250  141.8360 C   0  0  0  0  0  0  0  0  0  0  0  0
  188.2950  178.3370  142.0410 C   0  0  0  0  0  3  0  0  0  0  0  0
  189.5970  178.3510  142.5440 C   0  0  0  0  0  3  0  0  0  0  0  0
  188.2750  175.9090  142.1440 C   0  0  0  0  0  0  0  0  0  0  0  0
  187.5990  174.5880  141.9530 C   0  0  0  0  0  2  0  0  0  0  0  0
  188.2820  173.7810  140.8920 C   0  0  0  0  0  0  0  0  0  0  0  0
  188.2260  174.1660  139.6940 O   0  0  0  0  0  0  0  0  0  0  0  0
  188.9820  172.5750  141.2070 N   0  0  0  0  0  2  0  0  0  0  0  0
  189.1830  172.1040  142.5700 C   0  0  0  0  0  2  0  0  0  0  0  0
  190.8470  171.2370  141.4100 C   0  0  0  0  0  1  0  0  0  0  0  0
  190.1030  171.0540  142.5770 O   0  0  0  0  0  0  0  0  0  0  0  0
  1  4  1  0  0  0  0
  2  7  1  0  0  0  0
  2  6  1  0  0  0  0
  3  2  2  0  0  0  0
  4  6  2  0  0  0  0
  5  3  1  0  0  0  0
  5  1  2  0  0  0  0
  8  7  1  0  0  0  0
  8  9  1  0  0  0  0
  9 10  1  0  0  0  0
 11 10  1  0  0  0  0
 12 25  1  0  0  0  0
 12 21  1  6  0  0  0
 14 13  1  6  0  0  0
 14 18  1  0  0  0  0
 14 19  1  0  0  0  0
 15 11  1  1  0  0  0
 17 24  1  0  0  0  0
 17 22  1  0  0  0  0
 18 24  1  1  0  0  0
 18 27  1  0  0  0  0
 19 25  1  1  0  0  0
 19 15  1  0  0  0  0
 22 16  1  0  0  0  0
 24 16  1  0  0  0  0
 24 21  1  0  0  0  0
 26 14  1  0  0  0  0
 26 28  1  0  0  0  0
 27 23  1  6  0  0  0
 27 15  1  0  0  0  0
 28 20  1  6  0  0  0
 28 12  1  0  0  0  0
 29  5  1  0  0  0  0
 30 29  1  0  0  0  0
 31 41  1  0  0  0  0
 31 30  1  1  0  0  0
 33 38  1  6  0  0  0
 33 36  1  0  0  0  0
 34 37  1  0  0  0  0
 35 34  1  0  0  0  0
 35 33  1  0  0  0  0
 36 32  1  0  0  0  0
 37 31  1  6  0  0  0
 37 32  1  0  0  0  0
 38 39  1  0  0  0  0
 40 38  1  0  0  0  0
 40 39  1  0  0  0  0
 42 45  1  0  0  0  0
 42 41  1  0  0  0  0
 43 44  1  0  0  0  0
 45 46  2  0  0  0  0
 45 48  1  0  0  0  0
 46 47  1  0  0  0  0
 47 44  2  0  0  0  0
 48 43  2  0  0  0  0
 49 48  1  0  0  0  0
 50 52  1  0  0  0  0
 50 49  1  0  0  0  0
 51 50  2  0  0  0  0
 52 53  1  0  0  0  0
 53 55  1  0  0  0  0
 54 55  1  0  0  0  0
M  END
>  <MODEL>
3

>  <REMARK>
 VINA RESULT:      -6.9      2.820      7.259
  Name = 
  18 active torsions:
  status: ('A' for Active; 'I' for Inactive)
    1  A    between atoms: O_2  and  C_28
    2  A    between atoms: O_2  and  C_44
    3  A    between atoms: C_4  and  O_37
    4  A    between atoms: C_4  and  N_40
    5  A    between atoms: C_5  and  C_45
    6  A    between atoms: C_7  and  N_22
    7  A    between atoms: C_8  and  N_22
    8  A    between atoms: C_8  and  C_43
    9  A    between atoms: C_10  and  N_32
   10  A    between atoms: C_16  and  C_36
   11  A    between atoms: C_26  and  C_45
   12  A    between atoms: C_27  and  C_54
   13  A    between atoms: C_28  and  C_49
   14  A    between atoms: N_33  and  C_36
   15  A    between atoms: N_33  and  C_49
   16  A    between atoms: C_43  and  C_51
   17  A    between atoms: C_49  and  C_52
   18  A    between atoms: C_51  and  C_54
                            x       y       z     vdW  Elec       q    Type
                         _______ _______ _______ _____ _____    ______ ____

>  <TORSDO>
F 18

$$$$
=
 OpenBabel11052419303D

 55 62  0  0  1  0  0  0  0  0999 V2000
  186.4830  177.2090  140.4620 C   0  0  0  0  0  3  0  0  0  0  0  0
  186.3850  178.0830  143.1200 C   0  0  0  0  0  0  0  0  0  0  0  0
  187.3040  177.1000  142.7400 C   0  0  0  0  0  3  0  0  0  0  0  0
  185.5650  178.1910  140.8410 C   0  0  0  0  0  3  0  0  0  0  0  0
  187.3580  176.6590  141.4050 C   0  0  0  0  0  0  0  0  0  0  0  0
  185.5150  178.6290  142.1680 C   0  0  0  0  0  3  0  0  0  0  0  0
  186.3470  178.5590  144.5310 C   0  0  0  0  0  2  0  0  0  0  0  0
  185.1070  178.0360  145.2290 C   0  0  0  0  0  2  0  0  0  0  0  0
  185.4620  176.8150  146.0500 C   0  0  0  0  0  2  0  0  0  0  0  0
  186.8500  176.9700  146.6470 C   0  0  0  0  0  2  0  0  0  0  0  0
  187.6110  175.7440  146.4710 N   0  0  0  0  0  2  0  0  0  0  0  0
  190.2610  174.3510  144.5060 C   0  0  2  0  0  3  0  0  0  0  0  0
  191.7980  175.7180  148.1420 C   0  0  0  0  0  1  0  0  0  0  0  0
  191.2530  175.5060  146.7370 C   0  0  2  0  0  0  0  0  0  0  0  0
  188.8950  175.9390  147.1320 C   0  0  1  0  0  3  0  0  0  0  0  0
  190.4990  178.2300  143.9960 C   0  0  0  0  0  2  0  0  0  0  0  0
  192.2460  176.9920  143.9280 C   0  0  0  0  0  2  0  0  0  0  0  0
  190.9230  176.8760  146.1120 C   0  0  1  0  0  3  0  0  0  0  0  0
  189.8850  174.8120  146.8220 C   0  0  1  0  0  3  0  0  0  0  0  0
  191.9270  172.5130  144.7810 C   0  0  0  0  0  1  0  0  0  0  0  0
  190.0150  175.7580  143.9310 C   0  0  0  0  0  2  0  0  0  0  0  0
  191.8710  178.3450  143.3580 C   0  0  0  0  0  2  0  0  0  0  0  0
  189.6800  178.0900  147.7380 F   0  0  0  0  0  0  0  0  0  0  0  0
  190.8690  176.8710  144.5650 C   0  0  0  0  0  0  0  0  0  0  0  0
  189.4830  174.0760  145.6620 O   0  0  0  0  0  0  0  0  0  0  0  0
  192.2880  174.6630  145.9760 C   0  0  0  0  0  2  0  0  0  0  0  0
  189.5400  177.2350  146.6620 C   0  0  2  0  0  3  0  0  0  0  0  0
  191.7380  174.0140  144.7070 C   0  0  2  0  0  3  0  0  0  0  0  0
  188.2580  175.6750  140.9920 O   0  0  0  0  0  0  0  0  0  0  0  0
  188.0570  174.8840  139.8240 C   0  0  0  0  0  2  0  0  0  0  0  0
  189.1770  173.8580  139.6670 C   0  0  2  0  0  3  0  0  0  0  0  0
  190.8850  173.8780  137.8390 C   0  0  0  0  0  2  0  0  0  0  0  0
  190.8910  172.1310  136.0530 N   0  0  1  0  0  0  0  0  0  0  0  0
  189.2000  172.0410  137.8850 C   0  0  0  0  0  2  0  0  0  0  0  0
  189.5140  171.7640  136.4120 C   0  0  0  0  0  2  0  0  0  0  0  0
  191.1530  173.5450  136.3690 C   0  0  0  0  0  2  0  0  0  0  0  0
  189.4520  173.5140  138.2000 C   0  0  1  0  0  3  0  0  0  0  0  0
  191.8430  171.2660  136.7490 C   0  0  0  0  0  3  0  0  0  0  0  0
  193.2530  171.5690  136.2780 C   0  0  0  0  0  2  0  0  0  0  0  0
  192.5270  170.3530  135.7490 C   0  0  0  0  0  2  0  0  0  0  0  0
  188.8980  172.6630  140.4590 N   0  0  0  0  0  2  0  0  0  0  0  0
  189.8920  172.5750  141.5200 C   0  0  0  0  0  2  0  0  0  0  0  0
  193.4930  171.9020  140.4450 C   0  0  0  0  0  3  0  0  0  0  0  0
  193.4070  170.5540  140.0890 C   0  0  0  0  0  3  0  0  0  0  0  0
  191.1360  171.8990  141.0280 C   0  0  0  0  0  0  0  0  0  0  0  0
  191.0610  170.5490  140.6690 C   0  0  0  0  0  3  0  0  0  0  0  0
  192.1910  169.8780  140.2000 C   0  0  0  0  0  3  0  0  0  0  0  0
  192.3630  172.5860  140.9100 C   0  0  0  0  0  0  0  0  0  0  0  0
  192.4910  174.0340  141.2700 C   0  0  0  0  0  2  0  0  0  0  0  0
  193.7450  174.6220  140.6990 C   0  0  0  0  0  0  0  0  0  0  0  0
  193.7790  174.9360  139.4800 O   0  0  0  0  0  0  0  0  0  0  0  0
  194.9110  174.8180  141.5040 N   0  0  0  0  0  2  0  0  0  0  0  0
  194.9360  174.5760  142.9400 C   0  0  0  0  0  2  0  0  0  0  0  0
  195.6040  173.2540  144.5740 C   0  0  0  0  0  1  0  0  0  0  0  0
  195.4120  173.2890  143.1930 O   0  0  0  0  0  0  0  0  0  0  0  0
  1  4  2  0  0  0  0
  1  5  1  0  0  0  0
  2  7  1  0  0  0  0
  3  2  1  0  0  0  0
  4  6  1  0  0  0  0
  5  3  2  0  0  0  0
  6  2  2  0  0  0  0
  7  8  1  0  0  0  0
  8  9  1  0  0  0  0
  9 10  1  0  0  0  0
 11 10  1  0  0  0  0
 12 21  1  1  0  0  0
 12 28  1  0  0  0  0
 12 25  1  0  0  0  0
 14 19  1  0  0  0  0
 14 13  1  1  0  0  0
 15 11  1  6  0  0  0
 16 24  1  0  0  0  0
 17 24  1  0  0  0  0
 18 24  1  6  0  0  0
 18 27  1  0  0  0  0
 18 14  1  0  0  0  0
 19 25  1  6  0  0  0
 19 15  1  0  0  0  0
 21 24  1  0  0  0  0
 22 17  1  0  0  0  0
 22 16  1  0  0  0  0
 26 14  1  0  0  0  0
 27 15  1  0  0  0  0
 27 23  1  1  0  0  0
 28 20  1  1  0  0  0
 28 26  1  0  0  0  0
 29  5  1  0  0  0  0
 30 29  1  0  0  0  0
 31 30  1  6  0  0  0
 31 41  1  0  0  0  0
 32 37  1  0  0  0  0
 33 36  1  0  0  0  0
 33 35  1  0  0  0  0
 33 38  1  1  0  0  0
 34 37  1  0  0  0  0
 35 34  1  0  0  0  0
 36 32  1  0  0  0  0
 37 31  1  1  0  0  0
 39 38  1  0  0  0  0
 40 39  1  0  0  0  0
 40 38  1  0  0  0  0
 41 42  1  0  0  0  0
 43 48  1  0  0  0  0
 44 47  1  0  0  0  0
 44 43  2  0  0  0  0
 45 42  1  0  0  0  0
 46 45  1  0  0  0  0
 47 46  2  0  0  0  0
 48 45  2  0  0  0  0
 48 49  1  0  0  0  0
 50 49  1  0  0  0  0
 50 52  1  0  0  0  0
 51 50  2  0  0  0  0
 52 53  1  0  0  0  0
 53 55  1  0  0  0  0
 55 54  1  0  0  0  0
M  END
>  <MODEL>
4

>  <REMARK>
 VINA RESULT:      -6.7      2.549      7.474
  Name = 
  18 active torsions:
  status: ('A' for Active; 'I' for Inactive)
    1  A    between atoms: O_2  and  C_28
    2  A    between atoms: O_2  and  C_44
    3  A    between atoms: C_4  and  O_37
    4  A    between atoms: C_4  and  N_40
    5  A    between atoms: C_5  and  C_45
    6  A    between atoms: C_7  and  N_22
    7  A    between atoms: C_8  and  N_22
    8  A    between atoms: C_8  and  C_43
    9  A    between atoms: C_10  and  N_32
   10  A    between atoms: C_16  and  C_36
   11  A    between atoms: C_26  and  C_45
   12  A    between atoms: C_27  and  C_54
   13  A    between atoms: C_28  and  C_49
   14  A    between atoms: N_33  and  C_36
   15  A    between atoms: N_33  and  C_49
   16  A    between atoms: C_43  and  C_51
   17  A    between atoms: C_49  and  C_52
   18  A    between atoms: C_51  and  C_54
                            x       y       z     vdW  Elec       q    Type
                         _______ _______ _______ _____ _____    ______ ____

>  <TORSDO>
F 18

$$$$
=
 OpenBabel11052419303D

 55 62  0  0  1  0  0  0  0  0999 V2000
  190.0760  173.6710  138.4930 C   0  0  0  0  0  3  0  0  0  0  0  0
  189.3840  172.6610  141.0110 C   0  0  0  0  0  0  0  0  0  0  0  0
  190.6980  173.0640  140.7560 C   0  0  0  0  0  3  0  0  0  0  0  0
  188.7640  173.2690  138.7480 C   0  0  0  0  0  3  0  0  0  0  0  0
  191.0510  173.5730  139.4920 C   0  0  0  0  0  0  0  0  0  0  0  0
  188.4150  172.7660  140.0050 C   0  0  0  0  0  3  0  0  0  0  0  0
  189.0130  172.1420  142.3570 C   0  0  0  0  0  2  0  0  0  0  0  0
  190.1790  172.2830  143.3150 C   0  0  0  0  0  2  0  0  0  0  0  0
  189.6660  172.3240  144.7380 C   0  0  0  0  0  2  0  0  0  0  0  0
  190.0470  173.6390  145.3950 C   0  0  0  0  0  2  0  0  0  0  0  0
  188.9620  174.5980  145.2640 N   0  0  0  0  0  2  0  0  0  0  0  0
  186.9290  176.0380  142.6910 C   0  0  2  0  0  3  0  0  0  0  0  0
  190.4160  178.2940  143.1340 C   0  0  0  0  0  1  0  0  0  0  0  0
  189.0520  177.6240  143.2100 C   0  0  2  0  0  0  0  0  0  0  0  0
  189.5460  175.8440  144.7880 C   0  0  1  0  0  3  0  0  0  0  0  0
  186.2320  178.1740  145.9030 C   0  0  0  0  0  2  0  0  0  0  0  0
  186.1320  179.0430  143.9480 C   0  0  0  0  0  2  0  0  0  0  0  0
  188.3830  177.9940  144.5490 C   0  0  1  0  0  3  0  0  0  0  0  0
  189.2380  176.1030  143.3100 C   0  0  1  0  0  3  0  0  0  0  0  0
  187.2020  176.5570  140.2650 C   0  0  0  0  0  1  0  0  0  0  0  0
  186.3040  176.5010  144.0210 C   0  0  0  0  0  2  0  0  0  0  0  0
  185.5210  179.3690  145.2960 C   0  0  0  0  0  2  0  0  0  0  0  0
  190.0140  177.6490  146.2480 F   0  0  0  0  0  0  0  0  0  0  0  0
  186.8430  177.8420  144.5520 C   0  0  0  0  0  0  0  0  0  0  0  0
  188.1350  175.3080  142.8650 O   0  0  0  0  0  0  0  0  0  0  0  0
  188.2790  178.0370  141.9480 C   0  0  0  0  0  2  0  0  0  0  0  0
  188.9870  177.0240  145.5690 C   0  0  2  0  0  3  0  0  0  0  0  0
  187.0700  177.1510  141.6520 C   0  0  2  0  0  3  0  0  0  0  0  0
  192.3550  173.9780  139.2010 O   0  0  0  0  0  0  0  0  0  0  0  0
  193.4860  173.5370  139.9470 C   0  0  0  0  0  2  0  0  0  0  0  0
  194.3370  174.7250  140.3900 C   0  0  2  0  0  3  0  0  0  0  0  0
  196.5470  173.7740  139.7020 C   0  0  0  0  0  2  0  0  0  0  0  0
  197.4440  174.1190  137.3960 N   0  0  1  0  0  0  0  0  0  0  0  0
  195.2110  175.0420  138.0210 C   0  0  0  0  0  2  0  0  0  0  0  0
  196.4870  175.2170  137.1920 C   0  0  0  0  0  2  0  0  0  0  0  0
  197.7820  173.9810  138.8220 C   0  0  0  0  0  2  0  0  0  0  0  0
  195.5690  174.9230  139.5020 C   0  0  1  0  0  3  0  0  0  0  0  0
  196.8950  172.8670  136.8770 C   0  0  0  0  0  3  0  0  0  0  0  0
  197.9410  171.7720  136.9640 C   0  0  0  0  0  2  0  0  0  0  0  0
  197.6660  172.4470  135.6390 C   0  0  0  0  0  2  0  0  0  0  0  0
  194.7000  174.6040  141.7990 N   0  0  0  0  0  2  0  0  0  0  0  0
  193.5390  174.1160  142.5300 C   0  0  0  0  0  2  0  0  0  0  0  0
  193.3440  174.7900  146.2820 C   0  0  0  0  0  3  0  0  0  0  0  0
  193.1670  176.1760  146.2860 C   0  0  0  0  0  3  0  0  0  0  0  0
  193.4160  174.8050  143.8560 C   0  0  0  0  0  0  0  0  0  0  0  0
  193.2390  176.1920  143.8700 C   0  0  0  0  0  3  0  0  0  0  0  0
  193.1130  176.8760  145.0790 C   0  0  0  0  0  3  0  0  0  0  0  0
  193.4640  174.0930  145.0740 C   0  0  0  0  0  0  0  0  0  0  0  0
  193.6400  172.6070  145.1100 C   0  0  0  0  0  2  0  0  0  0  0  0
  195.0520  172.2410  145.4520 C   0  0  0  0  0  0  0  0  0  0  0  0
  195.9160  173.1500  145.5590 O   0  0  0  0  0  0  0  0  0  0  0  0
  195.4430  170.8780  145.6420 N   0  0  0  0  0  2  0  0  0  0  0  0
  194.4990  169.7710  145.6330 C   0  0  0  0  0  2  0  0  0  0  0  0
  196.3910  168.9240  146.3880 C   0  0  0  0  0  1  0  0  0  0  0  0
  195.0130  168.7060  146.3740 O   0  0  0  0  0  0  0  0  0  0  0  0
  1  4  2  0  0  0  0
  1  5  1  0  0  0  0
  2  7  1  0  0  0  0
  3  2  1  0  0  0  0
  4  6  1  0  0  0  0
  5  3  2  0  0  0  0
  6  2  2  0  0  0  0
  7  8  1  0  0  0  0
  8  9  1  0  0  0  0
  9 10  1  0  0  0  0
 11 10  1  0  0  0  0
 12 25  1  0  0  0  0
 12 21  1  1  0  0  0
 14 13  1  6  0  0  0
 14 19  1  0  0  0  0
 14 18  1  0  0  0  0
 15 11  1  1  0  0  0
 15 27  1  0  0  0  0
 17 24  1  0  0  0  0
 17 22  1  0  0  0  0
 18 24  1  6  0  0  0
 18 27  1  0  0  0  0
 19 25  1  1  0  0  0
 19 15  1  0  0  0  0
 21 24  1  0  0  0  0
 22 16  1  0  0  0  0
 24 16  1  0  0  0  0
 26 14  1  0  0  0  0
 27 23  1  6  0  0  0
 28 20  1  6  0  0  0
 28 26  1  0  0  0  0
 28 12  1  0  0  0  0
 29  5  1  0  0  0  0
 29 30  1  0  0  0  0
 31 30  1  6  0  0  0
 31 41  1  0  0  0  0
 33 38  1  1  0  0  0
 33 36  1  0  0  0  0
 34 37  1  0  0  0  0
 35 33  1  0  0  0  0
 35 34  1  0  0  0  0
 36 32  1  0  0  0  0
 37 32  1  0  0  0  0
 37 31  1  1  0  0  0
 38 39  1  0  0  0  0
 40 38  1  0  0  0  0
 40 39  1  0  0  0  0
 41 42  1  0  0  0  0
 42 45  1  0  0  0  0
 43 44  1  0  0  0  0
 45 46  2  0  0  0  0
 45 48  1  0  0  0  0
 46 47  1  0  0  0  0
 47 44  2  0  0  0  0
 48 49  1  0  0  0  0
 48 43  2  0  0  0  0
 49 50  1  0  0  0  0
 50 51  2  0  0  0  0
 50 52  1  0  0  0  0
 53 52  1  0  0  0  0
 53 55  1  0  0  0  0
 55 54  1  0  0  0  0
M  END
>  <MODEL>
5

>  <REMARK>
 VINA RESULT:      -6.6      2.907      8.761
  Name = 
  18 active torsions:
  status: ('A' for Active; 'I' for Inactive)
    1  A    between atoms: O_2  and  C_28
    2  A    between atoms: O_2  and  C_44
    3  A    between atoms: C_4  and  O_37
    4  A    between atoms: C_4  and  N_40
    5  A    between atoms: C_5  and  C_45
    6  A    between atoms: C_7  and  N_22
    7  A    between atoms: C_8  and  N_22
    8  A    between atoms: C_8  and  C_43
    9  A    between atoms: C_10  and  N_32
   10  A    between atoms: C_16  and  C_36
   11  A    between atoms: C_26  and  C_45
   12  A    between atoms: C_27  and  C_54
   13  A    between atoms: C_28  and  C_49
   14  A    between atoms: N_33  and  C_36
   15  A    between atoms: N_33  and  C_49
   16  A    between atoms: C_43  and  C_51
   17  A    between atoms: C_49  and  C_52
   18  A    between atoms: C_51  and  C_54
                            x       y       z     vdW  Elec       q    Type
                         _______ _______ _______ _____ _____    ______ ____

>  <TORSDO>
F 18

$$$$
=
 OpenBabel11052419303D

 55 62  0  0  1  0  0  0  0  0999 V2000
  189.0540  177.2800  145.3280 C   0  0  0  0  0  3  0  0  0  0  0  0
  191.1640  176.0150  146.6620 C   0  0  0  0  0  0  0  0  0  0  0  0
  190.9500  175.7720  145.3020 C   0  0  0  0  0  3  0  0  0  0  0  0
  189.2670  177.5240  146.6860 C   0  0  0  0  0  3  0  0  0  0  0  0
  189.8910  176.4060  144.6270 C   0  0  0  0  0  0  0  0  0  0  0  0
  190.3220  176.8940  147.3540 C   0  0  0  0  0  3  0  0  0  0  0  0
  192.2990  175.3550  147.3660 C   0  0  0  0  0  2  0  0  0  0  0  0
  193.5460  175.3940  146.5040 C   0  0  0  0  0  2  0  0  0  0  0  0
  194.1270  176.7920  146.5120 C   0  0  0  0  0  2  0  0  0  0  0  0
  194.9960  177.0060  145.2860 C   0  0  0  0  0  2  0  0  0  0  0  0
  194.5250  176.1760  144.1880 N   0  0  0  0  0  2  0  0  0  0  0  0
  193.5540  172.9970  142.8550 C   0  0  2  0  0  3  0  0  0  0  0  0
  197.7150  173.3510  142.7170 C   0  0  0  0  0  1  0  0  0  0  0  0
  196.2060  173.3870  142.5190 C   0  0  2  0  0  0  0  0  0  0  0  0
  195.6830  175.4680  143.6600 C   0  0  1  0  0  3  0  0  0  0  0  0
  194.1720  175.3000  139.7440 C   0  0  0  0  0  2  0  0  0  0  0  0
  194.5280  173.1900  139.6510 C   0  0  0  0  0  2  0  0  0  0  0  0
  195.8630  174.4330  141.4400 C   0  0  1  0  0  3  0  0  0  0  0  0
  195.5410  173.9480  143.7850 C   0  0  1  0  0  3  0  0  0  0  0  0
  194.0280  170.6050  143.3870 C   0  0  0  0  0  1  0  0  0  0  0  0
  193.2990  174.0150  141.7270 C   0  0  0  0  0  2  0  0  0  0  0  0
  194.2110  174.2670  138.6330 C   0  0  0  0  0  2  0  0  0  0  0  0
  197.0750  176.4070  141.9890 F   0  0  0  0  0  0  0  0  0  0  0  0
  194.4860  174.2230  140.7670 C   0  0  0  0  0  0  0  0  0  0  0  0
  194.1770  173.5720  143.9950 O   0  0  0  0  0  0  0  0  0  0  0  0
  195.7590  171.9490  142.2140 C   0  0  0  0  0  2  0  0  0  0  0  0
  195.8620  175.7740  142.1800 C   0  0  2  0  0  3  0  0  0  0  0  0
  194.2580  171.7220  142.3910 C   0  0  2  0  0  3  0  0  0  0  0  0
  189.6450  176.1820  143.2710 O   0  0  0  0  0  0  0  0  0  0  0  0
  189.2850  177.2240  142.3680 C   0  0  0  0  0  2  0  0  0  0  0  0
  187.9930  176.8780  141.6310 C   0  0  2  0  0  3  0  0  0  0  0  0
  185.9110  176.7490  143.0130 C   0  0  0  0  0  2  0  0  0  0  0  0
  185.0900  178.7240  144.3050 N   0  0  1  0  0  0  0  0  0  0  0  0
  187.2000  178.8830  142.9820 C   0  0  0  0  0  2  0  0  0  0  0  0
  185.9530  179.6030  143.5010 C   0  0  0  0  0  2  0  0  0  0  0  0
  184.7030  177.5300  143.5360 C   0  0  0  0  0  2  0  0  0  0  0  0
  186.7900  177.6590  142.1650 C   0  0  1  0  0  3  0  0  0  0  0  0
  185.7730  178.3380  145.5390 C   0  0  0  0  0  3  0  0  0  0  0  0
  184.8140  177.5860  146.4430 C   0  0  0  0  0  2  0  0  0  0  0  0
  185.1260  179.0390  146.7190 C   0  0  0  0  0  2  0  0  0  0  0  0
  187.7560  175.4370  141.6530 N   0  0  0  0  0  2  0  0  0  0  0  0
  188.4940  174.8360  140.5510 C   0  0  0  0  0  2  0  0  0  0  0  0
  190.7580  171.7650  140.6550 C   0  0  0  0  0  3  0  0  0  0  0  0
  190.4150  171.2340  141.9000 C   0  0  0  0  0  3  0  0  0  0  0  0
  189.1850  173.5810  140.9940 C   0  0  0  0  0  0  0  0  0  0  0  0
  188.8480  173.0430  142.2400 C   0  0  0  0  0  3  0  0  0  0  0  0
  189.4590  171.8730  142.6930 C   0  0  0  0  0  3  0  0  0  0  0  0
  190.1460  172.9340  140.1880 C   0  0  0  0  0  0  0  0  0  0  0  0
  190.5310  173.4650  138.8430 C   0  0  0  0  0  2  0  0  0  0  0  0
  189.8800  172.6770  137.7460 C   0  0  0  0  0  0  0  0  0  0  0  0
  188.6570  172.8510  137.5060 O   0  0  0  0  0  0  0  0  0  0  0  0
  190.6160  171.7210  136.9780 N   0  0  0  0  0  2  0  0  0  0  0  0
  192.0510  171.5220  137.1190 C   0  0  0  0  0  2  0  0  0  0  0  0
  191.1850  169.6670  136.2970 C   0  0  0  0  0  1  0  0  0  0  0  0
  192.4010  170.2570  136.6450 O   0  0  0  0  0  0  0  0  0  0  0  0
  1  4  1  0  0  0  0
  2  6  1  0  0  0  0
  2  7  1  0  0  0  0
  3  2  2  0  0  0  0
  4  6  2  0  0  0  0
  5  3  1  0  0  0  0
  5  1  2  0  0  0  0
  8  9  1  0  0  0  0
  8  7  1  0  0  0  0
 10  9  1  0  0  0  0
 11 10  1  0  0  0  0
 12 21  1  6  0  0  0
 12 25  1  0  0  0  0
 14 13  1  1  0  0  0
 14 19  1  0  0  0  0
 15 19  1  0  0  0  0
 15 11  1  6  0  0  0
 16 24  1  0  0  0  0
 17 24  1  0  0  0  0
 18 24  1  1  0  0  0
 18 27  1  0  0  0  0
 18 14  1  0  0  0  0
 19 25  1  6  0  0  0
 22 17  1  0  0  0  0
 22 16  1  0  0  0  0
 24 21  1  0  0  0  0
 26 28  1  0  0  0  0
 26 14  1  0  0  0  0
 27 23  1  1  0  0  0
 27 15  1  0  0  0  0
 28 12  1  0  0  0  0
 28 20  1  1  0  0  0
 29  5  1  0  0  0  0
 30 29  1  0  0  0  0
 31 41  1  0  0  0  0
 31 30  1  1  0  0  0
 32 36  1  0  0  0  0
 33 38  1  1  0  0  0
 34 35  1  0  0  0  0
 35 33  1  0  0  0  0
 36 33  1  0  0  0  0
 37 31  1  1  0  0  0
 37 34  1  0  0  0  0
 37 32  1  0  0  0  0
 38 39  1  0  0  0  0
 38 40  1  0  0  0  0
 39 40  1  0  0  0  0
 42 45  1  0  0  0  0
 42 41  1  0  0  0  0
 43 44  1  0  0  0  0
 44 47  2  0  0  0  0
 45 46  2  0  0  0  0
 46 47  1  0  0  0  0
 48 43  2  0  0  0  0
 48 45  1  0  0  0  0
 49 48  1  0  0  0  0
 50 49  1  0  0  0  0
 51 50  2  0  0  0  0
 52 53  1  0  0  0  0
 52 50  1  0  0  0  0
 54 55  1  0  0  0  0
 55 53  1  0  0  0  0
M  END
>  <MODEL>
6

>  <REMARK>
 VINA RESULT:      -6.5      2.306      6.797
  Name = 
  18 active torsions:
  status: ('A' for Active; 'I' for Inactive)
    1  A    between atoms: O_2  and  C_28
    2  A    between atoms: O_2  and  C_44
    3  A    between atoms: C_4  and  O_37
    4  A    between atoms: C_4  and  N_40
    5  A    between atoms: C_5  and  C_45
    6  A    between atoms: C_7  and  N_22
    7  A    between atoms: C_8  and  N_22
    8  A    between atoms: C_8  and  C_43
    9  A    between atoms: C_10  and  N_32
   10  A    between atoms: C_16  and  C_36
   11  A    between atoms: C_26  and  C_45
   12  A    between atoms: C_27  and  C_54
   13  A    between atoms: C_28  and  C_49
   14  A    between atoms: N_33  and  C_36
   15  A    between atoms: N_33  and  C_49
   16  A    between atoms: C_43  and  C_51
   17  A    between atoms: C_49  and  C_52
   18  A    between atoms: C_51  and  C_54
                            x       y       z     vdW  Elec       q    Type
                         _______ _______ _______ _____ _____    ______ ____

>  <TORSDO>
F 18

$$$$
=
 OpenBabel11052419303D

 55 62  0  0  1  0  0  0  0  0999 V2000
  189.2420  174.9000  146.1160 C   0  0  0  0  0  3  0  0  0  0  0  0
  191.7960  175.9000  146.6790 C   0  0  0  0  0  0  0  0  0  0  0  0
  191.4660  175.5160  145.3750 C   0  0  0  0  0  3  0  0  0  0  0  0
  189.5710  175.2830  147.4180 C   0  0  0  0  0  3  0  0  0  0  0  0
  190.1830  175.0150  145.0880 C   0  0  0  0  0  0  0  0  0  0  0  0
  190.8460  175.7840  147.7010 C   0  0  0  0  0  3  0  0  0  0  0  0
  193.1490  176.4480  146.9720 C   0  0  0  0  0  2  0  0  0  0  0  0
  194.1940  175.7560  146.1190 C   0  0  0  0  0  2  0  0  0  0  0  0
  194.9400  176.7840  145.2950 C   0  0  0  0  0  2  0  0  0  0  0  0
  195.6690  176.1070  144.1480 C   0  0  0  0  0  2  0  0  0  0  0  0
  196.5560  175.0740  144.6580 N   0  0  0  0  0  2  0  0  0  0  0  0
  195.8390  171.7440  145.7630 C   0  0  2  0  0  3  0  0  0  0  0  0
  197.3560  171.6220  141.8720 C   0  0  0  0  0  1  0  0  0  0  0  0
  196.5470  171.7380  143.1560 C   0  0  2  0  0  0  0  0  0  0  0  0
  196.7680  174.1210  143.5780 C   0  0  1  0  0  3  0  0  0  0  0  0
  192.7780  172.8030  143.5560 C   0  0  0  0  0  2  0  0  0  0  0  0
  193.4080  170.7590  143.6730 C   0  0  0  0  0  2  0  0  0  0  0  0
  195.1880  172.3910  142.8390 C   0  0  1  0  0  3  0  0  0  0  0  0
  197.2220  172.7510  144.0920 C   0  0  1  0  0  3  0  0  0  0  0  0
  197.1370  169.6330  146.0650 C   0  0  0  0  0  1  0  0  0  0  0  0
  194.4810  172.3460  145.3550 C   0  0  0  0  0  2  0  0  0  0  0  0
  192.1040  171.4590  143.3480 C   0  0  0  0  0  2  0  0  0  0  0  0
  195.6430  174.3060  141.5010 F   0  0  0  0  0  0  0  0  0  0  0  0
  194.0860  172.1040  143.8860 C   0  0  0  0  0  0  0  0  0  0  0  0
  196.9370  172.6020  145.4870 O   0  0  0  0  0  0  0  0  0  0  0  0
  196.4790  170.3310  143.7710 C   0  0  0  0  0  2  0  0  0  0  0  0
  195.4740  173.8950  142.8080 C   0  0  2  0  0  3  0  0  0  0  0  0
  196.0680  170.3250  145.2430 C   0  0  2  0  0  3  0  0  0  0  0  0
  189.8220  174.6170  143.7990 O   0  0  0  0  0  0  0  0  0  0  0  0
  190.0700  175.4160  142.6450 C   0  0  0  0  0  2  0  0  0  0  0  0
  188.9220  175.2920  141.6450 C   0  0  2  0  0  3  0  0  0  0  0  0
  186.7370  175.7430  142.7770 C   0  0  0  0  0  2  0  0  0  0  0  0
  186.1470  178.0320  143.5880 N   0  0  1  0  0  0  0  0  0  0  0  0
  188.3600  177.6180  142.5110 C   0  0  0  0  0  2  0  0  0  0  0  0
  187.2090  178.6000  142.7440 C   0  0  0  0  0  2  0  0  0  0  0  0
  185.6340  176.7800  143.0070 C   0  0  0  0  0  2  0  0  0  0  0  0
  187.8240  176.3300  141.8870 C   0  0  1  0  0  3  0  0  0  0  0  0
  186.6470  177.8000  144.9420 C   0  0  0  0  0  3  0  0  0  0  0  0
  185.5490  177.2020  145.8010 C   0  0  0  0  0  2  0  0  0  0  0  0
  185.8840  178.6710  145.9220 C   0  0  0  0  0  2  0  0  0  0  0  0
  188.3900  173.9320  141.6370 N   0  0  0  0  0  2  0  0  0  0  0  0
  189.4140  173.0430  141.1070 C   0  0  0  0  0  2  0  0  0  0  0  0
  190.9880  173.7630  137.7040 C   0  0  0  0  0  3  0  0  0  0  0  0
  189.8640  173.6830  136.8790 C   0  0  0  0  0  3  0  0  0  0  0  0
  189.6050  173.2680  139.6370 C   0  0  0  0  0  0  0  0  0  0  0  0
  188.4860  173.1890  138.8020 C   0  0  0  0  0  3  0  0  0  0  0  0
  188.6130  173.3970  137.4280 C   0  0  0  0  0  3  0  0  0  0  0  0
  190.8700  173.5630  139.0850 C   0  0  0  0  0  0  0  0  0  0  0  0
  192.0950  173.6700  139.9390 C   0  0  0  0  0  2  0  0  0  0  0  0
  193.0650  172.5710  139.6290 C   0  0  0  0  0  0  0  0  0  0  0  0
  192.7970  171.3940  139.9840 O   0  0  0  0  0  0  0  0  0  0  0  0
  194.2980  172.8330  138.9520 N   0  0  0  0  0  2  0  0  0  0  0  0
  194.6500  174.1420  138.4190 C   0  0  0  0  0  2  0  0  0  0  0  0
  196.6370  173.1920  138.2940 C   0  0  0  0  0  1  0  0  0  0  0  0
  195.7680  174.0290  137.5920 O   0  0  0  0  0  0  0  0  0  0  0  0
  1  4  1  0  0  0  0
  2  7  1  0  0  0  0
  2  6  1  0  0  0  0
  3  2  2  0  0  0  0
  4  6  2  0  0  0  0
  5  3  1  0  0  0  0
  5  1  2  0  0  0  0
  8  7  1  0  0  0  0
  9  8  1  0  0  0  0
 10 11  1  0  0  0  0
 10  9  1  0  0  0  0
 12 21  1  6  0  0  0
 14 13  1  6  0  0  0
 14 26  1  0  0  0  0
 14 19  1  0  0  0  0
 15 19  1  0  0  0  0
 15 11  1  1  0  0  0
 16 24  1  0  0  0  0
 17 24  1  0  0  0  0
 18 14  1  0  0  0  0
 18 24  1  1  0  0  0
 19 25  1  1  0  0  0
 22 16  1  0  0  0  0
 22 17  1  0  0  0  0
 24 21  1  0  0  0  0
 25 12  1  0  0  0  0
 26 28  1  0  0  0  0
 27 23  1  6  0  0  0
 27 18  1  0  0  0  0
 27 15  1  0  0  0  0
 28 12  1  0  0  0  0
 28 20  1  1  0  0  0
 29  5  1  0  0  0  0
 30 29  1  0  0  0  0
 31 30  1  1  0  0  0
 32 36  1  0  0  0  0
 33 38  1  1  0  0  0
 34 35  1  0  0  0  0
 35 33  1  0  0  0  0
 36 33  1  0  0  0  0
 37 31  1  1  0  0  0
 37 34  1  0  0  0  0
 37 32  1  0  0  0  0
 38 39  1  0  0  0  0
 38 40  1  0  0  0  0
 39 40  1  0  0  0  0
 41 31  1  0  0  0  0
 42 41  1  0  0  0  0
 43 48  1  0  0  0  0
 44 47  1  0  0  0  0
 44 43  2  0  0  0  0
 45 42  1  0  0  0  0
 46 45  1  0  0  0  0
 47 46  2  0  0  0  0
 48 45  2  0  0  0  0
 48 49  1  0  0  0  0
 50 49  1  0  0  0  0
 50 51  2  0  0  0  0
 52 50  1  0  0  0  0
 53 52  1  0  0  0  0
 55 54  1  0  0  0  0
 55 53  1  0  0  0  0
M  END
>  <MODEL>
7

>  <REMARK>
 VINA RESULT:      -6.5      1.874      6.059
  Name = 
  18 active torsions:
  status: ('A' for Active; 'I' for Inactive)
    1  A    between atoms: O_2  and  C_28
    2  A    between atoms: O_2  and  C_44
    3  A    between atoms: C_4  and  O_37
    4  A    between atoms: C_4  and  N_40
    5  A    between atoms: C_5  and  C_45
    6  A    between atoms: C_7  and  N_22
    7  A    between atoms: C_8  and  N_22
    8  A    between atoms: C_8  and  C_43
    9  A    between atoms: C_10  and  N_32
   10  A    between atoms: C_16  and  C_36
   11  A    between atoms: C_26  and  C_45
   12  A    between atoms: C_27  and  C_54
   13  A    between atoms: C_28  and  C_49
   14  A    between atoms: N_33  and  C_36
   15  A    between atoms: N_33  and  C_49
   16  A    between atoms: C_43  and  C_51
   17  A    between atoms: C_49  and  C_52
   18  A    between atoms: C_51  and  C_54
                            x       y       z     vdW  Elec       q    Type
                         _______ _______ _______ _____ _____    ______ ____

>  <TORSDO>
F 18

$$$$
=
 OpenBabel11052419303D

 55 62  0  0  1  0  0  0  0  0999 V2000
  189.6900  173.4790  143.9220 C   0  0  0  0  0  3  0  0  0  0  0  0
  192.0380  172.3560  142.8900 C   0  0  0  0  0  0  0  0  0  0  0  0
  191.3640  173.3500  142.1740 C   0  0  0  0  0  3  0  0  0  0  0  0
  190.3630  172.4870  144.6380 C   0  0  0  0  0  3  0  0  0  0  0  0
  190.1840  173.9180  142.6890 C   0  0  0  0  0  0  0  0  0  0  0  0
  191.5370  171.9260  144.1250 C   0  0  0  0  0  3  0  0  0  0  0  0
  193.2970  171.7740  142.3490 C   0  0  0  0  0  2  0  0  0  0  0  0
  192.9980  170.9000  141.1470 C   0  0  0  0  0  2  0  0  0  0  0  0
  194.2030  170.8640  140.2310 C   0  0  0  0  0  2  0  0  0  0  0  0
  193.8080  170.3310  138.8650 C   0  0  0  0  0  2  0  0  0  0  0  0
  192.3910  170.0070  138.8450 N   0  0  0  0  0  2  0  0  0  0  0  0
  190.5480  173.0760  138.7580 C   0  0  2  0  0  3  0  0  0  0  0  0
  190.3410  171.2240  135.0190 C   0  0  0  0  0  1  0  0  0  0  0  0
  190.6840  171.9910  136.2880 C   0  0  2  0  0  0  0  0  0  0  0  0
  191.9100  170.2770  137.4970 C   0  0  1  0  0  3  0  0  0  0  0  0
  194.0250  173.8900  137.1420 C   0  0  0  0  0  2  0  0  0  0  0  0
  192.2490  174.9190  136.5310 C   0  0  0  0  0  2  0  0  0  0  0  0
  192.1750  172.3800  136.2550 C   0  0  1  0  0  3  0  0  0  0  0  0
  190.5850  171.0460  137.4950 C   0  0  1  0  0  3  0  0  0  0  0  0
  188.1910  173.7440  138.2760 C   0  0  0  0  0  1  0  0  0  0  0  0
  192.0290  173.4780  138.6220 C   0  0  0  0  0  2  0  0  0  0  0  0
  193.7310  175.2350  136.5050 C   0  0  0  0  0  2  0  0  0  0  0  0
  193.3810  170.4210  135.6450 F   0  0  0  0  0  0  0  0  0  0  0  0
  192.5400  173.5710  137.1730 C   0  0  0  0  0  0  0  0  0  0  0  0
  190.3490  171.6700  138.7610 O   0  0  0  0  0  0  0  0  0  0  0  0
  189.6950  173.1640  136.3840 C   0  0  0  0  0  2  0  0  0  0  0  0
  192.9160  171.1290  136.7360 C   0  0  2  0  0  3  0  0  0  0  0  0
  189.6200  173.7910  137.7750 C   0  0  2  0  0  3  0  0  0  0  0  0
  189.4820  174.9060  141.9980 O   0  0  0  0  0  0  0  0  0  0  0  0
  188.2530  175.4540  142.4670 C   0  0  0  0  0  2  0  0  0  0  0  0
  188.5080  176.5310  143.5190 C   0  0  2  0  0  3  0  0  0  0  0  0
  187.1620  178.3460  142.4450 C   0  0  0  0  0  2  0  0  0  0  0  0
  184.7190  178.5910  142.9040 N   0  0  1  0  0  0  0  0  0  0  0  0
  186.0090  176.7340  143.9570 C   0  0  0  0  0  2  0  0  0  0  0  0
  184.8600  177.7360  144.0920 C   0  0  0  0  0  2  0  0  0  0  0  0
  185.9770  179.3000  142.6200 C   0  0  0  0  0  2  0  0  0  0  0  0
  187.3160  177.4780  143.6860 C   0  0  1  0  0  3  0  0  0  0  0  0
  184.3100  177.7910  141.7500 C   0  0  0  0  0  3  0  0  0  0  0  0
  184.2500  178.6660  140.5130 C   0  0  0  0  0  2  0  0  0  0  0  0
  182.9740  178.2890  141.2320 C   0  0  0  0  0  2  0  0  0  0  0  0
  189.7400  177.2590  143.2250 N   0  0  0  0  0  2  0  0  0  0  0  0
  190.3230  177.6980  144.4850 C   0  0  0  0  0  2  0  0  0  0  0  0
  192.3020  175.2800  146.6780 C   0  0  0  0  0  3  0  0  0  0  0  0
  193.3060  174.8900  145.7900 C   0  0  0  0  0  3  0  0  0  0  0  0
  191.3460  176.7150  144.9690 C   0  0  0  0  0  0  0  0  0  0  0  0
  192.3560  176.3170  144.0870 C   0  0  0  0  0  3  0  0  0  0  0  0
  193.3330  175.4090  144.4940 C   0  0  0  0  0  3  0  0  0  0  0  0
  191.3200  176.1960  146.2820 C   0  0  0  0  0  0  0  0  0  0  0  0
  190.2670  176.5990  147.2660 C   0  0  0  0  0  2  0  0  0  0  0  0
  189.1030  175.6580  147.2260 C   0  0  0  0  0  0  0  0  0  0  0  0
  189.3130  174.4170  147.2480 O   0  0  0  0  0  0  0  0  0  0  0  0
  187.7580  176.1380  147.1470 N   0  0  0  0  0  2  0  0  0  0  0  0
  187.4120  177.5500  147.2130 C   0  0  0  0  0  2  0  0  0  0  0  0
  185.8460  179.0450  147.6350 C   0  0  0  0  0  1  0  0  0  0  0  0
  186.0300  177.6920  147.3490 O   0  0  0  0  0  0  0  0  0  0  0  0
  1  4  1  0  0  0  0
  2  6  1  0  0  0  0
  3  5  1  0  0  0  0
  3  2  2  0  0  0  0
  5  1  2  0  0  0  0
  6  4  2  0  0  0  0
  7  2  1  0  0  0  0
  8  7  1  0  0  0  0
  9  8  1  0  0  0  0
 10  9  1  0  0  0  0
 11 10  1  0  0  0  0
 12 21  1  6  0  0  0
 12 25  1  0  0  0  0
 14 13  1  6  0  0  0
 14 26  1  0  0  0  0
 14 19  1  0  0  0  0
 15 11  1  1  0  0  0
 16 24  1  0  0  0  0
 17 24  1  0  0  0  0
 18 14  1  0  0  0  0
 18 27  1  0  0  0  0
 18 24  1  1  0  0  0
 19 15  1  0  0  0  0
 19 25  1  1  0  0  0
 22 17  1  0  0  0  0
 22 16  1  0  0  0  0
 24 21  1  0  0  0  0
 26 28  1  0  0  0  0
 27 23  1  6  0  0  0
 27 15  1  0  0  0  0
 28 20  1  1  0  0  0
 28 12  1  0  0  0  0
 29 30  1  0  0  0  0
 29  5  1  0  0  0  0
 31 30  1  6  0  0  0
 32 36  1  0  0  0  0
 32 37  1  0  0  0  0
 33 38  1  6  0  0  0
 33 35  1  0  0  0  0
 34 35  1  0  0  0  0
 36 33  1  0  0  0  0
 37 31  1  6  0  0  0
 37 34  1  0  0  0  0
 39 40  1  0  0  0  0
 39 38  1  0  0  0  0
 40 38  1  0  0  0  0
 41 31  1  0  0  0  0
 41 42  1  0  0  0  0
 42 45  1  0  0  0  0
 44 43  2  0  0  0  0
 45 48  2  0  0  0  0
 46 47  2  0  0  0  0
 46 45  1  0  0  0  0
 47 44  1  0  0  0  0
 48 43  1  0  0  0  0
 48 49  1  0  0  0  0
 50 51  2  0  0  0  0
 50 49  1  0  0  0  0
 52 53  1  0  0  0  0
 52 50  1  0  0  0  0
 53 55  1  0  0  0  0
 55 54  1  0  0  0  0
M  END
>  <MODEL>
8

>  <REMARK>
 VINA RESULT:      -6.5      2.986      7.524
  Name = 
  18 active torsions:
  status: ('A' for Active; 'I' for Inactive)
    1  A    between atoms: O_2  and  C_28
    2  A    between atoms: O_2  and  C_44
    3  A    between atoms: C_4  and  O_37
    4  A    between atoms: C_4  and  N_40
    5  A    between atoms: C_5  and  C_45
    6  A    between atoms: C_7  and  N_22
    7  A    between atoms: C_8  and  N_22
    8  A    between atoms: C_8  and  C_43
    9  A    between atoms: C_10  and  N_32
   10  A    between atoms: C_16  and  C_36
   11  A    between atoms: C_26  and  C_45
   12  A    between atoms: C_27  and  C_54
   13  A    between atoms: C_28  and  C_49
   14  A    between atoms: N_33  and  C_36
   15  A    between atoms: N_33  and  C_49
   16  A    between atoms: C_43  and  C_51
   17  A    between atoms: C_49  and  C_52
   18  A    between atoms: C_51  and  C_54
                            x       y       z     vdW  Elec       q    Type
                         _______ _______ _______ _____ _____    ______ ____

>  <TORSDO>
F 18

$$$$
=
 OpenBabel11052419303D

 55 62  0  0  1  0  0  0  0  0999 V2000
  192.6780  171.4130  139.6570 C   0  0  0  0  0  3  0  0  0  0  0  0
  194.1910  173.6020  138.7870 C   0  0  0  0  0  0  0  0  0  0  0  0
  193.0890  173.8020  139.6240 C   0  0  0  0  0  3  0  0  0  0  0  0
  193.7790  171.2130  138.8220 C   0  0  0  0  0  3  0  0  0  0  0  0
  192.3260  172.7040  140.0640 C   0  0  0  0  0  0  0  0  0  0  0  0
  194.5370  172.3050  138.3870 C   0  0  0  0  0  3  0  0  0  0  0  0
  195.0060  174.7660  138.3400 C   0  0  0  0  0  2  0  0  0  0  0  0
  195.8430  175.2940  139.4890 C   0  0  0  0  0  2  0  0  0  0  0  0
  197.1930  174.6080  139.4910 C   0  0  0  0  0  2  0  0  0  0  0  0
  197.5430  174.1430  140.8930 C   0  0  0  0  0  2  0  0  0  0  0  0
  196.9720  175.0480  141.8780 N   0  0  0  0  0  2  0  0  0  0  0  0
  194.3040  175.8940  144.1120 C   0  0  2  0  0  3  0  0  0  0  0  0
  197.2470  173.7860  146.1960 C   0  0  0  0  0  1  0  0  0  0  0  0
  196.0880  174.2850  145.3450 C   0  0  2  0  0  0  0  0  0  0  0  0
  197.1930  174.4510  143.1870 C   0  0  1  0  0  3  0  0  0  0  0  0
  193.6670  172.1690  143.0730 C   0  0  0  0  0  2  0  0  0  0  0  0
  193.0810  172.9000  144.9990 C   0  0  0  0  0  2  0  0  0  0  0  0
  195.5700  173.1260  144.4700 C   0  0  1  0  0  3  0  0  0  0  0  0
  196.6110  175.3020  144.3200 C   0  0  1  0  0  3  0  0  0  0  0  0
  194.0800  177.1850  146.2370 C   0  0  0  0  0  1  0  0  0  0  0  0
  193.8070  174.6720  143.3160 C   0  0  0  0  0  2  0  0  0  0  0  0
  192.6300  171.7630  144.1030 C   0  0  0  0  0  2  0  0  0  0  0  0
  197.4790  172.1160  143.4690 F   0  0  0  0  0  0  0  0  0  0  0  0
  194.1190  173.3110  143.9660 C   0  0  0  0  0  0  0  0  0  0  0  0
  195.6510  176.2390  143.8220 O   0  0  0  0  0  0  0  0  0  0  0  0
  195.0590  174.9000  146.3060 C   0  0  0  0  0  2  0  0  0  0  0  0
  196.5190  173.0880  143.2680 C   0  0  2  0  0  3  0  0  0  0  0  0
  194.0390  175.8040  145.6150 C   0  0  2  0  0  3  0  0  0  0  0  0
  191.2160  172.8680  140.8950 O   0  0  0  0  0  0  0  0  0  0  0  0
  190.0970  171.9860  140.8710 C   0  0  0  0  0  2  0  0  0  0  0  0
  188.8670  172.6880  140.2990 C   0  0  2  0  0  3  0  0  0  0  0  0
  189.4200  173.8170  138.1360 C   0  0  0  0  0  2  0  0  0  0  0  0
  189.9670  172.4940  136.0880 N   0  0  1  0  0  0  0  0  0  0  0  0
  189.4740  171.3260  138.2370 C   0  0  0  0  0  2  0  0  0  0  0  0
  189.3820  171.2970  136.7090 C   0  0  0  0  0  2  0  0  0  0  0  0
  189.3330  173.7160  136.6100 C   0  0  0  0  0  2  0  0  0  0  0  0
  188.7930  172.5850  138.7740 C   0  0  1  0  0  3  0  0  0  0  0  0
  191.4110  172.5280  136.3200 C   0  0  0  0  0  3  0  0  0  0  0  0
  191.9910  173.8130  135.7590 C   0  0  0  0  0  2  0  0  0  0  0  0
  192.1400  172.5200  134.9890 C   0  0  0  0  0  2  0  0  0  0  0  0
  188.8090  174.0760  140.7510 N   0  0  0  0  0  2  0  0  0  0  0  0
  187.9120  174.1460  141.8960 C   0  0  0  0  0  2  0  0  0  0  0  0
  188.3280  176.9100  144.4970 C   0  0  0  0  0  3  0  0  0  0  0  0
  189.6250  176.6490  144.9440 C   0  0  0  0  0  3  0  0  0  0  0  0
  188.4790  175.0350  142.9620 C   0  0  0  0  0  0  0  0  0  0  0  0
  189.7770  174.7810  143.4180 C   0  0  0  0  0  3  0  0  0  0  0  0
  190.3500  175.5850  144.4040 C   0  0  0  0  0  3  0  0  0  0  0  0
  187.7470  176.1140  143.5020 C   0  0  0  0  0  0  0  0  0  0  0  0
  186.3590  176.4320  143.0400 C   0  0  0  0  0  2  0  0  0  0  0  0
  186.3240  177.7340  142.2990 C   0  0  0  0  0  0  0  0  0  0  0  0
  186.9680  177.8490  141.2240 O   0  0  0  0  0  0  0  0  0  0  0  0
  185.5860  178.8550  142.7960 N   0  0  0  0  0  2  0  0  0  0  0  0
  184.7360  178.7870  143.9760 C   0  0  0  0  0  2  0  0  0  0  0  0
  184.7570  178.6200  146.1750 C   0  0  0  0  0  1  0  0  0  0  0  0
  185.4620  179.1710  145.1040 O   0  0  0  0  0  0  0  0  0  0  0  0
  1  5  1  0  0  0  0
  2  3  1  0  0  0  0
  3  5  2  0  0  0  0
  4  1  2  0  0  0  0
  5 29  1  0  0  0  0
  6  2  2  0  0  0  0
  6  4  1  0  0  0  0
  7  2  1  0  0  0  0
  7  8  1  0  0  0  0
  8  9  1  0  0  0  0
  9 10  1  0  0  0  0
 10 11  1  0  0  0  0
 12 21  1  6  0  0  0
 12 28  1  0  0  0  0
 14 13  1  1  0  0  0
 14 26  1  0  0  0  0
 15 11  1  6  0  0  0
 15 27  1  0  0  0  0
 15 19  1  0  0  0  0
 16 24  1  0  0  0  0
 16 22  1  0  0  0  0
 18 24  1  6  0  0  0
 18 14  1  0  0  0  0
 19 25  1  6  0  0  0
 19 14  1  0  0  0  0
 21 24  1  0  0  0  0
 22 17  1  0  0  0  0
 24 17  1  0  0  0  0
 25 12  1  0  0  0  0
 27 23  1  1  0  0  0
 27 18  1  0  0  0  0
 28 20  1  1  0  0  0
 28 26  1  0  0  0  0
 30 29  1  0  0  0  0
 31 41  1  0  0  0  0
 31 30  1  6  0  0  0
 32 37  1  0  0  0  0
 33 38  1  1  0  0  0
 33 36  1  0  0  0  0
 33 35  1  0  0  0  0
 34 37  1  0  0  0  0
 35 34  1  0  0  0  0
 36 32  1  0  0  0  0
 37 31  1  1  0  0  0
 39 38  1  0  0  0  0
 40 39  1  0  0  0  0
 40 38  1  0  0  0  0
 41 42  1  0  0  0  0
 42 45  1  0  0  0  0
 43 44  1  0  0  0  0
 45 46  2  0  0  0  0
 45 48  1  0  0  0  0
 46 47  1  0  0  0  0
 47 44  2  0  0  0  0
 48 43  2  0  0  0  0
 49 48  1  0  0  0  0
 50 52  1  0  0  0  0
 50 49  1  0  0  0  0
 51 50  2  0  0  0  0
 52 53  1  0  0  0  0
 53 55  1  0  0  0  0
 55 54  1  0  0  0  0
M  END
>  <MODEL>
9

>  <REMARK>
 VINA RESULT:      -6.3      2.293      4.744
  Name = 
  18 active torsions:
  status: ('A' for Active; 'I' for Inactive)
    1  A    between atoms: O_2  and  C_28
    2  A    between atoms: O_2  and  C_44
    3  A    between atoms: C_4  and  O_37
    4  A    between atoms: C_4  and  N_40
    5  A    between atoms: C_5  and  C_45
    6  A    between atoms: C_7  and  N_22
    7  A    between atoms: C_8  and  N_22
    8  A    between atoms: C_8  and  C_43
    9  A    between atoms: C_10  and  N_32
   10  A    between atoms: C_16  and  C_36
   11  A    between atoms: C_26  and  C_45
   12  A    between atoms: C_27  and  C_54
   13  A    between atoms: C_28  and  C_49
   14  A    between atoms: N_33  and  C_36
   15  A    between atoms: N_33  and  C_49
   16  A    between atoms: C_43  and  C_51
   17  A    between atoms: C_49  and  C_52
   18  A    between atoms: C_51  and  C_54
                            x       y       z     vdW  Elec       q    Type
                         _______ _______ _______ _____ _____    ______ ____

>  <TORSDO>
F 18

$$$$
