=
 OpenBabel11052417413D

 31 35  0  0  1  0  0  0  0  0999 V2000
  184.6050  178.3230  146.4910 C   0  0  0  0  0  0  0  0  0  0  0  0
  187.4870  176.8020  144.5950 N   0  0  0  0  0  0  0  0  0  0  0  0
  186.9260  176.3600  143.3390 C   0  0  0  0  0  0  0  0  0  0  0  0
  186.6950  177.4250  145.6310 C   0  0  0  0  0  0  0  0  0  0  0  0
  185.2380  178.6660  147.6870 C   0  0  0  0  0  3  0  0  0  0  0  0
  185.6900  176.1440  143.2170 O   0  0  0  0  0  0  0  0  0  0  0  0
  189.4660  176.9310  145.9980 C   0  0  0  0  0  0  0  0  0  0  0  0
  183.2860  178.5870  146.3230 F   0  0  0  0  0  0  0  0  0  0  0  0
  189.1950  175.7280  142.5430 C   0  0  0  0  0  3  0  0  0  0  0  0
  188.6860  177.5310  146.9990 O   0  0  0  0  0  0  0  0  0  0  0  0
  188.9020  176.5910  144.8170 C   0  0  0  0  0  0  0  0  0  0  0  0
  185.3300  177.7080  145.4660 C   0  0  0  0  0  3  0  0  0  0  0  0
  187.3240  177.7840  146.8330 C   0  0  0  0  0  0  0  0  0  0  0  0
  186.5990  178.3970  147.8580 C   0  0  0  0  0  3  0  0  0  0  0  0
  189.7020  175.9540  143.7550 C   0  0  0  0  0  3  0  0  0  0  0  0
  187.8130  176.1680  142.1450 C   0  0  2  0  0  3  0  0  0  0  0  0
  191.1420  176.5560  147.7710 C   0  0  0  0  0  2  0  0  0  0  0  0
  191.1730  175.3420  146.8730 C   0  0  1  0  0  3  0  0  0  0  0  0
  190.9310  176.7200  146.2770 C   0  0  1  0  0  3  0  0  0  0  0  0
  192.6290  174.9270  146.6990 C   0  0  0  0  0  2  0  0  0  0  0  0
  194.2820  175.2110  143.1640 C   0  0  0  0  0  0  0  0  0  0  0  0
  194.6350  177.4300  145.9800 C   0  0  0  0  0  1  0  0  0  0  0  0
  193.8110  175.9450  142.2260 N   0  0  0  0  0  2  0  0  0  0  0  0
  193.1900  174.1680  144.0890 S   0  0  0  0  0  0  0  0  0  0  0  0
  194.6840  175.9670  145.5900 C   0  0  1  0  0  3  0  0  0  0  0  0
  193.2600  175.4270  145.3990 C   0  0  2  0  0  3  0  0  0  0  0  0
  195.7000  175.7650  144.0820 S   0  0  0  0  0  0  0  0  0  0  0  0
  187.8830  177.4710  141.3560 C   0  0  0  0  0  2  0  0  0  0  0  0
  187.0320  177.4060  140.0960 C   0  0  0  0  0  2  0  0  0  0  0  0
  184.6630  178.4450  140.5360 N   0  0  0  0  0  0  0  0  0  0  0  0
  185.7080  177.9860  140.3420 C   0  0  0  0  0  0  0  0  0  0  0  0
  1  5  1  0  0  0  0
  2 11  1  0  0  0  0
  2  4  1  0  0  0  0
  3  2  1  0  0  0  0
  4 13  2  0  0  0  0
  5 14  2  0  0  0  0
  6  3  2  0  0  0  0
  7 10  1  0  0  0  0
  8  1  1  0  0  0  0
  9 15  2  0  0  0  0
 11  7  2  0  0  0  0
 12  4  1  0  0  0  0
 12  1  2  0  0  0  0
 13 10  1  0  0  0  0
 13 14  1  0  0  0  0
 15 11  1  0  0  0  0
 16 28  1  1  0  0  0
 16  9  1  0  0  0  0
 16  3  1  0  0  0  0
 18 20  1  6  0  0  0
 18 17  1  0  0  0  0
 19  7  1  1  0  0  0
 19 18  1  0  0  0  0
 19 17  1  0  0  0  0
 21 27  1  0  0  0  0
 21 24  1  0  0  0  0
 23 21  2  0  0  0  0
 24 26  1  0  0  0  0
 25 22  1  6  0  0  0
 26 25  1  0  0  0  0
 26 20  1  1  0  0  0
 27 25  1  0  0  0  0
 29 31  1  0  0  0  0
 29 28  1  0  0  0  0
 31 30  3  0  0  0  0
M  END
>  <MODEL>
1

>  <REMARK>
 VINA RESULT:      -8.1      0.000      0.000
  Name = 
  6 active torsions:
  status: ('A' for Active; 'I' for Inactive)
    1  A    between atoms: C_3  and  C_9
    2  A    between atoms: C_3  and  C_22
    3  A    between atoms: C_15  and  C_23
    4  A    between atoms: C_18  and  C_26
    5  A    between atoms: C_26  and  C_31
    6  A    between atoms: C_30  and  C_31
                            x       y       z     vdW  Elec       q    Type
                         _______ _______ _______ _____ _____    ______ ____

>  <TORSDO>
F 6

$$$$
=
 OpenBabel11052417413D

 31 35  0  0  1  0  0  0  0  0999 V2000
  184.6480  178.3240  146.4920 C   0  0  0  0  0  0  0  0  0  0  0  0
  187.4790  176.8210  144.5070 N   0  0  0  0  0  0  0  0  0  0  0  0
  186.8890  176.4060  143.2560 C   0  0  0  0  0  0  0  0  0  0  0  0
  186.7140  177.4300  145.5720 C   0  0  0  0  0  0  0  0  0  0  0  0
  185.3090  178.6410  147.6810 C   0  0  0  0  0  3  0  0  0  0  0  0
  185.6490  176.2010  143.1560 O   0  0  0  0  0  0  0  0  0  0  0  0
  189.4880  176.9110  145.8700 C   0  0  0  0  0  0  0  0  0  0  0  0
  183.3280  178.6000  146.3570 F   0  0  0  0  0  0  0  0  0  0  0  0
  189.1360  175.7750  142.4000 C   0  0  0  0  0  3  0  0  0  0  0  0
  188.7340  177.4970  146.8980 O   0  0  0  0  0  0  0  0  0  0  0  0
  188.8980  176.5970  144.6950 C   0  0  0  0  0  0  0  0  0  0  0  0
  185.3480  177.7250  145.4410 C   0  0  0  0  0  3  0  0  0  0  0  0
  187.3710  177.7620  146.7670 C   0  0  0  0  0  0  0  0  0  0  0  0
  186.6710  178.3600  147.8180 C   0  0  0  0  0  3  0  0  0  0  0  0
  189.6710  175.9750  143.6050 C   0  0  0  0  0  3  0  0  0  0  0  0
  187.7490  176.2310  142.0400 C   0  0  2  0  0  3  0  0  0  0  0  0
  191.1900  176.4220  147.5910 C   0  0  0  0  0  2  0  0  0  0  0  0
  191.2110  175.2710  146.6130 C   0  0  1  0  0  3  0  0  0  0  0  0
  190.9580  176.6850  146.1130 C   0  0  1  0  0  3  0  0  0  0  0  0
  192.6640  174.8720  146.3910 C   0  0  0  0  0  2  0  0  0  0  0  0
  192.2700  171.9620  143.8050 C   0  0  0  0  0  0  0  0  0  0  0  0
  195.3070  173.3800  145.1270 C   0  0  0  0  0  1  0  0  0  0  0  0
  192.3530  172.1320  142.5390 N   0  0  0  0  0  2  0  0  0  0  0  0
  191.2960  173.0780  144.7750 S   0  0  0  0  0  0  0  0  0  0  0  0
  193.9550  172.8350  145.5420 C   0  0  1  0  0  3  0  0  0  0  0  0
  192.8600  173.8710  145.2510 C   0  0  2  0  0  3  0  0  0  0  0  0
  193.6400  171.2500  144.6860 S   0  0  0  0  0  0  0  0  0  0  0  0
  187.8110  177.5480  141.2740 C   0  0  0  0  0  2  0  0  0  0  0  0
  186.9330  177.5130  140.0320 C   0  0  0  0  0  2  0  0  0  0  0  0
  184.5480  178.4630  140.5680 N   0  0  0  0  0  0  0  0  0  0  0  0
  185.6000  178.0440  140.3310 C   0  0  0  0  0  0  0  0  0  0  0  0
  1  5  1  0  0  0  0
  2 11  1  0  0  0  0
  2  4  1  0  0  0  0
  3  2  1  0  0  0  0
  4 13  2  0  0  0  0
  5 14  2  0  0  0  0
  6  3  2  0  0  0  0
  7 10  1  0  0  0  0
  8  1  1  0  0  0  0
  9 15  2  0  0  0  0
 11  7  2  0  0  0  0
 12  4  1  0  0  0  0
 12  1  2  0  0  0  0
 13 10  1  0  0  0  0
 13 14  1  0  0  0  0
 15 11  1  0  0  0  0
 16 28  1  1  0  0  0
 16  9  1  0  0  0  0
 16  3  1  0  0  0  0
 18 20  1  6  0  0  0
 18 17  1  0  0  0  0
 19  7  1  1  0  0  0
 19 18  1  0  0  0  0
 19 17  1  0  0  0  0
 21 27  1  0  0  0  0
 21 24  1  0  0  0  0
 23 21  2  0  0  0  0
 24 26  1  0  0  0  0
 25 22  1  6  0  0  0
 26 25  1  0  0  0  0
 26 20  1  1  0  0  0
 27 25  1  0  0  0  0
 29 31  1  0  0  0  0
 29 28  1  0  0  0  0
 31 30  3  0  0  0  0
M  END
>  <MODEL>
2

>  <REMARK>
 VINA RESULT:      -8.0      1.543      1.732
  Name = 
  6 active torsions:
  status: ('A' for Active; 'I' for Inactive)
    1  A    between atoms: C_3  and  C_9
    2  A    between atoms: C_3  and  C_22
    3  A    between atoms: C_15  and  C_23
    4  A    between atoms: C_18  and  C_26
    5  A    between atoms: C_26  and  C_31
    6  A    between atoms: C_30  and  C_31
                            x       y       z     vdW  Elec       q    Type
                         _______ _______ _______ _____ _____    ______ ____

>  <TORSDO>
F 6

$$$$
=
 OpenBabel11052417413D

 31 35  0  0  1  0  0  0  0  0999 V2000
  185.5190  178.1690  140.4650 C   0  0  0  0  0  0  0  0  0  0  0  0
  187.7060  177.0800  143.3370 N   0  0  0  0  0  0  0  0  0  0  0  0
  187.3180  177.9160  144.4490 C   0  0  0  0  0  0  0  0  0  0  0  0
  187.1150  177.1990  142.0230 C   0  0  0  0  0  0  0  0  0  0  0  0
  186.0040  177.3450  139.4470 C   0  0  0  0  0  3  0  0  0  0  0  0
  186.7370  179.0190  144.2650 O   0  0  0  0  0  0  0  0  0  0  0  0
  189.1870  175.3290  142.5370 C   0  0  0  0  0  0  0  0  0  0  0  0
  184.5130  179.0410  140.2090 F   0  0  0  0  0  0  0  0  0  0  0  0
  188.8350  176.6360  145.9460 C   0  0  0  0  0  3  0  0  0  0  0  0
  188.6090  175.4570  141.2640 O   0  0  0  0  0  0  0  0  0  0  0  0
  188.7440  176.0950  143.5580 C   0  0  0  0  0  0  0  0  0  0  0  0
  186.0690  178.0950  141.7480 C   0  0  0  0  0  3  0  0  0  0  0  0
  187.5880  176.3680  140.9960 C   0  0  0  0  0  0  0  0  0  0  0  0
  187.0390  176.4440  139.7130 C   0  0  0  0  0  3  0  0  0  0  0  0
  189.3420  175.9810  144.9010 C   0  0  0  0  0  3  0  0  0  0  0  0
  187.5860  177.4690  145.8560 C   0  0  2  0  0  3  0  0  0  0  0  0
  190.7190  173.7920  141.3600 C   0  0  0  0  0  2  0  0  0  0  0  0
  191.5790  174.7810  142.1090 C   0  0  1  0  0  3  0  0  0  0  0  0
  190.2720  174.3000  142.7190 C   0  0  1  0  0  3  0  0  0  0  0  0
  192.7620  174.0210  142.6970 C   0  0  0  0  0  2  0  0  0  0  0  0
  196.1870  175.6020  143.7360 C   0  0  0  0  0  0  0  0  0  0  0  0
  192.9760  175.9860  145.3240 C   0  0  0  0  0  1  0  0  0  0  0  0
  196.5370  176.7920  143.4140 N   0  0  0  0  0  2  0  0  0  0  0  0
  195.4820  174.5370  142.5080 S   0  0  0  0  0  0  0  0  0  0  0  0
  193.9290  174.9420  144.7760 C   0  0  1  0  0  3  0  0  0  0  0  0
  193.8650  174.9270  143.2430 C   0  0  2  0  0  3  0  0  0  0  0  0
  195.6210  175.2710  145.3880 S   0  0  0  0  0  0  0  0  0  0  0  0
  186.3880  176.6780  146.3700 C   0  0  0  0  0  2  0  0  0  0  0  0
  185.5310  177.5130  147.3100 C   0  0  0  0  0  2  0  0  0  0  0  0
  183.6910  178.8110  145.9660 N   0  0  0  0  0  0  0  0  0  0  0  0
  184.5030  178.2380  146.5590 C   0  0  0  0  0  0  0  0  0  0  0  0
  1 12  1  0  0  0  0
  2 11  1  0  0  0  0
  2  3  1  0  0  0  0
  3 16  1  0  0  0  0
  4  2  1  0  0  0  0
  5 14  1  0  0  0  0
  5  1  2  0  0  0  0
  6  3  2  0  0  0  0
  7 11  2  0  0  0  0
  8  1  1  0  0  0  0
 10  7  1  0  0  0  0
 11 15  1  0  0  0  0
 12  4  2  0  0  0  0
 13 10  1  0  0  0  0
 13  4  1  0  0  0  0
 14 13  2  0  0  0  0
 15  9  2  0  0  0  0
 16  9  1  0  0  0  0
 16 28  1  6  0  0  0
 17 18  1  0  0  0  0
 17 19  1  0  0  0  0
 18 20  1  1  0  0  0
 18 19  1  0  0  0  0
 19  7  1  6  0  0  0
 21 27  1  0  0  0  0
 23 21  2  0  0  0  0
 24 26  1  0  0  0  0
 24 21  1  0  0  0  0
 25 22  1  6  0  0  0
 25 27  1  0  0  0  0
 26 20  1  1  0  0  0
 26 25  1  0  0  0  0
 28 29  1  0  0  0  0
 30 31  3  0  0  0  0
 31 29  1  0  0  0  0
M  END
>  <MODEL>
3

>  <REMARK>
 VINA RESULT:      -7.6      2.199      4.674
  Name = 
  6 active torsions:
  status: ('A' for Active; 'I' for Inactive)
    1  A    between atoms: C_3  and  C_9
    2  A    between atoms: C_3  and  C_22
    3  A    between atoms: C_15  and  C_23
    4  A    between atoms: C_18  and  C_26
    5  A    between atoms: C_26  and  C_31
    6  A    between atoms: C_30  and  C_31
                            x       y       z     vdW  Elec       q    Type
                         _______ _______ _______ _____ _____    ______ ____

>  <TORSDO>
F 6

$$$$
=
 OpenBabel11052417413D

 31 35  0  0  1  0  0  0  0  0999 V2000
  195.1700  176.3350  144.4530 C   0  0  0  0  0  0  0  0  0  0  0  0
  191.7590  175.1480  143.3710 N   0  0  0  0  0  0  0  0  0  0  0  0
  191.9180  174.7350  141.9960 C   0  0  0  0  0  0  0  0  0  0  0  0
  192.8420  175.6980  144.1550 C   0  0  0  0  0  0  0  0  0  0  0  0
  194.8950  176.7500  145.7580 C   0  0  0  0  0  3  0  0  0  0  0  0
  192.8720  175.1630  141.2930 O   0  0  0  0  0  0  0  0  0  0  0  0
  190.2310  175.4420  145.2360 C   0  0  0  0  0  0  0  0  0  0  0  0
  196.4280  176.4430  143.9590 F   0  0  0  0  0  0  0  0  0  0  0  0
  189.5710  173.9140  141.9680 C   0  0  0  0  0  3  0  0  0  0  0  0
  191.2890  175.9780  145.9860 O   0  0  0  0  0  0  0  0  0  0  0  0
  190.4480  175.0140  143.9730 C   0  0  0  0  0  0  0  0  0  0  0  0
  194.1500  175.8080  143.6560 C   0  0  0  0  0  3  0  0  0  0  0  0
  192.5790  176.1070  145.4710 C   0  0  0  0  0  0  0  0  0  0  0  0
  193.5980  176.6350  146.2670 C   0  0  0  0  0  3  0  0  0  0  0  0
  189.3490  174.4540  143.1660 C   0  0  0  0  0  3  0  0  0  0  0  0
  190.9500  173.7650  141.3860 C   0  0  2  0  0  3  0  0  0  0  0  0
  188.8390  176.2450  147.1110 C   0  0  0  0  0  2  0  0  0  0  0  0
  188.1420  176.6600  145.8370 C   0  0  1  0  0  3  0  0  0  0  0  0
  188.8810  175.3320  145.8980 C   0  0  1  0  0  3  0  0  0  0  0  0
  186.6460  176.4540  146.0340 C   0  0  0  0  0  2  0  0  0  0  0  0
  185.2870  178.3930  142.9190 C   0  0  0  0  0  0  0  0  0  0  0  0
  184.2700  178.7020  146.3610 C   0  0  0  0  0  1  0  0  0  0  0  0
  184.2230  178.0560  142.2920 N   0  0  0  0  0  2  0  0  0  0  0  0
  186.4750  177.1530  143.3540 S   0  0  0  0  0  0  0  0  0  0  0  0
  185.4940  178.6650  145.4690 C   0  0  1  0  0  3  0  0  0  0  0  0
  185.7820  177.2210  145.0330 C   0  0  2  0  0  3  0  0  0  0  0  0
  185.2460  179.7750  144.0370 S   0  0  0  0  0  0  0  0  0  0  0  0
  191.4600  172.3440  141.5980 C   0  0  0  0  0  2  0  0  0  0  0  0
  190.3860  171.3130  141.2810 C   0  0  0  0  0  2  0  0  0  0  0  0
  191.1810  168.9150  141.9850 N   0  0  0  0  0  0  0  0  0  0  0  0
  190.8300  169.9730  141.6740 C   0  0  0  0  0  0  0  0  0  0  0  0
  1  5  1  0  0  0  0
  2 11  1  0  0  0  0
  2  4  1  0  0  0  0
  3  2  1  0  0  0  0
  4 13  2  0  0  0  0
  5 14  2  0  0  0  0
  6  3  2  0  0  0  0
  7 10  1  0  0  0  0
  8  1  1  0  0  0  0
  9 15  2  0  0  0  0
 11  7  2  0  0  0  0
 12  4  1  0  0  0  0
 12  1  2  0  0  0  0
 13 10  1  0  0  0  0
 13 14  1  0  0  0  0
 15 11  1  0  0  0  0
 16 28  1  1  0  0  0
 16  9  1  0  0  0  0
 16  3  1  0  0  0  0
 18 19  1  0  0  0  0
 18 20  1  1  0  0  0
 18 17  1  0  0  0  0
 19  7  1  6  0  0  0
 19 17  1  0  0  0  0
 21 24  1  0  0  0  0
 21 27  1  0  0  0  0
 23 21  2  0  0  0  0
 24 26  1  0  0  0  0
 25 22  1  1  0  0  0
 26 25  1  0  0  0  0
 26 20  1  1  0  0  0
 27 25  1  0  0  0  0
 29 28  1  0  0  0  0
 29 31  1  0  0  0  0
 31 30  3  0  0  0  0
M  END
>  <MODEL>
4

>  <REMARK>
 VINA RESULT:      -7.5      4.361      7.566
  Name = 
  6 active torsions:
  status: ('A' for Active; 'I' for Inactive)
    1  A    between atoms: C_3  and  C_9
    2  A    between atoms: C_3  and  C_22
    3  A    between atoms: C_15  and  C_23
    4  A    between atoms: C_18  and  C_26
    5  A    between atoms: C_26  and  C_31
    6  A    between atoms: C_30  and  C_31
                            x       y       z     vdW  Elec       q    Type
                         _______ _______ _______ _____ _____    ______ ____

>  <TORSDO>
F 6

$$$$
=
 OpenBabel11052417413D

 31 35  0  0  1  0  0  0  0  0999 V2000
  191.1570  175.9710  147.3310 C   0  0  0  0  0  0  0  0  0  0  0  0
  188.4590  175.9420  144.6970 N   0  0  0  0  0  0  0  0  0  0  0  0
  187.2910  176.4910  145.3430 C   0  0  0  0  0  0  0  0  0  0  0  0
  189.7200  175.7560  145.3820 C   0  0  0  0  0  0  0  0  0  0  0  0
  192.2100  175.3840  146.6260 C   0  0  0  0  0  3  0  0  0  0  0  0
  187.1780  176.4890  146.5990 O   0  0  0  0  0  0  0  0  0  0  0  0
  189.3920  174.9760  142.6730 C   0  0  0  0  0  0  0  0  0  0  0  0
  191.3370  176.3600  148.6170 F   0  0  0  0  0  0  0  0  0  0  0  0
  186.0590  176.4190  143.1850 C   0  0  0  0  0  3  0  0  0  0  0  0
  190.6080  174.7960  143.3490 O   0  0  0  0  0  0  0  0  0  0  0  0
  188.3460  175.5510  143.3080 C   0  0  0  0  0  0  0  0  0  0  0  0
  189.9190  176.1600  146.7120 C   0  0  0  0  0  3  0  0  0  0  0  0
  190.7870  175.1770  144.6790 C   0  0  0  0  0  0  0  0  0  0  0  0
  192.0240  174.9870  145.2990 C   0  0  0  0  0  3  0  0  0  0  0  0
  187.0580  175.7420  142.6170 C   0  0  0  0  0  3  0  0  0  0  0  0
  186.1910  177.0960  144.5210 C   0  0  2  0  0  3  0  0  0  0  0  0
  190.4580  173.5900  140.9290 C   0  0  0  0  0  2  0  0  0  0  0  0
  189.0640  173.0470  141.1310 C   0  0  1  0  0  3  0  0  0  0  0  0
  189.3150  174.5430  141.2320 C   0  0  1  0  0  3  0  0  0  0  0  0
  188.5000  172.6850  139.7620 C   0  0  0  0  0  2  0  0  0  0  0  0
  190.5930  172.3600  136.4720 C   0  0  0  0  0  0  0  0  0  0  0  0
  190.5450  170.1500  139.3160 C   0  0  0  0  0  1  0  0  0  0  0  0
  191.8110  172.7430  136.3750 N   0  0  0  0  0  2  0  0  0  0  0  0
  189.4040  173.4220  137.2440 S   0  0  0  0  0  0  0  0  0  0  0  0
  189.6380  170.8840  138.3500 C   0  0  1  0  0  3  0  0  0  0  0  0
  189.5720  172.3720  138.7180 C   0  0  2  0  0  3  0  0  0  0  0  0
  190.2270  170.6290  136.6370 S   0  0  0  0  0  0  0  0  0  0  0  0
  186.4640  178.5840  144.3320 C   0  0  0  0  0  2  0  0  0  0  0  0
  185.2480  179.4240  144.6930 C   0  0  0  0  0  2  0  0  0  0  0  0
  184.0420  178.4340  146.8010 N   0  0  0  0  0  0  0  0  0  0  0  0
  184.5740  178.8710  145.8710 C   0  0  0  0  0  0  0  0  0  0  0  0
  1  8  1  0  0  0  0
  2  3  1  0  0  0  0
  2  4  1  0  0  0  0
  3  6  2  0  0  0  0
  4 12  2  0  0  0  0
  5  1  2  0  0  0  0
  7 11  2  0  0  0  0
  7 10  1  0  0  0  0
  9 16  1  0  0  0  0
 10 13  1  0  0  0  0
 11  2  1  0  0  0  0
 12  1  1  0  0  0  0
 13 14  2  0  0  0  0
 13  4  1  0  0  0  0
 14  5  1  0  0  0  0
 15  9  2  0  0  0  0
 15 11  1  0  0  0  0
 16 28  1  6  0  0  0
 16  3  1  0  0  0  0
 17 18  1  0  0  0  0
 17 19  1  0  0  0  0
 18 20  1  6  0  0  0
 18 19  1  0  0  0  0
 19  7  1  1  0  0  0
 21 27  1  0  0  0  0
 21 24  1  0  0  0  0
 23 21  2  0  0  0  0
 24 26  1  0  0  0  0
 25 26  1  0  0  0  0
 25 22  1  1  0  0  0
 26 20  1  1  0  0  0
 27 25  1  0  0  0  0
 28 29  1  0  0  0  0
 29 31  1  0  0  0  0
 31 30  3  0  0  0  0
M  END
>  <MODEL>
5

>  <REMARK>
 VINA RESULT:      -7.5      4.146      6.406
  Name = 
  6 active torsions:
  status: ('A' for Active; 'I' for Inactive)
    1  A    between atoms: C_3  and  C_9
    2  A    between atoms: C_3  and  C_22
    3  A    between atoms: C_15  and  C_23
    4  A    between atoms: C_18  and  C_26
    5  A    between atoms: C_26  and  C_31
    6  A    between atoms: C_30  and  C_31
                            x       y       z     vdW  Elec       q    Type
                         _______ _______ _______ _____ _____    ______ ____

>  <TORSDO>
F 6

$$$$
=
 OpenBabel11052417413D

 31 35  0  0  1  0  0  0  0  0999 V2000
  188.5290  173.1190  140.8550 C   0  0  0  0  0  0  0  0  0  0  0  0
  188.7890  175.8110  143.4820 N   0  0  0  0  0  0  0  0  0  0  0  0
  187.5310  176.5190  143.4280 C   0  0  0  0  0  0  0  0  0  0  0  0
  189.1060  174.7060  142.6040 C   0  0  0  0  0  0  0  0  0  0  0  0
  189.7950  172.5380  140.9570 C   0  0  0  0  0  3  0  0  0  0  0  0
  186.8040  176.4770  142.4000 O   0  0  0  0  0  0  0  0  0  0  0  0
  190.9880  175.6580  144.5040 C   0  0  0  0  0  0  0  0  0  0  0  0
  187.6340  172.6380  139.9580 F   0  0  0  0  0  0  0  0  0  0  0  0
  188.2100  177.8820  145.3930 C   0  0  0  0  0  3  0  0  0  0  0  0
  191.2860  174.5900  143.6440 O   0  0  0  0  0  0  0  0  0  0  0  0
  189.7720  176.2460  144.4530 C   0  0  0  0  0  0  0  0  0  0  0  0
  188.1850  174.1960  141.6760 C   0  0  0  0  0  3  0  0  0  0  0  0
  190.3710  174.1080  142.7070 C   0  0  0  0  0  0  0  0  0  0  0  0
  190.7160  173.0330  141.8850 C   0  0  0  0  0  3  0  0  0  0  0  0
  189.4410  177.3740  145.3430 C   0  0  0  0  0  3  0  0  0  0  0  0
  187.0590  177.3050  144.6150 C   0  0  2  0  0  3  0  0  0  0  0  0
  191.9850  175.1900  146.7140 C   0  0  0  0  0  2  0  0  0  0  0  0
  193.0740  174.9850  145.6880 C   0  0  1  0  0  3  0  0  0  0  0  0
  192.0440  176.0860  145.4900 C   0  0  1  0  0  3  0  0  0  0  0  0
  194.3670  175.5530  146.2590 C   0  0  0  0  0  2  0  0  0  0  0  0
  196.8030  175.4180  143.2000 C   0  0  0  0  0  0  0  0  0  0  0  0
  196.8500  173.3990  146.1830 C   0  0  0  0  0  1  0  0  0  0  0  0
  197.9410  176.0040  143.1820 N   0  0  0  0  0  2  0  0  0  0  0  0
  195.3780  176.2940  143.7830 S   0  0  0  0  0  0  0  0  0  0  0  0
  195.9320  173.9040  145.0890 C   0  0  1  0  0  3  0  0  0  0  0  0
  195.5760  175.3760  145.3400 C   0  0  2  0  0  3  0  0  0  0  0  0
  196.7240  173.6610  143.4590 S   0  0  0  0  0  0  0  0  0  0  0  0
  186.2160  176.4060  145.5110 C   0  0  0  0  0  2  0  0  0  0  0  0
  185.2570  177.2180  146.3710 C   0  0  0  0  0  2  0  0  0  0  0  0
  184.0220  179.0170  144.9160 N   0  0  0  0  0  0  0  0  0  0  0  0
  184.5660  178.2230  145.5580 C   0  0  0  0  0  0  0  0  0  0  0  0
  1  5  2  0  0  0  0
  1 12  1  0  0  0  0
  2 11  1  0  0  0  0
  3  2  1  0  0  0  0
  3 16  1  0  0  0  0
  4 13  1  0  0  0  0
  4  2  1  0  0  0  0
  5 14  1  0  0  0  0
  6  3  2  0  0  0  0
  8  1  1  0  0  0  0
 10  7  1  0  0  0  0
 11  7  2  0  0  0  0
 11 15  1  0  0  0  0
 12  4  2  0  0  0  0
 13 10  1  0  0  0  0
 14 13  2  0  0  0  0
 15  9  2  0  0  0  0
 16  9  1  0  0  0  0
 16 28  1  1  0  0  0
 18 20  1  1  0  0  0
 18 17  1  0  0  0  0
 19  7  1  6  0  0  0
 19 18  1  0  0  0  0
 19 17  1  0  0  0  0
 21 27  1  0  0  0  0
 21 24  1  0  0  0  0
 23 21  2  0  0  0  0
 24 26  1  0  0  0  0
 25 26  1  0  0  0  0
 25 22  1  1  0  0  0
 26 20  1  6  0  0  0
 27 25  1  0  0  0  0
 28 29  1  0  0  0  0
 30 31  3  0  0  0  0
 31 29  1  0  0  0  0
M  END
>  <MODEL>
6

>  <REMARK>
 VINA RESULT:      -7.4      2.843      4.809
  Name = 
  6 active torsions:
  status: ('A' for Active; 'I' for Inactive)
    1  A    between atoms: C_3  and  C_9
    2  A    between atoms: C_3  and  C_22
    3  A    between atoms: C_15  and  C_23
    4  A    between atoms: C_18  and  C_26
    5  A    between atoms: C_26  and  C_31
    6  A    between atoms: C_30  and  C_31
                            x       y       z     vdW  Elec       q    Type
                         _______ _______ _______ _____ _____    ______ ____

>  <TORSDO>
F 6

$$$$
=
 OpenBabel11052417413D

 31 35  0  0  1  0  0  0  0  0999 V2000
  192.3830  171.1780  142.7280 C   0  0  0  0  0  0  0  0  0  0  0  0
  192.5670  174.0390  145.1770 N   0  0  0  0  0  0  0  0  0  0  0  0
  193.9770  174.2600  145.3990 C   0  0  0  0  0  0  0  0  0  0  0  0
  192.0630  172.9980  144.3090 C   0  0  0  0  0  0  0  0  0  0  0  0
  191.0000  171.0190  142.6230 C   0  0  0  0  0  3  0  0  0  0  0  0
  194.8230  173.3560  145.1660 O   0  0  0  0  0  0  0  0  0  0  0  0
  190.2970  174.6930  145.7450 C   0  0  0  0  0  0  0  0  0  0  0  0
  193.2130  170.3760  142.0170 F   0  0  0  0  0  0  0  0  0  0  0  0
  193.4490  176.2490  146.7940 C   0  0  0  0  0  3  0  0  0  0  0  0
  189.8210  173.6750  144.9040 O   0  0  0  0  0  0  0  0  0  0  0  0
  191.6280  174.8950  145.8710 C   0  0  0  0  0  0  0  0  0  0  0  0
  192.9130  172.1650  143.5640 C   0  0  0  0  0  3  0  0  0  0  0  0
  190.6750  172.8370  144.1880 C   0  0  0  0  0  0  0  0  0  0  0  0
  190.1450  171.8490  143.3540 C   0  0  0  0  0  3  0  0  0  0  0  0
  192.1490  175.9540  146.7550 C   0  0  0  0  0  3  0  0  0  0  0  0
  194.4600  175.5900  145.8970 C   0  0  2  0  0  3  0  0  0  0  0  0
  189.4180  176.9880  145.9830 C   0  0  0  0  0  2  0  0  0  0  0  0
  188.2830  176.1330  145.4730 C   0  0  1  0  0  3  0  0  0  0  0  0
  189.2850  175.5520  146.4580 C   0  0  1  0  0  3  0  0  0  0  0  0
  187.0110  176.5680  146.1900 C   0  0  0  0  0  2  0  0  0  0  0  0
  185.2200  178.4040  143.2360 C   0  0  0  0  0  0  0  0  0  0  0  0
  184.4890  178.5990  146.7580 C   0  0  0  0  0  1  0  0  0  0  0  0
  184.1370  177.9810  142.6990 N   0  0  0  0  0  2  0  0  0  0  0  0
  186.5430  177.2690  143.5460 S   0  0  0  0  0  0  0  0  0  0  0  0
  185.6280  178.6740  145.7610 C   0  0  1  0  0  3  0  0  0  0  0  0
  185.9990  177.2650  145.2810 C   0  0  2  0  0  3  0  0  0  0  0  0
  185.1600  179.7690  144.3730 S   0  0  0  0  0  0  0  0  0  0  0  0
  194.7730  176.4890  144.7070 C   0  0  0  0  0  2  0  0  0  0  0  0
  196.1150  176.1370  144.0800 C   0  0  0  0  0  2  0  0  0  0  0  0
  196.1190  176.7380  141.5270 N   0  0  0  0  0  0  0  0  0  0  0  0
  196.1170  176.4730  142.6540 C   0  0  0  0  0  0  0  0  0  0  0  0
  1 12  1  0  0  0  0
  2  3  1  0  0  0  0
  2 11  1  0  0  0  0
  3 16  1  0  0  0  0
  4  2  1  0  0  0  0
  5  1  2  0  0  0  0
  5 14  1  0  0  0  0
  6  3  2  0  0  0  0
  7 11  2  0  0  0  0
  8  1  1  0  0  0  0
 10  7  1  0  0  0  0
 11 15  1  0  0  0  0
 12  4  2  0  0  0  0
 13  4  1  0  0  0  0
 13 10  1  0  0  0  0
 14 13  2  0  0  0  0
 15  9  2  0  0  0  0
 16 28  1  6  0  0  0
 16  9  1  0  0  0  0
 17 19  1  0  0  0  0
 18 17  1  0  0  0  0
 18 20  1  1  0  0  0
 18 19  1  0  0  0  0
 19  7  1  6  0  0  0
 21 24  1  0  0  0  0
 21 27  1  0  0  0  0
 23 21  2  0  0  0  0
 24 26  1  0  0  0  0
 25 22  1  1  0  0  0
 26 25  1  0  0  0  0
 26 20  1  1  0  0  0
 27 25  1  0  0  0  0
 29 28  1  0  0  0  0
 30 31  3  0  0  0  0
 31 29  1  0  0  0  0
M  END
>  <MODEL>
7

>  <REMARK>
 VINA RESULT:      -7.2      4.265      8.253
  Name = 
  6 active torsions:
  status: ('A' for Active; 'I' for Inactive)
    1  A    between atoms: C_3  and  C_9
    2  A    between atoms: C_3  and  C_22
    3  A    between atoms: C_15  and  C_23
    4  A    between atoms: C_18  and  C_26
    5  A    between atoms: C_26  and  C_31
    6  A    between atoms: C_30  and  C_31
                            x       y       z     vdW  Elec       q    Type
                         _______ _______ _______ _____ _____    ______ ____

>  <TORSDO>
F 6

$$$$
=
 OpenBabel11052417413D

 31 35  0  0  1  0  0  0  0  0999 V2000
  191.6100  176.9340  147.7330 C   0  0  0  0  0  0  0  0  0  0  0  0
  188.9830  176.3270  145.0950 N   0  0  0  0  0  0  0  0  0  0  0  0
  187.7330  176.7130  145.7070 C   0  0  0  0  0  0  0  0  0  0  0  0
  190.2490  176.3850  145.7930 C   0  0  0  0  0  0  0  0  0  0  0  0
  192.7520  176.4890  147.0640 C   0  0  0  0  0  3  0  0  0  0  0  0
  187.6070  176.7590  146.9610 O   0  0  0  0  0  0  0  0  0  0  0  0
  190.0840  175.4200  143.1290 C   0  0  0  0  0  0  0  0  0  0  0  0
  191.7090  177.4130  148.9960 F   0  0  0  0  0  0  0  0  0  0  0  0
  186.5550  176.3280  143.5520 C   0  0  0  0  0  3  0  0  0  0  0  0
  191.3060  175.4760  143.8180 O   0  0  0  0  0  0  0  0  0  0  0  0
  188.9520  175.8500  143.7290 C   0  0  0  0  0  0  0  0  0  0  0  0
  190.3640  176.8850  147.1000 C   0  0  0  0  0  3  0  0  0  0  0  0
  191.4040  175.9510  145.1260 C   0  0  0  0  0  0  0  0  0  0  0  0
  192.6490  175.9980  145.7590 C   0  0  0  0  0  3  0  0  0  0  0  0
  187.6570  175.7940  143.0250 C   0  0  0  0  0  3  0  0  0  0  0  0
  186.5600  177.0870  144.8500 C   0  0  2  0  0  3  0  0  0  0  0  0
  191.4650  174.3340  141.3950 C   0  0  0  0  0  2  0  0  0  0  0  0
  190.3150  173.4010  141.6880 C   0  0  1  0  0  3  0  0  0  0  0  0
  190.0950  174.9050  141.7130 C   0  0  1  0  0  3  0  0  0  0  0  0
  189.8440  172.8080  140.3660 C   0  0  0  0  0  2  0  0  0  0  0  0
  191.3460  169.2090  140.6790 C   0  0  0  0  0  0  0  0  0  0  0  0
  189.8180  170.7490  137.8040 C   0  0  0  0  0  1  0  0  0  0  0  0
  190.6360  168.1690  140.9110 N   0  0  0  0  0  2  0  0  0  0  0  0
  191.0860  170.6770  141.6360 S   0  0  0  0  0  0  0  0  0  0  0  0
  190.8520  170.9850  138.8850 C   0  0  1  0  0  3  0  0  0  0  0  0
  190.1580  171.3200  140.2120 C   0  0  2  0  0  3  0  0  0  0  0  0
  191.9360  169.5190  139.0310 S   0  0  0  0  0  0  0  0  0  0  0  0
  186.5910  178.5880  144.5820 C   0  0  0  0  0  2  0  0  0  0  0  0
  185.2220  179.2190  144.7870 C   0  0  0  0  0  2  0  0  0  0  0  0
  184.1190  178.3220  146.9920 N   0  0  0  0  0  0  0  0  0  0  0  0
  184.6050  178.7180  146.0190 C   0  0  0  0  0  0  0  0  0  0  0  0
  1  8  1  0  0  0  0
  2  3  1  0  0  0  0
  2  4  1  0  0  0  0
  3  6  2  0  0  0  0
  4 12  2  0  0  0  0
  5  1  2  0  0  0  0
  7 11  2  0  0  0  0
  7 10  1  0  0  0  0
  9 16  1  0  0  0  0
 10 13  1  0  0  0  0
 11  2  1  0  0  0  0
 12  1  1  0  0  0  0
 13 14  2  0  0  0  0
 13  4  1  0  0  0  0
 14  5  1  0  0  0  0
 15  9  2  0  0  0  0
 15 11  1  0  0  0  0
 16 28  1  6  0  0  0
 16  3  1  0  0  0  0
 17 18  1  0  0  0  0
 17 19  1  0  0  0  0
 18 20  1  6  0  0  0
 18 19  1  0  0  0  0
 19  7  1  1  0  0  0
 21 23  2  0  0  0  0
 21 24  1  0  0  0  0
 25 22  1  6  0  0  0
 25 27  1  0  0  0  0
 25 26  1  0  0  0  0
 26 20  1  1  0  0  0
 26 24  1  0  0  0  0
 27 21  1  0  0  0  0
 28 29  1  0  0  0  0
 29 31  1  0  0  0  0
 31 30  3  0  0  0  0
M  END
>  <MODEL>
8

>  <REMARK>
 VINA RESULT:      -7.1      3.938      6.113
  Name = 
  6 active torsions:
  status: ('A' for Active; 'I' for Inactive)
    1  A    between atoms: C_3  and  C_9
    2  A    between atoms: C_3  and  C_22
    3  A    between atoms: C_15  and  C_23
    4  A    between atoms: C_18  and  C_26
    5  A    between atoms: C_26  and  C_31
    6  A    between atoms: C_30  and  C_31
                            x       y       z     vdW  Elec       q    Type
                         _______ _______ _______ _____ _____    ______ ____

>  <TORSDO>
F 6

$$$$
=
 OpenBabel11052417413D

 31 35  0  0  1  0  0  0  0  0999 V2000
  185.6960  178.2560  147.1520 C   0  0  0  0  0  0  0  0  0  0  0  0
  187.7110  177.0080  144.2200 N   0  0  0  0  0  0  0  0  0  0  0  0
  186.7380  176.6290  143.2230 C   0  0  0  0  0  0  0  0  0  0  0  0
  187.3420  177.5200  145.5220 C   0  0  0  0  0  0  0  0  0  0  0  0
  186.7160  178.5440  148.0610 C   0  0  0  0  0  3  0  0  0  0  0  0
  185.5470  176.3640  143.5410 O   0  0  0  0  0  0  0  0  0  0  0  0
  190.0640  177.1320  144.8140 C   0  0  0  0  0  0  0  0  0  0  0  0
  184.4020  178.4690  147.4970 F   0  0  0  0  0  0  0  0  0  0  0  0
  188.5690  176.1610  141.6080 C   0  0  0  0  0  3  0  0  0  0  0  0
  189.6930  177.6230  146.0760 O   0  0  0  0  0  0  0  0  0  0  0  0
  189.1130  176.8490  143.8950 C   0  0  0  0  0  0  0  0  0  0  0  0
  186.0070  177.7490  145.8870 C   0  0  0  0  0  3  0  0  0  0  0  0
  188.3610  177.8230  146.4380 C   0  0  0  0  0  0  0  0  0  0  0  0
  188.0500  178.3280  147.7020 C   0  0  0  0  0  3  0  0  0  0  0  0
  189.4810  176.3260  142.5670 C   0  0  0  0  0  3  0  0  0  0  0  0
  187.1300  176.5630  141.7770 C   0  0  2  0  0  3  0  0  0  0  0  0
  192.2290  176.3960  145.7430 C   0  0  0  0  0  2  0  0  0  0  0  0
  191.9330  175.5050  144.5610 C   0  0  1  0  0  3  0  0  0  0  0  0
  191.5330  176.9710  144.5230 C   0  0  1  0  0  3  0  0  0  0  0  0
  193.2370  175.2810  143.8050 C   0  0  0  0  0  2  0  0  0  0  0  0
  196.5560  173.8080  145.2620 C   0  0  0  0  0  0  0  0  0  0  0  0
  193.3320  172.2210  145.0040 C   0  0  0  0  0  1  0  0  0  0  0  0
  196.8280  173.7950  146.5140 N   0  0  0  0  0  2  0  0  0  0  0  0
  195.9170  175.2850  144.5230 S   0  0  0  0  0  0  0  0  0  0  0  0
  194.3480  173.0140  144.2070 C   0  0  1  0  0  3  0  0  0  0  0  0
  194.2810  174.4960  144.6000 C   0  0  2  0  0  3  0  0  0  0  0  0
  196.0170  172.3130  144.4660 S   0  0  0  0  0  0  0  0  0  0  0  0
  186.8820  177.9190  141.1260 C   0  0  0  0  0  2  0  0  0  0  0  0
  185.8440  177.8240  140.0170 C   0  0  0  0  0  2  0  0  0  0  0  0
  183.4440  178.2930  140.9650 N   0  0  0  0  0  0  0  0  0  0  0  0
  184.5030  178.0860  140.5470 C   0  0  0  0  0  0  0  0  0  0  0  0
  1  8  1  0  0  0  0
  1  5  1  0  0  0  0
  2  4  1  0  0  0  0
  3  6  2  0  0  0  0
  3  2  1  0  0  0  0
  4 12  1  0  0  0  0
  4 13  2  0  0  0  0
  7 10  1  0  0  0  0
  9 16  1  0  0  0  0
  9 15  2  0  0  0  0
 10 13  1  0  0  0  0
 11  2  1  0  0  0  0
 11  7  2  0  0  0  0
 12  1  2  0  0  0  0
 13 14  1  0  0  0  0
 14  5  2  0  0  0  0
 15 11  1  0  0  0  0
 16 28  1  1  0  0  0
 16  3  1  0  0  0  0
 18 20  1  6  0  0  0
 18 17  1  0  0  0  0
 19 18  1  0  0  0  0
 19  7  1  1  0  0  0
 19 17  1  0  0  0  0
 21 23  2  0  0  0  0
 24 26  1  0  0  0  0
 24 21  1  0  0  0  0
 25 27  1  0  0  0  0
 25 26  1  0  0  0  0
 25 22  1  1  0  0  0
 26 20  1  6  0  0  0
 27 21  1  0  0  0  0
 29 31  1  0  0  0  0
 29 28  1  0  0  0  0
 31 30  3  0  0  0  0
M  END
>  <MODEL>
9

>  <REMARK>
 VINA RESULT:      -7.0      1.795      2.254
  Name = 
  6 active torsions:
  status: ('A' for Active; 'I' for Inactive)
    1  A    between atoms: C_3  and  C_9
    2  A    between atoms: C_3  and  C_22
    3  A    between atoms: C_15  and  C_23
    4  A    between atoms: C_18  and  C_26
    5  A    between atoms: C_26  and  C_31
    6  A    between atoms: C_30  and  C_31
                            x       y       z     vdW  Elec       q    Type
                         _______ _______ _______ _____ _____    ______ ____

>  <TORSDO>
F 6

$$$$
