=
 OpenBabel11052420283D

 34 39  0  0  1  0  0  0  0  0999 V2000
  192.5870  174.5360  144.9850 N   0  0  0  0  0  0  0  0  0  0  0  0
  191.5650  174.1490  141.4700 C   0  0  0  0  0  2  0  0  0  0  0  0
  193.6370  174.0110  142.4260 N   0  0  0  0  0  0  0  0  0  0  0  0
  194.9140  174.6250  145.6510 N   0  0  0  0  0  0  0  0  0  0  0  0
  196.0540  174.4430  144.9290 C   0  0  0  0  0  3  0  0  0  0  0  0
  194.4410  174.1590  143.4930 C   0  0  0  0  0  0  0  0  0  0  0  0
  193.9230  174.4610  144.7640 C   0  0  0  0  0  0  0  0  0  0  0  0
  195.8090  174.1590  143.5770 C   0  0  0  0  0  3  0  0  0  0  0  0
  190.1310  174.5390  141.3640 C   0  0  0  0  0  2  0  0  0  0  0  0
  189.2340  173.6000  142.0870 C   0  0  0  0  0  0  0  0  0  0  0  0
  189.3600  173.4330  143.4020 C   0  0  0  0  0  3  0  0  0  0  0  0
  192.2830  174.0950  142.5970 C   0  0  0  0  0  0  0  0  0  0  0  0
  190.4490  173.9520  144.2460 C   0  0  0  0  0  2  0  0  0  0  0  0
  191.7320  174.2430  143.9340 C   0  0  0  0  0  0  0  0  0  0  0  0
  188.1340  173.0000  141.3890 N   0  0  0  0  0  0  0  0  0  0  0  0
  188.1840  172.8430  140.0230 O   0  0  0  0  0  0  0  0  0  0  0  0
  187.1220  172.6080  142.0070 O   0  0  0  0  0  0  0  0  0  0  0  0
  192.0940  174.8740  146.3300 C   0  0  0  0  0  2  0  0  0  0  0  0
  187.4210  177.3880  145.9400 C   0  0  0  0  0  3  0  0  0  0  0  0
  190.1330  177.4340  145.2640 C   0  0  0  0  0  0  0  0  0  0  0  0
  187.2070  178.0060  142.2940 C   0  0  0  0  0  0  0  0  0  0  0  0
  192.0180  176.3920  146.5730 C   0  0  1  0  0  3  0  0  0  0  0  0
  186.8310  177.8070  143.6260 C   0  0  0  0  0  3  0  0  0  0  0  0
  187.8030  177.6120  144.6110 C   0  0  0  0  0  0  0  0  0  0  0  0
  191.8950  177.3270  145.0010 S   0  0  0  0  0  0  0  0  0  0  0  0
  190.8440  176.7890  147.4770 C   0  0  0  0  0  2  0  0  0  0  0  0
  189.5470  177.8190  142.9230 C   0  0  0  0  0  3  0  0  0  0  0  0
  189.1750  177.6230  144.2590 C   0  0  0  0  0  0  0  0  0  0  0  0
  188.5670  178.0100  141.9450 C   0  0  0  0  0  3  0  0  0  0  0  0
  189.7420  177.1770  146.5640 C   0  0  0  0  0  0  0  0  0  0  0  0
  188.3930  177.1570  146.9210 C   0  0  0  0  0  3  0  0  0  0  0  0
  186.1470  178.2180  141.2610 C   0  0  2  0  0  3  0  0  0  0  0  0
  184.9170  177.7520  141.7240 O   0  0  0  0  0  1  0  0  0  0  0  0
  186.5110  177.5200  139.9640 C   0  0  0  0  0  1  0  0  0  0  0  0
  1 18  1  0  0  0  0
  2 12  1  0  0  0  0
  3 12  1  0  0  0  0
  3  6  2  0  0  0  0
  5  4  1  0  0  0  0
  6  8  1  0  0  0  0
  6  7  1  0  0  0  0
  7  1  1  0  0  0  0
  7  4  2  0  0  0  0
  8  5  2  0  0  0  0
  9  2  1  0  0  0  0
  9 10  1  0  0  0  0
 10 11  2  0  0  0  0
 11 13  1  0  0  0  0
 12 14  2  0  0  0  0
 14 13  1  0  0  0  0
 14  1  1  0  0  0  0
 15 17  2  0  0  0  0
 15 10  1  0  0  0  0
 16 15  2  0  0  0  0
 19 31  1  0  0  0  0
 20 30  1  0  0  0  0
 21 23  2  0  0  0  0
 22 18  1  6  0  0  0
 22 26  1  0  0  0  0
 23 24  1  0  0  0  0
 24 19  2  0  0  0  0
 25 20  1  0  0  0  0
 25 22  1  0  0  0  0
 27 28  1  0  0  0  0
 28 24  1  0  0  0  0
 28 20  2  0  0  0  0
 29 21  1  0  0  0  0
 29 27  2  0  0  0  0
 30 31  2  0  0  0  0
 30 26  1  0  0  0  0
 32 34  1  6  0  0  0
 32 33  1  0  0  0  0
 32 21  1  0  0  0  0
M  END
>  <MODEL>
1

>  <REMARK>
 VINA RESULT:      -8.2      0.000      0.000
  Name = 
  4 active torsions:
  status: ('A' for Active; 'I' for Inactive)
    1  A    between atoms: N_1  and  C_9
    2  A    between atoms: N_3  and  C_25
    3  A    between atoms: C_7  and  C_11
    4  A    between atoms: C_8  and  C_9
                            x       y       z     vdW  Elec       q    Type
                         _______ _______ _______ _____ _____    ______ ____

>  <TORSDO>
F 4

$$$$
=
 OpenBabel11052420283D

 34 39  0  0  1  0  0  0  0  0999 V2000
  188.5730  175.4930  144.6680 N   0  0  0  0  0  0  0  0  0  0  0  0
  187.4410  176.3540  141.2740 C   0  0  0  0  0  2  0  0  0  0  0  0
  188.7370  174.6170  141.9980 N   0  0  0  0  0  0  0  0  0  0  0  0
  190.1930  173.7410  145.0840 N   0  0  0  0  0  0  0  0  0  0  0  0
  190.7650  172.8390  144.2400 C   0  0  0  0  0  3  0  0  0  0  0  0
  189.4260  174.0050  142.9770 C   0  0  0  0  0  0  0  0  0  0  0  0
  189.3790  174.4650  144.3040 C   0  0  0  0  0  0  0  0  0  0  0  0
  190.3240  172.9710  142.9140 C   0  0  0  0  0  3  0  0  0  0  0  0
  186.7940  177.6950  141.3330 C   0  0  0  0  0  2  0  0  0  0  0  0
  185.5350  177.6810  142.1210 C   0  0  0  0  0  0  0  0  0  0  0  0
  185.5550  177.3470  143.4090 C   0  0  0  0  0  3  0  0  0  0  0  0
  187.9250  175.6690  142.3160 C   0  0  0  0  0  0  0  0  0  0  0  0
  186.7000  176.7870  144.1470 C   0  0  0  0  0  2  0  0  0  0  0  0
  187.7420  176.0460  143.7070 C   0  0  0  0  0  0  0  0  0  0  0  0
  184.3270  178.1830  141.5280 N   0  0  0  0  0  0  0  0  0  0  0  0
  183.1690  178.2470  142.2670 O   0  0  0  0  0  0  0  0  0  0  0  0
  184.3120  178.5720  140.3400 O   0  0  0  0  0  0  0  0  0  0  0  0
  188.5730  175.9510  146.0670 C   0  0  0  0  0  2  0  0  0  0  0  0
  192.7850  176.7050  142.9040 C   0  0  0  0  0  3  0  0  0  0  0  0
  191.8520  176.6620  145.5390 C   0  0  0  0  0  0  0  0  0  0  0  0
  195.3120  174.5080  144.4880 C   0  0  0  0  0  0  0  0  0  0  0  0
  189.5010  177.1570  146.3010 C   0  0  1  0  0  3  0  0  0  0  0  0
  194.6300  175.2610  143.5270 C   0  0  0  0  0  3  0  0  0  0  0  0
  193.4780  175.9710  143.8760 C   0  0  0  0  0  0  0  0  0  0  0  0
  191.0560  176.6640  147.1360 S   0  0  0  0  0  0  0  0  0  0  0  0
  189.8490  177.8960  145.0040 C   0  0  0  0  0  2  0  0  0  0  0  0
  193.6870  175.1760  146.1680 C   0  0  0  0  0  3  0  0  0  0  0  0
  193.0040  175.9340  145.2110 C   0  0  0  0  0  0  0  0  0  0  0  0
  194.8360  174.4660  145.8090 C   0  0  0  0  0  3  0  0  0  0  0  0
  191.1560  177.3500  144.5640 C   0  0  0  0  0  0  0  0  0  0  0  0
  191.6110  177.3880  143.2440 C   0  0  0  0  0  3  0  0  0  0  0  0
  196.5440  173.7610  144.0910 C   0  0  2  0  0  3  0  0  0  0  0  0
  196.2170  172.4720  143.6710 O   0  0  0  0  0  1  0  0  0  0  0  0
  197.5310  173.6980  145.2410 C   0  0  0  0  0  1  0  0  0  0  0  0
  1 18  1  0  0  0  0
  2  9  1  0  0  0  0
  2 12  1  0  0  0  0
  3 12  1  0  0  0  0
  3  6  2  0  0  0  0
  5  4  1  0  0  0  0
  6  7  1  0  0  0  0
  7  1  1  0  0  0  0
  7  4  2  0  0  0  0
  8  6  1  0  0  0  0
  8  5  2  0  0  0  0
  9 10  1  0  0  0  0
 10 11  2  0  0  0  0
 11 13  1  0  0  0  0
 12 14  2  0  0  0  0
 14 13  1  0  0  0  0
 14  1  1  0  0  0  0
 15 10  1  0  0  0  0
 15 16  2  0  0  0  0
 17 15  2  0  0  0  0
 19 31  2  0  0  0  0
 19 24  1  0  0  0  0
 20 25  1  0  0  0  0
 21 29  1  0  0  0  0
 22 18  1  6  0  0  0
 22 25  1  0  0  0  0
 23 24  1  0  0  0  0
 23 21  2  0  0  0  0
 24 28  2  0  0  0  0
 26 22  1  0  0  0  0
 28 20  1  0  0  0  0
 28 27  1  0  0  0  0
 29 27  2  0  0  0  0
 30 26  1  0  0  0  0
 30 20  2  0  0  0  0
 31 30  1  0  0  0  0
 32 21  1  0  0  0  0
 32 34  1  1  0  0  0
 33 32  1  0  0  0  0
M  END
>  <MODEL>
2

>  <REMARK>
 VINA RESULT:      -7.6      2.516      6.321
  Name = 
  4 active torsions:
  status: ('A' for Active; 'I' for Inactive)
    1  A    between atoms: N_1  and  C_9
    2  A    between atoms: N_3  and  C_25
    3  A    between atoms: C_7  and  C_11
    4  A    between atoms: C_8  and  C_9
                            x       y       z     vdW  Elec       q    Type
                         _______ _______ _______ _____ _____    ______ ____

>  <TORSDO>
F 4

$$$$
=
 OpenBabel11052420283D

 34 39  0  0  1  0  0  0  0  0999 V2000
  189.6240  175.0080  142.7380 N   0  0  0  0  0  0  0  0  0  0  0  0
  192.9410  173.6860  143.6320 C   0  0  0  0  0  2  0  0  0  0  0  0
  191.7880  173.5630  141.6630 N   0  0  0  0  0  0  0  0  0  0  0  0
  188.5370  174.4600  140.6430 N   0  0  0  0  0  0  0  0  0  0  0  0
  188.9880  173.7670  139.5620 C   0  0  0  0  0  3  0  0  0  0  0  0
  190.6610  173.7610  140.9560 C   0  0  0  0  0  0  0  0  0  0  0  0
  189.5640  174.4460  141.5050 C   0  0  0  0  0  0  0  0  0  0  0  0
  190.3030  173.3040  139.7150 C   0  0  0  0  0  3  0  0  0  0  0  0
  193.1260  173.8670  145.0990 C   0  0  0  0  0  2  0  0  0  0  0  0
  193.2120  175.2990  145.4870 C   0  0  0  0  0  0  0  0  0  0  0  0
  192.1890  176.1180  145.2520 C   0  0  0  0  0  3  0  0  0  0  0  0
  191.8890  174.0970  142.9170 C   0  0  0  0  0  0  0  0  0  0  0  0
  190.9900  175.8100  144.4540 C   0  0  0  0  0  2  0  0  0  0  0  0
  190.8250  174.9460  143.4280 C   0  0  0  0  0  0  0  0  0  0  0  0
  194.3350  175.7540  146.2560 N   0  0  0  0  0  0  0  0  0  0  0  0
  195.4960  175.0160  146.2880 O   0  0  0  0  0  0  0  0  0  0  0  0
  194.2780  176.8230  146.9000 O   0  0  0  0  0  0  0  0  0  0  0  0
  188.4410  175.6990  143.2770 C   0  0  0  0  0  2  0  0  0  0  0  0
  184.1750  178.6850  144.3700 C   0  0  0  0  0  3  0  0  0  0  0  0
  186.2450  178.1870  142.5580 C   0  0  0  0  0  0  0  0  0  0  0  0
  182.2710  178.4540  141.2010 C   0  0  0  0  0  0  0  0  0  0  0  0
  188.5110  177.2270  143.1030 C   0  0  1  0  0  3  0  0  0  0  0  0
  182.5670  178.6280  142.5560 C   0  0  0  0  0  3  0  0  0  0  0  0
  183.8860  178.5340  143.0070 C   0  0  0  0  0  0  0  0  0  0  0  0
  187.6720  177.7730  141.5680 S   0  0  0  0  0  0  0  0  0  0  0  0
  187.9100  177.9850  144.2920 C   0  0  0  0  0  2  0  0  0  0  0  0
  184.6270  178.0910  140.7290 C   0  0  0  0  0  3  0  0  0  0  0  0
  184.9290  178.2680  142.0850 C   0  0  0  0  0  0  0  0  0  0  0  0
  183.3040  178.1830  140.2890 C   0  0  0  0  0  3  0  0  0  0  0  0
  186.5120  178.3000  143.9090 C   0  0  0  0  0  0  0  0  0  0  0  0
  185.4930  178.5550  144.8270 C   0  0  0  0  0  3  0  0  0  0  0  0
  180.8520  178.5650  140.7450 C   0  0  2  0  0  3  0  0  0  0  0  0
  180.5360  179.8910  140.4540 O   0  0  0  0  0  1  0  0  0  0  0  0
  179.9020  178.0260  141.7990 C   0  0  0  0  0  1  0  0  0  0  0  0
  1 18  1  0  0  0  0
  1 14  1  0  0  0  0
  2  9  1  0  0  0  0
  3 12  1  0  0  0  0
  4  7  2  0  0  0  0
  5  8  2  0  0  0  0
  5  4  1  0  0  0  0
  6  7  1  0  0  0  0
  6  3  2  0  0  0  0
  7  1  1  0  0  0  0
  8  6  1  0  0  0  0
  9 10  1  0  0  0  0
 10 15  1  0  0  0  0
 11 10  2  0  0  0  0
 12 14  2  0  0  0  0
 12  2  1  0  0  0  0
 13 11  1  0  0  0  0
 14 13  1  0  0  0  0
 15 16  2  0  0  0  0
 15 17  2  0  0  0  0
 19 31  1  0  0  0  0
 20 30  1  0  0  0  0
 21 23  2  0  0  0  0
 22 18  1  1  0  0  0
 22 26  1  0  0  0  0
 23 24  1  0  0  0  0
 24 19  2  0  0  0  0
 25 20  1  0  0  0  0
 25 22  1  0  0  0  0
 27 28  1  0  0  0  0
 28 20  2  0  0  0  0
 28 24  1  0  0  0  0
 29 27  2  0  0  0  0
 29 21  1  0  0  0  0
 30 26  1  0  0  0  0
 30 31  2  0  0  0  0
 32 21  1  0  0  0  0
 32 34  1  1  0  0  0
 33 32  1  0  0  0  0
M  END
>  <MODEL>
3

>  <REMARK>
 VINA RESULT:      -7.6      3.523      5.484
  Name = 
  4 active torsions:
  status: ('A' for Active; 'I' for Inactive)
    1  A    between atoms: N_1  and  C_9
    2  A    between atoms: N_3  and  C_25
    3  A    between atoms: C_7  and  C_11
    4  A    between atoms: C_8  and  C_9
                            x       y       z     vdW  Elec       q    Type
                         _______ _______ _______ _____ _____    ______ ____

>  <TORSDO>
F 4

$$$$
=
 OpenBabel11052420283D

 34 39  0  0  1  0  0  0  0  0999 V2000
  194.4940  174.1240  143.7820 N   0  0  0  0  0  0  0  0  0  0  0  0
  196.6150  171.1160  143.8260 C   0  0  0  0  0  2  0  0  0  0  0  0
  197.0590  173.2210  143.0530 N   0  0  0  0  0  0  0  0  0  0  0  0
  195.1460  176.1480  142.6210 N   0  0  0  0  0  0  0  0  0  0  0  0
  196.3080  176.4780  141.9930 C   0  0  0  0  0  3  0  0  0  0  0  0
  196.6450  174.4640  142.7520 C   0  0  0  0  0  0  0  0  0  0  0  0
  195.3510  174.9040  143.0780 C   0  0  0  0  0  0  0  0  0  0  0  0
  197.2680  175.4560  142.0410 C   0  0  0  0  0  3  0  0  0  0  0  0
  195.7700  169.9660  144.2510 C   0  0  0  0  0  2  0  0  0  0  0  0
  195.3170  170.0850  145.6600 C   0  0  0  0  0  0  0  0  0  0  0  0
  194.5590  171.1140  146.0340 C   0  0  0  0  0  3  0  0  0  0  0  0
  196.2230  172.3920  143.7480 C   0  0  0  0  0  0  0  0  0  0  0  0
  194.2460  172.3050  145.2270 C   0  0  0  0  0  2  0  0  0  0  0  0
  194.9480  172.8950  144.2330 C   0  0  0  0  0  0  0  0  0  0  0  0
  195.5660  169.0070  146.5740 N   0  0  0  0  0  0  0  0  0  0  0  0
  194.6420  168.6970  147.5460 O   0  0  0  0  0  0  0  0  0  0  0  0
  196.6160  168.3340  146.4980 O   0  0  0  0  0  0  0  0  0  0  0  0
  193.1420  174.6220  144.0820 C   0  0  0  0  0  2  0  0  0  0  0  0
  188.9280  175.2670  147.2670 C   0  0  0  0  0  3  0  0  0  0  0  0
  190.7960  176.5370  145.6200 C   0  0  0  0  0  0  0  0  0  0  0  0
  186.6870  177.3060  145.1360 C   0  0  0  0  0  0  0  0  0  0  0  0
  193.1400  175.7490  145.1320 C   0  0  1  0  0  3  0  0  0  0  0  0
  187.1280  176.4270  146.1290 C   0  0  0  0  0  3  0  0  0  0  0  0
  188.4930  176.1680  146.2860 C   0  0  0  0  0  0  0  0  0  0  0  0
  192.1150  177.1710  144.5980 S   0  0  0  0  0  0  0  0  0  0  0  0
  192.6520  175.2760  146.5060 C   0  0  0  0  0  2  0  0  0  0  0  0
  188.9860  177.6820  144.4430 C   0  0  0  0  0  3  0  0  0  0  0  0
  189.4330  176.8050  145.4390 C   0  0  0  0  0  0  0  0  0  0  0  0
  187.6190  177.9310  144.2920 C   0  0  0  0  0  3  0  0  0  0  0  0
  191.2100  175.6190  146.5650 C   0  0  0  0  0  0  0  0  0  0  0  0
  190.2930  174.9800  147.4010 C   0  0  0  0  0  3  0  0  0  0  0  0
  185.2230  177.5690  144.9940 C   0  0  2  0  0  3  0  0  0  0  0  0
  184.9920  178.5010  143.9820 O   0  0  0  0  0  1  0  0  0  0  0  0
  184.6340  178.0680  146.3010 C   0  0  0  0  0  1  0  0  0  0  0  0
  1 18  1  0  0  0  0
  1 14  1  0  0  0  0
  2  9  1  0  0  0  0
  3 12  1  0  0  0  0
  4  7  2  0  0  0  0
  5  8  2  0  0  0  0
  5  4  1  0  0  0  0
  6  3  2  0  0  0  0
  6  7  1  0  0  0  0
  7  1  1  0  0  0  0
  8  6  1  0  0  0  0
  9 10  1  0  0  0  0
 10 11  2  0  0  0  0
 10 15  1  0  0  0  0
 12  2  1  0  0  0  0
 12 14  2  0  0  0  0
 13 11  1  0  0  0  0
 14 13  1  0  0  0  0
 15 16  2  0  0  0  0
 17 15  2  0  0  0  0
 19 31  1  0  0  0  0
 20 30  1  0  0  0  0
 21 23  2  0  0  0  0
 22 18  1  6  0  0  0
 22 26  1  0  0  0  0
 23 24  1  0  0  0  0
 24 19  2  0  0  0  0
 25 22  1  0  0  0  0
 25 20  1  0  0  0  0
 26 30  1  0  0  0  0
 27 28  1  0  0  0  0
 28 20  2  0  0  0  0
 28 24  1  0  0  0  0
 29 27  2  0  0  0  0
 29 21  1  0  0  0  0
 30 31  2  0  0  0  0
 32 21  1  0  0  0  0
 32 34  1  1  0  0  0
 33 32  1  0  0  0  0
M  END
>  <MODEL>
4

>  <REMARK>
 VINA RESULT:      -7.6      3.484      4.827
  Name = 
  4 active torsions:
  status: ('A' for Active; 'I' for Inactive)
    1  A    between atoms: N_1  and  C_9
    2  A    between atoms: N_3  and  C_25
    3  A    between atoms: C_7  and  C_11
    4  A    between atoms: C_8  and  C_9
                            x       y       z     vdW  Elec       q    Type
                         _______ _______ _______ _____ _____    ______ ____

>  <TORSDO>
F 4

$$$$
=
 OpenBabel11052420283D

 34 39  0  0  1  0  0  0  0  0999 V2000
  194.2410  175.0610  144.1850 N   0  0  0  0  0  0  0  0  0  0  0  0
  191.8910  174.5260  141.4040 C   0  0  0  0  0  2  0  0  0  0  0  0
  194.0130  175.3750  141.3960 N   0  0  0  0  0  0  0  0  0  0  0  0
  196.3280  176.2590  143.9010 N   0  0  0  0  0  0  0  0  0  0  0  0
  196.9280  176.7460  142.7810 C   0  0  0  0  0  3  0  0  0  0  0  0
  195.0960  175.8130  142.0620 C   0  0  0  0  0  0  0  0  0  0  0  0
  195.1950  175.6950  143.4590 C   0  0  0  0  0  0  0  0  0  0  0  0
  196.1930  176.5000  141.6110 C   0  0  0  0  0  3  0  0  0  0  0  0
  190.5740  174.1420  141.9840 C   0  0  0  0  0  2  0  0  0  0  0  0
  190.6160  172.8180  142.6570 C   0  0  0  0  0  0  0  0  0  0  0  0
  191.4240  172.6200  143.6960 C   0  0  0  0  0  3  0  0  0  0  0  0
  193.0180  174.7440  142.0900 C   0  0  0  0  0  0  0  0  0  0  0  0
  192.4670  173.5430  144.1770 C   0  0  0  0  0  2  0  0  0  0  0  0
  193.1870  174.4710  143.5070 C   0  0  0  0  0  0  0  0  0  0  0  0
  189.6690  171.8070  142.2810 N   0  0  0  0  0  0  0  0  0  0  0  0
  188.3220  172.0180  142.4680 O   0  0  0  0  0  0  0  0  0  0  0  0
  190.0500  170.7300  141.7770 O   0  0  0  0  0  0  0  0  0  0  0  0
  194.3810  174.9810  145.6480 C   0  0  0  0  0  2  0  0  0  0  0  0
  189.0870  175.3070  146.0670 C   0  0  0  0  0  3  0  0  0  0  0  0
  191.4460  176.6800  145.4660 C   0  0  0  0  0  0  0  0  0  0  0  0
  188.1740  176.8480  142.8250 C   0  0  0  0  0  0  0  0  0  0  0  0
  193.7420  176.1770  146.3760 C   0  0  1  0  0  3  0  0  0  0  0  0
  188.0840  176.1180  144.0140 C   0  0  0  0  0  3  0  0  0  0  0  0
  189.1730  176.0590  144.8880 C   0  0  0  0  0  0  0  0  0  0  0  0
  193.0570  177.4010  145.1970 S   0  0  0  0  0  0  0  0  0  0  0  0
  192.6360  175.7550  147.3500 C   0  0  0  0  0  2  0  0  0  0  0  0
  190.4570  177.4720  143.3760 C   0  0  0  0  0  3  0  0  0  0  0  0
  190.3710  176.7470  144.5710 C   0  0  0  0  0  0  0  0  0  0  0  0
  189.3640  177.5230  142.5070 C   0  0  0  0  0  3  0  0  0  0  0  0
  191.3620  175.9050  146.6060 C   0  0  0  0  0  0  0  0  0  0  0  0
  190.1900  175.2170  146.9260 C   0  0  0  0  0  3  0  0  0  0  0  0
  186.9930  176.8990  141.9100 C   0  0  2  0  0  3  0  0  0  0  0  0
  187.1970  177.8440  140.9050 O   0  0  0  0  0  1  0  0  0  0  0  0
  185.7280  177.2270  142.6810 C   0  0  0  0  0  1  0  0  0  0  0  0
  1 18  1  0  0  0  0
  2  9  1  0  0  0  0
  2 12  1  0  0  0  0
  3  6  2  0  0  0  0
  3 12  1  0  0  0  0
  5  4  1  0  0  0  0
  6  7  1  0  0  0  0
  7  4  2  0  0  0  0
  7  1  1  0  0  0  0
  8  6  1  0  0  0  0
  8  5  2  0  0  0  0
  9 10  1  0  0  0  0
 10 11  2  0  0  0  0
 11 13  1  0  0  0  0
 12 14  2  0  0  0  0
 14 13  1  0  0  0  0
 14  1  1  0  0  0  0
 15 16  2  0  0  0  0
 15 10  1  0  0  0  0
 17 15  2  0  0  0  0
 19 31  1  0  0  0  0
 20 30  1  0  0  0  0
 21 23  2  0  0  0  0
 22 18  1  6  0  0  0
 22 26  1  0  0  0  0
 23 24  1  0  0  0  0
 24 19  2  0  0  0  0
 25 20  1  0  0  0  0
 25 22  1  0  0  0  0
 27 28  1  0  0  0  0
 28 24  1  0  0  0  0
 28 20  2  0  0  0  0
 29 21  1  0  0  0  0
 29 27  2  0  0  0  0
 30 31  2  0  0  0  0
 30 26  1  0  0  0  0
 32 34  1  1  0  0  0
 32 21  1  0  0  0  0
 33 32  1  0  0  0  0
M  END
>  <MODEL>
5

>  <REMARK>
 VINA RESULT:      -7.6      1.751      2.121
  Name = 
  4 active torsions:
  status: ('A' for Active; 'I' for Inactive)
    1  A    between atoms: N_1  and  C_9
    2  A    between atoms: N_3  and  C_25
    3  A    between atoms: C_7  and  C_11
    4  A    between atoms: C_8  and  C_9
                            x       y       z     vdW  Elec       q    Type
                         _______ _______ _______ _____ _____    ______ ____

>  <TORSDO>
F 4

$$$$
=
 OpenBabel11052420283D

 34 39  0  0  1  0  0  0  0  0999 V2000
  189.8610  172.1250  140.9580 N   0  0  0  0  0  0  0  0  0  0  0  0
  190.4430  172.6240  137.3580 C   0  0  0  0  0  2  0  0  0  0  0  0
  190.8310  170.7960  138.6730 N   0  0  0  0  0  0  0  0  0  0  0  0
  190.6530  170.1600  142.1340 N   0  0  0  0  0  0  0  0  0  0  0  0
  191.2500  169.0270  141.6720 C   0  0  0  0  0  3  0  0  0  0  0  0
  190.8850  170.2240  139.8890 C   0  0  0  0  0  0  0  0  0  0  0  0
  190.4390  170.9000  141.0370 C   0  0  0  0  0  0  0  0  0  0  0  0
  191.4230  169.0260  140.2800 C   0  0  0  0  0  3  0  0  0  0  0  0
  190.2070  174.0620  137.0510 C   0  0  0  0  0  2  0  0  0  0  0  0
  188.7850  174.4540  137.2260 C   0  0  0  0  0  0  0  0  0  0  0  0
  188.2020  174.3450  138.4170 C   0  0  0  0  0  3  0  0  0  0  0  0
  190.2720  172.0370  138.5470 C   0  0  0  0  0  0  0  0  0  0  0  0
  188.7670  173.6840  139.6070 C   0  0  0  0  0  2  0  0  0  0  0  0
  189.6590  172.6730  139.7010 C   0  0  0  0  0  0  0  0  0  0  0  0
  188.0930  175.0960  136.1440 N   0  0  0  0  0  0  0  0  0  0  0  0
  186.9870  175.8750  136.3960 O   0  0  0  0  0  0  0  0  0  0  0  0
  188.4860  174.9630  134.9650 O   0  0  0  0  0  0  0  0  0  0  0  0
  189.4280  172.8010  142.1910 C   0  0  0  0  0  2  0  0  0  0  0  0
  188.6320  175.2140  146.8660 C   0  0  0  0  0  3  0  0  0  0  0  0
  189.4280  175.5350  144.2060 C   0  0  0  0  0  0  0  0  0  0  0  0
  186.5370  178.1020  145.8690 C   0  0  0  0  0  0  0  0  0  0  0  0
  190.4840  173.7790  142.7380 C   0  0  1  0  0  3  0  0  0  0  0  0
  187.1160  177.0940  146.6450 C   0  0  0  0  0  3  0  0  0  0  0  0
  188.0720  176.2380  146.0910 C   0  0  0  0  0  0  0  0  0  0  0  0
  189.9760  175.5240  142.5070 S   0  0  0  0  0  0  0  0  0  0  0  0
  190.7930  173.5460  144.2220 C   0  0  0  0  0  2  0  0  0  0  0  0
  187.8760  177.4070  143.9630 C   0  0  0  0  0  3  0  0  0  0  0  0
  188.4610  176.3990  144.7380 C   0  0  0  0  0  0  0  0  0  0  0  0
  186.9180  178.2550  144.5260 C   0  0  0  0  0  3  0  0  0  0  0  0
  189.9440  174.5060  144.9690 C   0  0  0  0  0  0  0  0  0  0  0  0
  189.5630  174.3340  146.3010 C   0  0  0  0  0  3  0  0  0  0  0  0
  185.5210  179.0060  146.4880 C   0  0  2  0  0  3  0  0  0  0  0  0
  185.9130  179.3690  147.7760 O   0  0  0  0  0  1  0  0  0  0  0  0
  184.1590  178.3390  146.5300 C   0  0  0  0  0  1  0  0  0  0  0  0
  1  7  1  0  0  0  0
  1 18  1  0  0  0  0
  2 12  1  0  0  0  0
  3  6  2  0  0  0  0
  5  4  1  0  0  0  0
  6  8  1  0  0  0  0
  6  7  1  0  0  0  0
  7  4  2  0  0  0  0
  8  5  2  0  0  0  0
  9 10  1  0  0  0  0
  9  2  1  0  0  0  0
 10 11  2  0  0  0  0
 11 13  1  0  0  0  0
 12  3  1  0  0  0  0
 12 14  2  0  0  0  0
 13 14  1  0  0  0  0
 14  1  1  0  0  0  0
 15 16  2  0  0  0  0
 15 10  1  0  0  0  0
 17 15  2  0  0  0  0
 20 28  2  0  0  0  0
 20 30  1  0  0  0  0
 21 32  1  0  0  0  0
 21 23  2  0  0  0  0
 22 18  1  1  0  0  0
 22 26  1  0  0  0  0
 24 23  1  0  0  0  0
 24 19  2  0  0  0  0
 25 22  1  0  0  0  0
 25 20  1  0  0  0  0
 26 30  1  0  0  0  0
 27 29  2  0  0  0  0
 27 28  1  0  0  0  0
 28 24  1  0  0  0  0
 29 21  1  0  0  0  0
 30 31  2  0  0  0  0
 31 19  1  0  0  0  0
 32 34  1  1  0  0  0
 32 33  1  0  0  0  0
M  END
>  <MODEL>
6

>  <REMARK>
 VINA RESULT:      -7.5      3.417      5.053
  Name = 
  4 active torsions:
  status: ('A' for Active; 'I' for Inactive)
    1  A    between atoms: N_1  and  C_9
    2  A    between atoms: N_3  and  C_25
    3  A    between atoms: C_7  and  C_11
    4  A    between atoms: C_8  and  C_9
                            x       y       z     vdW  Elec       q    Type
                         _______ _______ _______ _____ _____    ______ ____

>  <TORSDO>
F 4

$$$$
=
 OpenBabel11052420283D

 34 39  0  0  1  0  0  0  0  0999 V2000
  191.2870  173.4980  144.9490 N   0  0  0  0  0  0  0  0  0  0  0  0
  194.7150  174.5790  145.7410 C   0  0  0  0  0  2  0  0  0  0  0  0
  192.7200  175.2130  146.6600 N   0  0  0  0  0  0  0  0  0  0  0  0
  189.3390  174.5750  145.9050 N   0  0  0  0  0  0  0  0  0  0  0  0
  189.2350  175.5420  146.8570 C   0  0  0  0  0  3  0  0  0  0  0  0
  191.3760  175.1970  146.6550 C   0  0  0  0  0  0  0  0  0  0  0  0
  190.6570  174.3720  145.7730 C   0  0  0  0  0  0  0  0  0  0  0  0
  190.4790  175.9670  147.3470 C   0  0  0  0  0  3  0  0  0  0  0  0
  195.6250  174.0100  144.7080 C   0  0  0  0  0  2  0  0  0  0  0  0
  195.7080  172.5290  144.7800 C   0  0  0  0  0  0  0  0  0  0  0  0
  194.6170  171.7880  144.5990 C   0  0  0  0  0  3  0  0  0  0  0  0
  193.3980  174.3610  145.8340 C   0  0  0  0  0  0  0  0  0  0  0  0
  193.2320  172.2820  144.5090 C   0  0  0  0  0  2  0  0  0  0  0  0
  192.6650  173.3890  145.0400 C   0  0  0  0  0  0  0  0  0  0  0  0
  196.9940  171.9000  144.8860 N   0  0  0  0  0  0  0  0  0  0  0  0
  197.1980  170.8940  145.8020 O   0  0  0  0  0  0  0  0  0  0  0  0
  197.9390  172.2500  144.1480 O   0  0  0  0  0  0  0  0  0  0  0  0
  190.4910  172.6690  144.0300 C   0  0  0  0  0  2  0  0  0  0  0  0
  189.6520  177.8970  143.5030 C   0  0  0  0  0  3  0  0  0  0  0  0
  188.9010  175.3390  142.6610 C   0  0  0  0  0  0  0  0  0  0  0  0
  185.9730  178.1050  143.8810 C   0  0  0  0  0  0  0  0  0  0  0  0
  190.3630  173.2870  142.6260 C   0  0  1  0  0  3  0  0  0  0  0  0
  187.3250  178.4620  143.8810 C   0  0  0  0  0  3  0  0  0  0  0  0
  188.2970  177.5410  143.4800 C   0  0  0  0  0  0  0  0  0  0  0  0
  188.6170  173.6400  142.1950 S   0  0  0  0  0  0  0  0  0  0  0  0
  191.1810  174.5740  142.4700 C   0  0  0  0  0  2  0  0  0  0  0  0
  186.5560  175.8880  143.0730 C   0  0  0  0  0  3  0  0  0  0  0  0
  187.9100  176.2430  143.0660 C   0  0  0  0  0  0  0  0  0  0  0  0
  185.5910  176.8150  143.4790 C   0  0  0  0  0  3  0  0  0  0  0  0
  190.2360  175.6890  142.7250 C   0  0  0  0  0  0  0  0  0  0  0  0
  190.6290  176.9630  143.1370 C   0  0  0  0  0  3  0  0  0  0  0  0
  184.9530  179.1100  144.3090 C   0  0  2  0  0  3  0  0  0  0  0  0
  185.4260  180.4040  144.0960 O   0  0  0  0  0  1  0  0  0  0  0  0
  184.5930  178.9240  145.7720 C   0  0  0  0  0  1  0  0  0  0  0  0
  1 14  1  0  0  0  0
  1  7  1  0  0  0  0
  2 12  1  0  0  0  0
  4  5  1  0  0  0  0
  5  8  2  0  0  0  0
  6  3  2  0  0  0  0
  6  8  1  0  0  0  0
  7  4  2  0  0  0  0
  7  6  1  0  0  0  0
  9 10  1  0  0  0  0
  9  2  1  0  0  0  0
 10 15  1  0  0  0  0
 11 10  2  0  0  0  0
 12  3  1  0  0  0  0
 13 11  1  0  0  0  0
 13 14  1  0  0  0  0
 14 12  2  0  0  0  0
 15 16  2  0  0  0  0
 17 15  2  0  0  0  0
 18  1  1  0  0  0  0
 20 30  2  0  0  0  0
 20 28  1  0  0  0  0
 21 32  1  0  0  0  0
 22 18  1  1  0  0  0
 23 21  1  0  0  0  0
 24 19  1  0  0  0  0
 24 23  2  0  0  0  0
 25 22  1  0  0  0  0
 25 20  1  0  0  0  0
 26 22  1  0  0  0  0
 26 30  1  0  0  0  0
 27 29  1  0  0  0  0
 28 27  2  0  0  0  0
 28 24  1  0  0  0  0
 29 21  2  0  0  0  0
 30 31  1  0  0  0  0
 31 19  2  0  0  0  0
 32 34  1  1  0  0  0
 33 32  1  0  0  0  0
M  END
>  <MODEL>
7

>  <REMARK>
 VINA RESULT:      -7.5      3.336      5.305
  Name = 
  4 active torsions:
  status: ('A' for Active; 'I' for Inactive)
    1  A    between atoms: N_1  and  C_9
    2  A    between atoms: N_3  and  C_25
    3  A    between atoms: C_7  and  C_11
    4  A    between atoms: C_8  and  C_9
                            x       y       z     vdW  Elec       q    Type
                         _______ _______ _______ _____ _____    ______ ____

>  <TORSDO>
F 4

$$$$
=
 OpenBabel11052420283D

 34 39  0  0  1  0  0  0  0  0999 V2000
  194.5940  173.8690  143.7570 N   0  0  0  0  0  0  0  0  0  0  0  0
  196.7810  174.6620  140.9050 C   0  0  0  0  0  2  0  0  0  0  0  0
  197.1990  173.4270  142.7820 N   0  0  0  0  0  0  0  0  0  0  0  0
  195.4210  172.7720  145.7530 N   0  0  0  0  0  0  0  0  0  0  0  0
  196.6420  172.2380  146.0330 C   0  0  0  0  0  3  0  0  0  0  0  0
  196.8250  172.9900  143.9980 C   0  0  0  0  0  0  0  0  0  0  0  0
  195.5390  173.2440  144.5040 C   0  0  0  0  0  0  0  0  0  0  0  0
  197.5520  172.3590  144.9730 C   0  0  0  0  0  3  0  0  0  0  0  0
  196.0810  175.6670  140.0570 C   0  0  0  0  0  2  0  0  0  0  0  0
  194.8630  175.1150  139.4110 C   0  0  0  0  0  0  0  0  0  0  0  0
  193.8580  174.6610  140.1570 C   0  0  0  0  0  3  0  0  0  0  0  0
  196.2840  174.0770  142.0000 C   0  0  0  0  0  0  0  0  0  0  0  0
  193.8750  174.4630  141.6160 C   0  0  0  0  0  2  0  0  0  0  0  0
  194.9070  174.1980  142.4480 C   0  0  0  0  0  0  0  0  0  0  0  0
  194.7110  175.2200  137.9880 N   0  0  0  0  0  0  0  0  0  0  0  0
  193.4720  175.4630  137.4410 O   0  0  0  0  0  0  0  0  0  0  0  0
  195.6960  175.0980  137.2290 O   0  0  0  0  0  0  0  0  0  0  0  0
  193.2680  174.1300  144.3400 C   0  0  0  0  0  2  0  0  0  0  0  0
  188.8470  175.3340  147.0450 C   0  0  0  0  0  3  0  0  0  0  0  0
  190.9720  176.3320  145.5280 C   0  0  0  0  0  0  0  0  0  0  0  0
  187.0160  177.4200  144.5920 C   0  0  0  0  0  0  0  0  0  0  0  0
  193.2690  175.3160  145.3210 C   0  0  1  0  0  3  0  0  0  0  0  0
  187.2780  176.5700  145.6710 C   0  0  0  0  0  3  0  0  0  0  0  0
  188.5910  176.2050  145.9770 C   0  0  0  0  0  0  0  0  0  0  0  0
  192.4350  176.7850  144.6100 S   0  0  0  0  0  0  0  0  0  0  0  0
  192.6110  174.9740  146.6630 C   0  0  0  0  0  2  0  0  0  0  0  0
  189.3950  177.5520  144.1140 C   0  0  0  0  0  3  0  0  0  0  0  0
  189.6630  176.7040  145.1960 C   0  0  0  0  0  0  0  0  0  0  0  0
  188.0780  177.9080  143.8140 C   0  0  0  0  0  3  0  0  0  0  0  0
  191.2080  175.4430  146.5580 C   0  0  0  0  0  0  0  0  0  0  0  0
  190.1600  174.9390  147.3300 C   0  0  0  0  0  3  0  0  0  0  0  0
  185.6020  177.7980  144.2890 C   0  0  2  0  0  3  0  0  0  0  0  0
  185.1930  177.2280  143.0840 O   0  0  0  0  0  1  0  0  0  0  0  0
  185.4500  179.3070  144.2260 C   0  0  0  0  0  1  0  0  0  0  0  0
  1 18  1  0  0  0  0
  1  7  1  0  0  0  0
  2 12  1  0  0  0  0
  3  6  2  0  0  0  0
  4  5  1  0  0  0  0
  6  7  1  0  0  0  0
  6  8  1  0  0  0  0
  7  4  2  0  0  0  0
  8  5  2  0  0  0  0
  9  2  1  0  0  0  0
 10  9  1  0  0  0  0
 10 11  2  0  0  0  0
 11 13  1  0  0  0  0
 12 14  2  0  0  0  0
 12  3  1  0  0  0  0
 13 14  1  0  0  0  0
 14  1  1  0  0  0  0
 15 10  1  0  0  0  0
 16 15  2  0  0  0  0
 17 15  2  0  0  0  0
 19 31  1  0  0  0  0
 20 30  1  0  0  0  0
 21 23  2  0  0  0  0
 22 18  1  6  0  0  0
 22 26  1  0  0  0  0
 23 24  1  0  0  0  0
 24 19  2  0  0  0  0
 25 22  1  0  0  0  0
 25 20  1  0  0  0  0
 27 28  1  0  0  0  0
 28 20  2  0  0  0  0
 28 24  1  0  0  0  0
 29 27  2  0  0  0  0
 29 21  1  0  0  0  0
 30 26  1  0  0  0  0
 30 31  2  0  0  0  0
 32 34  1  6  0  0  0
 32 21  1  0  0  0  0
 33 32  1  0  0  0  0
M  END
>  <MODEL>
8

>  <REMARK>
 VINA RESULT:      -7.2      2.720      3.979
  Name = 
  4 active torsions:
  status: ('A' for Active; 'I' for Inactive)
    1  A    between atoms: N_1  and  C_9
    2  A    between atoms: N_3  and  C_25
    3  A    between atoms: C_7  and  C_11
    4  A    between atoms: C_8  and  C_9
                            x       y       z     vdW  Elec       q    Type
                         _______ _______ _______ _____ _____    ______ ____

>  <TORSDO>
F 4

$$$$
=
 OpenBabel11052420283D

 34 39  0  0  1  0  0  0  0  0999 V2000
  189.5830  176.1180  143.3400 N   0  0  0  0  0  0  0  0  0  0  0  0
  186.1250  177.3550  143.1000 C   0  0  0  0  0  2  0  0  0  0  0  0
  187.1680  175.6680  141.9650 N   0  0  0  0  0  0  0  0  0  0  0  0
  190.4850  174.4950  141.7850 N   0  0  0  0  0  0  0  0  0  0  0  0
  189.8850  173.7900  140.7870 C   0  0  0  0  0  3  0  0  0  0  0  0
  188.2860  174.9890  141.6520 C   0  0  0  0  0  0  0  0  0  0  0  0
  189.5030  175.2410  142.3090 C   0  0  0  0  0  0  0  0  0  0  0  0
  188.5160  174.0720  140.6610 C   0  0  0  0  0  3  0  0  0  0  0  0
  186.0260  178.6000  143.9120 C   0  0  0  0  0  2  0  0  0  0  0  0
  186.1980  178.3440  145.3650 C   0  0  0  0  0  0  0  0  0  0  0  0
  187.3360  177.8260  145.8230 C   0  0  0  0  0  3  0  0  0  0  0  0
  187.2050  176.5750  142.9870 C   0  0  0  0  0  0  0  0  0  0  0  0
  188.4360  177.2810  145.0090 C   0  0  0  0  0  2  0  0  0  0  0  0
  188.4150  176.7210  143.7790 C   0  0  0  0  0  0  0  0  0  0  0  0
  185.1970  178.8040  146.2850 N   0  0  0  0  0  0  0  0  0  0  0  0
  185.5660  179.4160  147.4600 O   0  0  0  0  0  0  0  0  0  0  0  0
  183.9820  178.6630  146.0300 O   0  0  0  0  0  0  0  0  0  0  0  0
  190.8840  176.3620  143.9830 C   0  0  0  0  0  2  0  0  0  0  0  0
  195.5420  174.9160  146.1100 C   0  0  0  0  0  3  0  0  0  0  0  0
  192.8500  174.2440  145.7670 C   0  0  0  0  0  0  0  0  0  0  0  0
  195.8550  171.4230  144.9190 C   0  0  0  0  0  0  0  0  0  0  0  0
  190.9390  175.8530  145.4340 C   0  0  1  0  0  3  0  0  0  0  0  0
  196.1950  172.6950  145.3870 C   0  0  0  0  0  3  0  0  0  0  0  0
  195.1960  173.6340  145.6640 C   0  0  0  0  0  0  0  0  0  0  0  0
  191.0980  174.0280  145.5080 S   0  0  0  0  0  0  0  0  0  0  0  0
  192.0820  176.4820  146.2400 C   0  0  0  0  0  2  0  0  0  0  0  0
  193.5000  172.0160  145.0020 C   0  0  0  0  0  3  0  0  0  0  0  0
  193.8350  173.2910  145.4750 C   0  0  0  0  0  0  0  0  0  0  0  0
  194.5060  171.0860  144.7250 C   0  0  0  0  0  3  0  0  0  0  0  0
  193.2060  175.5170  146.1700 C   0  0  0  0  0  0  0  0  0  0  0  0
  194.5450  175.8690  146.3530 C   0  0  0  0  0  3  0  0  0  0  0  0
  196.9420  170.4360  144.6360 C   0  0  2  0  0  3  0  0  0  0  0  0
  197.7340  170.8760  143.5760 O   0  0  0  0  0  1  0  0  0  0  0  0
  196.3620  169.0710  144.3180 C   0  0  0  0  0  1  0  0  0  0  0  0
  1 14  1  0  0  0  0
  1 18  1  0  0  0  0
  2  9  1  0  0  0  0
  3 12  1  0  0  0  0
  4  7  2  0  0  0  0
  5  4  1  0  0  0  0
  6  3  2  0  0  0  0
  6  7  1  0  0  0  0
  7  1  1  0  0  0  0
  8  5  2  0  0  0  0
  8  6  1  0  0  0  0
  9 10  1  0  0  0  0
 10 11  2  0  0  0  0
 10 15  1  0  0  0  0
 12  2  1  0  0  0  0
 12 14  2  0  0  0  0
 13 11  1  0  0  0  0
 14 13  1  0  0  0  0
 15 16  2  0  0  0  0
 17 15  2  0  0  0  0
 19 31  1  0  0  0  0
 20 30  1  0  0  0  0
 21 23  2  0  0  0  0
 22 18  1  6  0  0  0
 22 25  1  0  0  0  0
 22 26  1  0  0  0  0
 23 24  1  0  0  0  0
 24 19  2  0  0  0  0
 25 20  1  0  0  0  0
 27 28  1  0  0  0  0
 28 24  1  0  0  0  0
 28 20  2  0  0  0  0
 29 21  1  0  0  0  0
 29 27  2  0  0  0  0
 30 26  1  0  0  0  0
 30 31  2  0  0  0  0
 32 34  1  6  0  0  0
 32 21  1  0  0  0  0
 33 32  1  0  0  0  0
M  END
>  <MODEL>
9

>  <REMARK>
 VINA RESULT:      -7.2      3.357      7.660
  Name = 
  4 active torsions:
  status: ('A' for Active; 'I' for Inactive)
    1  A    between atoms: N_1  and  C_9
    2  A    between atoms: N_3  and  C_25
    3  A    between atoms: C_7  and  C_11
    4  A    between atoms: C_8  and  C_9
                            x       y       z     vdW  Elec       q    Type
                         _______ _______ _______ _____ _____    ______ ____

>  <TORSDO>
F 4

$$$$
