=
 OpenBabel11052417213D

 30 34  0  0  1  0  0  0  0  0999 V2000
  189.5170  176.4140  143.8360 C   0  0  0  0  0  0  0  0  0  0  0  0
  191.7280  173.3820  144.3880 C   0  0  0  0  0  2  0  0  0  0  0  0
  191.1920  176.6120  146.4990 N   0  0  0  0  0  2  0  0  0  0  0  0
  188.5500  176.9270  144.7490 C   0  0  0  0  0  0  0  0  0  0  0  0
  189.4020  176.6770  142.4710 C   0  0  0  0  0  3  0  0  0  0  0  0
  184.0920  178.2010  145.9330 C   0  0  0  0  0  2  0  0  0  0  0  0
  187.4140  177.9990  142.8450 C   0  0  0  0  0  0  0  0  0  0  0  0
  187.4400  177.1540  147.0550 C   0  0  0  0  0  2  0  0  0  0  0  0
  189.8960  178.1070  147.6940 O   0  0  0  0  0  0  0  0  0  0  0  0
  188.3620  177.4520  141.9780 C   0  0  0  0  0  3  0  0  0  0  0  0
  187.5060  177.7500  144.2270 C   0  0  0  0  0  0  0  0  0  0  0  0
  192.7850  173.5340  145.4380 C   0  0  0  0  0  3  0  0  0  0  0  0
  186.9610  178.5070  146.5560 C   0  0  2  0  0  3  0  0  0  0  0  0
  184.5760  178.2640  147.3760 C   0  0  0  0  0  2  0  0  0  0  0  0
  190.5040  174.2250  144.6810 C   0  0  0  0  0  2  0  0  0  0  0  0
  191.6820  176.4710  145.1330 C   0  0  2  0  0  3  0  0  0  0  0  0
  193.3880  174.6530  145.7110 N   0  0  0  0  0  0  0  0  0  0  0  0
  190.7510  175.6600  144.2380 C   0  0  2  0  0  3  0  0  0  0  0  0
  188.6340  175.2480  146.4430 O   0  0  0  0  0  1  0  0  0  0  0  0
  189.9270  177.1820  146.8370 C   0  0  0  0  0  0  0  0  0  0  0  0
  188.6430  176.6290  146.2540 C   0  0  1  0  0  0  0  0  0  0  0  0
  185.8690  179.0760  147.4670 C   0  0  0  0  0  2  0  0  0  0  0  0
  185.1560  177.5530  145.0540 C   0  0  0  0  0  2  0  0  0  0  0  0
  193.0800  175.9330  145.1450 C   0  0  0  0  0  0  0  0  0  0  0  0
  194.0210  176.6830  144.7730 O   0  0  0  0  0  0  0  0  0  0  0  0
  186.4580  178.3600  145.1200 C   0  0  2  0  0  3  0  0  0  0  0  0
  186.3740  178.8010  142.3530 O   0  0  0  0  0  0  0  0  0  0  0  0
  185.5400  178.4230  141.2620 C   0  0  0  0  0  2  0  0  0  0  0  0
  184.1190  178.1980  141.7450 C   0  0  0  0  0  2  0  0  0  0  0  0
  183.1750  178.2280  140.5620 C   0  0  0  0  0  1  0  0  0  0  0  0
  1 18  1  0  0  0  0
  1  4  1  0  0  0  0
  2 15  1  0  0  0  0
  2 12  1  0  0  0  0
  3 20  1  0  0  0  0
  4 21  1  0  0  0  0
  5  1  2  0  0  0  0
  6 14  1  0  0  0  0
  7 11  1  0  0  0  0
 10  5  1  0  0  0  0
 10  7  2  0  0  0  0
 11  4  2  0  0  0  0
 11 26  1  0  0  0  0
 12 17  2  0  0  0  0
 13  8  1  1  0  0  0
 13 22  1  0  0  0  0
 14 22  1  0  0  0  0
 16 24  1  1  0  0  0
 16  3  1  0  0  0  0
 18 15  1  1  0  0  0
 18 16  1  0  0  0  0
 20  9  2  0  0  0  0
 21 19  1  1  0  0  0
 21 20  1  0  0  0  0
 21  8  1  0  0  0  0
 23  6  1  0  0  0  0
 24 17  1  0  0  0  0
 25 24  2  0  0  0  0
 26 23  1  1  0  0  0
 26 13  1  0  0  0  0
 27  7  1  0  0  0  0
 28 29  1  0  0  0  0
 28 27  1  0  0  0  0
 30 29  1  0  0  0  0
M  END
>  <MODEL>
1

>  <REMARK>
 VINA RESULT:      -9.0      0.000      0.000
  Name = 
  3 active torsions:
  status: ('A' for Active; 'I' for Inactive)
    1  A    between atoms: O_6  and  C_8
    2  A    between atoms: O_6  and  C_21
    3  A    between atoms: C_9  and  C_21
                            x       y       z     vdW  Elec       q    Type
                         _______ _______ _______ _____ _____    ______ ____

>  <TORSDO>
F 3

$$$$
=
 OpenBabel11052417213D

 30 34  0  0  1  0  0  0  0  0999 V2000
  190.6200  175.7970  145.9030 C   0  0  0  0  0  0  0  0  0  0  0  0
  194.3720  176.2700  146.2020 C   0  0  0  0  0  2  0  0  0  0  0  0
  192.1940  174.5040  143.4970 N   0  0  0  0  0  2  0  0  0  0  0  0
  189.8110  176.1740  144.7920 C   0  0  0  0  0  0  0  0  0  0  0  0
  190.0550  175.6690  147.1710 C   0  0  0  0  0  3  0  0  0  0  0  0
  186.1830  178.5860  142.8110 C   0  0  0  0  0  2  0  0  0  0  0  0
  187.8680  176.2250  146.3040 C   0  0  0  0  0  0  0  0  0  0  0  0
  189.4170  176.8850  142.3540 C   0  0  0  0  0  2  0  0  0  0  0  0
  190.5310  174.4570  141.8920 O   0  0  0  0  0  0  0  0  0  0  0  0
  188.6990  175.8870  147.3750 C   0  0  0  0  0  3  0  0  0  0  0  0
  188.4130  176.3620  145.0130 C   0  0  0  0  0  0  0  0  0  0  0  0
  195.2060  175.4200  145.2930 C   0  0  0  0  0  3  0  0  0  0  0  0
  188.0280  176.2980  142.5350 C   0  0  2  0  0  3  0  0  0  0  0  0
  186.7820  178.2240  141.4580 C   0  0  0  0  0  2  0  0  0  0  0  0
  193.0180  176.5940  145.6020 C   0  0  0  0  0  2  0  0  0  0  0  0
  192.3190  174.2100  144.9190 C   0  0  2  0  0  3  0  0  0  0  0  0
  194.8780  174.2210  144.9090 N   0  0  0  0  0  0  0  0  0  0  0  0
  192.0700  175.4220  145.8110 C   0  0  2  0  0  3  0  0  0  0  0  0
  191.4320  177.3020  143.4500 O   0  0  0  0  0  1  0  0  0  0  0  0
  191.0160  175.0460  142.8960 C   0  0  0  0  0  0  0  0  0  0  0  0
  190.4180  176.3470  143.3900 C   0  0  1  0  0  0  0  0  0  0  0  0
  187.0950  176.7280  141.3990 C   0  0  0  0  0  2  0  0  0  0  0  0
  187.1600  178.2310  143.9270 C   0  0  0  0  0  2  0  0  0  0  0  0
  193.6390  173.5580  145.1920 C   0  0  0  0  0  0  0  0  0  0  0  0
  193.6570  172.3500  145.5470 O   0  0  0  0  0  0  0  0  0  0  0  0
  187.4760  176.7310  143.8940 C   0  0  2  0  0  3  0  0  0  0  0  0
  186.4940  176.4250  146.5010 O   0  0  0  0  0  0  0  0  0  0  0  0
  185.9550  177.1430  147.6060 C   0  0  0  0  0  2  0  0  0  0  0  0
  185.4880  178.5150  147.1590 C   0  0  0  0  0  2  0  0  0  0  0  0
  184.2660  178.3680  146.2770 C   0  0  0  0  0  1  0  0  0  0  0  0
  1  5  1  0  0  0  0
  4 11  1  0  0  0  0
  4  1  2  0  0  0  0
  5 10  2  0  0  0  0
  6 23  1  0  0  0  0
  7 27  1  0  0  0  0
  7 10  1  0  0  0  0
  8 13  1  0  0  0  0
  8 21  1  0  0  0  0
  9 20  2  0  0  0  0
 11  7  2  0  0  0  0
 12  2  1  0  0  0  0
 13 22  1  6  0  0  0
 13 26  1  0  0  0  0
 14  6  1  0  0  0  0
 15  2  1  0  0  0  0
 16  3  1  6  0  0  0
 16 24  1  0  0  0  0
 16 18  1  0  0  0  0
 17 24  1  0  0  0  0
 17 12  2  0  0  0  0
 18 15  1  6  0  0  0
 18  1  1  0  0  0  0
 20 21  1  0  0  0  0
 20  3  1  0  0  0  0
 21 19  1  1  0  0  0
 21  4  1  0  0  0  0
 22 14  1  0  0  0  0
 24 25  2  0  0  0  0
 26 23  1  6  0  0  0
 26 11  1  0  0  0  0
 27 28  1  0  0  0  0
 29 28  1  0  0  0  0
 30 29  1  0  0  0  0
M  END
>  <MODEL>
2

>  <REMARK>
 VINA RESULT:      -8.6      1.998      4.336
  Name = 
  3 active torsions:
  status: ('A' for Active; 'I' for Inactive)
    1  A    between atoms: O_6  and  C_8
    2  A    between atoms: O_6  and  C_21
    3  A    between atoms: C_9  and  C_21
                            x       y       z     vdW  Elec       q    Type
                         _______ _______ _______ _____ _____    ______ ____

>  <TORSDO>
F 3

$$$$
=
 OpenBabel11052417213D

 30 34  0  0  1  0  0  0  0  0999 V2000
  189.7340  174.9440  143.4620 C   0  0  0  0  0  0  0  0  0  0  0  0
  191.7420  171.7500  143.8510 C   0  0  0  0  0  2  0  0  0  0  0  0
  191.8990  175.1520  145.7440 N   0  0  0  0  0  2  0  0  0  0  0  0
  189.0070  175.6110  144.4920 C   0  0  0  0  0  0  0  0  0  0  0  0
  189.3810  175.1240  142.1250 C   0  0  0  0  0  3  0  0  0  0  0  0
  184.9840  177.4000  146.3670 C   0  0  0  0  0  2  0  0  0  0  0  0
  187.6220  176.6610  142.7470 C   0  0  0  0  0  0  0  0  0  0  0  0
  188.3840  176.1020  146.9360 C   0  0  0  0  0  2  0  0  0  0  0  0
  190.9890  176.8450  147.0270 O   0  0  0  0  0  0  0  0  0  0  0  0
  188.3360  175.9640  141.7690 C   0  0  0  0  0  3  0  0  0  0  0  0
  187.9560  176.4970  144.1040 C   0  0  0  0  0  0  0  0  0  0  0  0
  192.9900  171.8660  144.6720 C   0  0  0  0  0  3  0  0  0  0  0  0
  187.9350  177.4590  146.4210 C   0  0  2  0  0  3  0  0  0  0  0  0
  185.7400  177.5110  147.6850 C   0  0  0  0  0  2  0  0  0  0  0  0
  190.6730  172.7290  144.2930 C   0  0  0  0  0  2  0  0  0  0  0  0
  192.1040  174.8720  144.3280 C   0  0  2  0  0  3  0  0  0  0  0  0
  193.7280  172.9350  144.7330 N   0  0  0  0  0  0  0  0  0  0  0  0
  190.9530  174.0990  143.6920 C   0  0  2  0  0  3  0  0  0  0  0  0
  189.2710  174.0490  146.2780 O   0  0  0  0  0  1  0  0  0  0  0  0
  190.7760  175.8670  146.2600 C   0  0  0  0  0  0  0  0  0  0  0  0
  189.3610  175.4070  145.9740 C   0  0  1  0  0  0  0  0  0  0  0  0
  187.0910  178.1940  147.4660 C   0  0  0  0  0  2  0  0  0  0  0  0
  185.8010  176.5920  145.3640 C   0  0  0  0  0  2  0  0  0  0  0  0
  193.4270  174.1990  144.1260 C   0  0  0  0  0  0  0  0  0  0  0  0
  194.3390  174.8240  143.5250 O   0  0  0  0  0  0  0  0  0  0  0  0
  187.1550  177.2680  145.1200 C   0  0  2  0  0  3  0  0  0  0  0  0
  186.5790  177.5280  142.3900 O   0  0  0  0  0  0  0  0  0  0  0  0
  186.1360  177.7120  141.0490 C   0  0  0  0  0  2  0  0  0  0  0  0
  184.7120  178.2360  141.0380 C   0  0  0  0  0  2  0  0  0  0  0  0
  184.1310  178.1430  142.4330 C   0  0  0  0  0  1  0  0  0  0  0  0
  1 18  1  0  0  0  0
  1  4  1  0  0  0  0
  2 15  1  0  0  0  0
  2 12  1  0  0  0  0
  3 20  1  0  0  0  0
  4 21  1  0  0  0  0
  5  1  2  0  0  0  0
  6 14  1  0  0  0  0
  7 11  1  0  0  0  0
 10  5  1  0  0  0  0
 10  7  2  0  0  0  0
 11  4  2  0  0  0  0
 11 26  1  0  0  0  0
 12 17  2  0  0  0  0
 13  8  1  1  0  0  0
 13 22  1  0  0  0  0
 16 24  1  1  0  0  0
 16  3  1  0  0  0  0
 18 15  1  1  0  0  0
 18 16  1  0  0  0  0
 20  9  2  0  0  0  0
 21 20  1  0  0  0  0
 21 19  1  1  0  0  0
 21  8  1  0  0  0  0
 22 14  1  0  0  0  0
 23  6  1  0  0  0  0
 24 17  1  0  0  0  0
 25 24  2  0  0  0  0
 26 23  1  1  0  0  0
 26 13  1  0  0  0  0
 27  7  1  0  0  0  0
 28 27  1  0  0  0  0
 29 28  1  0  0  0  0
 29 30  1  0  0  0  0
M  END
>  <MODEL>
3

>  <REMARK>
 VINA RESULT:      -8.4      1.399      1.583
  Name = 
  3 active torsions:
  status: ('A' for Active; 'I' for Inactive)
    1  A    between atoms: O_6  and  C_8
    2  A    between atoms: O_6  and  C_21
    3  A    between atoms: C_9  and  C_21
                            x       y       z     vdW  Elec       q    Type
                         _______ _______ _______ _____ _____    ______ ____

>  <TORSDO>
F 3

$$$$
=
 OpenBabel11052417213D

 30 34  0  0  1  0  0  0  0  0999 V2000
  191.6580  174.9320  145.9450 C   0  0  0  0  0  0  0  0  0  0  0  0
  195.4500  175.0060  145.9910 C   0  0  0  0  0  2  0  0  0  0  0  0
  192.9250  173.2280  143.6140 N   0  0  0  0  0  2  0  0  0  0  0  0
  190.8230  175.2810  144.8430 C   0  0  0  0  0  0  0  0  0  0  0  0
  191.1650  175.0000  147.2480 C   0  0  0  0  0  3  0  0  0  0  0  0
  187.3520  177.8700  142.8060 C   0  0  0  0  0  2  0  0  0  0  0  0
  188.9990  175.7060  146.4420 C   0  0  0  0  0  0  0  0  0  0  0  0
  190.3500  175.7770  142.3670 C   0  0  0  0  0  2  0  0  0  0  0  0
  191.1670  173.2040  142.1150 O   0  0  0  0  0  0  0  0  0  0  0  0
  189.8570  175.3880  147.4980 C   0  0  0  0  0  3  0  0  0  0  0  0
  189.4700  175.6470  145.1170 C   0  0  0  0  0  0  0  0  0  0  0  0
  196.1280  173.9780  145.1370 C   0  0  0  0  0  3  0  0  0  0  0  0
  188.9210  175.3720  142.6850 C   0  0  2  0  0  3  0  0  0  0  0  0
  187.8210  177.3050  141.4710 C   0  0  0  0  0  2  0  0  0  0  0  0
  194.1030  175.4170  145.4310 C   0  0  0  0  0  2  0  0  0  0  0  0
  193.1100  173.0700  145.0520 C   0  0  2  0  0  3  0  0  0  0  0  0
  195.6500  172.7910  144.9050 N   0  0  0  0  0  0  0  0  0  0  0  0
  193.0510  174.3880  145.8180 C   0  0  2  0  0  3  0  0  0  0  0  0
  192.4650  176.0740  143.3020 O   0  0  0  0  0  1  0  0  0  0  0  0
  191.7760  173.8350  143.0220 C   0  0  0  0  0  0  0  0  0  0  0  0
  191.3530  175.2390  143.4010 C   0  0  1  0  0  0  0  0  0  0  0  0
  187.9680  175.7850  141.5600 C   0  0  0  0  0  2  0  0  0  0  0  0
  188.3560  177.5230  143.9000 C   0  0  0  0  0  2  0  0  0  0  0  0
  194.3690  172.3040  145.3240 C   0  0  0  0  0  0  0  0  0  0  0  0
  194.2810  171.1460  145.8080 O   0  0  0  0  0  0  0  0  0  0  0  0
  188.5070  176.0020  144.0150 C   0  0  2  0  0  3  0  0  0  0  0  0
  187.6690  176.0790  146.6880 O   0  0  0  0  0  0  0  0  0  0  0  0
  187.2980  177.3230  147.2720 C   0  0  0  0  0  2  0  0  0  0  0  0
  185.7860  177.4400  147.3350 C   0  0  0  0  0  2  0  0  0  0  0  0
  185.1810  176.7890  146.1090 C   0  0  0  0  0  1  0  0  0  0  0  0
  1  5  1  0  0  0  0
  4 11  1  0  0  0  0
  4  1  2  0  0  0  0
  5 10  2  0  0  0  0
  6 23  1  0  0  0  0
  7 27  1  0  0  0  0
  7 10  1  0  0  0  0
  8 13  1  0  0  0  0
  8 21  1  0  0  0  0
  9 20  2  0  0  0  0
 11  7  2  0  0  0  0
 12  2  1  0  0  0  0
 13 22  1  6  0  0  0
 13 26  1  0  0  0  0
 14 22  1  0  0  0  0
 14  6  1  0  0  0  0
 15  2  1  0  0  0  0
 16  3  1  6  0  0  0
 16 24  1  0  0  0  0
 16 18  1  0  0  0  0
 17 12  2  0  0  0  0
 17 24  1  0  0  0  0
 18 15  1  6  0  0  0
 18  1  1  0  0  0  0
 20 21  1  0  0  0  0
 20  3  1  0  0  0  0
 21 19  1  6  0  0  0
 21  4  1  0  0  0  0
 24 25  2  0  0  0  0
 26 23  1  6  0  0  0
 26 11  1  0  0  0  0
 27 28  1  0  0  0  0
 28 29  1  0  0  0  0
 30 29  1  0  0  0  0
M  END
>  <MODEL>
4

>  <REMARK>
 VINA RESULT:      -8.0      2.228      4.935
  Name = 
  3 active torsions:
  status: ('A' for Active; 'I' for Inactive)
    1  A    between atoms: O_6  and  C_8
    2  A    between atoms: O_6  and  C_21
    3  A    between atoms: C_9  and  C_21
                            x       y       z     vdW  Elec       q    Type
                         _______ _______ _______ _____ _____    ______ ____

>  <TORSDO>
F 3

$$$$
=
 OpenBabel11052417213D

 30 34  0  0  1  0  0  0  0  0999 V2000
  188.2260  175.9450  143.5220 C   0  0  0  0  0  0  0  0  0  0  0  0
  185.9400  178.9640  143.3220 C   0  0  0  0  0  2  0  0  0  0  0  0
  188.0380  177.4970  146.2600 N   0  0  0  0  0  2  0  0  0  0  0  0
  189.5870  175.9460  143.9490 C   0  0  0  0  0  0  0  0  0  0  0  0
  187.7560  174.9350  142.6830 C   0  0  0  0  0  3  0  0  0  0  0  0
  194.2470  175.1030  143.2640 C   0  0  0  0  0  2  0  0  0  0  0  0
  189.9200  173.8590  142.6860 C   0  0  0  0  0  0  0  0  0  0  0  0
  191.6490  176.9650  145.0950 C   0  0  0  0  0  2  0  0  0  0  0  0
  190.0150  176.8290  147.2530 O   0  0  0  0  0  0  0  0  0  0  0  0
  188.5900  173.9090  142.2620 C   0  0  0  0  0  3  0  0  0  0  0  0
  190.4220  174.8650  143.5330 C   0  0  0  0  0  0  0  0  0  0  0  0
  185.5380  179.5600  144.6370 C   0  0  0  0  0  3  0  0  0  0  0  0
  192.1150  175.5280  145.2610 C   0  0  2  0  0  3  0  0  0  0  0  0
  194.5020  175.9340  144.5160 C   0  0  0  0  0  2  0  0  0  0  0  0
  187.3070  178.3140  143.3830 C   0  0  0  0  0  2  0  0  0  0  0  0
  186.9600  176.8810  145.4950 C   0  0  2  0  0  3  0  0  0  0  0  0
  185.3730  178.8750  145.7300 N   0  0  0  0  0  0  0  0  0  0  0  0
  187.1870  176.9230  143.9880 C   0  0  2  0  0  3  0  0  0  0  0  0
  189.9420  178.2910  144.2220 O   0  0  0  0  0  1  0  0  0  0  0  0
  189.4040  177.0900  146.1800 C   0  0  0  0  0  0  0  0  0  0  0  0
  190.1340  177.0630  144.8530 C   0  0  1  0  0  0  0  0  0  0  0  0
  193.5930  175.4700  145.6550 C   0  0  0  0  0  2  0  0  0  0  0  0
  192.7910  175.2410  142.8350 C   0  0  0  0  0  2  0  0  0  0  0  0
  185.6450  177.4780  145.8940 C   0  0  0  0  0  0  0  0  0  0  0  0
  184.8170  176.7590  146.5130 O   0  0  0  0  0  0  0  0  0  0  0  0
  191.8630  174.7670  143.9590 C   0  0  2  0  0  3  0  0  0  0  0  0
  190.7600  172.8120  142.2810 O   0  0  0  0  0  0  0  0  0  0  0  0
  190.6420  171.4780  142.7640 C   0  0  0  0  0  2  0  0  0  0  0  0
  191.8260  171.1380  143.6510 C   0  0  0  0  0  2  0  0  0  0  0  0
  193.1120  171.4630  142.9210 C   0  0  0  0  0  1  0  0  0  0  0  0
  1  4  1  0  0  0  0
  1 18  1  0  0  0  0
  2 15  1  0  0  0  0
  2 12  1  0  0  0  0
  4 21  1  0  0  0  0
  5  1  2  0  0  0  0
  6 14  1  0  0  0  0
  7 11  1  0  0  0  0
 10  5  1  0  0  0  0
 10  7  2  0  0  0  0
 11  4  2  0  0  0  0
 11 26  1  0  0  0  0
 12 17  2  0  0  0  0
 13  8  1  6  0  0  0
 13 22  1  0  0  0  0
 14 22  1  0  0  0  0
 16 24  1  6  0  0  0
 16  3  1  0  0  0  0
 17 24  1  0  0  0  0
 18 15  1  1  0  0  0
 18 16  1  0  0  0  0
 20  3  1  0  0  0  0
 20  9  2  0  0  0  0
 21 19  1  6  0  0  0
 21  8  1  0  0  0  0
 21 20  1  0  0  0  0
 23  6  1  0  0  0  0
 24 25  2  0  0  0  0
 26 23  1  6  0  0  0
 26 13  1  0  0  0  0
 27  7  1  0  0  0  0
 27 28  1  0  0  0  0
 28 29  1  0  0  0  0
 30 29  1  0  0  0  0
M  END
>  <MODEL>
5

>  <REMARK>
 VINA RESULT:      -7.8      2.470      6.879
  Name = 
  3 active torsions:
  status: ('A' for Active; 'I' for Inactive)
    1  A    between atoms: O_6  and  C_8
    2  A    between atoms: O_6  and  C_21
    3  A    between atoms: C_9  and  C_21
                            x       y       z     vdW  Elec       q    Type
                         _______ _______ _______ _____ _____    ______ ____

>  <TORSDO>
F 3

$$$$
=
 OpenBabel11052417213D

 30 34  0  0  1  0  0  0  0  0999 V2000
  187.9840  175.9660  143.2810 C   0  0  0  0  0  0  0  0  0  0  0  0
  185.7330  179.0180  143.2290 C   0  0  0  0  0  2  0  0  0  0  0  0
  188.0200  177.5380  146.0140 N   0  0  0  0  0  2  0  0  0  0  0  0
  189.3720  175.9500  143.6070 C   0  0  0  0  0  0  0  0  0  0  0  0
  187.4390  174.9580  142.4860 C   0  0  0  0  0  3  0  0  0  0  0  0
  193.9570  175.0340  142.5870 C   0  0  0  0  0  2  0  0  0  0  0  0
  189.5820  173.8500  142.3380 C   0  0  0  0  0  0  0  0  0  0  0  0
  191.5280  176.9450  144.5900 C   0  0  0  0  0  2  0  0  0  0  0  0
  190.0550  176.8460  146.8640 O   0  0  0  0  0  0  0  0  0  0  0  0
  188.2250  173.9170  142.0120 C   0  0  0  0  0  3  0  0  0  0  0  0
  190.1590  174.8540  143.1380 C   0  0  0  0  0  0  0  0  0  0  0  0
  185.4380  179.6280  144.5650 C   0  0  0  0  0  3  0  0  0  0  0  0
  191.9840  175.5020  144.7320 C   0  0  2  0  0  3  0  0  0  0  0  0
  194.3160  175.8680  143.8100 C   0  0  0  0  0  2  0  0  0  0  0  0
  187.0920  178.3470  143.1930 C   0  0  0  0  0  2  0  0  0  0  0  0
  186.8810  176.9330  145.3360 C   0  0  2  0  0  3  0  0  0  0  0  0
  185.3440  178.9520  145.6720 N   0  0  0  0  0  0  0  0  0  0  0  0
  186.9970  176.9620  143.8150 C   0  0  2  0  0  3  0  0  0  0  0  0
  189.7800  178.2910  143.8360 O   0  0  0  0  0  1  0  0  0  0  0  0
  189.3710  177.1090  145.8370 C   0  0  0  0  0  0  0  0  0  0  0  0
  190.0000  177.0640  144.4600 C   0  0  1  0  0  0  0  0  0  0  0  0
  193.4860  175.4240  145.0170 C   0  0  0  0  0  2  0  0  0  0  0  0
  192.4750  175.1910  142.2650 C   0  0  0  0  0  2  0  0  0  0  0  0
  185.6070  177.5510  145.8260 C   0  0  0  0  0  0  0  0  0  0  0  0
  184.8160  176.8490  146.5080 O   0  0  0  0  0  0  0  0  0  0  0  0
  191.6260  174.7370  143.4580 C   0  0  2  0  0  3  0  0  0  0  0  0
  190.3750  172.7880  141.8790 O   0  0  0  0  0  0  0  0  0  0  0  0
  190.2560  172.2240  140.5770 C   0  0  0  0  0  2  0  0  0  0  0  0
  190.8410  173.1690  139.5440 C   0  0  0  0  0  2  0  0  0  0  0  0
  189.7570  173.5870  138.5720 C   0  0  0  0  0  1  0  0  0  0  0  0
  1  4  1  0  0  0  0
  1 18  1  0  0  0  0
  2 12  1  0  0  0  0
  4 21  1  0  0  0  0
  5  1  2  0  0  0  0
  6 14  1  0  0  0  0
  7 11  1  0  0  0  0
 10  7  2  0  0  0  0
 10  5  1  0  0  0  0
 11 26  1  0  0  0  0
 11  4  2  0  0  0  0
 12 17  2  0  0  0  0
 13  8  1  6  0  0  0
 13 22  1  0  0  0  0
 14 22  1  0  0  0  0
 15  2  1  0  0  0  0
 16 24  1  6  0  0  0
 16  3  1  0  0  0  0
 17 24  1  0  0  0  0
 18 15  1  1  0  0  0
 18 16  1  0  0  0  0
 20  3  1  0  0  0  0
 20  9  2  0  0  0  0
 21 19  1  6  0  0  0
 21  8  1  0  0  0  0
 21 20  1  0  0  0  0
 23  6  1  0  0  0  0
 24 25  2  0  0  0  0
 26 23  1  6  0  0  0
 26 13  1  0  0  0  0
 27  7  1  0  0  0  0
 28 27  1  0  0  0  0
 29 28  1  0  0  0  0
 30 29  1  0  0  0  0
M  END
>  <MODEL>
6

>  <REMARK>
 VINA RESULT:      -7.7      2.857      6.580
  Name = 
  3 active torsions:
  status: ('A' for Active; 'I' for Inactive)
    1  A    between atoms: O_6  and  C_8
    2  A    between atoms: O_6  and  C_21
    3  A    between atoms: C_9  and  C_21
                            x       y       z     vdW  Elec       q    Type
                         _______ _______ _______ _____ _____    ______ ____

>  <TORSDO>
F 3

$$$$
=
 OpenBabel11052417213D

 30 34  0  0  1  0  0  0  0  0999 V2000
  188.3010  177.1590  144.6340 C   0  0  0  0  0  0  0  0  0  0  0  0
  185.0870  177.7470  146.5600 C   0  0  0  0  0  2  0  0  0  0  0  0
  185.8760  177.8600  142.7460 N   0  0  0  0  0  2  0  0  0  0  0  0
  188.4850  176.2290  143.5690 C   0  0  0  0  0  0  0  0  0  0  0  0
  189.3930  177.5850  145.3900 C   0  0  0  0  0  3  0  0  0  0  0  0
  190.6500  172.4710  141.5460 C   0  0  0  0  0  2  0  0  0  0  0  0
  190.8990  176.2460  144.0560 C   0  0  0  0  0  0  0  0  0  0  0  0
  187.6720  174.6310  141.7280 C   0  0  0  0  0  2  0  0  0  0  0  0
  186.6130  176.9320  140.7620 O   0  0  0  0  0  0  0  0  0  0  0  0
  190.6750  177.1310  145.1120 C   0  0  0  0  0  3  0  0  0  0  0  0
  189.8160  175.7990  143.2770 C   0  0  0  0  0  0  0  0  0  0  0  0
  183.9790  178.3970  145.7880 C   0  0  0  0  0  3  0  0  0  0  0  0
  189.0210  174.8890  141.0780 C   0  0  2  0  0  3  0  0  0  0  0  0
  189.5170  172.4660  140.5270 C   0  0  0  0  0  2  0  0  0  0  0  0
  185.9910  176.9140  145.6740 C   0  0  0  0  0  2  0  0  0  0  0  0
  186.4360  178.6580  143.8300 C   0  0  2  0  0  3  0  0  0  0  0  0
  184.1630  179.2640  144.8370 N   0  0  0  0  0  0  0  0  0  0  0  0
  186.9960  177.8170  144.9730 C   0  0  2  0  0  3  0  0  0  0  0  0
  186.3660  175.1300  143.5940 O   0  0  0  0  0  1  0  0  0  0  0  0
  186.6110  176.8720  142.0220 C   0  0  0  0  0  0  0  0  0  0  0  0
  187.2930  175.7260  142.7400 C   0  0  1  0  0  0  0  0  0  0  0  0
  189.3000  173.8730  139.9670 C   0  0  0  0  0  2  0  0  0  0  0  0
  190.3170  173.4230  142.6900 C   0  0  0  0  0  2  0  0  0  0  0  0
  185.4290  179.6640  144.2970 C   0  0  0  0  0  0  0  0  0  0  0  0
  185.6480  180.8840  144.0810 O   0  0  0  0  0  0  0  0  0  0  0  0
  190.1090  174.8430  142.1510 C   0  0  2  0  0  3  0  0  0  0  0  0
  192.1960  175.8020  143.7580 O   0  0  0  0  0  0  0  0  0  0  0  0
  193.0530  175.1850  144.7130 C   0  0  0  0  0  2  0  0  0  0  0  0
  194.2150  176.1030  145.0410 C   0  0  0  0  0  2  0  0  0  0  0  0
  194.1280  176.5260  146.4920 C   0  0  0  0  0  1  0  0  0  0  0  0
  1 18  1  0  0  0  0
  1  5  1  0  0  0  0
  4  1  2  0  0  0  0
  6 23  1  0  0  0  0
  7 10  1  0  0  0  0
  8 21  1  0  0  0  0
  9 20  2  0  0  0  0
 10  5  2  0  0  0  0
 11  4  1  0  0  0  0
 11  7  2  0  0  0  0
 12  2  1  0  0  0  0
 13 22  1  6  0  0  0
 13  8  1  0  0  0  0
 13 26  1  0  0  0  0
 14  6  1  0  0  0  0
 15  2  1  0  0  0  0
 16  3  1  6  0  0  0
 16 24  1  0  0  0  0
 16 18  1  0  0  0  0
 17 12  2  0  0  0  0
 18 15  1  6  0  0  0
 20 21  1  0  0  0  0
 20  3  1  0  0  0  0
 21  4  1  0  0  0  0
 21 19  1  1  0  0  0
 22 14  1  0  0  0  0
 24 17  1  0  0  0  0
 25 24  2  0  0  0  0
 26 23  1  1  0  0  0
 26 11  1  0  0  0  0
 27  7  1  0  0  0  0
 27 28  1  0  0  0  0
 28 29  1  0  0  0  0
 29 30  1  0  0  0  0
M  END
>  <MODEL>
7

>  <REMARK>
 VINA RESULT:      -7.6      2.833      7.308
  Name = 
  3 active torsions:
  status: ('A' for Active; 'I' for Inactive)
    1  A    between atoms: O_6  and  C_8
    2  A    between atoms: O_6  and  C_21
    3  A    between atoms: C_9  and  C_21
                            x       y       z     vdW  Elec       q    Type
                         _______ _______ _______ _____ _____    ______ ____

>  <TORSDO>
F 3

$$$$
=
 OpenBabel11052417213D

 30 34  0  0  1  0  0  0  0  0999 V2000
  189.0070  175.2840  142.2430 C   0  0  0  0  0  0  0  0  0  0  0  0
  190.7180  171.9580  141.6120 C   0  0  0  0  0  2  0  0  0  0  0  0
  191.6520  174.9500  143.9260 N   0  0  0  0  0  2  0  0  0  0  0  0
  188.6100  175.7990  143.5120 C   0  0  0  0  0  0  0  0  0  0  0  0
  188.3750  175.7220  141.0800 C   0  0  0  0  0  3  0  0  0  0  0  0
  185.3330  177.4590  146.5780 C   0  0  0  0  0  2  0  0  0  0  0  0
  186.9730  177.2250  142.3510 C   0  0  0  0  0  0  0  0  0  0  0  0
  188.6220  175.8790  146.0810 C   0  0  0  0  0  2  0  0  0  0  0  0
  191.2400  176.4370  145.6470 O   0  0  0  0  0  0  0  0  0  0  0  0
  187.3660  176.6740  141.1300 C   0  0  0  0  0  3  0  0  0  0  0  0
  187.5930  176.8000  143.5410 C   0  0  0  0  0  0  0  0  0  0  0  0
  192.1270  171.8500  142.1090 C   0  0  0  0  0  3  0  0  0  0  0  0
  188.2060  177.3310  145.9150 C   0  0  2  0  0  3  0  0  0  0  0  0
  186.3800  177.2870  147.6710 C   0  0  0  0  0  2  0  0  0  0  0  0
  189.8850  172.9050  142.4530 C   0  0  0  0  0  2  0  0  0  0  0  0
  191.4940  174.9170  142.4770 C   0  0  2  0  0  3  0  0  0  0  0  0
  192.9630  172.8460  142.1560 N   0  0  0  0  0  0  0  0  0  0  0  0
  190.1550  174.3410  142.0280 C   0  0  2  0  0  3  0  0  0  0  0  0
  189.1210  173.9280  144.9050 O   0  0  0  0  0  1  0  0  0  0  0  0
  190.7570  175.6270  144.8090 C   0  0  0  0  0  0  0  0  0  0  0  0
  189.2750  175.3110  144.8090 C   0  0  1  0  0  0  0  0  0  0  0  0
  187.7060  177.9160  147.2390 C   0  0  0  0  0  2  0  0  0  0  0  0
  185.8090  176.7960  145.2900 C   0  0  0  0  0  2  0  0  0  0  0  0
  192.6590  174.2130  141.8530 C   0  0  0  0  0  0  0  0  0  0  0  0
  193.4660  174.8810  141.1530 O   0  0  0  0  0  0  0  0  0  0  0  0
  187.1310  177.4230  144.8320 C   0  0  2  0  0  3  0  0  0  0  0  0
  185.9680  178.2020  142.4040 O   0  0  0  0  0  0  0  0  0  0  0  0
  184.8990  178.2810  141.4670 C   0  0  0  0  0  2  0  0  0  0  0  0
  183.5670  178.2550  142.1920 C   0  0  0  0  0  2  0  0  0  0  0  0
  183.6910  179.0070  143.5010 C   0  0  0  0  0  1  0  0  0  0  0  0
  1  4  1  0  0  0  0
  2 12  1  0  0  0  0
  2 15  1  0  0  0  0
  3 20  1  0  0  0  0
  4 11  2  0  0  0  0
  4 21  1  0  0  0  0
  5 10  1  0  0  0  0
  5  1  2  0  0  0  0
  6 14  1  0  0  0  0
  7 27  1  0  0  0  0
  7 11  1  0  0  0  0
 10  7  2  0  0  0  0
 11 26  1  0  0  0  0
 12 17  2  0  0  0  0
 13  8  1  1  0  0  0
 13 22  1  0  0  0  0
 16 24  1  6  0  0  0
 16  3  1  0  0  0  0
 18  1  1  0  0  0  0
 18 15  1  1  0  0  0
 18 16  1  0  0  0  0
 20 21  1  0  0  0  0
 20  9  2  0  0  0  0
 21 19  1  1  0  0  0
 21  8  1  0  0  0  0
 22 14  1  0  0  0  0
 23  6  1  0  0  0  0
 24 17  1  0  0  0  0
 25 24  2  0  0  0  0
 26 23  1  1  0  0  0
 26 13  1  0  0  0  0
 28 29  1  0  0  0  0
 28 27  1  0  0  0  0
 29 30  1  0  0  0  0
M  END
>  <MODEL>
8

>  <REMARK>
 VINA RESULT:      -7.6      2.024      2.432
  Name = 
  3 active torsions:
  status: ('A' for Active; 'I' for Inactive)
    1  A    between atoms: O_6  and  C_8
    2  A    between atoms: O_6  and  C_21
    3  A    between atoms: C_9  and  C_21
                            x       y       z     vdW  Elec       q    Type
                         _______ _______ _______ _____ _____    ______ ____

>  <TORSDO>
F 3

$$$$
=
 OpenBabel11052417213D

 30 34  0  0  1  0  0  0  0  0999 V2000
  193.1340  175.5710  144.9040 C   0  0  0  0  0  0  0  0  0  0  0  0
  196.5670  176.5510  143.6230 C   0  0  0  0  0  2  0  0  0  0  0  0
  194.8180  173.0840  143.9450 N   0  0  0  0  0  2  0  0  0  0  0  0
  192.1560  174.8150  144.1950 C   0  0  0  0  0  0  0  0  0  0  0  0
  192.7460  176.4320  145.9310 C   0  0  0  0  0  3  0  0  0  0  0  0
  187.8050  174.2360  142.2890 C   0  0  0  0  0  2  0  0  0  0  0  0
  190.4300  175.8060  145.6440 C   0  0  0  0  0  0  0  0  0  0  0  0
  191.3550  173.2560  142.3150 C   0  0  0  0  0  2  0  0  0  0  0  0
  193.1210  171.5790  143.5050 O   0  0  0  0  0  0  0  0  0  0  0  0
  191.4130  176.5560  146.2940 C   0  0  0  0  0  3  0  0  0  0  0  0
  190.7920  174.9310  144.6030 C   0  0  0  0  0  0  0  0  0  0  0  0
  197.5420  175.4260  143.4570 C   0  0  0  0  0  3  0  0  0  0  0  0
  190.2360  172.8790  143.2710 C   0  0  2  0  0  3  0  0  0  0  0  0
  188.3690  173.0210  141.5640 C   0  0  0  0  0  2  0  0  0  0  0  0
  195.1340  176.1020  143.4220 C   0  0  0  0  0  2  0  0  0  0  0  0
  195.1490  174.0530  144.9840 C   0  0  2  0  0  3  0  0  0  0  0  0
  197.5690  174.3660  144.2110 N   0  0  0  0  0  0  0  0  0  0  0  0
  194.6160  175.4530  144.6970 C   0  0  2  0  0  3  0  0  0  0  0  0
  193.2280  174.6220  142.0700 O   0  0  0  0  0  1  0  0  0  0  0  0
  193.4840  172.7870  143.5310 C   0  0  0  0  0  0  0  0  0  0  0  0
  192.5580  173.8810  143.0420 C   0  0  1  0  0  0  0  0  0  0  0  0
  189.1220  172.1200  142.5440 C   0  0  0  0  0  2  0  0  0  0  0  0
  188.9350  175.0290  142.9350 C   0  0  0  0  0  2  0  0  0  0  0  0
  196.6250  174.0430  145.2400 C   0  0  0  0  0  0  0  0  0  0  0  0
  197.0450  173.6070  146.3440 O   0  0  0  0  0  0  0  0  0  0  0  0
  189.6950  174.1470  143.9330 C   0  0  2  0  0  3  0  0  0  0  0  0
  189.0830  175.9120  146.0220 O   0  0  0  0  0  0  0  0  0  0  0  0
  188.3640  177.1410  146.0280 C   0  0  0  0  0  2  0  0  0  0  0  0
  186.8800  176.8760  146.2030 C   0  0  0  0  0  2  0  0  0  0  0  0
  186.2140  176.8300  144.8440 C   0  0  0  0  0  1  0  0  0  0  0  0
  1  5  1  0  0  0  0
  4 11  1  0  0  0  0
  4  1  2  0  0  0  0
  5 10  2  0  0  0  0
  6 23  1  0  0  0  0
  7 27  1  0  0  0  0
  7 10  1  0  0  0  0
  8 21  1  0  0  0  0
  9 20  2  0  0  0  0
 11  7  2  0  0  0  0
 12  2  1  0  0  0  0
 12 17  2  0  0  0  0
 13  8  1  6  0  0  0
 13 26  1  0  0  0  0
 14  6  1  0  0  0  0
 14 22  1  0  0  0  0
 15  2  1  0  0  0  0
 16  3  1  6  0  0  0
 16 24  1  0  0  0  0
 17 24  1  0  0  0  0
 18 15  1  6  0  0  0
 18  1  1  0  0  0  0
 18 16  1  0  0  0  0
 20  3  1  0  0  0  0
 21 19  1  6  0  0  0
 21 20  1  0  0  0  0
 21  4  1  0  0  0  0
 22 13  1  0  0  0  0
 24 25  2  0  0  0  0
 26 23  1  6  0  0  0
 26 11  1  0  0  0  0
 27 28  1  0  0  0  0
 28 29  1  0  0  0  0
 30 29  1  0  0  0  0
M  END
>  <MODEL>
9

>  <REMARK>
 VINA RESULT:      -7.1      2.731      5.798
  Name = 
  3 active torsions:
  status: ('A' for Active; 'I' for Inactive)
    1  A    between atoms: O_6  and  C_8
    2  A    between atoms: O_6  and  C_21
    3  A    between atoms: C_9  and  C_21
                            x       y       z     vdW  Elec       q    Type
                         _______ _______ _______ _____ _____    ______ ____

>  <TORSDO>
F 3

$$$$
