=
 OpenBabel11052418463D

 34 38  0  0  1  0  0  0  0  0999 V2000
  185.5240  177.7030  143.7730 C   0  0  0  0  0  0  0  0  0  0  0  0
  185.5790  177.7760  146.2100 C   0  0  0  0  0  0  0  0  0  0  0  0
  187.2620  176.4560  144.9290 C   0  0  0  0  0  0  0  0  0  0  0  0
  188.9790  175.2220  146.0270 C   0  0  0  0  0  0  0  0  0  0  0  0
  183.8750  178.9950  144.9870 C   0  0  0  0  0  3  0  0  0  0  0  0
  184.4600  178.6130  146.1940 C   0  0  0  0  0  3  0  0  0  0  0  0
  186.1300  177.3050  144.9920 C   0  0  0  0  0  0  0  0  0  0  0  0
  184.4060  178.5400  143.7810 C   0  0  0  0  0  3  0  0  0  0  0  0
  187.7490  176.0310  143.6700 C   0  0  0  0  0  0  0  0  0  0  0  0
  186.0210  177.2770  142.5830 N   0  0  0  0  0  0  0  0  0  0  0  0
  186.1180  177.4260  147.4430 O   0  0  0  0  0  1  0  0  0  0  0  0
  189.4880  174.7840  144.8050 C   0  0  0  0  0  3  0  0  0  0  0  0
  188.8750  175.1860  143.6130 C   0  0  0  0  0  0  0  0  0  0  0  0
  187.8950  176.0390  146.0600 N   0  0  0  0  0  0  0  0  0  0  0  0
  187.1030  176.4620  142.5080 C   0  0  0  0  0  3  0  0  0  0  0  0
  189.8060  172.7440  140.7700 C   0  0  2  0  0  3  0  0  0  0  0  0
  190.7330  173.6510  140.1920 O   0  0  0  0  0  0  0  0  0  0  0  0
  189.4210  174.7100  142.2970 C   0  0  2  0  0  3  0  0  0  0  0  0
  191.6130  174.1140  141.1910 C   0  0  0  0  0  2  0  0  0  0  0  0
  189.2020  173.2090  142.1070 C   0  0  0  0  0  2  0  0  0  0  0  0
  190.8960  175.0910  142.1260 C   0  0  0  0  0  2  0  0  0  0  0  0
  190.3990  171.3510  140.8950 C   0  0  0  0  0  1  0  0  0  0  0  0
  189.6460  174.8200  147.2980 C   0  0  0  0  0  2  0  0  0  0  0  0
  190.4380  177.1580  146.9700 C   0  0  0  0  0  1  0  0  0  0  0  0
  190.6850  175.8570  147.7110 C   0  0  2  0  0  3  0  0  0  0  0  0
  192.7860  176.0620  146.6400 C   0  0  0  0  0  3  0  0  0  0  0  0
  192.0070  175.3810  147.4020 N   0  0  0  0  0  0  0  0  0  0  0  0
  194.8650  177.7830  145.6050 O   0  0  0  0  0  1  0  0  0  0  0  0
  194.1690  175.5710  146.3220 C   0  0  2  0  0  3  0  0  0  0  0  0
  194.8800  176.4290  145.2620 C   0  0  1  0  0  3  0  0  0  0  0  0
  194.3360  174.8140  143.5070 N   0  0  0  0  0  2  0  0  0  0  0  0
  193.5260  174.0300  144.4360 C   0  0  0  0  0  2  0  0  0  0  0  0
  194.1070  174.1170  145.8500 C   0  0  0  0  0  2  0  0  0  0  0  0
  194.2510  176.2240  143.8840 C   0  0  0  0  0  2  0  0  0  0  0  0
  1  8  2  0  0  0  0
  1  7  1  0  0  0  0
  2 11  1  0  0  0  0
  3  7  1  0  0  0  0
  3 14  1  0  0  0  0
  4 14  2  0  0  0  0
  4 23  1  0  0  0  0
  5  6  2  0  0  0  0
  6  2  1  0  0  0  0
  7  2  2  0  0  0  0
  8  5  1  0  0  0  0
  9  3  2  0  0  0  0
 10  1  1  0  0  0  0
 12  4  1  0  0  0  0
 13  9  1  0  0  0  0
 13 12  2  0  0  0  0
 15 10  2  0  0  0  0
 15  9  1  0  0  0  0
 16 22  1  1  0  0  0
 16 20  1  0  0  0  0
 17 16  1  0  0  0  0
 17 19  1  0  0  0  0
 18 13  1  1  0  0  0
 19 21  1  0  0  0  0
 20 18  1  0  0  0  0
 21 18  1  0  0  0  0
 23 25  1  0  0  0  0
 25 24  1  6  0  0  0
 26 27  2  0  0  0  0
 27 25  1  0  0  0  0
 29 26  1  6  0  0  0
 30 28  1  1  0  0  0
 30 29  1  0  0  0  0
 31 34  1  0  0  0  0
 31 32  1  0  0  0  0
 32 33  1  0  0  0  0
 33 29  1  0  0  0  0
 34 30  1  0  0  0  0
M  END
>  <MODEL>
1

>  <REMARK>
 VINA RESULT:      -8.7      0.000      0.000
  Name = 
  5 active torsions:
  status: ('A' for Active; 'I' for Inactive)
    1  A    between atoms: C_3  and  C_13
    2  A    between atoms: C_5  and  C_18
    3  A    between atoms: C_12  and  C_28
    4  A    between atoms: N_17  and  C_29
    5  A    between atoms: C_18  and  C_29
                            x       y       z     vdW  Elec       q    Type
                         _______ _______ _______ _____ _____    ______ ____

>  <TORSDO>
F 5

$$$$
=
 OpenBabel11052418463D

 34 38  0  0  1  0  0  0  0  0999 V2000
  190.5040  172.2900  140.6160 C   0  0  0  0  0  0  0  0  0  0  0  0
  188.7870  173.4220  139.3040 C   0  0  0  0  0  0  0  0  0  0  0  0
  189.5980  174.3840  141.4560 C   0  0  0  0  0  0  0  0  0  0  0  0
  188.7360  176.4340  142.3110 C   0  0  0  0  0  0  0  0  0  0  0  0
  189.7380  171.3280  138.5300 C   0  0  0  0  0  3  0  0  0  0  0  0
  188.8580  172.3960  138.3570 C   0  0  0  0  0  3  0  0  0  0  0  0
  189.6140  173.3830  140.4550 C   0  0  0  0  0  0  0  0  0  0  0  0
  190.5570  171.2760  139.6560 C   0  0  0  0  0  3  0  0  0  0  0  0
  190.4570  174.2690  142.5750 C   0  0  0  0  0  0  0  0  0  0  0  0
  191.3150  172.2140  141.7030 N   0  0  0  0  0  0  0  0  0  0  0  0
  187.8900  174.4600  139.0810 O   0  0  0  0  0  1  0  0  0  0  0  0
  189.5670  176.3550  143.4270 C   0  0  0  0  0  3  0  0  0  0  0  0
  190.4380  175.2680  143.5690 C   0  0  0  0  0  0  0  0  0  0  0  0
  188.7720  175.4630  141.3630 N   0  0  0  0  0  0  0  0  0  0  0  0
  191.3090  173.1650  142.6700 C   0  0  0  0  0  3  0  0  0  0  0  0
  191.5480  175.5360  147.2570 C   0  0  2  0  0  3  0  0  0  0  0  0
  192.9280  175.4900  146.9240 O   0  0  0  0  0  0  0  0  0  0  0  0
  191.3310  175.1800  144.7740 C   0  0  2  0  0  3  0  0  0  0  0  0
  193.1960  176.4420  145.9200 C   0  0  0  0  0  2  0  0  0  0  0  0
  190.5980  175.5980  146.0480 C   0  0  0  0  0  2  0  0  0  0  0  0
  192.6240  175.9800  144.5770 C   0  0  0  0  0  2  0  0  0  0  0  0
  191.2530  176.6570  148.2390 C   0  0  0  0  0  1  0  0  0  0  0  0
  187.8280  177.6040  142.1410 C   0  0  0  0  0  2  0  0  0  0  0  0
  185.4780  178.3180  141.7330 C   0  0  0  0  0  1  0  0  0  0  0  0
  186.3710  177.1550  142.1250 C   0  0  2  0  0  3  0  0  0  0  0  0
  185.8290  177.5040  144.4020 C   0  0  0  0  0  3  0  0  0  0  0  0
  185.9860  176.6820  143.4280 N   0  0  0  0  0  0  0  0  0  0  0  0
  183.6610  178.6800  145.9110 O   0  0  0  0  0  1  0  0  0  0  0  0
  185.4200  177.0150  145.7620 C   0  0  2  0  0  3  0  0  0  0  0  0
  184.7240  178.0970  146.6050 C   0  0  1  0  0  3  0  0  0  0  0  0
  186.7920  178.5530  147.8300 N   0  0  0  0  0  2  0  0  0  0  0  0
  187.5400  177.6410  146.9690 C   0  0  0  0  0  2  0  0  0  0  0  0
  186.6450  176.4860  146.5120 C   0  0  0  0  0  2  0  0  0  0  0  0
  185.7210  179.1670  147.0470 C   0  0  0  0  0  2  0  0  0  0  0  0
  1 10  1  0  0  0  0
  2  7  1  0  0  0  0
  3  9  1  0  0  0  0
  4 12  2  0  0  0  0
  5  8  2  0  0  0  0
  6  5  1  0  0  0  0
  6  2  2  0  0  0  0
  7  1  2  0  0  0  0
  7  3  1  0  0  0  0
  8  1  1  0  0  0  0
  9 15  1  0  0  0  0
  9 13  2  0  0  0  0
 10 15  2  0  0  0  0
 11  2  1  0  0  0  0
 12 13  1  0  0  0  0
 14  3  2  0  0  0  0
 14  4  1  0  0  0  0
 16 22  1  1  0  0  0
 17 16  1  0  0  0  0
 18 13  1  6  0  0  0
 18 20  1  0  0  0  0
 19 17  1  0  0  0  0
 20 16  1  0  0  0  0
 21 18  1  0  0  0  0
 21 19  1  0  0  0  0
 23  4  1  0  0  0  0
 25 24  1  1  0  0  0
 25 23  1  0  0  0  0
 25 27  1  0  0  0  0
 27 26  2  0  0  0  0
 29 26  1  6  0  0  0
 29 33  1  0  0  0  0
 29 30  1  0  0  0  0
 30 28  1  6  0  0  0
 30 34  1  0  0  0  0
 32 31  1  0  0  0  0
 33 32  1  0  0  0  0
 34 31  1  0  0  0  0
M  END
>  <MODEL>
2

>  <REMARK>
 VINA RESULT:      -8.4      2.160      7.515
  Name = 
  5 active torsions:
  status: ('A' for Active; 'I' for Inactive)
    1  A    between atoms: C_3  and  C_13
    2  A    between atoms: C_5  and  C_18
    3  A    between atoms: C_12  and  C_28
    4  A    between atoms: N_17  and  C_29
    5  A    between atoms: C_18  and  C_29
                            x       y       z     vdW  Elec       q    Type
                         _______ _______ _______ _____ _____    ______ ____

>  <TORSDO>
F 5

$$$$
=
 OpenBabel11052418463D

 34 38  0  0  1  0  0  0  0  0999 V2000
  192.1930  174.3740  144.8830 C   0  0  0  0  0  0  0  0  0  0  0  0
  191.3050  176.4910  145.7080 C   0  0  0  0  0  0  0  0  0  0  0  0
  190.4060  175.4470  143.6300 C   0  0  0  0  0  0  0  0  0  0  0  0
  188.6550  176.4680  142.3770 C   0  0  0  0  0  0  0  0  0  0  0  0
  193.0880  175.3610  146.9040 C   0  0  0  0  0  3  0  0  0  0  0  0
  192.2040  176.4320  146.7770 C   0  0  0  0  0  3  0  0  0  0  0  0
  191.2870  175.4560  144.7390 C   0  0  0  0  0  0  0  0  0  0  0  0
  193.0820  174.3370  145.9590 C   0  0  0  0  0  3  0  0  0  0  0  0
  190.4530  174.3750  142.7070 C   0  0  0  0  0  0  0  0  0  0  0  0
  192.2070  173.3610  143.9780 N   0  0  0  0  0  0  0  0  0  0  0  0
  190.4480  177.5830  145.6300 O   0  0  0  0  0  1  0  0  0  0  0  0
  188.6720  175.4280  141.4480 C   0  0  0  0  0  3  0  0  0  0  0  0
  189.5740  174.3690  141.6060 C   0  0  0  0  0  0  0  0  0  0  0  0
  189.5080  176.4510  143.4340 N   0  0  0  0  0  0  0  0  0  0  0  0
  191.3710  173.3400  142.9110 C   0  0  0  0  0  3  0  0  0  0  0  0
  190.6150  172.3510  138.4830 C   0  0  2  0  0  3  0  0  0  0  0  0
  189.4380  171.5580  138.5110 O   0  0  0  0  0  0  0  0  0  0  0  0
  189.5950  173.2520  140.6020 C   0  0  2  0  0  3  0  0  0  0  0  0
  188.3120  172.4000  138.6000 C   0  0  0  0  0  2  0  0  0  0  0  0
  190.6440  173.4910  139.5170 C   0  0  0  0  0  2  0  0  0  0  0  0
  188.2060  173.0080  140.0010 C   0  0  0  0  0  2  0  0  0  0  0  0
  190.8960  172.8760  137.0860 C   0  0  0  0  0  1  0  0  0  0  0  0
  187.6770  177.5820  142.2290 C   0  0  0  0  0  2  0  0  0  0  0  0
  185.3210  178.1160  141.6260 C   0  0  0  0  0  1  0  0  0  0  0  0
  186.2530  177.0400  142.1500 C   0  0  2  0  0  3  0  0  0  0  0  0
  185.8290  177.4440  144.4430 C   0  0  0  0  0  3  0  0  0  0  0  0
  185.8100  176.6250  143.4540 N   0  0  0  0  0  0  0  0  0  0  0  0
  183.6130  178.7010  145.8110 O   0  0  0  0  0  1  0  0  0  0  0  0
  185.3600  177.0170  145.8040 C   0  0  2  0  0  3  0  0  0  0  0  0
  184.6410  178.1390  146.5710 C   0  0  1  0  0  3  0  0  0  0  0  0
  186.6620  178.6300  147.8610 N   0  0  0  0  0  2  0  0  0  0  0  0
  187.4360  177.6760  147.0690 C   0  0  0  0  0  2  0  0  0  0  0  0
  186.5480  176.5100  146.6260 C   0  0  0  0  0  2  0  0  0  0  0  0
  185.6300  179.2190  147.0080 C   0  0  0  0  0  2  0  0  0  0  0  0
  1  8  2  0  0  0  0
  2  6  1  0  0  0  0
  3  7  1  0  0  0  0
  4 14  2  0  0  0  0
  6  5  2  0  0  0  0
  7  1  1  0  0  0  0
  7  2  2  0  0  0  0
  8  5  1  0  0  0  0
  9 15  1  0  0  0  0
  9  3  2  0  0  0  0
 10  1  1  0  0  0  0
 11  2  1  0  0  0  0
 12 13  2  0  0  0  0
 12  4  1  0  0  0  0
 13  9  1  0  0  0  0
 14  3  1  0  0  0  0
 15 10  2  0  0  0  0
 16 22  1  6  0  0  0
 16 17  1  0  0  0  0
 16 20  1  0  0  0  0
 17 19  1  0  0  0  0
 18 13  1  1  0  0  0
 19 21  1  0  0  0  0
 20 18  1  0  0  0  0
 21 18  1  0  0  0  0
 23  4  1  0  0  0  0
 25 24  1  1  0  0  0
 25 23  1  0  0  0  0
 25 27  1  0  0  0  0
 27 26  2  0  0  0  0
 29 26  1  6  0  0  0
 29 30  1  0  0  0  0
 29 33  1  0  0  0  0
 30 28  1  6  0  0  0
 30 34  1  0  0  0  0
 32 31  1  0  0  0  0
 33 32  1  0  0  0  0
 34 31  1  0  0  0  0
M  END
>  <MODEL>
3

>  <REMARK>
 VINA RESULT:      -8.1      2.090      6.684
  Name = 
  5 active torsions:
  status: ('A' for Active; 'I' for Inactive)
    1  A    between atoms: C_3  and  C_13
    2  A    between atoms: C_5  and  C_18
    3  A    between atoms: C_12  and  C_28
    4  A    between atoms: N_17  and  C_29
    5  A    between atoms: C_18  and  C_29
                            x       y       z     vdW  Elec       q    Type
                         _______ _______ _______ _____ _____    ______ ____

>  <TORSDO>
F 5

$$$$
=
 OpenBabel11052418463D

 34 38  0  0  1  0  0  0  0  0999 V2000
  189.3490  174.0460  140.6870 C   0  0  0  0  0  0  0  0  0  0  0  0
  191.6880  173.9230  141.3670 C   0  0  0  0  0  0  0  0  0  0  0  0
  190.0170  175.1600  142.7430 C   0  0  0  0  0  0  0  0  0  0  0  0
  190.6330  176.2620  144.7640 C   0  0  0  0  0  0  0  0  0  0  0  0
  190.9470  172.8370  139.3280 C   0  0  0  0  0  3  0  0  0  0  0  0
  191.9610  173.1580  140.2300 C   0  0  0  0  0  3  0  0  0  0  0  0
  190.3700  174.3820  141.6140 C   0  0  0  0  0  0  0  0  0  0  0  0
  189.6460  173.2810  139.5570 C   0  0  0  0  0  3  0  0  0  0  0  0
  188.6760  175.5780  142.9150 C   0  0  0  0  0  0  0  0  0  0  0  0
  188.0720  174.4640  140.8860 N   0  0  0  0  0  0  0  0  0  0  0  0
  192.7390  174.2150  142.2300 O   0  0  0  0  0  1  0  0  0  0  0  0
  189.3230  176.6910  144.9660 C   0  0  0  0  0  3  0  0  0  0  0  0
  188.3290  176.3510  144.0400 C   0  0  0  0  0  0  0  0  0  0  0  0
  190.9450  175.5130  143.6740 N   0  0  0  0  0  0  0  0  0  0  0  0
  187.7200  175.2110  141.9620 C   0  0  0  0  0  3  0  0  0  0  0  0
  185.2620  178.6960  143.9860 C   0  0  2  0  0  3  0  0  0  0  0  0
  184.5700  177.9370  144.9670 O   0  0  0  0  0  0  0  0  0  0  0  0
  186.9180  176.8180  144.2560 C   0  0  2  0  0  3  0  0  0  0  0  0
  185.4170  177.7270  146.0740 C   0  0  0  0  0  2  0  0  0  0  0  0
  186.7040  178.2310  143.7150 C   0  0  0  0  0  2  0  0  0  0  0  0
  186.5070  176.7080  145.7290 C   0  0  0  0  0  2  0  0  0  0  0  0
  185.2190  180.1810  144.3030 C   0  0  0  0  0  1  0  0  0  0  0  0
  191.6890  176.5960  145.7620 C   0  0  0  0  0  2  0  0  0  0  0  0
  191.5870  175.3770  147.9300 C   0  0  0  0  0  1  0  0  0  0  0  0
  192.1310  175.3460  146.5150 C   0  0  2  0  0  3  0  0  0  0  0  0
  194.2380  174.8740  145.5470 C   0  0  0  0  0  3  0  0  0  0  0  0
  193.5680  175.2810  146.5630 N   0  0  0  0  0  0  0  0  0  0  0  0
  195.9310  176.6390  144.0050 O   0  0  0  0  0  1  0  0  0  0  0  0
  195.7380  174.8120  145.5910 C   0  0  2  0  0  3  0  0  0  0  0  0
  196.3990  175.3600  144.3150 C   0  0  1  0  0  3  0  0  0  0  0  0
  196.7300  173.0970  143.4460 N   0  0  0  0  0  2  0  0  0  0  0  0
  195.9860  172.5250  144.5650 C   0  0  0  0  0  2  0  0  0  0  0  0
  196.1910  173.3690  145.8260 C   0  0  0  0  0  2  0  0  0  0  0  0
  196.1740  174.4130  143.1360 C   0  0  0  0  0  2  0  0  0  0  0  0
  1 10  2  0  0  0  0
  1  7  1  0  0  0  0
  2  7  1  0  0  0  0
  2 11  1  0  0  0  0
  3  9  1  0  0  0  0
  3 14  1  0  0  0  0
  4 12  1  0  0  0  0
  4 23  1  0  0  0  0
  5  8  2  0  0  0  0
  5  6  1  0  0  0  0
  6  2  2  0  0  0  0
  7  3  2  0  0  0  0
  8  1  1  0  0  0  0
  9 13  1  0  0  0  0
 10 15  1  0  0  0  0
 13 12  2  0  0  0  0
 14  4  2  0  0  0  0
 15  9  2  0  0  0  0
 16 22  1  1  0  0  0
 16 17  1  0  0  0  0
 17 19  1  0  0  0  0
 18 13  1  1  0  0  0
 18 21  1  0  0  0  0
 20 16  1  0  0  0  0
 20 18  1  0  0  0  0
 21 19  1  0  0  0  0
 23 25  1  0  0  0  0
 25 27  1  0  0  0  0
 25 24  1  1  0  0  0
 26 27  2  0  0  0  0
 29 26  1  6  0  0  0
 29 33  1  0  0  0  0
 30 28  1  6  0  0  0
 30 29  1  0  0  0  0
 31 32  1  0  0  0  0
 32 33  1  0  0  0  0
 34 31  1  0  0  0  0
 34 30  1  0  0  0  0
M  END
>  <MODEL>
4

>  <REMARK>
 VINA RESULT:      -7.9      1.902      5.677
  Name = 
  5 active torsions:
  status: ('A' for Active; 'I' for Inactive)
    1  A    between atoms: C_3  and  C_13
    2  A    between atoms: C_5  and  C_18
    3  A    between atoms: C_12  and  C_28
    4  A    between atoms: N_17  and  C_29
    5  A    between atoms: C_18  and  C_29
                            x       y       z     vdW  Elec       q    Type
                         _______ _______ _______ _____ _____    ______ ____

>  <TORSDO>
F 5

$$$$
=
 OpenBabel11052418463D

 34 38  0  0  1  0  0  0  0  0999 V2000
  187.3680  177.7010  146.8970 C   0  0  0  0  0  0  0  0  0  0  0  0
  185.8970  177.1100  145.0420 C   0  0  0  0  0  0  0  0  0  0  0  0
  188.3390  176.6170  144.9490 C   0  0  0  0  0  0  0  0  0  0  0  0
  189.3270  175.5540  143.0580 C   0  0  0  0  0  0  0  0  0  0  0  0
  185.0010  178.1940  147.0180 C   0  0  0  0  0  3  0  0  0  0  0  0
  184.8160  177.6390  145.7530 C   0  0  0  0  0  3  0  0  0  0  0  0
  187.1970  177.1340  145.6070 C   0  0  0  0  0  0  0  0  0  0  0  0
  186.2730  178.2250  147.5870 C   0  0  0  0  0  3  0  0  0  0  0  0
  189.6030  176.6800  145.5840 C   0  0  0  0  0  0  0  0  0  0  0  0
  188.5960  177.7430  147.4750 N   0  0  0  0  0  0  0  0  0  0  0  0
  185.6550  176.5720  143.7830 O   0  0  0  0  0  1  0  0  0  0  0  0
  190.5870  175.5990  143.6530 C   0  0  0  0  0  3  0  0  0  0  0  0
  190.7360  176.1640  144.9250 C   0  0  0  0  0  0  0  0  0  0  0  0
  188.2470  176.0540  143.7120 N   0  0  0  0  0  0  0  0  0  0  0  0
  189.6980  177.2530  146.8560 C   0  0  0  0  0  3  0  0  0  0  0  0
  194.5290  176.7950  145.2770 C   0  0  2  0  0  3  0  0  0  0  0  0
  194.6380  175.9590  146.4190 O   0  0  0  0  0  0  0  0  0  0  0  0
  192.0950  176.2160  145.5630 C   0  0  2  0  0  3  0  0  0  0  0  0
  194.0410  174.7130  146.1420 C   0  0  0  0  0  2  0  0  0  0  0  0
  193.1420  176.7910  144.6100 C   0  0  0  0  0  2  0  0  0  0  0  0
  192.5160  174.8460  146.1060 C   0  0  0  0  0  2  0  0  0  0  0  0
  195.6210  176.4950  144.2650 C   0  0  0  0  0  1  0  0  0  0  0  0
  189.1590  174.9270  141.7170 C   0  0  0  0  0  2  0  0  0  0  0  0
  188.9520  172.6790  142.7650 C   0  0  0  0  0  1  0  0  0  0  0  0
  188.3040  173.6690  141.8160 C   0  0  2  0  0  3  0  0  0  0  0  0
  189.1980  172.6060  139.8990 C   0  0  0  0  0  3  0  0  0  0  0  0
  188.1690  173.0600  140.5180 N   0  0  0  0  0  0  0  0  0  0  0  0
  190.4410  170.0850  139.2210 O   0  0  0  0  0  1  0  0  0  0  0  0
  189.0600  171.9640  138.5490 C   0  0  2  0  0  3  0  0  0  0  0  0
  190.2290  171.0240  138.2090 C   0  0  1  0  0  3  0  0  0  0  0  0
  191.2930  172.7480  136.8380 N   0  0  0  0  0  2  0  0  0  0  0  0
  190.2880  173.7300  137.2380 C   0  0  0  0  0  2  0  0  0  0  0  0
  188.9390  173.0440  137.4720 C   0  0  0  0  0  2  0  0  0  0  0  0
  191.5080  171.8180  137.9460 C   0  0  0  0  0  2  0  0  0  0  0  0
  1 10  1  0  0  0  0
  1  8  2  0  0  0  0
  2  7  2  0  0  0  0
  2  6  1  0  0  0  0
  3  9  1  0  0  0  0
  3  7  1  0  0  0  0
  4 12  2  0  0  0  0
  4 14  1  0  0  0  0
  5  8  1  0  0  0  0
  6  5  2  0  0  0  0
  7  1  1  0  0  0  0
  9 15  1  0  0  0  0
 11  2  1  0  0  0  0
 12 13  1  0  0  0  0
 13  9  2  0  0  0  0
 14  3  2  0  0  0  0
 15 10  2  0  0  0  0
 16 22  1  6  0  0  0
 16 17  1  0  0  0  0
 18 13  1  6  0  0  0
 18 21  1  0  0  0  0
 19 17  1  0  0  0  0
 20 16  1  0  0  0  0
 20 18  1  0  0  0  0
 21 19  1  0  0  0  0
 23 25  1  0  0  0  0
 23  4  1  0  0  0  0
 25 24  1  1  0  0  0
 26 27  2  0  0  0  0
 27 25  1  0  0  0  0
 29 26  1  1  0  0  0
 30 29  1  0  0  0  0
 30 28  1  1  0  0  0
 31 32  1  0  0  0  0
 31 34  1  0  0  0  0
 32 33  1  0  0  0  0
 33 29  1  0  0  0  0
 34 30  1  0  0  0  0
M  END
>  <MODEL>
5

>  <REMARK>
 VINA RESULT:      -7.9      2.477      6.155
  Name = 
  5 active torsions:
  status: ('A' for Active; 'I' for Inactive)
    1  A    between atoms: C_3  and  C_13
    2  A    between atoms: C_5  and  C_18
    3  A    between atoms: C_12  and  C_28
    4  A    between atoms: N_17  and  C_29
    5  A    between atoms: C_18  and  C_29
                            x       y       z     vdW  Elec       q    Type
                         _______ _______ _______ _____ _____    ______ ____

>  <TORSDO>
F 5

$$$$
=
 OpenBabel11052418463D

 34 38  0  0  1  0  0  0  0  0999 V2000
  191.8500  175.7520  145.8230 C   0  0  0  0  0  0  0  0  0  0  0  0
  192.1560  173.7270  144.4980 C   0  0  0  0  0  0  0  0  0  0  0  0
  190.1530  175.1770  144.1780 C   0  0  0  0  0  0  0  0  0  0  0  0
  188.4700  174.6470  142.5760 C   0  0  0  0  0  0  0  0  0  0  0  0
  193.8050  174.3650  146.1580 C   0  0  0  0  0  3  0  0  0  0  0  0
  193.3570  173.4880  145.1710 C   0  0  0  0  0  3  0  0  0  0  0  0
  191.3790  174.8690  144.8170 C   0  0  0  0  0  0  0  0  0  0  0  0
  193.0530  175.4920  146.4820 C   0  0  0  0  0  3  0  0  0  0  0  0
  189.4390  176.3390  144.5560 C   0  0  0  0  0  0  0  0  0  0  0  0
  191.1370  176.8590  146.1580 N   0  0  0  0  0  0  0  0  0  0  0  0
  191.7560  172.8170  143.5250 O   0  0  0  0  0  1  0  0  0  0  0  0
  187.7400  175.7830  142.9220 C   0  0  0  0  0  3  0  0  0  0  0  0
  188.2200  176.6410  143.9180 C   0  0  0  0  0  0  0  0  0  0  0  0
  189.6460  174.3760  143.2010 N   0  0  0  0  0  0  0  0  0  0  0  0
  189.9610  177.1650  145.5560 C   0  0  0  0  0  3  0  0  0  0  0  0
  185.6070  178.8220  145.7430 C   0  0  2  0  0  3  0  0  0  0  0  0
  185.6560  179.8400  144.7540 O   0  0  0  0  0  0  0  0  0  0  0  0
  187.4300  177.8630  144.2940 C   0  0  2  0  0  3  0  0  0  0  0  0
  185.4880  179.2600  143.4810 C   0  0  0  0  0  2  0  0  0  0  0  0
  186.4280  177.5630  145.4080 C   0  0  0  0  0  2  0  0  0  0  0  0
  186.7460  178.4900  143.0730 C   0  0  0  0  0  2  0  0  0  0  0  0
  184.1750  178.4600  146.0950 C   0  0  0  0  0  1  0  0  0  0  0  0
  187.9780  173.7460  141.4960 C   0  0  0  0  0  2  0  0  0  0  0  0
  188.4060  174.0930  139.0680 C   0  0  0  0  0  1  0  0  0  0  0  0
  189.0120  173.6320  140.3800 C   0  0  2  0  0  3  0  0  0  0  0  0
  190.0130  171.8630  139.1680 C   0  0  0  0  0  3  0  0  0  0  0  0
  189.4440  172.2660  140.2460 N   0  0  0  0  0  0  0  0  0  0  0  0
  192.6760  170.9910  139.8810 O   0  0  0  0  0  1  0  0  0  0  0  0
  190.4720  170.4400  139.0270 C   0  0  2  0  0  3  0  0  0  0  0  0
  191.9960  170.3140  138.8660 C   0  0  1  0  0  3  0  0  0  0  0  0
  191.7760  170.0610  136.4420 N   0  0  0  0  0  2  0  0  0  0  0  0
  190.3390  170.3160  136.5150 C   0  0  0  0  0  2  0  0  0  0  0  0
  189.7720  169.7840  137.8340 C   0  0  0  0  0  2  0  0  0  0  0  0
  192.4420  170.8250  137.4960 C   0  0  0  0  0  2  0  0  0  0  0  0
  1 10  1  0  0  0  0
  1  8  2  0  0  0  0
  2  7  2  0  0  0  0
  2  6  1  0  0  0  0
  3  9  1  0  0  0  0
  3  7  1  0  0  0  0
  4 12  2  0  0  0  0
  4 14  1  0  0  0  0
  5  8  1  0  0  0  0
  6  5  2  0  0  0  0
  7  1  1  0  0  0  0
  9 15  1  0  0  0  0
 11  2  1  0  0  0  0
 12 13  1  0  0  0  0
 13  9  2  0  0  0  0
 14  3  2  0  0  0  0
 15 10  2  0  0  0  0
 16 22  1  6  0  0  0
 17 16  1  0  0  0  0
 18 13  1  6  0  0  0
 18 20  1  0  0  0  0
 19 17  1  0  0  0  0
 20 16  1  0  0  0  0
 21 19  1  0  0  0  0
 21 18  1  0  0  0  0
 23  4  1  0  0  0  0
 25 24  1  6  0  0  0
 25 23  1  0  0  0  0
 26 27  2  0  0  0  0
 27 25  1  0  0  0  0
 29 26  1  6  0  0  0
 30 29  1  0  0  0  0
 30 28  1  1  0  0  0
 31 32  1  0  0  0  0
 31 34  1  0  0  0  0
 32 33  1  0  0  0  0
 33 29  1  0  0  0  0
 34 30  1  0  0  0  0
M  END
>  <MODEL>
6

>  <REMARK>
 VINA RESULT:      -7.6      2.845      7.675
  Name = 
  5 active torsions:
  status: ('A' for Active; 'I' for Inactive)
    1  A    between atoms: C_3  and  C_13
    2  A    between atoms: C_5  and  C_18
    3  A    between atoms: C_12  and  C_28
    4  A    between atoms: N_17  and  C_29
    5  A    between atoms: C_18  and  C_29
                            x       y       z     vdW  Elec       q    Type
                         _______ _______ _______ _____ _____    ______ ____

>  <TORSDO>
F 5

$$$$
=
 OpenBabel11052418463D

 34 38  0  0  1  0  0  0  0  0999 V2000
  190.9120  173.4700  139.4080 C   0  0  0  0  0  0  0  0  0  0  0  0
  188.7190  173.1100  140.4130 C   0  0  0  0  0  0  0  0  0  0  0  0
  190.7080  173.6200  141.8260 C   0  0  0  0  0  0  0  0  0  0  0  0
  190.5470  173.7770  144.1990 C   0  0  0  0  0  0  0  0  0  0  0  0
  189.0010  172.9760  138.0070 C   0  0  0  0  0  3  0  0  0  0  0  0
  188.1880  172.9020  139.1370 C   0  0  0  0  0  3  0  0  0  0  0  0
  190.0990  173.3980  140.5680 C   0  0  0  0  0  0  0  0  0  0  0  0
  190.3590  173.2580  138.1430 C   0  0  0  0  0  3  0  0  0  0  0  0
  192.0940  173.9030  141.8940 C   0  0  0  0  0  0  0  0  0  0  0  0
  192.2380  173.7460  139.5120 N   0  0  0  0  0  0  0  0  0  0  0  0
  187.8620  173.0210  141.5040 O   0  0  0  0  0  1  0  0  0  0  0  0
  191.9080  174.0580  144.3030 C   0  0  0  0  0  3  0  0  0  0  0  0
  192.6960  174.1240  143.1480 C   0  0  0  0  0  0  0  0  0  0  0  0
  189.9850  173.5710  142.9790 N   0  0  0  0  0  0  0  0  0  0  0  0
  192.8360  173.9590  140.7100 C   0  0  0  0  0  3  0  0  0  0  0  0
  196.3270  173.9050  144.4430 C   0  0  2  0  0  3  0  0  0  0  0  0
  196.6850  175.1560  143.8740 O   0  0  0  0  0  0  0  0  0  0  0  0
  194.1630  174.4220  143.2620 C   0  0  2  0  0  3  0  0  0  0  0  0
  195.7390  176.1280  144.2580 C   0  0  0  0  0  2  0  0  0  0  0  0
  194.8340  173.5490  144.3210 C   0  0  0  0  0  2  0  0  0  0  0  0
  194.4180  175.9130  143.5140 C   0  0  0  0  0  2  0  0  0  0  0  0
  196.7970  173.7970  145.8830 C   0  0  0  0  0  1  0  0  0  0  0  0
  189.6990  173.7350  145.4240 C   0  0  0  0  0  2  0  0  0  0  0  0
  189.0510  174.9210  147.5140 C   0  0  0  0  0  1  0  0  0  0  0  0
  189.8880  175.0010  146.2520 C   0  0  2  0  0  3  0  0  0  0  0  0
  188.2490  176.3470  145.2010 C   0  0  0  0  0  3  0  0  0  0  0  0
  189.4850  176.1540  145.4900 N   0  0  0  0  0  0  0  0  0  0  0  0
  185.4830  177.1260  144.8880 O   0  0  0  0  0  1  0  0  0  0  0  0
  187.8240  177.5520  144.4120 C   0  0  2  0  0  3  0  0  0  0  0  0
  186.3890  177.4400  143.8720 C   0  0  1  0  0  3  0  0  0  0  0  0
  187.2110  176.7810  141.6640 N   0  0  0  0  0  2  0  0  0  0  0  0
  188.5860  176.7320  142.1560 C   0  0  0  0  0  2  0  0  0  0  0  0
  188.7950  177.7810  143.2510 C   0  0  0  0  0  2  0  0  0  0  0  0
  186.3090  176.4040  142.7510 C   0  0  0  0  0  2  0  0  0  0  0  0
  1 10  2  0  0  0  0
  1  7  1  0  0  0  0
  2  7  1  0  0  0  0
  2 11  1  0  0  0  0
  3  9  1  0  0  0  0
  3 14  1  0  0  0  0
  4 12  1  0  0  0  0
  4 23  1  0  0  0  0
  5  8  2  0  0  0  0
  5  6  1  0  0  0  0
  6  2  2  0  0  0  0
  7  3  2  0  0  0  0
  8  1  1  0  0  0  0
  9 13  1  0  0  0  0
 10 15  1  0  0  0  0
 13 12  2  0  0  0  0
 14  4  2  0  0  0  0
 15  9  2  0  0  0  0
 16 22  1  1  0  0  0
 17 19  1  0  0  0  0
 17 16  1  0  0  0  0
 18 13  1  1  0  0  0
 18 21  1  0  0  0  0
 18 20  1  0  0  0  0
 20 16  1  0  0  0  0
 21 19  1  0  0  0  0
 23 25  1  0  0  0  0
 25 24  1  1  0  0  0
 26 27  2  0  0  0  0
 27 25  1  0  0  0  0
 29 26  1  6  0  0  0
 30 29  1  0  0  0  0
 30 28  1  1  0  0  0
 31 32  1  0  0  0  0
 31 34  1  0  0  0  0
 32 33  1  0  0  0  0
 33 29  1  0  0  0  0
 34 30  1  0  0  0  0
M  END
>  <MODEL>
7

>  <REMARK>
 VINA RESULT:      -7.6      2.165      6.656
  Name = 
  5 active torsions:
  status: ('A' for Active; 'I' for Inactive)
    1  A    between atoms: C_3  and  C_13
    2  A    between atoms: C_5  and  C_18
    3  A    between atoms: C_12  and  C_28
    4  A    between atoms: N_17  and  C_29
    5  A    between atoms: C_18  and  C_29
                            x       y       z     vdW  Elec       q    Type
                         _______ _______ _______ _____ _____    ______ ____

>  <TORSDO>
F 5

$$$$
=
 OpenBabel11052418463D

 34 38  0  0  1  0  0  0  0  0999 V2000
  191.3860  173.5130  140.5770 C   0  0  0  0  0  0  0  0  0  0  0  0
  189.2440  174.2600  141.4730 C   0  0  0  0  0  0  0  0  0  0  0  0
  191.2510  174.0730  142.9400 C   0  0  0  0  0  0  0  0  0  0  0  0
  191.1580  174.6150  145.2580 C   0  0  0  0  0  0  0  0  0  0  0  0
  189.4560  173.6830  139.1260 C   0  0  0  0  0  3  0  0  0  0  0  0
  188.6820  174.1200  140.2000 C   0  0  0  0  0  3  0  0  0  0  0  0
  190.6130  173.9560  141.6810 C   0  0  0  0  0  0  0  0  0  0  0  0
  190.8030  173.3800  139.3150 C   0  0  0  0  0  3  0  0  0  0  0  0
  192.6230  173.7490  143.0620 C   0  0  0  0  0  0  0  0  0  0  0  0
  192.7010  173.2120  140.7330 N   0  0  0  0  0  0  0  0  0  0  0  0
  188.4250  174.6980  142.5070 O   0  0  0  0  0  1  0  0  0  0  0  0
  192.5070  174.3050  145.4170 C   0  0  0  0  0  3  0  0  0  0  0  0
  193.2540  173.8680  144.3160 C   0  0  0  0  0  0  0  0  0  0  0  0
  190.5700  174.4980  144.0400 N   0  0  0  0  0  0  0  0  0  0  0  0
  193.3250  173.3180  141.9320 C   0  0  0  0  0  3  0  0  0  0  0  0
  196.3950  171.7590  145.0930 C   0  0  2  0  0  3  0  0  0  0  0  0
  197.2160  172.9060  145.2540 O   0  0  0  0  0  0  0  0  0  0  0  0
  194.7070  173.5290  144.4890 C   0  0  2  0  0  3  0  0  0  0  0  0
  196.5940  173.8020  146.1460 C   0  0  0  0  0  2  0  0  0  0  0  0
  194.9000  172.0660  144.8860 C   0  0  0  0  0  2  0  0  0  0  0  0
  195.3940  174.4780  145.4770 C   0  0  0  0  0  2  0  0  0  0  0  0
  196.5950  170.7710  146.2290 C   0  0  0  0  0  1  0  0  0  0  0  0
  190.3660  175.1090  146.4200 C   0  0  0  0  0  2  0  0  0  0  0  0
  189.8290  177.4290  147.1460 C   0  0  0  0  0  1  0  0  0  0  0  0
  189.6240  176.3910  146.0590 C   0  0  2  0  0  3  0  0  0  0  0  0
  187.4450  176.9710  145.3400 C   0  0  0  0  0  3  0  0  0  0  0  0
  188.2170  176.1250  145.9200 N   0  0  0  0  0  0  0  0  0  0  0  0
  186.0020  177.4490  142.8810 O   0  0  0  0  0  1  0  0  0  0  0  0
  185.9770  176.6930  145.1870 C   0  0  2  0  0  3  0  0  0  0  0  0
  185.3150  177.5480  144.0930 C   0  0  1  0  0  3  0  0  0  0  0  0
  184.4370  179.1060  145.7630 N   0  0  0  0  0  2  0  0  0  0  0  0
  185.1600  178.4170  146.8300 C   0  0  0  0  0  2  0  0  0  0  0  0
  185.2640  176.9210  146.5210 C   0  0  0  0  0  2  0  0  0  0  0  0
  185.2180  179.0090  144.5300 C   0  0  0  0  0  2  0  0  0  0  0  0
  1 10  2  0  0  0  0
  1  7  1  0  0  0  0
  2  7  1  0  0  0  0
  2 11  1  0  0  0  0
  3  9  1  0  0  0  0
  3 14  1  0  0  0  0
  4 12  1  0  0  0  0
  4 23  1  0  0  0  0
  5  8  2  0  0  0  0
  5  6  1  0  0  0  0
  6  2  2  0  0  0  0
  7  3  2  0  0  0  0
  8  1  1  0  0  0  0
  9 13  1  0  0  0  0
 10 15  1  0  0  0  0
 13 12  2  0  0  0  0
 14  4  2  0  0  0  0
 15  9  2  0  0  0  0
 16 17  1  0  0  0  0
 16 22  1  1  0  0  0
 17 19  1  0  0  0  0
 18 13  1  1  0  0  0
 18 20  1  0  0  0  0
 18 21  1  0  0  0  0
 20 16  1  0  0  0  0
 21 19  1  0  0  0  0
 25 23  1  0  0  0  0
 25 24  1  1  0  0  0
 26 27  2  0  0  0  0
 27 25  1  0  0  0  0
 29 26  1  1  0  0  0
 29 33  1  0  0  0  0
 30 28  1  6  0  0  0
 30 34  1  0  0  0  0
 30 29  1  0  0  0  0
 31 32  1  0  0  0  0
 33 32  1  0  0  0  0
 34 31  1  0  0  0  0
M  END
>  <MODEL>
8

>  <REMARK>
 VINA RESULT:      -7.6      2.332      7.104
  Name = 
  5 active torsions:
  status: ('A' for Active; 'I' for Inactive)
    1  A    between atoms: C_3  and  C_13
    2  A    between atoms: C_5  and  C_18
    3  A    between atoms: C_12  and  C_28
    4  A    between atoms: N_17  and  C_29
    5  A    between atoms: C_18  and  C_29
                            x       y       z     vdW  Elec       q    Type
                         _______ _______ _______ _____ _____    ______ ____

>  <TORSDO>
F 5

$$$$
=
 OpenBabel11052418463D

 34 38  0  0  1  0  0  0  0  0999 V2000
  192.0120  175.6530  145.5760 C   0  0  0  0  0  0  0  0  0  0  0  0
  192.2750  173.6250  144.2460 C   0  0  0  0  0  0  0  0  0  0  0  0
  190.2600  175.0710  143.9930 C   0  0  0  0  0  0  0  0  0  0  0  0
  188.5230  174.5350  142.4530 C   0  0  0  0  0  0  0  0  0  0  0  0
  193.9810  174.2700  145.8460 C   0  0  0  0  0  3  0  0  0  0  0  0
  193.5000  173.3900  144.8780 C   0  0  0  0  0  3  0  0  0  0  0  0
  191.5080  174.7670  144.5890 C   0  0  0  0  0  0  0  0  0  0  0  0
  193.2390  175.3970  146.1930 C   0  0  0  0  0  3  0  0  0  0  0  0
  189.5580  176.2330  144.3930 C   0  0  0  0  0  0  0  0  0  0  0  0
  191.3110  176.7600  145.9330 N   0  0  0  0  0  0  0  0  0  0  0  0
  191.8430  172.7120  143.2900 O   0  0  0  0  0  1  0  0  0  0  0  0
  187.8040  175.6700  142.8210 C   0  0  0  0  0  3  0  0  0  0  0  0
  188.3170  176.5320  143.7970 C   0  0  0  0  0  0  0  0  0  0  0  0
  189.7200  174.2670  143.0360 N   0  0  0  0  0  0  0  0  0  0  0  0
  190.1140  177.0630  145.3720 C   0  0  0  0  0  3  0  0  0  0  0  0
  185.7250  178.7010  145.6660 C   0  0  2  0  0  3  0  0  0  0  0  0
  185.7840  179.7380  144.6980 O   0  0  0  0  0  0  0  0  0  0  0  0
  187.5390  177.7530  144.1970 C   0  0  2  0  0  3  0  0  0  0  0  0
  185.6100  179.1850  143.4130 C   0  0  0  0  0  2  0  0  0  0  0  0
  186.5340  177.4420  145.3060 C   0  0  0  0  0  2  0  0  0  0  0  0
  186.8610  178.4110  142.9890 C   0  0  0  0  0  2  0  0  0  0  0  0
  184.2890  178.3460  146.0110 C   0  0  0  0  0  1  0  0  0  0  0  0
  187.9950  173.6300  141.3930 C   0  0  0  0  0  2  0  0  0  0  0  0
  188.2020  174.3760  139.0260 C   0  0  0  0  0  1  0  0  0  0  0  0
  188.8990  173.6560  140.1650 C   0  0  2  0  0  3  0  0  0  0  0  0
  190.3390  171.7800  140.0640 C   0  0  0  0  0  3  0  0  0  0  0  0
  189.2120  172.3130  139.7540 N   0  0  0  0  0  0  0  0  0  0  0  0
  190.6790  169.6120  141.9460 O   0  0  0  0  0  1  0  0  0  0  0  0
  190.6650  170.3760  139.6430 C   0  0  2  0  0  3  0  0  0  0  0  0
  191.3830  169.5720  140.7400 C   0  0  1  0  0  3  0  0  0  0  0  0
  193.5560  169.9670  139.6890 N   0  0  0  0  0  2  0  0  0  0  0  0
  192.9510  170.8580  138.7010 C   0  0  0  0  0  2  0  0  0  0  0  0
  191.5260  170.4010  138.3770 C   0  0  0  0  0  2  0  0  0  0  0  0
  192.8100  170.0800  140.9410 C   0  0  0  0  0  2  0  0  0  0  0  0
  1 10  1  0  0  0  0
  1  8  2  0  0  0  0
  2  7  2  0  0  0  0
  2  6  1  0  0  0  0
  3  9  1  0  0  0  0
  3  7  1  0  0  0  0
  4 12  2  0  0  0  0
  4 14  1  0  0  0  0
  5  8  1  0  0  0  0
  6  5  2  0  0  0  0
  7  1  1  0  0  0  0
  9 15  1  0  0  0  0
 11  2  1  0  0  0  0
 12 13  1  0  0  0  0
 13  9  2  0  0  0  0
 14  3  2  0  0  0  0
 15 10  2  0  0  0  0
 16 22  1  6  0  0  0
 17 16  1  0  0  0  0
 18 13  1  6  0  0  0
 18 20  1  0  0  0  0
 19 17  1  0  0  0  0
 20 16  1  0  0  0  0
 21 19  1  0  0  0  0
 21 18  1  0  0  0  0
 23  4  1  0  0  0  0
 25 24  1  6  0  0  0
 25 23  1  0  0  0  0
 27 26  2  0  0  0  0
 27 25  1  0  0  0  0
 29 26  1  1  0  0  0
 29 30  1  0  0  0  0
 30 34  1  0  0  0  0
 30 28  1  1  0  0  0
 31 34  1  0  0  0  0
 32 31  1  0  0  0  0
 33 32  1  0  0  0  0
 33 29  1  0  0  0  0
M  END
>  <MODEL>
9

>  <REMARK>
 VINA RESULT:      -7.5      2.543      7.421
  Name = 
  5 active torsions:
  status: ('A' for Active; 'I' for Inactive)
    1  A    between atoms: C_3  and  C_13
    2  A    between atoms: C_5  and  C_18
    3  A    between atoms: C_12  and  C_28
    4  A    between atoms: N_17  and  C_29
    5  A    between atoms: C_18  and  C_29
                            x       y       z     vdW  Elec       q    Type
                         _______ _______ _______ _____ _____    ______ ____

>  <TORSDO>
F 5

$$$$
