=
 OpenBabel11052418323D

 27 30  0  0  1  0  0  0  0  0999 V2000
  188.7040  176.6680  145.2190 C   0  0  0  0  0  2  0  0  0  0  0  0
  187.3410  177.4660  143.2270 C   0  0  2  0  0  3  0  0  0  0  0  0
  189.6670  177.8110  142.5080 C   0  0  0  0  0  2  0  0  0  0  0  0
  192.8920  177.0560  144.3250 C   0  0  0  0  0  3  0  0  0  0  0  0
  192.4550  176.6080  145.5710 C   0  0  0  0  0  0  0  0  0  0  0  0
  187.7940  177.7620  144.6830 C   0  0  1  0  0  3  0  0  0  0  0  0
  190.1450  176.8850  144.8730 C   0  0  0  0  0  0  0  0  0  0  0  0
  188.4240  177.0400  142.3230 N   0  0  1  0  0  0  0  0  0  0  0  0
  191.9610  177.4150  143.3480 C   0  0  0  0  0  3  0  0  0  0  0  0
  193.6190  176.1520  146.7950 Cl  0  0  0  0  0  0  0  0  0  0  0  0
  191.0880  176.5170  145.8390 C   0  0  0  0  0  3  0  0  0  0  0  0
  190.5880  177.3190  143.5990 C   0  0  0  0  0  0  0  0  0  0  0  0
  184.4590  177.2340  146.4470 C   0  0  0  0  0  3  0  0  0  0  0  0
  186.6330  177.9270  145.6150 C   0  0  0  0  0  0  0  0  0  0  0  0
  186.6690  178.9440  146.5760 C   0  0  0  0  0  3  0  0  0  0  0  0
  185.6030  179.1110  147.4630 C   0  0  0  0  0  3  0  0  0  0  0  0
  184.4970  178.2580  147.3980 C   0  0  0  0  0  3  0  0  0  0  0  0
  185.5240  177.0670  145.5570 C   0  0  0  0  0  3  0  0  0  0  0  0
  187.2850  174.8870  142.2350 C   0  0  0  0  0  2  0  0  0  0  0  0
  188.2110  174.9760  141.0430 C   0  0  0  0  0  2  0  0  0  0  0  0
  188.6230  175.5910  142.3690 C   0  0  0  0  0  3  0  0  0  0  0  0
  186.5500  178.6040  142.5590 C   0  0  2  0  0  3  0  0  0  0  0  0
  186.0480  179.6600  143.5370 C   0  0  0  0  0  1  0  0  0  0  0  0
  185.7420  177.9180  140.4070 O   0  0  0  0  0  0  0  0  0  0  0  0
  185.4800  178.1110  141.6230 C   0  0  0  0  0  0  0  0  0  0  0  0
  183.0330  178.2280  141.3090 C   0  0  0  0  0  1  0  0  0  0  0  0
  184.1770  177.8790  142.0740 O   0  0  0  0  0  0  0  0  0  0  0  0
  2 22  1  6  0  0  0
  2  6  1  0  0  0  0
  3 12  1  0  0  0  0
  4  5  1  0  0  0  0
  5 11  2  0  0  0  0
  5 10  1  0  0  0  0
  6  1  1  0  0  0  0
  6 14  1  1  0  0  0
  7  1  1  0  0  0  0
  7 11  1  0  0  0  0
  8 21  1  1  0  0  0
  8  3  1  0  0  0  0
  8  2  1  0  0  0  0
  9 12  1  0  0  0  0
  9  4  2  0  0  0  0
 12  7  2  0  0  0  0
 13 17  1  0  0  0  0
 14 15  2  0  0  0  0
 15 16  1  0  0  0  0
 17 16  2  0  0  0  0
 18 14  1  0  0  0  0
 18 13  2  0  0  0  0
 19 21  1  0  0  0  0
 20 19  1  0  0  0  0
 20 21  1  0  0  0  0
 22 23  1  1  0  0  0
 24 25  2  0  0  0  0
 25 27  1  0  0  0  0
 25 22  1  0  0  0  0
 26 27  1  0  0  0  0
M  END
>  <MODEL>
1

>  <REMARK>
 VINA RESULT:      -7.7      0.000      0.000
  Name = 
  5 active torsions:
  status: ('A' for Active; 'I' for Inactive)
    1  A    between atoms: C_2  and  C_6
    2  A    between atoms: C_6  and  C_17
    3  A    between atoms: C_9  and  C_15
    4  A    between atoms: C_14  and  N_19
    5  A    between atoms: O_16  and  C_17
                            x       y       z     vdW  Elec       q    Type
                         _______ _______ _______ _____ _____    ______ ____

>  <TORSDO>
F 5

$$$$
=
 OpenBabel11052418323D

 27 30  0  0  1  0  0  0  0  0999 V2000
  188.0090  176.5680  142.4610 C   0  0  0  0  0  2  0  0  0  0  0  0
  188.8230  176.6880  144.8660 C   0  0  2  0  0  3  0  0  0  0  0  0
  189.7230  174.5470  144.0590 C   0  0  0  0  0  2  0  0  0  0  0  0
  189.4460  172.9430  140.6510 C   0  0  0  0  0  3  0  0  0  0  0  0
  188.6150  173.8210  139.9550 C   0  0  0  0  0  0  0  0  0  0  0  0
  187.6050  176.4800  143.9250 C   0  0  1  0  0  3  0  0  0  0  0  0
  188.4860  175.2620  141.9060 C   0  0  0  0  0  0  0  0  0  0  0  0
  190.0260  175.9240  144.4910 N   0  0  1  0  0  0  0  0  0  0  0  0
  189.8040  173.2220  141.9710 C   0  0  0  0  0  3  0  0  0  0  0  0
  188.1700  173.4780  138.2990 Cl  0  0  0  0  0  0  0  0  0  0  0  0
  188.1450  174.9770  140.5800 C   0  0  0  0  0  3  0  0  0  0  0  0
  189.3480  174.3820  142.6060 C   0  0  0  0  0  0  0  0  0  0  0  0
  184.4540  178.1190  145.3030 C   0  0  0  0  0  3  0  0  0  0  0  0
  186.5110  177.4690  144.1860 C   0  0  0  0  0  0  0  0  0  0  0  0
  186.5560  178.7180  143.5560 C   0  0  0  0  0  3  0  0  0  0  0  0
  185.5520  179.6600  143.7920 C   0  0  0  0  0  3  0  0  0  0  0  0
  184.5000  179.3610  144.6630 C   0  0  0  0  0  3  0  0  0  0  0  0
  185.4580  177.1740  145.0670 C   0  0  0  0  0  3  0  0  0  0  0  0
  190.9660  178.1130  143.9790 C   0  0  0  0  0  2  0  0  0  0  0  0
  192.1110  177.1610  144.2390 C   0  0  0  0  0  2  0  0  0  0  0  0
  190.8580  176.6640  143.5410 C   0  0  0  0  0  3  0  0  0  0  0  0
  188.5260  176.4530  146.3580 C   0  0  2  0  0  3  0  0  0  0  0  0
  188.2480  177.7330  147.1380 C   0  0  0  0  0  1  0  0  0  0  0  0
  189.2370  174.3720  147.3150 O   0  0  0  0  0  0  0  0  0  0  0  0
  189.5350  175.5610  147.0290 C   0  0  0  0  0  0  0  0  0  0  0  0
  191.9570  175.2040  147.3520 C   0  0  0  0  0  1  0  0  0  0  0  0
  190.8060  176.0340  147.3660 O   0  0  0  0  0  0  0  0  0  0  0  0
  1  6  1  0  0  0  0
  2 22  1  1  0  0  0
  3  8  1  0  0  0  0
  4  9  1  0  0  0  0
  5 11  1  0  0  0  0
  5  4  2  0  0  0  0
  6 14  1  1  0  0  0
  6  2  1  0  0  0  0
  7  1  1  0  0  0  0
  7 12  1  0  0  0  0
  8 21  1  6  0  0  0
  8  2  1  0  0  0  0
  9 12  2  0  0  0  0
 10  5  1  0  0  0  0
 11  7  2  0  0  0  0
 12  3  1  0  0  0  0
 14 18  2  0  0  0  0
 15 16  2  0  0  0  0
 15 14  1  0  0  0  0
 16 17  1  0  0  0  0
 17 13  2  0  0  0  0
 18 13  1  0  0  0  0
 19 20  1  0  0  0  0
 21 19  1  0  0  0  0
 21 20  1  0  0  0  0
 22 25  1  0  0  0  0
 22 23  1  1  0  0  0
 25 24  2  0  0  0  0
 25 27  1  0  0  0  0
 26 27  1  0  0  0  0
M  END
>  <MODEL>
2

>  <REMARK>
 VINA RESULT:      -7.6      3.424      5.449
  Name = 
  5 active torsions:
  status: ('A' for Active; 'I' for Inactive)
    1  A    between atoms: C_2  and  C_6
    2  A    between atoms: C_6  and  C_17
    3  A    between atoms: C_9  and  C_15
    4  A    between atoms: C_14  and  N_19
    5  A    between atoms: O_16  and  C_17
                            x       y       z     vdW  Elec       q    Type
                         _______ _______ _______ _____ _____    ______ ____

>  <TORSDO>
F 5

$$$$
=
 OpenBabel11052418323D

 27 30  0  0  1  0  0  0  0  0999 V2000
  188.0870  176.3690  142.5020 C   0  0  0  0  0  2  0  0  0  0  0  0
  188.9160  177.1410  144.7780 C   0  0  2  0  0  3  0  0  0  0  0  0
  189.9220  174.9120  144.5250 C   0  0  0  0  0  2  0  0  0  0  0  0
  189.7000  172.4760  141.6480 C   0  0  0  0  0  3  0  0  0  0  0  0
  188.8170  173.1040  140.7690 C   0  0  0  0  0  0  0  0  0  0  0  0
  187.7030  176.6390  143.9490 C   0  0  1  0  0  3  0  0  0  0  0  0
  188.6290  174.9890  142.2890 C   0  0  0  0  0  0  0  0  0  0  0  0
  190.1550  176.3670  144.5830 N   0  0  1  0  0  0  0  0  0  0  0  0
  190.0540  173.1010  142.8440 C   0  0  0  0  0  3  0  0  0  0  0  0
  188.3750  172.3260  139.2660 Cl  0  0  0  0  0  0  0  0  0  0  0  0
  188.2910  174.3570  141.0880 C   0  0  0  0  0  3  0  0  0  0  0  0
  189.5430  174.3620  143.1720 C   0  0  0  0  0  0  0  0  0  0  0  0
  185.6150  179.7680  144.5510 C   0  0  0  0  0  3  0  0  0  0  0  0
  186.5590  177.6070  143.9730 C   0  0  0  0  0  0  0  0  0  0  0  0
  185.3430  177.2390  143.3870 C   0  0  0  0  0  3  0  0  0  0  0  0
  184.2650  178.1280  143.3880 C   0  0  0  0  0  3  0  0  0  0  0  0
  184.4000  179.3910  143.9720 C   0  0  0  0  0  3  0  0  0  0  0  0
  186.6940  178.8790  144.5520 C   0  0  0  0  0  3  0  0  0  0  0  0
  191.2060  178.3600  143.6540 C   0  0  0  0  0  2  0  0  0  0  0  0
  192.2930  177.3520  143.9500 C   0  0  0  0  0  2  0  0  0  0  0  0
  190.9370  176.8790  143.4570 C   0  0  0  0  0  3  0  0  0  0  0  0
  188.6460  177.2820  146.2860 C   0  0  2  0  0  3  0  0  0  0  0  0
  189.8970  177.5680  147.1100 C   0  0  0  0  0  1  0  0  0  0  0  0
  188.3490  175.0540  147.1220 O   0  0  0  0  0  0  0  0  0  0  0  0
  187.8150  176.1610  146.8460 C   0  0  0  0  0  0  0  0  0  0  0  0
  185.8880  177.4340  147.7200 C   0  0  0  0  0  1  0  0  0  0  0  0
  186.4410  176.3110  147.0500 O   0  0  0  0  0  0  0  0  0  0  0  0
  1  6  1  0  0  0  0
  2 22  1  1  0  0  0
  3  8  1  0  0  0  0
  4  9  1  0  0  0  0
  5 11  1  0  0  0  0
  5  4  2  0  0  0  0
  6 14  1  6  0  0  0
  6  2  1  0  0  0  0
  7  1  1  0  0  0  0
  7 12  1  0  0  0  0
  8 21  1  6  0  0  0
  8  2  1  0  0  0  0
  9 12  2  0  0  0  0
 10  5  1  0  0  0  0
 11  7  2  0  0  0  0
 12  3  1  0  0  0  0
 13 18  1  0  0  0  0
 14 18  2  0  0  0  0
 15 16  2  0  0  0  0
 15 14  1  0  0  0  0
 16 17  1  0  0  0  0
 17 13  2  0  0  0  0
 19 20  1  0  0  0  0
 21 19  1  0  0  0  0
 21 20  1  0  0  0  0
 22 25  1  0  0  0  0
 22 23  1  1  0  0  0
 25 27  1  0  0  0  0
 25 24  2  0  0  0  0
 27 26  1  0  0  0  0
M  END
>  <MODEL>
3

>  <REMARK>
 VINA RESULT:      -7.4      3.059      4.974
  Name = 
  5 active torsions:
  status: ('A' for Active; 'I' for Inactive)
    1  A    between atoms: C_2  and  C_6
    2  A    between atoms: C_6  and  C_17
    3  A    between atoms: C_9  and  C_15
    4  A    between atoms: C_14  and  N_19
    5  A    between atoms: O_16  and  C_17
                            x       y       z     vdW  Elec       q    Type
                         _______ _______ _______ _____ _____    ______ ____

>  <TORSDO>
F 5

$$$$
=
 OpenBabel11052418323D

 27 30  0  0  1  0  0  0  0  0999 V2000
  188.5970  175.7710  142.0850 C   0  0  0  0  0  2  0  0  0  0  0  0
  188.9330  176.1270  144.5800 C   0  0  2  0  0  3  0  0  0  0  0  0
  189.7760  173.8480  144.2050 C   0  0  0  0  0  2  0  0  0  0  0  0
  190.0260  171.8640  141.0020 C   0  0  0  0  0  3  0  0  0  0  0  0
  189.4310  172.7050  140.0620 C   0  0  0  0  0  0  0  0  0  0  0  0
  187.9090  175.8890  143.4370 C   0  0  1  0  0  3  0  0  0  0  0  0
  189.0540  174.3780  141.7820 C   0  0  0  0  0  0  0  0  0  0  0  0
  190.1120  175.2440  144.5420 N   0  0  1  0  0  0  0  0  0  0  0  0
  190.1430  172.2770  142.3300 C   0  0  0  0  0  3  0  0  0  0  0  0
  189.2880  172.1930  138.3950 Cl  0  0  0  0  0  0  0  0  0  0  0  0
  188.9540  173.9580  140.4510 C   0  0  0  0  0  3  0  0  0  0  0  0
  189.6790  173.5330  142.7320 C   0  0  0  0  0  0  0  0  0  0  0  0
  184.6060  177.7720  143.6710 C   0  0  0  0  0  3  0  0  0  0  0  0
  186.8790  176.9740  143.3630 C   0  0  0  0  0  0  0  0  0  0  0  0
  187.2620  178.2490  142.9330 C   0  0  0  0  0  3  0  0  0  0  0  0
  186.3210  179.2800  142.8650 C   0  0  0  0  0  3  0  0  0  0  0  0
  184.9930  179.0420  143.2320 C   0  0  0  0  0  3  0  0  0  0  0  0
  185.5460  176.7400  143.7380 C   0  0  0  0  0  3  0  0  0  0  0  0
  191.3950  177.2630  144.0730 C   0  0  0  0  0  2  0  0  0  0  0  0
  192.3500  176.2090  144.5840 C   0  0  0  0  0  2  0  0  0  0  0  0
  191.1770  175.8050  143.7090 C   0  0  0  0  0  3  0  0  0  0  0  0
  188.3310  176.0960  145.9960 C   0  0  2  0  0  3  0  0  0  0  0  0
  187.7700  177.4380  146.4540 C   0  0  0  0  0  1  0  0  0  0  0  0
  188.9600  174.3250  147.4860 O   0  0  0  0  0  0  0  0  0  0  0  0
  189.2390  175.4580  147.0120 C   0  0  0  0  0  0  0  0  0  0  0  0
  191.4540  175.4250  148.1020 C   0  0  0  0  0  1  0  0  0  0  0  0
  190.3880  176.1120  147.4650 O   0  0  0  0  0  0  0  0  0  0  0  0
  1  6  1  0  0  0  0
  2 22  1  1  0  0  0
  3  8  1  0  0  0  0
  4  9  1  0  0  0  0
  5 11  1  0  0  0  0
  5  4  2  0  0  0  0
  6 14  1  6  0  0  0
  6  2  1  0  0  0  0
  7  1  1  0  0  0  0
  7 12  1  0  0  0  0
  8 21  1  6  0  0  0
  8  2  1  0  0  0  0
  9 12  2  0  0  0  0
 10  5  1  0  0  0  0
 11  7  2  0  0  0  0
 12  3  1  0  0  0  0
 13 18  1  0  0  0  0
 14 18  2  0  0  0  0
 15 14  1  0  0  0  0
 16 15  2  0  0  0  0
 16 17  1  0  0  0  0
 17 13  2  0  0  0  0
 19 20  1  0  0  0  0
 21 19  1  0  0  0  0
 21 20  1  0  0  0  0
 22 23  1  1  0  0  0
 22 25  1  0  0  0  0
 25 27  1  0  0  0  0
 25 24  2  0  0  0  0
 27 26  1  0  0  0  0
M  END
>  <MODEL>
4

>  <REMARK>
 VINA RESULT:      -7.1      3.523      5.628
  Name = 
  5 active torsions:
  status: ('A' for Active; 'I' for Inactive)
    1  A    between atoms: C_2  and  C_6
    2  A    between atoms: C_6  and  C_17
    3  A    between atoms: C_9  and  C_15
    4  A    between atoms: C_14  and  N_19
    5  A    between atoms: O_16  and  C_17
                            x       y       z     vdW  Elec       q    Type
                         _______ _______ _______ _____ _____    ______ ____

>  <TORSDO>
F 5

$$$$
=
 OpenBabel11052418323D

 27 30  0  0  1  0  0  0  0  0999 V2000
  193.5380  172.6900  145.2120 C   0  0  0  0  0  2  0  0  0  0  0  0
  193.5670  174.9820  144.1130 C   0  0  2  0  0  3  0  0  0  0  0  0
  195.9360  174.3250  144.1360 C   0  0  0  0  0  2  0  0  0  0  0  0
  197.5460  171.1460  145.3880 C   0  0  0  0  0  3  0  0  0  0  0  0
  196.4730  170.4420  145.9350 C   0  0  0  0  0  0  0  0  0  0  0  0
  193.3790  174.1860  145.4330 C   0  0  1  0  0  3  0  0  0  0  0  0
  194.9610  172.2340  145.3000 C   0  0  0  0  0  0  0  0  0  0  0  0
  194.7380  174.5780  143.3150 N   0  0  1  0  0  0  0  0  0  0  0  0
  197.3320  172.3890  144.7920 C   0  0  0  0  0  3  0  0  0  0  0  0
  196.7370  168.8800  146.6770 Cl  0  0  0  0  0  0  0  0  0  0  0  0
  195.1870  170.9820  145.8840 C   0  0  0  0  0  3  0  0  0  0  0  0
  196.0470  172.9390  144.7240 C   0  0  0  0  0  0  0  0  0  0  0  0
  190.6850  175.3080  147.8820 C   0  0  0  0  0  3  0  0  0  0  0  0
  192.0450  174.4440  146.0650 C   0  0  0  0  0  0  0  0  0  0  0  0
  190.8830  174.0730  145.3790 C   0  0  0  0  0  3  0  0  0  0  0  0
  189.6270  174.3120  145.9440 C   0  0  0  0  0  3  0  0  0  0  0  0
  189.5280  174.9270  147.1950 C   0  0  0  0  0  3  0  0  0  0  0  0
  191.9420  175.0690  147.3180 C   0  0  0  0  0  3  0  0  0  0  0  0
  193.1220  173.7940  141.6680 C   0  0  0  0  0  2  0  0  0  0  0  0
  194.4480  173.9830  140.9680 C   0  0  0  0  0  2  0  0  0  0  0  0
  194.4140  173.4820  142.4010 C   0  0  0  0  0  3  0  0  0  0  0  0
  193.5820  176.5110  144.2830 C   0  0  2  0  0  3  0  0  0  0  0  0
  194.1630  176.9750  145.6150 C   0  0  0  0  0  1  0  0  0  0  0  0
  191.9400  177.3760  142.7630 O   0  0  0  0  0  0  0  0  0  0  0  0
  192.2610  177.1550  143.9610 C   0  0  0  0  0  0  0  0  0  0  0  0
  190.0150  177.8440  144.7220 C   0  0  0  0  0  1  0  0  0  0  0  0
  191.3780  177.5410  144.9730 O   0  0  0  0  0  0  0  0  0  0  0  0
  1  7  1  0  0  0  0
  1  6  1  0  0  0  0
  2 22  1  1  0  0  0
  2  6  1  0  0  0  0
  3 12  1  0  0  0  0
  4  5  1  0  0  0  0
  5 10  1  0  0  0  0
  6 14  1  6  0  0  0
  7 11  1  0  0  0  0
  8 21  1  1  0  0  0
  8  2  1  0  0  0  0
  8  3  1  0  0  0  0
  9  4  2  0  0  0  0
 11  5  2  0  0  0  0
 12  9  1  0  0  0  0
 12  7  2  0  0  0  0
 14 18  2  0  0  0  0
 15 16  2  0  0  0  0
 15 14  1  0  0  0  0
 16 17  1  0  0  0  0
 17 13  2  0  0  0  0
 18 13  1  0  0  0  0
 19 21  1  0  0  0  0
 20 19  1  0  0  0  0
 20 21  1  0  0  0  0
 22 23  1  1  0  0  0
 24 25  2  0  0  0  0
 25 22  1  0  0  0  0
 25 27  1  0  0  0  0
 26 27  1  0  0  0  0
M  END
>  <MODEL>
5

>  <REMARK>
 VINA RESULT:      -6.8      4.696      7.004
  Name = 
  5 active torsions:
  status: ('A' for Active; 'I' for Inactive)
    1  A    between atoms: C_2  and  C_6
    2  A    between atoms: C_6  and  C_17
    3  A    between atoms: C_9  and  C_15
    4  A    between atoms: C_14  and  N_19
    5  A    between atoms: O_16  and  C_17
                            x       y       z     vdW  Elec       q    Type
                         _______ _______ _______ _____ _____    ______ ____

>  <TORSDO>
F 5

$$$$
=
 OpenBabel11052418323D

 27 30  0  0  1  0  0  0  0  0999 V2000
  189.3750  176.1460  145.3120 C   0  0  0  0  0  2  0  0  0  0  0  0
  188.0620  175.7810  143.1660 C   0  0  2  0  0  3  0  0  0  0  0  0
  190.3930  175.9260  142.3970 C   0  0  0  0  0  2  0  0  0  0  0  0
  193.5670  176.3960  144.3900 C   0  0  0  0  0  3  0  0  0  0  0  0
  193.1000  176.5640  145.6930 C   0  0  0  0  0  0  0  0  0  0  0  0
  188.4220  176.7730  144.3050 C   0  0  1  0  0  3  0  0  0  0  0  0
  190.8140  176.2870  144.9210 C   0  0  0  0  0  0  0  0  0  0  0  0
  189.2130  175.0630  142.5910 N   0  0  1  0  0  0  0  0  0  0  0  0
  192.6630  176.1670  143.3500 C   0  0  0  0  0  3  0  0  0  0  0  0
  194.2300  176.8450  146.9990 Cl  0  0  0  0  0  0  0  0  0  0  0  0
  191.7300  176.5030  145.9560 C   0  0  0  0  0  3  0  0  0  0  0  0
  191.2890  176.0920  143.6000 C   0  0  0  0  0  0  0  0  0  0  0  0
  185.8860  179.0730  145.9750 C   0  0  0  0  0  3  0  0  0  0  0  0
  187.2090  177.2690  145.0300 C   0  0  0  0  0  0  0  0  0  0  0  0
  186.2240  176.3530  145.4160 C   0  0  0  0  0  3  0  0  0  0  0  0
  185.0780  176.7930  146.0850 C   0  0  0  0  0  3  0  0  0  0  0  0
  184.9100  178.1520  146.3660 C   0  0  0  0  0  3  0  0  0  0  0  0
  187.0330  178.6340  145.3070 C   0  0  0  0  0  3  0  0  0  0  0  0
  188.5590  172.7340  142.8830 C   0  0  0  0  0  2  0  0  0  0  0  0
  189.9790  172.7590  142.3680 C   0  0  0  0  0  2  0  0  0  0  0  0
  189.5040  173.8340  143.3300 C   0  0  0  0  0  3  0  0  0  0  0  0
  187.2320  176.3920  142.0240 C   0  0  2  0  0  3  0  0  0  0  0  0
  187.3500  175.6350  140.7050 C   0  0  0  0  0  1  0  0  0  0  0  0
  188.5910  178.3390  141.6850 O   0  0  0  0  0  0  0  0  0  0  0  0
  187.4350  177.8750  141.8720 C   0  0  0  0  0  0  0  0  0  0  0  0
  185.0230  178.3280  142.1470 C   0  0  0  0  0  1  0  0  0  0  0  0
  186.3610  178.7640  141.9570 O   0  0  0  0  0  0  0  0  0  0  0  0
  2 22  1  6  0  0  0
  2  6  1  0  0  0  0
  3  8  1  0  0  0  0
  3 12  1  0  0  0  0
  4  5  1  0  0  0  0
  5 11  2  0  0  0  0
  5 10  1  0  0  0  0
  6 14  1  1  0  0  0
  6  1  1  0  0  0  0
  7  1  1  0  0  0  0
  7 11  1  0  0  0  0
  8  2  1  0  0  0  0
  8 21  1  1  0  0  0
  9 12  1  0  0  0  0
  9  4  2  0  0  0  0
 12  7  2  0  0  0  0
 13 17  1  0  0  0  0
 14 18  1  0  0  0  0
 14 15  2  0  0  0  0
 15 16  1  0  0  0  0
 16 17  2  0  0  0  0
 18 13  2  0  0  0  0
 19 21  1  0  0  0  0
 20 19  1  0  0  0  0
 20 21  1  0  0  0  0
 22 23  1  6  0  0  0
 24 25  2  0  0  0  0
 25 27  1  0  0  0  0
 25 22  1  0  0  0  0
 27 26  1  0  0  0  0
M  END
>  <MODEL>
6

>  <REMARK>
 VINA RESULT:      -6.8      1.533      2.172
  Name = 
  5 active torsions:
  status: ('A' for Active; 'I' for Inactive)
    1  A    between atoms: C_2  and  C_6
    2  A    between atoms: C_6  and  C_17
    3  A    between atoms: C_9  and  C_15
    4  A    between atoms: C_14  and  N_19
    5  A    between atoms: O_16  and  C_17
                            x       y       z     vdW  Elec       q    Type
                         _______ _______ _______ _____ _____    ______ ____

>  <TORSDO>
F 5

$$$$
=
 OpenBabel11052418323D

 27 30  0  0  1  0  0  0  0  0999 V2000
  189.5440  175.1450  142.7520 C   0  0  0  0  0  2  0  0  0  0  0  0
  189.8730  176.4820  144.8900 C   0  0  2  0  0  3  0  0  0  0  0  0
  190.8180  174.2790  145.4380 C   0  0  0  0  0  2  0  0  0  0  0  0
  191.1450  171.1910  143.2870 C   0  0  0  0  0  3  0  0  0  0  0  0
  190.5080  171.5620  142.1030 C   0  0  0  0  0  0  0  0  0  0  0  0
  188.8570  175.7660  143.9590 C   0  0  1  0  0  3  0  0  0  0  0  0
  190.0620  173.7660  143.0200 C   0  0  0  0  0  0  0  0  0  0  0  0
  191.0910  175.7050  145.1810 N   0  0  1  0  0  0  0  0  0  0  0  0
  191.2480  172.1050  144.3380 C   0  0  0  0  0  3  0  0  0  0  0  0
  190.3830  170.4210  140.7830 Cl  0  0  0  0  0  0  0  0  0  0  0  0
  189.9760  172.8450  141.9700 C   0  0  0  0  0  3  0  0  0  0  0  0
  190.7290  173.3980  144.2150 C   0  0  0  0  0  0  0  0  0  0  0  0
  187.0600  178.7370  142.3930 C   0  0  0  0  0  3  0  0  0  0  0  0
  187.7770  176.6880  143.4810 C   0  0  0  0  0  0  0  0  0  0  0  0
  186.4390  176.3200  143.6580 C   0  0  0  0  0  3  0  0  0  0  0  0
  185.4150  177.1600  143.2110 C   0  0  0  0  0  3  0  0  0  0  0  0
  185.7250  178.3680  142.5810 C   0  0  0  0  0  3  0  0  0  0  0  0
  188.0850  177.8990  142.8400 C   0  0  0  0  0  3  0  0  0  0  0  0
  192.2440  177.4140  143.8830 C   0  0  0  0  0  2  0  0  0  0  0  0
  193.2610  176.7380  144.7730 C   0  0  0  0  0  2  0  0  0  0  0  0
  192.1260  175.9290  144.1710 C   0  0  0  0  0  3  0  0  0  0  0  0
  189.2780  176.9950  146.2130 C   0  0  2  0  0  3  0  0  0  0  0  0
  190.3280  177.4240  147.2330 C   0  0  0  0  0  1  0  0  0  0  0  0
  188.5780  174.9760  147.3020 O   0  0  0  0  0  0  0  0  0  0  0  0
  188.2370  176.0750  146.7900 C   0  0  0  0  0  0  0  0  0  0  0  0
  186.3060  177.3740  147.6150 C   0  0  0  0  0  1  0  0  0  0  0  0
  186.8800  176.4050  146.7510 O   0  0  0  0  0  0  0  0  0  0  0  0
  1  7  1  0  0  0  0
  1  6  1  0  0  0  0
  2  8  1  0  0  0  0
  2 22  1  1  0  0  0
  4  9  1  0  0  0  0
  5  4  2  0  0  0  0
  6 14  1  6  0  0  0
  6  2  1  0  0  0  0
  7 12  1  0  0  0  0
  8 21  1  6  0  0  0
  8  3  1  0  0  0  0
 10  5  1  0  0  0  0
 11  5  1  0  0  0  0
 11  7  2  0  0  0  0
 12  9  2  0  0  0  0
 12  3  1  0  0  0  0
 13 17  2  0  0  0  0
 13 18  1  0  0  0  0
 14 15  1  0  0  0  0
 16 15  2  0  0  0  0
 17 16  1  0  0  0  0
 18 14  2  0  0  0  0
 19 21  1  0  0  0  0
 19 20  1  0  0  0  0
 21 20  1  0  0  0  0
 22 25  1  0  0  0  0
 22 23  1  1  0  0  0
 25 24  2  0  0  0  0
 27 25  1  0  0  0  0
 27 26  1  0  0  0  0
M  END
>  <MODEL>
7

>  <REMARK>
 VINA RESULT:      -6.6      3.377      5.302
  Name = 
  5 active torsions:
  status: ('A' for Active; 'I' for Inactive)
    1  A    between atoms: C_2  and  C_6
    2  A    between atoms: C_6  and  C_17
    3  A    between atoms: C_9  and  C_15
    4  A    between atoms: C_14  and  N_19
    5  A    between atoms: O_16  and  C_17
                            x       y       z     vdW  Elec       q    Type
                         _______ _______ _______ _____ _____    ______ ____

>  <TORSDO>
F 5

$$$$
=
 OpenBabel11052418323D

 27 30  0  0  1  0  0  0  0  0999 V2000
  191.5400  174.5700  145.6180 C   0  0  0  0  0  2  0  0  0  0  0  0
  193.5190  175.1010  144.1130 C   0  0  2  0  0  3  0  0  0  0  0  0
  191.9420  176.9300  143.6540 C   0  0  0  0  0  2  0  0  0  0  0  0
  188.5410  177.6150  145.1490 C   0  0  0  0  0  3  0  0  0  0  0  0
  188.3340  176.5150  145.9790 C   0  0  0  0  0  0  0  0  0  0  0  0
  192.3010  174.1710  144.3620 C   0  0  1  0  0  3  0  0  0  0  0  0
  190.5090  175.6270  145.3650 C   0  0  0  0  0  0  0  0  0  0  0  0
  193.2320  176.5390  144.2520 N   0  0  1  0  0  0  0  0  0  0  0  0
  189.7320  177.7300  144.4290 C   0  0  0  0  0  3  0  0  0  0  0  0
  186.8450  176.3720  146.8880 Cl  0  0  0  0  0  0  0  0  0  0  0  0
  189.3160  175.5300  146.0900 C   0  0  0  0  0  3  0  0  0  0  0  0
  190.7300  176.7560  144.5380 C   0  0  0  0  0  0  0  0  0  0  0  0
  192.4070  170.3930  143.8890 C   0  0  0  0  0  3  0  0  0  0  0  0
  192.6990  172.7310  144.4750 C   0  0  0  0  0  0  0  0  0  0  0  0
  193.7950  172.3880  145.2750 C   0  0  0  0  0  3  0  0  0  0  0  0
  194.1910  171.0530  145.3880 C   0  0  0  0  0  3  0  0  0  0  0  0
  193.4970  170.0550  144.6970 C   0  0  0  0  0  3  0  0  0  0  0  0
  192.0090  171.7280  143.7760 C   0  0  0  0  0  3  0  0  0  0  0  0
  194.5670  176.2650  146.2720 C   0  0  0  0  0  2  0  0  0  0  0  0
  194.7350  177.6870  145.7900 C   0  0  0  0  0  2  0  0  0  0  0  0
  193.3950  176.9890  145.6350 C   0  0  0  0  0  3  0  0  0  0  0  0
  194.2440  174.8620  142.7770 C   0  0  2  0  0  3  0  0  0  0  0  0
  193.4140  174.0870  141.7580 C   0  0  0  0  0  1  0  0  0  0  0  0
  195.9040  173.1450  142.5540 O   0  0  0  0  0  0  0  0  0  0  0  0
  195.6330  174.3110  142.9470 C   0  0  0  0  0  0  0  0  0  0  0  0
  196.9720  176.3770  143.1380 C   0  0  0  0  0  1  0  0  0  0  0  0
  196.6390  175.0630  143.5600 O   0  0  0  0  0  0  0  0  0  0  0  0
  2 22  1  6  0  0  0
  2  8  1  0  0  0  0
  2  6  1  0  0  0  0
  3  8  1  0  0  0  0
  3 12  1  0  0  0  0
  4  5  1  0  0  0  0
  5 11  2  0  0  0  0
  5 10  1  0  0  0  0
  6 14  1  1  0  0  0
  6  1  1  0  0  0  0
  7  1  1  0  0  0  0
  7 11  1  0  0  0  0
  8 21  1  1  0  0  0
  9 12  1  0  0  0  0
  9  4  2  0  0  0  0
 12  7  2  0  0  0  0
 13 17  1  0  0  0  0
 14 15  2  0  0  0  0
 15 16  1  0  0  0  0
 17 16  2  0  0  0  0
 18 13  2  0  0  0  0
 18 14  1  0  0  0  0
 20 19  1  0  0  0  0
 21 20  1  0  0  0  0
 21 19  1  0  0  0  0
 22 23  1  6  0  0  0
 22 25  1  0  0  0  0
 24 25  2  0  0  0  0
 25 27  1  0  0  0  0
 26 27  1  0  0  0  0
M  END
>  <MODEL>
8

>  <REMARK>
 VINA RESULT:      -6.6      4.788      8.228
  Name = 
  5 active torsions:
  status: ('A' for Active; 'I' for Inactive)
    1  A    between atoms: C_2  and  C_6
    2  A    between atoms: C_6  and  C_17
    3  A    between atoms: C_9  and  C_15
    4  A    between atoms: C_14  and  N_19
    5  A    between atoms: O_16  and  C_17
                            x       y       z     vdW  Elec       q    Type
                         _______ _______ _______ _____ _____    ______ ____

>  <TORSDO>
F 5

$$$$
=
 OpenBabel11052418323D

 27 30  0  0  1  0  0  0  0  0999 V2000
  189.0160  176.9080  144.3680 C   0  0  0  0  0  2  0  0  0  0  0  0
  188.3240  175.5490  142.3340 C   0  0  2  0  0  3  0  0  0  0  0  0
  186.2020  175.9470  143.5100 C   0  0  0  0  0  2  0  0  0  0  0  0
  185.5280  177.8740  146.6880 C   0  0  0  0  0  3  0  0  0  0  0  0
  186.8050  178.2450  147.1090 C   0  0  0  0  0  0  0  0  0  0  0  0
  189.0350  175.5350  143.7140 C   0  0  1  0  0  3  0  0  0  0  0  0
  187.7740  177.1590  145.1650 C   0  0  0  0  0  0  0  0  0  0  0  0
  187.0230  176.2410  142.3220 N   0  0  1  0  0  0  0  0  0  0  0  0
  185.3680  177.1500  145.5050 C   0  0  0  0  0  3  0  0  0  0  0  0
  187.0090  179.1580  148.5880 Cl  0  0  0  0  0  0  0  0  0  0  0  0
  187.9200  177.8950  146.3460 C   0  0  0  0  0  3  0  0  0  0  0  0
  186.4750  176.8010  144.7250 C   0  0  0  0  0  0  0  0  0  0  0  0
  192.6770  175.2000  142.6470 C   0  0  0  0  0  3  0  0  0  0  0  0
  190.4540  175.0640  143.6160 C   0  0  0  0  0  0  0  0  0  0  0  0
  190.8920  174.0380  144.4610 C   0  0  0  0  0  3  0  0  0  0  0  0
  192.2140  173.5890  144.3950 C   0  0  0  0  0  3  0  0  0  0  0  0
  193.1060  174.1680  143.4870 C   0  0  0  0  0  3  0  0  0  0  0  0
  191.3550  175.6490  142.7110 C   0  0  0  0  0  3  0  0  0  0  0  0
  187.2100  177.9160  140.5610 C   0  0  0  0  0  2  0  0  0  0  0  0
  185.9470  178.1970  141.3420 C   0  0  0  0  0  2  0  0  0  0  0  0
  187.1780  177.6720  142.0590 C   0  0  0  0  0  3  0  0  0  0  0  0
  188.1600  174.1640  141.6840 C   0  0  2  0  0  3  0  0  0  0  0  0
  188.2990  173.0050  142.6650 C   0  0  0  0  0  1  0  0  0  0  0  0
  190.0920  173.3780  140.5010 O   0  0  0  0  0  0  0  0  0  0  0  0
  188.9930  173.9900  140.4430 C   0  0  0  0  0  0  0  0  0  0  0  0
  188.1810  173.6970  138.1300 C   0  0  0  0  0  1  0  0  0  0  0  0
  188.5820  174.5180  139.2170 O   0  0  0  0  0  0  0  0  0  0  0  0
  1  7  1  0  0  0  0
  2 22  1  1  0  0  0
  2  6  1  0  0  0  0
  3 12  1  0  0  0  0
  4  5  1  0  0  0  0
  5 10  1  0  0  0  0
  6 14  1  6  0  0  0
  6  1  1  0  0  0  0
  7 11  1  0  0  0  0
  8 21  1  1  0  0  0
  8  2  1  0  0  0  0
  8  3  1  0  0  0  0
  9  4  2  0  0  0  0
 11  5  2  0  0  0  0
 12  7  2  0  0  0  0
 12  9  1  0  0  0  0
 13 18  2  0  0  0  0
 13 17  1  0  0  0  0
 14 15  2  0  0  0  0
 16 15  1  0  0  0  0
 17 16  2  0  0  0  0
 18 14  1  0  0  0  0
 19 20  1  0  0  0  0
 19 21  1  0  0  0  0
 20 21  1  0  0  0  0
 22 23  1  1  0  0  0
 25 24  2  0  0  0  0
 25 22  1  0  0  0  0
 26 27  1  0  0  0  0
 27 25  1  0  0  0  0
M  END
>  <MODEL>
9

>  <REMARK>
 VINA RESULT:      -6.5      2.715      5.893
  Name = 
  5 active torsions:
  status: ('A' for Active; 'I' for Inactive)
    1  A    between atoms: C_2  and  C_6
    2  A    between atoms: C_6  and  C_17
    3  A    between atoms: C_9  and  C_15
    4  A    between atoms: C_14  and  N_19
    5  A    between atoms: O_16  and  C_17
                            x       y       z     vdW  Elec       q    Type
                         _______ _______ _______ _____ _____    ______ ____

>  <TORSDO>
F 5

$$$$
