=
 OpenBabel11052417403D

 31 35  0  0  1  0  0  0  0  0999 V2000
  185.5430  177.8340  140.7910 C   0  0  0  0  0  0  0  0  0  0  0  0
  187.4620  177.0000  143.9350 C   0  0  0  0  0  0  0  0  0  0  0  0
  186.7350  177.5830  145.0360 C   0  0  0  0  0  0  0  0  0  0  0  0
  184.7540  179.0840  145.8200 C   0  0  0  0  0  2  0  0  0  0  0  0
  187.0490  177.0720  142.5630 C   0  0  0  0  0  0  0  0  0  0  0  0
  186.3110  177.1740  139.8340 C   0  0  0  0  0  3  0  0  0  0  0  0
  185.3260  178.1080  144.8030 C   0  0  0  0  0  2  0  0  0  0  0  0
  189.3980  175.6820  143.1830 C   0  0  0  0  0  0  0  0  0  0  0  0
  184.3320  178.5900  140.3810 C   0  0  0  0  0  1  0  0  0  0  0  0
  188.4920  176.8310  146.5610 C   0  0  0  0  0  3  0  0  0  0  0  0
  184.3990  178.3650  147.0160 N   0  0  0  0  0  0  0  0  0  0  0  0
  188.9520  175.7540  141.9060 N   0  0  0  0  0  0  0  0  0  0  0  0
  188.6750  176.3050  144.2130 C   0  0  0  0  0  0  0  0  0  0  0  0
  190.6050  174.9670  143.4730 N   0  0  0  0  0  2  0  0  0  0  0  0
  185.9130  177.7840  142.1360 C   0  0  0  0  0  3  0  0  0  0  0  0
  185.3010  177.9300  147.8200 C   0  0  0  0  0  3  0  0  0  0  0  0
  187.8250  176.4220  141.5690 C   0  0  0  0  0  0  0  0  0  0  0  0
  187.4500  176.4720  140.2230 C   0  0  0  0  0  3  0  0  0  0  0  0
  189.1670  176.2310  145.5150 C   0  0  0  0  0  3  0  0  0  0  0  0
  187.2900  177.4960  146.3520 C   0  0  0  0  0  0  0  0  0  0  0  0
  186.7520  178.1970  147.5670 C   0  0  0  0  0  2  0  0  0  0  0  0
  192.5070  175.2790  141.9860 C   0  0  0  0  0  1  0  0  0  0  0  0
  191.4140  174.3300  142.4440 C   0  0  1  0  0  3  0  0  0  0  0  0
  192.0150  173.1200  142.9850 N   0  0  0  0  0  2  0  0  0  0  0  0
  193.1860  173.4800  143.6210 O   0  0  0  0  0  0  0  0  0  0  0  0
  193.5910  171.9460  145.2960 O   0  0  0  0  0  0  0  0  0  0  0  0
  193.4220  173.1480  144.9580 C   0  0  0  0  0  0  0  0  0  0  0  0
  193.4690  174.1680  145.9530 N   0  0  0  0  0  2  0  0  0  0  0  0
  192.7050  176.2950  146.8110 C   0  0  0  0  0  2  0  0  0  0  0  0
  194.1790  176.4150  146.4950 C   0  0  0  0  0  2  0  0  0  0  0  0
  193.2830  175.5690  145.6140 C   0  0  0  0  0  3  0  0  0  0  0  0
  1 15  1  0  0  0  0
  2 13  2  0  0  0  0
  2  3  1  0  0  0  0
  3 20  2  0  0  0  0
  4 11  1  0  0  0  0
  5  2  1  0  0  0  0
  6 18  1  0  0  0  0
  6  1  2  0  0  0  0
  7  3  1  0  0  0  0
  7  4  1  0  0  0  0
  8 14  1  0  0  0  0
  8 13  1  0  0  0  0
  9  1  1  0  0  0  0
 11 16  2  0  0  0  0
 12  8  2  0  0  0  0
 13 19  1  0  0  0  0
 15  5  2  0  0  0  0
 17 12  1  0  0  0  0
 17  5  1  0  0  0  0
 18 17  2  0  0  0  0
 19 10  2  0  0  0  0
 20 10  1  0  0  0  0
 20 21  1  0  0  0  0
 21 16  1  0  0  0  0
 23 22  1  1  0  0  0
 23 24  1  0  0  0  0
 23 14  1  0  0  0  0
 24 25  1  0  0  0  0
 25 27  1  0  0  0  0
 27 26  2  0  0  0  0
 27 28  1  0  0  0  0
 30 29  1  0  0  0  0
 31 28  1  0  0  0  0
 31 30  1  0  0  0  0
 31 29  1  0  0  0  0
M  END
>  <MODEL>
1

>  <REMARK>
 VINA RESULT:      -7.8      0.000      0.000
  Name = 
  5 active torsions:
  status: ('A' for Active; 'I' for Inactive)
    1  A    between atoms: O_3  and  C_19
    2  A    between atoms: O_3  and  N_22
    3  A    between atoms: C_9  and  N_22
    4  A    between atoms: C_9  and  N_23
    5  A    between atoms: C_11  and  N_24
                            x       y       z     vdW  Elec       q    Type
                         _______ _______ _______ _____ _____    ______ ____

>  <TORSDO>
F 5

$$$$
=
 OpenBabel11052417403D

 31 35  0  0  1  0  0  0  0  0999 V2000
  185.2780  177.9330  140.7690 C   0  0  0  0  0  0  0  0  0  0  0  0
  187.3310  177.1820  143.8480 C   0  0  0  0  0  0  0  0  0  0  0  0
  186.5980  177.7020  144.9770 C   0  0  0  0  0  0  0  0  0  0  0  0
  184.5470  179.0600  145.8350 C   0  0  0  0  0  2  0  0  0  0  0  0
  186.8770  177.2460  142.4890 C   0  0  0  0  0  0  0  0  0  0  0  0
  186.0600  177.3360  139.7820 C   0  0  0  0  0  3  0  0  0  0  0  0
  185.1530  178.1370  144.7890 C   0  0  0  0  0  2  0  0  0  0  0  0
  189.3270  176.0030  143.0250 C   0  0  0  0  0  0  0  0  0  0  0  0
  184.0100  178.6140  140.4030 C   0  0  0  0  0  1  0  0  0  0  0  0
  188.4410  177.0450  146.4440 C   0  0  0  0  0  3  0  0  0  0  0  0
  184.2720  178.3030  147.0290 N   0  0  0  0  0  0  0  0  0  0  0  0
  188.8420  176.0630  141.7610 N   0  0  0  0  0  0  0  0  0  0  0  0
  188.5930  176.5630  144.0830 C   0  0  0  0  0  0  0  0  0  0  0  0
  190.5850  175.3630  143.2730 N   0  0  0  0  0  2  0  0  0  0  0  0
  185.6870  177.8880  142.1020 C   0  0  0  0  0  3  0  0  0  0  0  0
  185.2220  177.9170  147.8030 C   0  0  0  0  0  3  0  0  0  0  0  0
  187.6660  176.6610  141.4650 C   0  0  0  0  0  0  0  0  0  0  0  0
  187.2520  176.7040  140.1300 C   0  0  0  0  0  3  0  0  0  0  0  0
  189.1250  176.5040  145.3710 C   0  0  0  0  0  3  0  0  0  0  0  0
  187.1940  177.6330  146.2760 C   0  0  0  0  0  0  0  0  0  0  0  0
  186.6450  178.2810  147.5150 C   0  0  0  0  0  2  0  0  0  0  0  0
  192.7450  175.5070  142.1580 C   0  0  0  0  0  1  0  0  0  0  0  0
  191.4050  174.7950  142.2130 C   0  0  1  0  0  3  0  0  0  0  0  0
  191.6160  173.3790  142.4750 N   0  0  0  0  0  2  0  0  0  0  0  0
  190.9700  172.6670  141.4840 O   0  0  0  0  0  0  0  0  0  0  0  0
  189.0000  172.0280  142.5000 O   0  0  0  0  0  0  0  0  0  0  0  0
  189.5820  172.5050  141.4900 C   0  0  0  0  0  0  0  0  0  0  0  0
  188.8110  172.8750  140.3490 N   0  0  0  0  0  2  0  0  0  0  0  0
  189.0860  172.5670  137.9660 C   0  0  0  0  0  2  0  0  0  0  0  0
  188.3530  173.8700  138.1930 C   0  0  0  0  0  2  0  0  0  0  0  0
  189.4340  173.4320  139.1600 C   0  0  0  0  0  3  0  0  0  0  0  0
  1 15  1  0  0  0  0
  2 13  2  0  0  0  0
  2  3  1  0  0  0  0
  3 20  2  0  0  0  0
  4 11  1  0  0  0  0
  5  2  1  0  0  0  0
  6 18  1  0  0  0  0
  6  1  2  0  0  0  0
  7  3  1  0  0  0  0
  7  4  1  0  0  0  0
  8 14  1  0  0  0  0
  8 13  1  0  0  0  0
  9  1  1  0  0  0  0
 11 16  2  0  0  0  0
 12  8  2  0  0  0  0
 13 19  1  0  0  0  0
 15  5  2  0  0  0  0
 17 12  1  0  0  0  0
 17  5  1  0  0  0  0
 18 17  2  0  0  0  0
 19 10  2  0  0  0  0
 20 10  1  0  0  0  0
 20 21  1  0  0  0  0
 21 16  1  0  0  0  0
 23 22  1  1  0  0  0
 23 24  1  0  0  0  0
 23 14  1  0  0  0  0
 25 27  1  0  0  0  0
 25 24  1  0  0  0  0
 27 26  2  0  0  0  0
 28 27  1  0  0  0  0
 29 30  1  0  0  0  0
 29 31  1  0  0  0  0
 30 31  1  0  0  0  0
 31 28  1  0  0  0  0
M  END
>  <MODEL>
2

>  <REMARK>
 VINA RESULT:      -7.7      1.913      3.588
  Name = 
  5 active torsions:
  status: ('A' for Active; 'I' for Inactive)
    1  A    between atoms: O_3  and  C_19
    2  A    between atoms: O_3  and  N_22
    3  A    between atoms: C_9  and  N_22
    4  A    between atoms: C_9  and  N_23
    5  A    between atoms: C_11  and  N_24
                            x       y       z     vdW  Elec       q    Type
                         _______ _______ _______ _____ _____    ______ ____

>  <TORSDO>
F 5

$$$$
=
 OpenBabel11052417403D

 31 35  0  0  1  0  0  0  0  0999 V2000
  190.1440  173.7830  141.0550 C   0  0  0  0  0  0  0  0  0  0  0  0
  190.9680  175.4270  144.3530 C   0  0  0  0  0  0  0  0  0  0  0  0
  192.4010  175.3710  144.5030 C   0  0  0  0  0  0  0  0  0  0  0  0
  194.6800  174.5120  143.5780 C   0  0  0  0  0  2  0  0  0  0  0  0
  190.2520  174.9260  143.2160 C   0  0  0  0  0  0  0  0  0  0  0  0
  188.7620  173.9570  141.0140 C   0  0  0  0  0  3  0  0  0  0  0  0
  193.2590  174.9810  143.3090 C   0  0  0  0  0  2  0  0  0  0  0  0
  188.8030  176.1340  145.2840 C   0  0  0  0  0  0  0  0  0  0  0  0
  190.8400  173.0910  139.9400 C   0  0  0  0  0  1  0  0  0  0  0  0
  192.1850  176.3850  146.7170 C   0  0  0  0  0  3  0  0  0  0  0  0
  195.4950  175.6470  143.9240 N   0  0  0  0  0  0  0  0  0  0  0  0
  188.1750  175.6710  144.1760 N   0  0  0  0  0  0  0  0  0  0  0  0
  190.1970  176.0150  145.3990 C   0  0  0  0  0  0  0  0  0  0  0  0
  188.0380  176.7460  146.3300 N   0  0  0  0  0  2  0  0  0  0  0  0
  190.8740  174.2600  142.1440 C   0  0  0  0  0  3  0  0  0  0  0  0
  195.3820  176.2210  145.0670 C   0  0  0  0  0  3  0  0  0  0  0  0
  188.8420  175.0770  143.1610 C   0  0  0  0  0  0  0  0  0  0  0  0
  188.1140  174.6000  142.0660 C   0  0  0  0  0  3  0  0  0  0  0  0
  190.8150  176.4830  146.5570 C   0  0  0  0  0  3  0  0  0  0  0  0
  192.9860  175.8480  145.7180 C   0  0  0  0  0  0  0  0  0  0  0  0
  194.4320  175.6990  146.1000 C   0  0  0  0  0  2  0  0  0  0  0  0
  186.0480  177.1590  147.6710 C   0  0  0  0  0  1  0  0  0  0  0  0
  186.5880  176.8670  146.2820 C   0  0  1  0  0  3  0  0  0  0  0  0
  186.2250  177.9500  145.3800 N   0  0  0  0  0  2  0  0  0  0  0  0
  185.1340  177.5350  144.6430 O   0  0  0  0  0  0  0  0  0  0  0  0
  183.6410  179.2240  144.1520 O   0  0  0  0  0  0  0  0  0  0  0  0
  184.4930  178.3910  143.7430 C   0  0  0  0  0  0  0  0  0  0  0  0
  184.7970  178.3270  142.3520 N   0  0  0  0  0  2  0  0  0  0  0  0
  186.1910  177.8240  140.4410 C   0  0  0  0  0  2  0  0  0  0  0  0
  187.0910  178.1070  141.6220 C   0  0  0  0  0  2  0  0  0  0  0  0
  185.7750  177.3870  141.8310 C   0  0  0  0  0  3  0  0  0  0  0  0
  1 15  1  0  0  0  0
  2  3  2  0  0  0  0
  2 13  1  0  0  0  0
  3 20  1  0  0  0  0
  4 11  1  0  0  0  0
  5  2  1  0  0  0  0
  6  1  2  0  0  0  0
  6 18  1  0  0  0  0
  7  4  1  0  0  0  0
  7  3  1  0  0  0  0
  8 13  1  0  0  0  0
  8 14  1  0  0  0  0
  9  1  1  0  0  0  0
 11 16  2  0  0  0  0
 12  8  2  0  0  0  0
 13 19  2  0  0  0  0
 15  5  2  0  0  0  0
 16 21  1  0  0  0  0
 17  5  1  0  0  0  0
 17 12  1  0  0  0  0
 18 17  2  0  0  0  0
 19 10  1  0  0  0  0
 20 21  1  0  0  0  0
 20 10  2  0  0  0  0
 23 14  1  0  0  0  0
 23 22  1  1  0  0  0
 24 23  1  0  0  0  0
 25 24  1  0  0  0  0
 27 26  2  0  0  0  0
 27 25  1  0  0  0  0
 28 27  1  0  0  0  0
 29 30  1  0  0  0  0
 29 31  1  0  0  0  0
 30 31  1  0  0  0  0
 31 28  1  0  0  0  0
M  END
>  <MODEL>
3

>  <REMARK>
 VINA RESULT:      -7.5      3.225      7.450
  Name = 
  5 active torsions:
  status: ('A' for Active; 'I' for Inactive)
    1  A    between atoms: O_3  and  C_19
    2  A    between atoms: O_3  and  N_22
    3  A    between atoms: C_9  and  N_22
    4  A    between atoms: C_9  and  N_23
    5  A    between atoms: C_11  and  N_24
                            x       y       z     vdW  Elec       q    Type
                         _______ _______ _______ _____ _____    ______ ____

>  <TORSDO>
F 5

$$$$
=
 OpenBabel11052417403D

 31 35  0  0  1  0  0  0  0  0999 V2000
  190.6390  176.1810  146.8380 C   0  0  0  0  0  0  0  0  0  0  0  0
  189.8240  174.6970  143.4620 C   0  0  0  0  0  0  0  0  0  0  0  0
  190.6470  173.5220  143.3120 C   0  0  0  0  0  0  0  0  0  0  0  0
  192.5570  172.0330  144.2720 C   0  0  0  0  0  2  0  0  0  0  0  0
  189.8180  175.5380  144.6240 C   0  0  0  0  0  0  0  0  0  0  0  0
  189.7490  177.2530  146.8740 C   0  0  0  0  0  3  0  0  0  0  0  0
  191.3880  172.9730  144.5220 C   0  0  0  0  0  2  0  0  0  0  0  0
  188.1030  176.1710  142.5040 C   0  0  0  0  0  0  0  0  0  0  0  0
  191.5520  175.9330  147.9840 C   0  0  0  0  0  1  0  0  0  0  0  0
  189.7630  173.2230  141.0520 C   0  0  0  0  0  3  0  0  0  0  0  0
  192.0510  170.7470  143.8700 N   0  0  0  0  0  0  0  0  0  0  0  0
  188.1140  176.9190  143.6340 N   0  0  0  0  0  0  0  0  0  0  0  0
  188.9560  175.0610  142.3920 C   0  0  0  0  0  0  0  0  0  0  0  0
  187.2180  176.5180  141.4320 N   0  0  0  0  0  2  0  0  0  0  0  0
  190.6710  175.3400  145.7250 C   0  0  0  0  0  3  0  0  0  0  0  0
  191.5510  170.5670  142.7000 C   0  0  0  0  0  3  0  0  0  0  0  0
  188.9320  176.6460  144.6750 C   0  0  0  0  0  0  0  0  0  0  0  0
  188.9000  177.4850  145.7930 C   0  0  0  0  0  3  0  0  0  0  0  0
  188.9390  174.3210  141.2110 C   0  0  0  0  0  3  0  0  0  0  0  0
  190.6060  172.8060  142.0740 C   0  0  0  0  0  0  0  0  0  0  0  0
  191.5220  171.6770  141.6970 C   0  0  0  0  0  2  0  0  0  0  0  0
  185.7340  177.9200  140.1050 C   0  0  0  0  0  1  0  0  0  0  0  0
  186.3360  177.6750  141.4780 C   0  0  1  0  0  3  0  0  0  0  0  0
  185.2730  177.4320  142.4410 N   0  0  0  0  0  2  0  0  0  0  0  0
  185.2580  178.4910  143.3270 O   0  0  0  0  0  0  0  0  0  0  0  0
  183.0200  179.0390  143.4450 O   0  0  0  0  0  0  0  0  0  0  0  0
  184.1070  178.8250  144.0450 C   0  0  0  0  0  0  0  0  0  0  0  0
  184.1540  178.9310  145.4670 N   0  0  0  0  0  2  0  0  0  0  0  0
  185.0360  178.2960  147.6270 C   0  0  0  0  0  2  0  0  0  0  0  0
  185.4320  177.2360  146.6240 C   0  0  0  0  0  2  0  0  0  0  0  0
  185.3820  178.6910  146.2050 C   0  0  0  0  0  3  0  0  0  0  0  0
  1  6  1  0  0  0  0
  1  9  1  0  0  0  0
  2  5  1  0  0  0  0
  3  2  1  0  0  0  0
  3  7  1  0  0  0  0
  4  7  1  0  0  0  0
  5 17  2  0  0  0  0
  5 15  1  0  0  0  0
  8 12  2  0  0  0  0
 10 19  2  0  0  0  0
 10 20  1  0  0  0  0
 11  4  1  0  0  0  0
 12 17  1  0  0  0  0
 13  8  1  0  0  0  0
 13  2  2  0  0  0  0
 14 23  1  0  0  0  0
 14  8  1  0  0  0  0
 15  1  2  0  0  0  0
 16 11  2  0  0  0  0
 17 18  1  0  0  0  0
 18  6  2  0  0  0  0
 19 13  1  0  0  0  0
 20  3  2  0  0  0  0
 21 20  1  0  0  0  0
 21 16  1  0  0  0  0
 23 22  1  6  0  0  0
 23 24  1  0  0  0  0
 24 25  1  0  0  0  0
 25 27  1  0  0  0  0
 26 27  2  0  0  0  0
 27 28  1  0  0  0  0
 28 31  1  0  0  0  0
 30 29  1  0  0  0  0
 31 30  1  0  0  0  0
 31 29  1  0  0  0  0
M  END
>  <MODEL>
4

>  <REMARK>
 VINA RESULT:      -7.3      3.250      7.862
  Name = 
  5 active torsions:
  status: ('A' for Active; 'I' for Inactive)
    1  A    between atoms: O_3  and  C_19
    2  A    between atoms: O_3  and  N_22
    3  A    between atoms: C_9  and  N_22
    4  A    between atoms: C_9  and  N_23
    5  A    between atoms: C_11  and  N_24
                            x       y       z     vdW  Elec       q    Type
                         _______ _______ _______ _____ _____    ______ ____

>  <TORSDO>
F 5

$$$$
=
 OpenBabel11052417403D

 31 35  0  0  1  0  0  0  0  0999 V2000
  185.0910  178.3900  146.6320 C   0  0  0  0  0  0  0  0  0  0  0  0
  187.7450  177.2290  144.2100 C   0  0  0  0  0  0  0  0  0  0  0  0
  187.1380  177.2110  142.9010 C   0  0  0  0  0  0  0  0  0  0  0  0
  184.9780  177.4850  141.4710 C   0  0  0  0  0  2  0  0  0  0  0  0
  187.0720  177.6360  145.4090 C   0  0  0  0  0  0  0  0  0  0  0  0
  185.8160  178.4160  147.8210 C   0  0  0  0  0  3  0  0  0  0  0  0
  185.7860  177.8760  142.6990 C   0  0  0  0  0  2  0  0  0  0  0  0
  189.7540  176.8560  145.5790 C   0  0  0  0  0  0  0  0  0  0  0  0
  183.6560  178.7760  146.6270 C   0  0  0  0  0  1  0  0  0  0  0  0
  189.2120  176.3000  141.9800 C   0  0  0  0  0  3  0  0  0  0  0  0
  185.5670  178.0930  140.3060 N   0  0  0  0  0  0  0  0  0  0  0  0
  189.0830  177.2750  146.6790 N   0  0  0  0  0  0  0  0  0  0  0  0
  189.1030  176.8150  144.3350 C   0  0  0  0  0  0  0  0  0  0  0  0
  191.1260  176.4580  145.6940 N   0  0  0  0  0  2  0  0  0  0  0  0
  185.7140  178.0020  145.4450 C   0  0  0  0  0  3  0  0  0  0  0  0
  186.6720  177.6570  139.8170 C   0  0  0  0  0  3  0  0  0  0  0  0
  187.7860  177.6540  146.6350 C   0  0  0  0  0  0  0  0  0  0  0  0
  187.1600  178.0470  147.8210 C   0  0  0  0  0  3  0  0  0  0  0  0
  189.8120  176.3610  143.2240 C   0  0  0  0  0  3  0  0  0  0  0  0
  187.9010  176.7190  141.7950 C   0  0  0  0  0  0  0  0  0  0  0  0
  187.3630  176.4710  140.4150 C   0  0  0  0  0  2  0  0  0  0  0  0
  191.5360  175.1660  147.7160 C   0  0  0  0  0  1  0  0  0  0  0  0
  191.8430  176.4470  146.9600 C   0  0  1  0  0  3  0  0  0  0  0  0
  193.2730  176.5320  146.7040 N   0  0  0  0  0  2  0  0  0  0  0  0
  193.5060  176.0130  145.4460 O   0  0  0  0  0  0  0  0  0  0  0  0
  194.2190  173.8370  145.7270 O   0  0  0  0  0  0  0  0  0  0  0  0
  194.4260  174.9810  145.2410 C   0  0  0  0  0  0  0  0  0  0  0  0
  195.6100  175.2150  144.4820 N   0  0  0  0  0  2  0  0  0  0  0  0
  197.2110  176.4480  143.1540 C   0  0  0  0  0  2  0  0  0  0  0  0
  195.9080  176.3870  142.3880 C   0  0  0  0  0  2  0  0  0  0  0  0
  195.8920  176.5160  143.8980 C   0  0  0  0  0  3  0  0  0  0  0  0
  1  6  1  0  0  0  0
  2 13  1  0  0  0  0
  2  5  1  0  0  0  0
  3  2  2  0  0  0  0
  4  7  1  0  0  0  0
  5 15  1  0  0  0  0
  5 17  2  0  0  0  0
  6 18  2  0  0  0  0
  7  3  1  0  0  0  0
  8 14  1  0  0  0  0
  8 12  2  0  0  0  0
  9  1  1  0  0  0  0
 10 19  1  0  0  0  0
 11  4  1  0  0  0  0
 13  8  1  0  0  0  0
 14 23  1  0  0  0  0
 15  1  2  0  0  0  0
 16 11  2  0  0  0  0
 16 21  1  0  0  0  0
 17 12  1  0  0  0  0
 17 18  1  0  0  0  0
 19 13  2  0  0  0  0
 20 10  2  0  0  0  0
 20  3  1  0  0  0  0
 21 20  1  0  0  0  0
 23 22  1  6  0  0  0
 24 23  1  0  0  0  0
 25 24  1  0  0  0  0
 27 25  1  0  0  0  0
 27 26  2  0  0  0  0
 28 27  1  0  0  0  0
 29 31  1  0  0  0  0
 30 29  1  0  0  0  0
 30 31  1  0  0  0  0
 31 28  1  0  0  0  0
M  END
>  <MODEL>
5

>  <REMARK>
 VINA RESULT:      -7.3      2.071      4.788
  Name = 
  5 active torsions:
  status: ('A' for Active; 'I' for Inactive)
    1  A    between atoms: O_3  and  C_19
    2  A    between atoms: O_3  and  N_22
    3  A    between atoms: C_9  and  N_22
    4  A    between atoms: C_9  and  N_23
    5  A    between atoms: C_11  and  N_24
                            x       y       z     vdW  Elec       q    Type
                         _______ _______ _______ _____ _____    ______ ____

>  <TORSDO>
F 5

$$$$
=
 OpenBabel11052417403D

 31 35  0  0  1  0  0  0  0  0999 V2000
  185.8400  178.3330  146.9980 C   0  0  0  0  0  0  0  0  0  0  0  0
  188.0930  177.2450  144.1690 C   0  0  0  0  0  0  0  0  0  0  0  0
  187.2950  177.2600  142.9680 C   0  0  0  0  0  0  0  0  0  0  0  0
  184.9420  177.5640  141.8920 C   0  0  0  0  0  2  0  0  0  0  0  0
  187.6110  177.6190  145.4680 C   0  0  0  0  0  0  0  0  0  0  0  0
  186.7380  178.3300  148.0630 C   0  0  0  0  0  3  0  0  0  0  0  0
  185.9270  177.9250  142.9920 C   0  0  0  0  0  2  0  0  0  0  0  0
  190.2880  176.8440  145.2070 C   0  0  0  0  0  0  0  0  0  0  0  0
  184.4210  178.7140  147.2220 C   0  0  0  0  0  1  0  0  0  0  0  0
  189.2040  176.3820  141.7180 C   0  0  0  0  0  3  0  0  0  0  0  0
  185.3460  178.2050  140.6670 N   0  0  0  0  0  0  0  0  0  0  0  0
  189.7920  177.2320  146.4070 N   0  0  0  0  0  0  0  0  0  0  0  0
  189.4550  176.8340  144.0760 C   0  0  0  0  0  0  0  0  0  0  0  0
  191.6610  176.4490  145.1000 N   0  0  0  0  0  2  0  0  0  0  0  0
  186.2750  177.9780  145.7200 C   0  0  0  0  0  3  0  0  0  0  0  0
  186.3640  177.7860  140.0050 C   0  0  0  0  0  3  0  0  0  0  0  0
  188.5040  177.6070  146.5700 C   0  0  0  0  0  0  0  0  0  0  0  0
  188.0660  177.9660  147.8490 C   0  0  0  0  0  3  0  0  0  0  0  0
  189.9850  176.4120  142.8580 C   0  0  0  0  0  3  0  0  0  0  0  0
  187.8800  176.8000  141.7470 C   0  0  0  0  0  0  0  0  0  0  0  0
  187.1370  176.5870  140.4580 C   0  0  0  0  0  2  0  0  0  0  0  0
  192.6410  174.9910  146.7860 C   0  0  0  0  0  1  0  0  0  0  0  0
  192.5630  176.4070  146.2420 C   0  0  1  0  0  3  0  0  0  0  0  0
  193.8870  176.8430  145.8260 N   0  0  0  0  0  2  0  0  0  0  0  0
  194.2540  176.0850  144.7320 O   0  0  0  0  0  0  0  0  0  0  0  0
  196.0620  176.9230  143.5690 O   0  0  0  0  0  0  0  0  0  0  0  0
  195.5830  176.0180  144.3030 C   0  0  0  0  0  0  0  0  0  0  0  0
  196.4080  174.9210  144.6910 N   0  0  0  0  0  2  0  0  0  0  0  0
  196.6220  172.5660  145.1930 C   0  0  0  0  0  2  0  0  0  0  0  0
  197.0260  173.3500  146.4210 C   0  0  0  0  0  2  0  0  0  0  0  0
  195.9030  173.8540  145.5380 C   0  0  0  0  0  3  0  0  0  0  0  0
  1  9  1  0  0  0  0
  1  6  1  0  0  0  0
  2  5  1  0  0  0  0
  3  7  1  0  0  0  0
  3  2  2  0  0  0  0
  4  7  1  0  0  0  0
  5 15  1  0  0  0  0
  5 17  2  0  0  0  0
  8 12  2  0  0  0  0
 10 20  2  0  0  0  0
 10 19  1  0  0  0  0
 11  4  1  0  0  0  0
 12 17  1  0  0  0  0
 13  2  1  0  0  0  0
 13  8  1  0  0  0  0
 14  8  1  0  0  0  0
 14 23  1  0  0  0  0
 15  1  2  0  0  0  0
 16 21  1  0  0  0  0
 16 11  2  0  0  0  0
 17 18  1  0  0  0  0
 18  6  2  0  0  0  0
 19 13  2  0  0  0  0
 20  3  1  0  0  0  0
 21 20  1  0  0  0  0
 23 22  1  6  0  0  0
 24 23  1  0  0  0  0
 25 24  1  0  0  0  0
 26 27  2  0  0  0  0
 27 28  1  0  0  0  0
 27 25  1  0  0  0  0
 28 31  1  0  0  0  0
 29 31  1  0  0  0  0
 29 30  1  0  0  0  0
 31 30  1  0  0  0  0
M  END
>  <MODEL>
6

>  <REMARK>
 VINA RESULT:      -7.3      2.200      4.863
  Name = 
  5 active torsions:
  status: ('A' for Active; 'I' for Inactive)
    1  A    between atoms: O_3  and  C_19
    2  A    between atoms: O_3  and  N_22
    3  A    between atoms: C_9  and  N_22
    4  A    between atoms: C_9  and  N_23
    5  A    between atoms: C_11  and  N_24
                            x       y       z     vdW  Elec       q    Type
                         _______ _______ _______ _____ _____    ______ ____

>  <TORSDO>
F 5

$$$$
=
 OpenBabel11052417403D

 31 35  0  0  1  0  0  0  0  0999 V2000
  191.0780  175.3250  146.6730 C   0  0  0  0  0  0  0  0  0  0  0  0
  188.0820  176.0790  144.5020 C   0  0  0  0  0  0  0  0  0  0  0  0
  187.1690  176.8570  145.3040 C   0  0  0  0  0  0  0  0  0  0  0  0
  186.5930  177.8580  147.6390 C   0  0  0  0  0  2  0  0  0  0  0  0
  189.3590  175.6090  144.9550 C   0  0  0  0  0  0  0  0  0  0  0  0
  191.8870  174.6350  145.7720 C   0  0  0  0  0  3  0  0  0  0  0  0
  187.6470  177.4320  146.6280 C   0  0  0  0  0  2  0  0  0  0  0  0
  188.5740  175.0310  142.3310 C   0  0  0  0  0  0  0  0  0  0  0  0
  191.5440  175.5550  148.0650 C   0  0  0  0  0  1  0  0  0  0  0  0
  185.5670  176.8340  143.4570 C   0  0  0  0  0  3  0  0  0  0  0  0
  185.9930  179.0920  147.2020 N   0  0  0  0  0  0  0  0  0  0  0  0
  189.7820  174.6330  142.7970 N   0  0  0  0  0  0  0  0  0  0  0  0
  187.7040  175.7480  143.1680 C   0  0  0  0  0  0  0  0  0  0  0  0
  188.1950  174.7210  140.9840 N   0  0  0  0  0  2  0  0  0  0  0  0
  189.8320  175.8010  146.2660 C   0  0  0  0  0  3  0  0  0  0  0  0
  185.1720  179.1170  146.2140 C   0  0  0  0  0  3  0  0  0  0  0  0
  190.1920  174.8890  144.0600 C   0  0  0  0  0  0  0  0  0  0  0  0
  191.4420  174.4160  144.4690 C   0  0  0  0  0  3  0  0  0  0  0  0
  186.4590  176.1300  142.6690 C   0  0  0  0  0  3  0  0  0  0  0  0
  185.8970  177.2080  144.7530 C   0  0  0  0  0  0  0  0  0  0  0  0
  184.7740  177.8550  145.5130 C   0  0  0  0  0  2  0  0  0  0  0  0
  188.9510  172.4760  140.4230 C   0  0  0  0  0  1  0  0  0  0  0  0
  189.0400  173.9530  140.0820 C   0  0  1  0  0  3  0  0  0  0  0  0
  188.5980  174.1650  138.7120 N   0  0  0  0  0  2  0  0  0  0  0  0
  189.6950  174.0090  137.8880 O   0  0  0  0  0  0  0  0  0  0  0  0
  189.1480  174.1150  135.6500 O   0  0  0  0  0  0  0  0  0  0  0  0
  189.5790  173.4360  136.6190 C   0  0  0  0  0  0  0  0  0  0  0  0
  189.9450  172.0740  136.4100 N   0  0  0  0  0  2  0  0  0  0  0  0
  189.6930  169.9370  137.5130 C   0  0  0  0  0  2  0  0  0  0  0  0
  191.0800  169.9990  136.9140 C   0  0  0  0  0  2  0  0  0  0  0  0
  190.4510  171.2490  137.4950 C   0  0  0  0  0  3  0  0  0  0  0  0
  1  9  1  0  0  0  0
  2  5  1  0  0  0  0
  2  3  1  0  0  0  0
  3  7  1  0  0  0  0
  5 15  2  0  0  0  0
  6  1  2  0  0  0  0
  7  4  1  0  0  0  0
  8 12  2  0  0  0  0
  8 13  1  0  0  0  0
 10 20  1  0  0  0  0
 11  4  1  0  0  0  0
 12 17  1  0  0  0  0
 13  2  2  0  0  0  0
 14  8  1  0  0  0  0
 15  1  1  0  0  0  0
 16 11  2  0  0  0  0
 17 18  2  0  0  0  0
 17  5  1  0  0  0  0
 18  6  1  0  0  0  0
 19 13  1  0  0  0  0
 19 10  2  0  0  0  0
 20  3  2  0  0  0  0
 20 21  1  0  0  0  0
 21 16  1  0  0  0  0
 23 22  1  1  0  0  0
 23 14  1  0  0  0  0
 24 23  1  0  0  0  0
 25 24  1  0  0  0  0
 26 27  2  0  0  0  0
 27 25  1  0  0  0  0
 28 27  1  0  0  0  0
 28 31  1  0  0  0  0
 30 31  1  0  0  0  0
 30 29  1  0  0  0  0
 31 29  1  0  0  0  0
M  END
>  <MODEL>
7

>  <REMARK>
 VINA RESULT:      -7.1      3.592      6.351
  Name = 
  5 active torsions:
  status: ('A' for Active; 'I' for Inactive)
    1  A    between atoms: O_3  and  C_19
    2  A    between atoms: O_3  and  N_22
    3  A    between atoms: C_9  and  N_22
    4  A    between atoms: C_9  and  N_23
    5  A    between atoms: C_11  and  N_24
                            x       y       z     vdW  Elec       q    Type
                         _______ _______ _______ _____ _____    ______ ____

>  <TORSDO>
F 5

$$$$
=
 OpenBabel11052417403D

 31 35  0  0  1  0  0  0  0  0999 V2000
  189.9360  173.1620  141.5330 C   0  0  0  0  0  0  0  0  0  0  0  0
  189.7660  175.6120  144.4000 C   0  0  0  0  0  0  0  0  0  0  0  0
  191.0300  175.5380  145.0910 C   0  0  0  0  0  0  0  0  0  0  0  0
  193.3410  174.3600  145.3320 C   0  0  0  0  0  2  0  0  0  0  0  0
  189.4340  174.8490  143.2320 C   0  0  0  0  0  0  0  0  0  0  0  0
  188.6980  173.3770  140.9310 C   0  0  0  0  0  3  0  0  0  0  0  0
  192.1900  174.7980  144.4410 C   0  0  0  0  0  2  0  0  0  0  0  0
  187.5360  176.6410  144.2430 C   0  0  0  0  0  0  0  0  0  0  0  0
  190.8750  172.1610  140.9640 C   0  0  0  0  0  1  0  0  0  0  0  0
  190.1920  177.1300  146.7460 C   0  0  0  0  0  3  0  0  0  0  0  0
  194.1350  175.5100  145.6780 N   0  0  0  0  0  0  0  0  0  0  0  0
  187.2810  175.9180  143.1260 N   0  0  0  0  0  0  0  0  0  0  0  0
  188.7680  176.4980  144.9030 C   0  0  0  0  0  0  0  0  0  0  0  0
  186.5470  177.5490  144.7420 N   0  0  0  0  0  2  0  0  0  0  0  0
  190.2930  173.8880  142.6690 C   0  0  0  0  0  3  0  0  0  0  0  0
  193.7070  176.3810  146.5210 C   0  0  0  0  0  3  0  0  0  0  0  0
  188.1720  175.0400  142.6130 C   0  0  0  0  0  0  0  0  0  0  0  0
  187.8180  174.3130  141.4720 C   0  0  0  0  0  3  0  0  0  0  0  0
  188.9970  177.2400  146.0600 C   0  0  0  0  0  3  0  0  0  0  0  0
  191.2100  176.3050  146.2850 C   0  0  0  0  0  0  0  0  0  0  0  0
  192.3900  176.2040  147.2090 C   0  0  0  0  0  2  0  0  0  0  0  0
  184.3130  178.4640  145.0620 C   0  0  0  0  0  1  0  0  0  0  0  0
  185.2410  177.7150  144.1210 C   0  0  1  0  0  3  0  0  0  0  0  0
  185.3890  178.4650  142.8830 N   0  0  0  0  0  2  0  0  0  0  0  0
  184.1310  178.6230  142.3350 O   0  0  0  0  0  0  0  0  0  0  0  0
  184.8040  177.9710  140.2270 O   0  0  0  0  0  0  0  0  0  0  0  0
  183.8630  178.2730  141.0090 C   0  0  0  0  0  0  0  0  0  0  0  0
  182.5210  178.2580  140.5270 N   0  0  0  0  0  2  0  0  0  0  0  0
  180.5410  179.6340  140.7000 C   0  0  0  0  0  2  0  0  0  0  0  0
  180.1120  178.1850  140.7100 C   0  0  0  0  0  2  0  0  0  0  0  0
  181.4020  178.5960  141.3900 C   0  0  0  0  0  3  0  0  0  0  0  0
  1 15  1  0  0  0  0
  2 13  2  0  0  0  0
  2  3  1  0  0  0  0
  3 20  2  0  0  0  0
  4 11  1  0  0  0  0
  5  2  1  0  0  0  0
  6 18  1  0  0  0  0
  6  1  2  0  0  0  0
  7  3  1  0  0  0  0
  7  4  1  0  0  0  0
  8 14  1  0  0  0  0
  8 13  1  0  0  0  0
  9  1  1  0  0  0  0
 11 16  2  0  0  0  0
 12  8  2  0  0  0  0
 13 19  1  0  0  0  0
 15  5  2  0  0  0  0
 16 21  1  0  0  0  0
 17 12  1  0  0  0  0
 17  5  1  0  0  0  0
 18 17  2  0  0  0  0
 19 10  2  0  0  0  0
 20 10  1  0  0  0  0
 20 21  1  0  0  0  0
 23 14  1  0  0  0  0
 23 22  1  1  0  0  0
 24 23  1  0  0  0  0
 25 24  1  0  0  0  0
 26 27  2  0  0  0  0
 27 25  1  0  0  0  0
 28 27  1  0  0  0  0
 28 31  1  0  0  0  0
 29 30  1  0  0  0  0
 29 31  1  0  0  0  0
 30 31  1  0  0  0  0
M  END
>  <MODEL>
8

>  <REMARK>
 VINA RESULT:      -7.1      3.535      8.068
  Name = 
  5 active torsions:
  status: ('A' for Active; 'I' for Inactive)
    1  A    between atoms: O_3  and  C_19
    2  A    between atoms: O_3  and  N_22
    3  A    between atoms: C_9  and  N_22
    4  A    between atoms: C_9  and  N_23
    5  A    between atoms: C_11  and  N_24
                            x       y       z     vdW  Elec       q    Type
                         _______ _______ _______ _____ _____    ______ ____

>  <TORSDO>
F 5

$$$$
=
 OpenBabel11052417403D

 31 35  0  0  1  0  0  0  0  0999 V2000
  191.2990  176.5990  147.5560 C   0  0  0  0  0  0  0  0  0  0  0  0
  188.4800  176.3430  145.0570 C   0  0  0  0  0  0  0  0  0  0  0  0
  187.3630  177.0700  145.6090 C   0  0  0  0  0  0  0  0  0  0  0  0
  186.3670  178.3710  147.6350 C   0  0  0  0  0  2  0  0  0  0  0  0
  189.7590  176.2180  145.6930 C   0  0  0  0  0  0  0  0  0  0  0  0
  192.3090  175.9170  146.8810 C   0  0  0  0  0  3  0  0  0  0  0  0
  187.5840  177.9670  146.8170 C   0  0  0  0  0  2  0  0  0  0  0  0
  189.3830  175.0130  143.1950 C   0  0  0  0  0  0  0  0  0  0  0  0
  191.5600  177.1750  148.9010 C   0  0  0  0  0  1  0  0  0  0  0  0
  186.0050  176.3920  143.6920 C   0  0  0  0  0  3  0  0  0  0  0  0
  185.6170  179.3610  146.9070 N   0  0  0  0  0  0  0  0  0  0  0  0
  190.5820  174.9470  143.8220 N   0  0  0  0  0  0  0  0  0  0  0  0
  188.3150  175.6980  143.7970 C   0  0  0  0  0  0  0  0  0  0  0  0
  189.2150  174.3850  141.9170 N   0  0  0  0  0  2  0  0  0  0  0  0
  190.0420  176.7430  146.9670 C   0  0  0  0  0  3  0  0  0  0  0  0
  184.9200  179.0410  145.8770 C   0  0  0  0  0  3  0  0  0  0  0  0
  190.7980  175.5130  145.0320 C   0  0  0  0  0  0  0  0  0  0  0  0
  192.0570  175.3740  145.6230 C   0  0  0  0  0  3  0  0  0  0  0  0
  187.0870  175.7330  143.1380 C   0  0  0  0  0  3  0  0  0  0  0  0
  186.1190  177.0620  144.9030 C   0  0  0  0  0  0  0  0  0  0  0  0
  184.8240  177.6170  145.4260 C   0  0  0  0  0  2  0  0  0  0  0  0
  190.0760  172.1470  141.4960 C   0  0  0  0  0  1  0  0  0  0  0  0
  190.2750  173.6340  141.2600 C   0  0  1  0  0  3  0  0  0  0  0  0
  190.2450  173.9100  139.8320 N   0  0  0  0  0  2  0  0  0  0  0  0
  189.1050  173.3280  139.3150 O   0  0  0  0  0  0  0  0  0  0  0  0
  187.8180  174.6930  137.9730 O   0  0  0  0  0  0  0  0  0  0  0  0
  188.5930  173.7050  138.0710 C   0  0  0  0  0  0  0  0  0  0  0  0
  188.9420  172.9710  136.8990 N   0  0  0  0  0  2  0  0  0  0  0  0
  189.8840  171.1650  135.5960 C   0  0  0  0  0  2  0  0  0  0  0  0
  191.0130  172.0690  136.0370 C   0  0  0  0  0  2  0  0  0  0  0  0
  189.8350  171.8260  136.9590 C   0  0  0  0  0  3  0  0  0  0  0  0
  1  9  1  0  0  0  0
  2  3  1  0  0  0  0
  2  5  1  0  0  0  0
  3  7  1  0  0  0  0
  5 15  2  0  0  0  0
  6  1  2  0  0  0  0
  7  4  1  0  0  0  0
  8 13  1  0  0  0  0
  8 12  2  0  0  0  0
 10 20  1  0  0  0  0
 11  4  1  0  0  0  0
 12 17  1  0  0  0  0
 13  2  2  0  0  0  0
 14  8  1  0  0  0  0
 15  1  1  0  0  0  0
 16 11  2  0  0  0  0
 17 18  2  0  0  0  0
 17  5  1  0  0  0  0
 18  6  1  0  0  0  0
 19 10  2  0  0  0  0
 19 13  1  0  0  0  0
 20 21  1  0  0  0  0
 20  3  2  0  0  0  0
 21 16  1  0  0  0  0
 23 22  1  6  0  0  0
 23 14  1  0  0  0  0
 24 23  1  0  0  0  0
 25 24  1  0  0  0  0
 26 27  2  0  0  0  0
 27 25  1  0  0  0  0
 28 31  1  0  0  0  0
 28 27  1  0  0  0  0
 29 30  1  0  0  0  0
 29 31  1  0  0  0  0
 30 31  1  0  0  0  0
M  END
>  <MODEL>
9

>  <REMARK>
 VINA RESULT:      -7.0      3.287      6.326
  Name = 
  5 active torsions:
  status: ('A' for Active; 'I' for Inactive)
    1  A    between atoms: O_3  and  C_19
    2  A    between atoms: O_3  and  N_22
    3  A    between atoms: C_9  and  N_22
    4  A    between atoms: C_9  and  N_23
    5  A    between atoms: C_11  and  N_24
                            x       y       z     vdW  Elec       q    Type
                         _______ _______ _______ _____ _____    ______ ____

>  <TORSDO>
F 5

$$$$
