=
 OpenBabel11052421353D

 32 37  0  0  1  0  0  0  0  0999 V2000
  191.0790  169.5220  138.1120 C   0  0  2  0  0  3  0  0  0  0  0  0
  192.1220  171.0340  141.3910 C   0  0  0  0  0  3  0  0  0  0  0  0
  188.8250  174.8940  142.8880 C   0  0  0  0  0  0  0  0  0  0  0  0
  190.9470  176.2470  147.1590 C   0  0  0  0  0  3  0  0  0  0  0  0
  189.9770  177.1520  147.2820 C   0  0  0  0  0  3  0  0  0  0  0  0
  189.7240  173.1150  141.4870 C   0  0  0  0  0  0  0  0  0  0  0  0
  190.8210  173.7180  143.5680 C   0  0  0  0  0  3  0  0  0  0  0  0
  191.8710  169.7240  139.3090 N   0  0  0  0  0  2  0  0  0  0  0  0
  191.8620  171.9380  142.3290 C   0  0  0  0  0  3  0  0  0  0  0  0
  191.0230  175.3160  145.9810 C   0  0  0  0  0  3  0  0  0  0  0  0
  189.8620  174.7060  143.8170 C   0  0  0  0  0  0  0  0  0  0  0  0
  189.9080  175.5110  144.9700 C   0  0  1  0  0  3  0  0  0  0  0  0
  187.8890  176.6410  144.2040 C   0  0  0  0  0  0  0  0  0  0  0  0
  189.6930  170.7050  138.1650 S   0  0  0  0  0  0  0  0  0  0  0  0
  190.2900  171.3480  139.7230 C   0  0  0  0  0  0  0  0  0  0  0  0
  190.5580  168.1670  138.0960 N   0  0  0  0  0  1  0  0  0  0  0  0
  190.7730  172.9180  142.4200 C   0  0  0  0  0  0  0  0  0  0  0  0
  189.5380  172.4400  140.3510 C   0  0  0  0  0  3  0  0  0  0  0  0
  191.3880  170.7500  140.1600 C   0  0  0  0  0  0  0  0  0  0  0  0
  188.9320  177.2750  146.2580 C   0  0  0  0  0  3  0  0  0  0  0  0
  188.9090  176.4930  145.1680 C   0  0  0  0  0  0  0  0  0  0  0  0
  188.7670  174.1040  141.7420 C   0  0  0  0  0  3  0  0  0  0  0  0
  187.8800  175.8440  143.1020 N   0  0  0  0  0  0  0  0  0  0  0  0
  184.7270  177.9050  145.6810 C   0  0  0  0  0  0  0  0  0  0  0  0
  184.1620  178.7170  144.5560 C   0  0  0  0  0  2  0  0  0  0  0  0
  186.0190  177.8610  143.0490 C   0  0  1  0  0  3  0  0  0  0  0  0
  183.9200  178.6910  142.1770 F   0  0  0  0  0  0  0  0  0  0  0  0
  184.4960  178.0190  143.2410 C   0  0  2  0  0  3  0  0  0  0  0  0
  185.9540  177.3830  145.5730 C   0  0  0  0  0  3  0  0  0  0  0  0
  183.9590  177.6130  146.7620 F   0  0  0  0  0  0  0  0  0  0  0  0
  186.5420  178.9580  142.3600 O   0  0  0  0  0  1  0  0  0  0  0  0
  186.8070  177.6710  144.3620 C   0  0  1  0  0  3  0  0  0  0  0  0
  1 16  1  1  0  0  0
  1 14  1  0  0  0  0
  1  8  1  0  0  0  0
  2  9  1  0  0  0  0
  3 23  2  0  0  0  0
  3 11  1  0  0  0  0
  4  5  1  0  0  0  0
  6 22  2  0  0  0  0
  6 17  1  0  0  0  0
  7 11  2  0  0  0  0
  8 19  1  0  0  0  0
  9 17  2  0  0  0  0
 10  4  2  0  0  0  0
 11 12  1  0  0  0  0
 12 21  1  0  0  0  0
 12 10  1  1  0  0  0
 13 21  2  0  0  0  0
 14 15  1  0  0  0  0
 15 19  1  0  0  0  0
 15 18  2  0  0  0  0
 17  7  1  0  0  0  0
 18  6  1  0  0  0  0
 19  2  2  0  0  0  0
 20  5  2  0  0  0  0
 21 20  1  0  0  0  0
 22  3  1  0  0  0  0
 23 13  1  0  0  0  0
 24 30  1  0  0  0  0
 25 24  1  0  0  0  0
 26 31  1  1  0  0  0
 26 28  1  0  0  0  0
 26 32  1  0  0  0  0
 28 27  1  6  0  0  0
 28 25  1  0  0  0  0
 29 24  2  0  0  0  0
 32 13  1  6  0  0  0
 32 29  1  0  0  0  0
M  END
>  <MODEL>
1

>  <REMARK>
 VINA RESULT:      -8.9      0.000      0.000
  Name = 
  1 active torsions:
  status: ('A' for Active; 'I' for Inactive)
    1  A    between atoms: C_16  and  C_32
                            x       y       z     vdW  Elec       q    Type
                         _______ _______ _______ _____ _____    ______ ____

>  <TORSDO>
F 1

$$$$
=
 OpenBabel11052421353D

 32 37  0  0  1  0  0  0  0  0999 V2000
  184.8940  178.7140  146.0240 C   0  0  2  0  0  3  0  0  0  0  0  0
  185.9460  176.7050  143.0260 C   0  0  0  0  0  3  0  0  0  0  0  0
  190.6810  174.4550  143.7570 C   0  0  0  0  0  0  0  0  0  0  0  0
  191.2120  172.1120  139.4210 C   0  0  0  0  0  3  0  0  0  0  0  0
  192.3890  171.6800  139.8690 C   0  0  0  0  0  3  0  0  0  0  0  0
  188.7110  175.7880  144.2910 C   0  0  0  0  0  0  0  0  0  0  0  0
  188.8960  174.6680  142.1430 C   0  0  0  0  0  3  0  0  0  0  0  0
  184.8100  178.1250  144.7020 N   0  0  0  0  0  2  0  0  0  0  0  0
  186.8780  175.9340  142.4790 C   0  0  0  0  0  3  0  0  0  0  0  0
  190.3170  172.9920  140.2490 C   0  0  0  0  0  2  0  0  0  0  0  0
  190.1470  174.1490  142.4930 C   0  0  0  0  0  0  0  0  0  0  0  0
  190.8820  173.3300  141.6160 C   0  0  0  0  0  0  0  0  0  0  0  0
  192.6320  173.1710  143.3070 C   0  0  0  0  0  0  0  0  0  0  0  0
  186.4750  178.1830  146.7620 S   0  0  0  0  0  0  0  0  0  0  0  0
  186.8690  177.2660  145.2780 C   0  0  0  0  0  0  0  0  0  0  0  0
  183.7940  178.2350  146.8410 N   0  0  0  0  0  1  0  0  0  0  0  0
  188.1670  175.4830  143.0180 C   0  0  0  0  0  0  0  0  0  0  0  0
  188.1460  176.5450  145.2330 C   0  0  0  0  0  3  0  0  0  0  0  0
  185.9330  177.3380  144.3440 C   0  0  0  0  0  0  0  0  0  0  0  0
  192.8640  172.0530  141.2090 C   0  0  0  0  0  3  0  0  0  0  0  0
  192.1430  172.8340  142.0270 C   0  0  0  0  0  0  0  0  0  0  0  0
  189.9640  175.2650  144.6350 C   0  0  0  0  0  3  0  0  0  0  0  0
  191.8910  173.9660  144.1250 N   0  0  0  0  0  0  0  0  0  0  0  0
  194.7920  171.2620  145.6440 C   0  0  0  0  0  0  0  0  0  0  0  0
  196.0490  172.0780  145.6400 C   0  0  0  0  0  2  0  0  0  0  0  0
  194.8620  173.8430  144.2530 C   0  0  1  0  0  3  0  0  0  0  0  0
  196.7970  174.3480  145.6130 F   0  0  0  0  0  0  0  0  0  0  0  0
  195.6690  173.5510  145.5350 C   0  0  2  0  0  3  0  0  0  0  0  0
  193.7990  171.5680  144.8010 C   0  0  0  0  0  3  0  0  0  0  0  0
  194.6200  170.2830  146.5690 F   0  0  0  0  0  0  0  0  0  0  0  0
  195.7150  174.2020  143.2080 O   0  0  0  0  0  1  0  0  0  0  0  0
  193.9640  172.6750  143.7900 C   0  0  1  0  0  3  0  0  0  0  0  0
  1 14  1  0  0  0  0
  1 16  1  1  0  0  0
  2 19  1  0  0  0  0
  3 23  1  0  0  0  0
  3 22  2  0  0  0  0
  4  5  2  0  0  0  0
  4 10  1  0  0  0  0
  5 20  1  0  0  0  0
  6 22  1  0  0  0  0
  6 18  2  0  0  0  0
  7 11  1  0  0  0  0
  7 17  2  0  0  0  0
  8  1  1  0  0  0  0
  9 17  1  0  0  0  0
  9  2  2  0  0  0  0
 10 12  1  0  0  0  0
 11  3  1  0  0  0  0
 12 21  1  0  0  0  0
 12 11  2  0  0  0  0
 13 23  2  0  0  0  0
 15 14  1  0  0  0  0
 17  6  1  0  0  0  0
 18 15  1  0  0  0  0
 19  8  1  0  0  0  0
 19 15  2  0  0  0  0
 20 21  2  0  0  0  0
 21 13  1  0  0  0  0
 24 30  1  0  0  0  0
 25 24  1  0  0  0  0
 26 31  1  6  0  0  0
 26 28  1  0  0  0  0
 28 27  1  6  0  0  0
 28 25  1  0  0  0  0
 29 24  2  0  0  0  0
 32 13  1  1  0  0  0
 32 26  1  0  0  0  0
 32 29  1  0  0  0  0
M  END
>  <MODEL>
2

>  <REMARK>
 VINA RESULT:      -8.4      4.994      9.152
  Name = 
  1 active torsions:
  status: ('A' for Active; 'I' for Inactive)
    1  A    between atoms: C_16  and  C_32
                            x       y       z     vdW  Elec       q    Type
                         _______ _______ _______ _____ _____    ______ ____

>  <TORSDO>
F 1

$$$$
=
 OpenBabel11052421353D

 32 37  0  0  1  0  0  0  0  0999 V2000
  181.4770  178.7420  141.3430 C   0  0  2  0  0  3  0  0  0  0  0  0
  183.7280  178.8120  144.3540 C   0  0  0  0  0  3  0  0  0  0  0  0
  188.4540  176.6760  143.2970 C   0  0  0  0  0  0  0  0  0  0  0  0
  190.6480  177.1850  147.7130 C   0  0  0  0  0  3  0  0  0  0  0  0
  191.7210  176.6070  147.1760 C   0  0  0  0  0  3  0  0  0  0  0  0
  186.1720  177.4220  142.8760 C   0  0  0  0  0  0  0  0  0  0  0  0
  187.1780  177.7090  145.0680 C   0  0  0  0  0  3  0  0  0  0  0  0
  181.8940  179.0080  142.7060 N   0  0  0  0  0  2  0  0  0  0  0  0
  184.9200  178.5090  144.8550 C   0  0  0  0  0  3  0  0  0  0  0  0
  189.3930  177.4260  146.9210 C   0  0  0  0  0  3  0  0  0  0  0  0
  188.3670  177.1170  144.6280 C   0  0  0  0  0  0  0  0  0  0  0  0
  189.4750  176.9540  145.4810 C   0  0  2  0  0  3  0  0  0  0  0  0
  190.6850  175.9240  143.6320 C   0  0  0  0  0  0  0  0  0  0  0  0
  182.8800  177.9540  140.4850 S   0  0  0  0  0  0  0  0  0  0  0  0
  183.8540  178.0380  141.9820 C   0  0  0  0  0  0  0  0  0  0  0  0
  181.1460  179.9920  140.6840 N   0  0  0  0  0  1  0  0  0  0  0  0
  186.0770  177.8700  144.2180 C   0  0  0  0  0  0  0  0  0  0  0  0
  185.2190  177.5020  141.9460 C   0  0  0  0  0  3  0  0  0  0  0  0
  183.2160  178.5930  143.0020 C   0  0  0  0  0  0  0  0  0  0  0  0
  191.7200  176.1800  145.7710 C   0  0  0  0  0  3  0  0  0  0  0  0
  190.6510  176.3490  144.9770 C   0  0  0  0  0  0  0  0  0  0  0  0
  187.3650  176.8320  142.4420 C   0  0  0  0  0  3  0  0  0  0  0  0
  189.5940  176.0990  142.8400 N   0  0  0  0  0  0  0  0  0  0  0  0
  193.7990  175.9600  141.6120 C   0  0  0  0  0  0  0  0  0  0  0  0
  193.8340  174.5620  141.0740 C   0  0  0  0  0  2  0  0  0  0  0  0
  191.5240  174.1610  142.0480 C   0  0  1  0  0  3  0  0  0  0  0  0
  192.3960  172.8630  140.2030 F   0  0  0  0  0  0  0  0  0  0  0  0
  192.4040  174.1190  140.7820 C   0  0  2  0  0  3  0  0  0  0  0  0
  192.8690  176.3020  142.5110 C   0  0  0  0  0  3  0  0  0  0  0  0
  194.6390  176.9030  141.1130 F   0  0  0  0  0  0  0  0  0  0  0  0
  191.5520  172.9290  142.7050 O   0  0  0  0  0  1  0  0  0  0  0  0
  191.9070  175.2730  143.0500 C   0  0  1  0  0  3  0  0  0  0  0  0
  1 16  1  6  0  0  0
  1  8  1  0  0  0  0
  2  9  1  0  0  0  0
  3 11  1  0  0  0  0
  5  4  1  0  0  0  0
  6 17  1  0  0  0  0
  8 19  1  0  0  0  0
 10  4  2  0  0  0  0
 11  7  2  0  0  0  0
 11 12  1  0  0  0  0
 12 10  1  1  0  0  0
 13 21  2  0  0  0  0
 14  1  1  0  0  0  0
 14 15  1  0  0  0  0
 15 19  1  0  0  0  0
 17  9  2  0  0  0  0
 17  7  1  0  0  0  0
 18 15  2  0  0  0  0
 18  6  1  0  0  0  0
 19  2  2  0  0  0  0
 20  5  2  0  0  0  0
 21 12  1  0  0  0  0
 21 20  1  0  0  0  0
 22  6  2  0  0  0  0
 22  3  1  0  0  0  0
 23  3  2  0  0  0  0
 23 13  1  0  0  0  0
 24 29  2  0  0  0  0
 25 24  1  0  0  0  0
 26 31  1  1  0  0  0
 26 32  1  0  0  0  0
 28 27  1  1  0  0  0
 28 25  1  0  0  0  0
 28 26  1  0  0  0  0
 29 32  1  0  0  0  0
 30 24  1  0  0  0  0
 32 13  1  6  0  0  0
M  END
>  <MODEL>
3

>  <REMARK>
 VINA RESULT:      -8.4      4.596      8.246
  Name = 
  1 active torsions:
  status: ('A' for Active; 'I' for Inactive)
    1  A    between atoms: C_16  and  C_32
                            x       y       z     vdW  Elec       q    Type
                         _______ _______ _______ _____ _____    ______ ____

>  <TORSDO>
F 1

$$$$
=
 OpenBabel11052421353D

 32 37  0  0  1  0  0  0  0  0999 V2000
  191.2270  169.6440  136.3780 C   0  0  2  0  0  3  0  0  0  0  0  0
  188.9460  172.5810  136.9270 C   0  0  0  0  0  3  0  0  0  0  0  0
  189.4830  174.5720  141.8020 C   0  0  0  0  0  0  0  0  0  0  0  0
  186.1820  178.2660  141.6040 C   0  0  0  0  0  3  0  0  0  0  0  0
  186.5180  178.5500  142.8600 C   0  0  0  0  0  3  0  0  0  0  0  0
  189.8970  173.0850  139.9160 C   0  0  0  0  0  0  0  0  0  0  0  0
  188.2630  174.8750  139.7400 C   0  0  0  0  0  3  0  0  0  0  0  0
  190.2250  170.6450  136.0710 N   0  0  0  0  0  2  0  0  0  0  0  0
  188.5270  173.5170  137.7710 C   0  0  0  0  0  3  0  0  0  0  0  0
  186.8170  177.1330  140.8460 C   0  0  0  0  0  3  0  0  0  0  0  0
  188.5240  175.2770  141.0540 C   0  0  0  0  0  0  0  0  0  0  0  0
  187.8540  176.3650  141.6430 C   0  0  2  0  0  3  0  0  0  0  0  0
  189.1330  175.9840  143.6840 C   0  0  0  0  0  0  0  0  0  0  0  0
  191.7860  169.9330  138.0890 S   0  0  0  0  0  0  0  0  0  0  0  0
  190.6550  171.3110  138.2340 C   0  0  0  0  0  0  0  0  0  0  0  0
  192.3500  169.7860  135.4700 N   0  0  0  0  0  1  0  0  0  0  0  0
  188.9310  173.7910  139.1550 C   0  0  0  0  0  0  0  0  0  0  0  0
  190.6150  172.0380  139.5080 C   0  0  0  0  0  3  0  0  0  0  0  0
  189.9480  171.5370  137.1370 C   0  0  0  0  0  0  0  0  0  0  0  0
  187.5350  177.7560  143.5630 C   0  0  0  0  0  3  0  0  0  0  0  0
  188.1610  176.7250  142.9770 C   0  0  0  0  0  0  0  0  0  0  0  0
  190.1530  173.4930  141.2310 C   0  0  0  0  0  3  0  0  0  0  0  0
  189.7570  174.9390  143.0790 N   0  0  0  0  0  0  0  0  0  0  0  0
  191.5540  176.3790  146.4690 C   0  0  0  0  0  0  0  0  0  0  0  0
  190.7160  176.0250  147.6600 C   0  0  0  0  0  2  0  0  0  0  0  0
  188.8390  175.3360  146.0950 C   0  0  1  0  0  3  0  0  0  0  0  0
  189.0180  174.4920  148.3550 F   0  0  0  0  0  0  0  0  0  0  0  0
  189.7550  174.9100  147.2610 C   0  0  2  0  0  3  0  0  0  0  0  0
  190.9850  176.4800  145.2630 C   0  0  0  0  0  3  0  0  0  0  0  0
  192.9010  176.4940  146.5950 F   0  0  0  0  0  0  0  0  0  0  0  0
  187.6570  175.8990  146.5820 O   0  0  0  0  0  1  0  0  0  0  0  0
  189.4930  176.3210  145.1030 C   0  0  1  0  0  3  0  0  0  0  0  0
  1 16  1  6  0  0  0
  1 14  1  0  0  0  0
  2 19  2  0  0  0  0
  2  9  1  0  0  0  0
  3 23  2  0  0  0  0
  4  5  1  0  0  0  0
  5 20  2  0  0  0  0
  6 22  2  0  0  0  0
  7 11  2  0  0  0  0
  8  1  1  0  0  0  0
  8 19  1  0  0  0  0
  9 17  2  0  0  0  0
 10  4  2  0  0  0  0
 11 12  1  0  0  0  0
 11  3  1  0  0  0  0
 12 10  1  1  0  0  0
 12 21  1  0  0  0  0
 14 15  1  0  0  0  0
 15 18  2  0  0  0  0
 17  7  1  0  0  0  0
 17  6  1  0  0  0  0
 18  6  1  0  0  0  0
 19 15  1  0  0  0  0
 21 20  1  0  0  0  0
 21 13  2  0  0  0  0
 22  3  1  0  0  0  0
 23 13  1  0  0  0  0
 24 30  1  0  0  0  0
 24 25  1  0  0  0  0
 26 31  1  1  0  0  0
 26 28  1  0  0  0  0
 28 25  1  0  0  0  0
 28 27  1  1  0  0  0
 29 24  2  0  0  0  0
 32 13  1  6  0  0  0
 32 29  1  0  0  0  0
 32 26  1  0  0  0  0
M  END
>  <MODEL>
4

>  <REMARK>
 VINA RESULT:      -8.4      2.837      4.878
  Name = 
  1 active torsions:
  status: ('A' for Active; 'I' for Inactive)
    1  A    between atoms: C_16  and  C_32
                            x       y       z     vdW  Elec       q    Type
                         _______ _______ _______ _____ _____    ______ ____

>  <TORSDO>
F 1

$$$$
=
 OpenBabel11052421353D

 32 37  0  0  1  0  0  0  0  0999 V2000
  192.7900  168.1960  141.1810 C   0  0  2  0  0  3  0  0  0  0  0  0
  190.7730  170.7480  139.2970 C   0  0  0  0  0  3  0  0  0  0  0  0
  188.7980  174.4400  142.5350 C   0  0  0  0  0  0  0  0  0  0  0  0
  186.3620  177.2570  139.2620 C   0  0  0  0  0  3  0  0  0  0  0  0
  186.0040  178.0280  140.2870 C   0  0  0  0  0  3  0  0  0  0  0  0
  190.0380  172.4480  141.8780 C   0  0  0  0  0  0  0  0  0  0  0  0
  188.8720  173.7780  140.2130 C   0  0  0  0  0  3  0  0  0  0  0  0
  192.1730  168.8510  140.0450 N   0  0  0  0  0  2  0  0  0  0  0  0
  190.0380  171.8510  139.3650 C   0  0  0  0  0  3  0  0  0  0  0  0
  187.2200  176.0360  139.4450 C   0  0  0  0  0  2  0  0  0  0  0  0
  188.4280  174.6670  141.1980 C   0  0  0  0  0  0  0  0  0  0  0  0
  187.6260  175.7800  140.8850 C   0  0  0  0  0  0  0  0  0  0  0  0
  187.6080  176.3710  143.2510 C   0  0  0  0  0  0  0  0  0  0  0  0
  192.3830  169.1720  142.6660 S   0  0  0  0  0  0  0  0  0  0  0  0
  191.4440  170.3190  141.6640 C   0  0  0  0  0  0  0  0  0  0  0  0
  194.2300  168.1660  141.0010 N   0  0  0  0  0  1  0  0  0  0  0  0
  189.6710  172.6710  140.5270 C   0  0  0  0  0  0  0  0  0  0  0  0
  190.7890  171.4460  142.3380 C   0  0  0  0  0  3  0  0  0  0  0  0
  191.4380  170.0180  140.3740 C   0  0  0  0  0  0  0  0  0  0  0  0
  186.4410  177.7110  141.6530 C   0  0  0  0  0  3  0  0  0  0  0  0
  187.2080  176.6450  141.9250 C   0  0  0  0  0  0  0  0  0  0  0  0
  189.5920  173.3420  142.8580 C   0  0  0  0  0  3  0  0  0  0  0  0
  188.3830  175.2840  143.5120 N   0  0  0  0  0  0  0  0  0  0  0  0
  188.0240  177.7770  146.6600 C   0  0  0  0  0  0  0  0  0  0  0  0
  186.6030  177.9970  147.0800 C   0  0  0  0  0  2  0  0  0  0  0  0
  185.8300  176.8090  144.9730 C   0  0  1  0  0  3  0  0  0  0  0  0
  184.4420  176.9840  146.9460 F   0  0  0  0  0  0  0  0  0  0  0  0
  185.7500  176.8670  146.5120 C   0  0  2  0  0  3  0  0  0  0  0  0
  188.2950  177.3910  145.4080 C   0  0  0  0  0  3  0  0  0  0  0  0
  189.0250  177.8680  147.5730 F   0  0  0  0  0  0  0  0  0  0  0  0
  184.8170  177.5820  144.4010 O   0  0  0  0  0  1  0  0  0  0  0  0
  187.1890  177.2540  144.3910 C   0  0  1  0  0  3  0  0  0  0  0  0
  1 16  1  6  0  0  0
  1 14  1  0  0  0  0
  2  9  2  0  0  0  0
  2 19  1  0  0  0  0
  3 22  2  0  0  0  0
  3 23  1  0  0  0  0
  4 10  1  0  0  0  0
  4  5  2  0  0  0  0
  5 20  1  0  0  0  0
  6 18  2  0  0  0  0
  6 22  1  0  0  0  0
  7 17  2  0  0  0  0
  7 11  1  0  0  0  0
  8 19  1  0  0  0  0
  8  1  1  0  0  0  0
  9 17  1  0  0  0  0
 10 12  1  0  0  0  0
 11  3  1  0  0  0  0
 12 11  2  0  0  0  0
 12 21  1  0  0  0  0
 13 23  2  0  0  0  0
 15 18  1  0  0  0  0
 15 14  1  0  0  0  0
 17  6  1  0  0  0  0
 19 15  2  0  0  0  0
 20 21  2  0  0  0  0
 21 13  1  0  0  0  0
 24 25  1  0  0  0  0
 24 30  1  0  0  0  0
 26 31  1  6  0  0  0
 26 28  1  0  0  0  0
 28 27  1  6  0  0  0
 28 25  1  0  0  0  0
 29 24  2  0  0  0  0
 32 13  1  6  0  0  0
 32 26  1  0  0  0  0
 32 29  1  0  0  0  0
M  END
>  <MODEL>
5

>  <REMARK>
 VINA RESULT:      -7.9      2.175      4.008
  Name = 
  1 active torsions:
  status: ('A' for Active; 'I' for Inactive)
    1  A    between atoms: C_16  and  C_32
                            x       y       z     vdW  Elec       q    Type
                         _______ _______ _______ _____ _____    ______ ____

>  <TORSDO>
F 1

$$$$
=
 OpenBabel11052421353D

 32 37  0  0  1  0  0  0  0  0999 V2000
  184.8060  177.9250  145.2870 C   0  0  2  0  0  3  0  0  0  0  0  0
  188.1930  177.2700  146.7800 C   0  0  0  0  0  3  0  0  0  0  0  0
  191.5880  175.4280  143.1600 C   0  0  0  0  0  0  0  0  0  0  0  0
  195.6360  174.8660  145.9670 C   0  0  0  0  0  3  0  0  0  0  0  0
  196.2570  174.4290  144.8740 C   0  0  0  0  0  3  0  0  0  0  0  0
  189.4800  176.2610  144.0560 C   0  0  0  0  0  0  0  0  0  0  0  0
  191.4210  176.0160  145.4970 C   0  0  0  0  0  3  0  0  0  0  0  0
  185.8390  177.8580  146.3020 N   0  0  0  0  0  2  0  0  0  0  0  0
  189.4360  176.8520  146.5690 C   0  0  0  0  0  3  0  0  0  0  0  0
  194.1940  175.2940  145.9480 C   0  0  0  0  0  3  0  0  0  0  0  0
  192.1870  175.5410  144.4270 C   0  0  0  0  0  0  0  0  0  0  0  0
  193.5360  175.1760  144.5850 C   0  0  0  0  0  0  0  0  0  0  0  0
  193.6110  174.6100  142.2150 C   0  0  0  0  0  0  0  0  0  0  0  0
  185.5400  177.3570  143.7180 S   0  0  0  0  0  0  0  0  0  0  0  0
  187.1030  177.0790  144.5400 C   0  0  0  0  0  0  0  0  0  0  0  0
  184.3540  179.2970  145.1430 N   0  0  0  0  0  1  0  0  0  0  0  0
  190.0770  176.3780  145.3370 C   0  0  0  0  0  0  0  0  0  0  0  0
  188.2200  176.5630  143.7400 C   0  0  0  0  0  3  0  0  0  0  0  0
  187.0870  177.3790  145.8300 C   0  0  0  0  0  0  0  0  0  0  0  0
  195.5480  174.3470  143.5900 C   0  0  0  0  0  2  0  0  0  0  0  0
  194.2600  174.7030  143.4640 C   0  0  0  0  0  0  0  0  0  0  0  0
  190.2530  175.7860  142.9890 C   0  0  0  0  0  3  0  0  0  0  0  0
  192.3050  174.9720  142.1030 N   0  0  0  0  0  0  0  0  0  0  0  0
  194.4570  174.7260  138.6030 C   0  0  0  0  0  0  0  0  0  0  0  0
  194.6890  173.2790  138.2930 C   0  0  0  0  0  2  0  0  0  0  0  0
  193.8810  172.6820  140.6250 C   0  0  1  0  0  3  0  0  0  0  0  0
  193.8290  171.1040  138.7920 F   0  0  0  0  0  0  0  0  0  0  0  0
  193.7070  172.4450  139.1100 C   0  0  2  0  0  3  0  0  0  0  0  0
  194.2510  175.1090  139.8680 C   0  0  0  0  0  3  0  0  0  0  0  0
  194.3510  175.6290  137.5950 F   0  0  0  0  0  0  0  0  0  0  0  0
  194.7870  171.7650  141.1630 O   0  0  0  0  0  1  0  0  0  0  0  0
  194.3320  174.1110  140.9950 C   0  0  1  0  0  3  0  0  0  0  0  0
  1 16  1  6  0  0  0
  1  8  1  0  0  0  0
  3 11  1  0  0  0  0
  5  4  2  0  0  0  0
  6 17  1  0  0  0  0
  9  2  1  0  0  0  0
 10  4  1  0  0  0  0
 11 12  1  0  0  0  0
 11  7  2  0  0  0  0
 12 10  2  0  0  0  0
 13 21  2  0  0  0  0
 14 15  1  0  0  0  0
 14  1  1  0  0  0  0
 15 19  1  0  0  0  0
 17  7  1  0  0  0  0
 17  9  2  0  0  0  0
 18  6  1  0  0  0  0
 18 15  2  0  0  0  0
 19  8  1  0  0  0  0
 19  2  2  0  0  0  0
 20  5  1  0  0  0  0
 21 20  1  0  0  0  0
 21 12  1  0  0  0  0
 22  3  1  0  0  0  0
 22  6  2  0  0  0  0
 23 13  1  0  0  0  0
 23  3  2  0  0  0  0
 24 29  2  0  0  0  0
 25 24  1  0  0  0  0
 25 28  1  0  0  0  0
 26 32  1  0  0  0  0
 26 31  1  6  0  0  0
 28 27  1  1  0  0  0
 28 26  1  0  0  0  0
 29 32  1  0  0  0  0
 30 24  1  0  0  0  0
 32 13  1  1  0  0  0
M  END
>  <MODEL>
6

>  <REMARK>
 VINA RESULT:      -7.8      5.049      8.837
  Name = 
  1 active torsions:
  status: ('A' for Active; 'I' for Inactive)
    1  A    between atoms: C_16  and  C_32
                            x       y       z     vdW  Elec       q    Type
                         _______ _______ _______ _____ _____    ______ ____

>  <TORSDO>
F 1

$$$$
=
 OpenBabel11052421353D

 32 37  0  0  1  0  0  0  0  0999 V2000
  181.5420  178.7470  141.3090 C   0  0  2  0  0  3  0  0  0  0  0  0
  183.6910  178.9440  144.3870 C   0  0  0  0  0  3  0  0  0  0  0  0
  188.4390  176.7440  143.5870 C   0  0  0  0  0  0  0  0  0  0  0  0
  190.4870  177.4420  148.0470 C   0  0  0  0  0  3  0  0  0  0  0  0
  191.5740  176.8370  147.5730 C   0  0  0  0  0  3  0  0  0  0  0  0
  186.1760  177.4790  143.0570 C   0  0  0  0  0  0  0  0  0  0  0  0
  187.1100  177.8600  145.2660 C   0  0  0  0  0  3  0  0  0  0  0  0
  181.9150  179.0720  142.6720 N   0  0  0  0  0  2  0  0  0  0  0  0
  184.8640  178.6590  144.9410 C   0  0  0  0  0  3  0  0  0  0  0  0
  189.2610  177.6530  147.2030 C   0  0  0  0  0  3  0  0  0  0  0  0
  188.3100  177.2450  144.8930 C   0  0  0  0  0  0  0  0  0  0  0  0
  189.3870  177.1160  145.7890 C   0  0  1  0  0  3  0  0  0  0  0  0
  190.6540  175.9990  144.0300 C   0  0  0  0  0  0  0  0  0  0  0  0
  182.9690  177.9160  140.5340 S   0  0  0  0  0  0  0  0  0  0  0  0
  183.8920  178.0630  142.0590 C   0  0  0  0  0  0  0  0  0  0  0  0
  181.2400  179.9680  140.5830 N   0  0  0  0  0  1  0  0  0  0  0  0
  186.0390  177.9870  144.3730 C   0  0  0  0  0  0  0  0  0  0  0  0
  185.2550  177.5200  142.0920 C   0  0  0  0  0  3  0  0  0  0  0  0
  183.2240  178.6660  143.0300 C   0  0  0  0  0  0  0  0  0  0  0  0
  191.6170  176.3470  146.1890 C   0  0  0  0  0  3  0  0  0  0  0  0
  190.5770  176.4840  145.3530 C   0  0  0  0  0  0  0  0  0  0  0  0
  187.3800  176.8650  142.6900 C   0  0  0  0  0  3  0  0  0  0  0  0
  189.5900  176.1420  143.1950 N   0  0  0  0  0  0  0  0  0  0  0  0
  193.4290  173.5510  144.3150 C   0  0  0  0  0  0  0  0  0  0  0  0
  194.5310  174.2450  143.5740 C   0  0  0  0  0  2  0  0  0  0  0  0
  193.0650  176.3100  143.3920 C   0  0  1  0  0  3  0  0  0  0  0  0
  195.4770  176.4160  143.2450 F   0  0  0  0  0  0  0  0  0  0  0  0
  194.4270  175.7430  143.8430 C   0  0  2  0  0  3  0  0  0  0  0  0
  192.1980  174.0760  144.3200 C   0  0  0  0  0  3  0  0  0  0  0  0
  193.7000  172.4510  145.0630 F   0  0  0  0  0  0  0  0  0  0  0  0
  193.1360  176.7630  142.0720 O   0  0  0  0  0  1  0  0  0  0  0  0
  191.8900  175.3170  143.5190 C   0  0  1  0  0  3  0  0  0  0  0  0
  1 16  1  6  0  0  0
  1  8  1  0  0  0  0
  2  9  1  0  0  0  0
  3 11  1  0  0  0  0
  5  4  1  0  0  0  0
  6 17  1  0  0  0  0
  8 19  1  0  0  0  0
 10  4  2  0  0  0  0
 11  7  2  0  0  0  0
 11 12  1  0  0  0  0
 12 10  1  6  0  0  0
 13 21  2  0  0  0  0
 14  1  1  0  0  0  0
 14 15  1  0  0  0  0
 15 18  2  0  0  0  0
 15 19  1  0  0  0  0
 17  9  2  0  0  0  0
 17  7  1  0  0  0  0
 18  6  1  0  0  0  0
 19  2  2  0  0  0  0
 20  5  2  0  0  0  0
 21 12  1  0  0  0  0
 21 20  1  0  0  0  0
 22  6  2  0  0  0  0
 22  3  1  0  0  0  0
 23  3  2  0  0  0  0
 23 13  1  0  0  0  0
 24 29  2  0  0  0  0
 24 30  1  0  0  0  0
 25 28  1  0  0  0  0
 25 24  1  0  0  0  0
 26 31  1  6  0  0  0
 26 32  1  0  0  0  0
 26 28  1  0  0  0  0
 28 27  1  6  0  0  0
 32 13  1  1  0  0  0
 32 29  1  0  0  0  0
M  END
>  <MODEL>
7

>  <REMARK>
 VINA RESULT:      -7.7      4.980      8.295
  Name = 
  1 active torsions:
  status: ('A' for Active; 'I' for Inactive)
    1  A    between atoms: C_16  and  C_32
                            x       y       z     vdW  Elec       q    Type
                         _______ _______ _______ _____ _____    ______ ____

>  <TORSDO>
F 1

$$$$
=
 OpenBabel11052421353D

 32 37  0  0  1  0  0  0  0  0999 V2000
  185.7730  177.8220  147.1190 C   0  0  2  0  0  3  0  0  0  0  0  0
  189.4150  177.2970  146.3460 C   0  0  0  0  0  3  0  0  0  0  0  0
  190.0770  174.6120  141.8330 C   0  0  0  0  0  0  0  0  0  0  0  0
  195.0270  174.4010  141.6620 C   0  0  0  0  0  3  0  0  0  0  0  0
  194.8960  173.7270  140.5210 C   0  0  0  0  0  3  0  0  0  0  0  0
  188.8760  175.7110  143.6470 C   0  0  0  0  0  0  0  0  0  0  0  0
  191.3050  175.6520  143.6340 C   0  0  0  0  0  3  0  0  0  0  0  0
  187.2100  177.9010  147.2910 N   0  0  0  0  0  2  0  0  0  0  0  0
  190.3080  176.7830  145.5090 C   0  0  0  0  0  3  0  0  0  0  0  0
  193.8360  174.8900  142.4390 C   0  0  0  0  0  3  0  0  0  0  0  0
  191.3060  174.9390  142.4300 C   0  0  0  0  0  0  0  0  0  0  0  0
  192.5020  174.5430  141.8040 C   0  0  0  0  0  0  0  0  0  0  0  0
  191.1790  173.5220  140.0290 C   0  0  0  0  0  0  0  0  0  0  0  0
  185.4560  176.9220  145.5650 S   0  0  0  0  0  0  0  0  0  0  0  0
  187.2150  176.7300  145.3070 C   0  0  0  0  0  0  0  0  0  0  0  0
  185.2200  179.1610  147.0250 N   0  0  0  0  0  1  0  0  0  0  0  0
  190.1130  176.0450  144.2550 C   0  0  0  0  0  0  0  0  0  0  0  0
  187.6610  176.0100  144.1090 C   0  0  0  0  0  3  0  0  0  0  0  0
  187.9550  177.2760  146.2600 C   0  0  0  0  0  0  0  0  0  0  0  0
  193.5660  173.4330  139.9710 C   0  0  0  0  0  3  0  0  0  0  0  0
  192.4400  173.8240  140.5870 C   0  0  0  0  0  0  0  0  0  0  0  0
  188.8850  174.9980  142.4420 C   0  0  0  0  0  3  0  0  0  0  0  0
  190.0460  173.9220  140.6660 N   0  0  0  0  0  2  0  0  0  0  0  0
  189.7560  172.9600  136.6480 C   0  0  0  0  0  0  0  0  0  0  0  0
  189.7750  171.4650  136.5490 C   0  0  0  0  0  2  0  0  0  0  0  0
  190.4860  171.3430  138.9830 C   0  0  1  0  0  3  0  0  0  0  0  0
  189.3870  169.5040  137.8600 F   0  0  0  0  0  0  0  0  0  0  0  0
  189.4630  170.8840  137.9240 C   0  0  2  0  0  3  0  0  0  0  0  0
  190.3240  173.5630  137.6980 C   0  0  0  0  0  3  0  0  0  0  0  0
  189.0740  173.6940  135.7320 F   0  0  0  0  0  0  0  0  0  0  0  0
  191.5430  170.4350  139.0690 O   0  0  0  0  0  1  0  0  0  0  0  0
  191.0560  172.7580  138.7420 C   0  0  1  0  0  3  0  0  0  0  0  0
  1 16  1  6  0  0  0
  1  8  1  0  0  0  0
  3 11  1  0  0  0  0
  3 22  2  0  0  0  0
  4 10  2  0  0  0  0
  5  4  1  0  0  0  0
  6 18  2  0  0  0  0
  6 17  1  0  0  0  0
  7 17  2  0  0  0  0
  9  2  2  0  0  0  0
 11  7  1  0  0  0  0
 12 11  2  0  0  0  0
 12 10  1  0  0  0  0
 13 21  2  0  0  0  0
 13 23  1  0  0  0  0
 14  1  1  0  0  0  0
 15 14  1  0  0  0  0
 15 19  2  0  0  0  0
 17  9  1  0  0  0  0
 18 15  1  0  0  0  0
 19  2  1  0  0  0  0
 19  8  1  0  0  0  0
 20  5  2  0  0  0  0
 20 21  1  0  0  0  0
 21 12  1  0  0  0  0
 22  6  1  0  0  0  0
 23  3  1  0  0  0  0
 24 29  2  0  0  0  0
 25 24  1  0  0  0  0
 25 28  1  0  0  0  0
 26 31  1  6  0  0  0
 28 27  1  6  0  0  0
 28 26  1  0  0  0  0
 29 32  1  0  0  0  0
 30 24  1  0  0  0  0
 32 26  1  0  0  0  0
 32 13  1  1  0  0  0
M  END
>  <MODEL>
8

>  <REMARK>
 VINA RESULT:      -7.7      4.480      8.629
  Name = 
  1 active torsions:
  status: ('A' for Active; 'I' for Inactive)
    1  A    between atoms: C_16  and  C_32
                            x       y       z     vdW  Elec       q    Type
                         _______ _______ _______ _____ _____    ______ ____

>  <TORSDO>
F 1

$$$$
=
 OpenBabel11052421353D

 32 37  0  0  1  0  0  0  0  0999 V2000
  193.4680  169.4060  143.0320 C   0  0  2  0  0  3  0  0  0  0  0  0
  191.3760  171.5500  140.7600 C   0  0  0  0  0  3  0  0  0  0  0  0
  188.7190  175.2390  143.4700 C   0  0  0  0  0  0  0  0  0  0  0  0
  186.3170  177.4860  139.7610 C   0  0  0  0  0  3  0  0  0  0  0  0
  185.7830  178.2910  140.6770 C   0  0  0  0  0  3  0  0  0  0  0  0
  190.2230  173.3560  143.1040 C   0  0  0  0  0  0  0  0  0  0  0  0
  189.0840  174.4060  141.2330 C   0  0  0  0  0  3  0  0  0  0  0  0
  192.8940  169.8930  141.7930 N   0  0  0  0  0  2  0  0  0  0  0  0
  190.5240  172.5640  140.6650 C   0  0  0  0  0  3  0  0  0  0  0  0
  187.2800  176.3900  140.1260 C   0  0  0  0  0  2  0  0  0  0  0  0
  188.4560  175.3140  142.0910 C   0  0  0  0  0  0  0  0  0  0  0  0
  187.5720  176.2990  141.6120 C   0  0  0  0  0  0  0  0  0  0  0  0
  187.2670  177.0720  143.9040 C   0  0  0  0  0  0  0  0  0  0  0  0
  192.8190  170.4460  144.3820 S   0  0  0  0  0  0  0  0  0  0  0  0
  191.8620  171.3930  143.2040 C   0  0  0  0  0  0  0  0  0  0  0  0
  194.9130  169.5280  142.9790 N   0  0  0  0  0  1  0  0  0  0  0  0
  189.9630  173.4260  141.7120 C   0  0  0  0  0  0  0  0  0  0  0  0
  191.0300  172.4880  143.7160 C   0  0  0  0  0  3  0  0  0  0  0  0
  192.0110  170.9900  141.9520 C   0  0  0  0  0  0  0  0  0  0  0  0
  186.1200  178.1370  142.0990 C   0  0  0  0  0  3  0  0  0  0  0  0
  186.9680  177.1910  142.5300 C   0  0  0  0  0  0  0  0  0  0  0  0
  189.5920  174.2700  143.9580 C   0  0  0  0  0  3  0  0  0  0  0  0
  188.1260  176.1070  144.3270 N   0  0  0  0  0  0  0  0  0  0  0  0
  187.0350  178.5600  147.2970 C   0  0  0  0  0  0  0  0  0  0  0  0
  185.5630  178.8110  147.4240 C   0  0  0  0  0  2  0  0  0  0  0  0
  185.1950  177.5810  145.2330 C   0  0  1  0  0  3  0  0  0  0  0  0
  183.4510  177.8270  146.8910 F   0  0  0  0  0  0  0  0  0  0  0  0
  184.8160  177.6800  146.7250 C   0  0  2  0  0  3  0  0  0  0  0  0
  187.5380  178.1380  146.1310 C   0  0  0  0  0  3  0  0  0  0  0  0
  187.8380  178.6590  148.3860 F   0  0  0  0  0  0  0  0  0  0  0  0
  184.3290  178.3540  144.4560 O   0  0  0  0  0  1  0  0  0  0  0  0
  186.6500  177.9900  144.9200 C   0  0  1  0  0  3  0  0  0  0  0  0
  1 16  1  6  0  0  0
  1 14  1  0  0  0  0
  2 19  1  0  0  0  0
  3 22  2  0  0  0  0
  3 23  1  0  0  0  0
  4 10  1  0  0  0  0
  4  5  2  0  0  0  0
  5 20  1  0  0  0  0
  6 18  2  0  0  0  0
  6 22  1  0  0  0  0
  7 17  2  0  0  0  0
  7 11  1  0  0  0  0
  8 19  1  0  0  0  0
  8  1  1  0  0  0  0
  9  2  2  0  0  0  0
  9 17  1  0  0  0  0
 10 12  1  0  0  0  0
 11  3  1  0  0  0  0
 12 11  2  0  0  0  0
 12 21  1  0  0  0  0
 13 23  2  0  0  0  0
 15 18  1  0  0  0  0
 15 14  1  0  0  0  0
 17  6  1  0  0  0  0
 19 15  2  0  0  0  0
 20 21  2  0  0  0  0
 21 13  1  0  0  0  0
 24 25  1  0  0  0  0
 24 30  1  0  0  0  0
 26 31  1  6  0  0  0
 26 28  1  0  0  0  0
 28 27  1  6  0  0  0
 28 25  1  0  0  0  0
 29 24  2  0  0  0  0
 32 13  1  6  0  0  0
 32 26  1  0  0  0  0
 32 29  1  0  0  0  0
M  END
>  <MODEL>
9

>  <REMARK>
 VINA RESULT:      -7.7      2.399      4.075
  Name = 
  1 active torsions:
  status: ('A' for Active; 'I' for Inactive)
    1  A    between atoms: C_16  and  C_32
                            x       y       z     vdW  Elec       q    Type
                         _______ _______ _______ _____ _____    ______ ____

>  <TORSDO>
F 1

$$$$
