=
 OpenBabel11052417133D

 30 35  0  0  1  0  0  0  0  0999 V2000
  187.8620  175.6980  142.6190 C   0  0  0  0  0  0  0  0  0  0  0  0
  186.3390  177.6990  142.5580 C   0  0  0  0  0  0  0  0  0  0  0  0
  188.1060  177.3820  146.7920 C   0  0  0  0  0  2  0  0  0  0  0  0
  188.7860  174.9860  143.3920 O   0  0  0  0  0  0  0  0  0  0  0  0
  187.7280  175.3870  141.3650 N   0  0  0  0  0  0  0  0  0  0  0  0
  190.7090  173.1030  140.7340 C   0  0  0  0  0  2  0  0  0  0  0  0
  191.3120  174.6870  145.7050 C   0  0  2  0  0  3  0  0  0  0  0  0
  189.9230  174.2890  141.2950 C   0  0  1  0  0  3  0  0  0  0  0  0
  188.4230  174.2860  139.2870 C   0  0  0  0  0  2  0  0  0  0  0  0
  190.9780  175.9200  145.0040 N   0  0  2  0  0  0  0  0  0  0  0  0
  189.2360  176.3800  146.8560 C   0  0  1  0  0  3  0  0  0  0  0  0
  188.4700  174.2580  140.8100 C   0  0  2  0  0  3  0  0  0  0  0  0
  190.0000  174.4720  142.8280 C   0  0  2  0  0  3  0  0  0  0  0  0
  185.4120  178.6050  143.2680 C   0  0  0  0  0  3  0  0  0  0  0  0
  192.2560  176.5590  144.6950 C   0  0  0  0  0  2  0  0  0  0  0  0
  192.7870  174.4670  145.5210 C   0  0  0  0  0  2  0  0  0  0  0  0
  190.6480  173.1200  139.2080 C   0  0  0  0  0  2  0  0  0  0  0  0
  186.4470  177.8660  141.0790 C   0  0  0  0  0  1  0  0  0  0  0  0
  187.9350  177.7670  145.3900 N   0  0  1  0  0  0  0  0  0  0  0  0
  185.0610  178.3660  144.5340 C   0  0  0  0  0  3  0  0  0  0  0  0
  189.1970  173.0930  138.7260 C   0  0  0  0  0  2  0  0  0  0  0  0
  187.0420  176.7690  143.2540 C   0  0  0  0  0  0  0  0  0  0  0  0
  189.2730  177.6530  144.8020 C   0  0  0  0  0  2  0  0  0  0  0  0
  188.7020  175.1240  146.5600 O   0  0  0  0  0  1  0  0  0  0  0  0
  190.1750  176.8920  145.7640 C   0  0  2  0  0  3  0  0  0  0  0  0
  193.3530  175.7690  145.2400 N   0  0  0  0  0  2  0  0  0  0  0  0
  190.5600  173.2890  143.6300 C   0  0  0  0  0  2  0  0  0  0  0  0
  185.5580  177.1320  145.2310 C   0  0  0  0  0  2  0  0  0  0  0  0
  186.9900  176.8040  144.7800 C   0  0  2  0  0  3  0  0  0  0  0  0
  190.5040  173.4980  145.1520 C   0  0  0  0  0  2  0  0  0  0  0  0
  1 22  1  0  0  0  0
  1  4  1  0  0  0  0
  2 22  2  0  0  0  0
  2 14  1  0  0  0  0
  3 11  1  0  0  0  0
  5  1  2  0  0  0  0
  7 30  1  6  0  0  0
  8  6  1  1  0  0  0
  8 13  1  0  0  0  0
 10 15  1  1  0  0  0
 10  7  1  0  0  0  0
 10 25  1  0  0  0  0
 11 24  1  6  0  0  0
 12  9  1  6  0  0  0
 12  8  1  0  0  0  0
 12  5  1  0  0  0  0
 13  4  1  0  0  0  0
 13 27  1  1  0  0  0
 14 20  2  0  0  0  0
 15 26  1  0  0  0  0
 16  7  1  0  0  0  0
 17  6  1  0  0  0  0
 18  2  1  0  0  0  0
 19 23  1  6  0  0  0
 19  3  1  0  0  0  0
 20 28  1  0  0  0  0
 21 17  1  0  0  0  0
 21  9  1  0  0  0  0
 22 29  1  0  0  0  0
 25 23  1  6  0  0  0
 25 11  1  0  0  0  0
 26 16  1  0  0  0  0
 27 30  1  0  0  0  0
 29 28  1  6  0  0  0
 29 19  1  0  0  0  0
M  END
>  <MODEL>
1

>  <REMARK>
 VINA RESULT:      -8.9      0.000      0.000
  Name = 
  0 active torsions:
  status: ('A' for Active; 'I' for Inactive)
                            x       y       z     vdW  Elec       q    Type
                         _______ _______ _______ _____ _____    ______ ____

>  <TORSDO>
F 0

$$$$
=
 OpenBabel11052417133D

 30 35  0  0  1  0  0  0  0  0999 V2000
  186.7870  177.2040  143.8450 C   0  0  0  0  0  0  0  0  0  0  0  0
  186.0900  178.8060  145.6540 C   0  0  0  0  0  0  0  0  0  0  0  0
  189.5280  176.2240  147.2850 C   0  0  0  0  0  2  0  0  0  0  0  0
  187.7180  176.2250  143.4790 O   0  0  0  0  0  0  0  0  0  0  0  0
  185.9700  177.6560  142.9410 N   0  0  0  0  0  0  0  0  0  0  0  0
  187.4410  176.2860  139.7070 C   0  0  0  0  0  2  0  0  0  0  0  0
  190.8400  174.7870  143.4200 C   0  0  2  0  0  3  0  0  0  0  0  0
  187.4180  176.9020  141.1070 C   0  0  1  0  0  3  0  0  0  0  0  0
  185.1990  177.9690  140.6350 C   0  0  0  0  0  2  0  0  0  0  0  0
  190.5810  176.1820  143.7540 N   0  0  2  0  0  0  0  0  0  0  0  0
  190.1950  175.4200  146.1920 C   0  0  1  0  0  3  0  0  0  0  0  0
  185.9780  177.0810  141.5990 C   0  0  2  0  0  3  0  0  0  0  0  0
  188.2880  176.1830  142.1630 C   0  0  2  0  0  3  0  0  0  0  0  0
  185.9410  179.1000  147.0950 C   0  0  0  0  0  3  0  0  0  0  0  0
  191.6640  176.9460  143.1370 C   0  0  0  0  0  2  0  0  0  0  0  0
  191.8960  174.7840  142.3520 C   0  0  0  0  0  2  0  0  0  0  0  0
  186.6470  177.1660  138.7440 C   0  0  0  0  0  2  0  0  0  0  0  0
  185.5010  179.7910  144.6990 C   0  0  0  0  0  1  0  0  0  0  0  0
  188.8110  177.3290  146.6470 N   0  0  1  0  0  0  0  0  0  0  0  0
  186.2060  178.1660  148.0130 C   0  0  0  0  0  3  0  0  0  0  0  0
  185.2110  177.3470  139.2380 C   0  0  0  0  0  2  0  0  0  0  0  0
  186.7380  177.6810  145.2560 C   0  0  0  0  0  0  0  0  0  0  0  0
  189.5870  177.6360  145.4420 C   0  0  0  0  0  2  0  0  0  0  0  0
  189.2450  174.5320  145.6840 O   0  0  0  0  0  1  0  0  0  0  0  0
  190.5780  176.5090  145.1890 C   0  0  2  0  0  3  0  0  0  0  0  0
  192.6020  176.0410  142.4830 N   0  0  0  0  0  2  0  0  0  0  0  0
  188.7970  174.7840  141.7930 C   0  0  0  0  0  2  0  0  0  0  0  0
  186.5970  176.7810  147.5830 C   0  0  0  0  0  2  0  0  0  0  0  0
  187.4550  176.8390  146.3100 C   0  0  2  0  0  3  0  0  0  0  0  0
  189.5590  174.0870  142.9310 C   0  0  0  0  0  2  0  0  0  0  0  0
  1 22  1  0  0  0  0
  2 14  1  0  0  0  0
  4  1  1  0  0  0  0
  5  1  2  0  0  0  0
  7 16  1  6  0  0  0
  7 10  1  0  0  0  0
  8  6  1  6  0  0  0
  8 12  1  0  0  0  0
  8 13  1  0  0  0  0
 10 15  1  6  0  0  0
 10 25  1  0  0  0  0
 11 24  1  6  0  0  0
 11  3  1  0  0  0  0
 12  9  1  6  0  0  0
 12  5  1  0  0  0  0
 13 27  1  6  0  0  0
 13  4  1  0  0  0  0
 14 20  2  0  0  0  0
 16 26  1  0  0  0  0
 17 21  1  0  0  0  0
 17  6  1  0  0  0  0
 18  2  1  0  0  0  0
 19 23  1  6  0  0  0
 19  3  1  0  0  0  0
 21  9  1  0  0  0  0
 22  2  2  0  0  0  0
 22 29  1  0  0  0  0
 25 23  1  6  0  0  0
 25 11  1  0  0  0  0
 26 15  1  0  0  0  0
 27 30  1  0  0  0  0
 28 20  1  0  0  0  0
 29 19  1  0  0  0  0
 29 28  1  1  0  0  0
 30  7  1  0  0  0  0
M  END
>  <MODEL>
2

>  <REMARK>
 VINA RESULT:      -8.3      1.850      3.129
  Name = 
  0 active torsions:
  status: ('A' for Active; 'I' for Inactive)
                            x       y       z     vdW  Elec       q    Type
                         _______ _______ _______ _____ _____    ______ ____

>  <TORSDO>
F 0

$$$$
=
 OpenBabel11052417133D

 30 35  0  0  1  0  0  0  0  0999 V2000
  188.1760  177.5450  145.4050 C   0  0  0  0  0  0  0  0  0  0  0  0
  185.8710  178.2440  146.1270 C   0  0  0  0  0  0  0  0  0  0  0  0
  185.7710  177.4730  141.5950 C   0  0  0  0  0  2  0  0  0  0  0  0
  188.9480  177.0780  144.3350 O   0  0  0  0  0  0  0  0  0  0  0  0
  188.7000  177.5560  146.5940 N   0  0  0  0  0  0  0  0  0  0  0  0
  191.8670  175.4910  146.1430 C   0  0  0  0  0  2  0  0  0  0  0  0
  189.4880  175.2630  141.4660 C   0  0  2  0  0  3  0  0  0  0  0  0
  190.4040  175.9020  145.9700 C   0  0  1  0  0  3  0  0  0  0  0  0
  190.3910  176.9300  148.2560 C   0  0  0  0  0  2  0  0  0  0  0  0
  188.3990  175.0190  142.4030 N   0  0  2  0  0  0  0  0  0  0  0  0
  187.0310  176.7910  141.1130 C   0  0  1  0  0  3  0  0  0  0  0  0
  190.0950  177.1660  146.7800 C   0  0  2  0  0  3  0  0  0  0  0  0
  189.9210  176.0380  144.5090 C   0  0  2  0  0  3  0  0  0  0  0  0
  184.5910  178.9100  145.8040 C   0  0  0  0  0  3  0  0  0  0  0  0
  188.2660  173.5650  142.4890 C   0  0  0  0  0  2  0  0  0  0  0  0
  190.1840  173.9480  141.2560 C   0  0  0  0  0  2  0  0  0  0  0  0
  192.1700  175.2720  147.6240 C   0  0  0  0  0  2  0  0  0  0  0  0
  186.0750  177.8250  147.5460 C   0  0  0  0  0  1  0  0  0  0  0  0
  185.6720  177.2500  143.0380 N   0  0  1  0  0  0  0  0  0  0  0  0
  184.4250  179.5390  144.6380 C   0  0  0  0  0  3  0  0  0  0  0  0
  191.8560  176.5320  148.4310 C   0  0  0  0  0  2  0  0  0  0  0  0
  186.7940  178.0410  145.1530 C   0  0  0  0  0  0  0  0  0  0  0  0
  186.3160  175.9530  143.2640 C   0  0  0  0  0  2  0  0  0  0  0  0
  188.0950  177.6660  141.3370 O   0  0  0  0  0  1  0  0  0  0  0  0
  187.0850  175.5560  142.0120 C   0  0  2  0  0  3  0  0  0  0  0  0
  189.2140  172.9250  141.5850 N   0  0  0  0  0  2  0  0  0  0  0  0
  191.0100  176.0740  143.4280 C   0  0  0  0  0  2  0  0  0  0  0  0
  185.5660  179.6320  143.6660 C   0  0  0  0  0  2  0  0  0  0  0  0
  186.4080  178.3470  143.7060 C   0  0  2  0  0  3  0  0  0  0  0  0
  190.4640  176.3210  142.0130 C   0  0  0  0  0  2  0  0  0  0  0  0
  1  5  2  0  0  0  0
  2 18  1  0  0  0  0
  4 13  1  0  0  0  0
  4  1  1  0  0  0  0
  5 12  1  0  0  0  0
  6 17  1  0  0  0  0
  7 16  1  1  0  0  0
  7 30  1  0  0  0  0
  7 10  1  0  0  0  0
  8  6  1  6  0  0  0
  8 12  1  0  0  0  0
  9 21  1  0  0  0  0
 10 15  1  6  0  0  0
 11 24  1  1  0  0  0
 11  3  1  0  0  0  0
 11 25  1  0  0  0  0
 12  9  1  1  0  0  0
 13 27  1  6  0  0  0
 13  8  1  0  0  0  0
 14  2  1  0  0  0  0
 16 26  1  0  0  0  0
 17 21  1  0  0  0  0
 19  3  1  6  0  0  0
 19 23  1  0  0  0  0
 19 29  1  0  0  0  0
 20 14  2  0  0  0  0
 22  1  1  0  0  0  0
 22  2  2  0  0  0  0
 25 10  1  0  0  0  0
 25 23  1  1  0  0  0
 26 15  1  0  0  0  0
 28 20  1  0  0  0  0
 29 28  1  1  0  0  0
 29 22  1  0  0  0  0
 30 27  1  0  0  0  0
M  END
>  <MODEL>
3

>  <REMARK>
 VINA RESULT:      -8.2      1.986      5.282
  Name = 
  0 active torsions:
  status: ('A' for Active; 'I' for Inactive)
                            x       y       z     vdW  Elec       q    Type
                         _______ _______ _______ _____ _____    ______ ____

>  <TORSDO>
F 0

$$$$
=
 OpenBabel11052417133D

 30 35  0  0  1  0  0  0  0  0999 V2000
  188.7210  176.6190  146.1970 C   0  0  0  0  0  0  0  0  0  0  0  0
  190.9230  176.9300  147.3720 C   0  0  0  0  0  0  0  0  0  0  0  0
  191.7640  175.1390  143.2210 C   0  0  0  0  0  2  0  0  0  0  0  0
  188.1080  176.2600  144.9910 O   0  0  0  0  0  0  0  0  0  0  0  0
  187.9910  177.1400  147.1370 N   0  0  0  0  0  0  0  0  0  0  0  0
  184.7200  177.9050  145.3440 C   0  0  0  0  0  2  0  0  0  0  0  0
  187.8780  176.0790  141.5660 C   0  0  2  0  0  3  0  0  0  0  0  0
  186.2310  177.7880  145.5530 C   0  0  1  0  0  3  0  0  0  0  0  0
  185.9530  178.1840  148.0130 C   0  0  0  0  0  2  0  0  0  0  0  0
  188.7320  177.0140  142.2870 N   0  0  2  0  0  0  0  0  0  0  0  0
  190.5370  175.1670  142.3380 C   0  0  1  0  0  3  0  0  0  0  0  0
  186.5470  177.2600  146.9560 C   0  0  2  0  0  3  0  0  0  0  0  0
  186.9920  176.9940  144.4680 C   0  0  2  0  0  3  0  0  0  0  0  0
  192.3170  176.4860  147.5860 C   0  0  0  0  0  3  0  0  0  0  0  0
  188.6540  178.2740  141.5480 C   0  0  0  0  0  2  0  0  0  0  0  0
  187.0670  176.8890  140.5950 C   0  0  0  0  0  2  0  0  0  0  0  0
  184.1200  178.8170  146.4130 C   0  0  0  0  0  2  0  0  0  0  0  0
  190.4050  177.9920  148.2840 C   0  0  0  0  0  1  0  0  0  0  0  0
  191.5620  176.1190  144.2890 N   0  0  1  0  0  0  0  0  0  0  0  0
  192.7790  175.3810  146.9960 C   0  0  0  0  0  3  0  0  0  0  0  0
  184.4410  178.2900  147.8130 C   0  0  0  0  0  2  0  0  0  0  0  0
  190.1800  176.3740  146.3820 C   0  0  0  0  0  0  0  0  0  0  0  0
  190.7220  177.1610  143.6910 C   0  0  0  0  0  2  0  0  0  0  0  0
  189.5750  174.3470  142.9300 O   0  0  0  0  0  1  0  0  0  0  0  0
  190.1550  176.6460  142.3760 C   0  0  2  0  0  3  0  0  0  0  0  0
  187.8160  178.1070  140.3670 N   0  0  0  0  0  2  0  0  0  0  0  0
  186.1370  176.1510  143.5120 C   0  0  0  0  0  2  0  0  0  0  0  0
  191.8610  174.5380  146.1570 C   0  0  0  0  0  2  0  0  0  0  0  0
  190.8650  175.4280  145.3970 C   0  0  2  0  0  3  0  0  0  0  0  0
  186.9660  175.3030  142.5330 C   0  0  0  0  0  2  0  0  0  0  0  0
  1 22  1  0  0  0  0
  1  5  2  0  0  0  0
  2 14  1  0  0  0  0
  2 18  1  0  0  0  0
  4  1  1  0  0  0  0
  6 17  1  0  0  0  0
  7 16  1  6  0  0  0
  7 10  1  0  0  0  0
  7 30  1  0  0  0  0
  8  6  1  6  0  0  0
  8 12  1  0  0  0  0
 10 15  1  6  0  0  0
 10 25  1  0  0  0  0
 11 25  1  0  0  0  0
 11 24  1  1  0  0  0
 11  3  1  0  0  0  0
 12  5  1  0  0  0  0
 12  9  1  1  0  0  0
 13 27  1  1  0  0  0
 13  4  1  0  0  0  0
 13  8  1  0  0  0  0
 17 21  1  0  0  0  0
 19  3  1  6  0  0  0
 19 29  1  0  0  0  0
 20 14  2  0  0  0  0
 21  9  1  0  0  0  0
 22  2  2  0  0  0  0
 23 19  1  0  0  0  0
 25 23  1  1  0  0  0
 26 16  1  0  0  0  0
 26 15  1  0  0  0  0
 28 20  1  0  0  0  0
 29 28  1  1  0  0  0
 29 22  1  0  0  0  0
 30 27  1  0  0  0  0
M  END
>  <MODEL>
4

>  <REMARK>
 VINA RESULT:      -8.1      1.908      6.562
  Name = 
  0 active torsions:
  status: ('A' for Active; 'I' for Inactive)
                            x       y       z     vdW  Elec       q    Type
                         _______ _______ _______ _____ _____    ______ ____

>  <TORSDO>
F 0

$$$$
=
 OpenBabel11052417133D

 30 35  0  0  1  0  0  0  0  0999 V2000
  188.0850  175.3900  141.3770 C   0  0  0  0  0  0  0  0  0  0  0  0
  186.4960  177.3300  141.1880 C   0  0  0  0  0  0  0  0  0  0  0  0
  188.3680  177.4270  145.3870 C   0  0  0  0  0  2  0  0  0  0  0  0
  189.0490  174.7740  142.1840 O   0  0  0  0  0  0  0  0  0  0  0  0
  187.9320  174.9700  140.1570 N   0  0  0  0  0  0  0  0  0  0  0  0
  190.9710  172.7340  139.6440 C   0  0  0  0  0  2  0  0  0  0  0  0
  191.6350  174.7490  144.4490 C   0  0  2  0  0  3  0  0  0  0  0  0
  190.1600  173.9380  140.1240 C   0  0  1  0  0  3  0  0  0  0  0  0
  188.6160  173.7190  138.1610 C   0  0  0  0  0  2  0  0  0  0  0  0
  191.2450  175.9080  143.6560 N   0  0  2  0  0  0  0  0  0  0  0  0
  189.5310  176.4680  145.5060 C   0  0  1  0  0  3  0  0  0  0  0  0
  188.6980  173.8220  139.6800 C   0  0  2  0  0  3  0  0  0  0  0  0
  190.2660  174.2520  141.6340 C   0  0  2  0  0  3  0  0  0  0  0  0
  185.5550  178.2640  141.8430 C   0  0  0  0  0  3  0  0  0  0  0  0
  192.4930  176.5580  143.2610 C   0  0  0  0  0  2  0  0  0  0  0  0
  193.1110  174.5600  144.2460 C   0  0  0  0  0  2  0  0  0  0  0  0
  190.8750  172.6200  138.1240 C   0  0  0  0  0  2  0  0  0  0  0  0
  186.5650  177.3760  139.6970 C   0  0  0  0  0  1  0  0  0  0  0  0
  188.1520  177.6860  143.9630 N   0  0  1  0  0  0  0  0  0  0  0  0
  185.2410  178.1220  143.1330 C   0  0  0  0  0  3  0  0  0  0  0  0
  189.4150  172.5080  137.6830 C   0  0  0  0  0  2  0  0  0  0  0  0
  187.2450  176.4840  141.9410 C   0  0  0  0  0  0  0  0  0  0  0  0
  189.4790  177.5640  143.3530 C   0  0  0  0  0  2  0  0  0  0  0  0
  189.0310  175.1770  145.3300 O   0  0  0  0  0  1  0  0  0  0  0  0
  190.4270  176.9160  144.3510 C   0  0  2  0  0  3  0  0  0  0  0  0
  193.6280  175.8500  143.8430 N   0  0  0  0  0  2  0  0  0  0  0  0
  190.8820  173.1590  142.5180 C   0  0  0  0  0  2  0  0  0  0  0  0
  185.7940  176.9670  143.9180 C   0  0  0  0  0  2  0  0  0  0  0  0
  187.2260  176.6470  143.4590 C   0  0  2  0  0  3  0  0  0  0  0  0
  190.8540  173.4940  144.0180 C   0  0  0  0  0  2  0  0  0  0  0  0
  1 22  1  0  0  0  0
  1  4  1  0  0  0  0
  2 14  1  0  0  0  0
  2 22  2  0  0  0  0
  3 11  1  0  0  0  0
  5  1  2  0  0  0  0
  7 30  1  6  0  0  0
  8  6  1  1  0  0  0
  8 13  1  0  0  0  0
 10 15  1  1  0  0  0
 10 25  1  0  0  0  0
 10  7  1  0  0  0  0
 11 24  1  6  0  0  0
 12  9  1  6  0  0  0
 12  8  1  0  0  0  0
 12  5  1  0  0  0  0
 13  4  1  0  0  0  0
 13 27  1  1  0  0  0
 14 20  2  0  0  0  0
 15 26  1  0  0  0  0
 16  7  1  0  0  0  0
 17  6  1  0  0  0  0
 18  2  1  0  0  0  0
 19 23  1  6  0  0  0
 19  3  1  0  0  0  0
 20 28  1  0  0  0  0
 21 17  1  0  0  0  0
 21  9  1  0  0  0  0
 22 29  1  0  0  0  0
 25 23  1  6  0  0  0
 25 11  1  0  0  0  0
 26 16  1  0  0  0  0
 27 30  1  0  0  0  0
 29 28  1  6  0  0  0
 29 19  1  0  0  0  0
M  END
>  <MODEL>
5

>  <REMARK>
 VINA RESULT:      -8.0      1.153      1.336
  Name = 
  0 active torsions:
  status: ('A' for Active; 'I' for Inactive)
                            x       y       z     vdW  Elec       q    Type
                         _______ _______ _______ _____ _____    ______ ____

>  <TORSDO>
F 0

$$$$
=
 OpenBabel11052417133D

 30 35  0  0  1  0  0  0  0  0999 V2000
  189.3290  175.2470  141.6350 C   0  0  0  0  0  0  0  0  0  0  0  0
  189.5160  173.2240  140.1530 C   0  0  0  0  0  0  0  0  0  0  0  0
  192.8330  172.9750  143.3270 C   0  0  0  0  0  2  0  0  0  0  0  0
  189.8190  175.8700  142.7880 O   0  0  0  0  0  0  0  0  0  0  0  0
  188.2680  175.7360  141.0650 N   0  0  0  0  0  0  0  0  0  0  0  0
  186.9660  178.1940  143.6650 C   0  0  0  0  0  2  0  0  0  0  0  0
  191.0920  175.9150  145.9810 C   0  0  2  0  0  3  0  0  0  0  0  0
  187.5850  176.9100  143.1100 C   0  0  1  0  0  3  0  0  0  0  0  0
  186.2710  177.1560  140.9900 C   0  0  0  0  0  2  0  0  0  0  0  0
  190.3800  174.7890  145.3940 N   0  0  2  0  0  0  0  0  0  0  0  0
  192.6390  173.9970  144.4240 C   0  0  1  0  0  3  0  0  0  0  0  0
  187.6620  176.9600  141.5810 C   0  0  2  0  0  3  0  0  0  0  0  0
  188.9420  176.5060  143.7290 C   0  0  2  0  0  3  0  0  0  0  0  0
  190.3650  172.1900  139.5240 C   0  0  0  0  0  3  0  0  0  0  0  0
  189.5410  174.2480  146.4630 C   0  0  0  0  0  2  0  0  0  0  0  0
  190.4280  176.2130  147.2960 C   0  0  0  0  0  2  0  0  0  0  0  0
  185.5780  178.4010  143.0600 C   0  0  0  0  0  2  0  0  0  0  0  0
  188.0890  173.2810  139.7190 C   0  0  0  0  0  1  0  0  0  0  0  0
  191.5450  172.7960  142.6570 N   0  0  1  0  0  0  0  0  0  0  0  0
  191.6940  172.2260  139.6560 C   0  0  0  0  0  3  0  0  0  0  0  0
  185.6570  178.4460  141.5340 C   0  0  0  0  0  2  0  0  0  0  0  0
  190.0460  174.0660  141.0770 C   0  0  0  0  0  0  0  0  0  0  0  0
  190.5420  173.0440  143.6960 C   0  0  0  0  0  2  0  0  0  0  0  0
  192.7480  175.2620  143.8440 O   0  0  0  0  0  1  0  0  0  0  0  0
  191.2200  173.6860  144.8980 C   0  0  2  0  0  3  0  0  0  0  0  0
  189.7700  174.9890  147.6980 N   0  0  0  0  0  2  0  0  0  0  0  0
  189.6600  177.5760  144.5630 C   0  0  0  0  0  2  0  0  0  0  0  0
  192.3450  173.3610  140.3940 C   0  0  0  0  0  2  0  0  0  0  0  0
  191.4660  173.8030  141.5750 C   0  0  2  0  0  3  0  0  0  0  0  0
  191.0510  177.1430  145.0530 C   0  0  0  0  0  2  0  0  0  0  0  0
  1  4  1  0  0  0  0
  2 22  2  0  0  0  0
  3 11  1  0  0  0  0
  4 13  1  0  0  0  0
  5 12  1  0  0  0  0
  5  1  2  0  0  0  0
  7 30  1  6  0  0  0
  7 16  1  0  0  0  0
  8  6  1  1  0  0  0
  8 13  1  0  0  0  0
  9 21  1  0  0  0  0
 10  7  1  0  0  0  0
 10 15  1  1  0  0  0
 11 24  1  6  0  0  0
 11 25  1  0  0  0  0
 12  9  1  6  0  0  0
 12  8  1  0  0  0  0
 13 27  1  6  0  0  0
 14 20  2  0  0  0  0
 14  2  1  0  0  0  0
 15 26  1  0  0  0  0
 16 26  1  0  0  0  0
 17  6  1  0  0  0  0
 18  2  1  0  0  0  0
 19  3  1  1  0  0  0
 19 23  1  0  0  0  0
 20 28  1  0  0  0  0
 21 17  1  0  0  0  0
 22 29  1  0  0  0  0
 22  1  1  0  0  0  0
 25 23  1  6  0  0  0
 25 10  1  0  0  0  0
 27 30  1  0  0  0  0
 29 28  1  6  0  0  0
 29 19  1  0  0  0  0
M  END
>  <MODEL>
6

>  <REMARK>
 VINA RESULT:      -7.5      1.705      5.401
  Name = 
  0 active torsions:
  status: ('A' for Active; 'I' for Inactive)
                            x       y       z     vdW  Elec       q    Type
                         _______ _______ _______ _____ _____    ______ ____

>  <TORSDO>
F 0

$$$$
=
 OpenBabel11052417133D

 30 35  0  0  1  0  0  0  0  0999 V2000
  190.9220  174.9480  143.9080 C   0  0  0  0  0  0  0  0  0  0  0  0
  189.9840  176.6360  145.5200 C   0  0  0  0  0  0  0  0  0  0  0  0
  194.4340  176.0380  146.5130 C   0  0  0  0  0  2  0  0  0  0  0  0
  192.0870  174.3080  143.4700 O   0  0  0  0  0  0  0  0  0  0  0  0
  189.8310  174.8000  143.2170 N   0  0  0  0  0  0  0  0  0  0  0  0
  191.0790  173.1930  139.9990 C   0  0  0  0  0  2  0  0  0  0  0  0
  195.4460  174.1350  142.7610 C   0  0  2  0  0  3  0  0  0  0  0  0
  191.0730  174.1290  141.2080 C   0  0  1  0  0  3  0  0  0  0  0  0
  188.5660  174.1470  141.2210 C   0  0  0  0  0  2  0  0  0  0  0  0
  194.6960  175.3760  142.8970 N   0  0  2  0  0  0  0  0  0  0  0  0
  195.1490  175.2520  145.4370 C   0  0  1  0  0  3  0  0  0  0  0  0
  189.8180  173.9110  142.0590 C   0  0  2  0  0  3  0  0  0  0  0  0
  192.3520  174.1020  142.0750 C   0  0  2  0  0  3  0  0  0  0  0  0
  190.0100  177.2530  146.8640 C   0  0  0  0  0  3  0  0  0  0  0  0
  195.2140  176.2690  141.8610 C   0  0  0  0  0  2  0  0  0  0  0  0
  196.1740  174.2080  141.4490 C   0  0  0  0  0  2  0  0  0  0  0  0
  189.8170  173.4160  139.1680 C   0  0  0  0  0  2  0  0  0  0  0  0
  188.8620  177.0290  144.6180 C   0  0  0  0  0  1  0  0  0  0  0  0
  193.2100  176.5810  145.9230 N   0  0  1  0  0  0  0  0  0  0  0  0
  190.8160  176.7780  147.8170 C   0  0  0  0  0  3  0  0  0  0  0  0
  188.5660  173.2020  140.0200 C   0  0  0  0  0  2  0  0  0  0  0  0
  190.9530  175.7550  145.1610 C   0  0  0  0  0  0  0  0  0  0  0  0
  193.5330  176.7910  144.5090 C   0  0  0  0  0  2  0  0  0  0  0  0
  194.5820  173.9770  145.4000 O   0  0  0  0  0  1  0  0  0  0  0  0
  194.8360  176.0730  144.1860 C   0  0  2  0  0  3  0  0  0  0  0  0
  196.2980  175.6160  141.1380 N   0  0  0  0  0  2  0  0  0  0  0  0
  193.3190  172.9360  141.8320 C   0  0  0  0  0  2  0  0  0  0  0  0
  191.6610  175.5650  147.5500 C   0  0  0  0  0  2  0  0  0  0  0  0
  192.1480  175.5640  146.0930 C   0  0  2  0  0  3  0  0  0  0  0  0
  194.5100  172.9130  142.8040 C   0  0  0  0  0  2  0  0  0  0  0  0
  1 22  1  0  0  0  0
  2 14  1  0  0  0  0
  4  1  1  0  0  0  0
  5  1  2  0  0  0  0
  7 16  1  6  0  0  0
  7 30  1  0  0  0  0
  7 10  1  0  0  0  0
  8  6  1  6  0  0  0
  8 12  1  0  0  0  0
  8 13  1  0  0  0  0
 10 15  1  6  0  0  0
 10 25  1  0  0  0  0
 11 24  1  6  0  0  0
 11  3  1  0  0  0  0
 12  9  1  6  0  0  0
 12  5  1  0  0  0  0
 13 27  1  1  0  0  0
 13  4  1  0  0  0  0
 14 20  2  0  0  0  0
 17  6  1  0  0  0  0
 17 21  1  0  0  0  0
 18  2  1  0  0  0  0
 19 23  1  6  0  0  0
 19 29  1  0  0  0  0
 19  3  1  0  0  0  0
 21  9  1  0  0  0  0
 22  2  2  0  0  0  0
 22 29  1  0  0  0  0
 25 23  1  1  0  0  0
 25 11  1  0  0  0  0
 26 16  1  0  0  0  0
 26 15  1  0  0  0  0
 27 30  1  0  0  0  0
 28 20  1  0  0  0  0
 29 28  1  1  0  0  0
M  END
>  <MODEL>
7

>  <REMARK>
 VINA RESULT:      -7.5      2.687      4.501
  Name = 
  0 active torsions:
  status: ('A' for Active; 'I' for Inactive)
                            x       y       z     vdW  Elec       q    Type
                         _______ _______ _______ _____ _____    ______ ____

>  <TORSDO>
F 0

$$$$
=
 OpenBabel11052417133D

 30 35  0  0  1  0  0  0  0  0999 V2000
  192.6010  174.1290  145.3310 C   0  0  0  0  0  0  0  0  0  0  0  0
  195.0490  174.4430  145.8130 C   0  0  0  0  0  0  0  0  0  0  0  0
  194.6160  170.9430  142.8610 C   0  0  0  0  0  2  0  0  0  0  0  0
  191.6670  173.4320  144.5560 O   0  0  0  0  0  0  0  0  0  0  0  0
  192.1920  175.1340  146.0450 N   0  0  0  0  0  0  0  0  0  0  0  0
  188.6700  175.7330  144.7290 C   0  0  0  0  0  2  0  0  0  0  0  0
  190.5560  171.8810  141.6970 C   0  0  2  0  0  3  0  0  0  0  0  0
  190.1640  175.4050  144.6900 C   0  0  1  0  0  3  0  0  0  0  0  0
  190.5630  176.8460  146.7020 C   0  0  0  0  0  2  0  0  0  0  0  0
  191.6570  172.8340  141.7430 N   0  0  2  0  0  0  0  0  0  0  0  0
  193.2140  170.8500  142.3020 C   0  0  1  0  0  3  0  0  0  0  0  0
  190.7700  175.4630  146.0950 C   0  0  2  0  0  3  0  0  0  0  0  0
  190.5370  174.0910  143.9690 C   0  0  2  0  0  3  0  0  0  0  0  0
  196.3980  173.8530  145.9490 C   0  0  0  0  0  3  0  0  0  0  0  0
  191.5240  173.6530  140.5390 C   0  0  0  0  0  2  0  0  0  0  0  0
  189.6120  172.3570  140.6290 C   0  0  0  0  0  2  0  0  0  0  0  0
  188.4600  177.1110  145.3530 C   0  0  0  0  0  2  0  0  0  0  0  0
  194.8930  175.8710  146.2170 C   0  0  0  0  0  1  0  0  0  0  0  0
  194.7950  172.3000  143.3820 N   0  0  1  0  0  0  0  0  0  0  0  0
  196.5780  172.5330  145.8550 C   0  0  0  0  0  3  0  0  0  0  0  0
  189.0700  177.1670  146.7540 C   0  0  0  0  0  2  0  0  0  0  0  0
  194.0250  173.6890  145.3390 C   0  0  0  0  0  0  0  0  0  0  0  0
  193.9430  173.1420  142.5380 C   0  0  0  0  0  2  0  0  0  0  0  0
  192.3550  170.5730  143.3670 O   0  0  0  0  0  1  0  0  0  0  0  0
  193.0090  172.2520  141.7300 C   0  0  2  0  0  3  0  0  0  0  0  0
  190.4000  173.1820  139.7380 N   0  0  0  0  0  2  0  0  0  0  0  0
  189.3840  173.1200  143.6760 C   0  0  0  0  0  2  0  0  0  0  0  0
  195.3940  171.6250  145.6760 C   0  0  0  0  0  2  0  0  0  0  0  0
  194.3350  172.2980  144.7880 C   0  0  2  0  0  3  0  0  0  0  0  0
  189.8440  171.7890  143.0590 C   0  0  0  0  0  2  0  0  0  0  0  0
  1 22  1  0  0  0  0
  1  5  2  0  0  0  0
  2 14  1  0  0  0  0
  2 18  1  0  0  0  0
  3 19  1  0  0  0  0
  4  1  1  0  0  0  0
  5 12  1  0  0  0  0
  6 17  1  0  0  0  0
  7 16  1  6  0  0  0
  7 10  1  0  0  0  0
  7 30  1  0  0  0  0
  8  6  1  1  0  0  0
  8 12  1  0  0  0  0
  9 21  1  0  0  0  0
 10 15  1  6  0  0  0
 11  3  1  0  0  0  0
 11 24  1  1  0  0  0
 12  9  1  6  0  0  0
 13 27  1  1  0  0  0
 13  4  1  0  0  0  0
 13  8  1  0  0  0  0
 17 21  1  0  0  0  0
 19 23  1  6  0  0  0
 19 29  1  0  0  0  0
 20 14  2  0  0  0  0
 22  2  2  0  0  0  0
 25 10  1  0  0  0  0
 25 11  1  0  0  0  0
 25 23  1  1  0  0  0
 26 15  1  0  0  0  0
 26 16  1  0  0  0  0
 28 20  1  0  0  0  0
 29 22  1  0  0  0  0
 29 28  1  1  0  0  0
 30 27  1  0  0  0  0
M  END
>  <MODEL>
8

>  <REMARK>
 VINA RESULT:      -7.4      2.858      7.526
  Name = 
  0 active torsions:
  status: ('A' for Active; 'I' for Inactive)
                            x       y       z     vdW  Elec       q    Type
                         _______ _______ _______ _____ _____    ______ ____

>  <TORSDO>
F 0

$$$$
=
 OpenBabel11052417133D

 30 35  0  0  1  0  0  0  0  0999 V2000
  190.5660  175.6020  143.6540 C   0  0  0  0  0  0  0  0  0  0  0  0
  188.1980  176.1880  144.2660 C   0  0  0  0  0  0  0  0  0  0  0  0
  188.0750  173.3810  140.6260 C   0  0  0  0  0  2  0  0  0  0  0  0
  191.3720  174.8160  142.8240 O   0  0  0  0  0  0  0  0  0  0  0  0
  191.1230  176.2500  144.6330 N   0  0  0  0  0  0  0  0  0  0  0  0
  194.6150  174.7370  144.7700 C   0  0  0  0  0  2  0  0  0  0  0  0
  192.1470  171.9790  141.0430 C   0  0  2  0  0  3  0  0  0  0  0  0
  193.0940  174.7860  144.6150 C   0  0  1  0  0  3  0  0  0  0  0  0
  192.9670  176.7480  146.1700 C   0  0  0  0  0  2  0  0  0  0  0  0
  191.1640  172.0350  142.1180 N   0  0  2  0  0  0  0  0  0  0  0  0
  189.4250  172.7590  140.3500 C   0  0  1  0  0  3  0  0  0  0  0  0
  192.5730  176.2150  144.7970 C   0  0  2  0  0  3  0  0  0  0  0  0
  192.5370  174.1440  143.3240 C   0  0  2  0  0  3  0  0  0  0  0  0
  186.8000  176.4160  143.8410 C   0  0  0  0  0  3  0  0  0  0  0  0
  191.3240  170.7900  142.8680 C   0  0  0  0  0  2  0  0  0  0  0  0
  193.0790  170.8460  141.3650 C   0  0  0  0  0  2  0  0  0  0  0  0
  195.0120  175.2870  146.1380 C   0  0  0  0  0  2  0  0  0  0  0  0
  188.5350  176.5190  145.6820 C   0  0  0  0  0  1  0  0  0  0  0  0
  188.0780  173.8470  142.0130 N   0  0  1  0  0  0  0  0  0  0  0  0
  186.4680  176.3910  142.5480 C   0  0  0  0  0  3  0  0  0  0  0  0
  194.4880  176.7120  146.3190 C   0  0  0  0  0  2  0  0  0  0  0  0
  189.1040  175.7000  143.3810 C   0  0  0  0  0  0  0  0  0  0  0  0
  188.9740  172.9250  142.7180 C   0  0  0  0  0  2  0  0  0  0  0  0
  190.3040  173.7920  140.0180 O   0  0  0  0  0  1  0  0  0  0  0  0
  189.7560  172.1140  141.6960 C   0  0  2  0  0  3  0  0  0  0  0  0
  192.3440  169.9580  142.2400 N   0  0  0  0  0  2  0  0  0  0  0  0
  193.5550  173.8400  142.2170 C   0  0  0  0  0  2  0  0  0  0  0  0
  187.5300  176.1960  141.5030 C   0  0  0  0  0  2  0  0  0  0  0  0
  188.6090  175.2280  142.0150 C   0  0  2  0  0  3  0  0  0  0  0  0
  192.9150  173.3080  140.9240 C   0  0  0  0  0  2  0  0  0  0  0  0
  1  5  2  0  0  0  0
  2 18  1  0  0  0  0
  4 13  1  0  0  0  0
  4  1  1  0  0  0  0
  5 12  1  0  0  0  0
  6 17  1  0  0  0  0
  7 30  1  1  0  0  0
  7 16  1  0  0  0  0
  7 10  1  0  0  0  0
  8  6  1  6  0  0  0
  8 12  1  0  0  0  0
  9 21  1  0  0  0  0
 10 15  1  1  0  0  0
 11 24  1  1  0  0  0
 11  3  1  0  0  0  0
 11 25  1  0  0  0  0
 12  9  1  1  0  0  0
 13 27  1  6  0  0  0
 13  8  1  0  0  0  0
 14  2  1  0  0  0  0
 16 26  1  0  0  0  0
 17 21  1  0  0  0  0
 19  3  1  6  0  0  0
 19 29  1  0  0  0  0
 19 23  1  0  0  0  0
 20 14  2  0  0  0  0
 22  1  1  0  0  0  0
 22  2  2  0  0  0  0
 25 10  1  0  0  0  0
 25 23  1  1  0  0  0
 26 15  1  0  0  0  0
 28 20  1  0  0  0  0
 29 28  1  1  0  0  0
 29 22  1  0  0  0  0
 30 27  1  0  0  0  0
M  END
>  <MODEL>
9

>  <REMARK>
 VINA RESULT:      -7.4      2.439      5.542
  Name = 
  0 active torsions:
  status: ('A' for Active; 'I' for Inactive)
                            x       y       z     vdW  Elec       q    Type
                         _______ _______ _______ _____ _____    ______ ____

>  <TORSDO>
F 0

$$$$
