=
 OpenBabel11052420213D

 34 38  0  0  1  0  0  0  0  0999 V2000
  191.4590  175.1220  143.7090 C   0  0  1  0  0  0  0  0  0  0  0  0
  195.0120  176.7690  144.5160 C   0  0  0  0  0  2  0  0  0  0  0  0
  193.0450  176.3200  145.8640 C   0  0  0  0  0  3  0  0  0  0  0  0
  191.0750  173.9420  142.8180 C   0  0  0  0  0  1  0  0  0  0  0  0
  189.8310  174.2390  145.4940 C   0  0  0  0  0  3  0  0  0  0  0  0
  189.9860  175.1220  147.8370 C   0  0  0  0  0  2  0  0  0  0  0  0
  189.2930  174.3760  146.7170 C   0  0  0  0  0  3  0  0  0  0  0  0
  191.6430  175.8530  146.1280 C   0  0  1  0  0  3  0  0  0  0  0  0
  191.2290  174.7230  145.1810 C   0  0  2  0  0  3  0  0  0  0  0  0
  191.4700  175.3810  147.5640 C   0  0  0  0  0  2  0  0  0  0  0  0
  195.9770  175.7830  143.8740 C   0  0  0  0  0  2  0  0  0  0  0  0
  195.9220  175.9030  142.3550 C   0  0  2  0  0  3  0  0  0  0  0  0
  194.7220  175.1670  141.7660 C   0  0  0  0  0  2  0  0  0  0  0  0
  193.6340  176.1920  144.6650 C   0  0  0  0  0  0  0  0  0  0  0  0
  193.4090  175.8340  142.1430 C   0  0  0  0  0  2  0  0  0  0  0  0
  192.9770  175.3960  143.5420 C   0  0  2  0  0  3  0  0  0  0  0  0
  197.1500  175.3810  141.7760 N   0  0  0  0  0  0  0  0  0  0  0  0
  197.5470  175.7600  140.5130 O   0  0  0  0  0  0  0  0  0  0  0  0
  197.8510  174.5820  142.4300 O   0  0  0  0  0  0  0  0  0  0  0  0
  190.5960  176.3590  143.3770 C   0  0  0  0  0  2  0  0  0  0  0  0
  189.5400  176.1230  142.3020 C   0  0  0  0  0  2  0  0  0  0  0  0
  186.8530  178.7160  142.4640 C   0  0  0  0  0  2  0  0  0  0  0  0
  187.6650  176.4160  143.9270 C   0  0  0  0  0  3  0  0  0  0  0  0
  184.4180  178.6390  145.4460 C   0  0  0  0  0  2  0  0  0  0  0  0
  185.2930  179.2070  144.3300 C   0  0  0  0  0  2  0  0  0  0  0  0
  185.8880  178.0920  143.4730 C   0  0  2  0  0  3  0  0  0  0  0  0
  185.8800  176.5630  145.5810 C   0  0  0  0  0  2  0  0  0  0  0  0
  186.5660  177.0510  144.3420 C   0  0  0  0  0  0  0  0  0  0  0  0
  185.2190  177.7050  146.3610 C   0  0  1  0  0  3  0  0  0  0  0  0
  188.2920  176.7600  142.6840 N   0  0  0  0  0  0  0  0  0  0  0  0
  187.6130  177.6240  141.7240 C   0  0  0  0  0  2  0  0  0  0  0  0
  186.1980  178.4450  147.2190 C   0  0  0  0  0  0  0  0  0  0  0  0
  187.3740  177.9010  147.4870 C   0  0  0  0  0  2  0  0  0  0  0  0
  185.8820  179.6920  147.7470 O   0  0  0  0  0  1  0  0  0  0  0  0
  1  4  1  6  0  0  0
  1  9  1  0  0  0  0
  2 14  1  0  0  0  0
  5  7  2  0  0  0  0
  7  6  1  0  0  0  0
  8  3  1  1  0  0  0
  8 10  1  0  0  0  0
  9  5  1  6  0  0  0
  9  8  1  0  0  0  0
 10  6  1  0  0  0  0
 11  2  1  0  0  0  0
 12 17  1  6  0  0  0
 12 11  1  0  0  0  0
 13 15  1  0  0  0  0
 13 12  1  0  0  0  0
 14  3  2  0  0  0  0
 16 15  1  6  0  0  0
 16  1  1  0  0  0  0
 16 14  1  0  0  0  0
 17 19  2  0  0  0  0
 18 17  2  0  0  0  0
 20  1  1  0  0  0  0
 21 30  1  0  0  0  0
 21 20  1  0  0  0  0
 23 28  2  0  0  0  0
 24 29  1  0  0  0  0
 25 24  1  0  0  0  0
 26 22  1  6  0  0  0
 26 25  1  0  0  0  0
 26 28  1  0  0  0  0
 27 29  1  0  0  0  0
 28 27  1  0  0  0  0
 29 32  1  6  0  0  0
 30 23  1  0  0  0  0
 31 22  1  0  0  0  0
 31 30  1  0  0  0  0
 32 33  2  0  0  0  0
 32 34  1  0  0  0  0
M  END
>  <MODEL>
1

>  <REMARK>
 VINA RESULT:      -8.7      0.000      0.000
  Name = 
  5 active torsions:
  status: ('A' for Active; 'I' for Inactive)
    1  A    between atoms: C_1  and  C_8
    2  A    between atoms: N_3  and  C_25
    3  A    between atoms: C_8  and  C_18
    4  A    between atoms: C_11  and  C_29
    5  A    between atoms: C_18  and  N_30
                            x       y       z     vdW  Elec       q    Type
                         _______ _______ _______ _____ _____    ______ ____

>  <TORSDO>
F 5

$$$$
=
 OpenBabel11052420213D

 34 38  0  0  1  0  0  0  0  0999 V2000
  189.9410  174.9860  143.0240 C   0  0  1  0  0  0  0  0  0  0  0  0
  189.6050  174.3730  146.9610 C   0  0  0  0  0  2  0  0  0  0  0  0
  189.8610  172.8810  145.0650 C   0  0  0  0  0  3  0  0  0  0  0  0
  190.6790  176.0630  142.2320 C   0  0  0  0  0  1  0  0  0  0  0  0
  190.8090  173.2330  141.3530 C   0  0  0  0  0  3  0  0  0  0  0  0
  190.6850  170.8010  141.9540 C   0  0  0  0  0  2  0  0  0  0  0  0
  190.8760  171.9450  140.9820 C   0  0  0  0  0  3  0  0  0  0  0  0
  189.9860  172.5210  143.6140 C   0  0  1  0  0  3  0  0  0  0  0  0
  190.6530  173.6360  142.8030 C   0  0  2  0  0  3  0  0  0  0  0  0
  190.7720  171.2330  143.4210 C   0  0  0  0  0  2  0  0  0  0  0  0
  190.5980  175.3780  147.5300 C   0  0  0  0  0  2  0  0  0  0  0  0
  190.0520  176.7950  147.3920 C   0  0  2  0  0  3  0  0  0  0  0  0
  190.2440  177.3480  145.9830 C   0  0  0  0  0  2  0  0  0  0  0  0
  189.8070  174.1530  145.4910 C   0  0  0  0  0  0  0  0  0  0  0  0
  189.3770  176.6200  144.9670 C   0  0  0  0  0  2  0  0  0  0  0  0
  190.0520  175.3180  144.5360 C   0  0  2  0  0  3  0  0  0  0  0  0
  190.7050  177.6690  148.3550 N   0  0  0  0  0  0  0  0  0  0  0  0
  190.1260  178.8610  148.7240 O   0  0  0  0  0  0  0  0  0  0  0  0
  191.7990  177.3330  148.8500 O   0  0  0  0  0  0  0  0  0  0  0  0
  188.4750  174.8680  142.5520 C   0  0  0  0  0  2  0  0  0  0  0  0
  188.0310  175.9660  141.5900 C   0  0  0  0  0  2  0  0  0  0  0  0
  185.9920  178.9900  142.4040 C   0  0  0  0  0  2  0  0  0  0  0  0
  186.4490  176.3950  143.4740 C   0  0  0  0  0  3  0  0  0  0  0  0
  183.9330  178.9820  145.6580 C   0  0  0  0  0  2  0  0  0  0  0  0
  184.7830  179.5150  144.5060 C   0  0  0  0  0  2  0  0  0  0  0  0
  185.0310  178.4350  143.4560 C   0  0  2  0  0  3  0  0  0  0  0  0
  184.9240  176.6600  145.3590 C   0  0  0  0  0  2  0  0  0  0  0  0
  185.5620  177.1700  144.1020 C   0  0  0  0  0  0  0  0  0  0  0  0
  184.6100  177.7900  146.3450 C   0  0  1  0  0  3  0  0  0  0  0  0
  186.9970  176.7770  142.2060 N   0  0  0  0  0  0  0  0  0  0  0  0
  186.4180  177.8830  141.4490 C   0  0  0  0  0  2  0  0  0  0  0  0
  185.8110  178.1960  147.1420 C   0  0  0  0  0  0  0  0  0  0  0  0
  186.7150  177.2870  147.4710 C   0  0  0  0  0  2  0  0  0  0  0  0
  185.9820  179.5140  147.5510 O   0  0  0  0  0  1  0  0  0  0  0  0
  1  4  1  6  0  0  0
  1 16  1  0  0  0  0
  2 11  1  0  0  0  0
  3 14  2  0  0  0  0
  6 10  1  0  0  0  0
  7  5  2  0  0  0  0
  7  6  1  0  0  0  0
  8 10  1  1  0  0  0
  8  3  1  0  0  0  0
  9  5  1  6  0  0  0
  9  1  1  0  0  0  0
  9  8  1  0  0  0  0
 12 11  1  0  0  0  0
 12 17  1  1  0  0  0
 13 12  1  0  0  0  0
 14  2  1  0  0  0  0
 15 13  1  0  0  0  0
 16 15  1  1  0  0  0
 16 14  1  0  0  0  0
 17 18  2  0  0  0  0
 17 19  2  0  0  0  0
 20  1  1  0  0  0  0
 21 30  1  0  0  0  0
 21 20  1  0  0  0  0
 23 28  2  0  0  0  0
 24 29  1  0  0  0  0
 25 24  1  0  0  0  0
 26 22  1  6  0  0  0
 26 28  1  0  0  0  0
 26 25  1  0  0  0  0
 27 29  1  0  0  0  0
 28 27  1  0  0  0  0
 29 32  1  6  0  0  0
 30 23  1  0  0  0  0
 31 30  1  0  0  0  0
 31 22  1  0  0  0  0
 32 33  2  0  0  0  0
 32 34  1  0  0  0  0
M  END
>  <MODEL>
2

>  <REMARK>
 VINA RESULT:      -8.4      3.605      4.778
  Name = 
  5 active torsions:
  status: ('A' for Active; 'I' for Inactive)
    1  A    between atoms: C_1  and  C_8
    2  A    between atoms: N_3  and  C_25
    3  A    between atoms: C_8  and  C_18
    4  A    between atoms: C_11  and  C_29
    5  A    between atoms: C_18  and  N_30
                            x       y       z     vdW  Elec       q    Type
                         _______ _______ _______ _____ _____    ______ ____

>  <TORSDO>
F 5

$$$$
=
 OpenBabel11052420213D

 34 38  0  0  1  0  0  0  0  0999 V2000
  189.8530  175.5810  145.7220 C   0  0  1  0  0  0  0  0  0  0  0  0
  187.2530  177.9460  143.8170 C   0  0  0  0  0  2  0  0  0  0  0  0
  188.9190  176.3560  143.0530 C   0  0  0  0  0  3  0  0  0  0  0  0
  189.7200  174.7710  147.0100 C   0  0  0  0  0  1  0  0  0  0  0  0
  191.0480  173.5750  144.6440 C   0  0  0  0  0  3  0  0  0  0  0  0
  191.3110  173.5020  142.1500 C   0  0  0  0  0  2  0  0  0  0  0  0
  191.6270  173.0410  143.5560 C   0  0  0  0  0  3  0  0  0  0  0  0
  190.0310  175.3600  143.2040 C   0  0  1  0  0  3  0  0  0  0  0  0
  189.9450  174.6040  144.5330 C   0  0  2  0  0  3  0  0  0  0  0  0
  190.0410  174.3540  142.0630 C   0  0  0  0  0  2  0  0  0  0  0  0
  185.9620  177.6880  144.5800 C   0  0  0  0  0  2  0  0  0  0  0  0
  186.0210  178.3430  145.9560 C   0  0  2  0  0  3  0  0  0  0  0  0
  186.8210  177.5100  146.9530 C   0  0  0  0  0  2  0  0  0  0  0  0
  188.2960  176.9080  144.1070 C   0  0  0  0  0  0  0  0  0  0  0  0
  188.3000  177.4730  146.6010 C   0  0  0  0  0  2  0  0  0  0  0  0
  188.5600  176.4170  145.5270 C   0  0  2  0  0  3  0  0  0  0  0  0
  184.6730  178.5500  146.4610 N   0  0  0  0  0  0  0  0  0  0  0  0
  183.6530  178.9090  145.6090 O   0  0  0  0  0  0  0  0  0  0  0  0
  184.4390  178.4010  147.6770 O   0  0  0  0  0  0  0  0  0  0  0  0
  191.1240  176.4580  145.7580 C   0  0  0  0  0  2  0  0  0  0  0  0
  192.2630  175.8860  146.5950 C   0  0  0  0  0  2  0  0  0  0  0  0
  194.3710  175.6920  143.5150 C   0  0  0  0  0  2  0  0  0  0  0  0
  194.5370  174.9130  146.2450 C   0  0  0  0  0  3  0  0  0  0  0  0
  197.7220  173.8050  143.7120 C   0  0  0  0  0  2  0  0  0  0  0  0
  196.4160  174.3420  143.1280 C   0  0  0  0  0  2  0  0  0  0  0  0
  195.7280  175.2970  144.1000 C   0  0  2  0  0  3  0  0  0  0  0  0
  196.7630  173.9360  146.0630 C   0  0  0  0  0  2  0  0  0  0  0  0
  195.5960  174.6660  145.4720 C   0  0  0  0  0  0  0  0  0  0  0  0
  197.4790  173.0590  145.0290 C   0  0  1  0  0  3  0  0  0  0  0  0
  193.4460  175.7140  145.7710 N   0  0  0  0  0  0  0  0  0  0  0  0
  193.5720  176.4860  144.5400 C   0  0  0  0  0  2  0  0  0  0  0  0
  196.7870  171.7470  144.8240 C   0  0  0  0  0  0  0  0  0  0  0  0
  196.0770  171.2210  145.8090 C   0  0  0  0  0  2  0  0  0  0  0  0
  196.8910  171.0680  143.6150 O   0  0  0  0  0  1  0  0  0  0  0  0
  1 20  1  0  0  0  0
  1  4  1  1  0  0  0
  2 14  1  0  0  0  0
  2 11  1  0  0  0  0
  3  8  1  0  0  0  0
  3 14  2  0  0  0  0
  6  7  1  0  0  0  0
  7  5  2  0  0  0  0
  8 10  1  6  0  0  0
  8  9  1  0  0  0  0
  9  5  1  1  0  0  0
  9  1  1  0  0  0  0
 10  6  1  0  0  0  0
 11 12  1  0  0  0  0
 12 17  1  1  0  0  0
 12 13  1  0  0  0  0
 14 16  1  0  0  0  0
 15 13  1  0  0  0  0
 16  1  1  0  0  0  0
 16 15  1  1  0  0  0
 17 19  2  0  0  0  0
 18 17  2  0  0  0  0
 20 21  1  0  0  0  0
 22 26  1  0  0  0  0
 22 31  1  0  0  0  0
 24 29  1  0  0  0  0
 25 24  1  0  0  0  0
 26 25  1  6  0  0  0
 26 28  1  0  0  0  0
 28 27  1  0  0  0  0
 28 23  2  0  0  0  0
 29 32  1  6  0  0  0
 29 27  1  0  0  0  0
 30 23  1  0  0  0  0
 30 21  1  0  0  0  0
 31 30  1  0  0  0  0
 32 33  2  0  0  0  0
 34 32  1  0  0  0  0
M  END
>  <MODEL>
3

>  <REMARK>
 VINA RESULT:      -8.2      2.394      9.161
  Name = 
  5 active torsions:
  status: ('A' for Active; 'I' for Inactive)
    1  A    between atoms: C_1  and  C_8
    2  A    between atoms: N_3  and  C_25
    3  A    between atoms: C_8  and  C_18
    4  A    between atoms: C_11  and  C_29
    5  A    between atoms: C_18  and  N_30
                            x       y       z     vdW  Elec       q    Type
                         _______ _______ _______ _____ _____    ______ ____

>  <TORSDO>
F 5

$$$$
=
 OpenBabel11052420213D

 34 38  0  0  1  0  0  0  0  0999 V2000
  189.3270  175.2440  145.2190 C   0  0  1  0  0  0  0  0  0  0  0  0
  186.8420  176.8890  142.5530 C   0  0  0  0  0  2  0  0  0  0  0  0
  188.3480  174.9880  142.4670 C   0  0  0  0  0  3  0  0  0  0  0  0
  189.1840  175.0190  146.7230 C   0  0  0  0  0  1  0  0  0  0  0  0
  190.3190  172.8800  145.0100 C   0  0  0  0  0  3  0  0  0  0  0  0
  190.4740  171.8120  142.7450 C   0  0  0  0  0  2  0  0  0  0  0  0
  190.8100  171.9140  144.2170 C   0  0  0  0  0  3  0  0  0  0  0  0
  189.3850  174.0390  142.9910 C   0  0  1  0  0  3  0  0  0  0  0  0
  189.2950  173.8750  144.5110 C   0  0  2  0  0  3  0  0  0  0  0  0
  189.2710  172.6690  142.3390 C   0  0  0  0  0  2  0  0  0  0  0  0
  185.5670  177.0640  143.3660 C   0  0  0  0  0  2  0  0  0  0  0  0
  185.7320  178.1980  144.3710 C   0  0  2  0  0  3  0  0  0  0  0  0
  186.5050  177.7570  145.6110 C   0  0  0  0  0  2  0  0  0  0  0  0
  187.8130  175.9610  143.2220 C   0  0  0  0  0  0  0  0  0  0  0  0
  187.9620  177.4560  145.2920 C   0  0  0  0  0  2  0  0  0  0  0  0
  188.0950  176.0450  144.7190 C   0  0  2  0  0  3  0  0  0  0  0  0
  184.4250  178.7040  144.7630 N   0  0  0  0  0  0  0  0  0  0  0  0
  184.0670  178.7660  146.0900 O   0  0  0  0  0  0  0  0  0  0  0  0
  183.6230  179.0840  143.8870 O   0  0  0  0  0  0  0  0  0  0  0  0
  190.6620  175.9510  144.8970 C   0  0  0  0  0  2  0  0  0  0  0  0
  191.4400  176.4190  146.1220 C   0  0  0  0  0  2  0  0  0  0  0  0
  195.1570  176.4080  145.7330 C   0  0  0  0  0  2  0  0  0  0  0  0
  193.0260  174.5250  145.7550 C   0  0  0  0  0  3  0  0  0  0  0  0
  196.9010  173.0640  144.9530 C   0  0  0  0  0  2  0  0  0  0  0  0
  196.6200  174.5660  144.9430 C   0  0  0  0  0  2  0  0  0  0  0  0
  195.4750  174.9200  145.8890 C   0  0  2  0  0  3  0  0  0  0  0  0
  194.4490  172.5740  145.4130 C   0  0  0  0  0  2  0  0  0  0  0  0
  194.2650  174.0470  145.6180 C   0  0  0  0  0  0  0  0  0  0  0  0
  195.6640  172.2630  144.5320 C   0  0  1  0  0  3  0  0  0  0  0  0
  192.7960  175.9030  146.0760 N   0  0  0  0  0  0  0  0  0  0  0  0
  193.8960  176.7570  146.5120 C   0  0  0  0  0  2  0  0  0  0  0  0
  195.3580  172.4080  143.0730 C   0  0  0  0  0  0  0  0  0  0  0  0
  194.1220  172.2140  142.6430 C   0  0  0  0  0  2  0  0  0  0  0  0
  196.3580  172.7330  142.1640 O   0  0  0  0  0  1  0  0  0  0  0  0
  1  4  1  1  0  0  0
  2 14  1  0  0  0  0
  2 11  1  0  0  0  0
  3  8  1  0  0  0  0
  3 14  2  0  0  0  0
  6  7  1  0  0  0  0
  7  5  2  0  0  0  0
  8 10  1  6  0  0  0
  8  9  1  0  0  0  0
  9  5  1  1  0  0  0
  9  1  1  0  0  0  0
 10  6  1  0  0  0  0
 11 12  1  0  0  0  0
 12 17  1  1  0  0  0
 12 13  1  0  0  0  0
 14 16  1  0  0  0  0
 15 13  1  0  0  0  0
 16  1  1  0  0  0  0
 16 15  1  6  0  0  0
 17 18  2  0  0  0  0
 19 17  2  0  0  0  0
 20  1  1  0  0  0  0
 20 21  1  0  0  0  0
 22 26  1  0  0  0  0
 22 31  1  0  0  0  0
 23 30  1  0  0  0  0
 25 24  1  0  0  0  0
 26 25  1  6  0  0  0
 27 28  1  0  0  0  0
 28 23  2  0  0  0  0
 28 26  1  0  0  0  0
 29 32  1  6  0  0  0
 29 24  1  0  0  0  0
 29 27  1  0  0  0  0
 30 21  1  0  0  0  0
 30 31  1  0  0  0  0
 33 32  2  0  0  0  0
 34 32  1  0  0  0  0
M  END
>  <MODEL>
4

>  <REMARK>
 VINA RESULT:      -8.2      2.450      8.922
  Name = 
  5 active torsions:
  status: ('A' for Active; 'I' for Inactive)
    1  A    between atoms: C_1  and  C_8
    2  A    between atoms: N_3  and  C_25
    3  A    between atoms: C_8  and  C_18
    4  A    between atoms: C_11  and  C_29
    5  A    between atoms: C_18  and  N_30
                            x       y       z     vdW  Elec       q    Type
                         _______ _______ _______ _____ _____    ______ ____

>  <TORSDO>
F 5

$$$$
=
 OpenBabel11052420213D

 34 38  0  0  1  0  0  0  0  0999 V2000
  189.8170  176.5530  144.0320 C   0  0  1  0  0  0  0  0  0  0  0  0
  186.9010  176.5590  146.7680 C   0  0  0  0  0  2  0  0  0  0  0  0
  189.2980  176.2020  146.8960 C   0  0  0  0  0  3  0  0  0  0  0  0
  190.0480  177.4330  142.8050 C   0  0  0  0  0  1  0  0  0  0  0  0
  192.3220  176.7470  144.5820 C   0  0  0  0  0  3  0  0  0  0  0  0
  193.1290  176.0960  146.8670 C   0  0  0  0  0  2  0  0  0  0  0  0
  193.3360  176.4450  145.4090 C   0  0  0  0  0  3  0  0  0  0  0  0
  190.6910  176.0550  146.3580 C   0  0  1  0  0  3  0  0  0  0  0  0
  190.9000  176.8750  145.0810 C   0  0  2  0  0  3  0  0  0  0  0  0
  191.7350  176.4660  147.3850 C   0  0  0  0  0  2  0  0  0  0  0  0
  186.1400  177.8320  146.4250 C   0  0  0  0  0  2  0  0  0  0  0  0
  185.3490  177.6430  145.1350 C   0  0  2  0  0  3  0  0  0  0  0  0
  186.2290  177.7930  143.8980 C   0  0  0  0  0  2  0  0  0  0  0  0
  188.2520  176.5180  146.1160 C   0  0  0  0  0  0  0  0  0  0  0  0
  187.2310  176.6550  143.7750 C   0  0  0  0  0  2  0  0  0  0  0  0
  188.4480  176.9270  144.6600 C   0  0  2  0  0  3  0  0  0  0  0  0
  184.2600  178.6060  145.0810 N   0  0  0  0  0  0  0  0  0  0  0  0
  183.7680  179.0410  143.8720 O   0  0  0  0  0  0  0  0  0  0  0  0
  183.7660  179.0390  146.1410 O   0  0  0  0  0  0  0  0  0  0  0  0
  189.9050  175.0570  143.6550 C   0  0  0  0  0  2  0  0  0  0  0  0
  190.5710  174.7820  142.3110 C   0  0  0  0  0  2  0  0  0  0  0  0
  193.3900  173.1060  144.1030 C   0  0  0  0  0  2  0  0  0  0  0  0
  192.9630  174.4900  141.6550 C   0  0  0  0  0  3  0  0  0  0  0  0
  196.9030  173.2660  142.5350 C   0  0  0  0  0  2  0  0  0  0  0  0
  195.8190  173.2230  143.6100 C   0  0  0  0  0  2  0  0  0  0  0  0
  194.4390  173.0060  142.9950 C   0  0  2  0  0  3  0  0  0  0  0  0
  195.2630  174.2700  140.8720 C   0  0  0  0  0  2  0  0  0  0  0  0
  194.1860  174.0000  141.8780 C   0  0  0  0  0  0  0  0  0  0  0  0
  196.6440  174.3900  141.5260 C   0  0  1  0  0  3  0  0  0  0  0  0
  191.8670  174.1600  142.5180 N   0  0  0  0  0  0  0  0  0  0  0  0
  191.9910  173.0900  143.5020 C   0  0  0  0  0  2  0  0  0  0  0  0
  196.8770  175.7490  142.1110 C   0  0  0  0  0  0  0  0  0  0  0  0
  196.2080  176.7880  141.6370 C   0  0  0  0  0  2  0  0  0  0  0  0
  197.7950  175.9340  143.1380 O   0  0  0  0  0  1  0  0  0  0  0  0
  1  4  1  6  0  0  0
  1 16  1  0  0  0  0
  1  9  1  0  0  0  0
  5  7  2  0  0  0  0
  6 10  1  0  0  0  0
  7  6  1  0  0  0  0
  8  3  1  1  0  0  0
  8 10  1  0  0  0  0
  9  5  1  6  0  0  0
  9  8  1  0  0  0  0
 11  2  1  0  0  0  0
 12 17  1  6  0  0  0
 12 11  1  0  0  0  0
 13 12  1  0  0  0  0
 14  2  1  0  0  0  0
 14  3  2  0  0  0  0
 15 13  1  0  0  0  0
 16 15  1  6  0  0  0
 16 14  1  0  0  0  0
 17 19  2  0  0  0  0
 18 17  2  0  0  0  0
 20  1  1  0  0  0  0
 21 30  1  0  0  0  0
 21 20  1  0  0  0  0
 23 28  2  0  0  0  0
 23 30  1  0  0  0  0
 24 25  1  0  0  0  0
 26 25  1  1  0  0  0
 26 22  1  0  0  0  0
 27 29  1  0  0  0  0
 27 28  1  0  0  0  0
 28 26  1  0  0  0  0
 29 32  1  1  0  0  0
 29 24  1  0  0  0  0
 30 31  1  0  0  0  0
 31 22  1  0  0  0  0
 32 34  1  0  0  0  0
 33 32  2  0  0  0  0
M  END
>  <MODEL>
5

>  <REMARK>
 VINA RESULT:      -8.1      2.056      8.767
  Name = 
  5 active torsions:
  status: ('A' for Active; 'I' for Inactive)
    1  A    between atoms: C_1  and  C_8
    2  A    between atoms: N_3  and  C_25
    3  A    between atoms: C_8  and  C_18
    4  A    between atoms: C_11  and  C_29
    5  A    between atoms: C_18  and  N_30
                            x       y       z     vdW  Elec       q    Type
                         _______ _______ _______ _____ _____    ______ ____

>  <TORSDO>
F 5

$$$$
=
 OpenBabel11052420213D

 34 38  0  0  1  0  0  0  0  0999 V2000
  189.9570  176.6920  144.0420 C   0  0  1  0  0  0  0  0  0  0  0  0
  187.0340  176.5500  146.7670 C   0  0  0  0  0  2  0  0  0  0  0  0
  189.4440  176.3010  146.9030 C   0  0  0  0  0  3  0  0  0  0  0  0
  190.1530  177.5890  142.8220 C   0  0  0  0  0  1  0  0  0  0  0  0
  192.4490  176.9960  144.6040 C   0  0  0  0  0  3  0  0  0  0  0  0
  193.2750  176.3690  146.8880 C   0  0  0  0  0  2  0  0  0  0  0  0
  193.4720  176.7350  145.4330 C   0  0  0  0  0  3  0  0  0  0  0  0
  190.8440  176.2210  146.3690 C   0  0  1  0  0  3  0  0  0  0  0  0
  191.0200  177.0560  145.0980 C   0  0  2  0  0  3  0  0  0  0  0  0
  191.8650  176.6720  147.4020 C   0  0  0  0  0  2  0  0  0  0  0  0
  186.2170  177.7890  146.4290 C   0  0  0  0  0  2  0  0  0  0  0  0
  185.4400  177.5730  145.1350 C   0  0  2  0  0  3  0  0  0  0  0  0
  186.3170  177.7690  143.9010 C   0  0  0  0  0  2  0  0  0  0  0  0
  188.3880  176.5740  146.1200 C   0  0  0  0  0  0  0  0  0  0  0  0
  187.3700  176.6780  143.7760 C   0  0  0  0  0  2  0  0  0  0  0  0
  188.5700  177.0000  144.6670 C   0  0  2  0  0  3  0  0  0  0  0  0
  184.3080  178.4850  145.0820 N   0  0  0  0  0  0  0  0  0  0  0  0
  183.8630  178.9810  143.8770 O   0  0  0  0  0  0  0  0  0  0  0  0
  183.7360  178.8190  146.1380 O   0  0  0  0  0  0  0  0  0  0  0  0
  190.1130  175.2040  143.6570 C   0  0  0  0  0  2  0  0  0  0  0  0
  190.8700  174.9650  142.3550 C   0  0  0  0  0  2  0  0  0  0  0  0
  194.3280  173.6960  141.7250 C   0  0  0  0  0  2  0  0  0  0  0  0
  192.4150  173.6710  143.8290 C   0  0  0  0  0  3  0  0  0  0  0  0
  196.0080  171.5490  144.4440 C   0  0  0  0  0  2  0  0  0  0  0  0
  195.6360  172.0590  143.0520 C   0  0  0  0  0  2  0  0  0  0  0  0
  194.7750  173.3160  143.1370 C   0  0  2  0  0  3  0  0  0  0  0  0
  193.8160  172.4230  145.3880 C   0  0  0  0  0  2  0  0  0  0  0  0
  193.5980  173.0990  144.0690 C   0  0  0  0  0  0  0  0  0  0  0  0
  194.7590  171.2220  145.2700 C   0  0  1  0  0  3  0  0  0  0  0  0
  192.1920  174.4360  142.6380 N   0  0  0  0  0  0  0  0  0  0  0  0
  193.3100  174.8270  141.7850 C   0  0  0  0  0  2  0  0  0  0  0  0
  194.0550  169.9940  144.7800 C   0  0  0  0  0  0  0  0  0  0  0  0
  194.7180  168.8520  144.6920 C   0  0  0  0  0  2  0  0  0  0  0  0
  192.7170  170.0430  144.4040 O   0  0  0  0  0  1  0  0  0  0  0  0
  1  4  1  6  0  0  0
  1 16  1  0  0  0  0
  1  9  1  0  0  0  0
  5  7  2  0  0  0  0
  6 10  1  0  0  0  0
  7  6  1  0  0  0  0
  8  3  1  1  0  0  0
  8 10  1  0  0  0  0
  9  5  1  6  0  0  0
  9  8  1  0  0  0  0
 11  2  1  0  0  0  0
 12 17  1  6  0  0  0
 12 11  1  0  0  0  0
 13 12  1  0  0  0  0
 14  2  1  0  0  0  0
 14  3  2  0  0  0  0
 15 13  1  0  0  0  0
 16 15  1  6  0  0  0
 16 14  1  0  0  0  0
 17 19  2  0  0  0  0
 18 17  2  0  0  0  0
 20  1  1  0  0  0  0
 21 30  1  0  0  0  0
 21 20  1  0  0  0  0
 22 31  1  0  0  0  0
 23 28  2  0  0  0  0
 24 29  1  0  0  0  0
 25 26  1  0  0  0  0
 25 24  1  0  0  0  0
 26 22  1  6  0  0  0
 26 28  1  0  0  0  0
 28 27  1  0  0  0  0
 29 32  1  6  0  0  0
 29 27  1  0  0  0  0
 30 23  1  0  0  0  0
 31 30  1  0  0  0  0
 33 32  2  0  0  0  0
 34 32  1  0  0  0  0
M  END
>  <MODEL>
6

>  <REMARK>
 VINA RESULT:      -7.9      3.009      8.622
  Name = 
  5 active torsions:
  status: ('A' for Active; 'I' for Inactive)
    1  A    between atoms: C_1  and  C_8
    2  A    between atoms: N_3  and  C_25
    3  A    between atoms: C_8  and  C_18
    4  A    between atoms: C_11  and  C_29
    5  A    between atoms: C_18  and  N_30
                            x       y       z     vdW  Elec       q    Type
                         _______ _______ _______ _____ _____    ______ ____

>  <TORSDO>
F 5

$$$$
=
 OpenBabel11052420213D

 34 38  0  0  1  0  0  0  0  0999 V2000
  190.9850  175.4030  143.9770 C   0  0  1  0  0  0  0  0  0  0  0  0
  193.4790  172.5590  145.2730 C   0  0  0  0  0  2  0  0  0  0  0  0
  191.2800  172.4980  144.2490 C   0  0  0  0  0  3  0  0  0  0  0  0
  191.2500  176.7190  143.2480 C   0  0  0  0  0  1  0  0  0  0  0  0
  189.0040  174.9810  142.3900 C   0  0  0  0  0  3  0  0  0  0  0  0
  188.0160  172.6800  142.2500 C   0  0  0  0  0  2  0  0  0  0  0  0
  188.0060  174.1720  142.0010 C   0  0  0  0  0  3  0  0  0  0  0  0
  190.0240  173.0780  143.6680 C   0  0  1  0  0  3  0  0  0  0  0  0
  190.2740  174.4370  143.0070 C   0  0  2  0  0  3  0  0  0  0  0  0
  189.3940  172.1420  142.6480 C   0  0  0  0  0  2  0  0  0  0  0  0
  194.8060  172.9930  144.6670 C   0  0  0  0  0  2  0  0  0  0  0  0
  195.3410  174.2230  145.3910 C   0  0  2  0  0  3  0  0  0  0  0  0
  194.6630  175.5060  144.9170 C   0  0  0  0  0  2  0  0  0  0  0  0
  192.3140  173.2610  144.6390 C   0  0  0  0  0  0  0  0  0  0  0  0
  193.2000  175.5580  145.3300 C   0  0  0  0  0  2  0  0  0  0  0  0
  192.3470  174.7570  144.3460 C   0  0  2  0  0  3  0  0  0  0  0  0
  196.7780  174.3260  145.1910 N   0  0  0  0  0  0  0  0  0  0  0  0
  197.6540  173.7870  146.1070 O   0  0  0  0  0  0  0  0  0  0  0  0
  197.2210  174.9060  144.1800 O   0  0  0  0  0  0  0  0  0  0  0  0
  190.0870  175.6340  145.2120 C   0  0  0  0  0  2  0  0  0  0  0  0
  190.0070  177.0860  145.6720 C   0  0  0  0  0  2  0  0  0  0  0  0
  186.5440  176.8140  147.0500 C   0  0  0  0  0  2  0  0  0  0  0  0
  187.9150  178.3010  145.0510 C   0  0  0  0  0  3  0  0  0  0  0  0
  183.7520  178.8850  145.3940 C   0  0  0  0  0  2  0  0  0  0  0  0
  184.4340  177.7210  146.1110 C   0  0  0  0  0  2  0  0  0  0  0  0
  185.8820  178.0590  146.4580 C   0  0  2  0  0  3  0  0  0  0  0  0
  185.9610  179.5770  144.3440 C   0  0  0  0  0  2  0  0  0  0  0  0
  186.6210  178.5720  145.2370 C   0  0  0  0  0  0  0  0  0  0  0  0
  184.4850  179.2480  144.0970 C   0  0  1  0  0  3  0  0  0  0  0  0
  188.6280  177.4430  145.9520 N   0  0  0  0  0  0  0  0  0  0  0  0
  188.0380  177.0510  147.2270 C   0  0  0  0  0  2  0  0  0  0  0  0
  184.3070  178.2110  143.0310 C   0  0  0  0  0  0  0  0  0  0  0  0
  183.2730  178.2910  142.2090 C   0  0  0  0  0  2  0  0  0  0  0  0
  185.2080  177.1600  142.9010 O   0  0  0  0  0  1  0  0  0  0  0  0
  1  4  1  6  0  0  0
  1 16  1  0  0  0  0
  1 20  1  0  0  0  0
  3 14  2  0  0  0  0
  6 10  1  0  0  0  0
  7  6  1  0  0  0  0
  7  5  2  0  0  0  0
  8 10  1  6  0  0  0
  8  3  1  0  0  0  0
  9  5  1  1  0  0  0
  9  8  1  0  0  0  0
  9  1  1  0  0  0  0
 11  2  1  0  0  0  0
 11 12  1  0  0  0  0
 12 17  1  6  0  0  0
 13 15  1  0  0  0  0
 13 12  1  0  0  0  0
 14  2  1  0  0  0  0
 16 14  1  0  0  0  0
 16 15  1  1  0  0  0
 17 18  2  0  0  0  0
 19 17  2  0  0  0  0
 20 21  1  0  0  0  0
 21 30  1  0  0  0  0
 22 31  1  0  0  0  0
 23 28  2  0  0  0  0
 23 30  1  0  0  0  0
 24 25  1  0  0  0  0
 26 25  1  6  0  0  0
 26 22  1  0  0  0  0
 27 28  1  0  0  0  0
 28 26  1  0  0  0  0
 29 32  1  6  0  0  0
 29 27  1  0  0  0  0
 29 24  1  0  0  0  0
 30 31  1  0  0  0  0
 33 32  2  0  0  0  0
 34 32  1  0  0  0  0
M  END
>  <MODEL>
7

>  <REMARK>
 VINA RESULT:      -7.9      2.230      3.889
  Name = 
  5 active torsions:
  status: ('A' for Active; 'I' for Inactive)
    1  A    between atoms: C_1  and  C_8
    2  A    between atoms: N_3  and  C_25
    3  A    between atoms: C_8  and  C_18
    4  A    between atoms: C_11  and  C_29
    5  A    between atoms: C_18  and  N_30
                            x       y       z     vdW  Elec       q    Type
                         _______ _______ _______ _____ _____    ______ ____

>  <TORSDO>
F 5

$$$$
=
 OpenBabel11052420213D

 34 38  0  0  1  0  0  0  0  0999 V2000
  189.6860  175.4860  145.7160 C   0  0  1  0  0  0  0  0  0  0  0  0
  186.9360  177.5500  143.6740 C   0  0  0  0  0  2  0  0  0  0  0  0
  188.5100  175.8120  143.0490 C   0  0  0  0  0  3  0  0  0  0  0  0
  189.6690  174.9140  147.1310 C   0  0  0  0  0  1  0  0  0  0  0  0
  190.7580  173.2960  144.8970 C   0  0  0  0  0  3  0  0  0  0  0  0
  190.7840  172.7880  142.4400 C   0  0  0  0  0  2  0  0  0  0  0  0
  191.2270  172.5690  143.8700 C   0  0  0  0  0  3  0  0  0  0  0  0
  189.6240  174.8300  143.2680 C   0  0  1  0  0  3  0  0  0  0  0  0
  189.6570  174.3170  144.7110 C   0  0  2  0  0  3  0  0  0  0  0  0
  189.5180  173.6430  142.3240 C   0  0  0  0  0  2  0  0  0  0  0  0
  185.7210  177.4580  144.5860 C   0  0  0  0  0  2  0  0  0  0  0  0
  185.9150  178.3390  145.8150 C   0  0  2  0  0  3  0  0  0  0  0  0
  186.7990  177.6710  146.8640 C   0  0  0  0  0  2  0  0  0  0  0  0
  187.9940  176.5520  144.0430 C   0  0  0  0  0  0  0  0  0  0  0  0
  188.2380  177.5390  146.3900 C   0  0  0  0  0  2  0  0  0  0  0  0
  188.3870  176.3070  145.4970 C   0  0  2  0  0  3  0  0  0  0  0  0
  184.6220  178.6630  146.3970 N   0  0  0  0  0  0  0  0  0  0  0  0
  183.5430  178.9510  145.5930 O   0  0  0  0  0  0  0  0  0  0  0  0
  184.4900  178.6790  147.6370 O   0  0  0  0  0  0  0  0  0  0  0  0
  190.9610  176.3260  145.4810 C   0  0  0  0  0  2  0  0  0  0  0  0
  192.0670  176.0950  146.5060 C   0  0  0  0  0  2  0  0  0  0  0  0
  195.3060  177.3740  145.1510 C   0  0  0  0  0  2  0  0  0  0  0  0
  193.6450  175.0840  144.8550 C   0  0  0  0  0  3  0  0  0  0  0  0
  197.0810  175.3200  142.4190 C   0  0  0  0  0  2  0  0  0  0  0  0
  196.6030  176.5380  143.2070 C   0  0  0  0  0  2  0  0  0  0  0  0
  195.8720  176.1210  144.4810 C   0  0  2  0  0  3  0  0  0  0  0  0
  195.0940  173.9650  143.2440 C   0  0  0  0  0  2  0  0  0  0  0  0
  194.7920  175.1020  144.1710 C   0  0  0  0  0  0  0  0  0  0  0  0
  195.9080  174.4150  142.0260 C   0  0  1  0  0  3  0  0  0  0  0  0
  193.3600  176.0800  145.8460 N   0  0  0  0  0  0  0  0  0  0  0  0
  194.4060  176.9830  146.3150 C   0  0  0  0  0  2  0  0  0  0  0  0
  195.0460  175.0250  140.9640 C   0  0  0  0  0  0  0  0  0  0  0  0
  193.8100  174.5840  140.7920 C   0  0  0  0  0  2  0  0  0  0  0  0
  195.5320  176.0410  140.1490 O   0  0  0  0  0  1  0  0  0  0  0  0
  1  4  1  1  0  0  0
  2 14  1  0  0  0  0
  2 11  1  0  0  0  0
  3  8  1  0  0  0  0
  3 14  2  0  0  0  0
  6  7  1  0  0  0  0
  7  5  2  0  0  0  0
  8 10  1  6  0  0  0
  8  9  1  0  0  0  0
  9  5  1  6  0  0  0
  9  1  1  0  0  0  0
 10  6  1  0  0  0  0
 11 12  1  0  0  0  0
 12 17  1  1  0  0  0
 12 13  1  0  0  0  0
 14 16  1  0  0  0  0
 15 13  1  0  0  0  0
 16  1  1  0  0  0  0
 16 15  1  6  0  0  0
 17 19  2  0  0  0  0
 18 17  2  0  0  0  0
 20  1  1  0  0  0  0
 20 21  1  0  0  0  0
 22 31  1  0  0  0  0
 23 30  1  0  0  0  0
 24 25  1  0  0  0  0
 26 25  1  6  0  0  0
 26 22  1  0  0  0  0
 27 28  1  0  0  0  0
 28 26  1  0  0  0  0
 28 23  2  0  0  0  0
 29 32  1  6  0  0  0
 29 24  1  0  0  0  0
 29 27  1  0  0  0  0
 30 31  1  0  0  0  0
 30 21  1  0  0  0  0
 33 32  2  0  0  0  0
 34 32  1  0  0  0  0
M  END
>  <MODEL>
8

>  <REMARK>
 VINA RESULT:      -7.9      1.966      8.868
  Name = 
  5 active torsions:
  status: ('A' for Active; 'I' for Inactive)
    1  A    between atoms: C_1  and  C_8
    2  A    between atoms: N_3  and  C_25
    3  A    between atoms: C_8  and  C_18
    4  A    between atoms: C_11  and  C_29
    5  A    between atoms: C_18  and  N_30
                            x       y       z     vdW  Elec       q    Type
                         _______ _______ _______ _____ _____    ______ ____

>  <TORSDO>
F 5

$$$$
=
 OpenBabel11052420213D

 34 38  0  0  1  0  0  0  0  0999 V2000
  189.5040  176.0340  144.0040 C   0  0  1  0  0  0  0  0  0  0  0  0
  186.2260  176.7900  146.1650 C   0  0  0  0  0  2  0  0  0  0  0  0
  188.4770  176.0960  146.7500 C   0  0  0  0  0  3  0  0  0  0  0  0
  190.0750  176.7230  142.7660 C   0  0  0  0  0  1  0  0  0  0  0  0
  191.8840  175.9140  144.9730 C   0  0  0  0  0  3  0  0  0  0  0  0
  192.1900  175.4170  147.4130 C   0  0  0  0  0  2  0  0  0  0  0  0
  192.6860  175.5610  145.9910 C   0  0  0  0  0  3  0  0  0  0  0  0
  189.8940  175.6820  146.4840 C   0  0  1  0  0  3  0  0  0  0  0  0
  190.4410  176.3090  145.1970 C   0  0  2  0  0  3  0  0  0  0  0  0
  190.8120  176.0480  147.6400 C   0  0  0  0  0  2  0  0  0  0  0  0
  185.7540  178.1140  145.5820 C   0  0  0  0  0  2  0  0  0  0  0  0
  185.1620  177.8990  144.1930 C   0  0  2  0  0  3  0  0  0  0  0  0
  186.2440  177.7720  143.1240 C   0  0  0  0  0  2  0  0  0  0  0  0
  187.6390  176.4730  145.7710 C   0  0  0  0  0  0  0  0  0  0  0  0
  187.0480  176.4910  143.2820 C   0  0  0  0  0  2  0  0  0  0  0  0
  188.1340  176.6780  144.3420 C   0  0  2  0  0  3  0  0  0  0  0  0
  184.2720  179.0010  143.8620 N   0  0  0  0  0  0  0  0  0  0  0  0
  183.1390  178.7840  143.1110 O   0  0  0  0  0  0  0  0  0  0  0  0
  184.5380  180.1510  144.2620 O   0  0  0  0  0  0  0  0  0  0  0  0
  189.4010  174.5090  143.7810 C   0  0  0  0  0  2  0  0  0  0  0  0
  190.0540  174.0130  142.4950 C   0  0  0  0  0  2  0  0  0  0  0  0
  192.4380  171.7470  144.2700 C   0  0  0  0  0  2  0  0  0  0  0  0
  192.5480  173.9000  142.4150 C   0  0  0  0  0  3  0  0  0  0  0  0
  196.2140  172.3430  143.8050 C   0  0  0  0  0  2  0  0  0  0  0  0
  194.9010  171.9620  144.4860 C   0  0  0  0  0  2  0  0  0  0  0  0
  193.7350  172.0060  143.5020 C   0  0  2  0  0  3  0  0  0  0  0  0
  194.9790  173.9020  142.2210 C   0  0  0  0  0  2  0  0  0  0  0  0
  193.7050  173.3310  142.7640 C   0  0  0  0  0  0  0  0  0  0  0  0
  196.1430  173.7530  143.2070 C   0  0  1  0  0  3  0  0  0  0  0  0
  191.2940  173.3230  142.8030 N   0  0  0  0  0  0  0  0  0  0  0  0
  191.2380  171.9760  143.3620 C   0  0  0  0  0  2  0  0  0  0  0  0
  196.1350  174.8200  144.2580 C   0  0  0  0  0  0  0  0  0  0  0  0
  195.7790  176.0530  143.9340 C   0  0  0  0  0  2  0  0  0  0  0  0
  196.5090  174.5350  145.5660 O   0  0  0  0  0  1  0  0  0  0  0  0
  1  4  1  6  0  0  0
  1 16  1  0  0  0  0
  1  9  1  0  0  0  0
  5  7  2  0  0  0  0
  6 10  1  0  0  0  0
  7  6  1  0  0  0  0
  8  3  1  1  0  0  0
  8 10  1  0  0  0  0
  9  5  1  6  0  0  0
  9  8  1  0  0  0  0
 11  2  1  0  0  0  0
 12 17  1  6  0  0  0
 12 11  1  0  0  0  0
 13 15  1  0  0  0  0
 13 12  1  0  0  0  0
 14  2  1  0  0  0  0
 14  3  2  0  0  0  0
 16 15  1  6  0  0  0
 16 14  1  0  0  0  0
 17 19  2  0  0  0  0
 18 17  2  0  0  0  0
 20  1  1  0  0  0  0
 21 30  1  0  0  0  0
 21 20  1  0  0  0  0
 23 28  2  0  0  0  0
 23 30  1  0  0  0  0
 24 25  1  0  0  0  0
 26 22  1  1  0  0  0
 26 25  1  0  0  0  0
 27 28  1  0  0  0  0
 27 29  1  0  0  0  0
 28 26  1  0  0  0  0
 29 24  1  0  0  0  0
 29 32  1  1  0  0  0
 30 31  1  0  0  0  0
 31 22  1  0  0  0  0
 32 34  1  0  0  0  0
 33 32  2  0  0  0  0
M  END
>  <MODEL>
9

>  <REMARK>
 VINA RESULT:      -7.8      2.381      8.527
  Name = 
  5 active torsions:
  status: ('A' for Active; 'I' for Inactive)
    1  A    between atoms: C_1  and  C_8
    2  A    between atoms: N_3  and  C_25
    3  A    between atoms: C_8  and  C_18
    4  A    between atoms: C_11  and  C_29
    5  A    between atoms: C_18  and  N_30
                            x       y       z     vdW  Elec       q    Type
                         _______ _______ _______ _____ _____    ______ ____

>  <TORSDO>
F 5

$$$$
