=
 OpenBabel11052418253D

 27 31  0  0  1  0  0  0  0  0999 V2000
  190.6440  175.3400  144.8260 N   0  0  0  0  0  0  0  0  0  0  0  0
  188.4390  175.8080  143.7820 C   0  0  0  0  0  0  0  0  0  0  0  0
  188.6440  177.1340  145.9360 N   0  0  0  0  0  0  0  0  0  0  0  0
  184.8160  177.7020  143.0920 C   0  0  0  0  0  3  0  0  0  0  0  0
  183.0680  179.2890  143.7160 F   0  0  0  0  0  0  0  0  0  0  0  0
  187.6530  175.5620  142.6900 N   0  0  0  0  0  0  0  0  0  0  0  0
  186.2300  178.4370  145.4880 C   0  0  0  0  0  3  0  0  0  0  0  0
  191.2770  177.3490  148.3450 C   0  0  0  0  0  0  0  0  0  0  0  0
  184.9080  179.0520  145.1150 C   0  0  0  0  0  3  0  0  0  0  0  0
  191.5290  178.0420  149.6350 C   0  0  0  0  0  1  0  0  0  0  0  0
  186.7410  177.4140  144.4890 C   0  0  0  0  0  0  0  0  0  0  0  0
  189.6070  175.1210  143.8630 C   0  0  0  0  0  0  0  0  0  0  0  0
  184.2560  178.7080  144.0060 C   0  0  0  0  0  0  0  0  0  0  0  0
  185.9860  177.1090  143.3420 C   0  0  0  0  0  0  0  0  0  0  0  0
  190.7810  176.0380  145.9060 C   0  0  2  0  0  3  0  0  0  0  0  0
  187.9790  176.7690  144.7220 C   0  0  0  0  0  0  0  0  0  0  0  0
  190.0550  177.5060  147.6930 C   0  0  0  0  0  3  0  0  0  0  0  0
  186.4690  176.1700  142.4510 C   0  0  0  0  0  3  0  0  0  0  0  0
  192.2620  176.5510  147.7760 C   0  0  0  0  0  3  0  0  0  0  0  0
  192.0090  175.9020  146.5690 C   0  0  0  0  0  3  0  0  0  0  0  0
  189.7900  176.8680  146.4730 C   0  0  0  0  0  0  0  0  0  0  0  0
  190.6900  172.1490  140.9950 C   0  0  0  0  0  3  0  0  0  0  0  0
  189.9400  174.0770  142.8580 C   0  0  0  0  0  0  0  0  0  0  0  0
  189.5070  172.7500  143.0030 C   0  0  0  0  0  3  0  0  0  0  0  0
  189.8750  171.7830  142.0680 C   0  0  0  0  0  3  0  0  0  0  0  0
  191.1200  173.4340  140.8730 N   0  0  0  0  0  0  0  0  0  0  0  0
  190.7710  174.3910  141.7740 C   0  0  0  0  0  3  0  0  0  0  0  0
  1 15  1  0  0  0  0
  2 12  1  0  0  0  0
  2 16  1  0  0  0  0
  3 21  2  0  0  0  0
  4 14  1  0  0  0  0
  4 13  2  0  0  0  0
  5 13  1  0  0  0  0
  6  2  2  0  0  0  0
  8 10  1  0  0  0  0
  9  7  2  0  0  0  0
 11 16  2  0  0  0  0
 11  7  1  0  0  0  0
 12  1  2  0  0  0  0
 13  9  1  0  0  0  0
 14 11  1  0  0  0  0
 15 21  1  0  0  0  0
 15 20  1  1  0  0  0
 16  3  1  0  0  0  0
 17  8  2  0  0  0  0
 18  6  1  0  0  0  0
 18 14  2  0  0  0  0
 19  8  1  0  0  0  0
 20 19  2  0  0  0  0
 21 17  1  0  0  0  0
 22 25  1  0  0  0  0
 23 24  1  0  0  0  0
 23 12  1  0  0  0  0
 25 24  2  0  0  0  0
 26 22  2  0  0  0  0
 26 27  1  0  0  0  0
 27 23  2  0  0  0  0
M  END
>  <MODEL>
1

>  <REMARK>
 VINA RESULT:      -8.3      0.000      0.000
  Name = 
  1 active torsions:
  status: ('A' for Active; 'I' for Inactive)
    1  A    between atoms: C_9  and  C_15
                            x       y       z     vdW  Elec       q    Type
                         _______ _______ _______ _____ _____    ______ ____

>  <TORSDO>
F 1

$$$$
=
 OpenBabel11052418253D

 27 31  0  0  0  0  0  0  0  0999 V2000
  190.9420  174.8870  142.8840 N   0  0  0  0  0  0  0  0  0  0  0  0
  189.6020  176.2830  144.4420 C   0  0  0  0  0  0  0  0  0  0  0  0
  188.2170  175.7630  142.3800 N   0  0  0  0  0  0  0  0  0  0  0  0
  186.2750  178.1430  146.0720 C   0  0  0  0  0  3  0  0  0  0  0  0
  183.9370  178.8410  145.9690 F   0  0  0  0  0  0  0  0  0  0  0  0
  189.5970  176.8810  145.6720 N   0  0  0  0  0  0  0  0  0  0  0  0
  185.9630  176.9830  143.4580 C   0  0  0  0  0  2  0  0  0  0  0  0
  188.9630  173.8760  139.4380 C   0  0  0  0  0  0  0  0  0  0  0  0
  184.8340  177.6830  144.1650 C   0  0  0  0  0  3  0  0  0  0  0  0
  188.2850  173.5120  138.1670 C   0  0  0  0  0  1  0  0  0  0  0  0
  187.2590  176.9420  144.2480 C   0  0  0  0  0  0  0  0  0  0  0  0
  190.7630  175.7000  144.0500 C   0  0  0  0  0  0  0  0  0  0  0  0
  184.9830  178.2200  145.3750 C   0  0  0  0  0  0  0  0  0  0  0  0
  187.3290  177.5370  145.5210 C   0  0  0  0  0  0  0  0  0  0  0  0
  190.2370  174.5800  141.8440 C   0  0  0  0  0  0  0  0  0  0  0  0
  188.3940  176.3040  143.6930 C   0  0  0  0  0  0  0  0  0  0  0  0
  188.3200  174.6920  140.3660 C   0  0  0  0  0  3  0  0  0  0  0  0
  188.5210  177.4920  146.2180 C   0  0  0  0  0  3  0  0  0  0  0  0
  190.2380  173.3950  139.7120 C   0  0  0  0  0  3  0  0  0  0  0  0
  190.8650  173.7500  140.9050 C   0  0  0  0  0  3  0  0  0  0  0  0
  188.9330  175.0480  141.5760 C   0  0  0  0  0  0  0  0  0  0  0  0
  194.3140  175.9160  146.4120 C   0  0  0  0  0  3  0  0  0  0  0  0
  191.9870  175.8160  144.8860 C   0  0  0  0  0  0  0  0  0  0  0  0
  192.8860  176.8820  144.7320 C   0  0  0  0  0  3  0  0  0  0  0  0
  194.0500  176.9390  145.4990 C   0  0  0  0  0  3  0  0  0  0  0  0
  193.4460  174.8770  146.5410 N   0  0  0  0  0  0  0  0  0  0  0  0
  192.3060  174.8040  145.8020 C   0  0  0  0  0  3  0  0  0  0  0  0
  1 12  1  0  0  0  0
  2  6  1  0  0  0  0
  3 16  1  0  0  0  0
  6 18  2  0  0  0  0
  7  9  1  0  0  0  0
  7 11  1  0  0  0  0
  8 19  1  0  0  0  0
  8 17  2  0  0  0  0
  9 13  2  0  0  0  0
 10  8  1  0  0  0  0
 11 14  1  0  0  0  0
 12  2  2  0  0  0  0
 12 23  1  0  0  0  0
 13  5  1  0  0  0  0
 13  4  1  0  0  0  0
 14  4  2  0  0  0  0
 14 18  1  0  0  0  0
 15  1  2  0  0  0  0
 16 11  2  0  0  0  0
 16  2  1  0  0  0  0
 17 21  1  0  0  0  0
 19 20  2  0  0  0  0
 20 15  1  0  0  0  0
 21 15  1  0  0  0  0
 21  3  2  0  0  0  0
 22 26  1  0  0  0  0
 23 27  1  0  0  0  0
 24 23  2  0  0  0  0
 24 25  1  0  0  0  0
 25 22  2  0  0  0  0
 27 26  2  0  0  0  0
M  END
>  <MODEL>
2

>  <REMARK>
 VINA RESULT:      -8.1      1.871      5.431
  Name = 
  1 active torsions:
  status: ('A' for Active; 'I' for Inactive)
    1  A    between atoms: C_9  and  C_15
                            x       y       z     vdW  Elec       q    Type
                         _______ _______ _______ _____ _____    ______ ____

>  <TORSDO>
F 1

$$$$
=
 OpenBabel11052418253D

 27 31  0  0  1  0  0  0  0  0999 V2000
  190.6700  175.2350  142.6360 N   0  0  0  0  0  0  0  0  0  0  0  0
  188.3080  175.7350  143.2200 C   0  0  0  0  0  0  0  0  0  0  0  0
  189.8170  176.4740  145.1220 N   0  0  0  0  0  0  0  0  0  0  0  0
  185.1020  177.3750  145.2750 C   0  0  0  0  0  3  0  0  0  0  0  0
  184.1570  178.5660  147.1850 F   0  0  0  0  0  0  0  0  0  0  0  0
  187.0200  175.7020  142.7620 N   0  0  0  0  0  0  0  0  0  0  0  0
  187.6900  177.6030  146.5110 C   0  0  0  0  0  3  0  0  0  0  0  0
  193.3650  176.3210  145.5290 C   0  0  0  0  0  0  0  0  0  0  0  0
  186.4440  178.1590  147.1470 C   0  0  0  0  0  3  0  0  0  0  0  0
  194.3660  176.6800  146.5670 C   0  0  0  0  0  1  0  0  0  0  0  0
  187.4540  176.9290  145.1710 C   0  0  0  0  0  0  0  0  0  0  0  0
  189.2540  175.1700  142.4290 C   0  0  0  0  0  0  0  0  0  0  0  0
  185.2480  178.0500  146.5720 C   0  0  0  0  0  0  0  0  0  0  0  0
  186.1540  176.8560  144.6370 C   0  0  0  0  0  0  0  0  0  0  0  0
  191.4570  175.6400  143.5780 C   0  0  2  0  0  3  0  0  0  0  0  0
  188.5480  176.3710  144.4690 C   0  0  0  0  0  0  0  0  0  0  0  0
  192.0070  176.5190  145.7690 C   0  0  0  0  0  3  0  0  0  0  0  0
  185.9640  176.2320  143.4200 C   0  0  0  0  0  3  0  0  0  0  0  0
  193.7790  175.7980  144.3090 C   0  0  0  0  0  3  0  0  0  0  0  0
  192.8280  175.4600  143.3480 C   0  0  0  0  0  3  0  0  0  0  0  0
  191.0390  176.1940  144.8070 C   0  0  0  0  0  0  0  0  0  0  0  0
  188.2180  173.2120  138.7780 C   0  0  0  0  0  3  0  0  0  0  0  0
  188.8690  174.4580  141.1810 C   0  0  0  0  0  0  0  0  0  0  0  0
  189.1090  173.0870  141.0110 C   0  0  0  0  0  3  0  0  0  0  0  0
  188.7780  172.4570  139.8110 C   0  0  0  0  0  3  0  0  0  0  0  0
  188.0060  174.5450  138.9460 N   0  0  0  0  0  0  0  0  0  0  0  0
  188.3210  175.1760  140.1090 C   0  0  0  0  0  3  0  0  0  0  0  0
  1 15  1  0  0  0  0
  2 16  1  0  0  0  0
  4 13  2  0  0  0  0
  6  2  2  0  0  0  0
  6 18  1  0  0  0  0
  7  9  2  0  0  0  0
  8 17  2  0  0  0  0
  8 10  1  0  0  0  0
 11  7  1  0  0  0  0
 12  1  2  0  0  0  0
 12  2  1  0  0  0  0
 13  9  1  0  0  0  0
 13  5  1  0  0  0  0
 14 11  1  0  0  0  0
 14  4  1  0  0  0  0
 15 20  1  1  0  0  0
 15 21  1  0  0  0  0
 16  3  1  0  0  0  0
 16 11  2  0  0  0  0
 18 14  2  0  0  0  0
 19  8  1  0  0  0  0
 20 19  2  0  0  0  0
 21  3  2  0  0  0  0
 21 17  1  0  0  0  0
 22 26  2  0  0  0  0
 22 25  1  0  0  0  0
 23 12  1  0  0  0  0
 24 23  1  0  0  0  0
 25 24  2  0  0  0  0
 26 27  1  0  0  0  0
 27 23  2  0  0  0  0
M  END
>  <MODEL>
3

>  <REMARK>
 VINA RESULT:      -7.9      2.083      2.598
  Name = 
  1 active torsions:
  status: ('A' for Active; 'I' for Inactive)
    1  A    between atoms: C_9  and  C_15
                            x       y       z     vdW  Elec       q    Type
                         _______ _______ _______ _____ _____    ______ ____

>  <TORSDO>
F 1

$$$$
=
 OpenBabel11052418253D

 27 31  0  0  0  0  0  0  0  0999 V2000
  189.2960  176.7670  145.8370 N   0  0  0  0  0  0  0  0  0  0  0  0
  188.3770  176.0670  143.6380 C   0  0  0  0  0  0  0  0  0  0  0  0
  190.8420  175.4690  143.7450 N   0  0  0  0  0  0  0  0  0  0  0  0
  188.1910  174.1640  139.9590 C   0  0  0  0  0  3  0  0  0  0  0  0
  189.2180  172.9030  138.1370 F   0  0  0  0  0  0  0  0  0  0  0  0
  187.2380  175.9860  142.8860 N   0  0  0  0  0  0  0  0  0  0  0  0
  190.7410  174.1660  141.2920 C   0  0  0  0  0  3  0  0  0  0  0  0
  193.2820  175.9310  146.3160 C   0  0  0  0  0  0  0  0  0  0  0  0
  190.5340  173.5070  139.9550 C   0  0  0  0  0  3  0  0  0  0  0  0
  194.7310  175.6650  146.5130 C   0  0  0  0  0  1  0  0  0  0  0  0
  189.4910  174.8120  141.8640 C   0  0  0  0  0  0  0  0  0  0  0  0
  188.2800  176.7090  144.8300 C   0  0  0  0  0  0  0  0  0  0  0  0
  189.3520  173.5090  139.3410 C   0  0  0  0  0  0  0  0  0  0  0  0
  188.2820  174.7690  141.1460 C   0  0  0  0  0  0  0  0  0  0  0  0
  190.5430  176.4360  145.9230 C   0  0  0  0  0  0  0  0  0  0  0  0
  189.5540  175.4600  143.1210 C   0  0  0  0  0  0  0  0  0  0  0  0
  192.6720  175.6180  145.1030 C   0  0  0  0  0  2  0  0  0  0  0  0
  187.1610  175.3690  141.6840 C   0  0  0  0  0  3  0  0  0  0  0  0
  192.5260  176.4830  147.3430 C   0  0  0  0  0  3  0  0  0  0  0  0
  191.1710  176.7330  147.1420 C   0  0  0  0  0  3  0  0  0  0  0  0
  191.3060  175.8530  144.8890 C   0  0  0  0  0  0  0  0  0  0  0  0
  184.6070  178.6380  145.8410 C   0  0  0  0  0  3  0  0  0  0  0  0
  187.0120  177.3790  145.2250 C   0  0  0  0  0  0  0  0  0  0  0  0
  186.1220  176.7910  146.1360 C   0  0  0  0  0  3  0  0  0  0  0  0
  184.9190  177.4220  146.4520 C   0  0  0  0  0  3  0  0  0  0  0  0
  185.4680  179.1910  144.9450 N   0  0  0  0  0  0  0  0  0  0  0  0
  186.6460  178.5910  144.6250 C   0  0  0  0  0  3  0  0  0  0  0  0
  1 15  1  0  0  0  0
  2 12  1  0  0  0  0
  3 21  2  0  0  0  0
  4 14  1  0  0  0  0
  5 13  1  0  0  0  0
  6  2  2  0  0  0  0
  7 11  1  0  0  0  0
  8 10  1  0  0  0  0
  8 19  2  0  0  0  0
  9  7  2  0  0  0  0
 11 16  2  0  0  0  0
 12 23  1  0  0  0  0
 12  1  2  0  0  0  0
 13  9  1  0  0  0  0
 13  4  2  0  0  0  0
 14 18  2  0  0  0  0
 14 11  1  0  0  0  0
 15 20  2  0  0  0  0
 16  2  1  0  0  0  0
 16  3  1  0  0  0  0
 17  8  1  0  0  0  0
 18  6  1  0  0  0  0
 20 19  1  0  0  0  0
 21 17  1  0  0  0  0
 21 15  1  0  0  0  0
 22 25  1  0  0  0  0
 23 24  1  0  0  0  0
 24 25  2  0  0  0  0
 26 22  2  0  0  0  0
 27 26  1  0  0  0  0
 27 23  2  0  0  0  0
M  END
>  <MODEL>
4

>  <REMARK>
 VINA RESULT:      -7.8      2.594      5.637
  Name = 
  1 active torsions:
  status: ('A' for Active; 'I' for Inactive)
    1  A    between atoms: C_9  and  C_15
                            x       y       z     vdW  Elec       q    Type
                         _______ _______ _______ _____ _____    ______ ____

>  <TORSDO>
F 1

$$$$
=
 OpenBabel11052418253D

 27 31  0  0  1  0  0  0  0  0999 V2000
  188.0640  174.9280  141.6550 N   0  0  0  0  0  0  0  0  0  0  0  0
  188.3470  176.2650  143.7300 C   0  0  0  0  0  0  0  0  0  0  0  0
  189.8460  174.2190  143.8390 N   0  0  0  0  0  0  0  0  0  0  0  0
  190.0160  177.5400  147.3040 C   0  0  0  0  0  3  0  0  0  0  0  0
  191.5660  177.2650  149.1710 F   0  0  0  0  0  0  0  0  0  0  0  0
  187.9810  177.4180  144.3650 N   0  0  0  0  0  0  0  0  0  0  0  0
  191.0000  175.0610  146.2230 C   0  0  0  0  0  3  0  0  0  0  0  0
  190.3690  171.5390  141.5320 C   0  0  0  0  0  0  0  0  0  0  0  0
  191.5230  175.6400  147.5110 C   0  0  0  0  0  3  0  0  0  0  0  0
  191.1720  170.2900  141.4660 C   0  0  0  0  0  1  0  0  0  0  0  0
  189.9260  175.9030  145.5570 C   0  0  0  0  0  0  0  0  0  0  0  0
  187.7230  175.9870  142.5570 C   0  0  0  0  0  0  0  0  0  0  0  0
  191.0640  176.7870  148.0080 C   0  0  0  0  0  0  0  0  0  0  0  0
  189.4980  177.1030  146.1540 C   0  0  1  0  0  3  0  0  0  0  0  0
  188.8490  173.9010  141.6770 C   0  0  0  0  0  0  0  0  0  0  0  0
  189.3580  175.4700  144.3360 C   0  0  0  0  0  0  0  0  0  0  0  0
  190.4190  172.3430  142.6690 C   0  0  0  0  0  3  0  0  0  0  0  0
  188.5150  177.8480  145.5320 C   0  0  0  0  0  3  0  0  0  0  0  0
  189.5730  171.9170  140.4570 C   0  0  0  0  0  3  0  0  0  0  0  0
  188.8210  173.0870  140.5360 C   0  0  0  0  0  3  0  0  0  0  0  0
  189.6760  173.5290  142.7590 C   0  0  0  0  0  0  0  0  0  0  0  0
  184.5400  178.3980  141.0440 C   0  0  0  0  0  3  0  0  0  0  0  0
  186.6190  176.8540  142.0660 C   0  0  0  0  0  0  0  0  0  0  0  0
  185.4970  177.1380  142.8580 C   0  0  0  0  0  3  0  0  0  0  0  0
  184.4560  177.9160  142.3510 C   0  0  0  0  0  3  0  0  0  0  0  0
  185.6240  178.1020  140.2770 N   0  0  0  0  0  0  0  0  0  0  0  0
  186.6490  177.3450  140.7530 C   0  0  0  0  0  3  0  0  0  0  0  0
  1 15  2  0  0  0  0
  1 12  1  0  0  0  0
  2 16  1  0  0  0  0
  2  6  1  0  0  0  0
  3 16  1  0  0  0  0
  4 13  2  0  0  0  0
  6 18  2  0  0  0  0
  7  9  2  0  0  0  0
  8 17  2  0  0  0  0
  9 13  1  0  0  0  0
 10  8  1  0  0  0  0
 11 14  1  0  0  0  0
 11  7  1  0  0  0  0
 12  2  2  0  0  0  0
 13  5  1  0  0  0  0
 14 18  1  1  0  0  0
 14  4  1  0  0  0  0
 15 21  1  0  0  0  0
 16 11  2  0  0  0  0
 17 21  1  0  0  0  0
 19 20  2  0  0  0  0
 19  8  1  0  0  0  0
 20 15  1  0  0  0  0
 21  3  2  0  0  0  0
 22 25  1  0  0  0  0
 23 12  1  0  0  0  0
 23 24  1  0  0  0  0
 25 24  2  0  0  0  0
 26 27  1  0  0  0  0
 26 22  2  0  0  0  0
 27 23  2  0  0  0  0
M  END
>  <MODEL>
5

>  <REMARK>
 VINA RESULT:      -7.6      2.472      6.487
  Name = 
  1 active torsions:
  status: ('A' for Active; 'I' for Inactive)
    1  A    between atoms: C_9  and  C_15
                            x       y       z     vdW  Elec       q    Type
                         _______ _______ _______ _____ _____    ______ ____

>  <TORSDO>
F 1

$$$$
=
 OpenBabel11052418253D

 27 31  0  0  0  0  0  0  0  0999 V2000
  190.0230  176.3650  145.7610 N   0  0  0  0  0  0  0  0  0  0  0  0
  188.8670  175.7310  143.6560 C   0  0  0  0  0  0  0  0  0  0  0  0
  191.3300  175.1510  143.4660 N   0  0  0  0  0  0  0  0  0  0  0  0
  188.2780  173.9510  139.9580 C   0  0  0  0  0  3  0  0  0  0  0  0
  189.1000  172.7600  137.9910 F   0  0  0  0  0  0  0  0  0  0  0  0
  187.6510  175.6660  143.0340 N   0  0  0  0  0  0  0  0  0  0  0  0
  190.9610  173.9300  140.9970 C   0  0  0  0  0  3  0  0  0  0  0  0
  194.0410  175.5470  145.7620 C   0  0  0  0  0  0  0  0  0  0  0  0
  190.6090  173.3140  139.6690 C   0  0  0  0  0  3  0  0  0  0  0  0
  195.5040  175.2870  145.7870 C   0  0  0  0  0  1  0  0  0  0  0  0
  189.7810  174.5460  141.7270 C   0  0  0  0  0  0  0  0  0  0  0  0
  188.9010  176.3320  144.8720 C   0  0  0  0  0  0  0  0  0  0  0  0
  189.3660  173.3270  139.1920 C   0  0  0  0  0  0  0  0  0  0  0  0
  188.4990  174.5170  141.1470 C   0  0  0  0  0  0  0  0  0  0  0  0
  191.2730  176.0410  145.6960 C   0  0  0  0  0  0  0  0  0  0  0  0
  189.9800  175.1510  142.9900 C   0  0  0  0  0  0  0  0  0  0  0  0
  193.3000  175.2690  144.6150 C   0  0  0  0  0  2  0  0  0  0  0  0
  187.4420  175.0890  141.8280 C   0  0  0  0  0  3  0  0  0  0  0  0
  193.4030  176.0580  146.8860 C   0  0  0  0  0  3  0  0  0  0  0  0
  192.0320  176.3030  146.8460 C   0  0  0  0  0  3  0  0  0  0  0  0
  191.9180  175.5000  144.5640 C   0  0  0  0  0  0  0  0  0  0  0  0
  185.4650  178.2030  146.5850 C   0  0  0  0  0  3  0  0  0  0  0  0
  187.6820  176.9780  145.4300 C   0  0  0  0  0  0  0  0  0  0  0  0
  187.0930  178.0930  144.8150 C   0  0  0  0  0  3  0  0  0  0  0  0
  185.9780  178.7050  145.3880 C   0  0  0  0  0  3  0  0  0  0  0  0
  186.0550  177.1330  147.1830 N   0  0  0  0  0  0  0  0  0  0  0  0
  187.1420  176.5220  146.6400 C   0  0  0  0  0  3  0  0  0  0  0  0
  2 12  1  0  0  0  0
  3 21  2  0  0  0  0
  4 14  1  0  0  0  0
  5 13  1  0  0  0  0
  6  2  1  0  0  0  0
  7 11  1  0  0  0  0
  8 10  1  0  0  0  0
  8 19  2  0  0  0  0
  9  7  2  0  0  0  0
 11 16  1  0  0  0  0
 12 23  1  0  0  0  0
 12  1  2  0  0  0  0
 13  9  1  0  0  0  0
 13  4  2  0  0  0  0
 14 11  2  0  0  0  0
 14 18  1  0  0  0  0
 15  1  1  0  0  0  0
 15 20  2  0  0  0  0
 16  3  1  0  0  0  0
 16  2  2  0  0  0  0
 17  8  1  0  0  0  0
 18  6  2  0  0  0  0
 20 19  1  0  0  0  0
 21 17  1  0  0  0  0
 21 15  1  0  0  0  0
 22 26  1  0  0  0  0
 23 27  1  0  0  0  0
 24 25  1  0  0  0  0
 24 23  2  0  0  0  0
 25 22  2  0  0  0  0
 27 26  2  0  0  0  0
M  END
>  <MODEL>
6

>  <REMARK>
 VINA RESULT:      -7.5      2.677      5.783
  Name = 
  1 active torsions:
  status: ('A' for Active; 'I' for Inactive)
    1  A    between atoms: C_9  and  C_15
                            x       y       z     vdW  Elec       q    Type
                         _______ _______ _______ _____ _____    ______ ____

>  <TORSDO>
F 1

$$$$
=
 OpenBabel11052418253D

 27 31  0  0  1  0  0  0  0  0999 V2000
  187.3660  175.6740  143.1130 N   0  0  0  0  0  0  0  0  0  0  0  0
  189.7840  175.1140  143.2280 C   0  0  0  0  0  0  0  0  0  0  0  0
  189.1810  176.6340  145.1700 N   0  0  0  0  0  0  0  0  0  0  0  0
  193.6010  174.7900  144.8120 C   0  0  0  0  0  3  0  0  0  0  0  0
  195.2710  175.3050  146.5190 F   0  0  0  0  0  0  0  0  0  0  0  0
  190.7820  174.3810  142.6500 N   0  0  0  0  0  0  0  0  0  0  0  0
  191.7250  176.4160  146.2670 C   0  0  0  0  0  3  0  0  0  0  0  0
  186.0820  178.1300  146.1350 C   0  0  0  0  0  0  0  0  0  0  0  0
  193.1420  176.2100  146.7340 C   0  0  0  0  0  3  0  0  0  0  0  0
  185.5880  179.0400  147.2010 C   0  0  0  0  0  1  0  0  0  0  0  0
  191.3860  175.6870  144.9790 C   0  0  0  0  0  0  0  0  0  0  0  0
  188.5800  175.1120  142.6010 C   0  0  0  0  0  0  0  0  0  0  0  0
  194.0070  175.4580  146.0570 C   0  0  0  0  0  0  0  0  0  0  0  0
  192.3630  174.9140  144.3270 C   0  0  0  0  0  0  0  0  0  0  0  0
  187.0330  176.4170  144.1170 C   0  0  2  0  0  3  0  0  0  0  0  0
  190.0830  175.7950  144.4400 C   0  0  0  0  0  0  0  0  0  0  0  0
  187.4300  177.7850  146.0780 C   0  0  0  0  0  3  0  0  0  0  0  0
  192.0320  174.2650  143.1530 C   0  0  0  0  0  3  0  0  0  0  0  0
  185.1990  177.6110  145.1940 C   0  0  0  0  0  3  0  0  0  0  0  0
  185.6770  176.7650  144.1960 C   0  0  0  0  0  3  0  0  0  0  0  0
  187.9250  176.9260  145.0860 C   0  0  0  0  0  0  0  0  0  0  0  0
  188.1910  173.2250  138.7900 C   0  0  0  0  0  3  0  0  0  0  0  0
  188.4130  174.4290  141.2910 C   0  0  0  0  0  0  0  0  0  0  0  0
  188.5460  173.0380  141.1640 C   0  0  0  0  0  3  0  0  0  0  0  0
  188.4300  172.4300  139.9140 C   0  0  0  0  0  3  0  0  0  0  0  0
  188.0820  174.5740  138.9210 N   0  0  0  0  0  0  0  0  0  0  0  0
  188.1920  175.1850  140.1320 C   0  0  0  0  0  3  0  0  0  0  0  0
  1 15  1  0  0  0  0
  2 16  1  0  0  0  0
  4 13  2  0  0  0  0
  6 18  1  0  0  0  0
  6  2  2  0  0  0  0
  7  9  2  0  0  0  0
  8 10  1  0  0  0  0
 11  7  1  0  0  0  0
 12  1  2  0  0  0  0
 12  2  1  0  0  0  0
 13  5  1  0  0  0  0
 13  9  1  0  0  0  0
 14  4  1  0  0  0  0
 14 11  1  0  0  0  0
 15 20  1  6  0  0  0
 15 21  1  0  0  0  0
 16 11  2  0  0  0  0
 16  3  1  0  0  0  0
 17  8  2  0  0  0  0
 18 14  2  0  0  0  0
 19  8  1  0  0  0  0
 20 19  2  0  0  0  0
 21  3  2  0  0  0  0
 21 17  1  0  0  0  0
 22 26  2  0  0  0  0
 22 25  1  0  0  0  0
 23 12  1  0  0  0  0
 24 23  1  0  0  0  0
 25 24  2  0  0  0  0
 26 27  1  0  0  0  0
 27 23  2  0  0  0  0
M  END
>  <MODEL>
7

>  <REMARK>
 VINA RESULT:      -7.5      3.149      5.747
  Name = 
  1 active torsions:
  status: ('A' for Active; 'I' for Inactive)
    1  A    between atoms: C_9  and  C_15
                            x       y       z     vdW  Elec       q    Type
                         _______ _______ _______ _____ _____    ______ ____

>  <TORSDO>
F 1

$$$$
=
 OpenBabel11052418253D

 27 31  0  0  0  0  0  0  0  0999 V2000
  189.1900  176.9110  144.2050 N   0  0  0  0  0  0  0  0  0  0  0  0
  190.2250  175.1730  142.7630 C   0  0  0  0  0  0  0  0  0  0  0  0
  187.8750  175.6590  141.9360 N   0  0  0  0  0  0  0  0  0  0  0  0
  190.7270  172.6500  139.5110 C   0  0  0  0  0  3  0  0  0  0  0  0
  189.9150  171.5980  137.4620 F   0  0  0  0  0  0  0  0  0  0  0  0
  191.3700  174.4650  142.5250 N   0  0  0  0  0  0  0  0  0  0  0  0
  188.1920  173.9930  139.7330 C   0  0  0  0  0  2  0  0  0  0  0  0
  185.3680  177.9180  143.1140 C   0  0  0  0  0  0  0  0  0  0  0  0
  188.5060  173.0550  138.6000 C   0  0  0  0  0  3  0  0  0  0  0  0
  183.9730  178.2890  142.7620 C   0  0  0  0  0  1  0  0  0  0  0  0
  189.3260  174.1660  140.7280 C   0  0  0  0  0  0  0  0  0  0  0  0
  190.2140  175.9700  143.8610 C   0  0  0  0  0  0  0  0  0  0  0  0
  189.6810  172.4340  138.5010 C   0  0  0  0  0  0  0  0  0  0  0  0
  190.5350  173.4700  140.5480 C   0  0  0  0  0  0  0  0  0  0  0  0
  188.0060  177.1990  143.7740 C   0  0  0  0  0  0  0  0  0  0  0  0
  189.1560  175.0290  141.8360 C   0  0  0  0  0  0  0  0  0  0  0  0
  186.0300  176.9230  142.3980 C   0  0  0  0  0  3  0  0  0  0  0  0
  191.5500  173.6380  141.4690 C   0  0  0  0  0  3  0  0  0  0  0  0
  186.0240  178.5700  144.1530 C   0  0  0  0  0  3  0  0  0  0  0  0
  187.3300  178.2070  144.4760 C   0  0  0  0  0  3  0  0  0  0  0  0
  187.3480  176.5550  142.7050 C   0  0  0  0  0  0  0  0  0  0  0  0
  193.5090  176.1070  146.5740 C   0  0  0  0  0  3  0  0  0  0  0  0
  191.3650  175.9730  144.8030 C   0  0  0  0  0  0  0  0  0  0  0  0
  191.3430  175.2300  145.9930 C   0  0  0  0  0  3  0  0  0  0  0  0
  192.4180  175.2900  146.8800 C   0  0  0  0  0  3  0  0  0  0  0  0
  193.5120  176.8370  145.4260 N   0  0  0  0  0  0  0  0  0  0  0  0
  192.4730  176.7920  144.5490 C   0  0  0  0  0  3  0  0  0  0  0  0
  2 12  2  0  0  0  0
  3 21  2  0  0  0  0
  4 14  2  0  0  0  0
  5 13  1  0  0  0  0
  6  2  1  0  0  0  0
  7 11  1  0  0  0  0
  8 19  1  0  0  0  0
  9  7  1  0  0  0  0
 10  8  1  0  0  0  0
 11 16  2  0  0  0  0
 12  1  1  0  0  0  0
 12 23  1  0  0  0  0
 13  9  2  0  0  0  0
 13  4  1  0  0  0  0
 14 11  1  0  0  0  0
 14 18  1  0  0  0  0
 15  1  2  0  0  0  0
 15 20  1  0  0  0  0
 16  3  1  0  0  0  0
 16  2  1  0  0  0  0
 17 21  1  0  0  0  0
 17  8  2  0  0  0  0
 18  6  2  0  0  0  0
 19 20  2  0  0  0  0
 21 15  1  0  0  0  0
 22 25  1  0  0  0  0
 23 24  1  0  0  0  0
 24 25  2  0  0  0  0
 26 22  2  0  0  0  0
 27 23  2  0  0  0  0
 27 26  1  0  0  0  0
M  END
>  <MODEL>
8

>  <REMARK>
 VINA RESULT:      -7.4      2.922      6.501
  Name = 
  1 active torsions:
  status: ('A' for Active; 'I' for Inactive)
    1  A    between atoms: C_9  and  C_15
                            x       y       z     vdW  Elec       q    Type
                         _______ _______ _______ _____ _____    ______ ____

>  <TORSDO>
F 1

$$$$
=
 OpenBabel11052418253D

 27 31  0  0  0  0  0  0  0  0999 V2000
  187.9910  175.9040  142.3950 N   0  0  0  0  0  0  0  0  0  0  0  0
  189.5140  176.1880  144.3370 C   0  0  0  0  0  0  0  0  0  0  0  0
  190.6230  174.6910  142.6130 N   0  0  0  0  0  0  0  0  0  0  0  0
  193.0150  176.0420  146.5530 C   0  0  0  0  0  3  0  0  0  0  0  0
  195.3170  175.2980  146.8880 F   0  0  0  0  0  0  0  0  0  0  0  0
  189.6750  176.8220  145.5380 N   0  0  0  0  0  0  0  0  0  0  0  0
  192.9910  174.5950  144.0660 C   0  0  0  0  0  2  0  0  0  0  0  0
  189.5110  173.5230  139.4230 C   0  0  0  0  0  0  0  0  0  0  0  0
  194.1990  174.6290  144.9640 C   0  0  0  0  0  3  0  0  0  0  0  0
  190.0210  172.6440  138.3380 C   0  0  0  0  0  1  0  0  0  0  0  0
  191.8090  175.3920  144.5870 C   0  0  0  0  0  0  0  0  0  0  0  0
  188.3150  176.3410  143.7200 C   0  0  0  0  0  0  0  0  0  0  0  0
  194.2050  175.2990  146.1140 C   0  0  0  0  0  0  0  0  0  0  0  0
  191.9010  176.0700  145.8160 C   0  0  0  0  0  0  0  0  0  0  0  0
  188.5560  175.1750  141.4890 C   0  0  0  0  0  0  0  0  0  0  0  0
  190.6140  175.4450  143.8300 C   0  0  0  0  0  0  0  0  0  0  0  0
  190.2650  173.7180  140.5780 C   0  0  0  0  0  3  0  0  0  0  0  0
  190.8100  176.7840  146.2730 C   0  0  0  0  0  3  0  0  0  0  0  0
  188.2850  174.1630  139.2860 C   0  0  0  0  0  3  0  0  0  0  0  0
  187.8160  174.9780  140.3150 C   0  0  0  0  0  3  0  0  0  0  0  0
  189.8120  174.5440  141.6170 C   0  0  0  0  0  0  0  0  0  0  0  0
  185.0830  178.4650  145.5300 C   0  0  0  0  0  3  0  0  0  0  0  0
  187.2090  177.0750  144.3900 C   0  0  0  0  0  0  0  0  0  0  0  0
  186.4640  176.4960  145.4290 C   0  0  0  0  0  3  0  0  0  0  0  0
  185.4020  177.1920  146.0070 C   0  0  0  0  0  3  0  0  0  0  0  0
  185.7990  179.0100  144.5100 N   0  0  0  0  0  0  0  0  0  0  0  0
  186.8380  178.3470  143.9340 C   0  0  0  0  0  3  0  0  0  0  0  0
  1 12  1  0  0  0  0
  2  6  1  0  0  0  0
  3 16  1  0  0  0  0
  6 18  2  0  0  0  0
  7 11  1  0  0  0  0
  7  9  1  0  0  0  0
  8 17  2  0  0  0  0
  9 13  2  0  0  0  0
 10  8  1  0  0  0  0
 11 14  1  0  0  0  0
 12  2  2  0  0  0  0
 12 23  1  0  0  0  0
 13  4  1  0  0  0  0
 13  5  1  0  0  0  0
 14 18  1  0  0  0  0
 14  4  2  0  0  0  0
 15 21  1  0  0  0  0
 15  1  2  0  0  0  0
 16  2  1  0  0  0  0
 16 11  2  0  0  0  0
 17 21  1  0  0  0  0
 19  8  1  0  0  0  0
 19 20  2  0  0  0  0
 20 15  1  0  0  0  0
 21  3  2  0  0  0  0
 22 25  1  0  0  0  0
 23 24  1  0  0  0  0
 24 25  2  0  0  0  0
 26 22  2  0  0  0  0
 27 23  2  0  0  0  0
 27 26  1  0  0  0  0
M  END
>  <MODEL>
9

>  <REMARK>
 VINA RESULT:      -7.3      3.197      7.575
  Name = 
  1 active torsions:
  status: ('A' for Active; 'I' for Inactive)
    1  A    between atoms: C_9  and  C_15
                            x       y       z     vdW  Elec       q    Type
                         _______ _______ _______ _____ _____    ______ ____

>  <TORSDO>
F 1

$$$$
