=
 OpenBabel11052420343D

 34 39  0  0  1  0  0  0  0  0999 V2000
  193.6470  173.5420  144.1320 C   0  0  1  0  0  3  0  0  0  0  0  0
  190.0590  172.5240  143.5770 C   0  0  0  0  0  3  0  0  0  0  0  0
  191.8770  171.0890  144.2790 C   0  0  0  0  0  2  0  0  0  0  0  0
  195.4170  171.7210  144.6150 C   0  0  0  0  0  0  0  0  0  0  0  0
  195.3450  170.3530  144.8050 C   0  0  0  0  0  3  0  0  0  0  0  0
  196.5640  172.5030  144.6560 O   0  0  0  0  0  1  0  0  0  0  0  0
  193.3300  171.0770  144.4310 N   0  0  0  0  0  0  0  0  0  0  0  0
  194.1350  172.1510  144.3870 C   0  0  0  0  0  0  0  0  0  0  0  0
  194.0440  169.9930  144.6880 N   0  0  0  0  0  0  0  0  0  0  0  0
  189.3960  173.7840  143.1320 C   0  0  0  0  0  2  0  0  0  0  0  0
  189.7920  174.1450  141.7370 C   0  0  0  0  0  0  0  0  0  0  0  0
  191.0580  174.4530  141.4390 C   0  0  0  0  0  3  0  0  0  0  0  0
  191.3800  172.3910  143.7040 C   0  0  0  0  0  0  0  0  0  0  0  0
  192.2090  174.3440  142.3590 C   0  0  0  0  0  3  0  0  0  0  0  0
  192.3520  173.4820  143.3760 C   0  0  0  0  0  0  0  0  0  0  0  0
  188.7460  174.2600  140.7050 C   0  0  0  0  0  0  0  0  0  0  0  0
  188.0450  175.4500  140.5560 O   0  0  0  0  0  1  0  0  0  0  0  0
  188.4770  173.2860  139.9510 O   0  0  0  0  0  0  0  0  0  0  0  0
  193.4380  174.2930  145.4410 C   0  0  0  0  0  2  0  0  0  0  0  0
  189.6080  175.2740  147.2650 C   0  0  0  0  0  2  0  0  0  0  0  0
  190.6700  176.9900  145.0470 C   0  0  0  0  0  2  0  0  0  0  0  0
  186.4780  177.0350  146.0610 C   0  0  0  0  0  0  0  0  0  0  0  0
  192.8810  175.6870  145.1800 C   0  0  2  0  0  3  0  0  0  0  0  0
  187.3420  176.1950  146.7690 C   0  0  0  0  0  3  0  0  0  0  0  0
  188.7050  176.1570  146.4570 C   0  0  0  0  0  0  0  0  0  0  0  0
  192.6750  176.4090  146.5050 C   0  0  0  0  0  2  0  0  0  0  0  0
  188.3450  177.8360  144.7410 C   0  0  0  0  0  3  0  0  0  0  0  0
  189.2150  176.9910  145.4360 C   0  0  0  0  0  0  0  0  0  0  0  0
  186.9820  177.8600  145.0510 C   0  0  0  0  0  3  0  0  0  0  0  0
  191.4790  175.8940  145.7380 C   0  0  1  0  0  0  0  0  0  0  0  0
  190.7470  174.7320  146.4130 C   0  0  0  0  0  2  0  0  0  0  0  0
  185.0240  177.0660  146.3950 C   0  0  0  0  0  2  0  0  0  0  0  0
  184.5590  178.4250  146.5030 N   0  0  0  0  0  0  0  0  0  0  0  0
  183.7150  178.8360  145.7640 O   0  0  0  0  0  0  0  0  0  0  0  0
  1  8  1  0  0  0  0
  1 19  1  1  0  0  0
  2 13  2  0  0  0  0
  3  7  1  0  0  0  0
  4  6  1  0  0  0  0
  4  5  1  0  0  0  0
  7  9  1  0  0  0  0
  8  7  1  0  0  0  0
  8  4  2  0  0  0  0
  9  5  2  0  0  0  0
 10  2  1  0  0  0  0
 11 10  1  0  0  0  0
 12 11  2  0  0  0  0
 12 14  1  0  0  0  0
 13  3  1  0  0  0  0
 14 15  2  0  0  0  0
 15 13  1  0  0  0  0
 15  1  1  0  0  0  0
 16 11  1  0  0  0  0
 17 16  1  0  0  0  0
 18 16  2  0  0  0  0
 21 28  1  0  0  0  0
 22 32  1  0  0  0  0
 22 24  1  0  0  0  0
 23 19  1  1  0  0  0
 23 30  1  0  0  0  0
 23 26  1  0  0  0  0
 25 24  2  0  0  0  0
 25 20  1  0  0  0  0
 27 29  1  0  0  0  0
 27 28  2  0  0  0  0
 28 25  1  0  0  0  0
 29 22  2  0  0  0  0
 30 21  1  6  0  0  0
 30 31  1  0  0  0  0
 30 26  1  0  0  0  0
 31 20  1  0  0  0  0
 32 33  1  0  0  0  0
 34 33  2  0  0  0  0
M  END
>  <MODEL>
1

>  <REMARK>
 VINA RESULT:      -7.9      0.000      0.000
  Name = 
  5 active torsions:
  status: ('A' for Active; 'I' for Inactive)
    1  A    between atoms: C_1  and  C_9
    2  A    between atoms: C_3  and  C_25
    3  A    between atoms: C_7  and  C_11
    4  A    between atoms: C_8  and  C_9
    5  A    between atoms: C_11  and  N_15
                            x       y       z     vdW  Elec       q    Type
                         _______ _______ _______ _____ _____    ______ ____

>  <TORSDO>
F 5

$$$$
=
 OpenBabel11052420343D

 34 39  0  0  1  0  0  0  0  0999 V2000
  187.4240  176.7920  142.6440 C   0  0  1  0  0  3  0  0  0  0  0  0
  187.2060  176.5220  146.3990 C   0  0  0  0  0  3  0  0  0  0  0  0
  185.4410  177.2100  144.8940 C   0  0  0  0  0  2  0  0  0  0  0  0
  185.4470  177.8220  141.3340 C   0  0  0  0  0  0  0  0  0  0  0  0
  184.1940  178.2710  141.7060 C   0  0  0  0  0  3  0  0  0  0  0  0
  185.9760  177.8100  140.0500 O   0  0  0  0  0  1  0  0  0  0  0  0
  185.2060  177.5750  143.4980 N   0  0  0  0  0  0  0  0  0  0  0  0
  186.0600  177.3840  142.4810 C   0  0  0  0  0  0  0  0  0  0  0  0
  184.0780  178.1000  143.0440 N   0  0  0  0  0  0  0  0  0  0  0  0
  188.5740  176.0870  146.8050 C   0  0  0  0  0  2  0  0  0  0  0  0
  189.5620  177.2010  146.6720 C   0  0  0  0  0  0  0  0  0  0  0  0
  189.8500  177.7260  145.4770 C   0  0  0  0  0  3  0  0  0  0  0  0
  186.8950  176.9190  145.1640 C   0  0  0  0  0  0  0  0  0  0  0  0
  189.1670  177.4030  144.2080 C   0  0  0  0  0  3  0  0  0  0  0  0
  187.8940  177.0100  144.0520 C   0  0  0  0  0  0  0  0  0  0  0  0
  190.2980  177.6490  147.8670 C   0  0  0  0  0  0  0  0  0  0  0  0
  191.3640  176.8990  148.3490 O   0  0  0  0  0  0  0  0  0  0  0  0
  189.9720  178.7110  148.4630 O   0  0  0  0  0  1  0  0  0  0  0  0
  187.4080  175.2990  142.3380 C   0  0  0  0  0  2  0  0  0  0  0  0
  190.4640  172.9690  144.3850 C   0  0  0  0  0  2  0  0  0  0  0  0
  191.1240  174.3110  141.7860 C   0  0  0  0  0  2  0  0  0  0  0  0
  194.2480  173.0850  144.4940 C   0  0  0  0  0  0  0  0  0  0  0  0
  188.6360  174.9010  141.5290 C   0  0  2  0  0  3  0  0  0  0  0  0
  192.9140  172.8650  144.8490 C   0  0  0  0  0  3  0  0  0  0  0  0
  191.8810  173.2580  143.9910 C   0  0  0  0  0  0  0  0  0  0  0  0
  188.7670  173.3840  141.5180 C   0  0  0  0  0  2  0  0  0  0  0  0
  193.5280  174.0640  142.3980 C   0  0  0  0  0  3  0  0  0  0  0  0
  192.1900  173.8580  142.7490 C   0  0  0  0  0  0  0  0  0  0  0  0
  194.5540  173.6790  143.2660 C   0  0  0  0  0  3  0  0  0  0  0  0
  189.7110  174.2120  142.3590 C   0  0  1  0  0  0  0  0  0  0  0  0
  189.5230  174.0480  143.8680 C   0  0  0  0  0  2  0  0  0  0  0  0
  195.3450  172.6700  145.4170 C   0  0  0  0  0  2  0  0  0  0  0  0
  196.1350  173.8090  145.8080 N   0  0  0  0  0  0  0  0  0  0  0  0
  195.6070  174.8000  146.2150 O   0  0  0  0  0  0  0  0  0  0  0  0
  1 19  1  1  0  0  0
  1 15  1  0  0  0  0
  2 10  1  0  0  0  0
  3 13  1  0  0  0  0
  4  5  1  0  0  0  0
  4  8  2  0  0  0  0
  5  9  2  0  0  0  0
  6  4  1  0  0  0  0
  7  3  1  0  0  0  0
  8  1  1  0  0  0  0
  8  7  1  0  0  0  0
  9  7  1  0  0  0  0
 11 10  1  0  0  0  0
 11 16  1  0  0  0  0
 12 11  2  0  0  0  0
 13  2  2  0  0  0  0
 14 12  1  0  0  0  0
 15 14  2  0  0  0  0
 15 13  1  0  0  0  0
 16 17  2  0  0  0  0
 16 18  1  0  0  0  0
 21 30  1  0  0  0  0
 21 28  1  0  0  0  0
 22 24  1  0  0  0  0
 22 32  1  0  0  0  0
 23 19  1  1  0  0  0
 23 30  1  0  0  0  0
 25 20  1  0  0  0  0
 25 24  2  0  0  0  0
 26 23  1  0  0  0  0
 27 28  2  0  0  0  0
 27 29  1  0  0  0  0
 28 25  1  0  0  0  0
 29 22  2  0  0  0  0
 30 26  1  6  0  0  0
 30 31  1  0  0  0  0
 31 20  1  0  0  0  0
 32 33  1  0  0  0  0
 33 34  2  0  0  0  0
M  END
>  <MODEL>
2

>  <REMARK>
 VINA RESULT:      -7.8      2.701      8.384
  Name = 
  5 active torsions:
  status: ('A' for Active; 'I' for Inactive)
    1  A    between atoms: C_1  and  C_9
    2  A    between atoms: C_3  and  C_25
    3  A    between atoms: C_7  and  C_11
    4  A    between atoms: C_8  and  C_9
    5  A    between atoms: C_11  and  N_15
                            x       y       z     vdW  Elec       q    Type
                         _______ _______ _______ _____ _____    ______ ____

>  <TORSDO>
F 5

$$$$
=
 OpenBabel11052420343D

 34 39  0  0  1  0  0  0  0  0999 V2000
  194.5760  173.9670  144.6130 C   0  0  1  0  0  3  0  0  0  0  0  0
  191.3530  172.0510  144.2110 C   0  0  0  0  0  3  0  0  0  0  0  0
  193.4770  171.1670  144.9620 C   0  0  0  0  0  2  0  0  0  0  0  0
  196.7480  172.6810  145.1730 C   0  0  0  0  0  0  0  0  0  0  0  0
  197.0210  171.3550  145.4530 C   0  0  0  0  0  3  0  0  0  0  0  0
  197.6640  173.7250  145.1350 O   0  0  0  0  0  1  0  0  0  0  0  0
  194.8870  171.5270  145.0800 N   0  0  0  0  0  0  0  0  0  0  0  0
  195.3980  172.7610  144.9480 C   0  0  0  0  0  0  0  0  0  0  0  0
  195.8520  170.6750  145.3910 N   0  0  0  0  0  0  0  0  0  0  0  0
  190.3930  173.0730  143.7010 C   0  0  0  0  0  2  0  0  0  0  0  0
  190.6770  173.4230  142.2760 C   0  0  0  0  0  0  0  0  0  0  0  0
  191.8240  174.0160  141.9280 C   0  0  0  0  0  3  0  0  0  0  0  0
  192.6660  172.2610  144.3150 C   0  0  0  0  0  0  0  0  0  0  0  0
  192.9710  174.2610  142.8260 C   0  0  0  0  0  3  0  0  0  0  0  0
  193.3330  173.5340  143.8940 C   0  0  0  0  0  0  0  0  0  0  0  0
  189.6290  173.2030  141.2640 C   0  0  0  0  0  0  0  0  0  0  0  0
  189.8140  173.6480  139.9610 O   0  0  0  0  0  0  0  0  0  0  0  0
  188.5570  172.6110  141.5670 O   0  0  0  0  0  1  0  0  0  0  0  0
  194.1950  174.7310  145.8750 C   0  0  0  0  0  2  0  0  0  0  0  0
  190.1700  175.3890  147.4020 C   0  0  0  0  0  2  0  0  0  0  0  0
  191.2140  177.1270  145.1930 C   0  0  0  0  0  2  0  0  0  0  0  0
  186.9770  176.7920  145.9250 C   0  0  0  0  0  0  0  0  0  0  0  0
  193.5260  176.0530  145.5230 C   0  0  2  0  0  3  0  0  0  0  0  0
  187.8660  176.0650  146.7210 C   0  0  0  0  0  3  0  0  0  0  0  0
  189.2450  176.1510  146.5020 C   0  0  0  0  0  0  0  0  0  0  0  0
  193.1600  176.7950  146.8020 C   0  0  0  0  0  2  0  0  0  0  0  0
  188.8450  177.7300  144.7000 C   0  0  0  0  0  3  0  0  0  0  0  0
  189.7420  176.9970  145.4840 C   0  0  0  0  0  0  0  0  0  0  0  0
  187.4690  177.6290  144.9180 C   0  0  0  0  0  3  0  0  0  0  0  0
  192.0750  176.1390  145.9790 C   0  0  1  0  0  0  0  0  0  0  0  0
  191.4120  174.9340  146.6490 C   0  0  0  0  0  2  0  0  0  0  0  0
  185.5080  176.6900  146.1600 C   0  0  0  0  0  2  0  0  0  0  0  0
  184.8450  177.9020  145.7490 N   0  0  0  0  0  0  0  0  0  0  0  0
  184.2150  178.5430  146.5360 O   0  0  0  0  0  0  0  0  0  0  0  0
  1  8  1  0  0  0  0
  1 19  1  1  0  0  0
  2 13  2  0  0  0  0
  3  7  1  0  0  0  0
  4  5  1  0  0  0  0
  6  4  1  0  0  0  0
  7  9  1  0  0  0  0
  8  7  1  0  0  0  0
  8  4  2  0  0  0  0
  9  5  2  0  0  0  0
 10  2  1  0  0  0  0
 11 10  1  0  0  0  0
 12 11  2  0  0  0  0
 12 14  1  0  0  0  0
 13  3  1  0  0  0  0
 14 15  2  0  0  0  0
 15 13  1  0  0  0  0
 15  1  1  0  0  0  0
 16 18  1  0  0  0  0
 16 11  1  0  0  0  0
 17 16  2  0  0  0  0
 21 28  1  0  0  0  0
 22 32  1  0  0  0  0
 22 24  1  0  0  0  0
 23 19  1  1  0  0  0
 23 30  1  0  0  0  0
 23 26  1  0  0  0  0
 25 24  2  0  0  0  0
 25 20  1  0  0  0  0
 27 29  1  0  0  0  0
 27 28  2  0  0  0  0
 28 25  1  0  0  0  0
 29 22  2  0  0  0  0
 30 21  1  6  0  0  0
 30 31  1  0  0  0  0
 30 26  1  0  0  0  0
 31 20  1  0  0  0  0
 33 32  1  0  0  0  0
 33 34  2  0  0  0  0
M  END
>  <MODEL>
3

>  <REMARK>
 VINA RESULT:      -7.8      1.122      1.269
  Name = 
  5 active torsions:
  status: ('A' for Active; 'I' for Inactive)
    1  A    between atoms: C_1  and  C_9
    2  A    between atoms: C_3  and  C_25
    3  A    between atoms: C_7  and  C_11
    4  A    between atoms: C_8  and  C_9
    5  A    between atoms: C_11  and  N_15
                            x       y       z     vdW  Elec       q    Type
                         _______ _______ _______ _____ _____    ______ ____

>  <TORSDO>
F 5

$$$$
=
 OpenBabel11052420343D

 34 39  0  0  1  0  0  0  0  0999 V2000
  187.7260  177.9180  144.0980 C   0  0  1  0  0  3  0  0  0  0  0  0
  189.2760  175.2410  146.2560 C   0  0  0  0  0  3  0  0  0  0  0  0
  187.1990  176.4120  146.6720 C   0  0  0  0  0  2  0  0  0  0  0  0
  185.6350  179.1760  144.9520 C   0  0  0  0  0  0  0  0  0  0  0  0
  184.8400  179.0420  146.0760 C   0  0  0  0  0  3  0  0  0  0  0  0
  185.4690  180.0960  143.9250 O   0  0  0  0  0  1  0  0  0  0  0  0
  186.4100  177.5450  146.1940 N   0  0  0  0  0  0  0  0  0  0  0  0
  186.6120  178.2170  145.0510 C   0  0  0  0  0  0  0  0  0  0  0  0
  185.3440  178.0260  146.8150 N   0  0  0  0  0  0  0  0  0  0  0  0
  190.5430  174.9010  145.5460 C   0  0  0  0  0  2  0  0  0  0  0  0
  191.5590  175.9880  145.6940 C   0  0  0  0  0  0  0  0  0  0  0  0
  191.3460  177.2030  145.1800 C   0  0  0  0  0  3  0  0  0  0  0  0
  188.5050  176.2800  145.9310 C   0  0  0  0  0  0  0  0  0  0  0  0
  190.0890  177.6660  144.5580 C   0  0  0  0  0  3  0  0  0  0  0  0
  188.8450  177.2490  144.8410 C   0  0  0  0  0  0  0  0  0  0  0  0
  192.8530  175.6740  146.3250 C   0  0  0  0  0  0  0  0  0  0  0  0
  193.6980  176.7010  146.7270 O   0  0  0  0  0  1  0  0  0  0  0  0
  193.2050  174.4770  146.5080 O   0  0  0  0  0  0  0  0  0  0  0  0
  187.2480  177.0100  142.9720 C   0  0  0  0  0  2  0  0  0  0  0  0
  188.1940  172.8040  142.3600 C   0  0  0  0  0  2  0  0  0  0  0  0
  190.1700  174.8990  141.5240 C   0  0  0  0  0  2  0  0  0  0  0  0
  191.4140  170.8190  142.1610 C   0  0  0  0  0  0  0  0  0  0  0  0
  188.3910  176.6860  142.0180 C   0  0  2  0  0  3  0  0  0  0  0  0
  190.0750  171.1630  142.3660 C   0  0  0  0  0  3  0  0  0  0  0  0
  189.6460  172.4800  142.1710 C   0  0  0  0  0  0  0  0  0  0  0  0
  187.8770  175.8040  140.8880 C   0  0  0  0  0  2  0  0  0  0  0  0
  191.9030  173.1060  141.5300 C   0  0  0  0  0  3  0  0  0  0  0  0
  190.5670  173.4630  141.7420 C   0  0  0  0  0  0  0  0  0  0  0  0
  192.3260  171.7900  141.7370 C   0  0  0  0  0  3  0  0  0  0  0  0
  188.7420  175.2050  141.9730 C   0  0  1  0  0  0  0  0  0  0  0  0
  188.0150  174.2190  142.8890 C   0  0  0  0  0  2  0  0  0  0  0  0
  191.8660  169.4130  142.3760 C   0  0  0  0  0  2  0  0  0  0  0  0
  193.0000  169.3780  143.2640 N   0  0  0  0  0  0  0  0  0  0  0  0
  192.8410  169.3630  144.4480 O   0  0  0  0  0  0  0  0  0  0  0  0
  1 19  1  6  0  0  0
  1 15  1  0  0  0  0
  1  8  1  0  0  0  0
  4  8  2  0  0  0  0
  4  5  1  0  0  0  0
  5  9  2  0  0  0  0
  6  4  1  0  0  0  0
  7  3  1  0  0  0  0
  7  9  1  0  0  0  0
  8  7  1  0  0  0  0
 10 11  1  0  0  0  0
 10  2  1  0  0  0  0
 11 16  1  0  0  0  0
 12 11  2  0  0  0  0
 13  2  2  0  0  0  0
 13  3  1  0  0  0  0
 14 15  2  0  0  0  0
 14 12  1  0  0  0  0
 15 13  1  0  0  0  0
 16 18  2  0  0  0  0
 16 17  1  0  0  0  0
 20 31  1  0  0  0  0
 21 28  1  0  0  0  0
 21 30  1  0  0  0  0
 22 24  1  0  0  0  0
 22 32  1  0  0  0  0
 23 19  1  1  0  0  0
 25 20  1  0  0  0  0
 25 24  2  0  0  0  0
 26 23  1  0  0  0  0
 27 29  1  0  0  0  0
 27 28  2  0  0  0  0
 28 25  1  0  0  0  0
 29 22  2  0  0  0  0
 30 26  1  6  0  0  0
 30 23  1  0  0  0  0
 30 31  1  0  0  0  0
 32 33  1  0  0  0  0
 33 34  2  0  0  0  0
M  END
>  <MODEL>
4

>  <REMARK>
 VINA RESULT:      -7.7      2.576      8.220
  Name = 
  5 active torsions:
  status: ('A' for Active; 'I' for Inactive)
    1  A    between atoms: C_1  and  C_9
    2  A    between atoms: C_3  and  C_25
    3  A    between atoms: C_7  and  C_11
    4  A    between atoms: C_8  and  C_9
    5  A    between atoms: C_11  and  N_15
                            x       y       z     vdW  Elec       q    Type
                         _______ _______ _______ _____ _____    ______ ____

>  <TORSDO>
F 5

$$$$
=
 OpenBabel11052420343D

 34 39  0  0  1  0  0  0  0  0999 V2000
  188.4090  176.1060  145.9160 C   0  0  1  0  0  3  0  0  0  0  0  0
  190.2030  176.4810  142.6200 C   0  0  0  0  0  3  0  0  0  0  0  0
  188.3820  177.8490  143.4390 C   0  0  0  0  0  2  0  0  0  0  0  0
  186.3180  177.5510  146.3880 C   0  0  0  0  0  0  0  0  0  0  0  0
  185.6870  178.5650  145.6900 C   0  0  0  0  0  3  0  0  0  0  0  0
  185.9420  177.0370  147.6220 O   0  0  0  0  0  1  0  0  0  0  0  0
  187.3890  177.9090  144.5100 N   0  0  0  0  0  0  0  0  0  0  0  0
  187.3880  177.1610  145.6240 C   0  0  0  0  0  0  0  0  0  0  0  0
  186.3770  178.7610  144.5410 N   0  0  0  0  0  0  0  0  0  0  0  0
  191.1990  175.3710  142.6280 C   0  0  0  0  0  2  0  0  0  0  0  0
  190.5390  174.0450  142.4260 C   0  0  0  0  0  0  0  0  0  0  0  0
  189.6740  173.5630  143.3240 C   0  0  0  0  0  3  0  0  0  0  0  0
  189.2280  176.6040  143.5220 C   0  0  0  0  0  0  0  0  0  0  0  0
  189.1630  174.2920  144.5030 C   0  0  0  0  0  3  0  0  0  0  0  0
  188.9980  175.6170  144.6250 C   0  0  0  0  0  0  0  0  0  0  0  0
  190.9330  173.2210  141.2700 C   0  0  0  0  0  0  0  0  0  0  0  0
  191.6550  173.7860  140.2260 O   0  0  0  0  0  0  0  0  0  0  0  0
  190.6220  172.0000  141.2150 O   0  0  0  0  0  1  0  0  0  0  0  0
  189.5170  176.6550  146.8060 C   0  0  0  0  0  2  0  0  0  0  0  0
  193.6900  177.1620  145.6690 C   0  0  0  0  0  2  0  0  0  0  0  0
  192.7080  174.4580  146.5150 C   0  0  0  0  0  2  0  0  0  0  0  0
  196.3330  174.8720  144.2140 C   0  0  0  0  0  0  0  0  0  0  0  0
  190.4860  175.5480  147.2050 C   0  0  2  0  0  3  0  0  0  0  0  0
  195.6040  176.0170  144.5510 C   0  0  0  0  0  3  0  0  0  0  0  0
  194.4230  175.9100  145.2920 C   0  0  0  0  0  0  0  0  0  0  0  0
  191.5910  176.1290  148.0770 C   0  0  0  0  0  2  0  0  0  0  0  0
  194.7170  173.5020  145.3900 C   0  0  0  0  0  3  0  0  0  0  0  0
  193.9760  174.6400  145.7220 C   0  0  0  0  0  0  0  0  0  0  0  0
  195.8910  173.6150  144.6400 C   0  0  0  0  0  3  0  0  0  0  0  0
  191.8900  175.7420  146.6480 C   0  0  1  0  0  0  0  0  0  0  0  0
  192.1880  176.9220  145.7210 C   0  0  0  0  0  2  0  0  0  0  0  0
  197.5890  174.9920  143.4190 C   0  0  0  0  0  2  0  0  0  0  0  0
  197.4380  175.9820  142.3820 N   0  0  0  0  0  0  0  0  0  0  0  0
  197.0030  175.6760  141.3130 O   0  0  0  0  0  0  0  0  0  0  0  0
  1 19  1  1  0  0  0
  2 10  1  0  0  0  0
  2 13  2  0  0  0  0
  3 13  1  0  0  0  0
  3  7  1  0  0  0  0
  4  6  1  0  0  0  0
  5  4  1  0  0  0  0
  7  9  1  0  0  0  0
  7  8  1  0  0  0  0
  8  1  1  0  0  0  0
  8  4  2  0  0  0  0
  9  5  2  0  0  0  0
 11 10  1  0  0  0  0
 11 12  2  0  0  0  0
 12 14  1  0  0  0  0
 13 15  1  0  0  0  0
 14 15  2  0  0  0  0
 15  1  1  0  0  0  0
 16 11  1  0  0  0  0
 17 16  2  0  0  0  0
 18 16  1  0  0  0  0
 20 31  1  0  0  0  0
 21 30  1  0  0  0  0
 22 24  2  0  0  0  0
 22 29  1  0  0  0  0
 23 19  1  6  0  0  0
 23 26  1  0  0  0  0
 24 25  1  0  0  0  0
 25 20  1  0  0  0  0
 25 28  2  0  0  0  0
 27 28  1  0  0  0  0
 28 21  1  0  0  0  0
 29 27  2  0  0  0  0
 30 31  1  6  0  0  0
 30 23  1  0  0  0  0
 30 26  1  0  0  0  0
 32 22  1  0  0  0  0
 33 32  1  0  0  0  0
 34 33  2  0  0  0  0
M  END
>  <MODEL>
5

>  <REMARK>
 VINA RESULT:      -7.5      2.624      7.607
  Name = 
  5 active torsions:
  status: ('A' for Active; 'I' for Inactive)
    1  A    between atoms: C_1  and  C_9
    2  A    between atoms: C_3  and  C_25
    3  A    between atoms: C_7  and  C_11
    4  A    between atoms: C_8  and  C_9
    5  A    between atoms: C_11  and  N_15
                            x       y       z     vdW  Elec       q    Type
                         _______ _______ _______ _____ _____    ______ ____

>  <TORSDO>
F 5

$$$$
=
 OpenBabel11052420343D

 34 39  0  0  1  0  0  0  0  0999 V2000
  188.4920  177.3230  143.6760 C   0  0  1  0  0  3  0  0  0  0  0  0
  190.6490  175.8760  146.4100 C   0  0  0  0  0  3  0  0  0  0  0  0
  188.4680  176.8920  146.6730 C   0  0  0  0  0  2  0  0  0  0  0  0
  186.3290  178.5890  144.3090 C   0  0  0  0  0  0  0  0  0  0  0  0
  185.6820  178.8210  145.5090 C   0  0  0  0  0  3  0  0  0  0  0  0
  185.9190  179.0130  143.0520 O   0  0  0  0  0  1  0  0  0  0  0  0
  187.4690  177.6610  145.9350 N   0  0  0  0  0  0  0  0  0  0  0  0
  187.4470  177.8520  144.6070 C   0  0  0  0  0  0  0  0  0  0  0  0
  186.4100  178.2320  146.4870 N   0  0  0  0  0  0  0  0  0  0  0  0
  191.8750  175.4210  145.6930 C   0  0  0  0  0  2  0  0  0  0  0  0
  192.7200  176.5780  145.2680 C   0  0  0  0  0  0  0  0  0  0  0  0
  192.2700  177.4690  144.3780 C   0  0  0  0  0  3  0  0  0  0  0  0
  189.6970  176.6200  145.8440 C   0  0  0  0  0  0  0  0  0  0  0  0
  190.9000  177.5180  143.8290 C   0  0  0  0  0  3  0  0  0  0  0  0
  189.7710  177.1170  144.4330 C   0  0  0  0  0  0  0  0  0  0  0  0
  194.1040  176.6720  145.7660 C   0  0  0  0  0  0  0  0  0  0  0  0
  194.6470  175.6320  146.5090 O   0  0  0  0  0  1  0  0  0  0  0  0
  194.8060  177.6910  145.5230 O   0  0  0  0  0  0  0  0  0  0  0  0
  188.0490  176.0040  143.0560 C   0  0  0  0  0  2  0  0  0  0  0  0
  189.8910  172.1180  143.7430 C   0  0  0  0  0  2  0  0  0  0  0  0
  191.1240  174.0080  141.7680 C   0  0  0  0  0  2  0  0  0  0  0  0
  193.4230  170.7790  143.4670 C   0  0  0  0  0  0  0  0  0  0  0  0
  189.0650  175.5240  142.0260 C   0  0  2  0  0  3  0  0  0  0  0  0
  192.0920  170.9490  143.8610 C   0  0  0  0  0  3  0  0  0  0  0  0
  191.3260  171.9910  143.3290 C   0  0  0  0  0  0  0  0  0  0  0  0
  188.6060  174.1960  141.4400 C   0  0  0  0  0  2  0  0  0  0  0  0
  193.2220  172.6770  141.9760 C   0  0  0  0  0  3  0  0  0  0  0  0
  191.8940  172.8620  142.3710 C   0  0  0  0  0  0  0  0  0  0  0  0
  193.9850  171.6400  142.5200 C   0  0  0  0  0  3  0  0  0  0  0  0
  189.7580  174.2260  142.4170 C   0  0  1  0  0  0  0  0  0  0  0  0
  189.4570  173.5770  143.7700 C   0  0  0  0  0  2  0  0  0  0  0  0
  194.2360  169.6690  144.0430 C   0  0  0  0  0  2  0  0  0  0  0  0
  194.2980  169.7790  145.4780 N   0  0  0  0  0  0  0  0  0  0  0  0
  194.8120  170.7270  145.9900 O   0  0  0  0  0  0  0  0  0  0  0  0
  1 19  1  1  0  0  0
  1 15  1  0  0  0  0
  1  8  1  0  0  0  0
  4  8  2  0  0  0  0
  4  5  1  0  0  0  0
  5  9  2  0  0  0  0
  6  4  1  0  0  0  0
  7  9  1  0  0  0  0
  7  3  1  0  0  0  0
  8  7  1  0  0  0  0
 10  2  1  0  0  0  0
 11 10  1  0  0  0  0
 11 16  1  0  0  0  0
 12 11  2  0  0  0  0
 13  2  2  0  0  0  0
 13  3  1  0  0  0  0
 14 12  1  0  0  0  0
 14 15  2  0  0  0  0
 15 13  1  0  0  0  0
 16 17  1  0  0  0  0
 18 16  2  0  0  0  0
 20 31  1  0  0  0  0
 21 28  1  0  0  0  0
 21 30  1  0  0  0  0
 22 24  1  0  0  0  0
 22 32  1  0  0  0  0
 23 30  1  0  0  0  0
 23 19  1  1  0  0  0
 25 20  1  0  0  0  0
 25 24  2  0  0  0  0
 26 23  1  0  0  0  0
 27 28  2  0  0  0  0
 27 29  1  0  0  0  0
 28 25  1  0  0  0  0
 29 22  2  0  0  0  0
 30 26  1  6  0  0  0
 30 31  1  0  0  0  0
 32 33  1  0  0  0  0
 33 34  2  0  0  0  0
M  END
>  <MODEL>
6

>  <REMARK>
 VINA RESULT:      -7.4      2.078      8.151
  Name = 
  5 active torsions:
  status: ('A' for Active; 'I' for Inactive)
    1  A    between atoms: C_1  and  C_9
    2  A    between atoms: C_3  and  C_25
    3  A    between atoms: C_7  and  C_11
    4  A    between atoms: C_8  and  C_9
    5  A    between atoms: C_11  and  N_15
                            x       y       z     vdW  Elec       q    Type
                         _______ _______ _______ _____ _____    ______ ____

>  <TORSDO>
F 5

$$$$
=
 OpenBabel11052420343D

 34 39  0  0  1  0  0  0  0  0999 V2000
  193.8190  174.8630  143.2190 C   0  0  1  0  0  3  0  0  0  0  0  0
  190.5360  173.0070  143.1670 C   0  0  0  0  0  3  0  0  0  0  0  0
  192.4130  172.5860  144.6360 C   0  0  0  0  0  2  0  0  0  0  0  0
  195.7360  173.9970  144.7220 C   0  0  0  0  0  0  0  0  0  0  0  0
  195.8300  172.9700  145.6430 C   0  0  0  0  0  3  0  0  0  0  0  0
  196.7410  174.8890  144.3700 O   0  0  0  0  0  1  0  0  0  0  0  0
  193.8130  172.9520  144.8350 N   0  0  0  0  0  0  0  0  0  0  0  0
  194.4540  173.9650  144.2330 C   0  0  0  0  0  0  0  0  0  0  0  0
  194.6270  172.3510  145.6890 N   0  0  0  0  0  0  0  0  0  0  0  0
  189.7760  173.6600  142.0620 C   0  0  0  0  0  2  0  0  0  0  0  0
  190.3230  173.2770  140.7240 C   0  0  0  0  0  0  0  0  0  0  0  0
  191.5630  173.6220  140.3630 C   0  0  0  0  0  3  0  0  0  0  0  0
  191.8280  173.2350  143.4070 C   0  0  0  0  0  0  0  0  0  0  0  0
  192.5650  174.2640  141.2370 C   0  0  0  0  0  3  0  0  0  0  0  0
  192.6750  174.1420  142.5690 C   0  0  0  0  0  0  0  0  0  0  0  0
  189.4380  172.6000  139.7590 C   0  0  0  0  0  0  0  0  0  0  0  0
  188.1230  173.0220  139.6070 O   0  0  0  0  0  1  0  0  0  0  0  0
  189.8620  171.6370  139.0650 O   0  0  0  0  0  0  0  0  0  0  0  0
  193.3110  176.1440  143.8700 C   0  0  0  0  0  2  0  0  0  0  0  0
  189.7960  177.4700  146.0720 C   0  0  0  0  0  2  0  0  0  0  0  0
  189.6230  177.0930  143.1020 C   0  0  0  0  0  2  0  0  0  0  0  0
  186.0610  177.1520  145.5330 C   0  0  0  0  0  0  0  0  0  0  0  0
  192.1680  176.7430  143.0590 C   0  0  2  0  0  3  0  0  0  0  0  0
  187.3080  177.2940  146.1480 C   0  0  0  0  0  3  0  0  0  0  0  0
  188.4790  177.2740  145.3840 C   0  0  0  0  0  0  0  0  0  0  0  0
  191.8920  178.1610  143.5410 C   0  0  0  0  0  2  0  0  0  0  0  0
  187.1460  177.0010  143.3720 C   0  0  0  0  0  3  0  0  0  0  0  0
  188.3990  177.1320  143.9790 C   0  0  0  0  0  0  0  0  0  0  0  0
  185.9810  177.0110  144.1440 C   0  0  0  0  0  3  0  0  0  0  0  0
  190.9300  177.0490  143.8920 C   0  0  1  0  0  0  0  0  0  0  0  0
  190.8980  176.6840  145.3770 C   0  0  0  0  0  2  0  0  0  0  0  0
  184.8160  177.1690  146.3550 C   0  0  0  0  0  2  0  0  0  0  0  0
  184.3470  178.5190  146.5350 N   0  0  0  0  0  0  0  0  0  0  0  0
  183.5860  179.0040  145.7530 O   0  0  0  0  0  0  0  0  0  0  0  0
  1 19  1  1  0  0  0
  1  8  1  0  0  0  0
  2 13  2  0  0  0  0
  3  7  1  0  0  0  0
  4  5  1  0  0  0  0
  5  9  2  0  0  0  0
  6  4  1  0  0  0  0
  7  9  1  0  0  0  0
  8  4  2  0  0  0  0
  8  7  1  0  0  0  0
 10  2  1  0  0  0  0
 11 10  1  0  0  0  0
 12 11  2  0  0  0  0
 12 14  1  0  0  0  0
 13  3  1  0  0  0  0
 14 15  2  0  0  0  0
 15  1  1  0  0  0  0
 15 13  1  0  0  0  0
 16 11  1  0  0  0  0
 17 16  1  0  0  0  0
 18 16  2  0  0  0  0
 21 28  1  0  0  0  0
 22 24  1  0  0  0  0
 22 32  1  0  0  0  0
 23 26  1  0  0  0  0
 23 19  1  1  0  0  0
 23 30  1  0  0  0  0
 25 20  1  0  0  0  0
 25 24  2  0  0  0  0
 26 30  1  0  0  0  0
 27 28  2  0  0  0  0
 27 29  1  0  0  0  0
 28 25  1  0  0  0  0
 29 22  2  0  0  0  0
 30 21  1  6  0  0  0
 30 31  1  0  0  0  0
 31 20  1  0  0  0  0
 32 33  1  0  0  0  0
 34 33  2  0  0  0  0
M  END
>  <MODEL>
7

>  <REMARK>
 VINA RESULT:      -7.2      1.531      1.910
  Name = 
  5 active torsions:
  status: ('A' for Active; 'I' for Inactive)
    1  A    between atoms: C_1  and  C_9
    2  A    between atoms: C_3  and  C_25
    3  A    between atoms: C_7  and  C_11
    4  A    between atoms: C_8  and  C_9
    5  A    between atoms: C_11  and  N_15
                            x       y       z     vdW  Elec       q    Type
                         _______ _______ _______ _____ _____    ______ ____

>  <TORSDO>
F 5

$$$$
=
 OpenBabel11052420343D

 34 39  0  0  1  0  0  0  0  0999 V2000
  186.6030  176.9070  145.0880 C   0  0  1  0  0  3  0  0  0  0  0  0
  188.1570  177.3820  141.6850 C   0  0  0  0  0  3  0  0  0  0  0  0
  186.2950  178.6210  142.6100 C   0  0  0  0  0  2  0  0  0  0  0  0
  184.4450  178.2000  145.6830 C   0  0  0  0  0  0  0  0  0  0  0  0
  183.7000  179.1590  145.0210 C   0  0  0  0  0  3  0  0  0  0  0  0
  184.1850  177.6720  146.9410 O   0  0  0  0  0  1  0  0  0  0  0  0
  185.3690  178.6180  143.7400 N   0  0  0  0  0  0  0  0  0  0  0  0
  185.4920  177.8830  144.8560 C   0  0  0  0  0  0  0  0  0  0  0  0
  184.3010  179.3950  143.8310 N   0  0  0  0  0  0  0  0  0  0  0  0
  189.2310  176.3480  141.6360 C   0  0  0  0  0  2  0  0  0  0  0  0
  188.6590  174.9760  141.4820 C   0  0  0  0  0  0  0  0  0  0  0  0
  187.8880  174.4400  142.4340 C   0  0  0  0  0  3  0  0  0  0  0  0
  187.2340  177.4420  142.6460 C   0  0  0  0  0  0  0  0  0  0  0  0
  187.3990  175.1400  143.6390 C   0  0  0  0  0  3  0  0  0  0  0  0
  187.1460  176.4520  143.7660 C   0  0  0  0  0  0  0  0  0  0  0  0
  189.0400  174.1720  140.3070 C   0  0  0  0  0  0  0  0  0  0  0  0
  190.3410  173.7020  140.1780 O   0  0  0  0  0  1  0  0  0  0  0  0
  188.1940  173.9020  139.4110 O   0  0  0  0  0  0  0  0  0  0  0  0
  187.7210  177.5440  145.9050 C   0  0  0  0  0  2  0  0  0  0  0  0
  191.8850  177.6410  144.6340 C   0  0  0  0  0  2  0  0  0  0  0  0
  190.8000  175.1740  145.9500 C   0  0  0  0  0  2  0  0  0  0  0  0
  194.3850  175.0060  143.5580 C   0  0  0  0  0  0  0  0  0  0  0  0
  188.6470  176.4760  146.4750 C   0  0  2  0  0  3  0  0  0  0  0  0
  193.7180  176.2260  143.7020 C   0  0  0  0  0  3  0  0  0  0  0  0
  192.5500  176.3080  144.4680 C   0  0  0  0  0  0  0  0  0  0  0  0
  189.7970  177.1430  147.2160 C   0  0  0  0  0  2  0  0  0  0  0  0
  192.7360  173.9400  144.9780 C   0  0  0  0  0  3  0  0  0  0  0  0
  192.0560  175.1540  145.1190 C   0  0  0  0  0  0  0  0  0  0  0  0
  193.8960  173.8650  144.2010 C   0  0  0  0  0  3  0  0  0  0  0  0
  190.0450  176.5000  145.8710 C   0  0  1  0  0  0  0  0  0  0  0  0
  190.3750  177.4870  144.7500 C   0  0  0  0  0  2  0  0  0  0  0  0
  195.6260  174.9260  142.7340 C   0  0  0  0  0  2  0  0  0  0  0  0
  196.2920  176.2030  142.6980 N   0  0  0  0  0  0  0  0  0  0  0  0
  196.4340  176.7810  141.6630 O   0  0  0  0  0  0  0  0  0  0  0  0
  1 19  1  1  0  0  0
  2 13  2  0  0  0  0
  3 13  1  0  0  0  0
  3  7  1  0  0  0  0
  4  6  1  0  0  0  0
  5  4  1  0  0  0  0
  7  9  1  0  0  0  0
  7  8  1  0  0  0  0
  8  1  1  0  0  0  0
  8  4  2  0  0  0  0
  9  5  2  0  0  0  0
 10  2  1  0  0  0  0
 11 10  1  0  0  0  0
 11 12  2  0  0  0  0
 12 14  1  0  0  0  0
 13 15  1  0  0  0  0
 14 15  2  0  0  0  0
 15  1  1  0  0  0  0
 16 11  1  0  0  0  0
 17 16  1  0  0  0  0
 18 16  2  0  0  0  0
 20 31  1  0  0  0  0
 22 24  2  0  0  0  0
 22 29  1  0  0  0  0
 23 19  1  6  0  0  0
 23 26  1  0  0  0  0
 24 25  1  0  0  0  0
 25 20  1  0  0  0  0
 25 28  2  0  0  0  0
 27 28  1  0  0  0  0
 28 21  1  0  0  0  0
 29 27  2  0  0  0  0
 30 31  1  6  0  0  0
 30 21  1  0  0  0  0
 30 23  1  0  0  0  0
 30 26  1  0  0  0  0
 32 22  1  0  0  0  0
 33 32  1  0  0  0  0
 34 33  2  0  0  0  0
M  END
>  <MODEL>
8

>  <REMARK>
 VINA RESULT:      -7.0      2.534      7.905
  Name = 
  5 active torsions:
  status: ('A' for Active; 'I' for Inactive)
    1  A    between atoms: C_1  and  C_9
    2  A    between atoms: C_3  and  C_25
    3  A    between atoms: C_7  and  C_11
    4  A    between atoms: C_8  and  C_9
    5  A    between atoms: C_11  and  N_15
                            x       y       z     vdW  Elec       q    Type
                         _______ _______ _______ _____ _____    ______ ____

>  <TORSDO>
F 5

$$$$
=
 OpenBabel11052420343D

 34 39  0  0  1  0  0  0  0  0999 V2000
  190.2770  175.3280  145.1650 C   0  0  1  0  0  3  0  0  0  0  0  0
  189.1920  177.6580  142.4050 C   0  0  0  0  0  3  0  0  0  0  0  0
  191.3930  177.5230  143.4020 C   0  0  0  0  0  2  0  0  0  0  0  0
  192.6250  175.6130  146.2090 C   0  0  0  0  0  0  0  0  0  0  0  0
  193.6960  176.4410  145.9250 C   0  0  0  0  0  3  0  0  0  0  0  0
  192.5650  174.6480  147.2060 O   0  0  0  0  0  1  0  0  0  0  0  0
  192.1050  176.9130  144.5230 N   0  0  0  0  0  0  0  0  0  0  0  0
  191.6400  175.9290  145.3080 C   0  0  0  0  0  0  0  0  0  0  0  0
  193.3410  177.2240  144.8800 N   0  0  0  0  0  0  0  0  0  0  0  0
  187.7490  177.3310  142.2100 C   0  0  0  0  0  2  0  0  0  0  0  0
  186.9160  177.8450  143.3390 C   0  0  0  0  0  0  0  0  0  0  0  0
  187.0750  177.3760  144.5810 C   0  0  0  0  0  3  0  0  0  0  0  0
  189.9220  177.1930  143.4200 C   0  0  0  0  0  0  0  0  0  0  0  0
  188.1350  176.4440  145.0190 C   0  0  0  0  0  3  0  0  0  0  0  0
  189.3660  176.3200  144.5020 C   0  0  0  0  0  0  0  0  0  0  0  0
  185.8380  178.8060  143.0500 C   0  0  0  0  0  0  0  0  0  0  0  0
  185.6030  179.8690  143.9140 O   0  0  0  0  0  1  0  0  0  0  0  0
  185.1190  178.6770  142.0220 O   0  0  0  0  0  0  0  0  0  0  0  0
  190.3310  174.0510  144.3340 C   0  0  0  0  0  2  0  0  0  0  0  0
  190.8950  172.8730  140.1810 C   0  0  0  0  0  2  0  0  0  0  0  0
  188.2750  174.0520  141.0380 C   0  0  0  0  0  2  0  0  0  0  0  0
  189.4280  174.0210  136.8820 C   0  0  0  0  0  0  0  0  0  0  0  0
  189.0800  173.9150  143.4750 C   0  0  2  0  0  3  0  0  0  0  0  0
  190.3010  173.4880  137.8360 C   0  0  0  0  0  3  0  0  0  0  0  0
  189.9530  173.4900  139.1910 C   0  0  0  0  0  0  0  0  0  0  0  0
  188.9940  172.4980  142.9230 C   0  0  0  0  0  2  0  0  0  0  0  0
  187.8330  174.5340  138.6320 C   0  0  0  0  0  3  0  0  0  0  0  0
  188.7030  174.0130  139.5950 C   0  0  0  0  0  0  0  0  0  0  0  0
  188.1920  174.5380  137.2810 C   0  0  0  0  0  3  0  0  0  0  0  0
  189.3810  173.6370  142.0080 C   0  0  1  0  0  0  0  0  0  0  0  0
  190.8300  173.5940  141.5190 C   0  0  0  0  0  2  0  0  0  0  0  0
  189.8080  174.0210  135.4400 C   0  0  0  0  0  2  0  0  0  0  0  0
  191.0680  174.6930  135.2490 N   0  0  0  0  0  0  0  0  0  0  0  0
  191.1250  175.8860  135.2690 O   0  0  0  0  0  0  0  0  0  0  0  0
  1 19  1  6  0  0  0
  1  8  1  0  0  0  0
  2 13  2  0  0  0  0
  3 13  1  0  0  0  0
  3  7  1  0  0  0  0
  4  6  1  0  0  0  0
  5  4  1  0  0  0  0
  7  9  1  0  0  0  0
  7  8  1  0  0  0  0
  8  4  2  0  0  0  0
  9  5  2  0  0  0  0
 10  2  1  0  0  0  0
 10 11  1  0  0  0  0
 11 12  2  0  0  0  0
 12 14  1  0  0  0  0
 13 15  1  0  0  0  0
 15 14  2  0  0  0  0
 15  1  1  0  0  0  0
 16 11  1  0  0  0  0
 16 17  1  0  0  0  0
 18 16  2  0  0  0  0
 20 31  1  0  0  0  0
 22 29  2  0  0  0  0
 22 24  1  0  0  0  0
 23 19  1  1  0  0  0
 24 25  2  0  0  0  0
 25 28  1  0  0  0  0
 25 20  1  0  0  0  0
 26 23  1  0  0  0  0
 27 28  2  0  0  0  0
 28 21  1  0  0  0  0
 29 27  1  0  0  0  0
 30 21  1  6  0  0  0
 30 26  1  0  0  0  0
 30 23  1  0  0  0  0
 31 30  1  0  0  0  0
 32 22  1  0  0  0  0
 33 34  2  0  0  0  0
 33 32  1  0  0  0  0
M  END
>  <MODEL>
9

>  <REMARK>
 VINA RESULT:      -6.8      3.403      7.061
  Name = 
  5 active torsions:
  status: ('A' for Active; 'I' for Inactive)
    1  A    between atoms: C_1  and  C_9
    2  A    between atoms: C_3  and  C_25
    3  A    between atoms: C_7  and  C_11
    4  A    between atoms: C_8  and  C_9
    5  A    between atoms: C_11  and  N_15
                            x       y       z     vdW  Elec       q    Type
                         _______ _______ _______ _____ _____    ______ ____

>  <TORSDO>
F 5

$$$$
