=
 OpenBabel11052418013D

 31 32  0  0  1  0  0  0  0  0999 V2000
  184.8950  178.9180  145.1910 C   0  0  0  0  0  0  0  0  0  0  0  0
  188.4850  177.8270  144.6910 C   0  0  0  0  0  2  0  0  0  0  0  0
  187.0790  177.8650  145.2180 C   0  0  0  0  0  0  0  0  0  0  0  0
  184.4820  178.0940  146.2400 C   0  0  0  0  0  3  0  0  0  0  0  0
  189.0300  176.1810  146.4720 C   0  0  2  0  0  3  0  0  0  0  0  0
  184.0390  179.8260  144.6650 F   0  0  0  0  0  0  0  0  0  0  0  0
  187.5670  175.9930  146.8810 C   0  0  0  0  0  2  0  0  0  0  0  0
  189.1830  176.4970  144.9810 C   0  0  1  0  0  3  0  0  0  0  0  0
  186.1930  178.8060  144.6840 C   0  0  0  0  0  3  0  0  0  0  0  0
  186.6700  177.0510  146.2990 C   0  0  0  0  0  0  0  0  0  0  0  0
  185.3670  177.1620  146.7900 C   0  0  0  0  0  3  0  0  0  0  0  0
  188.6270  175.4860  144.1890 O   0  0  0  0  0  0  0  0  0  0  0  0
  189.3540  175.5200  142.9940 C   0  0  0  0  0  2  0  0  0  0  0  0
  188.4240  175.3070  141.8120 C   0  0  0  0  0  2  0  0  0  0  0  0
  187.1020  176.0500  141.9960 C   0  0  0  0  0  2  0  0  0  0  0  0
  188.0780  178.1290  141.3050 O   0  0  0  0  0  1  0  0  0  0  0  0
  186.8480  176.9130  139.6600 C   0  0  0  0  0  1  0  0  0  0  0  0
  186.9660  177.3020  141.1280 C   0  0  1  0  0  0  0  0  0  0  0  0
  185.7020  178.0380  141.5700 C   0  0  0  0  0  2  0  0  0  0  0  0
  184.7170  178.2400  140.4250 C   0  0  0  0  0  1  0  0  0  0  0  0
  189.9540  175.0660  146.9690 C   0  0  0  0  0  2  0  0  0  0  0  0
  191.2010  175.5720  147.6930 C   0  0  2  0  0  3  0  0  0  0  0  0
  191.0730  177.0660  147.9770 C   0  0  0  0  0  2  0  0  0  0  0  0
  191.7020  177.3930  149.1820 O   0  0  0  0  0  1  0  0  0  0  0  0
  192.4540  175.2820  146.8780 C   0  0  0  0  0  2  0  0  0  0  0  0
  192.7710  176.4410  145.9450 C   0  0  0  0  0  2  0  0  0  0  0  0
  193.8060  175.9110  143.3420 O   0  0  0  0  0  0  0  0  0  0  0  0
  194.1810  176.4080  145.5910 N   0  0  0  0  0  2  0  0  0  0  0  0
  194.6310  176.1170  144.2710 C   0  0  0  0  0  0  0  0  0  0  0  0
  196.4010  176.7740  142.8630 O   0  0  0  0  0  1  0  0  0  0  0  0
  196.0900  176.0290  143.9990 C   0  0  0  0  0  2  0  0  0  0  0  0
  1  4  1  0  0  0  0
  2  8  1  0  0  0  0
  2  3  1  0  0  0  0
  3 10  2  0  0  0  0
  4 11  2  0  0  0  0
  5  7  1  0  0  0  0
  5 21  1  6  0  0  0
  6  1  1  0  0  0  0
  8 12  1  6  0  0  0
  8  5  1  0  0  0  0
  9  1  2  0  0  0  0
  9  3  1  0  0  0  0
 10 11  1  0  0  0  0
 10  7  1  0  0  0  0
 13 12  1  0  0  0  0
 14 15  1  0  0  0  0
 14 13  1  0  0  0  0
 18 17  1  6  0  0  0
 18 16  1  0  0  0  0
 18 19  1  0  0  0  0
 18 15  1  0  0  0  0
 20 19  1  0  0  0  0
 21 22  1  0  0  0  0
 22 25  1  6  0  0  0
 22 23  1  0  0  0  0
 23 24  1  0  0  0  0
 26 25  1  0  0  0  0
 27 29  2  0  0  0  0
 28 26  1  0  0  0  0
 29 28  1  0  0  0  0
 30 31  1  0  0  0  0
 31 29  1  0  0  0  0
M  END
>  <MODEL>
1

>  <REMARK>
 VINA RESULT:      -6.9      0.000      0.000
  Name = 
  13 active torsions:
  status: ('A' for Active; 'I' for Inactive)
    1  A    between atoms: C_3  and  C_9
    2  A    between atoms: O_5  and  C_14
    3  A    between atoms: O_5  and  C_21
    4  A    between atoms: C_6  and  C_7
    5  A    between atoms: C_6  and  N_19
    6  A    between atoms: C_7  and  C_9
    7  A    between atoms: C_9  and  C_23
    8  A    between atoms: C_10  and  C_14
    9  A    between atoms: C_10  and  C_18
   10  A    between atoms: C_11  and  C_24
   11  A    between atoms: C_15  and  C_23
   12  A    between atoms: C_17  and  C_31
   13  A    between atoms: C_18  and  C_31
                            x       y       z     vdW  Elec       q    Type
                         _______ _______ _______ _____ _____    ______ ____

>  <TORSDO>
F 13

$$$$
=
 OpenBabel11052418013D

 31 32  0  0  1  0  0  0  0  0999 V2000
  185.2360  178.2670  147.2160 C   0  0  0  0  0  0  0  0  0  0  0  0
  188.1350  175.8440  146.9880 C   0  0  0  0  0  2  0  0  0  0  0  0
  187.2230  176.9930  146.6630 C   0  0  0  0  0  0  0  0  0  0  0  0
  185.3980  179.0270  146.0550 C   0  0  0  0  0  3  0  0  0  0  0  0
  189.2620  176.2170  144.8050 C   0  0  2  0  0  3  0  0  0  0  0  0
  184.1990  178.5160  148.0500 F   0  0  0  0  0  0  0  0  0  0  0  0
  188.5350  177.5390  144.5440 C   0  0  0  0  0  2  0  0  0  0  0  0
  189.4950  175.9620  146.2960 C   0  0  1  0  0  3  0  0  0  0  0  0
  186.1460  177.2490  147.5160 C   0  0  0  0  0  3  0  0  0  0  0  0
  187.3710  177.7430  145.4740 C   0  0  0  0  0  0  0  0  0  0  0  0
  186.4640  178.7670  145.1900 C   0  0  0  0  0  3  0  0  0  0  0  0
  190.2360  176.9980  146.8790 O   0  0  0  0  0  0  0  0  0  0  0  0
  191.0340  176.3760  147.8440 C   0  0  0  0  0  2  0  0  0  0  0  0
  191.9340  175.3430  147.1880 C   0  0  0  0  0  2  0  0  0  0  0  0
  193.1850  175.9850  146.5900 C   0  0  0  0  0  2  0  0  0  0  0  0
  193.8330  175.5900  144.3160 O   0  0  0  0  0  1  0  0  0  0  0  0
  195.4110  174.9990  146.0070 C   0  0  0  0  0  1  0  0  0  0  0  0
  193.9420  175.0840  145.6140 C   0  0  1  0  0  0  0  0  0  0  0  0
  193.3090  173.6950  145.6790 C   0  0  0  0  0  2  0  0  0  0  0  0
  193.6920  172.8260  144.4870 C   0  0  0  0  0  1  0  0  0  0  0  0
  190.5110  176.0230  143.9390 C   0  0  0  0  0  2  0  0  0  0  0  0
  190.5810  174.6610  143.2500 C   0  0  2  0  0  3  0  0  0  0  0  0
  191.2570  174.7970  141.8880 C   0  0  0  0  0  2  0  0  0  0  0  0
  191.8780  173.5970  141.5260 O   0  0  0  0  0  1  0  0  0  0  0  0
  189.1910  174.0570  143.1050 C   0  0  0  0  0  2  0  0  0  0  0  0
  188.5820  174.4180  141.7590 C   0  0  0  0  0  2  0  0  0  0  0  0
  188.1120  177.1610  141.1430 O   0  0  0  0  0  0  0  0  0  0  0  0
  187.3280  175.1220  141.9660 N   0  0  0  0  0  2  0  0  0  0  0  0
  187.1660  176.5030  141.6520 C   0  0  0  0  0  0  0  0  0  0  0  0
  185.7630  178.3410  141.2020 O   0  0  0  0  0  1  0  0  0  0  0  0
  185.8760  177.1760  141.9600 C   0  0  0  0  0  2  0  0  0  0  0  0
  1  9  1  0  0  0  0
  1  6  1  0  0  0  0
  3  2  1  0  0  0  0
  3  9  2  0  0  0  0
  4  1  2  0  0  0  0
  5 21  1  6  0  0  0
  5  8  1  0  0  0  0
  7  5  1  0  0  0  0
  7 10  1  0  0  0  0
  8 12  1  1  0  0  0
  8  2  1  0  0  0  0
 10  3  1  0  0  0  0
 11 10  2  0  0  0  0
 11  4  1  0  0  0  0
 12 13  1  0  0  0  0
 14 13  1  0  0  0  0
 15 14  1  0  0  0  0
 16 18  1  0  0  0  0
 18 19  1  0  0  0  0
 18 17  1  1  0  0  0
 18 15  1  0  0  0  0
 20 19  1  0  0  0  0
 22 23  1  6  0  0  0
 22 21  1  0  0  0  0
 24 23  1  0  0  0  0
 25 22  1  0  0  0  0
 26 28  1  0  0  0  0
 26 25  1  0  0  0  0
 27 29  2  0  0  0  0
 29 31  1  0  0  0  0
 29 28  1  0  0  0  0
 30 31  1  0  0  0  0
M  END
>  <MODEL>
2

>  <REMARK>
 VINA RESULT:      -6.7      2.188      6.390
  Name = 
  13 active torsions:
  status: ('A' for Active; 'I' for Inactive)
    1  A    between atoms: C_3  and  C_9
    2  A    between atoms: O_5  and  C_14
    3  A    between atoms: O_5  and  C_21
    4  A    between atoms: C_6  and  C_7
    5  A    between atoms: C_6  and  N_19
    6  A    between atoms: C_7  and  C_9
    7  A    between atoms: C_9  and  C_23
    8  A    between atoms: C_10  and  C_14
    9  A    between atoms: C_10  and  C_18
   10  A    between atoms: C_11  and  C_24
   11  A    between atoms: C_15  and  C_23
   12  A    between atoms: C_17  and  C_31
   13  A    between atoms: C_18  and  C_31
                            x       y       z     vdW  Elec       q    Type
                         _______ _______ _______ _____ _____    ______ ____

>  <TORSDO>
F 13

$$$$
=
 OpenBabel11052418013D

 31 32  0  0  1  0  0  0  0  0999 V2000
  190.6530  175.5360  147.5230 C   0  0  0  0  0  0  0  0  0  0  0  0
  189.3430  174.8400  144.0400 C   0  0  0  0  0  2  0  0  0  0  0  0
  189.7250  175.5920  145.2830 C   0  0  0  0  0  0  0  0  0  0  0  0
  190.3450  176.8890  147.6860 C   0  0  0  0  0  3  0  0  0  0  0  0
  188.1930  176.8930  143.2400 C   0  0  2  0  0  3  0  0  0  0  0  0
  191.2540  174.8520  148.5250 F   0  0  0  0  0  0  0  0  0  0  0  0
  188.7680  177.7680  144.3580 C   0  0  0  0  0  2  0  0  0  0  0  0
  189.1430  175.7630  142.8360 C   0  0  1  0  0  3  0  0  0  0  0  0
  190.3390  174.8890  146.3240 C   0  0  0  0  0  3  0  0  0  0  0  0
  189.3880  176.9530  145.4590 C   0  0  0  0  0  0  0  0  0  0  0  0
  189.7170  177.5950  146.6560 C   0  0  0  0  0  3  0  0  0  0  0  0
  190.3790  176.2660  142.4130 O   0  0  0  0  0  0  0  0  0  0  0  0
  191.2090  175.1460  142.3010 C   0  0  0  0  0  2  0  0  0  0  0  0
  192.6640  175.5590  142.4400 C   0  0  0  0  0  2  0  0  0  0  0  0
  192.8910  176.4010  143.6940 C   0  0  0  0  0  2  0  0  0  0  0  0
  195.2530  176.5000  144.0990 O   0  0  0  0  0  1  0  0  0  0  0  0
  193.8360  176.3210  146.0110 C   0  0  0  0  0  1  0  0  0  0  0  0
  194.0630  175.9290  144.5570 C   0  0  1  0  0  0  0  0  0  0  0  0
  194.1430  174.4090  144.4380 C   0  0  0  0  0  2  0  0  0  0  0  0
  193.7030  173.7030  145.7150 C   0  0  0  0  0  1  0  0  0  0  0  0
  187.6390  177.6930  142.0580 C   0  0  0  0  0  2  0  0  0  0  0  0
  186.1150  177.7910  142.0360 C   0  0  2  0  0  3  0  0  0  0  0  0
  185.6170  177.9020  140.5970 C   0  0  0  0  0  2  0  0  0  0  0  0
  186.5500  177.3550  139.7110 O   0  0  0  0  0  1  0  0  0  0  0  0
  185.6380  178.9760  142.8650 C   0  0  0  0  0  2  0  0  0  0  0  0
  184.4890  178.5710  143.7750 C   0  0  0  0  0  2  0  0  0  0  0  0
  185.5940  176.5500  145.4550 O   0  0  0  0  0  0  0  0  0  0  0  0
  184.8800  178.7530  145.1630 N   0  0  0  0  0  2  0  0  0  0  0  0
  185.4110  177.6910  145.9530 C   0  0  0  0  0  0  0  0  0  0  0  0
  186.2710  176.7810  147.9480 O   0  0  0  0  0  1  0  0  0  0  0  0
  185.7210  177.9330  147.3870 C   0  0  0  0  0  2  0  0  0  0  0  0
  1  4  1  0  0  0  0
  1  6  1  0  0  0  0
  2  3  1  0  0  0  0
  3 10  2  0  0  0  0
  3  9  1  0  0  0  0
  5 21  1  6  0  0  0
  5  7  1  0  0  0  0
  7 10  1  0  0  0  0
  8 12  1  1  0  0  0
  8  5  1  0  0  0  0
  8  2  1  0  0  0  0
  9  1  2  0  0  0  0
 10 11  1  0  0  0  0
 11  4  2  0  0  0  0
 13 12  1  0  0  0  0
 13 14  1  0  0  0  0
 14 15  1  0  0  0  0
 15 18  1  0  0  0  0
 16 18  1  0  0  0  0
 18 17  1  1  0  0  0
 19 18  1  0  0  0  0
 19 20  1  0  0  0  0
 22 23  1  6  0  0  0
 22 21  1  0  0  0  0
 22 25  1  0  0  0  0
 24 23  1  0  0  0  0
 25 26  1  0  0  0  0
 26 28  1  0  0  0  0
 27 29  2  0  0  0  0
 28 29  1  0  0  0  0
 29 31  1  0  0  0  0
 31 30  1  0  0  0  0
M  END
>  <MODEL>
3

>  <REMARK>
 VINA RESULT:      -6.6      2.995      7.526
  Name = 
  13 active torsions:
  status: ('A' for Active; 'I' for Inactive)
    1  A    between atoms: C_3  and  C_9
    2  A    between atoms: O_5  and  C_14
    3  A    between atoms: O_5  and  C_21
    4  A    between atoms: C_6  and  C_7
    5  A    between atoms: C_6  and  N_19
    6  A    between atoms: C_7  and  C_9
    7  A    between atoms: C_9  and  C_23
    8  A    between atoms: C_10  and  C_14
    9  A    between atoms: C_10  and  C_18
   10  A    between atoms: C_11  and  C_24
   11  A    between atoms: C_15  and  C_23
   12  A    between atoms: C_17  and  C_31
   13  A    between atoms: C_18  and  C_31
                            x       y       z     vdW  Elec       q    Type
                         _______ _______ _______ _____ _____    ______ ____

>  <TORSDO>
F 13

$$$$
=
 OpenBabel11052418013D

 31 32  0  0  1  0  0  0  0  0999 V2000
  189.5950  177.3040  146.6790 C   0  0  0  0  0  0  0  0  0  0  0  0
  189.2400  177.7130  142.9330 C   0  0  0  0  0  2  0  0  0  0  0  0
  189.2270  177.0760  144.2940 C   0  0  0  0  0  0  0  0  0  0  0  0
  189.3580  175.9380  146.8480 C   0  0  0  0  0  3  0  0  0  0  0  0
  188.9130  175.4520  141.9530 C   0  0  2  0  0  3  0  0  0  0  0  0
  189.8850  178.0790  147.7510 F   0  0  0  0  0  0  0  0  0  0  0  0
  188.6390  174.7970  143.3100 C   0  0  0  0  0  2  0  0  0  0  0  0
  188.4440  176.9090  141.9030 C   0  0  1  0  0  3  0  0  0  0  0  0
  189.5330  177.8700  145.4030 C   0  0  0  0  0  3  0  0  0  0  0  0
  189.0150  175.6890  144.4610 C   0  0  0  0  0  0  0  0  0  0  0  0
  189.0660  175.1340  145.7420 C   0  0  0  0  0  3  0  0  0  0  0  0
  187.0750  177.0110  142.1760 O   0  0  0  0  0  0  0  0  0  0  0  0
  186.7940  178.3800  142.1180 C   0  0  0  0  0  2  0  0  0  0  0  0
  185.5920  178.7020  142.9910 C   0  0  0  0  0  2  0  0  0  0  0  0
  186.0170  179.1520  144.3870 C   0  0  0  0  0  2  0  0  0  0  0  0
  183.9900  178.6080  145.5470 O   0  0  0  0  0  1  0  0  0  0  0  0
  185.6110  176.8700  145.3320 C   0  0  0  0  0  1  0  0  0  0  0  0
  185.3650  178.3600  145.5220 C   0  0  1  0  0  0  0  0  0  0  0  0
  185.9950  178.8250  146.8330 C   0  0  0  0  0  2  0  0  0  0  0  0
  186.1040  177.6990  147.8550 C   0  0  0  0  0  1  0  0  0  0  0  0
  188.4520  174.6090  140.7610 C   0  0  0  0  0  2  0  0  0  0  0  0
  189.5850  173.8710  140.0500 C   0  0  2  0  0  3  0  0  0  0  0  0
  189.2860  173.7650  138.5570 C   0  0  0  0  0  2  0  0  0  0  0  0
  188.1410  172.9920  138.3390 O   0  0  0  0  0  1  0  0  0  0  0  0
  189.7960  172.4910  140.6580 C   0  0  0  0  0  2  0  0  0  0  0  0
  191.2480  172.2970  141.0670 C   0  0  0  0  0  2  0  0  0  0  0  0
  191.8920  173.4320  143.6010 O   0  0  0  0  0  0  0  0  0  0  0  0
  191.8720  173.5930  141.2730 N   0  0  0  0  0  2  0  0  0  0  0  0
  192.1500  174.1110  142.5720 C   0  0  0  0  0  0  0  0  0  0  0  0
  192.5730  175.9180  144.0210 O   0  0  0  0  0  1  0  0  0  0  0  0
  192.7230  175.4750  142.7070 C   0  0  0  0  0  2  0  0  0  0  0  0
  1  4  1  0  0  0  0
  1  6  1  0  0  0  0
  2  3  1  0  0  0  0
  3 10  2  0  0  0  0
  3  9  1  0  0  0  0
  5 21  1  6  0  0  0
  5  7  1  0  0  0  0
  7 10  1  0  0  0  0
  8  5  1  0  0  0  0
  8 12  1  1  0  0  0
  8  2  1  0  0  0  0
  9  1  2  0  0  0  0
 10 11  1  0  0  0  0
 11  4  2  0  0  0  0
 13 12  1  0  0  0  0
 13 14  1  0  0  0  0
 14 15  1  0  0  0  0
 15 18  1  0  0  0  0
 18 17  1  6  0  0  0
 18 16  1  0  0  0  0
 18 19  1  0  0  0  0
 19 20  1  0  0  0  0
 22 23  1  6  0  0  0
 22 25  1  0  0  0  0
 22 21  1  0  0  0  0
 24 23  1  0  0  0  0
 25 26  1  0  0  0  0
 26 28  1  0  0  0  0
 28 29  1  0  0  0  0
 29 31  1  0  0  0  0
 29 27  2  0  0  0  0
 31 30  1  0  0  0  0
M  END
>  <MODEL>
4

>  <REMARK>
 VINA RESULT:      -6.6      2.871      5.620
  Name = 
  13 active torsions:
  status: ('A' for Active; 'I' for Inactive)
    1  A    between atoms: C_3  and  C_9
    2  A    between atoms: O_5  and  C_14
    3  A    between atoms: O_5  and  C_21
    4  A    between atoms: C_6  and  C_7
    5  A    between atoms: C_6  and  N_19
    6  A    between atoms: C_7  and  C_9
    7  A    between atoms: C_9  and  C_23
    8  A    between atoms: C_10  and  C_14
    9  A    between atoms: C_10  and  C_18
   10  A    between atoms: C_11  and  C_24
   11  A    between atoms: C_15  and  C_23
   12  A    between atoms: C_17  and  C_31
   13  A    between atoms: C_18  and  C_31
                            x       y       z     vdW  Elec       q    Type
                         _______ _______ _______ _____ _____    ______ ____

>  <TORSDO>
F 13

$$$$
=
 OpenBabel11052418013D

 31 32  0  0  1  0  0  0  0  0999 V2000
  184.9770  179.0130  144.9930 C   0  0  0  0  0  0  0  0  0  0  0  0
  188.5050  177.7260  144.5200 C   0  0  0  0  0  2  0  0  0  0  0  0
  187.1120  177.8680  145.0660 C   0  0  0  0  0  0  0  0  0  0  0  0
  184.5490  178.2910  146.1090 C   0  0  0  0  0  3  0  0  0  0  0  0
  189.0130  176.1970  146.4130 C   0  0  2  0  0  3  0  0  0  0  0  0
  184.1510  179.9160  144.4130 F   0  0  0  0  0  0  0  0  0  0  0  0
  187.5510  176.1080  146.8600 C   0  0  0  0  0  2  0  0  0  0  0  0
  189.1500  176.3910  144.9000 C   0  0  1  0  0  3  0  0  0  0  0  0
  186.2590  178.8040  144.4750 C   0  0  0  0  0  3  0  0  0  0  0  0
  186.6900  177.1570  146.2120 C   0  0  0  0  0  0  0  0  0  0  0  0
  185.4030  177.3640  146.7140 C   0  0  0  0  0  3  0  0  0  0  0  0
  188.5350  175.3490  144.1970 O   0  0  0  0  0  0  0  0  0  0  0  0
  188.9110  175.5380  142.8630 C   0  0  0  0  0  2  0  0  0  0  0  0
  190.2100  174.8030  142.5790 C   0  0  0  0  0  2  0  0  0  0  0  0
  190.0070  173.2890  142.5630 C   0  0  0  0  0  2  0  0  0  0  0  0
  191.7350  173.3630  144.2240 O   0  0  0  0  0  1  0  0  0  0  0  0
  189.7420  172.1770  144.7910 C   0  0  0  0  0  1  0  0  0  0  0  0
  190.7290  172.5520  143.6930 C   0  0  1  0  0  0  0  0  0  0  0  0
  191.3470  171.2870  143.1010 C   0  0  0  0  0  2  0  0  0  0  0  0
  190.5240  170.7230  141.9490 C   0  0  0  0  0  1  0  0  0  0  0  0
  189.8960  175.0830  146.9790 C   0  0  0  0  0  2  0  0  0  0  0  0
  191.1230  175.5900  147.7360 C   0  0  2  0  0  3  0  0  0  0  0  0
  191.0430  177.1040  147.9110 C   0  0  0  0  0  2  0  0  0  0  0  0
  191.5530  177.4830  149.1570 O   0  0  0  0  0  1  0  0  0  0  0  0
  192.4050  175.1960  147.0140 C   0  0  0  0  0  2  0  0  0  0  0  0
  193.0240  176.3980  146.3180 C   0  0  0  0  0  2  0  0  0  0  0  0
  193.1870  176.4480  143.4730 O   0  0  0  0  0  0  0  0  0  0  0  0
  194.1700  175.9690  145.5350 N   0  0  0  0  0  2  0  0  0  0  0  0
  194.1790  176.0030  144.1100 C   0  0  0  0  0  0  0  0  0  0  0  0
  196.4820  175.5230  144.1970 O   0  0  0  0  0  1  0  0  0  0  0  0
  195.3590  175.4790  143.3730 C   0  0  0  0  0  2  0  0  0  0  0  0
  1  4  1  0  0  0  0
  2  8  1  0  0  0  0
  2  3  1  0  0  0  0
  3 10  2  0  0  0  0
  4 11  2  0  0  0  0
  5  7  1  0  0  0  0
  5 21  1  6  0  0  0
  6  1  1  0  0  0  0
  8 12  1  6  0  0  0
  8  5  1  0  0  0  0
  9  1  2  0  0  0  0
  9  3  1  0  0  0  0
 10 11  1  0  0  0  0
 10  7  1  0  0  0  0
 13 12  1  0  0  0  0
 14 13  1  0  0  0  0
 15 14  1  0  0  0  0
 15 18  1  0  0  0  0
 18 16  1  0  0  0  0
 18 17  1  1  0  0  0
 19 18  1  0  0  0  0
 20 19  1  0  0  0  0
 22 21  1  6  0  0  0
 22 23  1  0  0  0  0
 23 24  1  0  0  0  0
 25 22  1  0  0  0  0
 26 25  1  0  0  0  0
 27 29  2  0  0  0  0
 28 26  1  0  0  0  0
 29 28  1  0  0  0  0
 31 29  1  0  0  0  0
 31 30  1  0  0  0  0
M  END
>  <MODEL>
5

>  <REMARK>
 VINA RESULT:      -6.6      1.768      3.333
  Name = 
  13 active torsions:
  status: ('A' for Active; 'I' for Inactive)
    1  A    between atoms: C_3  and  C_9
    2  A    between atoms: O_5  and  C_14
    3  A    between atoms: O_5  and  C_21
    4  A    between atoms: C_6  and  C_7
    5  A    between atoms: C_6  and  N_19
    6  A    between atoms: C_7  and  C_9
    7  A    between atoms: C_9  and  C_23
    8  A    between atoms: C_10  and  C_14
    9  A    between atoms: C_10  and  C_18
   10  A    between atoms: C_11  and  C_24
   11  A    between atoms: C_15  and  C_23
   12  A    between atoms: C_17  and  C_31
   13  A    between atoms: C_18  and  C_31
                            x       y       z     vdW  Elec       q    Type
                         _______ _______ _______ _____ _____    ______ ____

>  <TORSDO>
F 13

$$$$
=
 OpenBabel11052418013D

 31 32  0  0  1  0  0  0  0  0999 V2000
  184.9390  179.2020  144.8960 C   0  0  0  0  0  0  0  0  0  0  0  0
  188.4700  177.9100  144.4580 C   0  0  0  0  0  2  0  0  0  0  0  0
  187.0640  178.0380  144.9740 C   0  0  0  0  0  0  0  0  0  0  0  0
  184.4780  178.4350  145.9680 C   0  0  0  0  0  3  0  0  0  0  0  0
  188.9180  176.2970  146.2950 C   0  0  2  0  0  3  0  0  0  0  0  0
  184.1350  180.1350  144.3350 F   0  0  0  0  0  0  0  0  0  0  0  0
  187.4440  176.1990  146.7000 C   0  0  0  0  0  2  0  0  0  0  0  0
  189.0960  176.5550  144.7970 C   0  0  1  0  0  3  0  0  0  0  0  0
  186.2320  179.0060  144.4030 C   0  0  0  0  0  3  0  0  0  0  0  0
  186.6080  177.2810  146.0760 C   0  0  0  0  0  0  0  0  0  0  0  0
  185.3090  177.4760  146.5540 C   0  0  0  0  0  3  0  0  0  0  0  0
  188.4930  175.5490  144.0330 O   0  0  0  0  0  0  0  0  0  0  0  0
  188.8480  175.8340  142.7100 C   0  0  0  0  0  2  0  0  0  0  0  0
  190.2010  175.2220  142.3900 C   0  0  0  0  0  2  0  0  0  0  0  0
  190.0580  173.9370  141.5770 C   0  0  0  0  0  2  0  0  0  0  0  0
  189.6890  171.6500  142.1980 O   0  0  0  0  0  1  0  0  0  0  0  0
  191.9210  172.2650  141.6190 C   0  0  0  0  0  1  0  0  0  0  0  0
  190.6150  172.6940  142.2740 C   0  0  1  0  0  0  0  0  0  0  0  0
  190.8650  173.0550  143.7370 C   0  0  0  0  0  2  0  0  0  0  0  0
  190.1300  172.1270  144.6970 C   0  0  0  0  0  1  0  0  0  0  0  0
  189.7800  175.1520  146.8350 C   0  0  0  0  0  2  0  0  0  0  0  0
  191.0550  175.6150  147.5380 C   0  0  2  0  0  3  0  0  0  0  0  0
  190.9800  177.1110  147.8290 C   0  0  0  0  0  2  0  0  0  0  0  0
  191.5310  177.3970  149.0820 O   0  0  0  0  0  1  0  0  0  0  0  0
  192.2830  175.2890  146.6990 C   0  0  0  0  0  2  0  0  0  0  0  0
  192.7240  176.5010  145.8920 C   0  0  0  0  0  2  0  0  0  0  0  0
  193.7320  175.4710  143.4320 O   0  0  0  0  0  0  0  0  0  0  0  0
  194.1300  176.3710  145.5490 N   0  0  0  0  0  2  0  0  0  0  0  0
  194.5670  175.8280  144.3050 C   0  0  0  0  0  0  0  0  0  0  0  0
  196.5300  176.8070  143.4490 O   0  0  0  0  0  1  0  0  0  0  0  0
  196.0210  175.6580  144.0530 C   0  0  0  0  0  2  0  0  0  0  0  0
  1  4  1  0  0  0  0
  2  8  1  0  0  0  0
  2  3  1  0  0  0  0
  3 10  2  0  0  0  0
  4 11  2  0  0  0  0
  5  7  1  0  0  0  0
  5 21  1  6  0  0  0
  6  1  1  0  0  0  0
  8 12  1  6  0  0  0
  8  5  1  0  0  0  0
  9  1  2  0  0  0  0
  9  3  1  0  0  0  0
 10 11  1  0  0  0  0
 10  7  1  0  0  0  0
 13 12  1  0  0  0  0
 14 13  1  0  0  0  0
 15 18  1  0  0  0  0
 15 14  1  0  0  0  0
 16 18  1  0  0  0  0
 18 17  1  6  0  0  0
 18 19  1  0  0  0  0
 19 20  1  0  0  0  0
 21 22  1  0  0  0  0
 22 25  1  6  0  0  0
 22 23  1  0  0  0  0
 23 24  1  0  0  0  0
 26 25  1  0  0  0  0
 27 29  2  0  0  0  0
 28 26  1  0  0  0  0
 29 28  1  0  0  0  0
 30 31  1  0  0  0  0
 31 29  1  0  0  0  0
M  END
>  <MODEL>
6

>  <REMARK>
 VINA RESULT:      -6.4      1.610      3.076
  Name = 
  13 active torsions:
  status: ('A' for Active; 'I' for Inactive)
    1  A    between atoms: C_3  and  C_9
    2  A    between atoms: O_5  and  C_14
    3  A    between atoms: O_5  and  C_21
    4  A    between atoms: C_6  and  C_7
    5  A    between atoms: C_6  and  N_19
    6  A    between atoms: C_7  and  C_9
    7  A    between atoms: C_9  and  C_23
    8  A    between atoms: C_10  and  C_14
    9  A    between atoms: C_10  and  C_18
   10  A    between atoms: C_11  and  C_24
   11  A    between atoms: C_15  and  C_23
   12  A    between atoms: C_17  and  C_31
   13  A    between atoms: C_18  and  C_31
                            x       y       z     vdW  Elec       q    Type
                         _______ _______ _______ _____ _____    ______ ____

>  <TORSDO>
F 13

$$$$
=
 OpenBabel11052418013D

 31 32  0  0  1  0  0  0  0  0999 V2000
  190.8860  174.9020  141.8450 C   0  0  0  0  0  0  0  0  0  0  0  0
  190.2250  177.3800  144.6290 C   0  0  0  0  0  2  0  0  0  0  0  0
  190.0330  176.2220  143.6900 C   0  0  0  0  0  0  0  0  0  0  0  0
  189.6970  174.1700  141.8170 C   0  0  0  0  0  3  0  0  0  0  0  0
  187.8740  177.0730  145.3720 C   0  0  2  0  0  3  0  0  0  0  0  0
  191.8780  174.6170  140.9680 F   0  0  0  0  0  0  0  0  0  0  0  0
  187.7090  175.7450  144.6290 C   0  0  0  0  0  2  0  0  0  0  0  0
  189.3090  177.3000  145.8520 C   0  0  1  0  0  3  0  0  0  0  0  0
  191.0510  175.9290  142.7780 C   0  0  0  0  0  3  0  0  0  0  0  0
  188.8190  175.5000  143.6440 C   0  0  0  0  0  0  0  0  0  0  0  0
  188.6680  174.4670  142.7150 C   0  0  0  0  0  3  0  0  0  0  0  0
  189.7320  176.2650  146.6950 O   0  0  0  0  0  0  0  0  0  0  0  0
  190.8020  176.8010  147.4200 C   0  0  0  0  0  2  0  0  0  0  0  0
  191.9730  175.8330  147.4130 C   0  0  0  0  0  2  0  0  0  0  0  0
  193.1650  176.3990  146.6450 C   0  0  0  0  0  2  0  0  0  0  0  0
  193.8630  175.9530  144.3950 O   0  0  0  0  0  1  0  0  0  0  0  0
  195.2220  175.0630  146.1440 C   0  0  0  0  0  1  0  0  0  0  0  0
  193.8130  175.4050  145.6800 C   0  0  1  0  0  0  0  0  0  0  0  0
  192.9520  174.1430  145.6680 C   0  0  0  0  0  2  0  0  0  0  0  0
  193.1000  173.3530  144.3730 C   0  0  0  0  0  1  0  0  0  0  0  0
  186.8130  177.3070  146.4510 C   0  0  0  0  0  2  0  0  0  0  0  0
  185.9330  178.5300  146.2000 C   0  0  2  0  0  3  0  0  0  0  0  0
  185.9330  179.4380  147.4270 C   0  0  0  0  0  2  0  0  0  0  0  0
  186.7850  178.9310  148.4130 O   0  0  0  0  0  1  0  0  0  0  0  0
  184.5140  178.1100  145.8390 C   0  0  0  0  0  2  0  0  0  0  0  0
  184.1360  178.6170  144.4560 C   0  0  0  0  0  2  0  0  0  0  0  0
  186.2810  179.4130  142.7550 O   0  0  0  0  0  0  0  0  0  0  0  0
  184.7600  177.7820  143.4440 N   0  0  0  0  0  2  0  0  0  0  0  0
  185.8200  178.2500  142.6130 C   0  0  0  0  0  0  0  0  0  0  0  0
  187.6860  177.7040  141.2840 O   0  0  0  0  0  1  0  0  0  0  0  0
  186.3600  177.3630  141.5490 C   0  0  0  0  0  2  0  0  0  0  0  0
  1  9  1  0  0  0  0
  2  8  1  0  0  0  0
  3  2  1  0  0  0  0
  4  1  2  0  0  0  0
  4 11  1  0  0  0  0
  5  8  1  0  0  0  0
  5 21  1  1  0  0  0
  6  1  1  0  0  0  0
  7  5  1  0  0  0  0
  8 12  1  1  0  0  0
  9  3  2  0  0  0  0
 10  3  1  0  0  0  0
 10  7  1  0  0  0  0
 11 10  2  0  0  0  0
 12 13  1  0  0  0  0
 14 13  1  0  0  0  0
 15 14  1  0  0  0  0
 16 18  1  0  0  0  0
 18 17  1  1  0  0  0
 18 15  1  0  0  0  0
 19 18  1  0  0  0  0
 20 19  1  0  0  0  0
 22 25  1  1  0  0  0
 22 21  1  0  0  0  0
 22 23  1  0  0  0  0
 23 24  1  0  0  0  0
 26 25  1  0  0  0  0
 28 26  1  0  0  0  0
 29 27  2  0  0  0  0
 29 28  1  0  0  0  0
 30 31  1  0  0  0  0
 31 29  1  0  0  0  0
M  END
>  <MODEL>
7

>  <REMARK>
 VINA RESULT:      -6.3      3.086      7.184
  Name = 
  13 active torsions:
  status: ('A' for Active; 'I' for Inactive)
    1  A    between atoms: C_3  and  C_9
    2  A    between atoms: O_5  and  C_14
    3  A    between atoms: O_5  and  C_21
    4  A    between atoms: C_6  and  C_7
    5  A    between atoms: C_6  and  N_19
    6  A    between atoms: C_7  and  C_9
    7  A    between atoms: C_9  and  C_23
    8  A    between atoms: C_10  and  C_14
    9  A    between atoms: C_10  and  C_18
   10  A    between atoms: C_11  and  C_24
   11  A    between atoms: C_15  and  C_23
   12  A    between atoms: C_17  and  C_31
   13  A    between atoms: C_18  and  C_31
                            x       y       z     vdW  Elec       q    Type
                         _______ _______ _______ _____ _____    ______ ____

>  <TORSDO>
F 13

$$$$
=
 OpenBabel11052418013D

 31 32  0  0  1  0  0  0  0  0999 V2000
  184.4300  178.6930  145.6850 C   0  0  0  0  0  0  0  0  0  0  0  0
  187.4250  176.3860  145.8820 C   0  0  0  0  0  2  0  0  0  0  0  0
  186.4940  177.4560  145.3860 C   0  0  0  0  0  0  0  0  0  0  0  0
  184.6370  179.3380  144.4640 C   0  0  0  0  0  3  0  0  0  0  0  0
  188.6740  176.5850  143.7430 C   0  0  2  0  0  3  0  0  0  0  0  0
  183.3330  178.9800  146.4250 F   0  0  0  0  0  0  0  0  0  0  0  0
  187.9170  177.8410  143.3040 C   0  0  0  0  0  2  0  0  0  0  0  0
  188.8210  176.4930  145.2640 C   0  0  1  0  0  3  0  0  0  0  0  0
  185.3550  177.7500  146.1430 C   0  0  0  0  0  3  0  0  0  0  0  0
  186.6890  178.0880  144.1370 C   0  0  0  0  0  0  0  0  0  0  0  0
  185.7650  179.0380  143.6940 C   0  0  0  0  0  3  0  0  0  0  0  0
  189.4840  177.6130  145.7790 O   0  0  0  0  0  0  0  0  0  0  0  0
  189.8230  177.2640  147.0910 C   0  0  0  0  0  2  0  0  0  0  0  0
  190.6780  176.0090  147.0920 C   0  0  0  0  0  2  0  0  0  0  0  0
  192.1590  176.3380  147.2770 C   0  0  0  0  0  2  0  0  0  0  0  0
  192.7790  176.9290  145.0380 O   0  0  0  0  0  1  0  0  0  0  0  0
  194.5010  176.0540  146.4410 C   0  0  0  0  0  1  0  0  0  0  0  0
  193.0270  176.0110  146.0610 C   0  0  1  0  0  0  0  0  0  0  0  0
  192.6550  174.6050  145.5920 C   0  0  0  0  0  2  0  0  0  0  0  0
  193.7900  173.6080  145.7910 C   0  0  0  0  0  1  0  0  0  0  0  0
  189.9810  176.3590  142.9780 C   0  0  0  0  0  2  0  0  0  0  0  0
  189.9750  175.1100  142.0980 C   0  0  2  0  0  3  0  0  0  0  0  0
  188.5740  174.5090  142.0500 C   0  0  0  0  0  2  0  0  0  0  0  0
  188.4680  173.5900  141.0010 O   0  0  0  0  0  1  0  0  0  0  0  0
  190.9850  174.0880  142.6030 C   0  0  0  0  0  2  0  0  0  0  0  0
  192.0550  173.8220  141.5550 C   0  0  0  0  0  2  0  0  0  0  0  0
  193.6130  176.1990  141.7730 O   0  0  0  0  0  0  0  0  0  0  0  0
  193.3690  173.9120  142.1680 N   0  0  0  0  0  2  0  0  0  0  0  0
  194.1040  175.1320  142.2270 C   0  0  0  0  0  0  0  0  0  0  0  0
  195.7730  176.4010  143.3000 O   0  0  0  0  0  1  0  0  0  0  0  0
  195.4740  175.1330  142.8040 C   0  0  0  0  0  2  0  0  0  0  0  0
  1  9  1  0  0  0  0
  1  6  1  0  0  0  0
  3  2  1  0  0  0  0
  3  9  2  0  0  0  0
  4  1  2  0  0  0  0
  5 21  1  6  0  0  0
  5  8  1  0  0  0  0
  7  5  1  0  0  0  0
  7 10  1  0  0  0  0
  8 12  1  1  0  0  0
  8  2  1  0  0  0  0
 10  3  1  0  0  0  0
 11 10  2  0  0  0  0
 11  4  1  0  0  0  0
 12 13  1  0  0  0  0
 13 14  1  0  0  0  0
 14 15  1  0  0  0  0
 16 18  1  0  0  0  0
 18 17  1  1  0  0  0
 18 15  1  0  0  0  0
 19 20  1  0  0  0  0
 19 18  1  0  0  0  0
 22 23  1  1  0  0  0
 22 25  1  0  0  0  0
 22 21  1  0  0  0  0
 24 23  1  0  0  0  0
 26 28  1  0  0  0  0
 26 25  1  0  0  0  0
 27 29  2  0  0  0  0
 28 29  1  0  0  0  0
 29 31  1  0  0  0  0
 31 30  1  0  0  0  0
M  END
>  <MODEL>
8

>  <REMARK>
 VINA RESULT:      -6.2      2.112      5.267
  Name = 
  13 active torsions:
  status: ('A' for Active; 'I' for Inactive)
    1  A    between atoms: C_3  and  C_9
    2  A    between atoms: O_5  and  C_14
    3  A    between atoms: O_5  and  C_21
    4  A    between atoms: C_6  and  C_7
    5  A    between atoms: C_6  and  N_19
    6  A    between atoms: C_7  and  C_9
    7  A    between atoms: C_9  and  C_23
    8  A    between atoms: C_10  and  C_14
    9  A    between atoms: C_10  and  C_18
   10  A    between atoms: C_11  and  C_24
   11  A    between atoms: C_15  and  C_23
   12  A    between atoms: C_17  and  C_31
   13  A    between atoms: C_18  and  C_31
                            x       y       z     vdW  Elec       q    Type
                         _______ _______ _______ _____ _____    ______ ____

>  <TORSDO>
F 13

$$$$
=
 OpenBabel11052418013D

 31 32  0  0  1  0  0  0  0  0999 V2000
  185.1300  178.2690  146.8310 C   0  0  0  0  0  0  0  0  0  0  0  0
  188.0800  175.8960  146.8320 C   0  0  0  0  0  2  0  0  0  0  0  0
  187.0980  176.9320  146.3620 C   0  0  0  0  0  0  0  0  0  0  0  0
  185.1470  178.7560  145.5230 C   0  0  0  0  0  3  0  0  0  0  0  0
  188.9690  175.7950  144.5130 C   0  0  2  0  0  3  0  0  0  0  0  0
  184.1730  178.6800  147.6960 F   0  0  0  0  0  0  0  0  0  0  0  0
  188.1700  177.0160  144.0490 C   0  0  0  0  0  2  0  0  0  0  0  0
  189.3580  175.8790  145.9910 C   0  0  1  0  0  3  0  0  0  0  0  0
  186.1020  177.3550  147.2480 C   0  0  0  0  0  3  0  0  0  0  0  0
  187.0990  177.4040  145.0300 C   0  0  0  0  0  0  0  0  0  0  0  0
  186.1300  178.3270  144.6270 C   0  0  0  0  0  3  0  0  0  0  0  0
  190.1150  177.0270  146.2530 O   0  0  0  0  0  0  0  0  0  0  0  0
  190.7390  176.7800  147.4790 C   0  0  0  0  0  2  0  0  0  0  0  0
  191.8720  175.7840  147.2950 C   0  0  0  0  0  2  0  0  0  0  0  0
  193.0710  176.4190  146.5940 C   0  0  0  0  0  2  0  0  0  0  0  0
  195.1670  175.3420  146.1520 O   0  0  0  0  0  1  0  0  0  0  0  0
  193.1900  174.0830  145.7020 C   0  0  0  0  0  1  0  0  0  0  0  0
  193.8500  175.4550  145.6980 C   0  0  1  0  0  0  0  0  0  0  0  0
  193.8420  176.0280  144.2820 C   0  0  0  0  0  2  0  0  0  0  0  0
  193.7740  174.9410  143.2160 C   0  0  0  0  0  1  0  0  0  0  0  0
  190.1300  175.4330  143.5830 C   0  0  0  0  0  2  0  0  0  0  0  0
  190.0200  174.0380  142.9690 C   0  0  2  0  0  3  0  0  0  0  0  0
  188.7220  173.9160  142.1760 C   0  0  0  0  0  2  0  0  0  0  0  0
  188.7980  174.6540  140.9910 O   0  0  0  0  0  1  0  0  0  0  0  0
  190.0990  172.9650  144.0460 C   0  0  0  0  0  2  0  0  0  0  0  0
  190.6380  171.6630  143.4730 C   0  0  0  0  0  2  0  0  0  0  0  0
  192.6820  169.8400  144.2630 O   0  0  0  0  0  0  0  0  0  0  0  0
  192.0540  171.8100  143.1800 N   0  0  0  0  0  2  0  0  0  0  0  0
  193.0280  170.8680  143.6230 C   0  0  0  0  0  0  0  0  0  0  0  0
  194.9880  170.0810  142.5820 O   0  0  0  0  0  1  0  0  0  0  0  0
  194.4670  171.1220  143.3490 C   0  0  0  0  0  2  0  0  0  0  0  0
  1  9  1  0  0  0  0
  1  6  1  0  0  0  0
  3  2  1  0  0  0  0
  3  9  2  0  0  0  0
  4  1  2  0  0  0  0
  5 21  1  6  0  0  0
  5  8  1  0  0  0  0
  7  5  1  0  0  0  0
  7 10  1  0  0  0  0
  8 12  1  6  0  0  0
  8  2  1  0  0  0  0
 10  3  1  0  0  0  0
 11 10  2  0  0  0  0
 11  4  1  0  0  0  0
 12 13  1  0  0  0  0
 14 13  1  0  0  0  0
 15 14  1  0  0  0  0
 18 17  1  1  0  0  0
 18 16  1  0  0  0  0
 18 15  1  0  0  0  0
 19 18  1  0  0  0  0
 20 19  1  0  0  0  0
 22 23  1  1  0  0  0
 22 21  1  0  0  0  0
 22 25  1  0  0  0  0
 24 23  1  0  0  0  0
 26 25  1  0  0  0  0
 28 26  1  0  0  0  0
 28 29  1  0  0  0  0
 29 27  2  0  0  0  0
 30 31  1  0  0  0  0
 31 29  1  0  0  0  0
M  END
>  <MODEL>
9

>  <REMARK>
 VINA RESULT:      -6.1      2.839      5.688
  Name = 
  13 active torsions:
  status: ('A' for Active; 'I' for Inactive)
    1  A    between atoms: C_3  and  C_9
    2  A    between atoms: O_5  and  C_14
    3  A    between atoms: O_5  and  C_21
    4  A    between atoms: C_6  and  C_7
    5  A    between atoms: C_6  and  N_19
    6  A    between atoms: C_7  and  C_9
    7  A    between atoms: C_9  and  C_23
    8  A    between atoms: C_10  and  C_14
    9  A    between atoms: C_10  and  C_18
   10  A    between atoms: C_11  and  C_24
   11  A    between atoms: C_15  and  C_23
   12  A    between atoms: C_17  and  C_31
   13  A    between atoms: C_18  and  C_31
                            x       y       z     vdW  Elec       q    Type
                         _______ _______ _______ _____ _____    ______ ____

>  <TORSDO>
F 13

$$$$
