=
 OpenBabel11052417363D

 25 27  0  0  1  0  0  0  0  0999 V2000
  186.5700  178.1750  145.0720 N   0  0  0  0  0  0  0  0  0  0  0  0
  187.5020  177.9550  144.0000 C   0  0  0  0  0  0  0  0  0  0  0  0
  184.6750  178.2340  143.5320 C   0  0  0  0  0  2  0  0  0  0  0  0
  186.8130  177.7680  146.4490 C   0  0  1  0  0  3  0  0  0  0  0  0
  185.6460  178.2830  142.4390 N   0  0  0  0  0  2  0  0  0  0  0  0
  185.6540  178.2630  147.3040 C   0  0  2  0  0  3  0  0  0  0  0  0
  187.9250  177.8560  141.6100 C   0  0  0  0  0  0  0  0  0  0  0  0
  187.4850  177.9360  140.3290 F   0  0  0  0  0  0  0  0  0  0  0  0
  188.8540  177.6810  144.2470 C   0  0  0  0  0  3  0  0  0  0  0  0
  185.2940  178.8220  144.7970 C   0  0  1  0  0  3  0  0  0  0  0  0
  184.2120  178.5550  146.2280 S   0  0  0  0  0  0  0  0  0  0  0  0
  189.2730  177.5860  141.8640 C   0  0  0  0  0  3  0  0  0  0  0  0
  189.7450  177.4930  143.1770 C   0  0  0  0  0  0  0  0  0  0  0  0
  187.0360  178.0280  142.6770 C   0  0  0  0  0  0  0  0  0  0  0  0
  191.1330  177.2120  143.3970 N   0  0  0  0  0  0  0  0  0  0  0  0
  191.6620  177.1440  144.5780 C   0  0  0  0  0  3  0  0  0  0  0  0
  193.1150  176.8500  144.7390 C   0  0  2  0  0  3  0  0  0  0  0  0
  193.4950  175.8600  143.8330 O   0  0  0  0  0  1  0  0  0  0  0  0
  193.4160  176.4080  146.1340 C   0  0  0  0  0  0  0  0  0  0  0  0
  192.8150  175.2620  146.6370 O   0  0  0  0  0  0  0  0  0  0  0  0
  194.2260  177.0560  146.8500 O   0  0  0  0  0  1  0  0  0  0  0  0
  186.3300  180.5030  148.4900 N   0  0  0  0  0  0  0  0  0  0  0  0
  186.0310  179.5140  147.9660 C   0  0  0  0  0  0  0  0  0  0  0  0
  188.1690  175.8950  147.1380 O   0  0  0  0  0  1  0  0  0  0  0  0
  186.9490  176.2500  146.5580 C   0  0  0  0  0  2  0  0  0  0  0  0
  1  4  1  0  0  0  0
  2  9  1  0  0  0  0
  2  1  1  0  0  0  0
  4 25  1  6  0  0  0
  4  6  1  0  0  0  0
  5 14  1  0  0  0  0
  5  3  1  0  0  0  0
  6 23  1  6  0  0  0
  7 12  2  0  0  0  0
  7 14  1  0  0  0  0
  8  7  1  0  0  0  0
 10  3  1  6  0  0  0
 10  1  1  0  0  0  0
 10 11  1  0  0  0  0
 11  6  1  0  0  0  0
 12 13  1  0  0  0  0
 13 15  1  0  0  0  0
 13  9  2  0  0  0  0
 14  2  2  0  0  0  0
 15 16  2  0  0  0  0
 16 17  1  0  0  0  0
 17 18  1  6  0  0  0
 17 19  1  0  0  0  0
 19 20  2  0  0  0  0
 19 21  1  0  0  0  0
 23 22  3  0  0  0  0
 25 24  1  0  0  0  0
M  END
>  <MODEL>
1

>  <REMARK>
 VINA RESULT:      -6.1      0.000      0.000
  Name = 
  5 active torsions:
  status: ('A' for Active; 'I' for Inactive)
    1  A    between atoms: C_2  and  C_21
    2  A    between atoms: C_5  and  C_22
    3  A    between atoms: N_6  and  C_23
    4  A    between atoms: C_10  and  C_11
    5  A    between atoms: C_15  and  C_21
                            x       y       z     vdW  Elec       q    Type
                         _______ _______ _______ _____ _____    ______ ____

>  <TORSDO>
F 5

$$$$
=
 OpenBabel11052417363D

 25 27  0  0  1  0  0  0  0  0999 V2000
  189.5190  175.5660  144.6170 N   0  0  0  0  0  0  0  0  0  0  0  0
  188.2890  176.2200  144.9690 C   0  0  0  0  0  0  0  0  0  0  0  0
  189.7110  174.5400  146.8260 C   0  0  0  0  0  2  0  0  0  0  0  0
  189.8920  175.2290  143.2490 C   0  0  1  0  0  3  0  0  0  0  0  0
  188.6200  175.4150  147.2570 N   0  0  0  0  0  2  0  0  0  0  0  0
  191.2990  174.6460  143.2680 C   0  0  2  0  0  3  0  0  0  0  0  0
  186.6770  176.8160  146.6850 C   0  0  0  0  0  0  0  0  0  0  0  0
  186.2520  176.7690  147.9730 F   0  0  0  0  0  0  0  0  0  0  0  0
  187.5320  176.9200  144.0210 C   0  0  0  0  0  3  0  0  0  0  0  0
  190.4600  175.1860  145.6620 C   0  0  1  0  0  3  0  0  0  0  0  0
  191.6560  174.0270  144.9440 S   0  0  0  0  0  0  0  0  0  0  0  0
  185.9280  177.5150  145.7340 C   0  0  0  0  0  3  0  0  0  0  0  0
  186.3460  177.5700  144.4000 C   0  0  0  0  0  0  0  0  0  0  0  0
  187.8510  176.1570  146.3020 C   0  0  0  0  0  0  0  0  0  0  0  0
  185.5500  178.2940  143.4540 N   0  0  0  0  0  0  0  0  0  0  0  0
  184.4400  177.8370  142.9660 C   0  0  0  0  0  3  0  0  0  0  0  0
  183.6590  178.6400  141.9810 C   0  0  2  0  0  3  0  0  0  0  0  0
  182.2970  178.5190  142.2550 O   0  0  0  0  0  1  0  0  0  0  0  0
  183.9420  178.1880  140.5860 C   0  0  0  0  0  0  0  0  0  0  0  0
  185.2320  178.2820  140.0810 O   0  0  0  0  0  1  0  0  0  0  0  0
  183.0240  177.7060  139.8710 O   0  0  0  0  0  0  0  0  0  0  0  0
  193.0330  176.5100  142.6370 N   0  0  0  0  0  0  0  0  0  0  0  0
  192.2670  175.6880  142.9150 C   0  0  0  0  0  0  0  0  0  0  0  0
  188.5240  174.6280  141.3550 O   0  0  0  0  0  1  0  0  0  0  0  0
  188.9070  174.2330  142.6390 C   0  0  0  0  0  2  0  0  0  0  0  0
  1  2  1  0  0  0  0
  1 10  1  0  0  0  0
  2 14  1  0  0  0  0
  3  5  1  0  0  0  0
  4 25  1  1  0  0  0
  4  6  1  0  0  0  0
  4  1  1  0  0  0  0
  6 23  1  1  0  0  0
  6 11  1  0  0  0  0
  7  8  1  0  0  0  0
  9 13  1  0  0  0  0
  9  2  2  0  0  0  0
 10  3  1  1  0  0  0
 11 10  1  0  0  0  0
 12  7  1  0  0  0  0
 13 12  2  0  0  0  0
 14  7  2  0  0  0  0
 14  5  1  0  0  0  0
 15 13  1  0  0  0  0
 16 15  2  0  0  0  0
 17 18  1  1  0  0  0
 17 16  1  0  0  0  0
 19 17  1  0  0  0  0
 20 19  1  0  0  0  0
 21 19  2  0  0  0  0
 22 23  3  0  0  0  0
 24 25  1  0  0  0  0
M  END
>  <MODEL>
2

>  <REMARK>
 VINA RESULT:      -6.0      4.387      7.558
  Name = 
  5 active torsions:
  status: ('A' for Active; 'I' for Inactive)
    1  A    between atoms: C_2  and  C_21
    2  A    between atoms: C_5  and  C_22
    3  A    between atoms: N_6  and  C_23
    4  A    between atoms: C_10  and  C_11
    5  A    between atoms: C_15  and  C_21
                            x       y       z     vdW  Elec       q    Type
                         _______ _______ _______ _____ _____    ______ ____

>  <TORSDO>
F 5

$$$$
=
 OpenBabel11052417363D

 25 27  0  0  1  0  0  0  0  0999 V2000
  190.8570  175.2010  144.6110 N   0  0  0  0  0  0  0  0  0  0  0  0
  189.7580  174.9310  143.7250 C   0  0  0  0  0  0  0  0  0  0  0  0
  191.9760  173.1170  144.0020 C   0  0  0  0  0  2  0  0  0  0  0  0
  191.2520  176.5420  145.0240 C   0  0  1  0  0  3  0  0  0  0  0  0
  190.7410  172.7270  143.3210 N   0  0  0  0  0  2  0  0  0  0  0  0
  192.3810  176.4150  146.0370 C   0  0  2  0  0  3  0  0  0  0  0  0
  188.6170  173.3710  142.2550 C   0  0  0  0  0  0  0  0  0  0  0  0
  188.5420  172.1590  141.6490 F   0  0  0  0  0  0  0  0  0  0  0  0
  188.7540  175.8810  143.4910 C   0  0  0  0  0  3  0  0  0  0  0  0
  191.6560  174.0980  145.1270 C   0  0  1  0  0  3  0  0  0  0  0  0
  193.1780  174.7890  145.8310 S   0  0  0  0  0  0  0  0  0  0  0  0
  187.6170  174.3220  142.0280 C   0  0  0  0  0  3  0  0  0  0  0  0
  187.6800  175.5790  142.6380 C   0  0  0  0  0  0  0  0  0  0  0  0
  189.6950  173.6790  143.0930 C   0  0  0  0  0  0  0  0  0  0  0  0
  186.6380  176.5280  142.3780 N   0  0  0  0  0  0  0  0  0  0  0  0
  185.7860  176.9070  143.2780 C   0  0  0  0  0  3  0  0  0  0  0  0
  184.7220  177.8970  142.9430 C   0  0  2  0  0  3  0  0  0  0  0  0
  184.9850  178.4600  141.6940 O   0  0  0  0  0  1  0  0  0  0  0  0
  184.6470  178.9680  143.9810 C   0  0  0  0  0  0  0  0  0  0  0  0
  185.4860  180.0710  143.8930 O   0  0  0  0  0  0  0  0  0  0  0  0
  183.8170  178.8880  144.9250 O   0  0  0  0  0  1  0  0  0  0  0  0
  191.4100  176.6120  148.4660 N   0  0  0  0  0  0  0  0  0  0  0  0
  191.8390  176.5250  147.3940 C   0  0  0  0  0  0  0  0  0  0  0  0
  191.0430  178.6110  143.8010 O   0  0  0  0  0  1  0  0  0  0  0  0
  191.6980  177.3780  143.8250 C   0  0  0  0  0  2  0  0  0  0  0  0
  1  4  1  0  0  0  0
  1 10  1  0  0  0  0
  2  1  1  0  0  0  0
  4 25  1  6  0  0  0
  4  6  1  0  0  0  0
  5  3  1  0  0  0  0
  6 23  1  1  0  0  0
  7 14  1  0  0  0  0
  8  7  1  0  0  0  0
  9  2  1  0  0  0  0
 10  3  1  6  0  0  0
 10 11  1  0  0  0  0
 11  6  1  0  0  0  0
 12  7  2  0  0  0  0
 12 13  1  0  0  0  0
 13  9  2  0  0  0  0
 14  5  1  0  0  0  0
 14  2  2  0  0  0  0
 15 13  1  0  0  0  0
 15 16  2  0  0  0  0
 17 18  1  6  0  0  0
 17 16  1  0  0  0  0
 17 19  1  0  0  0  0
 19 21  1  0  0  0  0
 20 19  2  0  0  0  0
 23 22  3  0  0  0  0
 24 25  1  0  0  0  0
M  END
>  <MODEL>
3

>  <REMARK>
 VINA RESULT:      -6.0      4.067      6.828
  Name = 
  5 active torsions:
  status: ('A' for Active; 'I' for Inactive)
    1  A    between atoms: C_2  and  C_21
    2  A    between atoms: C_5  and  C_22
    3  A    between atoms: N_6  and  C_23
    4  A    between atoms: C_10  and  C_11
    5  A    between atoms: C_15  and  C_21
                            x       y       z     vdW  Elec       q    Type
                         _______ _______ _______ _____ _____    ______ ____

>  <TORSDO>
F 5

$$$$
=
 OpenBabel11052417363D

 25 27  0  0  1  0  0  0  0  0999 V2000
  186.8110  177.1020  142.7750 N   0  0  0  0  0  0  0  0  0  0  0  0
  186.7740  177.0930  144.2110 C   0  0  0  0  0  0  0  0  0  0  0  0
  184.6390  178.2120  142.6370 C   0  0  0  0  0  2  0  0  0  0  0  0
  188.0430  177.0690  141.9970 C   0  0  1  0  0  3  0  0  0  0  0  0
  184.4880  177.9560  144.0700 N   0  0  0  0  0  2  0  0  0  0  0  0
  187.6740  176.9840  140.5220 C   0  0  2  0  0  3  0  0  0  0  0  0
  185.5180  177.4730  146.2550 C   0  0  0  0  0  0  0  0  0  0  0  0
  184.3810  177.8600  146.8860 F   0  0  0  0  0  0  0  0  0  0  0  0
  187.8750  176.6760  144.9710 C   0  0  0  0  0  3  0  0  0  0  0  0
  185.5650  177.1660  142.0220 C   0  0  1  0  0  3  0  0  0  0  0  0
  185.9700  177.5940  140.3060 S   0  0  0  0  0  0  0  0  0  0  0  0
  186.6190  177.0530  147.0060 C   0  0  0  0  0  3  0  0  0  0  0  0
  187.8020  176.6570  146.3740 C   0  0  0  0  0  0  0  0  0  0  0  0
  185.5980  177.5070  144.8580 C   0  0  0  0  0  0  0  0  0  0  0  0
  188.9100  176.2350  147.1780 N   0  0  0  0  0  0  0  0  0  0  0  0
  190.0810  176.7850  147.1130 C   0  0  0  0  0  3  0  0  0  0  0  0
  191.1950  176.2980  147.9760 C   0  0  2  0  0  3  0  0  0  0  0  0
  191.5660  177.3000  148.8720 O   0  0  0  0  0  1  0  0  0  0  0  0
  192.3700  175.8920  147.1480 C   0  0  0  0  0  0  0  0  0  0  0  0
  192.3810  174.6480  146.5320 O   0  0  0  0  0  0  0  0  0  0  0  0
  193.3420  176.6780  146.9880 O   0  0  0  0  0  1  0  0  0  0  0  0
  187.8200  174.4910  139.7210 N   0  0  0  0  0  0  0  0  0  0  0  0
  187.7550  175.5920  140.0750 C   0  0  0  0  0  0  0  0  0  0  0  0
  190.1660  177.9530  142.7240 O   0  0  0  0  0  1  0  0  0  0  0  0
  188.8960  178.3080  142.2660 C   0  0  0  0  0  2  0  0  0  0  0  0
  1  2  1  0  0  0  0
  2 14  2  0  0  0  0
  2  9  1  0  0  0  0
  3  5  1  0  0  0  0
  4 25  1  6  0  0  0
  4  1  1  0  0  0  0
  5 14  1  0  0  0  0
  6 23  1  1  0  0  0
  6  4  1  0  0  0  0
  7  8  1  0  0  0  0
  7 12  2  0  0  0  0
  9 13  2  0  0  0  0
 10  3  1  1  0  0  0
 10  1  1  0  0  0  0
 11  6  1  0  0  0  0
 11 10  1  0  0  0  0
 13 12  1  0  0  0  0
 13 15  1  0  0  0  0
 14  7  1  0  0  0  0
 16 15  2  0  0  0  0
 16 17  1  0  0  0  0
 17 18  1  1  0  0  0
 19 17  1  0  0  0  0
 20 19  2  0  0  0  0
 21 19  1  0  0  0  0
 22 23  3  0  0  0  0
 25 24  1  0  0  0  0
M  END
>  <MODEL>
4

>  <REMARK>
 VINA RESULT:      -5.9      2.936      4.911
  Name = 
  5 active torsions:
  status: ('A' for Active; 'I' for Inactive)
    1  A    between atoms: C_2  and  C_21
    2  A    between atoms: C_5  and  C_22
    3  A    between atoms: N_6  and  C_23
    4  A    between atoms: C_10  and  C_11
    5  A    between atoms: C_15  and  C_21
                            x       y       z     vdW  Elec       q    Type
                         _______ _______ _______ _____ _____    ______ ____

>  <TORSDO>
F 5

$$$$
=
 OpenBabel11052417363D

 25 27  0  0  1  0  0  0  0  0999 V2000
  191.2770  174.5410  144.5680 N   0  0  0  0  0  0  0  0  0  0  0  0
  190.4680  175.4350  145.3510 C   0  0  0  0  0  0  0  0  0  0  0  0
  193.1150  174.6540  146.1740 C   0  0  0  0  0  2  0  0  0  0  0  0
  190.7300  173.5590  143.6420 C   0  0  1  0  0  3  0  0  0  0  0  0
  192.4020  175.7600  146.8150 N   0  0  0  0  0  2  0  0  0  0  0  0
  191.8910  172.8790  142.9280 C   0  0  2  0  0  3  0  0  0  0  0  0
  190.2950  176.9640  147.2300 C   0  0  0  0  0  0  0  0  0  0  0  0
  190.8470  177.5810  148.3050 F   0  0  0  0  0  0  0  0  0  0  0  0
  189.1330  175.6990  145.0180 C   0  0  0  0  0  3  0  0  0  0  0  0
  192.7270  174.5780  144.6990 C   0  0  1  0  0  3  0  0  0  0  0  0
  193.3970  173.0770  143.9340 S   0  0  0  0  0  0  0  0  0  0  0  0
  188.9640  177.2260  146.8890 C   0  0  0  0  0  3  0  0  0  0  0  0
  188.3750  176.5960  145.7890 C   0  0  0  0  0  0  0  0  0  0  0  0
  191.0440  176.0590  146.4690 C   0  0  0  0  0  0  0  0  0  0  0  0
  187.0080  176.8870  145.4730 N   0  0  0  0  0  0  0  0  0  0  0  0
  186.6190  177.2690  144.2980 C   0  0  0  0  0  3  0  0  0  0  0  0
  185.1800  177.5600  144.0350 C   0  0  2  0  0  3  0  0  0  0  0  0
  184.9450  177.5480  142.6600 O   0  0  0  0  0  1  0  0  0  0  0  0
  184.7920  178.8840  144.6080 C   0  0  0  0  0  0  0  0  0  0  0  0
  185.3790  180.0430  144.1180 O   0  0  0  0  0  0  0  0  0  0  0  0
  183.9230  178.9590  145.5160 O   0  0  0  0  0  1  0  0  0  0  0  0
  192.2530  173.9920  140.5810 N   0  0  0  0  0  0  0  0  0  0  0  0
  192.0930  173.5010  141.6170 C   0  0  0  0  0  0  0  0  0  0  0  0
  188.9990  171.8850  143.4950 O   0  0  0  0  0  1  0  0  0  0  0  0
  189.8730  172.5280  144.3750 C   0  0  0  0  0  2  0  0  0  0  0  0
  1 10  1  0  0  0  0
  1  2  1  0  0  0  0
  2 14  1  0  0  0  0
  3  5  1  0  0  0  0
  4 25  1  1  0  0  0
  4  1  1  0  0  0  0
  6 23  1  6  0  0  0
  6  4  1  0  0  0  0
  6 11  1  0  0  0  0
  7  8  1  0  0  0  0
  9  2  2  0  0  0  0
  9 13  1  0  0  0  0
 10  3  1  1  0  0  0
 11 10  1  0  0  0  0
 12  7  1  0  0  0  0
 13 12  2  0  0  0  0
 14  5  1  0  0  0  0
 14  7  2  0  0  0  0
 15 13  1  0  0  0  0
 16 15  2  0  0  0  0
 17 18  1  6  0  0  0
 17 16  1  0  0  0  0
 17 19  1  0  0  0  0
 19 21  1  0  0  0  0
 20 19  2  0  0  0  0
 22 23  3  0  0  0  0
 24 25  1  0  0  0  0
M  END
>  <MODEL>
5

>  <REMARK>
 VINA RESULT:      -5.8      4.435      7.747
  Name = 
  5 active torsions:
  status: ('A' for Active; 'I' for Inactive)
    1  A    between atoms: C_2  and  C_21
    2  A    between atoms: C_5  and  C_22
    3  A    between atoms: N_6  and  C_23
    4  A    between atoms: C_10  and  C_11
    5  A    between atoms: C_15  and  C_21
                            x       y       z     vdW  Elec       q    Type
                         _______ _______ _______ _____ _____    ______ ____

>  <TORSDO>
F 5

$$$$
=
 OpenBabel11052417363D

 25 27  0  0  1  0  0  0  0  0999 V2000
  189.3390  176.3560  144.5740 N   0  0  0  0  0  0  0  0  0  0  0  0
  190.5490  176.4110  145.3480 C   0  0  0  0  0  0  0  0  0  0  0  0
  188.0160  177.2710  146.4130 C   0  0  0  0  0  2  0  0  0  0  0  0
  189.3090  176.3930  143.1180 C   0  0  1  0  0  3  0  0  0  0  0  0
  189.1850  177.0700  147.2700 N   0  0  0  0  0  2  0  0  0  0  0  0
  187.8660  176.2090  142.6670 C   0  0  2  0  0  3  0  0  0  0  0  0
  191.6200  176.7770  147.4970 C   0  0  0  0  0  0  0  0  0  0  0  0
  191.5450  177.0950  148.8140 F   0  0  0  0  0  0  0  0  0  0  0  0
  191.7970  176.1240  144.7790 C   0  0  0  0  0  3  0  0  0  0  0  0
  188.0520  176.2800  145.2520 C   0  0  1  0  0  3  0  0  0  0  0  0
  186.7580  176.6610  144.0410 S   0  0  0  0  0  0  0  0  0  0  0  0
  192.8610  176.4870  146.9240 C   0  0  0  0  0  3  0  0  0  0  0  0
  192.9600  176.1630  145.5670 C   0  0  0  0  0  0  0  0  0  0  0  0
  190.4640  176.7530  146.7070 C   0  0  0  0  0  0  0  0  0  0  0  0
  194.2510  175.8750  145.0150 N   0  0  0  0  0  0  0  0  0  0  0  0
  194.4310  175.5360  143.7780 C   0  0  0  0  0  3  0  0  0  0  0  0
  195.8010  175.2450  143.2650 C   0  0  2  0  0  3  0  0  0  0  0  0
  196.6230  174.8570  144.3230 O   0  0  0  0  0  1  0  0  0  0  0  0
  196.3780  176.4420  142.5820 C   0  0  0  0  0  0  0  0  0  0  0  0
  195.9500  176.7770  141.3050 O   0  0  0  0  0  0  0  0  0  0  0  0
  197.2340  177.1600  143.1640 O   0  0  0  0  0  1  0  0  0  0  0  0
  187.4630  173.7030  142.0060 N   0  0  0  0  0  0  0  0  0  0  0  0
  187.6410  174.8090  142.2980 C   0  0  0  0  0  0  0  0  0  0  0  0
  188.9890  178.3080  141.6870 O   0  0  0  0  0  1  0  0  0  0  0  0
  189.8730  177.7100  142.5890 C   0  0  0  0  0  2  0  0  0  0  0  0
  1 10  1  0  0  0  0
  1  2  1  0  0  0  0
  2 14  1  0  0  0  0
  3  5  1  0  0  0  0
  4 25  1  1  0  0  0
  4  1  1  0  0  0  0
  6 23  1  1  0  0  0
  6  4  1  0  0  0  0
  6 11  1  0  0  0  0
  7  8  1  0  0  0  0
  9  2  2  0  0  0  0
  9 13  1  0  0  0  0
 10  3  1  1  0  0  0
 11 10  1  0  0  0  0
 12  7  1  0  0  0  0
 13 12  2  0  0  0  0
 14  5  1  0  0  0  0
 14  7  2  0  0  0  0
 15 13  1  0  0  0  0
 16 15  2  0  0  0  0
 17 16  1  0  0  0  0
 17 18  1  1  0  0  0
 19 21  1  0  0  0  0
 19 17  1  0  0  0  0
 20 19  2  0  0  0  0
 22 23  3  0  0  0  0
 24 25  1  0  0  0  0
M  END
>  <MODEL>
6

>  <REMARK>
 VINA RESULT:      -5.8      3.567      5.442
  Name = 
  5 active torsions:
  status: ('A' for Active; 'I' for Inactive)
    1  A    between atoms: C_2  and  C_21
    2  A    between atoms: C_5  and  C_22
    3  A    between atoms: N_6  and  C_23
    4  A    between atoms: C_10  and  C_11
    5  A    between atoms: C_15  and  C_21
                            x       y       z     vdW  Elec       q    Type
                         _______ _______ _______ _____ _____    ______ ____

>  <TORSDO>
F 5

$$$$
=
 OpenBabel11052417363D

 25 27  0  0  1  0  0  0  0  0999 V2000
  191.0130  175.8930  145.2800 N   0  0  0  0  0  0  0  0  0  0  0  0
  189.6830  176.4310  145.3650 C   0  0  0  0  0  0  0  0  0  0  0  0
  191.4520  176.3710  147.6360 C   0  0  0  0  0  2  0  0  0  0  0  0
  191.4200  174.8940  144.3010 C   0  0  1  0  0  3  0  0  0  0  0  0
  190.2150  177.1520  147.6430 N   0  0  0  0  0  2  0  0  0  0  0  0
  192.9160  174.6550  144.4570 C   0  0  2  0  0  3  0  0  0  0  0  0
  188.0170  177.6460  146.6490 C   0  0  0  0  0  0  0  0  0  0  0  0
  187.6360  178.2840  147.7840 F   0  0  0  0  0  0  0  0  0  0  0  0
  188.7810  176.3290  144.2980 C   0  0  0  0  0  3  0  0  0  0  0  0
  192.0310  176.3360  146.2230 C   0  0  1  0  0  3  0  0  0  0  0  0
  193.4240  175.1780  146.1270 S   0  0  0  0  0  0  0  0  0  0  0  0
  187.1230  177.5440  145.5790 C   0  0  0  0  0  3  0  0  0  0  0  0
  187.4950  176.8850  144.4020 C   0  0  0  0  0  0  0  0  0  0  0  0
  189.2930  177.0790  146.5490 C   0  0  0  0  0  0  0  0  0  0  0  0
  186.5500  176.7980  143.3280 N   0  0  0  0  0  0  0  0  0  0  0  0
  186.1930  177.8200  142.6160 C   0  0  0  0  0  3  0  0  0  0  0  0
  185.2020  177.6640  141.5130 C   0  0  2  0  0  3  0  0  0  0  0  0
  185.6530  178.3410  140.3790 O   0  0  0  0  0  1  0  0  0  0  0  0
  183.8650  178.1880  141.9220 C   0  0  0  0  0  0  0  0  0  0  0  0
  182.8290  178.2260  140.9980 O   0  0  0  0  0  0  0  0  0  0  0  0
  183.6640  178.5770  143.1030 O   0  0  0  0  0  1  0  0  0  0  0  0
  194.2210  176.0570  142.6660 N   0  0  0  0  0  0  0  0  0  0  0  0
  193.6450  175.4390  143.4560 C   0  0  0  0  0  0  0  0  0  0  0  0
  191.5040  172.4880  144.4610 O   0  0  0  0  0  1  0  0  0  0  0  0
  190.6460  173.5900  144.4920 C   0  0  0  0  0  2  0  0  0  0  0  0
  1  2  1  0  0  0  0
  1 10  1  0  0  0  0
  2 14  1  0  0  0  0
  3  5  1  0  0  0  0
  4  6  1  0  0  0  0
  4 25  1  1  0  0  0
  4  1  1  0  0  0  0
  6 23  1  6  0  0  0
  6 11  1  0  0  0  0
  7  8  1  0  0  0  0
  9 13  1  0  0  0  0
  9  2  2  0  0  0  0
 10  3  1  1  0  0  0
 11 10  1  0  0  0  0
 12  7  1  0  0  0  0
 13 12  2  0  0  0  0
 14  7  2  0  0  0  0
 14  5  1  0  0  0  0
 15 13  1  0  0  0  0
 16 15  2  0  0  0  0
 17 18  1  6  0  0  0
 17 19  1  0  0  0  0
 17 16  1  0  0  0  0
 19 21  1  0  0  0  0
 20 19  2  0  0  0  0
 22 23  3  0  0  0  0
 24 25  1  0  0  0  0
M  END
>  <MODEL>
7

>  <REMARK>
 VINA RESULT:      -5.8      4.187      7.460
  Name = 
  5 active torsions:
  status: ('A' for Active; 'I' for Inactive)
    1  A    between atoms: C_2  and  C_21
    2  A    between atoms: C_5  and  C_22
    3  A    between atoms: N_6  and  C_23
    4  A    between atoms: C_10  and  C_11
    5  A    between atoms: C_15  and  C_21
                            x       y       z     vdW  Elec       q    Type
                         _______ _______ _______ _____ _____    ______ ____

>  <TORSDO>
F 5

$$$$
=
 OpenBabel11052417363D

 25 27  0  0  1  0  0  0  0  0999 V2000
  189.7880  174.5680  141.6430 N   0  0  0  0  0  0  0  0  0  0  0  0
  189.8500  175.5630  142.6780 C   0  0  0  0  0  0  0  0  0  0  0  0
  192.1300  173.9540  141.9690 C   0  0  0  0  0  2  0  0  0  0  0  0
  188.5580  173.9010  141.2370 C   0  0  1  0  0  3  0  0  0  0  0  0
  192.2570  175.1390  142.8180 N   0  0  0  0  0  2  0  0  0  0  0  0
  188.8740  172.9980  140.0520 C   0  0  2  0  0  3  0  0  0  0  0  0
  191.1970  176.8520  144.2350 C   0  0  0  0  0  0  0  0  0  0  0  0
  192.4000  177.1520  144.7880 F   0  0  0  0  0  0  0  0  0  0  0  0
  188.7050  176.2430  143.1130 C   0  0  0  0  0  3  0  0  0  0  0  0
  191.0070  174.1640  140.9560 C   0  0  1  0  0  3  0  0  0  0  0  0
  190.6580  172.6300  140.0530 S   0  0  0  0  0  0  0  0  0  0  0  0
  190.0510  177.5280  144.6620 C   0  0  0  0  0  3  0  0  0  0  0  0
  188.8010  177.2280  144.1100 C   0  0  0  0  0  0  0  0  0  0  0  0
  191.0970  175.8600  143.2530 C   0  0  0  0  0  0  0  0  0  0  0  0
  187.6490  177.9410  144.5750 N   0  0  0  0  0  0  0  0  0  0  0  0
  186.5260  177.9690  143.9300 C   0  0  0  0  0  3  0  0  0  0  0  0
  185.3630  178.7320  144.4670 C   0  0  2  0  0  3  0  0  0  0  0  0
  185.5650  180.0970  144.2620 O   0  0  0  0  0  1  0  0  0  0  0  0
  185.1730  178.4570  145.9230 C   0  0  0  0  0  0  0  0  0  0  0  0
  185.5660  179.4040  146.8590 O   0  0  0  0  0  1  0  0  0  0  0  0
  184.6420  177.3810  146.3060 O   0  0  0  0  0  0  0  0  0  0  0  0
  188.2330  174.2170  137.8200 N   0  0  0  0  0  0  0  0  0  0  0  0
  188.5160  173.6790  138.8050 C   0  0  0  0  0  0  0  0  0  0  0  0
  188.9080  172.2020  142.9130 O   0  0  0  0  0  1  0  0  0  0  0  0
  187.9660  173.0890  142.3880 C   0  0  0  0  0  2  0  0  0  0  0  0
  1  2  1  0  0  0  0
  2  9  2  0  0  0  0
  2 14  1  0  0  0  0
  3  5  1  0  0  0  0
  4  1  1  0  0  0  0
  4 25  1  1  0  0  0
  5 14  1  0  0  0  0
  6 23  1  6  0  0  0
  6 11  1  0  0  0  0
  6  4  1  0  0  0  0
  7 12  1  0  0  0  0
  7  8  1  0  0  0  0
  9 13  1  0  0  0  0
 10  1  1  0  0  0  0
 10  3  1  1  0  0  0
 11 10  1  0  0  0  0
 13 15  1  0  0  0  0
 13 12  2  0  0  0  0
 14  7  2  0  0  0  0
 16 17  1  0  0  0  0
 16 15  2  0  0  0  0
 17 18  1  1  0  0  0
 17 19  1  0  0  0  0
 19 21  2  0  0  0  0
 19 20  1  0  0  0  0
 22 23  3  0  0  0  0
 25 24  1  0  0  0  0
M  END
>  <MODEL>
8

>  <REMARK>
 VINA RESULT:      -5.7      4.273      7.371
  Name = 
  5 active torsions:
  status: ('A' for Active; 'I' for Inactive)
    1  A    between atoms: C_2  and  C_21
    2  A    between atoms: C_5  and  C_22
    3  A    between atoms: N_6  and  C_23
    4  A    between atoms: C_10  and  C_11
    5  A    between atoms: C_15  and  C_21
                            x       y       z     vdW  Elec       q    Type
                         _______ _______ _______ _____ _____    ______ ____

>  <TORSDO>
F 5

$$$$
=
 OpenBabel11052417363D

 25 27  0  0  1  0  0  0  0  0999 V2000
  193.0330  176.0050  143.9500 N   0  0  0  0  0  0  0  0  0  0  0  0
  191.7070  176.4860  144.2260 C   0  0  0  0  0  0  0  0  0  0  0  0
  193.5430  175.7790  146.3280 C   0  0  0  0  0  2  0  0  0  0  0  0
  193.4080  175.3360  142.7110 C   0  0  1  0  0  3  0  0  0  0  0  0
  192.3090  176.5160  146.5990 N   0  0  0  0  0  2  0  0  0  0  0  0
  194.9070  175.0720  142.7470 C   0  0  2  0  0  3  0  0  0  0  0  0
  190.0830  177.2650  145.8560 C   0  0  0  0  0  0  0  0  0  0  0  0
  189.7380  177.5420  147.1390 F   0  0  0  0  0  0  0  0  0  0  0  0
  190.7740  176.6940  143.2030 C   0  0  0  0  0  3  0  0  0  0  0  0
  194.0800  176.1600  144.9510 C   0  0  1  0  0  3  0  0  0  0  0  0
  195.4660  175.0890  144.4810 S   0  0  0  0  0  0  0  0  0  0  0  0
  189.1580  177.4730  144.8290 C   0  0  0  0  0  3  0  0  0  0  0  0
  189.4920  177.1870  143.5020 C   0  0  0  0  0  0  0  0  0  0  0  0
  191.3540  176.7590  145.5580 C   0  0  0  0  0  0  0  0  0  0  0  0
  188.5160  177.4110  142.4770 N   0  0  0  0  0  0  0  0  0  0  0  0
  187.2860  177.0160  142.5740 C   0  0  0  0  0  3  0  0  0  0  0  0
  186.3190  177.2770  141.4700 C   0  0  2  0  0  3  0  0  0  0  0  0
  187.0050  177.7340  140.3450 O   0  0  0  0  0  1  0  0  0  0  0  0
  185.2960  178.2830  141.8870 C   0  0  0  0  0  0  0  0  0  0  0  0
  185.5900  179.1820  142.9030 O   0  0  0  0  0  1  0  0  0  0  0  0
  184.1770  178.3350  141.3110 O   0  0  0  0  0  0  0  0  0  0  0  0
  196.1620  176.9440  141.4040 N   0  0  0  0  0  0  0  0  0  0  0  0
  195.6080  176.1180  141.9970 C   0  0  0  0  0  0  0  0  0  0  0  0
  192.0410  173.9630  141.2750 O   0  0  0  0  0  1  0  0  0  0  0  0
  192.6370  174.0290  142.5360 C   0  0  0  0  0  2  0  0  0  0  0  0
  1  2  1  0  0  0  0
  1 10  1  0  0  0  0
  2 14  1  0  0  0  0
  3  5  1  0  0  0  0
  4 25  1  1  0  0  0
  4  6  1  0  0  0  0
  4  1  1  0  0  0  0
  6 23  1  6  0  0  0
  6 11  1  0  0  0  0
  7  8  1  0  0  0  0
  9 13  1  0  0  0  0
  9  2  2  0  0  0  0
 10  3  1  1  0  0  0
 11 10  1  0  0  0  0
 12  7  1  0  0  0  0
 13 12  2  0  0  0  0
 14  7  2  0  0  0  0
 14  5  1  0  0  0  0
 15 16  2  0  0  0  0
 15 13  1  0  0  0  0
 17 18  1  6  0  0  0
 17 19  1  0  0  0  0
 17 16  1  0  0  0  0
 19 20  1  0  0  0  0
 21 19  2  0  0  0  0
 22 23  3  0  0  0  0
 24 25  1  0  0  0  0
M  END
>  <MODEL>
9

>  <REMARK>
 VINA RESULT:      -5.7      4.372      8.005
  Name = 
  5 active torsions:
  status: ('A' for Active; 'I' for Inactive)
    1  A    between atoms: C_2  and  C_21
    2  A    between atoms: C_5  and  C_22
    3  A    between atoms: N_6  and  C_23
    4  A    between atoms: C_10  and  C_11
    5  A    between atoms: C_15  and  C_21
                            x       y       z     vdW  Elec       q    Type
                         _______ _______ _______ _____ _____    ______ ____

>  <TORSDO>
F 5

$$$$
