=
 OpenBabel11052421043D

 43 49  0  0  1  0  0  0  0  0999 V2000
  188.5910  175.6350  142.5860 C   0  0  1  0  0  3  0  0  0  0  0  0
  194.4870  174.6290  145.3530 C   0  0  0  0  0  0  0  0  0  0  0  0
  190.0050  175.6320  143.1190 C   0  0  0  0  0  0  0  0  0  0  0  0
  192.6660  175.6330  144.0230 C   0  0  0  0  0  0  0  0  0  0  0  0
  193.6440  173.5130  145.6340 N   0  0  0  0  0  2  0  0  0  0  0  0
  195.6300  174.7070  145.8730 O   0  0  0  0  0  0  0  0  0  0  0  0
  191.8590  174.4940  144.2300 C   0  0  0  0  0  0  0  0  0  0  0  0
  194.0050  175.6760  144.5170 N   0  0  0  0  0  2  0  0  0  0  0  0
  192.4550  173.2410  144.8300 C   0  0  0  0  0  2  0  0  0  0  0  0
  189.6570  173.2910  143.9830 C   0  0  0  0  0  1  0  0  0  0  0  0
  190.5250  174.4950  143.7700 C   0  0  0  0  0  0  0  0  0  0  0  0
  190.8310  176.7490  142.9190 C   0  0  0  0  0  3  0  0  0  0  0  0
  192.1480  176.7490  143.3700 C   0  0  0  0  0  3  0  0  0  0  0  0
  186.8610  177.3950  142.4160 C   0  0  2  0  0  3  0  0  0  0  0  0
  188.2110  176.9400  141.8930 C   0  0  2  0  0  3  0  0  0  0  0  0
  186.9660  176.7490  141.0500 C   0  0  0  0  0  2  0  0  0  0  0  0
  186.7650  178.7800  142.2760 O   0  0  0  0  0  0  0  0  0  0  0  0
  185.4640  179.0870  142.6770 C   0  0  0  0  0  2  0  0  0  0  0  0
  185.4990  179.8660  143.9790 C   0  0  0  0  0  2  0  0  0  0  0  0
  184.5040  179.2820  144.9650 C   0  0  0  0  0  2  0  0  0  0  0  0
  184.5310  177.8880  144.8900 O   0  0  0  0  0  0  0  0  0  0  0  0
  184.8450  177.4600  146.1810 C   0  0  2  0  0  3  0  0  0  0  0  0
  187.2900  177.1740  145.7070 C   0  0  2  0  0  3  0  0  0  0  0  0
  186.2410  177.9230  146.5430 C   0  0  2  0  0  0  0  0  0  0  0  0
  186.0060  176.4830  146.1340 C   0  0  1  0  0  3  0  0  0  0  0  0
  188.4800  176.6530  146.4700 C   0  0  0  0  0  0  0  0  0  0  0  0
  190.7560  176.9790  147.5450 C   0  0  0  0  0  2  0  0  0  0  0  0
  189.6690  174.7510  147.5840 C   0  0  0  0  0  2  0  0  0  0  0  0
  190.9720  175.4920  147.3010 C   0  0  0  0  0  2  0  0  0  0  0  0
  188.5070  175.3600  146.8450 C   0  0  0  0  0  3  0  0  0  0  0  0
  189.7200  177.5160  146.5580 C   0  0  0  0  0  2  0  0  0  0  0  0
  186.4320  177.9330  148.0560 C   0  0  0  0  0  2  0  0  0  0  0  0
  186.2470  180.1340  148.1020 C   0  0  0  0  0  1  0  0  0  0  0  0
  187.1110  179.0910  148.4360 O   0  0  0  0  0  0  0  0  0  0  0  0
  188.2640  174.4030  141.7350 C   0  0  0  0  0  2  0  0  0  0  0  0
  189.1350  174.2760  140.4890 C   0  0  0  0  0  2  0  0  0  0  0  0
  188.8550  173.8070  137.1980 N   0  0  0  0  0  0  0  0  0  0  0  0
  189.5870  172.8170  137.5540 C   0  0  0  0  0  0  0  0  0  0  0  0
  188.4770  173.4410  139.4960 N   0  0  0  0  0  0  0  0  0  0  0  0
  188.1340  174.3020  138.3540 C   0  0  0  0  0  2  0  0  0  0  0  0
  189.4760  172.5040  138.9870 C   0  0  0  0  0  2  0  0  0  0  0  0
  190.4090  172.1140  136.6730 O   0  0  0  0  0  0  0  0  0  0  0  0
  191.2680  172.7760  135.7550 C   0  0  0  0  0  1  0  0  0  0  0  0
  1 35  1  6  0  0  0
  1  3  1  0  0  0  0
  2  5  1  0  0  0  0
  2  6  2  0  0  0  0
  3 11  1  0  0  0  0
  4  7  1  0  0  0  0
  4  8  1  0  0  0  0
  7  9  1  0  0  0  0
  8  2  1  0  0  0  0
  9  5  1  0  0  0  0
 11 10  1  0  0  0  0
 11  7  2  0  0  0  0
 12  3  2  0  0  0  0
 12 13  1  0  0  0  0
 13  4  2  0  0  0  0
 14 17  1  6  0  0  0
 15 14  1  0  0  0  0
 15  1  1  1  0  0  0
 16 15  1  0  0  0  0
 16 14  1  0  0  0  0
 17 18  1  0  0  0  0
 18 19  1  0  0  0  0
 19 20  1  0  0  0  0
 21 20  1  0  0  0  0
 22 21  1  6  0  0  0
 22 24  1  0  0  0  0
 23 25  1  0  0  0  0
 23 26  1  1  0  0  0
 23 24  1  0  0  0  0
 24 32  1  1  0  0  0
 25 22  1  0  0  0  0
 25 24  1  0  0  0  0
 26 31  1  0  0  0  0
 26 30  2  0  0  0  0
 29 27  1  0  0  0  0
 29 28  1  0  0  0  0
 30 28  1  0  0  0  0
 31 27  1  0  0  0  0
 32 34  1  0  0  0  0
 33 34  1  0  0  0  0
 36 35  1  0  0  0  0
 37 38  2  0  0  0  0
 37 40  1  0  0  0  0
 38 41  1  0  0  0  0
 39 36  1  0  0  0  0
 40 39  1  0  0  0  0
 41 39  1  0  0  0  0
 42 38  1  0  0  0  0
 43 42  1  0  0  0  0
M  END
>  <MODEL>
1

>  <REMARK>
 VINA RESULT:      -7.2      0.000      0.000
  Name = 
  15 active torsions:
  status: ('A' for Active; 'I' for Inactive)
    1  A    between atoms: C_1  and  C_34
    2  A    between atoms: C_1  and  C_35
    3  A    between atoms: C_2  and  C_7
    4  A    between atoms: C_2  and  O_12
    5  A    between atoms: O_3  and  C_4
    6  A    between atoms: O_3  and  C_17
    7  A    between atoms: C_6  and  O_12
    8  A    between atoms: C_7  and  C_17
    9  A    between atoms: C_8  and  C_34
   10  A    between atoms: C_10  and  C_22
   11  A    between atoms: C_10  and  O_42
   12  A    between atoms: C_11  and  C_14
   13  A    between atoms: C_13  and  C_34
   14  A    between atoms: C_19  and  O_25
   15  A    between atoms: N_28  and  C_35
                            x       y       z     vdW  Elec       q    Type
                         _______ _______ _______ _____ _____    ______ ____

>  <TORSDO>
F 15

$$$$
=
 OpenBabel11052421043D

 43 49  0  0  1  0  0  0  0  0999 V2000
  193.2260  175.8640  143.7230 C   0  0  1  0  0  3  0  0  0  0  0  0
  187.4400  177.0210  146.6570 C   0  0  0  0  0  0  0  0  0  0  0  0
  191.9260  176.3690  144.3040 C   0  0  0  0  0  0  0  0  0  0  0  0
  189.5550  177.3710  145.4330 C   0  0  0  0  0  0  0  0  0  0  0  0
  187.8170  175.6660  146.8890 N   0  0  0  0  0  2  0  0  0  0  0  0
  186.3140  177.4410  147.0340 O   0  0  0  0  0  0  0  0  0  0  0  0
  189.9680  176.0540  145.7310 C   0  0  0  0  0  0  0  0  0  0  0  0
  188.3290  177.8840  145.9550 N   0  0  0  0  0  2  0  0  0  0  0  0
  189.2020  175.2290  146.7410 C   0  0  0  0  0  2  0  0  0  0  0  0
  191.6120  174.1610  145.4760 C   0  0  0  0  0  1  0  0  0  0  0  0
  191.1610  175.5560  145.1670 C   0  0  0  0  0  0  0  0  0  0  0  0
  191.4970  177.6760  144.0310 C   0  0  0  0  0  3  0  0  0  0  0  0
  190.3200  178.1700  144.5870 C   0  0  0  0  0  3  0  0  0  0  0  0
  193.8820  174.7900  141.5940 C   0  0  2  0  0  3  0  0  0  0  0  0
  193.3260  176.0590  142.2130 C   0  0  2  0  0  3  0  0  0  0  0  0
  194.7730  176.0020  141.7670 C   0  0  0  0  0  2  0  0  0  0  0  0
  193.4520  174.7070  140.2690 O   0  0  0  0  0  0  0  0  0  0  0  0
  193.7010  173.3850  139.8980 C   0  0  0  0  0  2  0  0  0  0  0  0
  193.1320  172.4430  140.9430 C   0  0  0  0  0  2  0  0  0  0  0  0
  191.6610  172.1880  140.6700 C   0  0  0  0  0  2  0  0  0  0  0  0
  190.9040  172.5720  141.7800 O   0  0  0  0  0  0  0  0  0  0  0  0
  189.6040  172.7300  141.2950 C   0  0  2  0  0  3  0  0  0  0  0  0
  189.3310  175.0480  142.2110 C   0  0  2  0  0  3  0  0  0  0  0  0
  189.3680  174.1840  140.9400 C   0  0  2  0  0  0  0  0  0  0  0  0
  188.8080  173.6210  142.2310 C   0  0  1  0  0  3  0  0  0  0  0  0
  188.2080  176.0500  142.2830 C   0  0  0  0  0  0  0  0  0  0  0  0
  187.1440  178.2580  141.6230 C   0  0  0  0  0  2  0  0  0  0  0  0
  185.9940  176.7520  143.2210 C   0  0  0  0  0  2  0  0  0  0  0  0
  186.4200  178.1930  142.9600 C   0  0  0  0  0  2  0  0  0  0  0  0
  187.1450  175.7920  143.0680 C   0  0  0  0  0  3  0  0  0  0  0  0
  188.4240  177.4260  141.6920 C   0  0  0  0  0  2  0  0  0  0  0  0
  188.2010  174.3200  139.9680 C   0  0  0  0  0  2  0  0  0  0  0  0
  188.5450  173.7800  137.8540 C   0  0  0  0  0  1  0  0  0  0  0  0
  188.1930  173.2360  139.0900 O   0  0  0  0  0  0  0  0  0  0  0  0
  194.4610  176.3860  144.4640 C   0  0  0  0  0  2  0  0  0  0  0  0
  195.0690  175.3710  145.4260 C   0  0  0  0  0  2  0  0  0  0  0  0
  197.1950  172.8220  145.7730 N   0  0  0  0  0  0  0  0  0  0  0  0
  196.0660  172.2250  145.6780 C   0  0  0  0  0  0  0  0  0  0  0  0
  195.7090  174.2940  144.6850 N   0  0  0  0  0  0  0  0  0  0  0  0
  197.0760  174.1520  145.2060 C   0  0  0  0  0  2  0  0  0  0  0  0
  195.0260  173.0530  145.0480 C   0  0  0  0  0  2  0  0  0  0  0  0
  195.8440  170.9260  146.1340 O   0  0  0  0  0  0  0  0  0  0  0  0
  195.3170  169.9120  145.2900 C   0  0  0  0  0  1  0  0  0  0  0  0
  1  3  1  0  0  0  0
  1 35  1  1  0  0  0
  2  5  1  0  0  0  0
  2  6  2  0  0  0  0
  3 11  1  0  0  0  0
  4  7  1  0  0  0  0
  4  8  1  0  0  0  0
  7  9  1  0  0  0  0
  8  2  1  0  0  0  0
  9  5  1  0  0  0  0
 11 10  1  0  0  0  0
 11  7  2  0  0  0  0
 12  3  2  0  0  0  0
 12 13  1  0  0  0  0
 13  4  2  0  0  0  0
 14 17  1  6  0  0  0
 14 16  1  0  0  0  0
 14 15  1  0  0  0  0
 15  1  1  1  0  0  0
 16 15  1  0  0  0  0
 18 17  1  0  0  0  0
 18 19  1  0  0  0  0
 20 19  1  0  0  0  0
 20 21  1  0  0  0  0
 22 21  1  1  0  0  0
 22 25  1  0  0  0  0
 23 25  1  0  0  0  0
 23 26  1  6  0  0  0
 24 32  1  6  0  0  0
 24 22  1  0  0  0  0
 24 23  1  0  0  0  0
 24 25  1  0  0  0  0
 26 30  2  0  0  0  0
 27 31  1  0  0  0  0
 27 29  1  0  0  0  0
 29 28  1  0  0  0  0
 30 28  1  0  0  0  0
 31 26  1  0  0  0  0
 33 34  1  0  0  0  0
 34 32  1  0  0  0  0
 35 36  1  0  0  0  0
 38 37  2  0  0  0  0
 38 42  1  0  0  0  0
 39 41  1  0  0  0  0
 39 40  1  0  0  0  0
 39 36  1  0  0  0  0
 40 37  1  0  0  0  0
 41 38  1  0  0  0  0
 43 42  1  0  0  0  0
M  END
>  <MODEL>
2

>  <REMARK>
 VINA RESULT:      -6.7      2.768      7.715
  Name = 
  15 active torsions:
  status: ('A' for Active; 'I' for Inactive)
    1  A    between atoms: C_1  and  C_34
    2  A    between atoms: C_1  and  C_35
    3  A    between atoms: C_2  and  C_7
    4  A    between atoms: C_2  and  O_12
    5  A    between atoms: O_3  and  C_4
    6  A    between atoms: O_3  and  C_17
    7  A    between atoms: C_6  and  O_12
    8  A    between atoms: C_7  and  C_17
    9  A    between atoms: C_8  and  C_34
   10  A    between atoms: C_10  and  C_22
   11  A    between atoms: C_10  and  O_42
   12  A    between atoms: C_11  and  C_14
   13  A    between atoms: C_13  and  C_34
   14  A    between atoms: C_19  and  O_25
   15  A    between atoms: N_28  and  C_35
                            x       y       z     vdW  Elec       q    Type
                         _______ _______ _______ _____ _____    ______ ____

>  <TORSDO>
F 15

$$$$
=
 OpenBabel11052421043D

 43 49  0  0  1  0  0  0  0  0999 V2000
  190.9890  175.4180  145.4900 C   0  0  1  0  0  3  0  0  0  0  0  0
  185.1100  178.3320  146.1090 C   0  0  0  0  0  0  0  0  0  0  0  0
  189.7300  176.2540  145.4590 C   0  0  0  0  0  0  0  0  0  0  0  0
  187.4400  177.8830  145.4280 C   0  0  0  0  0  0  0  0  0  0  0  0
  185.1620  177.1990  146.9730 N   0  0  0  0  0  2  0  0  0  0  0  0
  184.0410  178.9830  145.9780 O   0  0  0  0  0  0  0  0  0  0  0  0
  187.5230  176.8110  146.3430 C   0  0  0  0  0  0  0  0  0  0  0  0
  186.2660  178.6920  145.3590 N   0  0  0  0  0  2  0  0  0  0  0  0
  186.4370  176.6110  147.3760 C   0  0  0  0  0  2  0  0  0  0  0  0
  188.7760  174.8580  147.3260 C   0  0  0  0  0  1  0  0  0  0  0  0
  188.6760  175.9990  146.3590 C   0  0  0  0  0  0  0  0  0  0  0  0
  189.6270  177.3300  144.5650 C   0  0  0  0  0  3  0  0  0  0  0  0
  188.4900  178.1340  144.5480 C   0  0  0  0  0  3  0  0  0  0  0  0
  191.8970  173.1730  144.9860 C   0  0  2  0  0  3  0  0  0  0  0  0
  190.9740  174.2690  144.4870 C   0  0  2  0  0  3  0  0  0  0  0  0
  192.3440  174.0890  143.8670 C   0  0  0  0  0  2  0  0  0  0  0  0
  191.4780  171.9520  144.4570 O   0  0  0  0  0  0  0  0  0  0  0  0
  192.4150  171.6540  143.4670 C   0  0  0  0  0  2  0  0  0  0  0  0
  191.7270  170.9750  142.2970 C   0  0  0  0  0  2  0  0  0  0  0  0
  192.1600  171.6170  140.9920 C   0  0  0  0  0  2  0  0  0  0  0  0
  191.5200  172.8480  140.8370 O   0  0  0  0  0  0  0  0  0  0  0  0
  190.1590  172.5430  140.7600 C   0  0  2  0  0  3  0  0  0  0  0  0
  189.4020  174.8800  141.2570 C   0  0  2  0  0  3  0  0  0  0  0  0
  189.4000  173.7410  140.2270 C   0  0  2  0  0  0  0  0  0  0  0  0
  189.3750  173.4300  141.7100 C   0  0  1  0  0  3  0  0  0  0  0  0
  188.0730  175.5550  141.4840 C   0  0  0  0  0  0  0  0  0  0  0  0
  186.2380  177.1580  140.7750 C   0  0  0  0  0  2  0  0  0  0  0  0
  186.0540  175.9260  142.9180 C   0  0  0  0  0  2  0  0  0  0  0  0
  185.9240  177.2940  142.2580 C   0  0  0  0  0  2  0  0  0  0  0  0
  187.3740  175.2740  142.6000 C   0  0  0  0  0  3  0  0  0  0  0  0
  187.6910  176.7190  140.5970 C   0  0  0  0  0  2  0  0  0  0  0  0
  188.0500  173.3160  139.6580 C   0  0  0  0  0  2  0  0  0  0  0  0
  188.1430  174.3550  137.7110 C   0  0  0  0  0  1  0  0  0  0  0  0
  188.1700  173.0840  138.2870 O   0  0  0  0  0  0  0  0  0  0  0  0
  192.2710  176.2530  145.4040 C   0  0  0  0  0  2  0  0  0  0  0  0
  193.0970  176.2340  146.6860 C   0  0  0  0  0  2  0  0  0  0  0  0
  195.6320  174.8800  144.9920 N   0  0  0  0  0  0  0  0  0  0  0  0
  195.3370  175.8990  144.2740 C   0  0  0  0  0  0  0  0  0  0  0  0
  194.5080  176.4180  146.3800 N   0  0  0  0  0  0  0  0  0  0  0  0
  195.1260  175.0850  146.3350 C   0  0  0  0  0  2  0  0  0  0  0  0
  194.5910  176.9290  145.0140 C   0  0  0  0  0  2  0  0  0  0  0  0
  195.6820  176.0150  142.9280 O   0  0  0  0  0  0  0  0  0  0  0  0
  196.9410  176.5270  142.5150 C   0  0  0  0  0  1  0  0  0  0  0  0
  1 35  1  6  0  0  0
  2  5  1  0  0  0  0
  3  1  1  0  0  0  0
  3 11  1  0  0  0  0
  4  7  1  0  0  0  0
  5  9  1  0  0  0  0
  6  2  2  0  0  0  0
  7 11  2  0  0  0  0
  7  9  1  0  0  0  0
  8  4  1  0  0  0  0
  8  2  1  0  0  0  0
 11 10  1  0  0  0  0
 12  3  2  0  0  0  0
 13 12  1  0  0  0  0
 13  4  2  0  0  0  0
 14 17  1  6  0  0  0
 15 14  1  0  0  0  0
 15  1  1  1  0  0  0
 16 15  1  0  0  0  0
 16 14  1  0  0  0  0
 18 17  1  0  0  0  0
 19 18  1  0  0  0  0
 20 19  1  0  0  0  0
 21 20  1  0  0  0  0
 22 21  1  1  0  0  0
 22 25  1  0  0  0  0
 23 26  1  6  0  0  0
 23 25  1  0  0  0  0
 24 32  1  6  0  0  0
 24 22  1  0  0  0  0
 24 23  1  0  0  0  0
 24 25  1  0  0  0  0
 26 30  2  0  0  0  0
 27 29  1  0  0  0  0
 29 28  1  0  0  0  0
 30 28  1  0  0  0  0
 31 27  1  0  0  0  0
 31 26  1  0  0  0  0
 33 34  1  0  0  0  0
 34 32  1  0  0  0  0
 35 36  1  0  0  0  0
 37 40  1  0  0  0  0
 38 37  2  0  0  0  0
 38 41  1  0  0  0  0
 39 36  1  0  0  0  0
 40 39  1  0  0  0  0
 41 39  1  0  0  0  0
 42 38  1  0  0  0  0
 43 42  1  0  0  0  0
M  END
>  <MODEL>
3

>  <REMARK>
 VINA RESULT:      -6.5      2.760      8.104
  Name = 
  15 active torsions:
  status: ('A' for Active; 'I' for Inactive)
    1  A    between atoms: C_1  and  C_34
    2  A    between atoms: C_1  and  C_35
    3  A    between atoms: C_2  and  C_7
    4  A    between atoms: C_2  and  O_12
    5  A    between atoms: O_3  and  C_4
    6  A    between atoms: O_3  and  C_17
    7  A    between atoms: C_6  and  O_12
    8  A    between atoms: C_7  and  C_17
    9  A    between atoms: C_8  and  C_34
   10  A    between atoms: C_10  and  C_22
   11  A    between atoms: C_10  and  O_42
   12  A    between atoms: C_11  and  C_14
   13  A    between atoms: C_13  and  C_34
   14  A    between atoms: C_19  and  O_25
   15  A    between atoms: N_28  and  C_35
                            x       y       z     vdW  Elec       q    Type
                         _______ _______ _______ _____ _____    ______ ____

>  <TORSDO>
F 15

$$$$
=
 OpenBabel11052421043D

 43 49  0  0  1  0  0  0  0  0999 V2000
  193.7180  172.8900  140.6480 C   0  0  1  0  0  3  0  0  0  0  0  0
  194.3170  176.5460  146.0980 C   0  0  0  0  0  0  0  0  0  0  0  0
  193.7390  173.9130  141.7600 C   0  0  0  0  0  0  0  0  0  0  0  0
  193.8280  175.8710  143.7740 C   0  0  0  0  0  0  0  0  0  0  0  0
  194.8840  175.2600  146.3350 N   0  0  0  0  0  2  0  0  0  0  0  0
  194.2200  177.3810  147.0350 O   0  0  0  0  0  0  0  0  0  0  0  0
  194.4630  174.6270  143.9810 C   0  0  0  0  0  0  0  0  0  0  0  0
  193.8170  176.8620  144.8020 N   0  0  0  0  0  2  0  0  0  0  0  0
  195.2820  174.3920  145.2300 C   0  0  0  0  0  2  0  0  0  0  0  0
  195.0910  172.3240  143.1730 C   0  0  0  0  0  1  0  0  0  0  0  0
  194.4210  173.6480  142.9660 C   0  0  0  0  0  0  0  0  0  0  0  0
  193.1230  175.1600  141.5770 C   0  0  0  0  0  3  0  0  0  0  0  0
  193.1650  176.1280  142.5770 C   0  0  0  0  0  3  0  0  0  0  0  0
  191.8780  171.3230  141.1710 C   0  0  2  0  0  3  0  0  0  0  0  0
  192.3090  172.4540  140.2570 C   0  0  2  0  0  3  0  0  0  0  0  0
  192.3180  171.0250  139.7530 C   0  0  0  0  0  2  0  0  0  0  0  0
  190.4840  171.3060  141.2460 O   0  0  0  0  0  0  0  0  0  0  0  0
  190.2010  171.4330  142.6070 C   0  0  0  0  0  2  0  0  0  0  0  0
  189.2520  172.5970  142.8260 C   0  0  0  0  0  2  0  0  0  0  0  0
  190.0360  173.8640  143.1150 C   0  0  0  0  0  2  0  0  0  0  0  0
  189.4470  174.9430  142.4520 O   0  0  0  0  0  0  0  0  0  0  0  0
  189.6380  176.0370  143.2980 C   0  0  2  0  0  3  0  0  0  0  0  0
  187.2060  176.2900  143.8500 C   0  0  2  0  0  3  0  0  0  0  0  0
  188.6090  176.0060  144.4090 C   0  0  2  0  0  0  0  0  0  0  0  0
  188.4300  176.9540  143.2400 C   0  0  1  0  0  3  0  0  0  0  0  0
  186.3780  177.2730  144.6380 C   0  0  0  0  0  0  0  0  0  0  0  0
  184.9200  177.8680  146.6280 C   0  0  0  0  0  2  0  0  0  0  0  0
  185.4000  179.5650  144.8860 C   0  0  0  0  0  2  0  0  0  0  0  0
  184.3000  178.9270  145.7280 C   0  0  0  0  0  2  0  0  0  0  0  0
  186.2330  178.5300  144.1760 C   0  0  0  0  0  3  0  0  0  0  0  0
  185.5200  176.7540  145.7710 C   0  0  0  0  0  2  0  0  0  0  0  0
  189.0700  176.8430  145.5970 C   0  0  0  0  0  2  0  0  0  0  0  0
  190.4830  176.5720  147.2730 C   0  0  0  0  0  1  0  0  0  0  0  0
  189.3540  176.0080  146.6780 O   0  0  0  0  0  0  0  0  0  0  0  0
  194.5610  173.2990  139.4360 C   0  0  0  0  0  2  0  0  0  0  0  0
  195.9800  172.7400  139.4640 C   0  0  0  0  0  2  0  0  0  0  0  0
  196.5130  175.8810  140.4550 N   0  0  0  0  0  0  0  0  0  0  0  0
  197.2980  175.2160  141.2180 C   0  0  0  0  0  0  0  0  0  0  0  0
  196.9510  173.8220  139.3940 N   0  0  0  0  0  0  0  0  0  0  0  0
  196.2000  175.0810  139.2860 C   0  0  0  0  0  2  0  0  0  0  0  0
  197.6240  173.8830  140.6900 C   0  0  0  0  0  2  0  0  0  0  0  0
  197.7870  175.7060  142.4290 O   0  0  0  0  0  0  0  0  0  0  0  0
  197.1980  176.8200  143.0830 C   0  0  0  0  0  1  0  0  0  0  0  0
  1 35  1  6  0  0  0
  1  3  1  0  0  0  0
  2  5  1  0  0  0  0
  2  6  2  0  0  0  0
  3 11  1  0  0  0  0
  4  7  1  0  0  0  0
  4  8  1  0  0  0  0
  7  9  1  0  0  0  0
  8  2  1  0  0  0  0
  9  5  1  0  0  0  0
 11 10  1  0  0  0  0
 11  7  2  0  0  0  0
 12  3  2  0  0  0  0
 12 13  1  0  0  0  0
 13  4  2  0  0  0  0
 14 17  1  6  0  0  0
 15  1  1  1  0  0  0
 15 14  1  0  0  0  0
 16 15  1  0  0  0  0
 16 14  1  0  0  0  0
 17 18  1  0  0  0  0
 18 19  1  0  0  0  0
 19 20  1  0  0  0  0
 21 20  1  0  0  0  0
 22 21  1  6  0  0  0
 22 24  1  0  0  0  0
 23 24  1  0  0  0  0
 23 26  1  1  0  0  0
 24 32  1  1  0  0  0
 25 22  1  0  0  0  0
 25 23  1  0  0  0  0
 25 24  1  0  0  0  0
 26 31  1  0  0  0  0
 28 29  1  0  0  0  0
 29 27  1  0  0  0  0
 30 26  2  0  0  0  0
 30 28  1  0  0  0  0
 31 27  1  0  0  0  0
 32 34  1  0  0  0  0
 34 33  1  0  0  0  0
 35 36  1  0  0  0  0
 37 38  2  0  0  0  0
 38 42  1  0  0  0  0
 39 36  1  0  0  0  0
 39 41  1  0  0  0  0
 40 39  1  0  0  0  0
 40 37  1  0  0  0  0
 41 38  1  0  0  0  0
 42 43  1  0  0  0  0
M  END
>  <MODEL>
4

>  <REMARK>
 VINA RESULT:      -6.2      3.225      6.154
  Name = 
  15 active torsions:
  status: ('A' for Active; 'I' for Inactive)
    1  A    between atoms: C_1  and  C_34
    2  A    between atoms: C_1  and  C_35
    3  A    between atoms: C_2  and  C_7
    4  A    between atoms: C_2  and  O_12
    5  A    between atoms: O_3  and  C_4
    6  A    between atoms: O_3  and  C_17
    7  A    between atoms: C_6  and  O_12
    8  A    between atoms: C_7  and  C_17
    9  A    between atoms: C_8  and  C_34
   10  A    between atoms: C_10  and  C_22
   11  A    between atoms: C_10  and  O_42
   12  A    between atoms: C_11  and  C_14
   13  A    between atoms: C_13  and  C_34
   14  A    between atoms: C_19  and  O_25
   15  A    between atoms: N_28  and  C_35
                            x       y       z     vdW  Elec       q    Type
                         _______ _______ _______ _____ _____    ______ ____

>  <TORSDO>
F 15

$$$$
=
 OpenBabel11052421043D

 43 49  0  0  1  0  0  0  0  0999 V2000
  192.0100  171.9370  142.5230 C   0  0  1  0  0  3  0  0  0  0  0  0
  190.8370  176.3720  147.2540 C   0  0  0  0  0  0  0  0  0  0  0  0
  191.9880  173.0180  143.5790 C   0  0  0  0  0  0  0  0  0  0  0  0
  192.0150  174.9830  145.5890 C   0  0  0  0  0  0  0  0  0  0  0  0
  189.6420  175.6370  146.9980 N   0  0  0  0  0  2  0  0  0  0  0  0
  190.8240  177.3500  148.0470 O   0  0  0  0  0  0  0  0  0  0  0  0
  190.8570  174.2000  145.3920 C   0  0  0  0  0  0  0  0  0  0  0  0
  192.0340  176.0200  146.5690 N   0  0  0  0  0  2  0  0  0  0  0  0
  189.6800  174.3380  146.3320 C   0  0  0  0  0  2  0  0  0  0  0  0
  189.6260  172.3720  144.1690 C   0  0  0  0  0  1  0  0  0  0  0  0
  190.8490  173.2110  144.3860 C   0  0  0  0  0  0  0  0  0  0  0  0
  193.1290  173.8050  143.7990 C   0  0  0  0  0  3  0  0  0  0  0  0
  193.1400  174.7800  144.7930 C   0  0  0  0  0  3  0  0  0  0  0  0
  190.9690  171.8820  140.2800 C   0  0  2  0  0  3  0  0  0  0  0  0
  192.0920  172.4850  141.1010 C   0  0  2  0  0  3  0  0  0  0  0  0
  192.3840  171.3690  140.1200 C   0  0  0  0  0  2  0  0  0  0  0  0
  190.6590  172.7480  139.2300 O   0  0  0  0  0  0  0  0  0  0  0  0
  189.4330  172.2920  138.7450 C   0  0  0  0  0  2  0  0  0  0  0  0
  188.3050  172.8660  139.5840 C   0  0  0  0  0  2  0  0  0  0  0  0
  188.7460  174.1620  140.2360 C   0  0  0  0  0  2  0  0  0  0  0  0
  187.8230  174.5340  141.2170 O   0  0  0  0  0  0  0  0  0  0  0  0
  188.2580  175.7800  141.6720 C   0  0  2  0  0  3  0  0  0  0  0  0
  186.3930  176.0510  143.3250 C   0  0  2  0  0  3  0  0  0  0  0  0
  187.9140  175.9320  143.1400 C   0  0  2  0  0  0  0  0  0  0  0  0
  187.0680  176.6240  142.0890 C   0  0  1  0  0  3  0  0  0  0  0  0
  185.9340  177.1400  144.2600 C   0  0  0  0  0  0  0  0  0  0  0  0
  185.4660  178.0250  146.5920 C   0  0  0  0  0  2  0  0  0  0  0  0
  185.0160  179.4440  144.6090 C   0  0  0  0  0  2  0  0  0  0  0  0
  184.4440  178.9390  145.9300 C   0  0  0  0  0  2  0  0  0  0  0  0
  185.5180  178.3140  143.7490 C   0  0  0  0  0  3  0  0  0  0  0  0
  185.6990  176.7960  145.7140 C   0  0  0  0  0  2  0  0  0  0  0  0
  188.7820  177.0040  143.7900 C   0  0  0  0  0  2  0  0  0  0  0  0
  190.7020  178.0850  143.6310 C   0  0  0  0  0  1  0  0  0  0  0  0
  190.1060  176.8490  143.3780 O   0  0  0  0  0  0  0  0  0  0  0  0
  193.0560  170.8510  142.7930 C   0  0  0  0  0  2  0  0  0  0  0  0
  193.2410  170.5390  144.2750 C   0  0  0  0  0  2  0  0  0  0  0  0
  196.4300  171.3370  143.7060 N   0  0  0  0  0  0  0  0  0  0  0  0
  196.2890  171.6390  144.9430 C   0  0  0  0  0  0  0  0  0  0  0  0
  194.6030  170.0960  144.5310 N   0  0  0  0  0  0  0  0  0  0  0  0
  195.3960  170.3920  143.3290 C   0  0  0  0  0  2  0  0  0  0  0  0
  195.1490  170.9590  145.5770 C   0  0  0  0  0  2  0  0  0  0  0  0
  197.1270  172.5290  145.6160 O   0  0  0  0  0  0  0  0  0  0  0  0
  196.6550  173.7680  146.1230 C   0  0  0  0  0  1  0  0  0  0  0  0
  1 35  1  1  0  0  0
  1  3  1  0  0  0  0
  2  6  2  0  0  0  0
  3 12  2  0  0  0  0
  3 11  1  0  0  0  0
  4  8  1  0  0  0  0
  5  2  1  0  0  0  0
  7  4  1  0  0  0  0
  7  9  1  0  0  0  0
  8  2  1  0  0  0  0
  9  5  1  0  0  0  0
 10 11  1  0  0  0  0
 11  7  2  0  0  0  0
 12 13  1  0  0  0  0
 13  4  2  0  0  0  0
 14 17  1  6  0  0  0
 14 15  1  0  0  0  0
 15  1  1  1  0  0  0
 16 14  1  0  0  0  0
 16 15  1  0  0  0  0
 18 17  1  0  0  0  0
 18 19  1  0  0  0  0
 19 20  1  0  0  0  0
 20 21  1  0  0  0  0
 22 21  1  6  0  0  0
 22 25  1  0  0  0  0
 22 24  1  0  0  0  0
 23 26  1  1  0  0  0
 24 23  1  0  0  0  0
 24 32  1  1  0  0  0
 25 24  1  0  0  0  0
 25 23  1  0  0  0  0
 26 31  1  0  0  0  0
 28 29  1  0  0  0  0
 29 27  1  0  0  0  0
 30 26  2  0  0  0  0
 30 28  1  0  0  0  0
 31 27  1  0  0  0  0
 34 33  1  0  0  0  0
 34 32  1  0  0  0  0
 35 36  1  0  0  0  0
 36 39  1  0  0  0  0
 37 38  2  0  0  0  0
 38 41  1  0  0  0  0
 38 42  1  0  0  0  0
 39 41  1  0  0  0  0
 40 37  1  0  0  0  0
 40 39  1  0  0  0  0
 42 43  1  0  0  0  0
M  END
>  <MODEL>
5

>  <REMARK>
 VINA RESULT:      -6.1      2.811      6.478
  Name = 
  15 active torsions:
  status: ('A' for Active; 'I' for Inactive)
    1  A    between atoms: C_1  and  C_34
    2  A    between atoms: C_1  and  C_35
    3  A    between atoms: C_2  and  C_7
    4  A    between atoms: C_2  and  O_12
    5  A    between atoms: O_3  and  C_4
    6  A    between atoms: O_3  and  C_17
    7  A    between atoms: C_6  and  O_12
    8  A    between atoms: C_7  and  C_17
    9  A    between atoms: C_8  and  C_34
   10  A    between atoms: C_10  and  C_22
   11  A    between atoms: C_10  and  O_42
   12  A    between atoms: C_11  and  C_14
   13  A    between atoms: C_13  and  C_34
   14  A    between atoms: C_19  and  O_25
   15  A    between atoms: N_28  and  C_35
                            x       y       z     vdW  Elec       q    Type
                         _______ _______ _______ _____ _____    ______ ____

>  <TORSDO>
F 15

$$$$
=
 OpenBabel11052421043D

 43 49  0  0  1  0  0  0  0  0999 V2000
  189.9960  174.0920  143.9520 C   0  0  1  0  0  3  0  0  0  0  0  0
  186.1590  178.6150  146.8260 C   0  0  0  0  0  0  0  0  0  0  0  0
  189.1660  175.0010  144.8290 C   0  0  0  0  0  0  0  0  0  0  0  0
  187.5700  176.6180  146.4840 C   0  0  0  0  0  0  0  0  0  0  0  0
  186.2280  178.8830  145.4270 N   0  0  0  0  0  2  0  0  0  0  0  0
  185.5680  179.4140  147.5980 O   0  0  0  0  0  0  0  0  0  0  0  0
  187.5720  176.8330  145.0880 C   0  0  0  0  0  0  0  0  0  0  0  0
  186.8070  177.4590  147.3490 N   0  0  0  0  0  2  0  0  0  0  0  0
  186.6340  177.8500  144.4770 C   0  0  0  0  0  2  0  0  0  0  0  0
  188.3790  176.2340  142.7770 C   0  0  0  0  0  1  0  0  0  0  0  0
  188.3700  176.0170  144.2600 C   0  0  0  0  0  0  0  0  0  0  0  0
  189.1410  174.8030  146.2180 C   0  0  0  0  0  3  0  0  0  0  0  0
  188.3530  175.6070  147.0370 C   0  0  0  0  0  3  0  0  0  0  0  0
  192.1350  175.3250  144.1040 C   0  0  2  0  0  3  0  0  0  0  0  0
  191.4540  174.0000  144.3910 C   0  0  2  0  0  3  0  0  0  0  0  0
  192.3760  174.1370  143.1960 C   0  0  0  0  0  2  0  0  0  0  0  0
  193.2140  175.4790  144.9760 O   0  0  0  0  0  0  0  0  0  0  0  0
  193.6160  176.8050  144.8110 C   0  0  0  0  0  2  0  0  0  0  0  0
  195.0980  176.9320  145.1130 C   0  0  0  0  0  2  0  0  0  0  0  0
  195.8410  175.7080  144.6100 C   0  0  0  0  0  2  0  0  0  0  0  0
  196.1270  174.8580  145.6810 O   0  0  0  0  0  0  0  0  0  0  0  0
  196.6940  173.7210  145.1020 C   0  0  2  0  0  3  0  0  0  0  0  0
  194.6600  172.2930  145.4350 C   0  0  2  0  0  3  0  0  0  0  0  0
  195.6160  172.9160  144.4050 C   0  0  2  0  0  0  0  0  0  0  0  0
  196.1350  172.4720  145.7590 C   0  0  1  0  0  3  0  0  0  0  0  0
  194.3150  170.8440  145.2090 C   0  0  0  0  0  0  0  0  0  0  0  0
  193.1000  169.0130  143.9390 C   0  0  0  0  0  2  0  0  0  0  0  0
  194.5210  168.4420  145.8880 C   0  0  0  0  0  2  0  0  0  0  0  0
  193.1630  168.2140  145.2330 C   0  0  0  0  0  2  0  0  0  0  0  0
  194.8370  169.9080  146.0250 C   0  0  0  0  0  3  0  0  0  0  0  0
  193.1920  170.5060  144.2540 C   0  0  0  0  0  2  0  0  0  0  0  0
  196.2260  171.9830  143.3650 C   0  0  0  0  0  2  0  0  0  0  0  0
  197.8100  170.4430  143.3230 C   0  0  0  0  0  1  0  0  0  0  0  0
  197.5770  171.7800  143.6510 O   0  0  0  0  0  0  0  0  0  0  0  0
  189.3600  172.7150  143.7390 C   0  0  0  0  0  2  0  0  0  0  0  0
  188.6550  172.5710  142.3940 C   0  0  0  0  0  2  0  0  0  0  0  0
  189.6020  171.8870  139.2690 N   0  0  0  0  0  0  0  0  0  0  0  0
  188.8300  172.8960  139.1060 C   0  0  0  0  0  0  0  0  0  0  0  0
  189.5140  173.0460  141.3200 N   0  0  0  0  0  0  0  0  0  0  0  0
  190.0660  171.8640  140.6430 C   0  0  0  0  0  2  0  0  0  0  0  0
  188.6540  173.6920  140.3310 C   0  0  0  0  0  2  0  0  0  0  0  0
  188.2140  173.2030  137.8930 O   0  0  0  0  0  0  0  0  0  0  0  0
  188.0950  174.5390  137.4260 C   0  0  0  0  0  1  0  0  0  0  0  0
  1 35  1  1  0  0  0
  1  3  1  0  0  0  0
  2  8  1  0  0  0  0
  2  6  2  0  0  0  0
  3 12  1  0  0  0  0
  4 13  1  0  0  0  0
  4  8  1  0  0  0  0
  5  2  1  0  0  0  0
  7  4  2  0  0  0  0
  9  7  1  0  0  0  0
  9  5  1  0  0  0  0
 10 11  1  0  0  0  0
 11  3  2  0  0  0  0
 11  7  1  0  0  0  0
 12 13  2  0  0  0  0
 14 15  1  0  0  0  0
 14 17  1  1  0  0  0
 15  1  1  6  0  0  0
 16 14  1  0  0  0  0
 16 15  1  0  0  0  0
 18 17  1  0  0  0  0
 18 19  1  0  0  0  0
 20 19  1  0  0  0  0
 20 21  1  0  0  0  0
 22 21  1  1  0  0  0
 22 25  1  0  0  0  0
 23 26  1  6  0  0  0
 23 25  1  0  0  0  0
 24 32  1  6  0  0  0
 24 22  1  0  0  0  0
 24 23  1  0  0  0  0
 24 25  1  0  0  0  0
 26 30  2  0  0  0  0
 27 31  1  0  0  0  0
 27 29  1  0  0  0  0
 28 30  1  0  0  0  0
 29 28  1  0  0  0  0
 31 26  1  0  0  0  0
 32 34  1  0  0  0  0
 33 34  1  0  0  0  0
 36 35  1  0  0  0  0
 37 40  1  0  0  0  0
 38 37  2  0  0  0  0
 38 41  1  0  0  0  0
 39 36  1  0  0  0  0
 40 39  1  0  0  0  0
 41 39  1  0  0  0  0
 42 38  1  0  0  0  0
 43 42  1  0  0  0  0
M  END
>  <MODEL>
6

>  <REMARK>
 VINA RESULT:      -6.0      3.026      7.959
  Name = 
  15 active torsions:
  status: ('A' for Active; 'I' for Inactive)
    1  A    between atoms: C_1  and  C_34
    2  A    between atoms: C_1  and  C_35
    3  A    between atoms: C_2  and  C_7
    4  A    between atoms: C_2  and  O_12
    5  A    between atoms: O_3  and  C_4
    6  A    between atoms: O_3  and  C_17
    7  A    between atoms: C_6  and  O_12
    8  A    between atoms: C_7  and  C_17
    9  A    between atoms: C_8  and  C_34
   10  A    between atoms: C_10  and  C_22
   11  A    between atoms: C_10  and  O_42
   12  A    between atoms: C_11  and  C_14
   13  A    between atoms: C_13  and  C_34
   14  A    between atoms: C_19  and  O_25
   15  A    between atoms: N_28  and  C_35
                            x       y       z     vdW  Elec       q    Type
                         _______ _______ _______ _____ _____    ______ ____

>  <TORSDO>
F 15

$$$$
=
 OpenBabel11052421043D

 43 49  0  0  1  0  0  0  0  0999 V2000
  194.5740  174.0270  143.1840 C   0  0  1  0  0  3  0  0  0  0  0  0
  191.3820  176.8940  148.1860 C   0  0  0  0  0  0  0  0  0  0  0  0
  194.0610  174.8140  144.3680 C   0  0  0  0  0  0  0  0  0  0  0  0
  193.1760  176.2400  146.6220 C   0  0  0  0  0  0  0  0  0  0  0  0
  190.5140  175.9530  147.5580 N   0  0  0  0  0  2  0  0  0  0  0  0
  190.9520  177.6410  149.1030 O   0  0  0  0  0  0  0  0  0  0  0  0
  192.3470  175.2510  146.0520 C   0  0  0  0  0  0  0  0  0  0  0  0
  192.7280  177.0130  147.7360 N   0  0  0  0  0  2  0  0  0  0  0  0
  191.0400  174.8810  146.7180 C   0  0  0  0  0  2  0  0  0  0  0  0
  191.9250  173.4790  144.3090 C   0  0  0  0  0  1  0  0  0  0  0  0
  192.7960  174.5330  144.9240 C   0  0  0  0  0  0  0  0  0  0  0  0
  194.8690  175.7970  144.9580 C   0  0  0  0  0  3  0  0  0  0  0  0
  194.4290  176.5060  146.0720 C   0  0  0  0  0  3  0  0  0  0  0  0
  193.2630  173.6290  141.1250 C   0  0  2  0  0  3  0  0  0  0  0  0
  194.1590  174.6210  141.8410 C   0  0  2  0  0  3  0  0  0  0  0  0
  194.7070  173.7870  140.7010 C   0  0  0  0  0  2  0  0  0  0  0  0
  192.4340  174.3230  140.2420 O   0  0  0  0  0  0  0  0  0  0  0  0
  191.3070  173.5110  140.1010 C   0  0  0  0  0  2  0  0  0  0  0  0
  190.2700  173.8900  141.1420 C   0  0  0  0  0  2  0  0  0  0  0  0
  188.9070  174.0420  140.4910 C   0  0  0  0  0  2  0  0  0  0  0  0
  187.9650  174.4120  141.4530 O   0  0  0  0  0  0  0  0  0  0  0  0
  188.2840  175.7300  141.7860 C   0  0  2  0  0  3  0  0  0  0  0  0
  186.3440  176.0180  143.3470 C   0  0  2  0  0  3  0  0  0  0  0  0
  187.8750  176.0050  143.2180 C   0  0  2  0  0  0  0  0  0  0  0  0
  187.0160  176.5120  142.0770 C   0  0  1  0  0  3  0  0  0  0  0  0
  185.7670  177.1570  144.1480 C   0  0  0  0  0  0  0  0  0  0  0  0
  185.0690  178.2030  146.3520 C   0  0  0  0  0  2  0  0  0  0  0  0
  184.7390  179.4390  144.2280 C   0  0  0  0  0  2  0  0  0  0  0  0
  184.0750  179.0160  145.5350 C   0  0  0  0  0  2  0  0  0  0  0  0
  185.3540  178.2670  143.5080 C   0  0  0  0  0  3  0  0  0  0  0  0
  185.4210  176.9190  145.6010 C   0  0  0  0  0  2  0  0  0  0  0  0
  188.6320  177.2050  143.7760 C   0  0  0  0  0  2  0  0  0  0  0  0
  190.5860  178.0330  144.3900 C   0  0  0  0  0  1  0  0  0  0  0  0
  189.9430  176.8340  144.0780 O   0  0  0  0  0  0  0  0  0  0  0  0
  196.0760  173.7370  143.2570 C   0  0  0  0  0  2  0  0  0  0  0  0
  196.4020  172.2600  143.4570 C   0  0  0  0  0  2  0  0  0  0  0  0
  196.5850  170.7120  146.4070 N   0  0  0  0  0  0  0  0  0  0  0  0
  197.4000  170.0320  145.6910 C   0  0  0  0  0  0  0  0  0  0  0  0
  197.2650  172.0860  144.6170 N   0  0  0  0  0  0  0  0  0  0  0  0
  196.4000  172.0170  145.8030 C   0  0  0  0  0  2  0  0  0  0  0  0
  197.8760  170.7630  144.5060 C   0  0  0  0  0  2  0  0  0  0  0  0
  197.7900  168.7280  145.9990 O   0  0  0  0  0  0  0  0  0  0  0  0
  197.5960  168.1710  147.2910 C   0  0  0  0  0  1  0  0  0  0  0  0
  1 35  1  6  0  0  0
  1  3  1  0  0  0  0
  2  6  2  0  0  0  0
  3 11  2  0  0  0  0
  3 12  1  0  0  0  0
  4  8  1  0  0  0  0
  5  2  1  0  0  0  0
  7  4  2  0  0  0  0
  7  9  1  0  0  0  0
  8  2  1  0  0  0  0
  9  5  1  0  0  0  0
 10 11  1  0  0  0  0
 11  7  1  0  0  0  0
 12 13  2  0  0  0  0
 13  4  1  0  0  0  0
 14 17  1  6  0  0  0
 14 15  1  0  0  0  0
 15  1  1  1  0  0  0
 16 14  1  0  0  0  0
 16 15  1  0  0  0  0
 18 17  1  0  0  0  0
 18 19  1  0  0  0  0
 20 19  1  0  0  0  0
 20 21  1  0  0  0  0
 22 21  1  1  0  0  0
 22 25  1  0  0  0  0
 22 24  1  0  0  0  0
 23 26  1  1  0  0  0
 24 23  1  0  0  0  0
 24 32  1  1  0  0  0
 25 24  1  0  0  0  0
 25 23  1  0  0  0  0
 26 31  1  0  0  0  0
 28 29  1  0  0  0  0
 29 27  1  0  0  0  0
 30 26  2  0  0  0  0
 30 28  1  0  0  0  0
 31 27  1  0  0  0  0
 32 34  1  0  0  0  0
 34 33  1  0  0  0  0
 35 36  1  0  0  0  0
 36 39  1  0  0  0  0
 38 42  1  0  0  0  0
 38 37  2  0  0  0  0
 39 40  1  0  0  0  0
 40 37  1  0  0  0  0
 41 39  1  0  0  0  0
 41 38  1  0  0  0  0
 42 43  1  0  0  0  0
M  END
>  <MODEL>
7

>  <REMARK>
 VINA RESULT:      -6.0      3.294      7.113
  Name = 
  15 active torsions:
  status: ('A' for Active; 'I' for Inactive)
    1  A    between atoms: C_1  and  C_34
    2  A    between atoms: C_1  and  C_35
    3  A    between atoms: C_2  and  C_7
    4  A    between atoms: C_2  and  O_12
    5  A    between atoms: O_3  and  C_4
    6  A    between atoms: O_3  and  C_17
    7  A    between atoms: C_6  and  O_12
    8  A    between atoms: C_7  and  C_17
    9  A    between atoms: C_8  and  C_34
   10  A    between atoms: C_10  and  C_22
   11  A    between atoms: C_10  and  O_42
   12  A    between atoms: C_11  and  C_14
   13  A    between atoms: C_13  and  C_34
   14  A    between atoms: C_19  and  O_25
   15  A    between atoms: N_28  and  C_35
                            x       y       z     vdW  Elec       q    Type
                         _______ _______ _______ _____ _____    ______ ____

>  <TORSDO>
F 15

$$$$
=
 OpenBabel11052421043D

 43 49  0  0  1  0  0  0  0  0999 V2000
  194.4710  173.0460  144.0970 C   0  0  1  0  0  3  0  0  0  0  0  0
  188.9960  172.8350  140.4340 C   0  0  0  0  0  0  0  0  0  0  0  0
  193.1110  172.8790  143.4600 C   0  0  0  0  0  0  0  0  0  0  0  0
  190.5890  172.4760  142.2850 C   0  0  0  0  0  0  0  0  0  0  0  0
  190.0330  173.4680  139.6870 N   0  0  0  0  0  2  0  0  0  0  0  0
  187.8260  172.7790  139.9750 O   0  0  0  0  0  0  0  0  0  0  0  0
  191.6380  173.0270  141.5170 C   0  0  0  0  0  0  0  0  0  0  0  0
  189.2870  172.3090  141.7250 N   0  0  0  0  0  2  0  0  0  0  0  0
  191.4380  173.2910  140.0420 C   0  0  0  0  0  2  0  0  0  0  0  0
  194.0250  173.8060  141.3030 C   0  0  0  0  0  1  0  0  0  0  0  0
  192.9030  173.2230  142.1080 C   0  0  0  0  0  0  0  0  0  0  0  0
  192.0540  172.3260  144.1990 C   0  0  0  0  0  3  0  0  0  0  0  0
  190.8050  172.1300  143.6170 C   0  0  0  0  0  3  0  0  0  0  0  0
  194.6630  175.1890  145.3160 C   0  0  2  0  0  3  0  0  0  0  0  0
  194.4140  173.7010  145.4740 C   0  0  2  0  0  3  0  0  0  0  0  0
  195.7630  174.2880  145.8360 C   0  0  0  0  0  2  0  0  0  0  0  0
  194.0640  175.8640  146.3810 O   0  0  0  0  0  0  0  0  0  0  0  0
  193.3560  176.9090  145.7850 C   0  0  0  0  0  2  0  0  0  0  0  0
  193.2870  176.6910  144.2850 C   0  0  0  0  0  2  0  0  0  0  0  0
  191.8470  176.4900  143.8520 C   0  0  0  0  0  2  0  0  0  0  0  0
  190.9940  176.7140  144.9350 O   0  0  0  0  0  0  0  0  0  0  0  0
  189.8550  175.9530  144.6650 C   0  0  2  0  0  3  0  0  0  0  0  0
  188.2470  177.7530  145.3420 C   0  0  2  0  0  3  0  0  0  0  0  0
  188.7390  176.8610  144.1910 C   0  0  2  0  0  0  0  0  0  0  0  0
  188.7360  176.3400  145.6150 C   0  0  1  0  0  3  0  0  0  0  0  0
  186.7510  177.8590  145.4900 C   0  0  0  0  0  0  0  0  0  0  0  0
  184.5330  178.9760  144.9670 C   0  0  0  0  0  2  0  0  0  0  0  0
  184.6160  177.0370  146.5090 C   0  0  0  0  0  2  0  0  0  0  0  0
  184.0640  178.4450  146.3140 C   0  0  0  0  0  2  0  0  0  0  0  0
  186.1040  176.9840  146.2830 C   0  0  0  0  0  3  0  0  0  0  0  0
  186.0570  179.0970  144.9660 C   0  0  0  0  0  2  0  0  0  0  0  0
  187.6860  176.0690  143.4240 C   0  0  0  0  0  2  0  0  0  0  0  0
  187.1380  177.3910  141.7420 C   0  0  0  0  0  1  0  0  0  0  0  0
  187.8730  176.2460  142.0520 O   0  0  0  0  0  0  0  0  0  0  0  0
  195.3000  171.7580  144.0950 C   0  0  0  0  0  2  0  0  0  0  0  0
  194.9610  170.8130  145.2430 C   0  0  0  0  0  2  0  0  0  0  0  0
  192.8440  168.3580  144.4540 N   0  0  0  0  0  0  0  0  0  0  0  0
  193.2520  168.7480  143.3040 C   0  0  0  0  0  0  0  0  0  0  0  0
  194.9160  169.4380  144.7700 N   0  0  0  0  0  0  0  0  0  0  0  0
  193.8030  168.7700  145.4600 C   0  0  0  0  0  2  0  0  0  0  0  0
  194.5280  169.4780  143.3610 C   0  0  0  0  0  2  0  0  0  0  0  0
  192.5540  168.5100  142.1200 O   0  0  0  0  0  0  0  0  0  0  0  0
  191.1630  168.7700  142.0030 C   0  0  0  0  0  1  0  0  0  0  0  0
  1 35  1  1  0  0  0
  2  8  1  0  0  0  0
  3  1  1  0  0  0  0
  3 12  1  0  0  0  0
  4 13  1  0  0  0  0
  5  9  1  0  0  0  0
  5  2  1  0  0  0  0
  6  2  2  0  0  0  0
  7 11  1  0  0  0  0
  7  4  2  0  0  0  0
  8  4  1  0  0  0  0
  9  7  1  0  0  0  0
 10 11  1  0  0  0  0
 11  3  2  0  0  0  0
 13 12  2  0  0  0  0
 14 15  1  0  0  0  0
 14 16  1  0  0  0  0
 14 17  1  1  0  0  0
 15  1  1  6  0  0  0
 15 16  1  0  0  0  0
 18 17  1  0  0  0  0
 19 18  1  0  0  0  0
 20 19  1  0  0  0  0
 20 21  1  0  0  0  0
 22 21  1  1  0  0  0
 22 25  1  0  0  0  0
 23 26  1  6  0  0  0
 23 25  1  0  0  0  0
 24 32  1  6  0  0  0
 24 22  1  0  0  0  0
 24 23  1  0  0  0  0
 24 25  1  0  0  0  0
 26 30  2  0  0  0  0
 27 29  1  0  0  0  0
 29 28  1  0  0  0  0
 30 28  1  0  0  0  0
 31 27  1  0  0  0  0
 31 26  1  0  0  0  0
 33 34  1  0  0  0  0
 34 32  1  0  0  0  0
 35 36  1  0  0  0  0
 37 40  1  0  0  0  0
 38 41  1  0  0  0  0
 38 37  2  0  0  0  0
 39 36  1  0  0  0  0
 39 40  1  0  0  0  0
 41 39  1  0  0  0  0
 42 38  1  0  0  0  0
 43 42  1  0  0  0  0
M  END
>  <MODEL>
8

>  <REMARK>
 VINA RESULT:      -5.9      2.864      6.837
  Name = 
  15 active torsions:
  status: ('A' for Active; 'I' for Inactive)
    1  A    between atoms: C_1  and  C_34
    2  A    between atoms: C_1  and  C_35
    3  A    between atoms: C_2  and  C_7
    4  A    between atoms: C_2  and  O_12
    5  A    between atoms: O_3  and  C_4
    6  A    between atoms: O_3  and  C_17
    7  A    between atoms: C_6  and  O_12
    8  A    between atoms: C_7  and  C_17
    9  A    between atoms: C_8  and  C_34
   10  A    between atoms: C_10  and  C_22
   11  A    between atoms: C_10  and  O_42
   12  A    between atoms: C_11  and  C_14
   13  A    between atoms: C_13  and  C_34
   14  A    between atoms: C_19  and  O_25
   15  A    between atoms: N_28  and  C_35
                            x       y       z     vdW  Elec       q    Type
                         _______ _______ _______ _____ _____    ______ ____

>  <TORSDO>
F 15

$$$$
=
 OpenBabel11052421043D

 43 49  0  0  1  0  0  0  0  0999 V2000
  194.3900  174.7050  143.8820 C   0  0  1  0  0  3  0  0  0  0  0  0
  197.0320  169.2510  146.4720 C   0  0  0  0  0  0  0  0  0  0  0  0
  195.2170  173.5420  144.3780 C   0  0  0  0  0  0  0  0  0  0  0  0
  196.7790  171.3590  145.2110 C   0  0  0  0  0  0  0  0  0  0  0  0
  195.6340  169.2700  146.7510 N   0  0  0  0  0  2  0  0  0  0  0  0
  197.7660  168.3550  146.9630 O   0  0  0  0  0  0  0  0  0  0  0  0
  195.3820  171.3370  145.4150 C   0  0  0  0  0  0  0  0  0  0  0  0
  197.5980  170.2840  145.6710 N   0  0  0  0  0  2  0  0  0  0  0  0
  194.7170  170.0980  145.9730 C   0  0  0  0  0  2  0  0  0  0  0  0
  193.1170  172.4200  145.2000 C   0  0  0  0  0  1  0  0  0  0  0  0
  194.6010  172.4310  144.9910 C   0  0  0  0  0  0  0  0  0  0  0  0
  196.6060  173.5350  144.1800 C   0  0  0  0  0  3  0  0  0  0  0  0
  197.3790  172.4550  144.5960 C   0  0  0  0  0  3  0  0  0  0  0  0
  193.3210  176.0570  145.6560 C   0  0  2  0  0  3  0  0  0  0  0  0
  194.5300  175.9550  144.7460 C   0  0  2  0  0  3  0  0  0  0  0  0
  193.4240  176.9420  144.4320 C   0  0  0  0  0  2  0  0  0  0  0  0
  193.6710  176.7840  146.7950 O   0  0  0  0  0  0  0  0  0  0  0  0
  192.6000  176.6070  147.6710 C   0  0  0  0  0  2  0  0  0  0  0  0
  191.8610  175.3270  147.3260 C   0  0  0  0  0  2  0  0  0  0  0  0
  190.4490  175.3730  147.8800 C   0  0  0  0  0  2  0  0  0  0  0  0
  189.5300  175.2560  146.8350 O   0  0  0  0  0  0  0  0  0  0  0  0
  189.0560  176.5520  146.6200 C   0  0  2  0  0  3  0  0  0  0  0  0
  188.0780  176.0370  144.3700 C   0  0  2  0  0  3  0  0  0  0  0  0
  187.7800  176.4980  145.8050 C   0  0  2  0  0  0  0  0  0  0  0  0
  189.0880  176.8760  145.1370 C   0  0  1  0  0  3  0  0  0  0  0  0
  187.4120  176.8350  143.2790 C   0  0  0  0  0  0  0  0  0  0  0  0
  185.3400  177.7600  142.1420 C   0  0  0  0  0  2  0  0  0  0  0  0
  187.5860  178.2090  141.1920 C   0  0  0  0  0  2  0  0  0  0  0  0
  186.1660  177.7600  140.8630 C   0  0  0  0  0  2  0  0  0  0  0  0
  188.1720  177.4190  142.3330 C   0  0  0  0  0  3  0  0  0  0  0  0
  185.9110  176.7340  143.1210 C   0  0  0  0  0  2  0  0  0  0  0  0
  186.9770  177.7830  145.9740 C   0  0  0  0  0  2  0  0  0  0  0  0
  185.1440  178.3160  147.0850 C   0  0  0  0  0  1  0  0  0  0  0  0
  186.4430  177.8370  147.2620 O   0  0  0  0  0  0  0  0  0  0  0  0
  194.5920  174.9980  142.3920 C   0  0  0  0  0  2  0  0  0  0  0  0
  193.3660  174.6890  141.5390 C   0  0  0  0  0  2  0  0  0  0  0  0
  190.1070  173.9720  141.5830 N   0  0  0  0  0  0  0  0  0  0  0  0
  190.6350  172.8300  141.3440 C   0  0  0  0  0  0  0  0  0  0  0  0
  192.3360  174.0530  142.3470 N   0  0  0  0  0  0  0  0  0  0  0  0
  191.1030  174.8370  142.1870 C   0  0  0  0  0  2  0  0  0  0  0  0
  192.0500  172.7540  141.7400 C   0  0  0  0  0  2  0  0  0  0  0  0
  189.9410  171.7690  140.7620 O   0  0  0  0  0  0  0  0  0  0  0  0
  190.4590  171.0490  139.6540 C   0  0  0  0  0  1  0  0  0  0  0  0
  1 35  1  6  0  0  0
  1  3  1  0  0  0  0
  2  5  1  0  0  0  0
  2  6  2  0  0  0  0
  3 11  1  0  0  0  0
  4  7  1  0  0  0  0
  4  8  1  0  0  0  0
  7  9  1  0  0  0  0
  8  2  1  0  0  0  0
  9  5  1  0  0  0  0
 11 10  1  0  0  0  0
 11  7  2  0  0  0  0
 12  3  2  0  0  0  0
 12 13  1  0  0  0  0
 13  4  2  0  0  0  0
 14 17  1  1  0  0  0
 15  1  1  6  0  0  0
 15 14  1  0  0  0  0
 16 15  1  0  0  0  0
 16 14  1  0  0  0  0
 17 18  1  0  0  0  0
 19 18  1  0  0  0  0
 19 20  1  0  0  0  0
 21 20  1  0  0  0  0
 22 21  1  6  0  0  0
 23 26  1  6  0  0  0
 23 25  1  0  0  0  0
 23 24  1  0  0  0  0
 24 32  1  1  0  0  0
 24 22  1  0  0  0  0
 25 24  1  0  0  0  0
 25 22  1  0  0  0  0
 27 31  1  0  0  0  0
 28 30  1  0  0  0  0
 29 28  1  0  0  0  0
 29 27  1  0  0  0  0
 30 26  2  0  0  0  0
 31 26  1  0  0  0  0
 32 34  1  0  0  0  0
 33 34  1  0  0  0  0
 36 39  1  0  0  0  0
 36 35  1  0  0  0  0
 37 40  1  0  0  0  0
 38 37  2  0  0  0  0
 38 41  1  0  0  0  0
 40 39  1  0  0  0  0
 41 39  1  0  0  0  0
 42 38  1  0  0  0  0
 43 42  1  0  0  0  0
M  END
>  <MODEL>
9

>  <REMARK>
 VINA RESULT:      -5.8      2.830      5.698
  Name = 
  15 active torsions:
  status: ('A' for Active; 'I' for Inactive)
    1  A    between atoms: C_1  and  C_34
    2  A    between atoms: C_1  and  C_35
    3  A    between atoms: C_2  and  C_7
    4  A    between atoms: C_2  and  O_12
    5  A    between atoms: O_3  and  C_4
    6  A    between atoms: O_3  and  C_17
    7  A    between atoms: C_6  and  O_12
    8  A    between atoms: C_7  and  C_17
    9  A    between atoms: C_8  and  C_34
   10  A    between atoms: C_10  and  C_22
   11  A    between atoms: C_10  and  O_42
   12  A    between atoms: C_11  and  C_14
   13  A    between atoms: C_13  and  C_34
   14  A    between atoms: C_19  and  O_25
   15  A    between atoms: N_28  and  C_35
                            x       y       z     vdW  Elec       q    Type
                         _______ _______ _______ _____ _____    ______ ____

>  <TORSDO>
F 15

$$$$
