=
 OpenBabel11052421163D

 43 48  0  0  1  0  0  0  0  0999 V2000
  184.5360  178.6430  147.2400 C   0  0  0  0  0  3  0  0  0  0  0  0
  187.5630  175.9790  143.5260 C   0  0  0  0  0  0  0  0  0  0  0  0
  190.0170  175.5860  144.9090 C   0  0  2  0  0  3  0  0  0  0  0  0
  185.6090  177.7500  144.4520 C   0  0  0  0  0  0  0  0  0  0  0  0
  185.9790  179.0270  147.2260 C   0  0  0  0  0  2  0  0  0  0  0  0
  183.8730  178.4980  146.0930 C   0  0  0  0  0  3  0  0  0  0  0  0
  186.6920  177.4060  145.3140 C   0  0  0  0  0  0  0  0  0  0  0  0
  184.5510  178.7620  144.7860 C   0  0  0  0  0  2  0  0  0  0  0  0
  186.8160  177.8420  146.7670 C   0  0  0  0  0  2  0  0  0  0  0  0
  188.8130  176.0710  145.7150 C   0  0  0  0  0  2  0  0  0  0  0  0
  187.6730  176.5140  144.8260 C   0  0  0  0  0  0  0  0  0  0  0  0
  186.4880  176.3630  142.7270 C   0  0  0  0  0  3  0  0  0  0  0  0
  188.5730  175.0840  143.0160 N   0  0  0  0  0  0  0  0  0  0  0  0
  189.5710  174.5200  143.9200 C   0  0  0  0  0  2  0  0  0  0  0  0
  185.5570  177.2260  143.1980 N   0  0  0  0  0  0  0  0  0  0  0  0
  191.0650  175.0820  145.7920 N   0  0  0  0  0  0  0  0  0  0  0  0
  192.3160  174.6580  145.2220 C   0  0  0  0  0  0  0  0  0  0  0  0
  192.4290  174.5230  143.9740 O   0  0  0  0  0  0  0  0  0  0  0  0
  190.8790  175.1320  147.2410 C   0  0  0  0  0  2  0  0  0  0  0  0
  191.4110  176.4400  147.7960 C   0  0  0  0  0  1  0  0  0  0  0  0
  193.5150  174.4130  146.0830 C   0  0  0  0  0  2  0  0  0  0  0  0
  194.5680  173.6270  145.3150 C   0  0  2  0  0  3  0  0  0  0  0  0
  196.8500  172.9520  145.9030 C   0  0  0  0  0  2  0  0  0  0  0  0
  194.5710  172.1740  145.7450 C   0  0  0  0  0  2  0  0  0  0  0  0
  195.9640  174.1580  145.6320 C   0  0  1  0  0  3  0  0  0  0  0  0
  196.0080  171.7250  145.6170 C   0  0  0  0  0  2  0  0  0  0  0  0
  196.5330  174.9840  144.5540 N   0  0  0  0  0  0  0  0  0  0  0  0
  197.8130  174.5840  144.3330 O   0  0  0  0  0  1  0  0  0  0  0  0
  195.7620  174.7830  143.3220 C   0  0  0  0  0  3  0  0  0  0  0  0
  195.3380  175.1010  140.4260 C   0  0  0  0  0  2  0  0  0  0  0  0
  194.5440  175.9180  141.4420 C   0  0  0  0  0  2  0  0  0  0  0  0
  195.7460  173.7610  141.0300 C   0  0  0  0  0  2  0  0  0  0  0  0
  195.3710  176.1320  142.7060 C   0  0  0  0  0  2  0  0  0  0  0  0
  196.5720  173.9840  142.2940 C   0  0  0  0  0  2  0  0  0  0  0  0
  188.7480  174.8800  141.5830 C   0  0  0  0  0  2  0  0  0  0  0  0
  191.9780  173.1290  140.6600 C   0  0  0  0  0  3  0  0  0  0  0  0
  191.6120  171.7860  140.7920 C   0  0  0  0  0  0  0  0  0  0  0  0
  189.3800  172.4600  141.4500 C   0  0  0  0  0  3  0  0  0  0  0  0
  191.0490  174.1380  140.9310 C   0  0  0  0  0  3  0  0  0  0  0  0
  189.7510  173.8050  141.3350 C   0  0  0  0  0  0  0  0  0  0  0  0
  190.3090  171.4520  141.1780 C   0  0  0  0  0  3  0  0  0  0  0  0
  193.8010  170.9930  141.0830 F   0  0  0  0  0  0  0  0  0  0  0  0
  192.5910  170.7120  140.4770 C   0  0  0  0  0  2  0  0  0  0  0  0
  2 11  1  0  0  0  0
  3 10  1  0  0  0  0
  3 16  1  1  0  0  0
  4  8  1  0  0  0  0
  4  7  1  0  0  0  0
  5  1  1  0  0  0  0
  6  1  2  0  0  0  0
  7  9  1  0  0  0  0
  8  6  1  0  0  0  0
  9  5  1  0  0  0  0
 11  7  2  0  0  0  0
 11 10  1  0  0  0  0
 12 15  1  0  0  0  0
 12  2  2  0  0  0  0
 13  2  1  0  0  0  0
 13 14  1  0  0  0  0
 14  3  1  0  0  0  0
 15  4  2  0  0  0  0
 16 19  1  0  0  0  0
 17 16  1  0  0  0  0
 17 21  1  0  0  0  0
 18 17  2  0  0  0  0
 19 20  1  0  0  0  0
 22 25  1  0  0  0  0
 22 24  1  0  0  0  0
 22 21  1  1  0  0  0
 25 27  1  6  0  0  0
 25 23  1  0  0  0  0
 26 24  1  0  0  0  0
 26 23  1  0  0  0  0
 28 27  1  0  0  0  0
 29 27  1  0  0  0  0
 30 32  1  0  0  0  0
 30 31  1  0  0  0  0
 31 33  1  0  0  0  0
 32 34  1  0  0  0  0
 33 29  1  0  0  0  0
 34 29  1  0  0  0  0
 35 13  1  0  0  0  0
 36 37  2  0  0  0  0
 36 39  1  0  0  0  0
 37 41  1  0  0  0  0
 39 40  2  0  0  0  0
 40 38  1  0  0  0  0
 40 35  1  0  0  0  0
 41 38  2  0  0  0  0
 43 37  1  0  0  0  0
 43 42  1  0  0  0  0
M  END
>  <MODEL>
1

>  <REMARK>
 VINA RESULT:      -8.4      0.000      0.000
  Name = 
  9 active torsions:
  status: ('A' for Active; 'I' for Inactive)
    1  A    between atoms: C_1  and  N_34
    2  A    between atoms: C_1  and  C_35
    3  A    between atoms: C_2  and  N_6
    4  A    between atoms: C_3  and  C_4
    5  A    between atoms: C_3  and  C_12
    6  A    between atoms: N_6  and  C_13
    7  A    between atoms: C_11  and  N_14
    8  A    between atoms: N_14  and  C_22
    9  A    between atoms: C_19  and  C_37
                            x       y       z     vdW  Elec       q    Type
                         _______ _______ _______ _____ _____    ______ ____

>  <TORSDO>
F 9

$$$$
=
 OpenBabel11052421163D

 43 48  0  0  1  0  0  0  0  0999 V2000
  189.4940  171.9190  136.7320 C   0  0  0  0  0  3  0  0  0  0  0  0
  190.1680  172.4770  142.1440 C   0  0  0  0  0  0  0  0  0  0  0  0
  190.0520  175.2980  142.4850 C   0  0  2  0  0  3  0  0  0  0  0  0
  190.4740  171.3010  139.6270 C   0  0  0  0  0  0  0  0  0  0  0  0
  190.3160  173.0990  137.1360 C   0  0  0  0  0  2  0  0  0  0  0  0
  189.6900  170.7380  137.3170 C   0  0  0  0  0  3  0  0  0  0  0  0
  190.1650  172.6910  139.7060 C   0  0  0  0  0  0  0  0  0  0  0  0
  190.7620  170.5700  138.3470 C   0  0  0  0  0  2  0  0  0  0  0  0
  189.8690  173.5830  138.5090 C   0  0  0  0  0  2  0  0  0  0  0  0
  189.6390  174.7250  141.1300 C   0  0  0  0  0  2  0  0  0  0  0  0
  190.0190  173.2690  140.9870 C   0  0  0  0  0  0  0  0  0  0  0  0
  190.4810  171.1260  142.0020 C   0  0  0  0  0  3  0  0  0  0  0  0
  190.0410  173.0670  143.4550 N   0  0  0  0  0  0  0  0  0  0  0  0
  189.5040  174.4160  143.5980 C   0  0  0  0  0  2  0  0  0  0  0  0
  190.6280  170.5820  140.7710 N   0  0  0  0  0  0  0  0  0  0  0  0
  189.5910  176.6770  142.6290 N   0  0  0  0  0  0  0  0  0  0  0  0
  188.1810  176.9520  142.5740 C   0  0  0  0  0  0  0  0  0  0  0  0
  187.3760  176.0580  142.1970 O   0  0  0  0  0  0  0  0  0  0  0  0
  190.5510  177.7320  142.9500 C   0  0  0  0  0  2  0  0  0  0  0  0
  191.9580  177.1650  143.0010 C   0  0  0  0  0  1  0  0  0  0  0  0
  187.6340  178.2780  143.0010 C   0  0  0  0  0  2  0  0  0  0  0  0
  186.3560  178.0900  143.8060 C   0  0  2  0  0  3  0  0  0  0  0  0
  185.5630  179.1410  145.8740 C   0  0  0  0  0  2  0  0  0  0  0  0
  185.3480  179.1690  143.4710 C   0  0  0  0  0  2  0  0  0  0  0  0
  186.6430  178.2370  145.2990 C   0  0  1  0  0  3  0  0  0  0  0  0
  184.5820  179.4090  144.7510 C   0  0  0  0  0  2  0  0  0  0  0  0
  186.6770  176.9520  146.0170 N   0  0  0  0  0  0  0  0  0  0  0  0
  185.9660  176.0400  145.3010 O   0  0  0  0  0  1  0  0  0  0  0  0
  188.0640  176.4850  146.1210 C   0  0  0  0  0  3  0  0  0  0  0  0
  190.5770  176.0780  147.5990 C   0  0  0  0  0  2  0  0  0  0  0  0
  190.4440  177.1670  146.5390 C   0  0  0  0  0  2  0  0  0  0  0  0
  189.6410  174.9160  147.2830 C   0  0  0  0  0  2  0  0  0  0  0  0
  188.9990  177.6510  146.4600 C   0  0  0  0  0  2  0  0  0  0  0  0
  188.1990  175.4090  147.2060 C   0  0  0  0  0  2  0  0  0  0  0  0
  190.6180  172.4260  144.6300 C   0  0  0  0  0  2  0  0  0  0  0  0
  194.3990  172.2090  144.7470 C   0  0  0  0  0  3  0  0  0  0  0  0
  194.7390  173.5120  145.1220 C   0  0  0  0  0  0  0  0  0  0  0  0
  192.3920  174.1110  145.1660 C   0  0  0  0  0  3  0  0  0  0  0  0
  193.0560  171.8580  144.5740 C   0  0  0  0  0  3  0  0  0  0  0  0
  192.0520  172.8120  144.7740 C   0  0  0  0  0  0  0  0  0  0  0  0
  193.7340  174.4610  145.3400 C   0  0  0  0  0  3  0  0  0  0  0  0
  196.5870  173.4130  146.5640 F   0  0  0  0  0  0  0  0  0  0  0  0
  196.1650  173.8780  145.3330 C   0  0  0  0  0  2  0  0  0  0  0  0
  1  5  1  0  0  0  0
  1  6  2  0  0  0  0
  2 13  1  0  0  0  0
  3 16  1  1  0  0  0
  3 14  1  0  0  0  0
  4  7  2  0  0  0  0
  4 15  1  0  0  0  0
  5  9  1  0  0  0  0
  6  8  1  0  0  0  0
  7 11  1  0  0  0  0
  8  4  1  0  0  0  0
  9  7  1  0  0  0  0
 10  3  1  0  0  0  0
 11 10  1  0  0  0  0
 11  2  2  0  0  0  0
 12  2  1  0  0  0  0
 13 14  1  0  0  0  0
 13 35  1  0  0  0  0
 15 12  2  0  0  0  0
 16 19  1  0  0  0  0
 17 16  1  0  0  0  0
 17 21  1  0  0  0  0
 18 17  2  0  0  0  0
 19 20  1  0  0  0  0
 22 21  1  6  0  0  0
 22 25  1  0  0  0  0
 24 22  1  0  0  0  0
 24 26  1  0  0  0  0
 25 23  1  0  0  0  0
 25 27  1  1  0  0  0
 26 23  1  0  0  0  0
 27 29  1  0  0  0  0
 28 27  1  0  0  0  0
 29 33  1  0  0  0  0
 29 34  1  0  0  0  0
 31 30  1  0  0  0  0
 32 30  1  0  0  0  0
 33 31  1  0  0  0  0
 34 32  1  0  0  0  0
 35 40  1  0  0  0  0
 36 37  1  0  0  0  0
 37 43  1  0  0  0  0
 37 41  2  0  0  0  0
 38 41  1  0  0  0  0
 39 36  2  0  0  0  0
 39 40  1  0  0  0  0
 40 38  2  0  0  0  0
 43 42  1  0  0  0  0
M  END
>  <MODEL>
2

>  <REMARK>
 VINA RESULT:      -8.3      3.013      8.238
  Name = 
  9 active torsions:
  status: ('A' for Active; 'I' for Inactive)
    1  A    between atoms: C_1  and  N_34
    2  A    between atoms: C_1  and  C_35
    3  A    between atoms: C_2  and  N_6
    4  A    between atoms: C_3  and  C_4
    5  A    between atoms: C_3  and  C_12
    6  A    between atoms: N_6  and  C_13
    7  A    between atoms: C_11  and  N_14
    8  A    between atoms: N_14  and  C_22
    9  A    between atoms: C_19  and  C_37
                            x       y       z     vdW  Elec       q    Type
                         _______ _______ _______ _____ _____    ______ ____

>  <TORSDO>
F 9

$$$$
=
 OpenBabel11052421163D

 43 48  0  0  1  0  0  0  0  0999 V2000
  184.8440  178.6350  147.5350 C   0  0  0  0  0  3  0  0  0  0  0  0
  187.5730  176.2420  143.4260 C   0  0  0  0  0  0  0  0  0  0  0  0
  190.2800  176.5060  144.2580 C   0  0  2  0  0  3  0  0  0  0  0  0
  185.5040  177.6750  144.6430 C   0  0  0  0  0  0  0  0  0  0  0  0
  186.1340  179.2980  147.1790 C   0  0  0  0  0  2  0  0  0  0  0  0
  184.0120  178.2340  146.5740 C   0  0  0  0  0  3  0  0  0  0  0  0
  186.7870  177.6530  145.2660 C   0  0  0  0  0  0  0  0  0  0  0  0
  184.3380  178.4840  145.1350 C   0  0  0  0  0  2  0  0  0  0  0  0
  187.1020  178.2620  146.6250 C   0  0  0  0  0  2  0  0  0  0  0  0
  189.1860  176.8240  145.2760 C   0  0  0  0  0  2  0  0  0  0  0  0
  187.8220  176.9270  144.6330 C   0  0  0  0  0  0  0  0  0  0  0  0
  186.3010  176.3110  142.8600 C   0  0  0  0  0  3  0  0  0  0  0  0
  188.6310  175.5180  142.7660 N   0  0  0  0  0  0  0  0  0  0  0  0
  189.8890  175.2680  143.4620 C   0  0  0  0  0  2  0  0  0  0  0  0
  185.3170  177.0160  143.4680 N   0  0  0  0  0  0  0  0  0  0  0  0
  191.5690  176.3230  144.9190 N   0  0  0  0  0  0  0  0  0  0  0  0
  192.7640  176.2700  144.1200 C   0  0  0  0  0  0  0  0  0  0  0  0
  192.6830  176.1690  142.8660 O   0  0  0  0  0  0  0  0  0  0  0  0
  191.6410  176.3210  146.3790 C   0  0  0  0  0  2  0  0  0  0  0  0
  191.6710  174.8970  146.9030 C   0  0  0  0  0  1  0  0  0  0  0  0
  194.1190  176.3790  144.7460 C   0  0  0  0  0  2  0  0  0  0  0  0
  194.7190  174.9970  144.9560 C   0  0  2  0  0  3  0  0  0  0  0  0
  196.8920  174.0500  144.3290 C   0  0  0  0  0  2  0  0  0  0  0  0
  195.6340  174.9870  146.1630 C   0  0  0  0  0  2  0  0  0  0  0  0
  195.5960  174.6110  143.7660 C   0  0  1  0  0  3  0  0  0  0  0  0
  196.7170  173.9870  145.8330 C   0  0  0  0  0  2  0  0  0  0  0  0
  194.9590  173.6370  142.8640 N   0  0  0  0  0  0  0  0  0  0  0  0
  195.9370  172.9350  142.2300 O   0  0  0  0  0  1  0  0  0  0  0  0
  194.1450  172.7010  143.6470 C   0  0  0  0  0  3  0  0  0  0  0  0
  192.4020  170.3430  143.9070 C   0  0  0  0  0  2  0  0  0  0  0  0
  191.8430  171.7600  143.9910 C   0  0  0  0  0  2  0  0  0  0  0  0
  193.8520  170.3190  144.3800 C   0  0  0  0  0  2  0  0  0  0  0  0
  192.6930  172.7120  143.1540 C   0  0  0  0  0  2  0  0  0  0  0  0
  194.6950  171.2740  143.5390 C   0  0  0  0  0  2  0  0  0  0  0  0
  188.5540  175.1960  141.3460 C   0  0  0  0  0  2  0  0  0  0  0  0
  190.8360  172.5890  139.8120 C   0  0  0  0  0  3  0  0  0  0  0  0
  190.4500  171.4400  140.5100 C   0  0  0  0  0  0  0  0  0  0  0  0
  188.8350  172.7420  141.7600 C   0  0  0  0  0  3  0  0  0  0  0  0
  190.2270  173.8160  140.0940 C   0  0  0  0  0  3  0  0  0  0  0  0
  189.2320  173.8960  141.0750 C   0  0  0  0  0  0  0  0  0  0  0  0
  189.4430  171.5150  141.4780 C   0  0  0  0  0  3  0  0  0  0  0  0
  192.3910  170.1260  140.6190 F   0  0  0  0  0  0  0  0  0  0  0  0
  191.0770  170.1300  140.1910 C   0  0  0  0  0  2  0  0  0  0  0  0
  2 11  1  0  0  0  0
  3 16  1  1  0  0  0
  3 10  1  0  0  0  0
  4  8  1  0  0  0  0
  4  7  1  0  0  0  0
  5  1  1  0  0  0  0
  6  1  2  0  0  0  0
  7  9  1  0  0  0  0
  8  6  1  0  0  0  0
  9  5  1  0  0  0  0
 11  7  2  0  0  0  0
 11 10  1  0  0  0  0
 12  2  2  0  0  0  0
 12 15  1  0  0  0  0
 13  2  1  0  0  0  0
 13 14  1  0  0  0  0
 14  3  1  0  0  0  0
 15  4  2  0  0  0  0
 16 19  1  0  0  0  0
 17 21  1  0  0  0  0
 17 16  1  0  0  0  0
 18 17  2  0  0  0  0
 19 20  1  0  0  0  0
 22 21  1  6  0  0  0
 22 24  1  0  0  0  0
 23 26  1  0  0  0  0
 25 27  1  1  0  0  0
 25 23  1  0  0  0  0
 25 22  1  0  0  0  0
 26 24  1  0  0  0  0
 27 29  1  0  0  0  0
 28 27  1  0  0  0  0
 30 31  1  0  0  0  0
 30 32  1  0  0  0  0
 33 29  1  0  0  0  0
 33 31  1  0  0  0  0
 34 29  1  0  0  0  0
 34 32  1  0  0  0  0
 35 13  1  0  0  0  0
 36 39  2  0  0  0  0
 36 37  1  0  0  0  0
 37 41  2  0  0  0  0
 39 40  1  0  0  0  0
 40 35  1  0  0  0  0
 40 38  2  0  0  0  0
 41 38  1  0  0  0  0
 43 37  1  0  0  0  0
 43 42  1  0  0  0  0
M  END
>  <MODEL>
3

>  <REMARK>
 VINA RESULT:      -8.3      1.557      2.275
  Name = 
  9 active torsions:
  status: ('A' for Active; 'I' for Inactive)
    1  A    between atoms: C_1  and  N_34
    2  A    between atoms: C_1  and  C_35
    3  A    between atoms: C_2  and  N_6
    4  A    between atoms: C_3  and  C_4
    5  A    between atoms: C_3  and  C_12
    6  A    between atoms: N_6  and  C_13
    7  A    between atoms: C_11  and  N_14
    8  A    between atoms: N_14  and  C_22
    9  A    between atoms: C_19  and  C_37
                            x       y       z     vdW  Elec       q    Type
                         _______ _______ _______ _____ _____    ______ ____

>  <TORSDO>
F 9

$$$$
=
 OpenBabel11052421163D

 43 48  0  0  1  0  0  0  0  0999 V2000
  189.5570  171.1250  136.9660 C   0  0  0  0  0  3  0  0  0  0  0  0
  189.9820  172.6330  142.2200 C   0  0  0  0  0  0  0  0  0  0  0  0
  189.3880  175.4120  142.1050 C   0  0  2  0  0  3  0  0  0  0  0  0
  190.5480  171.1440  139.9230 C   0  0  0  0  0  0  0  0  0  0  0  0
  190.1590  172.4750  137.1760 C   0  0  0  0  0  2  0  0  0  0  0  0
  189.9310  170.1000  137.7320 C   0  0  0  0  0  3  0  0  0  0  0  0
  190.0090  172.4570  139.7780 C   0  0  0  0  0  0  0  0  0  0  0  0
  190.9880  170.2800  138.7760 C   0  0  0  0  0  2  0  0  0  0  0  0
  189.6010  173.0870  138.4540 C   0  0  0  0  0  2  0  0  0  0  0  0
  189.1130  174.5720  140.8590 C   0  0  0  0  0  2  0  0  0  0  0  0
  189.7350  173.1970  140.9510 C   0  0  0  0  0  0  0  0  0  0  0  0
  190.5200  171.3490  142.2950 C   0  0  0  0  0  3  0  0  0  0  0  0
  189.7230  173.3920  143.4190 N   0  0  0  0  0  0  0  0  0  0  0  0
  188.9660  174.6370  143.3450 C   0  0  0  0  0  2  0  0  0  0  0  0
  190.7880  170.6510  141.1660 N   0  0  0  0  0  0  0  0  0  0  0  0
  188.7000  176.6980  142.0270 N   0  0  0  0  0  0  0  0  0  0  0  0
  187.6550  176.8750  141.0550 C   0  0  0  0  0  0  0  0  0  0  0  0
  187.4810  176.0150  140.1500 O   0  0  0  0  0  0  0  0  0  0  0  0
  188.9940  177.7380  143.0120 C   0  0  0  0  0  2  0  0  0  0  0  0
  190.4920  177.8500  143.2280 C   0  0  0  0  0  1  0  0  0  0  0  0
  186.7280  178.0470  141.1200 C   0  0  0  0  0  2  0  0  0  0  0  0
  185.3220  177.5920  141.4820 C   0  0  2  0  0  3  0  0  0  0  0  0
  183.4960  178.7230  142.6650 C   0  0  0  0  0  2  0  0  0  0  0  0
  184.3140  178.1130  140.4780 C   0  0  0  0  0  2  0  0  0  0  0  0
  184.9050  178.1760  142.8310 C   0  0  1  0  0  3  0  0  0  0  0  0
  183.0470  178.3430  141.2690 C   0  0  0  0  0  2  0  0  0  0  0  0
  184.9540  177.1970  143.9300 N   0  0  0  0  0  0  0  0  0  0  0  0
  185.7350  176.1530  143.5430 O   0  0  0  0  0  1  0  0  0  0  0  0
  185.5570  177.8180  145.1150 C   0  0  0  0  0  3  0  0  0  0  0  0
  186.2280  177.8650  147.9800 C   0  0  0  0  0  2  0  0  0  0  0  0
  185.1170  178.7410  147.4080 C   0  0  0  0  0  2  0  0  0  0  0  0
  187.2880  177.5950  146.9170 C   0  0  0  0  0  2  0  0  0  0  0  0
  184.4920  178.0680  146.1890 C   0  0  0  0  0  2  0  0  0  0  0  0
  186.6550  176.9230  145.7030 C   0  0  0  0  0  2  0  0  0  0  0  0
  190.3670  173.0510  144.6820 C   0  0  0  0  0  2  0  0  0  0  0  0
  193.5130  175.1600  144.5900 C   0  0  0  0  0  3  0  0  0  0  0  0
  193.3480  175.9520  145.7300 C   0  0  0  0  0  0  0  0  0  0  0  0
  191.2340  174.8600  146.1820 C   0  0  0  0  0  3  0  0  0  0  0  0
  192.5350  174.2240  144.2410 C   0  0  0  0  0  3  0  0  0  0  0  0
  191.3900  174.0790  145.0310 C   0  0  0  0  0  0  0  0  0  0  0  0
  192.2120  175.7950  146.5310 C   0  0  0  0  0  3  0  0  0  0  0  0
  194.1480  177.4060  147.3890 F   0  0  0  0  0  0  0  0  0  0  0  0
  194.4010  176.9280  146.1180 C   0  0  0  0  0  2  0  0  0  0  0  0
  1  5  1  0  0  0  0
  1  6  2  0  0  0  0
  2 12  1  0  0  0  0
  2 13  1  0  0  0  0
  3 16  1  6  0  0  0
  3 14  1  0  0  0  0
  4 15  1  0  0  0  0
  5  9  1  0  0  0  0
  6  8  1  0  0  0  0
  7  4  2  0  0  0  0
  7 11  1  0  0  0  0
  8  4  1  0  0  0  0
  9  7  1  0  0  0  0
 10 11  1  0  0  0  0
 10  3  1  0  0  0  0
 11  2  2  0  0  0  0
 13 35  1  0  0  0  0
 14 13  1  0  0  0  0
 15 12  2  0  0  0  0
 16 19  1  0  0  0  0
 17 21  1  0  0  0  0
 17 16  1  0  0  0  0
 18 17  2  0  0  0  0
 19 20  1  0  0  0  0
 22 21  1  6  0  0  0
 22 25  1  0  0  0  0
 23 25  1  0  0  0  0
 24 26  1  0  0  0  0
 24 22  1  0  0  0  0
 25 27  1  1  0  0  0
 26 23  1  0  0  0  0
 27 29  1  0  0  0  0
 28 27  1  0  0  0  0
 29 34  1  0  0  0  0
 29 33  1  0  0  0  0
 31 30  1  0  0  0  0
 32 30  1  0  0  0  0
 33 31  1  0  0  0  0
 34 32  1  0  0  0  0
 35 40  1  0  0  0  0
 36 37  1  0  0  0  0
 37 43  1  0  0  0  0
 37 41  2  0  0  0  0
 38 41  1  0  0  0  0
 39 36  2  0  0  0  0
 39 40  1  0  0  0  0
 40 38  2  0  0  0  0
 43 42  1  0  0  0  0
M  END
>  <MODEL>
4

>  <REMARK>
 VINA RESULT:      -8.2      3.432      9.237
  Name = 
  9 active torsions:
  status: ('A' for Active; 'I' for Inactive)
    1  A    between atoms: C_1  and  N_34
    2  A    between atoms: C_1  and  C_35
    3  A    between atoms: C_2  and  N_6
    4  A    between atoms: C_3  and  C_4
    5  A    between atoms: C_3  and  C_12
    6  A    between atoms: N_6  and  C_13
    7  A    between atoms: C_11  and  N_14
    8  A    between atoms: N_14  and  C_22
    9  A    between atoms: C_19  and  C_37
                            x       y       z     vdW  Elec       q    Type
                         _______ _______ _______ _____ _____    ______ ____

>  <TORSDO>
F 9

$$$$
=
 OpenBabel11052421163D

 43 48  0  0  1  0  0  0  0  0999 V2000
  195.5320  168.6520  146.7440 C   0  0  0  0  0  3  0  0  0  0  0  0
  194.9380  173.9220  145.3570 C   0  0  0  0  0  0  0  0  0  0  0  0
  192.3010  173.9790  144.2930 C   0  0  2  0  0  3  0  0  0  0  0  0
  196.3020  171.5250  145.8070 C   0  0  0  0  0  0  0  0  0  0  0  0
  194.7680  168.8780  145.4800 C   0  0  0  0  0  2  0  0  0  0  0  0
  196.6470  169.3400  146.9820 C   0  0  0  0  0  3  0  0  0  0  0  0
  194.9050  171.4800  145.5210 C   0  0  0  0  0  0  0  0  0  0  0  0
  197.1710  170.3110  145.9700 C   0  0  0  0  0  2  0  0  0  0  0  0
  194.0530  170.2200  145.5520 C   0  0  0  0  0  2  0  0  0  0  0  0
  192.7430  172.7190  145.0360 C   0  0  0  0  0  2  0  0  0  0  0  0
  194.2340  172.7020  145.2910 C   0  0  0  0  0  0  0  0  0  0  0  0
  196.3040  173.9000  145.6310 C   0  0  0  0  0  3  0  0  0  0  0  0
  194.2610  175.1710  145.1030 N   0  0  0  0  0  0  0  0  0  0  0  0
  192.8040  175.2100  145.0330 C   0  0  0  0  0  2  0  0  0  0  0  0
  196.9420  172.7230  145.8410 N   0  0  0  0  0  0  0  0  0  0  0  0
  190.8480  174.0100  144.1420 N   0  0  0  0  0  0  0  0  0  0  0  0
  190.2830  174.5130  142.9190 C   0  0  0  0  0  0  0  0  0  0  0  0
  191.0130  175.1100  142.0830 O   0  0  0  0  0  0  0  0  0  0  0  0
  189.9990  173.4190  145.1750 C   0  0  0  0  0  2  0  0  0  0  0  0
  189.6960  174.4420  146.2550 C   0  0  0  0  0  1  0  0  0  0  0  0
  188.8390  174.3020  142.5890 C   0  0  0  0  0  2  0  0  0  0  0  0
  188.0890  175.6250  142.6200 C   0  0  2  0  0  3  0  0  0  0  0  0
  188.8440  177.9350  142.2980 C   0  0  0  0  0  2  0  0  0  0  0  0
  187.7440  176.0790  141.2170 C   0  0  0  0  0  2  0  0  0  0  0  0
  188.9720  176.7240  143.2080 C   0  0  1  0  0  3  0  0  0  0  0  0
  187.7910  177.5880  141.2640 C   0  0  0  0  0  2  0  0  0  0  0  0
  188.6200  177.0780  144.5930 N   0  0  0  0  0  0  0  0  0  0  0  0
  189.1690  178.2880  144.8810 O   0  0  0  0  0  1  0  0  0  0  0  0
  187.1620  177.1850  144.7160 C   0  0  0  0  0  3  0  0  0  0  0  0
  184.7200  178.2270  145.9870 C   0  0  0  0  0  2  0  0  0  0  0  0
  185.1850  176.7920  146.2130 C   0  0  0  0  0  2  0  0  0  0  0  0
  185.1810  178.7220  144.6200 C   0  0  0  0  0  2  0  0  0  0  0  0
  186.7040  176.7060  146.0990 C   0  0  0  0  0  2  0  0  0  0  0  0
  186.7000  178.6330  144.5140 C   0  0  0  0  0  2  0  0  0  0  0  0
  195.0010  176.3660  144.7160 C   0  0  0  0  0  2  0  0  0  0  0  0
  195.2610  175.7410  140.9880 C   0  0  0  0  0  3  0  0  0  0  0  0
  196.6440  175.8040  140.7930 C   0  0  0  0  0  0  0  0  0  0  0  0
  196.9570  176.2440  143.1550 C   0  0  0  0  0  3  0  0  0  0  0  0
  194.7240  175.9370  142.2640 C   0  0  0  0  0  3  0  0  0  0  0  0
  195.5710  176.1980  143.3480 C   0  0  0  0  0  0  0  0  0  0  0  0
  197.4920  176.0470  141.8790 C   0  0  0  0  0  3  0  0  0  0  0  0
  196.2000  175.2980  138.5450 F   0  0  0  0  0  0  0  0  0  0  0  0
  197.2170  175.5680  139.4410 C   0  0  0  0  0  2  0  0  0  0  0  0
  1  6  2  0  0  0  0
  2 12  1  0  0  0  0
  3 16  1  1  0  0  0
  3 14  1  0  0  0  0
  3 10  1  0  0  0  0
  4 15  1  0  0  0  0
  4  8  1  0  0  0  0
  5  9  1  0  0  0  0
  5  1  1  0  0  0  0
  7  9  1  0  0  0  0
  7  4  2  0  0  0  0
  8  6  1  0  0  0  0
 10 11  1  0  0  0  0
 11  2  2  0  0  0  0
 11  7  1  0  0  0  0
 12 15  2  0  0  0  0
 13  2  1  0  0  0  0
 14 13  1  0  0  0  0
 16 19  1  0  0  0  0
 17 16  1  0  0  0  0
 18 17  2  0  0  0  0
 19 20  1  0  0  0  0
 21 17  1  0  0  0  0
 22 21  1  6  0  0  0
 22 25  1  0  0  0  0
 23 25  1  0  0  0  0
 24 26  1  0  0  0  0
 24 22  1  0  0  0  0
 25 27  1  1  0  0  0
 26 23  1  0  0  0  0
 27 29  1  0  0  0  0
 27 28  1  0  0  0  0
 29 33  1  0  0  0  0
 30 31  1  0  0  0  0
 32 30  1  0  0  0  0
 33 31  1  0  0  0  0
 34 32  1  0  0  0  0
 34 29  1  0  0  0  0
 35 13  1  0  0  0  0
 36 39  1  0  0  0  0
 37 36  2  0  0  0  0
 37 41  1  0  0  0  0
 38 40  1  0  0  0  0
 39 40  2  0  0  0  0
 40 35  1  0  0  0  0
 41 38  2  0  0  0  0
 42 43  1  0  0  0  0
 43 37  1  0  0  0  0
M  END
>  <MODEL>
5

>  <REMARK>
 VINA RESULT:      -8.1      2.385      8.990
  Name = 
  9 active torsions:
  status: ('A' for Active; 'I' for Inactive)
    1  A    between atoms: C_1  and  N_34
    2  A    between atoms: C_1  and  C_35
    3  A    between atoms: C_2  and  N_6
    4  A    between atoms: C_3  and  C_4
    5  A    between atoms: C_3  and  C_12
    6  A    between atoms: N_6  and  C_13
    7  A    between atoms: C_11  and  N_14
    8  A    between atoms: N_14  and  C_22
    9  A    between atoms: C_19  and  C_37
                            x       y       z     vdW  Elec       q    Type
                         _______ _______ _______ _____ _____    ______ ____

>  <TORSDO>
F 9

$$$$
=
 OpenBabel11052421163D

 43 48  0  0  1  0  0  0  0  0999 V2000
  195.9300  169.2760  146.8410 C   0  0  0  0  0  3  0  0  0  0  0  0
  196.2440  174.2800  144.6230 C   0  0  0  0  0  0  0  0  0  0  0  0
  193.5250  175.1140  144.6140 C   0  0  2  0  0  3  0  0  0  0  0  0
  196.9750  171.6190  145.0690 C   0  0  0  0  0  0  0  0  0  0  0  0
  194.7990  169.6220  145.9290 C   0  0  0  0  0  2  0  0  0  0  0  0
  197.1820  169.5700  146.4930 C   0  0  0  0  0  3  0  0  0  0  0  0
  195.6310  172.0180  145.3310 C   0  0  0  0  0  0  0  0  0  0  0  0
  197.4720  170.2050  145.1700 C   0  0  0  0  0  2  0  0  0  0  0  0
  194.5670  171.1260  145.9540 C   0  0  0  0  0  2  0  0  0  0  0  0
  193.8840  173.8580  145.4060 C   0  0  0  0  0  2  0  0  0  0  0  0
  195.2790  173.3660  145.0940 C   0  0  0  0  0  0  0  0  0  0  0  0
  197.5390  173.8260  144.3750 C   0  0  0  0  0  3  0  0  0  0  0  0
  195.8850  175.6520  144.3600 N   0  0  0  0  0  0  0  0  0  0  0  0
  194.6010  176.1710  144.8220 C   0  0  0  0  0  2  0  0  0  0  0  0
  197.8660  172.5310  144.5950 N   0  0  0  0  0  0  0  0  0  0  0  0
  192.2100  175.6160  145.0020 N   0  0  0  0  0  0  0  0  0  0  0  0
  191.4140  176.3170  144.0300 C   0  0  0  0  0  0  0  0  0  0  0  0
  191.9250  176.6770  142.9350 O   0  0  0  0  0  0  0  0  0  0  0  0
  191.6720  175.2940  146.3220 C   0  0  0  0  0  2  0  0  0  0  0  0
  191.9460  176.4280  147.2940 C   0  0  0  0  0  1  0  0  0  0  0  0
  189.9640  176.5940  144.2720 C   0  0  0  0  0  2  0  0  0  0  0  0
  189.1850  176.5180  142.9670 C   0  0  2  0  0  3  0  0  0  0  0  0
  186.9390  175.6770  142.4550 C   0  0  0  0  0  2  0  0  0  0  0  0
  188.2230  177.6820  142.8480 C   0  0  0  0  0  2  0  0  0  0  0  0
  188.3200  175.2590  142.9370 C   0  0  1  0  0  3  0  0  0  0  0  0
  187.0380  177.1420  142.0820 C   0  0  0  0  0  2  0  0  0  0  0  0
  188.8670  174.1950  142.0780 N   0  0  0  0  0  0  0  0  0  0  0  0
  189.2130  174.7430  140.8820 O   0  0  0  0  0  1  0  0  0  0  0  0
  190.0700  173.6320  142.7000 C   0  0  0  0  0  3  0  0  0  0  0  0
  191.9260  171.4170  143.2600 C   0  0  0  0  0  2  0  0  0  0  0  0
  190.9490  171.9240  144.3170 C   0  0  0  0  0  2  0  0  0  0  0  0
  192.2950  172.5430  142.2990 C   0  0  0  0  0  2  0  0  0  0  0  0
  189.6980  172.4870  143.6500 C   0  0  0  0  0  2  0  0  0  0  0  0
  191.0380  173.1000  141.6360 C   0  0  0  0  0  2  0  0  0  0  0  0
  196.6850  176.4860  143.4720 C   0  0  0  0  0  2  0  0  0  0  0  0
  197.4750  175.3150  139.9560 C   0  0  0  0  0  3  0  0  0  0  0  0
  196.2010  175.2910  139.3800 C   0  0  0  0  0  0  0  0  0  0  0  0
  195.2400  176.0360  141.4760 C   0  0  0  0  0  3  0  0  0  0  0  0
  197.6320  175.6920  141.2930 C   0  0  0  0  0  3  0  0  0  0  0  0
  196.5130  176.0440  142.0580 C   0  0  0  0  0  0  0  0  0  0  0  0
  195.0850  175.6600  140.1380 C   0  0  0  0  0  3  0  0  0  0  0  0
  196.9490  175.6130  137.1800 F   0  0  0  0  0  0  0  0  0  0  0  0
  196.0370  174.9170  137.9500 C   0  0  0  0  0  2  0  0  0  0  0  0
  2 11  1  0  0  0  0
  3 14  1  0  0  0  0
  3 16  1  1  0  0  0
  3 10  1  0  0  0  0
  4  8  1  0  0  0  0
  4  7  1  0  0  0  0
  5  9  1  0  0  0  0
  5  1  1  0  0  0  0
  6  1  2  0  0  0  0
  7  9  1  0  0  0  0
  8  6  1  0  0  0  0
 11  7  2  0  0  0  0
 11 10  1  0  0  0  0
 12 15  1  0  0  0  0
 12  2  2  0  0  0  0
 13  2  1  0  0  0  0
 13 14  1  0  0  0  0
 15  4  2  0  0  0  0
 16 19  1  0  0  0  0
 17 21  1  0  0  0  0
 17 16  1  0  0  0  0
 18 17  2  0  0  0  0
 19 20  1  0  0  0  0
 22 21  1  1  0  0  0
 23 25  1  0  0  0  0
 24 22  1  0  0  0  0
 25 27  1  6  0  0  0
 25 22  1  0  0  0  0
 26 23  1  0  0  0  0
 26 24  1  0  0  0  0
 27 29  1  0  0  0  0
 28 27  1  0  0  0  0
 29 33  1  0  0  0  0
 30 31  1  0  0  0  0
 32 30  1  0  0  0  0
 33 31  1  0  0  0  0
 34 32  1  0  0  0  0
 34 29  1  0  0  0  0
 35 13  1  0  0  0  0
 36 39  1  0  0  0  0
 37 36  2  0  0  0  0
 37 41  1  0  0  0  0
 38 40  1  0  0  0  0
 39 40  2  0  0  0  0
 40 35  1  0  0  0  0
 41 38  2  0  0  0  0
 42 43  1  0  0  0  0
 43 37  1  0  0  0  0
M  END
>  <MODEL>
6

>  <REMARK>
 VINA RESULT:      -8.1      2.732      8.448
  Name = 
  9 active torsions:
  status: ('A' for Active; 'I' for Inactive)
    1  A    between atoms: C_1  and  N_34
    2  A    between atoms: C_1  and  C_35
    3  A    between atoms: C_2  and  N_6
    4  A    between atoms: C_3  and  C_4
    5  A    between atoms: C_3  and  C_12
    6  A    between atoms: N_6  and  C_13
    7  A    between atoms: C_11  and  N_14
    8  A    between atoms: N_14  and  C_22
    9  A    between atoms: C_19  and  C_37
                            x       y       z     vdW  Elec       q    Type
                         _______ _______ _______ _____ _____    ______ ____

>  <TORSDO>
F 9

$$$$
=
 OpenBabel11052421163D

 43 48  0  0  1  0  0  0  0  0999 V2000
  195.7720  169.7070  146.6830 C   0  0  0  0  0  3  0  0  0  0  0  0
  196.3130  174.6480  144.3700 C   0  0  0  0  0  0  0  0  0  0  0  0
  193.7410  175.7940  144.7730 C   0  0  2  0  0  3  0  0  0  0  0  0
  196.7910  171.9180  144.7350 C   0  0  0  0  0  0  0  0  0  0  0  0
  194.5600  170.1850  145.9530 C   0  0  0  0  0  2  0  0  0  0  0  0
  196.9800  169.8540  146.1390 C   0  0  0  0  0  3  0  0  0  0  0  0
  195.5600  172.4710  145.1980 C   0  0  0  0  0  0  0  0  0  0  0  0
  197.1310  170.4560  144.7780 C   0  0  0  0  0  2  0  0  0  0  0  0
  194.5110  171.7060  145.9930 C   0  0  0  0  0  2  0  0  0  0  0  0
  194.0710  174.5010  145.5180 C   0  0  0  0  0  2  0  0  0  0  0  0
  195.3340  173.8510  145.0000 C   0  0  0  0  0  0  0  0  0  0  0  0
  197.4910  174.0470  143.9290 C   0  0  0  0  0  3  0  0  0  0  0  0
  196.0780  176.0530  144.1470 N   0  0  0  0  0  0  0  0  0  0  0  0
  194.9510  176.7170  144.7950 C   0  0  0  0  0  2  0  0  0  0  0  0
  197.6960  172.7210  144.1150 N   0  0  0  0  0  0  0  0  0  0  0  0
  192.5700  176.4450  145.3550 N   0  0  0  0  0  0  0  0  0  0  0  0
  191.5830  177.0190  144.4810 C   0  0  0  0  0  0  0  0  0  0  0  0
  191.8260  177.1480  143.2500 O   0  0  0  0  0  0  0  0  0  0  0  0
  192.3560  176.3940  146.8000 C   0  0  0  0  0  2  0  0  0  0  0  0
  191.6770  175.0920  147.1860 C   0  0  0  0  0  1  0  0  0  0  0  0
  190.2400  177.4320  144.9950 C   0  0  0  0  0  2  0  0  0  0  0  0
  189.1570  176.5150  144.4480 C   0  0  2  0  0  3  0  0  0  0  0  0
  188.7010  175.7030  142.1800 C   0  0  0  0  0  2  0  0  0  0  0  0
  189.6770  175.0990  144.3020 C   0  0  0  0  0  2  0  0  0  0  0  0
  188.7480  176.9540  143.0430 C   0  0  1  0  0  3  0  0  0  0  0  0
  188.9510  174.5300  143.1060 C   0  0  0  0  0  2  0  0  0  0  0  0
  187.4560  177.6580  143.0050 N   0  0  0  0  0  0  0  0  0  0  0  0
  186.5810  176.9120  142.2780 O   0  0  0  0  0  1  0  0  0  0  0  0
  186.9310  177.7960  144.3680 C   0  0  0  0  0  3  0  0  0  0  0  0
  184.7330  178.1190  146.2990 C   0  0  0  0  0  2  0  0  0  0  0  0
  185.6620  179.2770  145.9490 C   0  0  0  0  0  2  0  0  0  0  0  0
  185.4640  176.7890  146.1370 C   0  0  0  0  0  2  0  0  0  0  0  0
  186.1800  179.1240  144.5220 C   0  0  0  0  0  2  0  0  0  0  0  0
  185.9780  176.6440  144.7080 C   0  0  0  0  0  2  0  0  0  0  0  0
  196.8200  176.7910  143.1320 C   0  0  0  0  0  2  0  0  0  0  0  0
  194.8180  175.6630  140.1200 C   0  0  0  0  0  3  0  0  0  0  0  0
  195.8340  175.2510  139.2510 C   0  0  0  0  0  0  0  0  0  0  0  0
  197.4950  175.8530  140.9090 C   0  0  0  0  0  3  0  0  0  0  0  0
  195.1400  176.1770  141.3790 C   0  0  0  0  0  3  0  0  0  0  0  0
  196.4790  176.2820  141.7720 C   0  0  0  0  0  0  0  0  0  0  0  0
  197.1720  175.3380  139.6500 C   0  0  0  0  0  3  0  0  0  0  0  0
  194.6520  175.5420  137.2450 F   0  0  0  0  0  0  0  0  0  0  0  0
  195.4910  174.6780  137.9230 C   0  0  0  0  0  2  0  0  0  0  0  0
  2 11  1  0  0  0  0
  3 14  1  0  0  0  0
  3 16  1  1  0  0  0
  3 10  1  0  0  0  0
  4  8  1  0  0  0  0
  4  7  1  0  0  0  0
  5  9  1  0  0  0  0
  5  1  1  0  0  0  0
  6  1  2  0  0  0  0
  7  9  1  0  0  0  0
  8  6  1  0  0  0  0
 11  7  2  0  0  0  0
 11 10  1  0  0  0  0
 12 15  1  0  0  0  0
 12  2  2  0  0  0  0
 13  2  1  0  0  0  0
 13 14  1  0  0  0  0
 15  4  2  0  0  0  0
 16 19  1  0  0  0  0
 17 21  1  0  0  0  0
 17 16  1  0  0  0  0
 18 17  2  0  0  0  0
 19 20  1  0  0  0  0
 22 21  1  6  0  0  0
 23 25  1  0  0  0  0
 23 26  1  0  0  0  0
 24 22  1  0  0  0  0
 25 27  1  1  0  0  0
 25 22  1  0  0  0  0
 26 24  1  0  0  0  0
 27 29  1  0  0  0  0
 28 27  1  0  0  0  0
 29 33  1  0  0  0  0
 29 34  1  0  0  0  0
 31 30  1  0  0  0  0
 32 30  1  0  0  0  0
 33 31  1  0  0  0  0
 34 32  1  0  0  0  0
 35 13  1  0  0  0  0
 36 39  1  0  0  0  0
 37 41  1  0  0  0  0
 37 36  2  0  0  0  0
 38 40  1  0  0  0  0
 39 40  2  0  0  0  0
 40 35  1  0  0  0  0
 41 38  2  0  0  0  0
 42 43  1  0  0  0  0
 43 37  1  0  0  0  0
M  END
>  <MODEL>
7

>  <REMARK>
 VINA RESULT:      -7.9      2.439      8.963
  Name = 
  9 active torsions:
  status: ('A' for Active; 'I' for Inactive)
    1  A    between atoms: C_1  and  N_34
    2  A    between atoms: C_1  and  C_35
    3  A    between atoms: C_2  and  N_6
    4  A    between atoms: C_3  and  C_4
    5  A    between atoms: C_3  and  C_12
    6  A    between atoms: N_6  and  C_13
    7  A    between atoms: C_11  and  N_14
    8  A    between atoms: N_14  and  C_22
    9  A    between atoms: C_19  and  C_37
                            x       y       z     vdW  Elec       q    Type
                         _______ _______ _______ _____ _____    ______ ____

>  <TORSDO>
F 9

$$$$
=
 OpenBabel11052421163D

 43 48  0  0  1  0  0  0  0  0999 V2000
  184.8190  178.6600  145.9930 C   0  0  0  0  0  3  0  0  0  0  0  0
  189.8750  176.5710  146.3490 C   0  0  0  0  0  0  0  0  0  0  0  0
  189.7370  174.3380  144.5930 C   0  0  2  0  0  3  0  0  0  0  0  0
  187.5830  177.9090  147.2250 C   0  0  0  0  0  0  0  0  0  0  0  0
  184.8760  177.1670  145.9660 C   0  0  0  0  0  2  0  0  0  0  0  0
  185.5600  179.3400  146.8660 C   0  0  0  0  0  3  0  0  0  0  0  0
  187.4680  176.9730  146.1550 C   0  0  0  0  0  0  0  0  0  0  0  0
  186.4190  178.6190  147.8560 C   0  0  0  0  0  2  0  0  0  0  0  0
  186.1970  176.7210  145.3560 C   0  0  0  0  0  2  0  0  0  0  0  0
  188.5850  175.3410  144.5640 C   0  0  0  0  0  2  0  0  0  0  0  0
  188.6370  176.3030  145.7290 C   0  0  0  0  0  0  0  0  0  0  0  0
  189.9200  177.4880  147.3980 C   0  0  0  0  0  3  0  0  0  0  0  0
  191.0660  175.8730  145.9320 N   0  0  0  0  0  0  0  0  0  0  0  0
  191.0580  175.0840  144.7050 C   0  0  0  0  0  2  0  0  0  0  0  0
  188.7940  178.1200  147.8060 N   0  0  0  0  0  0  0  0  0  0  0  0
  189.7110  173.4830  143.4090 N   0  0  0  0  0  0  0  0  0  0  0  0
  190.4250  172.2340  143.4330 C   0  0  0  0  0  0  0  0  0  0  0  0
  191.2270  171.9810  144.3730 O   0  0  0  0  0  0  0  0  0  0  0  0
  188.8670  173.8440  142.2720 C   0  0  0  0  0  2  0  0  0  0  0  0
  189.6590  174.6610  141.2670 C   0  0  0  0  0  1  0  0  0  0  0  0
  190.2010  171.1940  142.3810 C   0  0  0  0  0  2  0  0  0  0  0  0
  191.0920  171.4580  141.1770 C   0  0  2  0  0  3  0  0  0  0  0  0
  192.5890  169.9920  139.9030 C   0  0  0  0  0  2  0  0  0  0  0  0
  190.4070  171.0230  139.8970 C   0  0  0  0  0  2  0  0  0  0  0  0
  192.3700  170.6250  141.2680 C   0  0  1  0  0  3  0  0  0  0  0  0
  191.5200  170.5570  138.9890 C   0  0  0  0  0  2  0  0  0  0  0  0
  193.5500  171.4100  141.6690 N   0  0  0  0  0  0  0  0  0  0  0  0
  194.6540  170.8410  141.1150 O   0  0  0  0  0  1  0  0  0  0  0  0
  193.4250  172.7800  141.1600 C   0  0  0  0  0  3  0  0  0  0  0  0
  194.4200  175.5240  140.7790 C   0  0  0  0  0  2  0  0  0  0  0  0
  193.3150  175.2100  141.7830 C   0  0  0  0  0  2  0  0  0  0  0  0
  194.3910  174.5200  139.6310 C   0  0  0  0  0  2  0  0  0  0  0  0
  193.4750  173.7880  142.3140 C   0  0  0  0  0  2  0  0  0  0  0  0
  194.5520  173.1010  140.1700 C   0  0  0  0  0  2  0  0  0  0  0  0
  192.2280  175.7720  146.8080 C   0  0  0  0  0  2  0  0  0  0  0  0
  195.3310  174.3040  145.2060 C   0  0  0  0  0  3  0  0  0  0  0  0
  195.8540  175.4200  144.5440 C   0  0  0  0  0  0  0  0  0  0  0  0
  194.0080  176.7640  145.3510 C   0  0  0  0  0  3  0  0  0  0  0  0
  194.1420  174.4160  145.9330 C   0  0  0  0  0  3  0  0  0  0  0  0
  193.4740  175.6430  145.9980 C   0  0  0  0  0  0  0  0  0  0  0  0
  195.1970  176.6520  144.6250 C   0  0  0  0  0  3  0  0  0  0  0  0
  196.9440  174.5420  142.6610 F   0  0  0  0  0  0  0  0  0  0  0  0
  197.1340  175.3080  143.7940 C   0  0  0  0  0  2  0  0  0  0  0  0
  1  6  2  0  0  0  0
  2 12  1  0  0  0  0
  3 16  1  6  0  0  0
  3 14  1  0  0  0  0
  4 15  1  0  0  0  0
  4  8  1  0  0  0  0
  5  1  1  0  0  0  0
  6  8  1  0  0  0  0
  7  4  2  0  0  0  0
  9  5  1  0  0  0  0
  9  7  1  0  0  0  0
 10  3  1  0  0  0  0
 10 11  1  0  0  0  0
 11  7  1  0  0  0  0
 11  2  2  0  0  0  0
 12 15  2  0  0  0  0
 13  2  1  0  0  0  0
 13 35  1  0  0  0  0
 14 13  1  0  0  0  0
 16 17  1  0  0  0  0
 17 18  2  0  0  0  0
 19 16  1  0  0  0  0
 20 19  1  0  0  0  0
 21 17  1  0  0  0  0
 22 25  1  0  0  0  0
 22 21  1  1  0  0  0
 23 25  1  0  0  0  0
 24 22  1  0  0  0  0
 25 27  1  6  0  0  0
 26 24  1  0  0  0  0
 26 23  1  0  0  0  0
 28 27  1  0  0  0  0
 29 27  1  0  0  0  0
 29 33  1  0  0  0  0
 30 31  1  0  0  0  0
 31 33  1  0  0  0  0
 32 34  1  0  0  0  0
 32 30  1  0  0  0  0
 34 29  1  0  0  0  0
 36 39  1  0  0  0  0
 37 41  1  0  0  0  0
 37 36  2  0  0  0  0
 38 40  1  0  0  0  0
 39 40  2  0  0  0  0
 40 35  1  0  0  0  0
 41 38  2  0  0  0  0
 42 43  1  0  0  0  0
 43 37  1  0  0  0  0
M  END
>  <MODEL>
8

>  <REMARK>
 VINA RESULT:      -7.9      2.192      4.928
  Name = 
  9 active torsions:
  status: ('A' for Active; 'I' for Inactive)
    1  A    between atoms: C_1  and  N_34
    2  A    between atoms: C_1  and  C_35
    3  A    between atoms: C_2  and  N_6
    4  A    between atoms: C_3  and  C_4
    5  A    between atoms: C_3  and  C_12
    6  A    between atoms: N_6  and  C_13
    7  A    between atoms: C_11  and  N_14
    8  A    between atoms: N_14  and  C_22
    9  A    between atoms: C_19  and  C_37
                            x       y       z     vdW  Elec       q    Type
                         _______ _______ _______ _____ _____    ______ ____

>  <TORSDO>
F 9

$$$$
=
 OpenBabel11052421163D

 43 48  0  0  1  0  0  0  0  0999 V2000
  184.8520  178.4400  147.6280 C   0  0  0  0  0  3  0  0  0  0  0  0
  187.2930  176.4050  143.1610 C   0  0  0  0  0  0  0  0  0  0  0  0
  190.0000  176.1660  144.0020 C   0  0  2  0  0  3  0  0  0  0  0  0
  185.4170  177.8830  144.6130 C   0  0  0  0  0  0  0  0  0  0  0  0
  186.2230  178.9740  147.3740 C   0  0  0  0  0  2  0  0  0  0  0  0
  183.9870  178.3150  146.6220 C   0  0  0  0  0  3  0  0  0  0  0  0
  186.6770  177.5890  145.2130 C   0  0  0  0  0  0  0  0  0  0  0  0
  184.3630  178.7500  145.2400 C   0  0  0  0  0  2  0  0  0  0  0  0
  187.0520  177.9220  146.6500 C   0  0  0  0  0  2  0  0  0  0  0  0
  188.9450  176.4580  145.0680 C   0  0  0  0  0  2  0  0  0  0  0  0
  187.6150  176.8450  144.4620 C   0  0  0  0  0  0  0  0  0  0  0  0
  186.0500  176.7330  142.6250 C   0  0  0  0  0  3  0  0  0  0  0  0
  188.2550  175.6630  142.3830 N   0  0  0  0  0  0  0  0  0  0  0  0
  189.4590  175.1380  143.0190 C   0  0  0  0  0  2  0  0  0  0  0  0
  185.1600  177.4550  143.3480 N   0  0  0  0  0  0  0  0  0  0  0  0
  191.2450  175.7080  144.6140 N   0  0  0  0  0  0  0  0  0  0  0  0
  192.4280  176.5140  144.4790 C   0  0  0  0  0  0  0  0  0  0  0  0
  192.4450  177.4840  143.6740 O   0  0  0  0  0  0  0  0  0  0  0  0
  191.2420  174.5110  145.4530 C   0  0  0  0  0  2  0  0  0  0  0  0
  191.6620  173.2990  144.6420 C   0  0  0  0  0  1  0  0  0  0  0  0
  193.6410  176.2540  145.3160 C   0  0  0  0  0  2  0  0  0  0  0  0
  194.5890  175.3060  144.5970 C   0  0  2  0  0  3  0  0  0  0  0  0
  196.9220  175.5590  143.8890 C   0  0  0  0  0  2  0  0  0  0  0  0
  195.4960  174.6030  145.5850 C   0  0  0  0  0  2  0  0  0  0  0  0
  195.5140  176.0850  143.6640 C   0  0  1  0  0  3  0  0  0  0  0  0
  196.7990  174.3920  144.8480 C   0  0  0  0  0  2  0  0  0  0  0  0
  195.1400  175.9720  142.2440 N   0  0  0  0  0  0  0  0  0  0  0  0
  196.2760  175.9950  141.4970 O   0  0  0  0  0  1  0  0  0  0  0  0
  194.4580  174.6930  142.0160 C   0  0  0  0  0  3  0  0  0  0  0  0
  193.2910  172.6320  140.2670 C   0  0  0  0  0  2  0  0  0  0  0  0
  192.4120  173.5880  141.0680 C   0  0  0  0  0  2  0  0  0  0  0  0
  194.6200  172.4120  140.9840 C   0  0  0  0  0  2  0  0  0  0  0  0
  193.1330  174.9170  141.2770 C   0  0  0  0  0  2  0  0  0  0  0  0
  195.3340  173.7450  141.1890 C   0  0  0  0  0  2  0  0  0  0  0  0
  188.1550  175.5900  140.9300 C   0  0  0  0  0  2  0  0  0  0  0  0
  189.1360  171.9310  140.8620 C   0  0  0  0  0  3  0  0  0  0  0  0
  189.6470  171.8060  139.5660 C   0  0  0  0  0  0  0  0  0  0  0  0
  189.1760  174.1470  139.1550 C   0  0  0  0  0  3  0  0  0  0  0  0
  188.6380  173.1610  141.3020 C   0  0  0  0  0  3  0  0  0  0  0  0
  188.6490  174.2680  140.4460 C   0  0  0  0  0  0  0  0  0  0  0  0
  189.6750  172.9170  138.7160 C   0  0  0  0  0  3  0  0  0  0  0  0
  191.4070  170.7150  138.4630 F   0  0  0  0  0  0  0  0  0  0  0  0
  190.2030  170.5050  139.1070 C   0  0  0  0  0  2  0  0  0  0  0  0
  2 11  1  0  0  0  0
  3 16  1  1  0  0  0
  3 10  1  0  0  0  0
  4  7  1  0  0  0  0
  4  8  1  0  0  0  0
  5  1  1  0  0  0  0
  6  1  2  0  0  0  0
  7  9  1  0  0  0  0
  8  6  1  0  0  0  0
  9  5  1  0  0  0  0
 11 10  1  0  0  0  0
 11  7  2  0  0  0  0
 12  2  2  0  0  0  0
 12 15  1  0  0  0  0
 13 14  1  0  0  0  0
 13  2  1  0  0  0  0
 14  3  1  0  0  0  0
 15  4  2  0  0  0  0
 16 19  1  0  0  0  0
 17 16  1  0  0  0  0
 17 21  1  0  0  0  0
 18 17  2  0  0  0  0
 20 19  1  0  0  0  0
 22 21  1  1  0  0  0
 22 24  1  0  0  0  0
 23 26  1  0  0  0  0
 25 27  1  6  0  0  0
 25 23  1  0  0  0  0
 25 22  1  0  0  0  0
 26 24  1  0  0  0  0
 28 27  1  0  0  0  0
 29 27  1  0  0  0  0
 30 32  1  0  0  0  0
 30 31  1  0  0  0  0
 31 33  1  0  0  0  0
 32 34  1  0  0  0  0
 33 29  1  0  0  0  0
 34 29  1  0  0  0  0
 35 13  1  0  0  0  0
 36 39  1  0  0  0  0
 37 36  2  0  0  0  0
 38 40  1  0  0  0  0
 40 35  1  0  0  0  0
 40 39  2  0  0  0  0
 41 38  2  0  0  0  0
 41 37  1  0  0  0  0
 42 43  1  0  0  0  0
 43 37  1  0  0  0  0
M  END
>  <MODEL>
9

>  <REMARK>
 VINA RESULT:      -7.9      1.636      2.193
  Name = 
  9 active torsions:
  status: ('A' for Active; 'I' for Inactive)
    1  A    between atoms: C_1  and  N_34
    2  A    between atoms: C_1  and  C_35
    3  A    between atoms: C_2  and  N_6
    4  A    between atoms: C_3  and  C_4
    5  A    between atoms: C_3  and  C_12
    6  A    between atoms: N_6  and  C_13
    7  A    between atoms: C_11  and  N_14
    8  A    between atoms: N_14  and  C_22
    9  A    between atoms: C_19  and  C_37
                            x       y       z     vdW  Elec       q    Type
                         _______ _______ _______ _____ _____    ______ ____

>  <TORSDO>
F 9

$$$$
