=
 OpenBabel11052418303D

 27 31  0  0  0  0  0  0  0  0999 V2000
  190.6380  175.9920  142.8360 C   0  0  0  0  0  3  0  0  0  0  0  0
  188.2520  176.0920  143.5450 C   0  0  0  0  0  0  0  0  0  0  0  0
  189.6220  176.2500  145.6350 N   0  0  0  0  0  0  0  0  0  0  0  0
  184.9560  177.6670  145.5860 C   0  0  0  0  0  3  0  0  0  0  0  0
  183.9740  178.4890  147.5960 F   0  0  0  0  0  0  0  0  0  0  0  0
  187.0560  176.3120  142.9240 N   0  0  0  0  0  0  0  0  0  0  0  0
  186.2510  177.7830  147.6290 C   0  0  0  0  0  3  0  0  0  0  0  0
  194.0460  176.5760  147.0730 F   0  0  0  0  0  0  0  0  0  0  0  0
  187.3610  177.2630  146.9580 C   0  0  0  0  0  3  0  0  0  0  0  0
  193.1630  176.5040  146.0480 C   0  0  0  0  0  0  0  0  0  0  0  0
  187.2820  176.9360  145.5940 C   0  0  0  0  0  0  0  0  0  0  0  0
  189.3070  175.4700  142.8030 N   0  0  0  0  0  0  0  0  0  0  0  0
  185.0490  177.9850  146.9430 C   0  0  0  0  0  0  0  0  0  0  0  0
  186.0650  177.1460  144.9130 C   0  0  0  0  0  0  0  0  0  0  0  0
  191.3320  176.3180  143.9240 C   0  0  0  0  0  0  0  0  0  0  0  0
  188.3990  176.4240  144.9040 C   0  0  0  0  0  0  0  0  0  0  0  0
  191.8100  176.2890  146.3060 C   0  0  0  0  0  3  0  0  0  0  0  0
  185.9780  176.8280  143.5650 C   0  0  0  0  0  3  0  0  0  0  0  0
  193.5970  176.6930  144.7400 C   0  0  0  0  0  3  0  0  0  0  0  0
  192.6870  176.5900  143.6890 C   0  0  0  0  0  3  0  0  0  0  0  0
  190.8700  176.2310  145.2670 C   0  0  0  0  0  0  0  0  0  0  0  0
  188.4540  172.5330  139.8890 N   0  0  0  0  0  0  0  0  0  0  0  0
  188.9970  174.4680  141.8080 C   0  0  0  0  0  0  0  0  0  0  0  0
  188.9970  173.1040  142.1420 C   0  0  0  0  0  3  0  0  0  0  0  0
  188.7180  172.1470  141.1650 C   0  0  0  0  0  3  0  0  0  0  0  0
  188.4560  173.8440  139.5280 C   0  0  0  0  0  3  0  0  0  0  0  0
  188.7300  174.8310  140.4780 C   0  0  0  0  0  3  0  0  0  0  0  0
  1 15  2  0  0  0  0
  2 16  1  0  0  0  0
  4 13  2  0  0  0  0
  6  2  2  0  0  0  0
  6 18  1  0  0  0  0
  9  7  2  0  0  0  0
 10 17  2  0  0  0  0
 10  8  1  0  0  0  0
 11  9  1  0  0  0  0
 12  1  1  0  0  0  0
 12  2  1  0  0  0  0
 13  5  1  0  0  0  0
 13  7  1  0  0  0  0
 14  4  1  0  0  0  0
 14 11  1  0  0  0  0
 15 21  1  0  0  0  0
 16 11  2  0  0  0  0
 16  3  1  0  0  0  0
 18 14  2  0  0  0  0
 19 10  1  0  0  0  0
 20 15  1  0  0  0  0
 20 19  2  0  0  0  0
 21  3  2  0  0  0  0
 21 17  1  0  0  0  0
 22 25  1  0  0  0  0
 23 24  1  0  0  0  0
 23 12  1  0  0  0  0
 25 24  2  0  0  0  0
 26 22  2  0  0  0  0
 26 27  1  0  0  0  0
 27 23  2  0  0  0  0
M  END
>  <MODEL>
1

>  <REMARK>
 VINA RESULT:      -8.3      0.000      0.000
  Name = 
  1 active torsions:
  status: ('A' for Active; 'I' for Inactive)
    1  A    between atoms: C_9  and  N_15
                            x       y       z     vdW  Elec       q    Type
                         _______ _______ _______ _____ _____    ______ ____

>  <TORSDO>
F 1

$$$$
=
 OpenBabel11052418303D

 27 31  0  0  0  0  0  0  0  0999 V2000
  190.1640  174.0440  143.4690 C   0  0  0  0  0  3  0  0  0  0  0  0
  189.0040  175.8060  144.7940 C   0  0  0  0  0  0  0  0  0  0  0  0
  188.0000  175.8640  142.5010 N   0  0  0  0  0  0  0  0  0  0  0  0
  185.6860  177.8630  146.3000 C   0  0  0  0  0  3  0  0  0  0  0  0
  183.5870  178.9330  145.9440 F   0  0  0  0  0  0  0  0  0  0  0  0
  188.8860  176.1150  146.1190 N   0  0  0  0  0  0  0  0  0  0  0  0
  184.7210  177.9720  144.0820 C   0  0  0  0  0  3  0  0  0  0  0  0
  188.1040  173.6080  138.4210 F   0  0  0  0  0  0  0  0  0  0  0  0
  185.8210  177.2800  143.5660 C   0  0  0  0  0  3  0  0  0  0  0  0
  188.5350  173.7060  139.7020 C   0  0  0  0  0  0  0  0  0  0  0  0
  186.8680  176.8740  144.4100 C   0  0  0  0  0  0  0  0  0  0  0  0
  190.2080  175.1780  144.3390 N   0  0  0  0  0  0  0  0  0  0  0  0
  184.6540  178.2630  145.4470 C   0  0  0  0  0  0  0  0  0  0  0  0
  186.7870  177.1730  145.7860 C   0  0  0  0  0  0  0  0  0  0  0  0
  189.4540  173.9350  142.3480 C   0  0  0  0  0  0  0  0  0  0  0  0
  187.9750  176.1650  143.9040 C   0  0  0  0  0  0  0  0  0  0  0  0
  188.1680  174.8040  140.4790 C   0  0  0  0  0  3  0  0  0  0  0  0
  187.8160  176.7730  146.6280 C   0  0  0  0  0  3  0  0  0  0  0  0
  189.3030  172.6900  140.2600 C   0  0  0  0  0  3  0  0  0  0  0  0
  189.7650  172.8130  141.5690 C   0  0  0  0  0  3  0  0  0  0  0  0
  188.5800  174.9230  141.8140 C   0  0  0  0  0  0  0  0  0  0  0  0
  193.9310  176.1270  146.0950 N   0  0  0  0  0  0  0  0  0  0  0  0
  191.4740  175.5100  144.9540 C   0  0  0  0  0  0  0  0  0  0  0  0
  192.1800  176.6580  144.5610 C   0  0  0  0  0  3  0  0  0  0  0  0
  193.4120  176.9540  145.1490 C   0  0  0  0  0  3  0  0  0  0  0  0
  193.2780  175.0020  146.4920 C   0  0  0  0  0  3  0  0  0  0  0  0
  192.0440  174.6740  145.9280 C   0  0  0  0  0  3  0  0  0  0  0  0
  1 12  1  0  0  0  0
  2  6  1  0  0  0  0
  3 16  1  0  0  0  0
  6 18  2  0  0  0  0
  7 13  1  0  0  0  0
  8 10  1  0  0  0  0
  9  7  2  0  0  0  0
  9 11  1  0  0  0  0
 10 19  1  0  0  0  0
 10 17  2  0  0  0  0
 11 14  2  0  0  0  0
 12  2  1  0  0  0  0
 12 23  1  0  0  0  0
 13  5  1  0  0  0  0
 13  4  2  0  0  0  0
 14  4  1  0  0  0  0
 14 18  1  0  0  0  0
 15  1  2  0  0  0  0
 16 11  1  0  0  0  0
 16  2  2  0  0  0  0
 17 21  1  0  0  0  0
 19 20  2  0  0  0  0
 20 15  1  0  0  0  0
 21 15  1  0  0  0  0
 21  3  2  0  0  0  0
 22 26  1  0  0  0  0
 23 27  1  0  0  0  0
 24 23  2  0  0  0  0
 24 25  1  0  0  0  0
 25 22  2  0  0  0  0
 27 26  2  0  0  0  0
M  END
>  <MODEL>
2

>  <REMARK>
 VINA RESULT:      -8.3      2.497      5.238
  Name = 
  1 active torsions:
  status: ('A' for Active; 'I' for Inactive)
    1  A    between atoms: C_9  and  N_15
                            x       y       z     vdW  Elec       q    Type
                         _______ _______ _______ _____ _____    ______ ____

>  <TORSDO>
F 1

$$$$
=
 OpenBabel11052418303D

 27 31  0  0  0  0  0  0  0  0999 V2000
  191.0430  175.6100  144.0810 C   0  0  0  0  0  3  0  0  0  0  0  0
  188.6980  175.8580  143.2800 C   0  0  0  0  0  0  0  0  0  0  0  0
  188.6850  176.4560  145.7110 N   0  0  0  0  0  0  0  0  0  0  0  0
  185.0410  177.8290  142.7760 C   0  0  0  0  0  3  0  0  0  0  0  0
  183.2170  179.0580  143.6920 F   0  0  0  0  0  0  0  0  0  0  0  0
  188.0830  175.9400  142.0630 N   0  0  0  0  0  0  0  0  0  0  0  0
  184.9880  178.3760  145.1340 C   0  0  0  0  0  3  0  0  0  0  0  0
  191.5690  177.0810  149.3220 F   0  0  0  0  0  0  0  0  0  0  0  0
  186.2120  177.7260  145.3160 C   0  0  0  0  0  3  0  0  0  0  0  0
  191.4020  176.7930  148.0090 C   0  0  0  0  0  0  0  0  0  0  0  0
  186.8640  177.1170  144.2310 C   0  0  0  0  0  0  0  0  0  0  0  0
  189.9030  175.0920  143.3910 N   0  0  0  0  0  0  0  0  0  0  0  0
  184.4030  178.4270  143.8650 C   0  0  0  0  0  0  0  0  0  0  0  0
  186.2650  177.1770  142.9550 C   0  0  0  0  0  0  0  0  0  0  0  0
  191.0510  176.1600  145.2940 C   0  0  0  0  0  0  0  0  0  0  0  0
  188.1040  176.4700  144.3990 C   0  0  0  0  0  0  0  0  0  0  0  0
  190.1190  176.6370  147.4860 C   0  0  0  0  0  3  0  0  0  0  0  0
  186.9030  176.5800  141.8770 C   0  0  0  0  0  3  0  0  0  0  0  0
  192.5070  176.7000  147.1700 C   0  0  0  0  0  3  0  0  0  0  0  0
  192.3290  176.3760  145.8260 C   0  0  0  0  0  3  0  0  0  0  0  0
  189.9150  176.3600  146.1270 C   0  0  0  0  0  0  0  0  0  0  0  0
  190.4570  171.5970  141.0840 N   0  0  0  0  0  0  0  0  0  0  0  0
  190.0790  173.9020  142.5900 C   0  0  0  0  0  0  0  0  0  0  0  0
  189.4930  172.6860  142.9770 C   0  0  0  0  0  3  0  0  0  0  0  0
  189.6920  171.5390  142.2050 C   0  0  0  0  0  3  0  0  0  0  0  0
  191.0470  172.7560  140.6850 C   0  0  0  0  0  3  0  0  0  0  0  0
  190.8720  173.9240  141.4310 C   0  0  0  0  0  3  0  0  0  0  0  0
  1 15  2  0  0  0  0
  2 12  1  0  0  0  0
  2 16  1  0  0  0  0
  3 21  2  0  0  0  0
  4 14  1  0  0  0  0
  4 13  2  0  0  0  0
  5 13  1  0  0  0  0
  6  2  2  0  0  0  0
  7  9  2  0  0  0  0
 10  8  1  0  0  0  0
 11 16  2  0  0  0  0
 11  9  1  0  0  0  0
 12  1  1  0  0  0  0
 13  7  1  0  0  0  0
 14 11  1  0  0  0  0
 15 20  1  0  0  0  0
 15 21  1  0  0  0  0
 16  3  1  0  0  0  0
 17 10  2  0  0  0  0
 18  6  1  0  0  0  0
 18 14  2  0  0  0  0
 19 10  1  0  0  0  0
 20 19  2  0  0  0  0
 21 17  1  0  0  0  0
 22 25  1  0  0  0  0
 23 24  1  0  0  0  0
 23 12  1  0  0  0  0
 25 24  2  0  0  0  0
 26 22  2  0  0  0  0
 26 27  1  0  0  0  0
 27 23  2  0  0  0  0
M  END
>  <MODEL>
3

>  <REMARK>
 VINA RESULT:      -8.0      1.791      2.180
  Name = 
  1 active torsions:
  status: ('A' for Active; 'I' for Inactive)
    1  A    between atoms: C_9  and  N_15
                            x       y       z     vdW  Elec       q    Type
                         _______ _______ _______ _____ _____    ______ ____

>  <TORSDO>
F 1

$$$$
=
 OpenBabel11052418303D

 27 31  0  0  0  0  0  0  0  0999 V2000
  191.5490  175.5020  142.7970 C   0  0  0  0  0  3  0  0  0  0  0  0
  189.0850  175.5050  143.1650 C   0  0  0  0  0  0  0  0  0  0  0  0
  190.1320  176.1330  145.3520 N   0  0  0  0  0  0  0  0  0  0  0  0
  185.4360  177.0970  144.4540 C   0  0  0  0  0  3  0  0  0  0  0  0
  184.1280  178.1530  146.1420 F   0  0  0  0  0  0  0  0  0  0  0  0
  187.9770  175.5080  142.3680 N   0  0  0  0  0  0  0  0  0  0  0  0
  186.4180  177.6700  146.5920 C   0  0  0  0  0  3  0  0  0  0  0  0
  194.2760  177.0920  147.2630 F   0  0  0  0  0  0  0  0  0  0  0  0
  187.6450  177.1460  146.1730 C   0  0  0  0  0  3  0  0  0  0  0  0
  193.5540  176.7700  146.1620 C   0  0  0  0  0  0  0  0  0  0  0  0
  187.7810  176.5900  144.8910 C   0  0  0  0  0  0  0  0  0  0  0  0
  190.2730  174.8640  142.6880 N   0  0  0  0  0  0  0  0  0  0  0  0
  185.3150  177.6450  145.7330 C   0  0  0  0  0  0  0  0  0  0  0  0
  186.6610  176.5720  144.0330 C   0  0  0  0  0  0  0  0  0  0  0  0
  192.0590  176.0670  143.8890 C   0  0  0  0  0  0  0  0  0  0  0  0
  189.0150  176.0710  144.4510 C   0  0  0  0  0  0  0  0  0  0  0  0
  192.1950  176.4810  146.2790 C   0  0  0  0  0  3  0  0  0  0  0  0
  186.7880  176.0260  142.7640 C   0  0  0  0  0  3  0  0  0  0  0  0
  194.1550  176.7750  144.9080 C   0  0  0  0  0  3  0  0  0  0  0  0
  193.4120  176.4160  143.7850 C   0  0  0  0  0  3  0  0  0  0  0  0
  191.4180  176.1660  145.1560 C   0  0  0  0  0  0  0  0  0  0  0  0
  190.0380  171.4130  140.2630 N   0  0  0  0  0  0  0  0  0  0  0  0
  190.1750  173.6850  141.8570 C   0  0  0  0  0  0  0  0  0  0  0  0
  190.1390  172.4050  142.4320 C   0  0  0  0  0  3  0  0  0  0  0  0
  190.0660  171.2750  141.6150 C   0  0  0  0  0  3  0  0  0  0  0  0
  190.0810  172.6370  139.6720 C   0  0  0  0  0  3  0  0  0  0  0  0
  190.1540  173.7910  140.4560 C   0  0  0  0  0  3  0  0  0  0  0  0
  1 15  2  0  0  0  0
  2 16  1  0  0  0  0
  4 13  2  0  0  0  0
  6 18  1  0  0  0  0
  6  2  2  0  0  0  0
  9  7  2  0  0  0  0
 10 17  2  0  0  0  0
 10  8  1  0  0  0  0
 11  9  1  0  0  0  0
 12  1  1  0  0  0  0
 12  2  1  0  0  0  0
 13  5  1  0  0  0  0
 13  7  1  0  0  0  0
 14  4  1  0  0  0  0
 14 11  1  0  0  0  0
 15 21  1  0  0  0  0
 16 11  2  0  0  0  0
 16  3  1  0  0  0  0
 18 14  2  0  0  0  0
 19 10  1  0  0  0  0
 20 15  1  0  0  0  0
 20 19  2  0  0  0  0
 21  3  2  0  0  0  0
 21 17  1  0  0  0  0
 22 25  1  0  0  0  0
 23 24  1  0  0  0  0
 23 12  1  0  0  0  0
 25 24  2  0  0  0  0
 26 22  2  0  0  0  0
 26 27  1  0  0  0  0
 27 23  2  0  0  0  0
M  END
>  <MODEL>
4

>  <REMARK>
 VINA RESULT:      -7.9      1.128      1.196
  Name = 
  1 active torsions:
  status: ('A' for Active; 'I' for Inactive)
    1  A    between atoms: C_9  and  N_15
                            x       y       z     vdW  Elec       q    Type
                         _______ _______ _______ _____ _____    ______ ____

>  <TORSDO>
F 1

$$$$
=
 OpenBabel11052418303D

 27 31  0  0  0  0  0  0  0  0999 V2000
  189.7750  173.8610  144.0660 C   0  0  0  0  0  3  0  0  0  0  0  0
  188.4790  175.8960  144.6820 C   0  0  0  0  0  0  0  0  0  0  0  0
  187.9800  175.4380  142.2710 N   0  0  0  0  0  0  0  0  0  0  0  0
  185.0570  178.2920  144.9360 C   0  0  0  0  0  3  0  0  0  0  0  0
  183.1490  179.2800  143.9050 F   0  0  0  0  0  0  0  0  0  0  0  0
  188.1070  176.5040  145.8470 N   0  0  0  0  0  0  0  0  0  0  0  0
  184.5830  177.8990  142.5940 C   0  0  0  0  0  3  0  0  0  0  0  0
  188.7880  172.3010  138.9180 F   0  0  0  0  0  0  0  0  0  0  0  0
  185.7210  177.0920  142.4960 C   0  0  0  0  0  3  0  0  0  0  0  0
  188.9480  172.6860  140.2070 C   0  0  0  0  0  0  0  0  0  0  0  0
  186.5410  176.8770  143.6160 C   0  0  0  0  0  0  0  0  0  0  0  0
  189.7090  175.1640  144.6500 N   0  0  0  0  0  0  0  0  0  0  0  0
  184.2530  178.4980  143.8130 C   0  0  0  0  0  0  0  0  0  0  0  0
  186.1950  177.4860  144.8410 C   0  0  0  0  0  0  0  0  0  0  0  0
  189.3090  173.5060  142.8700 C   0  0  0  0  0  0  0  0  0  0  0  0
  187.6820  176.0550  143.5330 C   0  0  0  0  0  0  0  0  0  0  0  0
  188.4970  173.9390  140.6220 C   0  0  0  0  0  3  0  0  0  0  0  0
  186.9980  177.2770  145.9520 C   0  0  0  0  0  3  0  0  0  0  0  0
  189.5170  171.8150  141.1290 C   0  0  0  0  0  3  0  0  0  0  0  0
  189.7040  172.2300  142.4470 C   0  0  0  0  0  3  0  0  0  0  0  0
  188.6290  174.3560  141.9530 C   0  0  0  0  0  0  0  0  0  0  0  0
  193.0360  176.4370  146.9200 N   0  0  0  0  0  0  0  0  0  0  0  0
  190.8370  175.6120  145.4360 C   0  0  0  0  0  0  0  0  0  0  0  0
  191.7470  176.5450  144.9140 C   0  0  0  0  0  3  0  0  0  0  0  0
  192.8440  176.9500  145.6760 C   0  0  0  0  0  3  0  0  0  0  0  0
  192.1800  175.5250  147.4530 C   0  0  0  0  0  3  0  0  0  0  0  0
  191.0710  175.0950  146.7210 C   0  0  0  0  0  3  0  0  0  0  0  0
  1 12  1  0  0  0  0
  2  6  1  0  0  0  0
  3 16  1  0  0  0  0
  6 18  2  0  0  0  0
  7 13  1  0  0  0  0
  8 10  1  0  0  0  0
  9  7  2  0  0  0  0
  9 11  1  0  0  0  0
 10 17  2  0  0  0  0
 10 19  1  0  0  0  0
 11 14  2  0  0  0  0
 12  2  1  0  0  0  0
 12 23  1  0  0  0  0
 13  5  1  0  0  0  0
 13  4  2  0  0  0  0
 14  4  1  0  0  0  0
 14 18  1  0  0  0  0
 15  1  2  0  0  0  0
 16 11  1  0  0  0  0
 16  2  2  0  0  0  0
 17 21  1  0  0  0  0
 19 20  2  0  0  0  0
 20 15  1  0  0  0  0
 21  3  2  0  0  0  0
 21 15  1  0  0  0  0
 22 26  1  0  0  0  0
 23 27  1  0  0  0  0
 24 23  2  0  0  0  0
 24 25  1  0  0  0  0
 25 22  2  0  0  0  0
 27 26  2  0  0  0  0
M  END
>  <MODEL>
5

>  <REMARK>
 VINA RESULT:      -7.7      2.557      5.395
  Name = 
  1 active torsions:
  status: ('A' for Active; 'I' for Inactive)
    1  A    between atoms: C_9  and  N_15
                            x       y       z     vdW  Elec       q    Type
                         _______ _______ _______ _____ _____    ______ ____

>  <TORSDO>
F 1

$$$$
=
 OpenBabel11052418303D

 27 31  0  0  0  0  0  0  0  0999 V2000
  188.8120  175.0820  141.3530 C   0  0  0  0  0  3  0  0  0  0  0  0
  188.8460  176.3070  143.5210 C   0  0  0  0  0  0  0  0  0  0  0  0
  189.4790  173.9390  144.0330 N   0  0  0  0  0  0  0  0  0  0  0  0
  190.4890  177.5360  147.1680 C   0  0  0  0  0  3  0  0  0  0  0  0
  191.5720  177.0100  149.2240 F   0  0  0  0  0  0  0  0  0  0  0  0
  188.8560  177.6180  143.9030 N   0  0  0  0  0  0  0  0  0  0  0  0
  191.0660  175.2460  147.7020 C   0  0  0  0  0  3  0  0  0  0  0  0
  190.4050  169.8820  141.9300 F   0  0  0  0  0  0  0  0  0  0  0  0
  190.5260  174.8220  146.4850 C   0  0  0  0  0  3  0  0  0  0  0  0
  190.0830  171.1930  141.8260 C   0  0  0  0  0  0  0  0  0  0  0  0
  189.9580  175.7490  145.5960 C   0  0  0  0  0  0  0  0  0  0  0  0
  188.1880  175.9530  142.2990 N   0  0  0  0  0  0  0  0  0  0  0  0
  191.0470  176.6010  148.0430 C   0  0  0  0  0  0  0  0  0  0  0  0
  189.9470  177.1150  145.9500 C   0  0  0  0  0  0  0  0  0  0  0  0
  189.3800  173.9060  141.6150 C   0  0  0  0  0  0  0  0  0  0  0  0
  189.4230  175.3360  144.3590 C   0  0  0  0  0  0  0  0  0  0  0  0
  189.8100  171.9380  142.9730 C   0  0  0  0  0  3  0  0  0  0  0  0
  189.3900  178.0370  145.0770 C   0  0  0  0  0  3  0  0  0  0  0  0
  190.0720  171.8120  140.5810 C   0  0  0  0  0  3  0  0  0  0  0  0
  189.7130  173.1550  140.4800 C   0  0  0  0  0  3  0  0  0  0  0  0
  189.4950  173.3020  142.8980 C   0  0  0  0  0  0  0  0  0  0  0  0
  184.7550  178.0960  141.0860 N   0  0  0  0  0  0  0  0  0  0  0  0
  187.0040  176.6700  141.8810 C   0  0  0  0  0  0  0  0  0  0  0  0
  186.9130  177.2050  140.5850 C   0  0  0  0  0  3  0  0  0  0  0  0
  185.7740  177.9150  140.2040 C   0  0  0  0  0  3  0  0  0  0  0  0
  184.8150  177.6000  142.3510 C   0  0  0  0  0  3  0  0  0  0  0  0
  185.9390  176.8840  142.7700 C   0  0  0  0  0  3  0  0  0  0  0  0
  1 15  2  0  0  0  0
  1 12  1  0  0  0  0
  2  6  2  0  0  0  0
  2 16  1  0  0  0  0
  3 16  1  0  0  0  0
  4 13  2  0  0  0  0
  6 18  1  0  0  0  0
  7 13  1  0  0  0  0
  9  7  2  0  0  0  0
 10  8  1  0  0  0  0
 10 17  2  0  0  0  0
 11 14  1  0  0  0  0
 11  9  1  0  0  0  0
 12  2  1  0  0  0  0
 13  5  1  0  0  0  0
 14  4  1  0  0  0  0
 15 21  1  0  0  0  0
 16 11  2  0  0  0  0
 18 14  2  0  0  0  0
 19 10  1  0  0  0  0
 20 19  2  0  0  0  0
 20 15  1  0  0  0  0
 21 17  1  0  0  0  0
 21  3  2  0  0  0  0
 22 26  1  0  0  0  0
 23 12  1  0  0  0  0
 23 27  1  0  0  0  0
 24 23  2  0  0  0  0
 25 24  1  0  0  0  0
 25 22  2  0  0  0  0
 26 27  2  0  0  0  0
M  END
>  <MODEL>
6

>  <REMARK>
 VINA RESULT:      -7.6      2.873      5.125
  Name = 
  1 active torsions:
  status: ('A' for Active; 'I' for Inactive)
    1  A    between atoms: C_9  and  N_15
                            x       y       z     vdW  Elec       q    Type
                         _______ _______ _______ _____ _____    ______ ____

>  <TORSDO>
F 1

$$$$
=
 OpenBabel11052418303D

 27 31  0  0  0  0  0  0  0  0999 V2000
  188.8350  176.2490  145.8810 C   0  0  0  0  0  3  0  0  0  0  0  0
  188.5620  175.5780  143.4980 C   0  0  0  0  0  0  0  0  0  0  0  0
  191.0200  175.8760  143.8760 N   0  0  0  0  0  0  0  0  0  0  0  0
  189.3640  173.3140  140.0700 C   0  0  0  0  0  3  0  0  0  0  0  0
  190.9280  172.3670  138.5430 F   0  0  0  0  0  0  0  0  0  0  0  0
  187.5640  175.0310  142.7430 N   0  0  0  0  0  0  0  0  0  0  0  0
  191.7420  173.6310  140.3920 C   0  0  0  0  0  3  0  0  0  0  0  0
  194.1020  176.7580  147.2610 F   0  0  0  0  0  0  0  0  0  0  0  0
  191.4900  174.3850  141.5430 C   0  0  0  0  0  3  0  0  0  0  0  0
  192.8150  176.5530  146.8910 C   0  0  0  0  0  0  0  0  0  0  0  0
  190.1710  174.6140  141.9690 C   0  0  0  0  0  0  0  0  0  0  0  0
  188.2080  176.4120  144.6060 N   0  0  0  0  0  0  0  0  0  0  0  0
  190.6800  173.0970  139.6570 C   0  0  0  0  0  0  0  0  0  0  0  0
  189.1080  174.0680  141.2190 C   0  0  0  0  0  0  0  0  0  0  0  0
  190.1430  176.1640  146.1130 C   0  0  0  0  0  0  0  0  0  0  0  0
  189.9040  175.3610  143.1340 C   0  0  0  0  0  0  0  0  0  0  0  0
  192.4890  176.4280  145.5410 C   0  0  0  0  0  3  0  0  0  0  0  0
  187.8030  174.2880  141.6340 C   0  0  0  0  0  3  0  0  0  0  0  0
  191.8240  176.4180  147.8570 C   0  0  0  0  0  3  0  0  0  0  0  0
  190.4990  176.2350  147.4670 C   0  0  0  0  0  3  0  0  0  0  0  0
  191.1700  176.1940  145.1280 C   0  0  0  0  0  0  0  0  0  0  0  0
  184.8040  178.9060  144.4170 N   0  0  0  0  0  0  0  0  0  0  0  0
  187.0340  177.2530  144.5320 C   0  0  0  0  0  0  0  0  0  0  0  0
  186.9570  178.2920  143.5900 C   0  0  0  0  0  3  0  0  0  0  0  0
  185.8270  179.1100  143.5450 C   0  0  0  0  0  3  0  0  0  0  0  0
  184.8490  177.9160  145.3480 C   0  0  0  0  0  3  0  0  0  0  0  0
  185.9640  177.0770  145.4230 C   0  0  0  0  0  3  0  0  0  0  0  0
  1 15  2  0  0  0  0
  2 12  1  0  0  0  0
  3 21  2  0  0  0  0
  4 14  1  0  0  0  0
  5 13  1  0  0  0  0
  6  2  2  0  0  0  0
  7  9  2  0  0  0  0
  9 11  1  0  0  0  0
 10  8  1  0  0  0  0
 10 19  1  0  0  0  0
 11 16  2  0  0  0  0
 12  1  1  0  0  0  0
 13  4  2  0  0  0  0
 13  7  1  0  0  0  0
 14 18  2  0  0  0  0
 14 11  1  0  0  0  0
 15 20  1  0  0  0  0
 16  2  1  0  0  0  0
 16  3  1  0  0  0  0
 17 10  2  0  0  0  0
 18  6  1  0  0  0  0
 20 19  2  0  0  0  0
 21 17  1  0  0  0  0
 21 15  1  0  0  0  0
 22 26  1  0  0  0  0
 23 12  1  0  0  0  0
 23 27  1  0  0  0  0
 24 23  2  0  0  0  0
 25 24  1  0  0  0  0
 25 22  2  0  0  0  0
 26 27  2  0  0  0  0
M  END
>  <MODEL>
7

>  <REMARK>
 VINA RESULT:      -7.6      2.509      5.883
  Name = 
  1 active torsions:
  status: ('A' for Active; 'I' for Inactive)
    1  A    between atoms: C_9  and  N_15
                            x       y       z     vdW  Elec       q    Type
                         _______ _______ _______ _____ _____    ______ ____

>  <TORSDO>
F 1

$$$$
=
 OpenBabel11052418303D

 27 31  0  0  0  0  0  0  0  0999 V2000
  187.1230  177.4740  142.3010 C   0  0  0  0  0  3  0  0  0  0  0  0
  188.6150  176.9130  144.2150 C   0  0  0  0  0  0  0  0  0  0  0  0
  189.0280  175.1760  142.4580 N   0  0  0  0  0  0  0  0  0  0  0  0
  192.2500  175.9310  146.0410 C   0  0  0  0  0  3  0  0  0  0  0  0
  194.2240  174.5980  146.1230 F   0  0  0  0  0  0  0  0  0  0  0  0
  189.0610  177.5610  145.3300 N   0  0  0  0  0  0  0  0  0  0  0  0
  192.6450  174.2150  144.3790 C   0  0  0  0  0  3  0  0  0  0  0  0
  187.8730  174.0850  138.0740 F   0  0  0  0  0  0  0  0  0  0  0  0
  191.4350  174.5360  143.7550 C   0  0  0  0  0  3  0  0  0  0  0  0
  187.7720  174.9400  139.1200 C   0  0  0  0  0  0  0  0  0  0  0  0
  190.6180  175.5560  144.2690 C   0  0  0  0  0  0  0  0  0  0  0  0
  187.3210  177.2440  143.6980 N   0  0  0  0  0  0  0  0  0  0  0  0
  193.0510  174.9120  145.5210 C   0  0  0  0  0  0  0  0  0  0  0  0
  191.0400  176.2530  145.4200 C   0  0  0  0  0  0  0  0  0  0  0  0
  187.5350  176.6920  141.3050 C   0  0  0  0  0  0  0  0  0  0  0  0
  189.4030  175.8980  143.6410 C   0  0  0  0  0  0  0  0  0  0  0  0
  188.3450  174.6110  140.3480 C   0  0  0  0  0  3  0  0  0  0  0  0
  190.2390  177.2640  145.9320 C   0  0  0  0  0  3  0  0  0  0  0  0
  187.1390  176.1680  138.9590 C   0  0  0  0  0  3  0  0  0  0  0  0
  187.0150  177.0290  140.0480 C   0  0  0  0  0  3  0  0  0  0  0  0
  188.2750  175.4850  141.4430 C   0  0  0  0  0  0  0  0  0  0  0  0
  184.1680  178.2790  146.3120 N   0  0  0  0  0  0  0  0  0  0  0  0
  186.2530  177.6090  144.6020 C   0  0  0  0  0  0  0  0  0  0  0  0
  185.8730  176.7470  145.6440 C   0  0  0  0  0  3  0  0  0  0  0  0
  184.8250  177.1030  146.4950 C   0  0  0  0  0  3  0  0  0  0  0  0
  184.5040  179.1320  145.3070 C   0  0  0  0  0  3  0  0  0  0  0  0
  185.5470  178.8110  144.4360 C   0  0  0  0  0  3  0  0  0  0  0  0
  1 12  1  0  0  0  0
  2  6  1  0  0  0  0
  3 16  1  0  0  0  0
  6 18  2  0  0  0  0
  7 13  2  0  0  0  0
  8 10  1  0  0  0  0
  9 11  2  0  0  0  0
  9  7  1  0  0  0  0
 10 17  2  0  0  0  0
 11 14  1  0  0  0  0
 12  2  1  0  0  0  0
 12 23  1  0  0  0  0
 13  4  1  0  0  0  0
 13  5  1  0  0  0  0
 14 18  1  0  0  0  0
 14  4  2  0  0  0  0
 15 21  1  0  0  0  0
 15  1  2  0  0  0  0
 16  2  2  0  0  0  0
 16 11  1  0  0  0  0
 17 21  1  0  0  0  0
 19 10  1  0  0  0  0
 19 20  2  0  0  0  0
 20 15  1  0  0  0  0
 21  3  2  0  0  0  0
 22 25  1  0  0  0  0
 23 24  1  0  0  0  0
 24 25  2  0  0  0  0
 26 22  2  0  0  0  0
 27 23  2  0  0  0  0
 27 26  1  0  0  0  0
M  END
>  <MODEL>
8

>  <REMARK>
 VINA RESULT:      -7.5      2.790      6.740
  Name = 
  1 active torsions:
  status: ('A' for Active; 'I' for Inactive)
    1  A    between atoms: C_9  and  N_15
                            x       y       z     vdW  Elec       q    Type
                         _______ _______ _______ _____ _____    ______ ____

>  <TORSDO>
F 1

$$$$
=
 OpenBabel11052418303D

 27 31  0  0  0  0  0  0  0  0999 V2000
  190.6560  173.1180  142.9770 C   0  0  0  0  0  3  0  0  0  0  0  0
  189.9220  174.7590  144.7010 C   0  0  0  0  0  0  0  0  0  0  0  0
  188.6700  175.3210  142.6070 N   0  0  0  0  0  0  0  0  0  0  0  0
  187.1300  176.9190  146.9490 C   0  0  0  0  0  3  0  0  0  0  0  0
  185.1760  178.2770  147.0570 F   0  0  0  0  0  0  0  0  0  0  0  0
  190.0070  174.8540  146.0610 N   0  0  0  0  0  0  0  0  0  0  0  0
  185.9330  177.5120  144.9300 C   0  0  0  0  0  3  0  0  0  0  0  0
  187.9690  173.7840  138.2610 F   0  0  0  0  0  0  0  0  0  0  0  0
  186.8550  176.7900  144.1670 C   0  0  0  0  0  3  0  0  0  0  0  0
  188.5580  173.6140  139.4680 C   0  0  0  0  0  0  0  0  0  0  0  0
  187.9270  176.1260  144.7860 C   0  0  0  0  0  0  0  0  0  0  0  0
  190.9630  174.0770  143.9930 N   0  0  0  0  0  0  0  0  0  0  0  0
  186.0710  177.5760  146.3200 C   0  0  0  0  0  0  0  0  0  0  0  0
  188.0540  176.1970  146.1890 C   0  0  0  0  0  0  0  0  0  0  0  0
  189.8090  173.2850  141.9630 C   0  0  0  0  0  0  0  0  0  0  0  0
  188.8550  175.3830  144.0290 C   0  0  0  0  0  0  0  0  0  0  0  0
  188.4440  174.6020  140.4450 C   0  0  0  0  0  3  0  0  0  0  0  0
  189.1090  175.5420  146.8080 C   0  0  0  0  0  3  0  0  0  0  0  0
  189.2370  172.4340  139.7540 C   0  0  0  0  0  3  0  0  0  0  0  0
  189.8640  172.2790  140.9890 C   0  0  0  0  0  3  0  0  0  0  0  0
  189.0250  174.4460  141.7120 C   0  0  0  0  0  0  0  0  0  0  0  0
  194.9650  174.2800  145.3300 N   0  0  0  0  0  0  0  0  0  0  0  0
  192.3270  174.1470  144.4680 C   0  0  0  0  0  0  0  0  0  0  0  0
  193.0310  175.3620  144.4410 C   0  0  0  0  0  3  0  0  0  0  0  0
  194.3550  175.4090  144.8810 C   0  0  0  0  0  3  0  0  0  0  0  0
  194.3150  173.0850  145.3600 C   0  0  0  0  0  3  0  0  0  0  0  0
  192.9900  172.9980  144.9280 C   0  0  0  0  0  3  0  0  0  0  0  0
  1 12  1  0  0  0  0
  2  6  1  0  0  0  0
  3 16  1  0  0  0  0
  6 18  2  0  0  0  0
  7 13  2  0  0  0  0
  8 10  1  0  0  0  0
  9 11  2  0  0  0  0
  9  7  1  0  0  0  0
 10 19  1  0  0  0  0
 10 17  2  0  0  0  0
 11 14  1  0  0  0  0
 12 23  1  0  0  0  0
 12  2  1  0  0  0  0
 13  4  1  0  0  0  0
 13  5  1  0  0  0  0
 14 18  1  0  0  0  0
 14  4  2  0  0  0  0
 15  1  2  0  0  0  0
 16  2  2  0  0  0  0
 16 11  1  0  0  0  0
 17 21  1  0  0  0  0
 19 20  2  0  0  0  0
 20 15  1  0  0  0  0
 21 15  1  0  0  0  0
 21  3  2  0  0  0  0
 22 26  1  0  0  0  0
 23 27  1  0  0  0  0
 24 23  2  0  0  0  0
 24 25  1  0  0  0  0
 25 22  2  0  0  0  0
 27 26  2  0  0  0  0
M  END
>  <MODEL>
9

>  <REMARK>
 VINA RESULT:      -7.5      2.889      5.344
  Name = 
  1 active torsions:
  status: ('A' for Active; 'I' for Inactive)
    1  A    between atoms: C_9  and  N_15
                            x       y       z     vdW  Elec       q    Type
                         _______ _______ _______ _____ _____    ______ ____

>  <TORSDO>
F 1

$$$$
