=
 OpenBabel11052417213D

 30 30  0  0  1  0  0  0  0  0999 V2000
  189.0690  175.6340  142.6510 C   0  0  2  0  0  3  0  0  0  0  0  0
  189.5190  174.5720  141.6890 C   0  0  0  0  0  0  0  0  0  0  0  0
  190.3880  173.7370  142.0620 O   0  0  0  0  0  0  0  0  0  0  0  0
  188.9770  174.5050  140.4030 O   0  0  0  0  0  0  0  0  0  0  0  0
  189.4750  173.6060  139.4230 C   0  0  0  0  0  2  0  0  0  0  0  0
  188.3270  173.1090  138.5720 C   0  0  0  0  0  1  0  0  0  0  0  0
  187.7510  176.3630  142.3420 C   0  0  1  0  0  3  0  0  0  0  0  0
  186.6470  175.5270  142.5250 O   0  0  0  0  0  1  0  0  0  0  0  0
  187.5860  177.6390  143.1830 C   0  0  0  0  0  2  0  0  0  0  0  0
  186.1470  178.0240  143.5700 C   0  0  1  0  0  3  0  0  0  0  0  0
  186.0710  178.6650  144.9490 C   0  0  0  0  0  2  0  0  0  0  0  0
  185.0410  176.9350  146.2130 O   0  0  0  0  0  1  0  0  0  0  0  0
  183.7820  178.8290  145.9300 O   0  0  0  0  0  0  0  0  0  0  0  0
  184.9450  178.0950  145.7380 C   0  0  0  0  0  0  0  0  0  0  0  0
  185.5440  178.8600  142.5870 O   0  0  0  0  0  0  0  0  0  0  0  0
  184.9430  178.1630  140.4670 O   0  0  0  0  0  0  0  0  0  0  0  0
  183.3020  178.1410  142.0680 O   0  0  0  0  0  1  0  0  0  0  0  0
  184.6120  178.3770  141.6640 C   0  0  0  0  0  0  0  0  0  0  0  0
  190.4410  176.6940  143.2680 S   0  0  0  0  0  0  0  0  0  0  0  0
  190.5620  176.2580  145.0920 C   0  0  1  0  0  0  0  0  0  0  0  0
  191.9660  175.7270  145.4620 C   0  0  2  0  0  3  0  0  0  0  0  0
  193.0320  176.6940  145.0870 C   0  0  2  0  0  3  0  0  0  0  0  0
  192.8080  175.5180  144.3520 O   0  0  0  0  0  0  0  0  0  0  0  0
  194.2140  176.5350  145.9860 C   0  0  0  0  0  0  0  0  0  0  0  0
  195.1640  175.5410  145.7620 O   0  0  0  0  0  0  0  0  0  0  0  0
  194.3480  177.3130  146.9660 O   0  0  0  0  0  1  0  0  0  0  0  0
  190.3480  177.3950  145.9240 O   0  0  0  0  0  0  0  0  0  0  0  0
  189.1420  177.2940  146.6350 C   0  0  0  0  0  1  0  0  0  0  0  0
  189.6030  175.1270  145.4980 C   0  0  0  0  0  2  0  0  0  0  0  0
  190.2280  173.8790  145.5090 O   0  0  0  0  0  1  0  0  0  0  0  0
  1  2  1  6  0  0  0
  1 19  1  0  0  0  0
  2  3  2  0  0  0  0
  4  2  1  0  0  0  0
  5  4  1  0  0  0  0
  6  5  1  0  0  0  0
  7  8  1  1  0  0  0
  7  1  1  0  0  0  0
  7  9  1  0  0  0  0
 10  9  1  6  0  0  0
 10 11  1  0  0  0  0
 11 14  1  0  0  0  0
 14 13  2  0  0  0  0
 14 12  1  0  0  0  0
 15 10  1  0  0  0  0
 16 18  2  0  0  0  0
 18 17  1  0  0  0  0
 18 15  1  0  0  0  0
 19 20  1  0  0  0  0
 20 29  1  1  0  0  0
 20 27  1  0  0  0  0
 21 20  1  6  0  0  0
 22 21  1  0  0  0  0
 22 24  1  1  0  0  0
 23 22  1  0  0  0  0
 23 21  1  0  0  0  0
 24 26  1  0  0  0  0
 25 24  2  0  0  0  0
 27 28  1  0  0  0  0
 29 30  1  0  0  0  0
M  END
>  <MODEL>
1

>  <REMARK>
 VINA RESULT:      -5.2      0.000      0.000
  Name = 
  16 active torsions:
  status: ('A' for Active; 'I' for Inactive)
    1  A    between atoms: C_1  and  C_4
    2  A    between atoms: C_1  and  C_22
    3  A    between atoms: C_2  and  O_20
    4  A    between atoms: C_2  and  C_22
    5  A    between atoms: C_3  and  C_23
    6  A    between atoms: C_4  and  C_12
    7  A    between atoms: C_7  and  C_23
    8  A    between atoms: O_8  and  C_12
    9  A    between atoms: O_8  and  C_30
   10  A    between atoms: C_9  and  C_12
   11  A    between atoms: C_9  and  C_21
   12  A    between atoms: C_10  and  C_15
   13  A    between atoms: O_11  and  C_23
   14  A    between atoms: C_14  and  O_20
   15  A    between atoms: C_22  and  S_29
   16  A    between atoms: C_23  and  S_29
                            x       y       z     vdW  Elec       q    Type
                         _______ _______ _______ _____ _____    ______ ____

>  <TORSDO>
F 16

$$$$
=
 OpenBabel11052417213D

 30 30  0  0  1  0  0  0  0  0999 V2000
  189.7480  175.5410  145.7870 C   0  0  2  0  0  3  0  0  0  0  0  0
  189.7830  175.1310  147.2320 C   0  0  0  0  0  0  0  0  0  0  0  0
  188.8060  174.4910  147.7100 O   0  0  0  0  0  0  0  0  0  0  0  0
  190.8840  175.4480  148.0320 O   0  0  0  0  0  0  0  0  0  0  0  0
  191.6740  176.6050  147.8010 C   0  0  0  0  0  2  0  0  0  0  0  0
  191.4970  177.5690  148.9540 C   0  0  0  0  0  1  0  0  0  0  0  0
  188.8740  176.7480  145.4110 C   0  0  1  0  0  3  0  0  0  0  0  0
  189.6500  177.8390  145.0120 O   0  0  0  0  0  1  0  0  0  0  0  0
  187.8540  176.4030  144.3120 C   0  0  0  0  0  2  0  0  0  0  0  0
  186.4610  177.0440  144.4440 C   0  0  1  0  0  3  0  0  0  0  0  0
  185.6760  176.9930  143.1400 C   0  0  0  0  0  2  0  0  0  0  0  0
  185.8440  179.3630  143.1870 O   0  0  0  0  0  1  0  0  0  0  0  0
  185.3050  178.4550  141.1530 O   0  0  0  0  0  0  0  0  0  0  0  0
  185.6220  178.3350  142.5000 C   0  0  0  0  0  0  0  0  0  0  0  0
  185.7150  176.4650  145.5100 O   0  0  0  0  0  0  0  0  0  0  0  0
  185.9880  177.1590  147.6970 O   0  0  0  0  0  1  0  0  0  0  0  0
  184.1660  177.9770  146.5710 O   0  0  0  0  0  0  0  0  0  0  0  0
  185.3190  177.2000  146.6310 C   0  0  0  0  0  0  0  0  0  0  0  0
  189.6860  174.1170  144.6230 S   0  0  0  0  0  0  0  0  0  0  0  0
  191.1400  174.4130  143.4700 C   0  0  1  0  0  0  0  0  0  0  0  0
  190.6880  174.5370  141.9970 C   0  0  2  0  0  3  0  0  0  0  0  0
  189.3370  173.9510  141.7900 C   0  0  2  0  0  3  0  0  0  0  0  0
  190.5020  173.2990  141.3520 O   0  0  0  0  0  0  0  0  0  0  0  0
  188.6510  174.6260  140.6470 C   0  0  0  0  0  0  0  0  0  0  0  0
  188.7640  174.1410  139.3470 O   0  0  0  0  0  0  0  0  0  0  0  0
  187.9620  175.6550  140.8680 O   0  0  0  0  0  1  0  0  0  0  0  0
  191.8150  175.6320  143.7710 O   0  0  0  0  0  0  0  0  0  0  0  0
  192.4570  176.1580  142.6390 C   0  0  0  0  0  1  0  0  0  0  0  0
  192.1440  173.2480  143.4690 C   0  0  0  0  0  2  0  0  0  0  0  0
  192.8490  173.1540  144.6700 O   0  0  0  0  0  1  0  0  0  0  0  0
  1 19  1  6  0  0  0
  1  2  1  0  0  0  0
  2  3  2  0  0  0  0
  2  4  1  0  0  0  0
  5  4  1  0  0  0  0
  5  6  1  0  0  0  0
  7  8  1  6  0  0  0
  7  1  1  0  0  0  0
  9 10  1  0  0  0  0
  9  7  1  0  0  0  0
 10 11  1  6  0  0  0
 10 15  1  0  0  0  0
 13 14  2  0  0  0  0
 14 11  1  0  0  0  0
 14 12  1  0  0  0  0
 15 18  1  0  0  0  0
 17 18  2  0  0  0  0
 18 16  1  0  0  0  0
 20 29  1  1  0  0  0
 20 27  1  0  0  0  0
 20 19  1  0  0  0  0
 21 20  1  1  0  0  0
 22 24  1  6  0  0  0
 22 21  1  0  0  0  0
 23 22  1  0  0  0  0
 23 21  1  0  0  0  0
 24 26  1  0  0  0  0
 25 24  2  0  0  0  0
 28 27  1  0  0  0  0
 29 30  1  0  0  0  0
M  END
>  <MODEL>
2

>  <REMARK>
 VINA RESULT:      -5.1      1.977      5.602
  Name = 
  16 active torsions:
  status: ('A' for Active; 'I' for Inactive)
    1  A    between atoms: C_1  and  C_4
    2  A    between atoms: C_1  and  C_22
    3  A    between atoms: C_2  and  O_20
    4  A    between atoms: C_2  and  C_22
    5  A    between atoms: C_3  and  C_23
    6  A    between atoms: C_4  and  C_12
    7  A    between atoms: C_7  and  C_23
    8  A    between atoms: O_8  and  C_12
    9  A    between atoms: O_8  and  C_30
   10  A    between atoms: C_9  and  C_12
   11  A    between atoms: C_9  and  C_21
   12  A    between atoms: C_10  and  C_15
   13  A    between atoms: O_11  and  C_23
   14  A    between atoms: C_14  and  O_20
   15  A    between atoms: C_22  and  S_29
   16  A    between atoms: C_23  and  S_29
                            x       y       z     vdW  Elec       q    Type
                         _______ _______ _______ _____ _____    ______ ____

>  <TORSDO>
F 16

$$$$
=
 OpenBabel11052417213D

 30 30  0  0  1  0  0  0  0  0999 V2000
  189.4720  175.8320  145.9060 C   0  0  2  0  0  3  0  0  0  0  0  0
  189.7420  175.2260  147.2540 C   0  0  0  0  0  0  0  0  0  0  0  0
  188.9400  174.3650  147.7080 O   0  0  0  0  0  0  0  0  0  0  0  0
  190.8690  175.6040  147.9890 O   0  0  0  0  0  0  0  0  0  0  0  0
  191.4730  176.8810  147.8370 C   0  0  0  0  0  2  0  0  0  0  0  0
  191.4340  177.6120  149.1610 C   0  0  0  0  0  1  0  0  0  0  0  0
  188.2700  176.7830  145.7810 C   0  0  1  0  0  3  0  0  0  0  0  0
  188.0650  177.5090  146.9570 O   0  0  0  0  0  1  0  0  0  0  0  0
  188.4170  177.7460  144.5920 C   0  0  0  0  0  2  0  0  0  0  0  0
  187.1760  177.9280  143.7000 C   0  0  1  0  0  3  0  0  0  0  0  0
  186.1890  178.9320  144.2810 C   0  0  0  0  0  2  0  0  0  0  0  0
  184.1750  178.2960  145.3730 O   0  0  0  0  0  1  0  0  0  0  0  0
  184.2290  177.9240  143.1120 O   0  0  0  0  0  0  0  0  0  0  0  0
  184.8090  178.3760  144.2900 C   0  0  0  0  0  0  0  0  0  0  0  0
  187.5330  178.2800  142.3670 O   0  0  0  0  0  0  0  0  0  0  0  0
  187.9910  176.2930  141.2810 O   0  0  0  0  0  1  0  0  0  0  0  0
  186.5630  177.7440  140.2260 O   0  0  0  0  0  0  0  0  0  0  0  0
  187.3840  177.3960  141.2950 C   0  0  0  0  0  0  0  0  0  0  0  0
  189.7060  174.6550  144.5120 S   0  0  0  0  0  0  0  0  0  0  0  0
  191.3140  175.2130  143.7140 C   0  0  1  0  0  0  0  0  0  0  0  0
  192.3940  175.5390  144.7710 C   0  0  2  0  0  3  0  0  0  0  0  0
  193.6530  174.7900  144.5130 C   0  0  2  0  0  3  0  0  0  0  0  0
  192.7790  174.4320  145.5530 O   0  0  0  0  0  0  0  0  0  0  0  0
  194.8230  175.5480  145.0470 C   0  0  0  0  0  0  0  0  0  0  0  0
  195.4510  176.5360  144.2930 O   0  0  0  0  0  0  0  0  0  0  0  0
  195.2500  175.2830  146.2010 O   0  0  0  0  0  1  0  0  0  0  0  0
  191.8750  174.1990  142.8870 O   0  0  0  0  0  0  0  0  0  0  0  0
  191.3890  174.2770  141.5720 C   0  0  0  0  0  1  0  0  0  0  0  0
  191.1570  176.5150  142.9090 C   0  0  0  0  0  2  0  0  0  0  0  0
  191.8010  177.5940  143.5150 O   0  0  0  0  0  1  0  0  0  0  0  0
  1 19  1  6  0  0  0
  1  2  1  0  0  0  0
  2  3  2  0  0  0  0
  2  4  1  0  0  0  0
  5  4  1  0  0  0  0
  5  6  1  0  0  0  0
  7  1  1  0  0  0  0
  7  8  1  1  0  0  0
  9  7  1  0  0  0  0
 10 11  1  1  0  0  0
 10  9  1  0  0  0  0
 11 14  1  0  0  0  0
 13 14  2  0  0  0  0
 14 12  1  0  0  0  0
 15 10  1  0  0  0  0
 16 18  1  0  0  0  0
 17 18  2  0  0  0  0
 18 15  1  0  0  0  0
 20 29  1  6  0  0  0
 20 19  1  0  0  0  0
 21 20  1  6  0  0  0
 21 23  1  0  0  0  0
 22 21  1  0  0  0  0
 22 24  1  1  0  0  0
 22 23  1  0  0  0  0
 24 26  1  0  0  0  0
 25 24  2  0  0  0  0
 27 20  1  0  0  0  0
 28 27  1  0  0  0  0
 29 30  1  0  0  0  0
M  END
>  <MODEL>
3

>  <REMARK>
 VINA RESULT:      -5.0      1.928      4.417
  Name = 
  16 active torsions:
  status: ('A' for Active; 'I' for Inactive)
    1  A    between atoms: C_1  and  C_4
    2  A    between atoms: C_1  and  C_22
    3  A    between atoms: C_2  and  O_20
    4  A    between atoms: C_2  and  C_22
    5  A    between atoms: C_3  and  C_23
    6  A    between atoms: C_4  and  C_12
    7  A    between atoms: C_7  and  C_23
    8  A    between atoms: O_8  and  C_12
    9  A    between atoms: O_8  and  C_30
   10  A    between atoms: C_9  and  C_12
   11  A    between atoms: C_9  and  C_21
   12  A    between atoms: C_10  and  C_15
   13  A    between atoms: O_11  and  C_23
   14  A    between atoms: C_14  and  O_20
   15  A    between atoms: C_22  and  S_29
   16  A    between atoms: C_23  and  S_29
                            x       y       z     vdW  Elec       q    Type
                         _______ _______ _______ _____ _____    ______ ____

>  <TORSDO>
F 16

$$$$
=
 OpenBabel11052417213D

 30 30  0  0  1  0  0  0  0  0999 V2000
  189.3120  176.1200  144.1040 C   0  0  2  0  0  3  0  0  0  0  0  0
  189.1870  176.1430  142.6070 C   0  0  0  0  0  0  0  0  0  0  0  0
  188.9190  177.2330  142.0320 O   0  0  0  0  0  0  0  0  0  0  0  0
  189.3720  174.9750  141.8620 O   0  0  0  0  0  0  0  0  0  0  0  0
  188.3190  174.0470  141.6430 C   0  0  0  0  0  2  0  0  0  0  0  0
  188.6450  172.7470  142.3440 C   0  0  0  0  0  1  0  0  0  0  0  0
  188.0360  176.3560  144.9280 C   0  0  1  0  0  3  0  0  0  0  0  0
  188.0890  175.6940  146.1570 O   0  0  0  0  0  1  0  0  0  0  0  0
  187.7610  177.8530  145.1520 C   0  0  0  0  0  2  0  0  0  0  0  0
  186.6320  178.4760  144.3140 C   0  0  1  0  0  3  0  0  0  0  0  0
  185.7180  177.4220  143.7010 C   0  0  0  0  0  2  0  0  0  0  0  0
  185.7140  178.3350  141.5050 O   0  0  0  0  0  0  0  0  0  0  0  0
  183.6480  178.0500  142.4570 O   0  0  0  0  0  1  0  0  0  0  0  0
  185.0330  177.9530  142.4910 C   0  0  0  0  0  0  0  0  0  0  0  0
  185.8810  179.4240  145.0650 O   0  0  0  0  0  0  0  0  0  0  0  0
  185.4590  178.9070  147.2770 O   0  0  0  0  0  1  0  0  0  0  0  0
  183.6800  178.8120  145.8340 O   0  0  0  0  0  0  0  0  0  0  0  0
  185.0240  179.0470  146.1030 C   0  0  0  0  0  0  0  0  0  0  0  0
  190.8290  176.9560  144.7250 S   0  0  0  0  0  0  0  0  0  0  0  0
  191.9060  175.5410  145.3340 C   0  0  1  0  0  0  0  0  0  0  0  0
  193.1840  175.3850  144.4780 C   0  0  2  0  0  3  0  0  0  0  0  0
  194.1980  176.4190  144.8180 C   0  0  2  0  0  3  0  0  0  0  0  0
  193.4430  176.4830  143.6340 O   0  0  0  0  0  0  0  0  0  0  0  0
  195.5720  175.9050  144.5370 C   0  0  0  0  0  0  0  0  0  0  0  0
  196.1480  174.9110  145.3240 O   0  0  0  0  0  1  0  0  0  0  0  0
  196.2200  176.3860  143.5720 O   0  0  0  0  0  0  0  0  0  0  0  0
  192.3580  175.7550  146.6680 O   0  0  0  0  0  0  0  0  0  0  0  0
  191.3690  175.4230  147.6070 C   0  0  0  0  0  1  0  0  0  0  0  0
  191.2050  174.1750  145.2330 C   0  0  0  0  0  2  0  0  0  0  0  0
  191.8590  173.3070  144.3580 O   0  0  0  0  0  1  0  0  0  0  0  0
  1  2  1  6  0  0  0
  1 19  1  0  0  0  0
  1  7  1  0  0  0  0
  3  2  2  0  0  0  0
  4  2  1  0  0  0  0
  5  4  1  0  0  0  0
  5  6  1  0  0  0  0
  7  9  1  0  0  0  0
  7  8  1  1  0  0  0
 10 11  1  1  0  0  0
 10 15  1  0  0  0  0
 10  9  1  0  0  0  0
 12 14  2  0  0  0  0
 13 14  1  0  0  0  0
 14 11  1  0  0  0  0
 15 18  1  0  0  0  0
 17 18  2  0  0  0  0
 18 16  1  0  0  0  0
 19 20  1  0  0  0  0
 20 29  1  6  0  0  0
 20 27  1  0  0  0  0
 21 22  1  0  0  0  0
 21 20  1  1  0  0  0
 22 24  1  6  0  0  0
 23 21  1  0  0  0  0
 23 22  1  0  0  0  0
 24 25  1  0  0  0  0
 26 24  2  0  0  0  0
 27 28  1  0  0  0  0
 30 29  1  0  0  0  0
M  END
>  <MODEL>
4

>  <REMARK>
 VINA RESULT:      -5.0      1.725      2.986
  Name = 
  16 active torsions:
  status: ('A' for Active; 'I' for Inactive)
    1  A    between atoms: C_1  and  C_4
    2  A    between atoms: C_1  and  C_22
    3  A    between atoms: C_2  and  O_20
    4  A    between atoms: C_2  and  C_22
    5  A    between atoms: C_3  and  C_23
    6  A    between atoms: C_4  and  C_12
    7  A    between atoms: C_7  and  C_23
    8  A    between atoms: O_8  and  C_12
    9  A    between atoms: O_8  and  C_30
   10  A    between atoms: C_9  and  C_12
   11  A    between atoms: C_9  and  C_21
   12  A    between atoms: C_10  and  C_15
   13  A    between atoms: O_11  and  C_23
   14  A    between atoms: C_14  and  O_20
   15  A    between atoms: C_22  and  S_29
   16  A    between atoms: C_23  and  S_29
                            x       y       z     vdW  Elec       q    Type
                         _______ _______ _______ _____ _____    ______ ____

>  <TORSDO>
F 16

$$$$
=
 OpenBabel11052417213D

 30 30  0  0  1  0  0  0  0  0999 V2000
  188.9040  175.2440  142.5540 C   0  0  2  0  0  3  0  0  0  0  0  0
  188.8940  174.0570  141.6330 C   0  0  0  0  0  0  0  0  0  0  0  0
  188.0710  173.1250  141.8460 O   0  0  0  0  0  0  0  0  0  0  0  0
  189.7780  173.9910  140.5520 O   0  0  0  0  0  0  0  0  0  0  0  0
  190.4720  172.7980  140.2210 C   0  0  0  0  0  2  0  0  0  0  0  0
  191.0840  172.9420  138.8450 C   0  0  0  0  0  1  0  0  0  0  0  0
  187.8740  176.3550  142.2950 C   0  0  1  0  0  3  0  0  0  0  0  0
  187.5160  176.4190  140.9460 O   0  0  0  0  0  1  0  0  0  0  0  0
  186.6150  176.1890  143.1620 C   0  0  0  0  0  2  0  0  0  0  0  0
  186.4990  177.1140  144.3870 C   0  0  1  0  0  3  0  0  0  0  0  0
  186.2560  178.5650  143.9950 C   0  0  0  0  0  2  0  0  0  0  0  0
  185.2220  178.7290  141.8610 O   0  0  0  0  0  0  0  0  0  0  0  0
  183.7930  178.7670  143.6530 O   0  0  0  0  0  1  0  0  0  0  0  0
  185.0680  178.6830  143.1080 C   0  0  0  0  0  0  0  0  0  0  0  0
  185.5020  176.6590  145.2970 O   0  0  0  0  0  0  0  0  0  0  0  0
  186.1790  176.9130  147.4910 O   0  0  0  0  0  1  0  0  0  0  0  0
  184.2910  178.0460  146.8530 O   0  0  0  0  0  0  0  0  0  0  0  0
  185.3590  177.1970  146.5790 C   0  0  0  0  0  0  0  0  0  0  0  0
  190.5970  175.8140  142.9970 S   0  0  0  0  0  0  0  0  0  0  0  0
  190.5550  175.9390  144.8720 C   0  0  1  0  0  0  0  0  0  0  0  0
  191.8790  175.4590  145.5080 C   0  0  2  0  0  3  0  0  0  0  0  0
  193.0220  176.3200  145.1030 C   0  0  2  0  0  3  0  0  0  0  0  0
  192.8410  175.0330  144.5700 O   0  0  0  0  0  0  0  0  0  0  0  0
  194.0780  176.3070  146.1600 C   0  0  0  0  0  0  0  0  0  0  0  0
  195.0280  175.2910  146.2210 O   0  0  0  0  0  0  0  0  0  0  0  0
  194.1030  177.2330  147.0120 O   0  0  0  0  0  1  0  0  0  0  0  0
  190.3810  177.2840  145.3090 O   0  0  0  0  0  0  0  0  0  0  0  0
  189.6010  177.3500  146.4750 C   0  0  0  0  0  1  0  0  0  0  0  0
  189.4760  175.0420  145.5030 C   0  0  0  0  0  2  0  0  0  0  0  0
  189.8670  173.7040  145.5620 O   0  0  0  0  0  1  0  0  0  0  0  0
  1  2  1  6  0  0  0
  1 19  1  0  0  0  0
  2  3  2  0  0  0  0
  4  2  1  0  0  0  0
  5  4  1  0  0  0  0
  6  5  1  0  0  0  0
  7  8  1  6  0  0  0
  7  1  1  0  0  0  0
  7  9  1  0  0  0  0
 10  9  1  6  0  0  0
 10 15  1  0  0  0  0
 11 10  1  0  0  0  0
 12 14  2  0  0  0  0
 14 13  1  0  0  0  0
 14 11  1  0  0  0  0
 15 18  1  0  0  0  0
 18 17  2  0  0  0  0
 18 16  1  0  0  0  0
 19 20  1  0  0  0  0
 20 27  1  0  0  0  0
 20 29  1  1  0  0  0
 21 20  1  6  0  0  0
 22 21  1  0  0  0  0
 22 24  1  1  0  0  0
 23 22  1  0  0  0  0
 23 21  1  0  0  0  0
 24 25  2  0  0  0  0
 24 26  1  0  0  0  0
 27 28  1  0  0  0  0
 29 30  1  0  0  0  0
M  END
>  <MODEL>
5

>  <REMARK>
 VINA RESULT:      -5.0      1.127      2.445
  Name = 
  16 active torsions:
  status: ('A' for Active; 'I' for Inactive)
    1  A    between atoms: C_1  and  C_4
    2  A    between atoms: C_1  and  C_22
    3  A    between atoms: C_2  and  O_20
    4  A    between atoms: C_2  and  C_22
    5  A    between atoms: C_3  and  C_23
    6  A    between atoms: C_4  and  C_12
    7  A    between atoms: C_7  and  C_23
    8  A    between atoms: O_8  and  C_12
    9  A    between atoms: O_8  and  C_30
   10  A    between atoms: C_9  and  C_12
   11  A    between atoms: C_9  and  C_21
   12  A    between atoms: C_10  and  C_15
   13  A    between atoms: O_11  and  C_23
   14  A    between atoms: C_14  and  O_20
   15  A    between atoms: C_22  and  S_29
   16  A    between atoms: C_23  and  S_29
                            x       y       z     vdW  Elec       q    Type
                         _______ _______ _______ _____ _____    ______ ____

>  <TORSDO>
F 16

$$$$
=
 OpenBabel11052417213D

 30 30  0  0  1  0  0  0  0  0999 V2000
  189.4820  175.8040  143.7860 C   0  0  2  0  0  3  0  0  0  0  0  0
  190.2630  174.8680  142.9100 C   0  0  0  0  0  0  0  0  0  0  0  0
  191.2220  175.3240  142.2290 O   0  0  0  0  0  0  0  0  0  0  0  0
  189.9360  173.5100  142.8550 O   0  0  0  0  0  0  0  0  0  0  0  0
  189.7050  172.8400  141.6240 C   0  0  0  0  0  2  0  0  0  0  0  0
  190.4450  171.5210  141.6260 C   0  0  0  0  0  1  0  0  0  0  0  0
  188.2120  176.4390  143.1970 C   0  0  1  0  0  3  0  0  0  0  0  0
  187.3300  175.4690  142.7130 O   0  0  0  0  0  1  0  0  0  0  0  0
  187.4900  177.3390  144.2130 C   0  0  0  0  0  2  0  0  0  0  0  0
  185.9530  177.2750  144.2160 C   0  0  1  0  0  3  0  0  0  0  0  0
  185.3830  177.1350  145.6220 C   0  0  0  0  0  2  0  0  0  0  0  0
  183.6950  178.7420  146.0930 O   0  0  0  0  0  0  0  0  0  0  0  0
  185.8300  179.3650  146.6490 O   0  0  0  0  0  1  0  0  0  0  0  0
  184.9170  178.4510  146.1390 C   0  0  0  0  0  0  0  0  0  0  0  0
  185.3780  178.3910  143.5440 O   0  0  0  0  0  0  0  0  0  0  0  0
  185.2410  178.1340  141.2520 O   0  0  0  0  0  0  0  0  0  0  0  0
  183.2600  178.2710  142.3990 O   0  0  0  0  0  1  0  0  0  0  0  0
  184.6510  178.2570  142.3580 C   0  0  0  0  0  0  0  0  0  0  0  0
  190.5420  176.9260  144.7880 S   0  0  0  0  0  0  0  0  0  0  0  0
  190.7240  176.0290  146.4290 C   0  0  1  0  0  0  0  0  0  0  0  0
  192.1920  175.6270  146.7030 C   0  0  2  0  0  3  0  0  0  0  0  0
  193.0390  175.7960  145.4920 C   0  0  2  0  0  3  0  0  0  0  0  0
  192.6330  174.5280  145.9400 O   0  0  0  0  0  0  0  0  0  0  0  0
  194.4540  176.0650  145.8860 C   0  0  0  0  0  0  0  0  0  0  0  0
  195.3540  175.0250  146.1060 O   0  0  0  0  0  1  0  0  0  0  0  0
  194.8350  177.2560  146.0250 O   0  0  0  0  0  0  0  0  0  0  0  0
  190.3370  176.8490  147.5280 O   0  0  0  0  0  0  0  0  0  0  0  0
  191.4220  177.1200  148.3770 C   0  0  0  0  0  1  0  0  0  0  0  0
  189.9470  174.7020  146.4700 C   0  0  0  0  0  2  0  0  0  0  0  0
  189.0080  174.6690  147.5020 O   0  0  0  0  0  1  0  0  0  0  0  0
  1  2  1  6  0  0  0
  1 19  1  0  0  0  0
  3  2  2  0  0  0  0
  4  2  1  0  0  0  0
  5  6  1  0  0  0  0
  5  4  1  0  0  0  0
  7  8  1  1  0  0  0
  7  1  1  0  0  0  0
  7  9  1  0  0  0  0
 10  9  1  1  0  0  0
 10 11  1  0  0  0  0
 11 14  1  0  0  0  0
 12 14  2  0  0  0  0
 14 13  1  0  0  0  0
 15 10  1  0  0  0  0
 16 18  2  0  0  0  0
 18 17  1  0  0  0  0
 18 15  1  0  0  0  0
 19 20  1  0  0  0  0
 20 29  1  6  0  0  0
 20 27  1  0  0  0  0
 21 20  1  6  0  0  0
 22 24  1  1  0  0  0
 22 23  1  0  0  0  0
 22 21  1  0  0  0  0
 23 21  1  0  0  0  0
 24 26  2  0  0  0  0
 24 25  1  0  0  0  0
 27 28  1  0  0  0  0
 29 30  1  0  0  0  0
M  END
>  <MODEL>
6

>  <REMARK>
 VINA RESULT:      -4.9      1.520      1.703
  Name = 
  16 active torsions:
  status: ('A' for Active; 'I' for Inactive)
    1  A    between atoms: C_1  and  C_4
    2  A    between atoms: C_1  and  C_22
    3  A    between atoms: C_2  and  O_20
    4  A    between atoms: C_2  and  C_22
    5  A    between atoms: C_3  and  C_23
    6  A    between atoms: C_4  and  C_12
    7  A    between atoms: C_7  and  C_23
    8  A    between atoms: O_8  and  C_12
    9  A    between atoms: O_8  and  C_30
   10  A    between atoms: C_9  and  C_12
   11  A    between atoms: C_9  and  C_21
   12  A    between atoms: C_10  and  C_15
   13  A    between atoms: O_11  and  C_23
   14  A    between atoms: C_14  and  O_20
   15  A    between atoms: C_22  and  S_29
   16  A    between atoms: C_23  and  S_29
                            x       y       z     vdW  Elec       q    Type
                         _______ _______ _______ _____ _____    ______ ____

>  <TORSDO>
F 16

$$$$
=
 OpenBabel11052417213D

 30 30  0  0  1  0  0  0  0  0999 V2000
  189.6500  176.0150  144.3720 C   0  0  2  0  0  3  0  0  0  0  0  0
  189.2180  176.3880  142.9830 C   0  0  0  0  0  0  0  0  0  0  0  0
  189.7380  177.3960  142.4310 O   0  0  0  0  0  0  0  0  0  0  0  0
  188.2620  175.6240  142.3090 O   0  0  0  0  0  0  0  0  0  0  0  0
  188.4790  174.2580  141.9890 C   0  0  0  0  0  2  0  0  0  0  0  0
  189.7390  174.1330  141.1620 C   0  0  0  0  0  1  0  0  0  0  0  0
  188.5520  175.6620  145.3880 C   0  0  1  0  0  3  0  0  0  0  0  0
  189.0830  175.0600  146.5310 O   0  0  0  0  0  1  0  0  0  0  0  0
  187.7170  176.8910  145.7860 C   0  0  0  0  0  2  0  0  0  0  0  0
  186.3210  177.0070  145.1490 C   0  0  1  0  0  3  0  0  0  0  0  0
  185.2040  176.9020  146.1790 C   0  0  0  0  0  2  0  0  0  0  0  0
  185.3210  178.8600  147.5230 O   0  0  0  0  0  1  0  0  0  0  0  0
  183.6380  178.8330  145.9670 O   0  0  0  0  0  0  0  0  0  0  0  0
  184.7350  178.2530  146.5910 C   0  0  0  0  0  0  0  0  0  0  0  0
  186.1910  178.1980  144.3780 O   0  0  0  0  0  0  0  0  0  0  0  0
  184.5270  177.8470  142.8130 O   0  0  0  0  0  1  0  0  0  0  0  0
  186.5600  178.5550  142.0230 O   0  0  0  0  0  0  0  0  0  0  0  0
  185.7130  178.1900  143.0650 C   0  0  0  0  0  0  0  0  0  0  0  0
  191.0280  177.0510  145.0150 S   0  0  0  0  0  0  0  0  0  0  0  0
  192.4980  175.8790  145.0440 C   0  0  1  0  0  0  0  0  0  0  0  0
  193.7260  176.4820  144.3250 C   0  0  2  0  0  3  0  0  0  0  0  0
  194.9860  175.8130  144.7420 C   0  0  2  0  0  3  0  0  0  0  0  0
  194.6480  177.1000  145.1920 O   0  0  0  0  0  0  0  0  0  0  0  0
  195.9980  175.8880  143.6460 C   0  0  0  0  0  0  0  0  0  0  0  0
  196.7670  177.0320  143.4480 O   0  0  0  0  0  1  0  0  0  0  0  0
  196.1530  174.8960  142.8870 O   0  0  0  0  0  0  0  0  0  0  0  0
  192.9270  175.6010  146.3740 O   0  0  0  0  0  0  0  0  0  0  0  0
  192.1380  176.2710  147.3220 C   0  0  0  0  0  1  0  0  0  0  0  0
  192.2220  174.5620  144.3000 C   0  0  0  0  0  2  0  0  0  0  0  0
  192.2510  173.4550  145.1500 O   0  0  0  0  0  1  0  0  0  0  0  0
  1  2  1  6  0  0  0
  1 19  1  0  0  0  0
  1  7  1  0  0  0  0
  3  2  2  0  0  0  0
  4  2  1  0  0  0  0
  5  4  1  0  0  0  0
  6  5  1  0  0  0  0
  7  9  1  0  0  0  0
  7  8  1  1  0  0  0
 10  9  1  1  0  0  0
 10 11  1  0  0  0  0
 11 14  1  0  0  0  0
 13 14  2  0  0  0  0
 14 12  1  0  0  0  0
 15 10  1  0  0  0  0
 16 18  1  0  0  0  0
 17 18  2  0  0  0  0
 18 15  1  0  0  0  0
 19 20  1  0  0  0  0
 20 29  1  6  0  0  0
 20 27  1  0  0  0  0
 21 22  1  0  0  0  0
 21 20  1  1  0  0  0
 21 23  1  0  0  0  0
 22 24  1  6  0  0  0
 22 23  1  0  0  0  0
 25 24  1  0  0  0  0
 26 24  2  0  0  0  0
 27 28  1  0  0  0  0
 29 30  1  0  0  0  0
M  END
>  <MODEL>
7

>  <REMARK>
 VINA RESULT:      -4.9      1.829      2.750
  Name = 
  16 active torsions:
  status: ('A' for Active; 'I' for Inactive)
    1  A    between atoms: C_1  and  C_4
    2  A    between atoms: C_1  and  C_22
    3  A    between atoms: C_2  and  O_20
    4  A    between atoms: C_2  and  C_22
    5  A    between atoms: C_3  and  C_23
    6  A    between atoms: C_4  and  C_12
    7  A    between atoms: C_7  and  C_23
    8  A    between atoms: O_8  and  C_12
    9  A    between atoms: O_8  and  C_30
   10  A    between atoms: C_9  and  C_12
   11  A    between atoms: C_9  and  C_21
   12  A    between atoms: C_10  and  C_15
   13  A    between atoms: O_11  and  C_23
   14  A    between atoms: C_14  and  O_20
   15  A    between atoms: C_22  and  S_29
   16  A    between atoms: C_23  and  S_29
                            x       y       z     vdW  Elec       q    Type
                         _______ _______ _______ _____ _____    ______ ____

>  <TORSDO>
F 16

$$$$
=
 OpenBabel11052417213D

 30 30  0  0  1  0  0  0  0  0999 V2000
  190.2090  175.7850  146.1020 C   0  0  2  0  0  3  0  0  0  0  0  0
  191.0890  176.1990  147.2460 C   0  0  0  0  0  0  0  0  0  0  0  0
  191.7190  175.3120  147.8850 O   0  0  0  0  0  0  0  0  0  0  0  0
  191.2160  177.5470  147.5920 O   0  0  0  0  0  0  0  0  0  0  0  0
  190.5810  178.0920  148.7390 C   0  0  0  0  0  2  0  0  0  0  0  0
  191.5580  178.1000  149.8940 C   0  0  0  0  0  1  0  0  0  0  0  0
  188.7220  175.5320  146.4030 C   0  0  1  0  0  3  0  0  0  0  0  0
  188.5530  174.8150  147.5900 O   0  0  0  0  0  1  0  0  0  0  0  0
  187.9150  176.8400  146.4620 C   0  0  0  0  0  2  0  0  0  0  0  0
  186.7780  176.9910  145.4360 C   0  0  1  0  0  3  0  0  0  0  0  0
  185.4040  176.7980  146.0640 C   0  0  0  0  0  2  0  0  0  0  0  0
  185.2490  178.5910  147.6170 O   0  0  0  0  0  1  0  0  0  0  0  0
  183.8730  178.7490  145.7910 O   0  0  0  0  0  0  0  0  0  0  0  0
  184.8480  178.0960  146.5330 C   0  0  0  0  0  0  0  0  0  0  0  0
  186.8520  178.2360  144.7490 O   0  0  0  0  0  0  0  0  0  0  0  0
  187.6760  178.2150  142.5900 O   0  0  0  0  0  0  0  0  0  0  0  0
  185.4260  178.5830  142.8360 O   0  0  0  0  0  1  0  0  0  0  0  0
  186.6900  178.3360  143.3640 C   0  0  0  0  0  0  0  0  0  0  0  0
  191.0070  174.5820  144.9600 S   0  0  0  0  0  0  0  0  0  0  0  0
  191.1300  175.5170  143.3340 C   0  0  1  0  0  0  0  0  0  0  0  0
  190.4300  174.7590  142.1830 C   0  0  2  0  0  3  0  0  0  0  0  0
  188.9500  174.8010  142.3230 C   0  0  2  0  0  3  0  0  0  0  0  0
  189.6870  173.6390  142.6060 O   0  0  0  0  0  0  0  0  0  0  0  0
  188.3020  174.6980  140.9810 C   0  0  0  0  0  0  0  0  0  0  0  0
  188.2670  173.4920  140.2850 O   0  0  0  0  0  0  0  0  0  0  0  0
  187.7810  175.7240  140.4720 O   0  0  0  0  0  1  0  0  0  0  0  0
  190.4910  176.7890  143.4050 O   0  0  0  0  0  0  0  0  0  0  0  0
  191.4270  177.8310  143.4990 C   0  0  0  0  0  1  0  0  0  0  0  0
  192.5820  175.6890  142.8570 C   0  0  0  0  0  2  0  0  0  0  0  0
  192.8240  175.0330  141.6490 O   0  0  0  0  0  1  0  0  0  0  0  0
  1 19  1  1  0  0  0
  1  7  1  0  0  0  0
  1  2  1  0  0  0  0
  2  4  1  0  0  0  0
  2  3  2  0  0  0  0
  4  5  1  0  0  0  0
  5  6  1  0  0  0  0
  7  9  1  0  0  0  0
  7  8  1  1  0  0  0
 10 11  1  1  0  0  0
 10  9  1  0  0  0  0
 11 14  1  0  0  0  0
 13 14  2  0  0  0  0
 14 12  1  0  0  0  0
 15 10  1  0  0  0  0
 16 18  2  0  0  0  0
 17 18  1  0  0  0  0
 18 15  1  0  0  0  0
 20 29  1  6  0  0  0
 20 27  1  0  0  0  0
 20 19  1  0  0  0  0
 21 22  1  0  0  0  0
 21 23  1  0  0  0  0
 21 20  1  1  0  0  0
 22 24  1  6  0  0  0
 22 23  1  0  0  0  0
 25 24  2  0  0  0  0
 26 24  1  0  0  0  0
 27 28  1  0  0  0  0
 30 29  1  0  0  0  0
M  END
>  <MODEL>
8

>  <REMARK>
 VINA RESULT:      -4.8      2.117      5.463
  Name = 
  16 active torsions:
  status: ('A' for Active; 'I' for Inactive)
    1  A    between atoms: C_1  and  C_4
    2  A    between atoms: C_1  and  C_22
    3  A    between atoms: C_2  and  O_20
    4  A    between atoms: C_2  and  C_22
    5  A    between atoms: C_3  and  C_23
    6  A    between atoms: C_4  and  C_12
    7  A    between atoms: C_7  and  C_23
    8  A    between atoms: O_8  and  C_12
    9  A    between atoms: O_8  and  C_30
   10  A    between atoms: C_9  and  C_12
   11  A    between atoms: C_9  and  C_21
   12  A    between atoms: C_10  and  C_15
   13  A    between atoms: O_11  and  C_23
   14  A    between atoms: C_14  and  O_20
   15  A    between atoms: C_22  and  S_29
   16  A    between atoms: C_23  and  S_29
                            x       y       z     vdW  Elec       q    Type
                         _______ _______ _______ _____ _____    ______ ____

>  <TORSDO>
F 16

$$$$
=
 OpenBabel11052417213D

 30 30  0  0  1  0  0  0  0  0999 V2000
  188.9400  175.5560  143.1710 C   0  0  2  0  0  3  0  0  0  0  0  0
  188.2920  174.9460  141.9610 C   0  0  0  0  0  0  0  0  0  0  0  0
  188.0420  175.6800  140.9660 O   0  0  0  0  0  0  0  0  0  0  0  0
  187.9780  173.5850  141.9360 O   0  0  0  0  0  0  0  0  0  0  0  0
  188.9820  172.5830  141.8650 C   0  0  0  0  0  2  0  0  0  0  0  0
  189.5170  172.5110  140.4520 C   0  0  0  0  0  1  0  0  0  0  0  0
  188.0230  176.2200  144.2120 C   0  0  1  0  0  3  0  0  0  0  0  0
  188.4810  176.0020  145.5130 O   0  0  0  0  0  1  0  0  0  0  0  0
  187.8610  177.7280  143.9610 C   0  0  0  0  0  2  0  0  0  0  0  0
  186.5430  178.3650  144.4360 C   0  0  1  0  0  3  0  0  0  0  0  0
  185.8640  179.1740  143.3380 C   0  0  0  0  0  2  0  0  0  0  0  0
  183.7150  178.2930  142.8280 O   0  0  0  0  0  1  0  0  0  0  0  0
  185.4290  177.5340  141.5090 O   0  0  0  0  0  0  0  0  0  0  0  0
  184.9400  178.3190  142.5450 C   0  0  0  0  0  0  0  0  0  0  0  0
  185.6540  177.3930  144.9750 O   0  0  0  0  0  0  0  0  0  0  0  0
  185.4220  176.8070  147.1980 O   0  0  0  0  0  1  0  0  0  0  0  0
  184.0650  178.4840  146.4230 O   0  0  0  0  0  0  0  0  0  0  0  0
  185.0650  177.5350  146.2350 C   0  0  0  0  0  0  0  0  0  0  0  0
  190.4990  176.4580  142.7920 S   0  0  0  0  0  0  0  0  0  0  0  0
  191.8470  175.3180  143.4370 C   0  0  1  0  0  0  0  0  0  0  0  0
  193.0140  176.1120  144.0700 C   0  0  2  0  0  3  0  0  0  0  0  0
  192.8310  176.2740  145.5360 C   0  0  2  0  0  3  0  0  0  0  0  0
  192.6240  177.3380  144.6430 O   0  0  0  0  0  0  0  0  0  0  0  0
  194.1580  176.4040  146.2100 C   0  0  0  0  0  0  0  0  0  0  0  0
  194.9450  175.2870  146.4790 O   0  0  0  0  0  0  0  0  0  0  0  0
  194.5670  177.5470  146.5420 O   0  0  0  0  0  1  0  0  0  0  0  0
  191.3660  174.4560  144.4640 O   0  0  0  0  0  0  0  0  0  0  0  0
  191.6620  173.1120  144.1890 C   0  0  0  0  0  1  0  0  0  0  0  0
  192.5050  174.4860  142.3240 C   0  0  0  0  0  2  0  0  0  0  0  0
  193.6110  175.1280  141.7650 O   0  0  0  0  0  1  0  0  0  0  0  0
  1  2  1  6  0  0  0
  1  7  1  0  0  0  0
  3  2  2  0  0  0  0
  4  2  1  0  0  0  0
  5  4  1  0  0  0  0
  6  5  1  0  0  0  0
  7  8  1  1  0  0  0
  9  7  1  0  0  0  0
  9 10  1  0  0  0  0
 10 11  1  6  0  0  0
 10 15  1  0  0  0  0
 13 14  2  0  0  0  0
 14 12  1  0  0  0  0
 14 11  1  0  0  0  0
 15 18  1  0  0  0  0
 18 17  2  0  0  0  0
 18 16  1  0  0  0  0
 19  1  1  0  0  0  0
 19 20  1  0  0  0  0
 20 29  1  6  0  0  0
 20 27  1  0  0  0  0
 21 20  1  6  0  0  0
 21 23  1  0  0  0  0
 21 22  1  0  0  0  0
 22 24  1  1  0  0  0
 23 22  1  0  0  0  0
 24 25  2  0  0  0  0
 24 26  1  0  0  0  0
 28 27  1  0  0  0  0
 30 29  1  0  0  0  0
M  END
>  <MODEL>
9

>  <REMARK>
 VINA RESULT:      -4.8      1.562      3.147
  Name = 
  16 active torsions:
  status: ('A' for Active; 'I' for Inactive)
    1  A    between atoms: C_1  and  C_4
    2  A    between atoms: C_1  and  C_22
    3  A    between atoms: C_2  and  O_20
    4  A    between atoms: C_2  and  C_22
    5  A    between atoms: C_3  and  C_23
    6  A    between atoms: C_4  and  C_12
    7  A    between atoms: C_7  and  C_23
    8  A    between atoms: O_8  and  C_12
    9  A    between atoms: O_8  and  C_30
   10  A    between atoms: C_9  and  C_12
   11  A    between atoms: C_9  and  C_21
   12  A    between atoms: C_10  and  C_15
   13  A    between atoms: O_11  and  C_23
   14  A    between atoms: C_14  and  O_20
   15  A    between atoms: C_22  and  S_29
   16  A    between atoms: C_23  and  S_29
                            x       y       z     vdW  Elec       q    Type
                         _______ _______ _______ _____ _____    ______ ____

>  <TORSDO>
F 16

$$$$
