=
 OpenBabel11052418193D

 27 31  0  0  1  0  0  0  0  0999 V2000
  187.6220  176.8100  142.7380 C   0  0  0  0  0  3  0  0  0  0  0  0
  189.0790  176.6760  144.7470 C   0  0  0  0  0  0  0  0  0  0  0  0
  189.9950  174.9850  143.1960 C   0  0  0  0  0  3  0  0  0  0  0  0
  193.2600  176.5840  146.3370 S   0  0  0  0  0  0  0  0  0  0  0  0
  195.3020  176.2780  144.4940 C   0  0  0  0  0  1  0  0  0  0  0  0
  189.3330  176.8680  146.2060 C   0  0  0  0  0  3  0  0  0  0  0  0
  192.8460  176.1750  143.9590 C   0  0  0  0  0  0  0  0  0  0  0  0
  193.0150  175.9560  142.7270 O   0  0  0  0  0  0  0  0  0  0  0  0
  191.5700  176.3030  144.5490 C   0  0  0  0  0  0  0  0  0  0  0  0
  187.8590  176.9320  144.2040 C   0  0  0  0  0  0  0  0  0  0  0  0
  193.8880  176.2960  144.8230 N   0  0  0  0  0  0  0  0  0  0  0  0
  191.6500  176.5290  145.9080 C   0  0  0  0  0  0  0  0  0  0  0  0
  188.1300  175.9040  141.8870 C   0  0  0  0  0  0  0  0  0  0  0  0
  190.2470  176.3100  143.8380 C   0  0  2  0  0  3  0  0  0  0  0  0
  190.5180  176.7960  146.7290 N   0  0  0  0  0  0  0  0  0  0  0  0
  189.0020  174.7880  142.3260 C   0  0  0  0  0  0  0  0  0  0  0  0
  184.4650  178.4290  146.4070 C   0  0  0  0  0  3  0  0  0  0  0  0
  186.6930  177.4380  144.9940 C   0  0  0  0  0  0  0  0  0  0  0  0
  185.9640  176.6070  145.8660 C   0  0  0  0  0  3  0  0  0  0  0  0
  184.8640  177.1010  146.5730 C   0  0  0  0  0  3  0  0  0  0  0  0
  185.1640  179.2620  145.5320 C   0  0  0  0  0  3  0  0  0  0  0  0
  186.2680  178.7690  144.8320 C   0  0  0  0  0  3  0  0  0  0  0  0
  187.5630  172.8110  141.9460 C   0  0  0  0  0  2  0  0  0  0  0  0
  188.8040  172.3330  142.6630 C   0  0  0  0  0  2  0  0  0  0  0  0
  188.9040  173.4560  141.6390 C   0  0  0  0  0  3  0  0  0  0  0  0
  187.8010  175.9830  140.5310 O   0  0  0  0  0  0  0  0  0  0  0  0
  186.9860  176.9400  140.0650 O   0  0  0  0  0  1  0  0  0  0  0  0
  1 10  1  0  0  0  0
  2  6  1  0  0  0  0
  5 11  1  0  0  0  0
  6 15  2  0  0  0  0
  7  9  1  0  0  0  0
  7 11  1  0  0  0  0
  8  7  2  0  0  0  0
  9 12  2  0  0  0  0
 10  2  2  0  0  0  0
 10 18  1  0  0  0  0
 11  4  1  0  0  0  0
 12  4  1  0  0  0  0
 12 15  1  0  0  0  0
 13 16  1  0  0  0  0
 13  1  2  0  0  0  0
 14  3  1  1  0  0  0
 14  9  1  0  0  0  0
 14  2  1  0  0  0  0
 16  3  2  0  0  0  0
 17 20  1  0  0  0  0
 18 19  1  0  0  0  0
 19 20  2  0  0  0  0
 21 17  2  0  0  0  0
 22 18  2  0  0  0  0
 22 21  1  0  0  0  0
 23 24  1  0  0  0  0
 25 23  1  0  0  0  0
 25 16  1  0  0  0  0
 25 24  1  0  0  0  0
 26 13  1  0  0  0  0
 27 26  1  0  0  0  0
M  END
>  <MODEL>
1

>  <REMARK>
 VINA RESULT:      -8.2      0.000      0.000
  Name = 
  3 active torsions:
  status: ('A' for Active; 'I' for Inactive)
    1  A    between atoms: C_9  and  C_15
    2  A    between atoms: C_18  and  O_22
    3  A    between atoms: C_20  and  C_26
                            x       y       z     vdW  Elec       q    Type
                         _______ _______ _______ _____ _____    ______ ____

>  <TORSDO>
F 3

$$$$
=
 OpenBabel11052418193D

 27 31  0  0  1  0  0  0  0  0999 V2000
  188.7960  176.1790  146.3310 C   0  0  0  0  0  3  0  0  0  0  0  0
  188.2170  175.7930  143.9450 C   0  0  0  0  0  0  0  0  0  0  0  0
  190.6740  175.5490  144.0400 C   0  0  0  0  0  3  0  0  0  0  0  0
  188.7150  173.1760  140.3510 S   0  0  0  0  0  0  0  0  0  0  0  0
  190.6480  171.2000  140.4880 C   0  0  0  0  0  1  0  0  0  0  0  0
  187.3220  175.9620  142.7620 C   0  0  0  0  0  3  0  0  0  0  0  0
  190.2480  172.9550  142.2460 C   0  0  0  0  0  0  0  0  0  0  0  0
  191.1690  172.5520  143.0090 O   0  0  0  0  0  0  0  0  0  0  0  0
  189.4080  174.0440  142.5630 C   0  0  1  0  0  3  0  0  0  0  0  0
  187.9430  176.4020  145.1300 C   0  0  0  0  0  0  0  0  0  0  0  0
  189.9960  172.3730  141.0440 N   0  0  0  0  0  0  0  0  0  0  0  0
  188.4870  174.2930  141.5660 C   0  0  0  0  0  0  0  0  0  0  0  0
  190.1300  176.0280  146.3870 C   0  0  0  0  0  0  0  0  0  0  0  0
  189.3850  174.8170  143.8510 C   0  0  0  0  0  0  0  0  0  0  0  0
  187.4560  175.2690  141.6740 N   0  0  0  0  0  0  0  0  0  0  0  0
  191.0020  176.1340  145.1940 C   0  0  0  0  0  0  0  0  0  0  0  0
  184.4720  178.8520  145.8780 C   0  0  0  0  0  3  0  0  0  0  0  0
  186.7380  177.2590  145.3590 C   0  0  0  0  0  0  0  0  0  0  0  0
  186.6340  178.5590  144.8300 C   0  0  0  0  0  3  0  0  0  0  0  0
  185.5060  179.3470  145.0810 C   0  0  0  0  0  3  0  0  0  0  0  0
  184.5670  177.5720  146.4260 C   0  0  0  0  0  3  0  0  0  0  0  0
  185.6920  176.7840  146.1680 C   0  0  0  0  0  3  0  0  0  0  0  0
  193.2500  176.2940  144.1710 C   0  0  0  0  0  2  0  0  0  0  0  0
  193.4180  175.6510  145.5280 C   0  0  0  0  0  2  0  0  0  0  0  0
  192.3720  176.7390  145.3270 C   0  0  0  0  0  3  0  0  0  0  0  0
  190.7370  175.7970  147.6240 O   0  0  0  0  0  0  0  0  0  0  0  0
  191.1810  176.8080  148.3850 O   0  0  0  0  0  1  0  0  0  0  0  0
  1 13  1  0  0  0  0
  2 10  1  0  0  0  0
  3 16  1  0  0  0  0
  4 11  1  0  0  0  0
  4 12  1  0  0  0  0
  5 11  1  0  0  0  0
  6  2  2  0  0  0  0
  7  9  1  0  0  0  0
  7  8  2  0  0  0  0
  9 12  1  1  0  0  0
  9 14  1  0  0  0  0
 10 18  1  0  0  0  0
 10  1  2  0  0  0  0
 11  7  1  0  0  0  0
 12 15  2  0  0  0  0
 13 26  1  0  0  0  0
 14  2  1  0  0  0  0
 14  3  2  0  0  0  0
 15  6  1  0  0  0  0
 16 25  1  0  0  0  0
 16 13  2  0  0  0  0
 17 21  1  0  0  0  0
 18 22  1  0  0  0  0
 19 20  1  0  0  0  0
 19 18  2  0  0  0  0
 20 17  2  0  0  0  0
 22 21  2  0  0  0  0
 23 25  1  0  0  0  0
 23 24  1  0  0  0  0
 25 24  1  0  0  0  0
 26 27  1  0  0  0  0
M  END
>  <MODEL>
2

>  <REMARK>
 VINA RESULT:      -7.9      3.119      4.980
  Name = 
  3 active torsions:
  status: ('A' for Active; 'I' for Inactive)
    1  A    between atoms: C_9  and  C_15
    2  A    between atoms: C_18  and  O_22
    3  A    between atoms: C_20  and  C_26
                            x       y       z     vdW  Elec       q    Type
                         _______ _______ _______ _____ _____    ______ ____

>  <TORSDO>
F 3

$$$$
=
 OpenBabel11052418193D

 27 31  0  0  1  0  0  0  0  0999 V2000
  188.0450  176.1950  145.7850 C   0  0  0  0  0  3  0  0  0  0  0  0
  187.9210  176.1470  143.3030 C   0  0  0  0  0  0  0  0  0  0  0  0
  190.2460  175.4960  143.8250 C   0  0  0  0  0  3  0  0  0  0  0  0
  188.7730  173.8530  139.5580 S   0  0  0  0  0  0  0  0  0  0  0  0
  190.3390  171.5840  139.7990 C   0  0  0  0  0  1  0  0  0  0  0  0
  187.3200  176.5770  142.0050 C   0  0  0  0  0  3  0  0  0  0  0  0
  189.8370  173.1980  141.6630 C   0  0  0  0  0  0  0  0  0  0  0  0
  190.5160  172.5760  142.5270 O   0  0  0  0  0  0  0  0  0  0  0  0
  189.1120  174.3720  141.9550 C   0  0  1  0  0  3  0  0  0  0  0  0
  187.4970  176.6730  144.4840 C   0  0  0  0  0  0  0  0  0  0  0  0
  189.7590  172.7860  140.3700 N   0  0  0  0  0  0  0  0  0  0  0  0
  188.4600  174.8660  140.8440 C   0  0  0  0  0  0  0  0  0  0  0  0
  189.3040  175.8240  146.0700 C   0  0  0  0  0  0  0  0  0  0  0  0
  188.9340  175.0080  143.3040 C   0  0  0  0  0  0  0  0  0  0  0  0
  187.5770  175.9820  140.8810 N   0  0  0  0  0  0  0  0  0  0  0  0
  190.4090  175.9030  145.0860 C   0  0  0  0  0  0  0  0  0  0  0  0
  184.3450  179.6100  144.7040 C   0  0  0  0  0  3  0  0  0  0  0  0
  186.4040  177.6880  144.5910 C   0  0  0  0  0  0  0  0  0  0  0  0
  185.2510  177.4650  145.3680 C   0  0  0  0  0  3  0  0  0  0  0  0
  184.2330  178.4220  145.4290 C   0  0  0  0  0  3  0  0  0  0  0  0
  185.4730  179.8390  143.9130 C   0  0  0  0  0  3  0  0  0  0  0  0
  186.4920  178.8840  143.8580 C   0  0  0  0  0  3  0  0  0  0  0  0
  192.8210  175.7700  144.5470 C   0  0  0  0  0  2  0  0  0  0  0  0
  192.6040  175.0000  145.8290 C   0  0  0  0  0  2  0  0  0  0  0  0
  191.7930  176.2590  145.5520 C   0  0  0  0  0  3  0  0  0  0  0  0
  189.6050  175.3750  147.3590 O   0  0  0  0  0  0  0  0  0  0  0  0
  188.9590  174.3360  147.9070 O   0  0  0  0  0  1  0  0  0  0  0  0
  1 13  1  0  0  0  0
  2 14  1  0  0  0  0
  2 10  1  0  0  0  0
  3 16  1  0  0  0  0
  4 11  1  0  0  0  0
  4 12  1  0  0  0  0
  5 11  1  0  0  0  0
  6  2  2  0  0  0  0
  7  9  1  0  0  0  0
  7  8  2  0  0  0  0
  9 12  1  1  0  0  0
  9 14  1  0  0  0  0
 10 18  1  0  0  0  0
 10  1  2  0  0  0  0
 11  7  1  0  0  0  0
 12 15  2  0  0  0  0
 13 26  1  0  0  0  0
 14  3  2  0  0  0  0
 15  6  1  0  0  0  0
 16 25  1  0  0  0  0
 16 13  2  0  0  0  0
 17 20  1  0  0  0  0
 18 19  1  0  0  0  0
 19 20  2  0  0  0  0
 21 17  2  0  0  0  0
 22 21  1  0  0  0  0
 22 18  2  0  0  0  0
 23 25  1  0  0  0  0
 23 24  1  0  0  0  0
 25 24  1  0  0  0  0
 26 27  1  0  0  0  0
M  END
>  <MODEL>
3

>  <REMARK>
 VINA RESULT:      -7.5      3.313      4.880
  Name = 
  3 active torsions:
  status: ('A' for Active; 'I' for Inactive)
    1  A    between atoms: C_9  and  C_15
    2  A    between atoms: C_18  and  O_22
    3  A    between atoms: C_20  and  C_26
                            x       y       z     vdW  Elec       q    Type
                         _______ _______ _______ _____ _____    ______ ____

>  <TORSDO>
F 3

$$$$
=
 OpenBabel11052418193D

 27 31  0  0  1  0  0  0  0  0999 V2000
  190.0820  177.4880  146.3420 C   0  0  0  0  0  3  0  0  0  0  0  0
  189.5110  176.4730  144.1460 C   0  0  0  0  0  0  0  0  0  0  0  0
  187.3290  176.9440  145.2040 C   0  0  0  0  0  3  0  0  0  0  0  0
  187.0660  176.7690  140.4100 S   0  0  0  0  0  0  0  0  0  0  0  0
  185.0530  178.6670  140.3700 C   0  0  0  0  0  1  0  0  0  0  0  0
  189.8330  175.6150  142.9670 C   0  0  0  0  0  3  0  0  0  0  0  0
  186.4730  178.1110  142.3700 C   0  0  0  0  0  0  0  0  0  0  0  0
  185.9080  178.9400  143.1350 O   0  0  0  0  0  0  0  0  0  0  0  0
  187.5500  177.2970  142.7810 C   0  0  1  0  0  3  0  0  0  0  0  0
  190.3680  176.5780  145.1970 C   0  0  0  0  0  0  0  0  0  0  0  0
  186.0800  177.9280  141.0820 N   0  0  0  0  0  0  0  0  0  0  0  0
  187.9880  176.4690  141.7670 C   0  0  0  0  0  0  0  0  0  0  0  0
  188.8960  177.7610  146.9100 C   0  0  0  0  0  0  0  0  0  0  0  0
  188.2580  177.3420  144.1040 C   0  0  0  0  0  0  0  0  0  0  0  0
  189.1250  175.6200  141.8800 N   0  0  0  0  0  0  0  0  0  0  0  0
  187.6340  177.1050  146.4940 C   0  0  0  0  0  0  0  0  0  0  0  0
  194.2130  174.6330  145.4150 C   0  0  0  0  0  3  0  0  0  0  0  0
  191.6890  175.8790  145.2580 C   0  0  0  0  0  0  0  0  0  0  0  0
  191.8090  174.5420  145.6840 C   0  0  0  0  0  3  0  0  0  0  0  0
  193.0600  173.9220  145.7550 C   0  0  0  0  0  3  0  0  0  0  0  0
  194.1150  175.9650  145.0080 C   0  0  0  0  0  3  0  0  0  0  0  0
  192.8630  176.5810  144.9320 C   0  0  0  0  0  3  0  0  0  0  0  0
  185.2110  176.7880  146.8810 C   0  0  0  0  0  2  0  0  0  0  0  0
  185.6470  177.9740  147.7090 C   0  0  0  0  0  2  0  0  0  0  0  0
  186.5870  176.7910  147.5240 C   0  0  0  0  0  3  0  0  0  0  0  0
  188.8420  178.6750  147.9660 O   0  0  0  0  0  0  0  0  0  0  0  0
  189.9010  178.8920  148.7580 O   0  0  0  0  0  1  0  0  0  0  0  0
  1 13  1  0  0  0  0
  2 10  1  0  0  0  0
  3 16  1  0  0  0  0
  4 11  1  0  0  0  0
  4 12  1  0  0  0  0
  5 11  1  0  0  0  0
  6  2  2  0  0  0  0
  7  9  1  0  0  0  0
  7  8  2  0  0  0  0
  9 12  1  6  0  0  0
  9 14  1  0  0  0  0
 10 18  1  0  0  0  0
 10  1  2  0  0  0  0
 11  7  1  0  0  0  0
 12 15  2  0  0  0  0
 13 26  1  0  0  0  0
 14  2  1  0  0  0  0
 14  3  2  0  0  0  0
 15  6  1  0  0  0  0
 16 13  2  0  0  0  0
 16 25  1  0  0  0  0
 17 20  1  0  0  0  0
 18 19  1  0  0  0  0
 19 20  2  0  0  0  0
 21 17  2  0  0  0  0
 22 21  1  0  0  0  0
 22 18  2  0  0  0  0
 23 25  1  0  0  0  0
 23 24  1  0  0  0  0
 25 24  1  0  0  0  0
 26 27  1  0  0  0  0
M  END
>  <MODEL>
4

>  <REMARK>
 VINA RESULT:      -7.2      3.498      6.902
  Name = 
  3 active torsions:
  status: ('A' for Active; 'I' for Inactive)
    1  A    between atoms: C_9  and  C_15
    2  A    between atoms: C_18  and  O_22
    3  A    between atoms: C_20  and  C_26
                            x       y       z     vdW  Elec       q    Type
                         _______ _______ _______ _____ _____    ______ ____

>  <TORSDO>
F 3

$$$$
=
 OpenBabel11052418193D

 27 31  0  0  1  0  0  0  0  0999 V2000
  187.8060  175.8230  141.7310 C   0  0  0  0  0  3  0  0  0  0  0  0
  189.2580  176.4770  143.6400 C   0  0  0  0  0  0  0  0  0  0  0  0
  190.1070  174.2660  142.9370 C   0  0  0  0  0  3  0  0  0  0  0  0
  193.4340  176.8990  145.1900 S   0  0  0  0  0  0  0  0  0  0  0  0
  195.4610  175.7890  143.6690 C   0  0  0  0  0  1  0  0  0  0  0  0
  189.5200  177.2440  144.8940 C   0  0  0  0  0  3  0  0  0  0  0  0
  193.0020  175.5620  143.1860 C   0  0  0  0  0  0  0  0  0  0  0  0
  193.1620  174.8490  142.1560 O   0  0  0  0  0  0  0  0  0  0  0  0
  191.7330  175.9670  143.6510 C   0  0  0  0  0  0  0  0  0  0  0  0
  188.0480  176.5300  143.0200 C   0  0  0  0  0  0  0  0  0  0  0  0
  194.0490  175.9910  143.9390 N   0  0  0  0  0  0  0  0  0  0  0  0
  191.8230  176.7310  144.7970 C   0  0  0  0  0  0  0  0  0  0  0  0
  188.2780  174.6290  141.3380 C   0  0  0  0  0  0  0  0  0  0  0  0
  190.4110  175.7280  142.9800 C   0  0  2  0  0  3  0  0  0  0  0  0
  190.7020  177.3520  145.4180 N   0  0  0  0  0  0  0  0  0  0  0  0
  189.1070  173.7630  142.2100 C   0  0  0  0  0  0  0  0  0  0  0  0
  184.7710  178.8950  144.5290 C   0  0  0  0  0  3  0  0  0  0  0  0
  186.9040  177.3580  143.5140 C   0  0  0  0  0  0  0  0  0  0  0  0
  186.6660  178.6620  143.0400 C   0  0  0  0  0  3  0  0  0  0  0  0
  185.6030  179.4220  143.5390 C   0  0  0  0  0  3  0  0  0  0  0  0
  185.0040  177.6110  145.0240 C   0  0  0  0  0  3  0  0  0  0  0  0
  186.0630  176.8510  144.5200 C   0  0  0  0  0  3  0  0  0  0  0  0
  190.0770  171.5940  142.9020 C   0  0  0  0  0  2  0  0  0  0  0  0
  190.1360  171.6520  141.3930 C   0  0  0  0  0  2  0  0  0  0  0  0
  188.9560  172.2700  142.1320 C   0  0  0  0  0  3  0  0  0  0  0  0
  187.9510  174.1540  140.0640 O   0  0  0  0  0  0  0  0  0  0  0  0
  188.8250  174.2170  139.0490 O   0  0  0  0  0  1  0  0  0  0  0  0
  1 10  1  0  0  0  0
  2  6  1  0  0  0  0
  5 11  1  0  0  0  0
  6 15  2  0  0  0  0
  7  9  1  0  0  0  0
  7 11  1  0  0  0  0
  8  7  2  0  0  0  0
  9 12  2  0  0  0  0
 10 18  1  0  0  0  0
 10  2  2  0  0  0  0
 11  4  1  0  0  0  0
 12  4  1  0  0  0  0
 12 15  1  0  0  0  0
 13  1  2  0  0  0  0
 13 16  1  0  0  0  0
 14  3  1  1  0  0  0
 14  2  1  0  0  0  0
 14  9  1  0  0  0  0
 16  3  2  0  0  0  0
 17 21  1  0  0  0  0
 18 22  1  0  0  0  0
 19 18  2  0  0  0  0
 19 20  1  0  0  0  0
 20 17  2  0  0  0  0
 22 21  2  0  0  0  0
 24 25  1  0  0  0  0
 24 23  1  0  0  0  0
 25 16  1  0  0  0  0
 25 23  1  0  0  0  0
 26 13  1  0  0  0  0
 27 26  1  0  0  0  0
M  END
>  <MODEL>
5

>  <REMARK>
 VINA RESULT:      -7.0      1.278      1.847
  Name = 
  3 active torsions:
  status: ('A' for Active; 'I' for Inactive)
    1  A    between atoms: C_9  and  C_15
    2  A    between atoms: C_18  and  O_22
    3  A    between atoms: C_20  and  C_26
                            x       y       z     vdW  Elec       q    Type
                         _______ _______ _______ _____ _____    ______ ____

>  <TORSDO>
F 3

$$$$
=
 OpenBabel11052418193D

 27 31  0  0  1  0  0  0  0  0999 V2000
  187.3220  176.3970  144.5690 C   0  0  0  0  0  3  0  0  0  0  0  0
  188.2690  175.2960  142.5510 C   0  0  1  0  0  3  0  0  0  0  0  0
  190.1370  175.3540  144.1660 C   0  0  0  0  0  3  0  0  0  0  0  0
  190.6000  171.8430  140.9200 S   0  0  0  0  0  0  0  0  0  0  0  0
  191.8740  170.2060  142.7520 C   0  0  0  0  0  1  0  0  0  0  0  0
  188.2870  175.0280  141.0830 C   0  0  0  0  0  3  0  0  0  0  0  0
  190.6520  172.3310  143.3190 C   0  0  0  0  0  0  0  0  0  0  0  0
  190.8870  172.2610  144.5570 O   0  0  0  0  0  0  0  0  0  0  0  0
  189.8910  173.3680  142.7380 C   0  0  0  0  0  0  0  0  0  0  0  0
  187.3910  176.1810  143.0960 C   0  0  0  0  0  0  0  0  0  0  0  0
  191.1260  171.4100  142.4380 N   0  0  0  0  0  0  0  0  0  0  0  0
  189.7840  173.2260  141.3690 C   0  0  0  0  0  0  0  0  0  0  0  0
  188.3330  176.4130  145.4540 C   0  0  0  0  0  0  0  0  0  0  0  0
  189.1650  174.4650  143.4620 C   0  0  0  0  0  0  0  0  0  0  0  0
  188.9890  174.0760  140.5500 N   0  0  0  0  0  0  0  0  0  0  0  0
  189.7540  176.2730  145.0560 C   0  0  0  0  0  0  0  0  0  0  0  0
  184.4460  178.4050  140.8610 C   0  0  0  0  0  3  0  0  0  0  0  0
  186.3730  176.9320  142.2970 C   0  0  0  0  0  0  0  0  0  0  0  0
  186.6010  177.3060  140.9590 C   0  0  0  0  0  3  0  0  0  0  0  0
  185.6410  178.0300  140.2440 C   0  0  0  0  0  3  0  0  0  0  0  0
  184.2120  178.0600  142.1930 C   0  0  0  0  0  3  0  0  0  0  0  0
  185.1690  177.3310  142.9040 C   0  0  0  0  0  3  0  0  0  0  0  0
  192.1720  176.4010  145.5670 C   0  0  0  0  0  2  0  0  0  0  0  0
  191.4500  176.1550  146.8700 C   0  0  0  0  0  2  0  0  0  0  0  0
  190.8120  177.0340  145.8030 C   0  0  0  0  0  3  0  0  0  0  0  0
  188.0480  176.6060  146.8080 O   0  0  0  0  0  0  0  0  0  0  0  0
  187.5330  177.7600  147.2570 O   0  0  0  0  0  1  0  0  0  0  0  0
  1 13  1  0  0  0  0
  2  6  1  1  0  0  0
  2 10  1  0  0  0  0
  2 14  1  0  0  0  0
  3 16  1  0  0  0  0
  4 12  1  0  0  0  0
  4 11  1  0  0  0  0
  7  8  2  0  0  0  0
  9  7  1  0  0  0  0
  9 14  1  0  0  0  0
 10  1  2  0  0  0  0
 11  5  1  0  0  0  0
 11  7  1  0  0  0  0
 12  9  2  0  0  0  0
 13 26  1  0  0  0  0
 14  3  2  0  0  0  0
 15  6  2  0  0  0  0
 15 12  1  0  0  0  0
 16 13  2  0  0  0  0
 16 25  1  0  0  0  0
 17 21  1  0  0  0  0
 18 22  1  0  0  0  0
 18 10  1  0  0  0  0
 19 18  2  0  0  0  0
 20 17  2  0  0  0  0
 20 19  1  0  0  0  0
 21 22  2  0  0  0  0
 23 25  1  0  0  0  0
 23 24  1  0  0  0  0
 25 24  1  0  0  0  0
 26 27  1  0  0  0  0
M  END
>  <MODEL>
6

>  <REMARK>
 VINA RESULT:      -6.6      3.527      5.084
  Name = 
  3 active torsions:
  status: ('A' for Active; 'I' for Inactive)
    1  A    between atoms: C_9  and  C_15
    2  A    between atoms: C_18  and  O_22
    3  A    between atoms: C_20  and  C_26
                            x       y       z     vdW  Elec       q    Type
                         _______ _______ _______ _____ _____    ______ ____

>  <TORSDO>
F 3

$$$$
=
 OpenBabel11052418193D

 27 31  0  0  1  0  0  0  0  0999 V2000
  194.5210  174.3150  145.7350 C   0  0  0  0  0  3  0  0  0  0  0  0
  193.0930  172.7860  144.3940 C   0  0  0  0  0  0  0  0  0  0  0  0
  191.5110  174.3910  145.4060 C   0  0  0  0  0  3  0  0  0  0  0  0
  189.8200  172.4190  141.3650 S   0  0  0  0  0  0  0  0  0  0  0  0
  188.4340  174.7270  140.7220 C   0  0  0  0  0  1  0  0  0  0  0  0
  192.8260  171.4750  143.7300 C   0  0  0  0  0  3  0  0  0  0  0  0
  190.1890  174.5480  142.5160 C   0  0  0  0  0  0  0  0  0  0  0  0
  190.1020  175.7570  142.8690 O   0  0  0  0  0  0  0  0  0  0  0  0
  191.0950  173.6390  143.1020 C   0  0  1  0  0  3  0  0  0  0  0  0
  194.2180  172.9870  145.1310 C   0  0  0  0  0  0  0  0  0  0  0  0
  189.4020  174.0200  141.5420 N   0  0  0  0  0  0  0  0  0  0  0  0
  190.9910  172.3780  142.5500 C   0  0  0  0  0  0  0  0  0  0  0  0
  193.6640  175.1980  146.2720 C   0  0  0  0  0  0  0  0  0  0  0  0
  192.1470  173.9520  144.1270 C   0  0  0  0  0  0  0  0  0  0  0  0
  191.8560  171.2980  142.8860 N   0  0  0  0  0  0  0  0  0  0  0  0
  192.2120  174.9320  146.4050 C   0  0  0  0  0  0  0  0  0  0  0  0
  197.3270  170.0520  145.7070 C   0  0  0  0  0  3  0  0  0  0  0  0
  195.2750  171.9460  145.3240 C   0  0  0  0  0  0  0  0  0  0  0  0
  195.0490  170.7810  146.0800 C   0  0  0  0  0  3  0  0  0  0  0  0
  196.0650  169.8380  146.2640 C   0  0  0  0  0  3  0  0  0  0  0  0
  197.5750  171.2110  144.9700 C   0  0  0  0  0  3  0  0  0  0  0  0
  196.5570  172.1500  144.7820 C   0  0  0  0  0  3  0  0  0  0  0  0
  189.9710  175.3420  147.3730 C   0  0  0  0  0  2  0  0  0  0  0  0
  190.6490  176.6840  147.2250 C   0  0  0  0  0  2  0  0  0  0  0  0
  191.4680  175.4570  147.6010 C   0  0  0  0  0  3  0  0  0  0  0  0
  194.1550  176.4110  146.7630 O   0  0  0  0  0  0  0  0  0  0  0  0
  194.5090  177.4070  145.9380 O   0  0  0  0  0  1  0  0  0  0  0  0
  1 13  1  0  0  0  0
  2 10  1  0  0  0  0
  3 16  1  0  0  0  0
  4 11  1  0  0  0  0
  4 12  1  0  0  0  0
  5 11  1  0  0  0  0
  6  2  2  0  0  0  0
  7  8  2  0  0  0  0
  9  7  1  6  0  0  0
  9 14  1  0  0  0  0
 10 18  1  0  0  0  0
 10  1  2  0  0  0  0
 11  7  1  0  0  0  0
 12 15  2  0  0  0  0
 12  9  1  0  0  0  0
 13 16  2  0  0  0  0
 13 26  1  0  0  0  0
 14  2  1  0  0  0  0
 14  3  2  0  0  0  0
 15  6  1  0  0  0  0
 16 25  1  0  0  0  0
 17 20  1  0  0  0  0
 18 19  1  0  0  0  0
 19 20  2  0  0  0  0
 21 17  2  0  0  0  0
 22 21  1  0  0  0  0
 22 18  2  0  0  0  0
 23 25  1  0  0  0  0
 24 23  1  0  0  0  0
 24 25  1  0  0  0  0
 27 26  1  0  0  0  0
M  END
>  <MODEL>
7

>  <REMARK>
 VINA RESULT:      -6.5      4.057      8.294
  Name = 
  3 active torsions:
  status: ('A' for Active; 'I' for Inactive)
    1  A    between atoms: C_9  and  C_15
    2  A    between atoms: C_18  and  O_22
    3  A    between atoms: C_20  and  C_26
                            x       y       z     vdW  Elec       q    Type
                         _______ _______ _______ _____ _____    ______ ____

>  <TORSDO>
F 3

$$$$
=
 OpenBabel11052418193D

 27 31  0  0  1  0  0  0  0  0999 V2000
  189.2930  176.6120  145.3460 C   0  0  0  0  0  3  0  0  0  0  0  0
  189.2370  175.1260  143.3540 C   0  0  0  0  0  0  0  0  0  0  0  0
  191.6080  175.1520  144.0490 C   0  0  0  0  0  3  0  0  0  0  0  0
  190.4400  171.1980  141.5820 S   0  0  0  0  0  0  0  0  0  0  0  0
  192.2490  169.6710  143.0150 C   0  0  0  0  0  1  0  0  0  0  0  0
  188.6240  174.6590  142.0750 C   0  0  0  0  0  3  0  0  0  0  0  0
  191.5190  171.9990  143.6280 C   0  0  0  0  0  0  0  0  0  0  0  0
  192.2430  172.0690  144.6600 O   0  0  0  0  0  0  0  0  0  0  0  0
  190.6570  173.0400  143.2230 C   0  0  1  0  0  3  0  0  0  0  0  0
  188.7270  176.1880  144.0340 C   0  0  0  0  0  0  0  0  0  0  0  0
  191.5210  170.9110  142.8150 N   0  0  0  0  0  0  0  0  0  0  0  0
  189.9810  172.7270  142.0610 C   0  0  0  0  0  0  0  0  0  0  0  0
  190.5790  176.6130  145.7340 C   0  0  0  0  0  0  0  0  0  0  0  0
  190.3740  174.3140  143.9650 C   0  0  0  0  0  0  0  0  0  0  0  0
  188.9750  173.5560  141.4890 N   0  0  0  0  0  0  0  0  0  0  0  0
  191.6920  176.2280  144.8350 C   0  0  0  0  0  0  0  0  0  0  0  0
  185.2920  178.4090  142.6640 C   0  0  0  0  0  3  0  0  0  0  0  0
  187.5220  176.9530  143.5870 C   0  0  0  0  0  0  0  0  0  0  0  0
  186.2150  176.4630  143.7690 C   0  0  0  0  0  3  0  0  0  0  0  0
  185.1080  177.1890  143.3180 C   0  0  0  0  0  3  0  0  0  0  0  0
  186.5820  178.9010  142.4570 C   0  0  0  0  0  3  0  0  0  0  0  0
  187.6860  178.1770  142.9140 C   0  0  0  0  0  3  0  0  0  0  0  0
  194.1150  176.0700  144.3570 C   0  0  0  0  0  2  0  0  0  0  0  0
  193.9570  176.1610  145.8570 C   0  0  0  0  0  2  0  0  0  0  0  0
  193.0130  176.9340  144.9460 C   0  0  0  0  0  3  0  0  0  0  0  0
  190.8970  177.0270  147.0310 O   0  0  0  0  0  0  0  0  0  0  0  0
  190.0760  177.8200  147.7330 O   0  0  0  0  0  1  0  0  0  0  0  0
  1 13  1  0  0  0  0
  2 14  1  0  0  0  0
  2 10  1  0  0  0  0
  3 16  1  0  0  0  0
  4 12  1  0  0  0  0
  4 11  1  0  0  0  0
  6  2  2  0  0  0  0
  7  8  2  0  0  0  0
  9 12  1  1  0  0  0
  9  7  1  0  0  0  0
  9 14  1  0  0  0  0
 10  1  2  0  0  0  0
 11  5  1  0  0  0  0
 11  7  1  0  0  0  0
 13 26  1  0  0  0  0
 14  3  2  0  0  0  0
 15 12  2  0  0  0  0
 15  6  1  0  0  0  0
 16 25  1  0  0  0  0
 16 13  2  0  0  0  0
 17 20  1  0  0  0  0
 18 19  1  0  0  0  0
 18 10  1  0  0  0  0
 20 19  2  0  0  0  0
 21 17  2  0  0  0  0
 21 22  1  0  0  0  0
 22 18  2  0  0  0  0
 23 25  1  0  0  0  0
 23 24  1  0  0  0  0
 25 24  1  0  0  0  0
 26 27  1  0  0  0  0
M  END
>  <MODEL>
8

>  <REMARK>
 VINA RESULT:      -6.5      3.535      5.029
  Name = 
  3 active torsions:
  status: ('A' for Active; 'I' for Inactive)
    1  A    between atoms: C_9  and  C_15
    2  A    between atoms: C_18  and  O_22
    3  A    between atoms: C_20  and  C_26
                            x       y       z     vdW  Elec       q    Type
                         _______ _______ _______ _____ _____    ______ ____

>  <TORSDO>
F 3

$$$$
=
 OpenBabel11052418193D

 27 31  0  0  1  0  0  0  0  0999 V2000
  190.0140  174.9900  143.3500 C   0  0  0  0  0  3  0  0  0  0  0  0
  189.6680  176.5410  145.2620 C   0  0  0  0  0  0  0  0  0  0  0  0
  188.0450  177.2830  143.5530 C   0  0  0  0  0  3  0  0  0  0  0  0
  186.7270  178.4890  148.0130 S   0  0  0  0  0  0  0  0  0  0  0  0
  184.0460  178.2320  147.3770 C   0  0  0  0  0  1  0  0  0  0  0  0
  190.1400  177.2380  146.4950 C   0  0  0  0  0  3  0  0  0  0  0  0
  185.9530  177.4300  145.9460 C   0  0  0  0  0  0  0  0  0  0  0  0
  185.2130  176.9790  145.0270 O   0  0  0  0  0  0  0  0  0  0  0  0
  187.3600  177.3370  145.9150 C   0  0  0  0  0  0  0  0  0  0  0  0
  190.5010  175.7440  144.5400 C   0  0  0  0  0  0  0  0  0  0  0  0
  185.4470  178.0530  147.0430 N   0  0  0  0  0  0  0  0  0  0  0  0
  187.9410  177.9100  147.0280 C   0  0  0  0  0  0  0  0  0  0  0  0
  189.1200  175.3830  142.4270 C   0  0  0  0  0  0  0  0  0  0  0  0
  188.1930  176.6260  144.8870 C   0  0  2  0  0  3  0  0  0  0  0  0
  189.3380  177.8660  147.2980 N   0  0  0  0  0  0  0  0  0  0  0  0
  188.5010  176.7290  142.4270 C   0  0  0  0  0  0  0  0  0  0  0  0
  194.6000  174.9060  145.5920 C   0  0  0  0  0  3  0  0  0  0  0  0
  191.9250  175.4830  144.9160 C   0  0  0  0  0  0  0  0  0  0  0  0
  192.9610  176.3790  144.5910 C   0  0  0  0  0  3  0  0  0  0  0  0
  194.2870  176.0960  144.9340 C   0  0  0  0  0  3  0  0  0  0  0  0
  193.5880  173.9960  145.9050 C   0  0  0  0  0  3  0  0  0  0  0  0
  192.2630  174.2830  145.5680 C   0  0  0  0  0  3  0  0  0  0  0  0
  186.9710  178.2900  141.2670 C   0  0  0  0  0  2  0  0  0  0  0  0
  186.8470  176.9490  140.5830 C   0  0  0  0  0  2  0  0  0  0  0  0
  188.1960  177.4060  141.1210 C   0  0  0  0  0  3  0  0  0  0  0  0
  188.7770  174.5040  141.3960 O   0  0  0  0  0  0  0  0  0  0  0  0
  187.8350  173.5650  141.5620 O   0  0  0  0  0  1  0  0  0  0  0  0
  1 10  1  0  0  0  0
  2  6  1  0  0  0  0
  6 15  2  0  0  0  0
  7 11  1  0  0  0  0
  8  7  2  0  0  0  0
  9  7  1  0  0  0  0
  9 12  2  0  0  0  0
 10 18  1  0  0  0  0
 10  2  2  0  0  0  0
 11  5  1  0  0  0  0
 11  4  1  0  0  0  0
 12 15  1  0  0  0  0
 12  4  1  0  0  0  0
 13  1  2  0  0  0  0
 14  3  1  6  0  0  0
 14  2  1  0  0  0  0
 14  9  1  0  0  0  0
 16 13  1  0  0  0  0
 16  3  2  0  0  0  0
 17 21  1  0  0  0  0
 18 22  1  0  0  0  0
 19 18  2  0  0  0  0
 19 20  1  0  0  0  0
 20 17  2  0  0  0  0
 22 21  2  0  0  0  0
 24 25  1  0  0  0  0
 24 23  1  0  0  0  0
 25 23  1  0  0  0  0
 25 16  1  0  0  0  0
 26 27  1  0  0  0  0
 26 13  1  0  0  0  0
M  END
>  <MODEL>
9

>  <REMARK>
 VINA RESULT:      -6.3      2.456      6.110
  Name = 
  3 active torsions:
  status: ('A' for Active; 'I' for Inactive)
    1  A    between atoms: C_9  and  C_15
    2  A    between atoms: C_18  and  O_22
    3  A    between atoms: C_20  and  C_26
                            x       y       z     vdW  Elec       q    Type
                         _______ _______ _______ _____ _____    ______ ____

>  <TORSDO>
F 3

$$$$
