=
 OpenBabel11052418233D

 27 31  0  0  1  0  0  0  0  0999 V2000
  190.0530  177.1050  143.1260 C   0  0  0  0  0  2  0  0  0  0  0  0
  187.7670  176.5750  143.7950 C   0  0  2  0  0  3  0  0  0  0  0  0
  187.8870  176.0680  141.4260 N   0  0  0  0  0  2  0  0  0  0  0  0
  184.0830  178.0720  142.8180 N   0  0  0  0  0  0  0  0  0  0  0  0
  183.0880  178.5210  140.6250 C   0  0  0  0  0  1  0  0  0  0  0  0
  186.8200  176.8330  144.8240 C   0  0  0  0  0  3  0  0  0  0  0  0
  185.3790  177.6330  141.0920 C   0  0  0  0  0  0  0  0  0  0  0  0
  189.0760  172.6600  140.5700 C   0  0  0  0  0  3  0  0  0  0  0  0
  185.8110  177.4750  139.6710 C   0  0  0  0  0  1  0  0  0  0  0  0
  190.4090  172.6760  140.9680 C   0  0  0  0  0  3  0  0  0  0  0  0
  186.1140  177.3340  142.2230 C   0  0  0  0  0  0  0  0  0  0  0  0
  189.0780  176.5330  144.1170 C   0  0  2  0  0  3  0  0  0  0  0  0
  184.1730  178.0950  141.4930 N   0  0  0  0  0  0  0  0  0  0  0  0
  185.2660  177.6110  143.2590 C   0  0  0  0  0  0  0  0  0  0  0  0
  190.7730  176.0390  142.4680 N   0  0  0  0  0  2  0  0  0  0  0  0
  187.3390  176.6950  142.4350 C   0  0  1  0  0  3  0  0  0  0  0  0
  188.2770  173.7850  140.7770 C   0  0  0  0  0  3  0  0  0  0  0  0
  185.5770  177.3220  144.5440 N   0  0  0  0  0  0  0  0  0  0  0  0
  190.9390  173.8140  141.5750 C   0  0  0  0  0  3  0  0  0  0  0  0
  190.1460  174.9460  141.8020 C   0  0  0  0  0  0  0  0  0  0  0  0
  188.7800  174.9350  141.4030 C   0  0  0  0  0  0  0  0  0  0  0  0
  190.6100  175.5220  148.0080 C   0  0  0  0  0  3  0  0  0  0  0  0
  189.5780  176.1880  145.4790 C   0  0  0  0  0  0  0  0  0  0  0  0
  189.3720  174.9080  146.0210 C   0  0  0  0  0  3  0  0  0  0  0  0
  189.8790  174.5780  147.2800 C   0  0  0  0  0  3  0  0  0  0  0  0
  190.8370  176.7920  147.4750 C   0  0  0  0  0  3  0  0  0  0  0  0
  190.3280  177.1220  146.2160 C   0  0  0  0  0  3  0  0  0  0  0  0
  1 12  1  0  0  0  0
  2 12  1  0  0  0  0
  2  6  1  1  0  0  0
  4 14  2  0  0  0  0
  5 13  1  0  0  0  0
  7 13  1  0  0  0  0
  7 11  2  0  0  0  0
  8 17  2  0  0  0  0
  8 10  1  0  0  0  0
  9  7  1  0  0  0  0
 10 19  2  0  0  0  0
 11 16  1  0  0  0  0
 11 14  1  0  0  0  0
 12 23  1  1  0  0  0
 13  4  1  0  0  0  0
 14 18  1  0  0  0  0
 15  1  1  0  0  0  0
 16  3  1  1  0  0  0
 16  2  1  0  0  0  0
 17 21  1  0  0  0  0
 18  6  2  0  0  0  0
 19 20  1  0  0  0  0
 20 15  1  0  0  0  0
 21  3  1  0  0  0  0
 21 20  2  0  0  0  0
 23 24  2  0  0  0  0
 23 27  1  0  0  0  0
 24 25  1  0  0  0  0
 25 22  2  0  0  0  0
 26 22  1  0  0  0  0
 27 26  2  0  0  0  0
M  END
>  <MODEL>
1

>  <REMARK>
 VINA RESULT:      -7.8      0.000      0.000
  Name = 
  1 active torsions:
  status: ('A' for Active; 'I' for Inactive)
    1  A    between atoms: C_9  and  C_15
                            x       y       z     vdW  Elec       q    Type
                         _______ _______ _______ _____ _____    ______ ____

>  <TORSDO>
F 1

$$$$
=
 OpenBabel11052418233D

 27 31  0  0  1  0  0  0  0  0999 V2000
  190.2110  177.7080  143.2050 C   0  0  0  0  0  2  0  0  0  0  0  0
  188.9560  175.6250  143.0010 C   0  0  2  0  0  3  0  0  0  0  0  0
  191.2890  175.0080  142.7510 N   0  0  0  0  0  2  0  0  0  0  0  0
  188.3920  172.9100  139.9880 N   0  0  0  0  0  0  0  0  0  0  0  0
  190.0210  171.7980  138.5350 C   0  0  0  0  0  1  0  0  0  0  0  0
  187.6480  175.1350  142.7360 C   0  0  0  0  0  3  0  0  0  0  0  0
  190.4930  173.4770  140.3280 C   0  0  0  0  0  0  0  0  0  0  0  0
  193.1140  174.3140  145.9040 C   0  0  0  0  0  3  0  0  0  0  0  0
  191.9810  173.4850  140.1880 C   0  0  0  0  0  1  0  0  0  0  0  0
  193.1720  175.5590  146.5240 C   0  0  0  0  0  3  0  0  0  0  0  0
  189.7380  174.2120  141.2200 C   0  0  0  0  0  0  0  0  0  0  0  0
  189.0870  176.8090  143.6390 C   0  0  2  0  0  3  0  0  0  0  0  0
  189.6460  172.7240  139.5900 N   0  0  0  0  0  0  0  0  0  0  0  0
  188.4520  173.8170  140.9790 C   0  0  0  0  0  0  0  0  0  0  0  0
  191.2550  177.7120  144.2020 N   0  0  0  0  0  2  0  0  0  0  0  0
  190.0570  175.0270  142.3100 C   0  0  1  0  0  3  0  0  0  0  0  0
  192.4510  174.1750  144.6840 C   0  0  0  0  0  3  0  0  0  0  0  0
  187.4150  174.2210  141.7490 N   0  0  0  0  0  0  0  0  0  0  0  0
  192.5610  176.6600  145.9240 C   0  0  0  0  0  3  0  0  0  0  0  0
  191.8800  176.5340  144.7070 C   0  0  0  0  0  0  0  0  0  0  0  0
  191.8130  175.2630  144.0710 C   0  0  0  0  0  0  0  0  0  0  0  0
  186.0420  178.3370  146.2660 C   0  0  0  0  0  3  0  0  0  0  0  0
  188.0500  177.3670  144.5530 C   0  0  0  0  0  0  0  0  0  0  0  0
  187.0800  178.2670  144.0810 C   0  0  0  0  0  3  0  0  0  0  0  0
  186.0860  178.7550  144.9320 C   0  0  0  0  0  3  0  0  0  0  0  0
  186.9890  177.4290  146.7450 C   0  0  0  0  0  3  0  0  0  0  0  0
  187.9840  176.9430  145.8930 C   0  0  0  0  0  3  0  0  0  0  0  0
  1 12  1  0  0  0  0
  1 15  1  0  0  0  0
  2  6  1  6  0  0  0
  2 12  1  0  0  0  0
  3 21  1  0  0  0  0
  4 14  2  0  0  0  0
  5 13  1  0  0  0  0
  7 11  2  0  0  0  0
  8 10  1  0  0  0  0
  9  7  1  0  0  0  0
 12 23  1  6  0  0  0
 13  4  1  0  0  0  0
 13  7  1  0  0  0  0
 14 11  1  0  0  0  0
 14 18  1  0  0  0  0
 15 20  1  0  0  0  0
 16 11  1  1  0  0  0
 16  3  1  0  0  0  0
 16  2  1  0  0  0  0
 17  8  2  0  0  0  0
 18  6  2  0  0  0  0
 19 10  2  0  0  0  0
 20 19  1  0  0  0  0
 21 17  1  0  0  0  0
 21 20  2  0  0  0  0
 22 26  1  0  0  0  0
 23 27  1  0  0  0  0
 24 23  2  0  0  0  0
 24 25  1  0  0  0  0
 25 22  2  0  0  0  0
 27 26  2  0  0  0  0
M  END
>  <MODEL>
2

>  <REMARK>
 VINA RESULT:      -7.8      2.715      5.203
  Name = 
  1 active torsions:
  status: ('A' for Active; 'I' for Inactive)
    1  A    between atoms: C_9  and  C_15
                            x       y       z     vdW  Elec       q    Type
                         _______ _______ _______ _____ _____    ______ ____

>  <TORSDO>
F 1

$$$$
=
 OpenBabel11052418233D

 27 31  0  0  1  0  0  0  0  0999 V2000
  190.8100  176.9310  143.0280 C   0  0  0  0  0  2  0  0  0  0  0  0
  189.5570  176.3990  145.0530 C   0  0  2  0  0  3  0  0  0  0  0  0
  188.0040  176.0650  143.2200 N   0  0  0  0  0  2  0  0  0  0  0  0
  186.2960  178.0360  146.9110 N   0  0  0  0  0  0  0  0  0  0  0  0
  184.1090  178.6660  146.0050 C   0  0  0  0  0  1  0  0  0  0  0  0
  189.5800  176.5990  146.4610 C   0  0  0  0  0  3  0  0  0  0  0  0
  186.0450  177.7000  144.7490 C   0  0  0  0  0  0  0  0  0  0  0  0
  188.0730  172.7070  141.6470 C   0  0  0  0  0  3  0  0  0  0  0  0
  185.3850  177.6390  143.4090 C   0  0  0  0  0  1  0  0  0  0  0  0
  189.3190  172.6670  141.0290 C   0  0  0  0  0  3  0  0  0  0  0  0
  187.3300  177.3040  145.0620 C   0  0  0  0  0  0  0  0  0  0  0  0
  190.7330  176.3070  144.3940 C   0  0  2  0  0  3  0  0  0  0  0  0
  185.4640  178.1550  145.8820 N   0  0  0  0  0  0  0  0  0  0  0  0
  187.4310  177.5200  146.4080 C   0  0  0  0  0  0  0  0  0  0  0  0
  190.8210  175.9020  142.0140 N   0  0  0  0  0  2  0  0  0  0  0  0
  188.3290  176.6270  144.3570 C   0  0  1  0  0  3  0  0  0  0  0  0
  187.7010  173.8300  142.3880 C   0  0  0  0  0  3  0  0  0  0  0  0
  188.5110  177.1320  147.1230 N   0  0  0  0  0  0  0  0  0  0  0  0
  190.1930  173.7460  141.1590 C   0  0  0  0  0  3  0  0  0  0  0  0
  189.8390  174.8740  141.9100 C   0  0  0  0  0  0  0  0  0  0  0  0
  188.5690  174.9200  142.5490 C   0  0  0  0  0  0  0  0  0  0  0  0
  194.4370  175.0090  146.1560 C   0  0  0  0  0  3  0  0  0  0  0  0
  191.9990  175.8530  145.0350 C   0  0  0  0  0  0  0  0  0  0  0  0
  192.2750  174.4850  145.2000 C   0  0  0  0  0  3  0  0  0  0  0  0
  193.4830  174.0650  145.7630 C   0  0  0  0  0  3  0  0  0  0  0  0
  194.1830  176.3710  145.9820 C   0  0  0  0  0  3  0  0  0  0  0  0
  192.9740  176.7910  145.4200 C   0  0  0  0  0  3  0  0  0  0  0  0
  1 12  1  0  0  0  0
  2  6  1  1  0  0  0
  6 18  2  0  0  0  0
  7 11  2  0  0  0  0
  7 13  1  0  0  0  0
  8 17  1  0  0  0  0
  9  7  1  0  0  0  0
 10 19  1  0  0  0  0
 10  8  2  0  0  0  0
 11 14  1  0  0  0  0
 12 23  1  1  0  0  0
 12  2  1  0  0  0  0
 13  5  1  0  0  0  0
 13  4  1  0  0  0  0
 14  4  2  0  0  0  0
 14 18  1  0  0  0  0
 15  1  1  0  0  0  0
 16  3  1  1  0  0  0
 16  2  1  0  0  0  0
 16 11  1  0  0  0  0
 17 21  2  0  0  0  0
 19 20  2  0  0  0  0
 20 15  1  0  0  0  0
 20 21  1  0  0  0  0
 21  3  1  0  0  0  0
 23 24  2  0  0  0  0
 23 27  1  0  0  0  0
 24 25  1  0  0  0  0
 25 22  2  0  0  0  0
 26 22  1  0  0  0  0
 27 26  2  0  0  0  0
M  END
>  <MODEL>
3

>  <REMARK>
 VINA RESULT:      -7.6      2.153      3.018
  Name = 
  1 active torsions:
  status: ('A' for Active; 'I' for Inactive)
    1  A    between atoms: C_9  and  C_15
                            x       y       z     vdW  Elec       q    Type
                         _______ _______ _______ _____ _____    ______ ____

>  <TORSDO>
F 1

$$$$
=
 OpenBabel11052418233D

 27 31  0  0  1  0  0  0  0  0999 V2000
  189.5120  174.2720  144.3010 C   0  0  0  0  0  2  0  0  0  0  0  0
  189.0670  176.4700  143.3390 C   0  0  2  0  0  3  0  0  0  0  0  0
  188.2210  176.5700  145.6100 N   0  0  0  0  0  2  0  0  0  0  0  0
  185.6650  178.5760  142.4680 N   0  0  0  0  0  0  0  0  0  0  0  0
  183.6950  179.0410  143.8480 C   0  0  0  0  0  1  0  0  0  0  0  0
  188.9560  177.1360  142.0870 C   0  0  0  0  0  3  0  0  0  0  0  0
  185.7080  177.7010  144.4890 C   0  0  0  0  0  0  0  0  0  0  0  0
  190.6910  177.5290  148.2050 C   0  0  0  0  0  3  0  0  0  0  0  0
  185.2820  177.3820  145.8860 C   0  0  0  0  0  1  0  0  0  0  0  0
  191.5660  176.4470  148.2310 C   0  0  0  0  0  3  0  0  0  0  0  0
  186.8810  177.3190  143.8700 C   0  0  0  0  0  0  0  0  0  0  0  0
  189.9310  175.4370  143.4480 C   0  0  2  0  0  3  0  0  0  0  0  0
  184.9940  178.4360  143.6060 N   0  0  0  0  0  0  0  0  0  0  0  0
  186.8110  177.8930  142.6310 C   0  0  0  0  0  0  0  0  0  0  0  0
  190.2540  174.2730  145.5400 N   0  0  0  0  0  2  0  0  0  0  0  0
  188.0490  176.6960  144.3180 C   0  0  1  0  0  3  0  0  0  0  0  0
  189.6290  177.5410  147.3000 C   0  0  0  0  0  3  0  0  0  0  0  0
  187.8450  177.8570  141.7590 N   0  0  0  0  0  0  0  0  0  0  0  0
  191.3810  175.3840  147.3480 C   0  0  0  0  0  3  0  0  0  0  0  0
  190.3280  175.3880  146.4250 C   0  0  0  0  0  0  0  0  0  0  0  0
  189.4320  176.4920  146.3890 C   0  0  0  0  0  0  0  0  0  0  0  0
  193.4430  174.9130  141.0200 C   0  0  0  0  0  3  0  0  0  0  0  0
  191.1380  175.2830  142.5880 C   0  0  0  0  0  0  0  0  0  0  0  0
  192.2880  176.0590  142.8120 C   0  0  0  0  0  3  0  0  0  0  0  0
  193.4310  175.8810  142.0290 C   0  0  0  0  0  3  0  0  0  0  0  0
  192.3140  174.1220  140.7980 C   0  0  0  0  0  3  0  0  0  0  0  0
  191.1700  174.3020  141.5800 C   0  0  0  0  0  3  0  0  0  0  0  0
  1 15  1  0  0  0  0
  2  6  1  6  0  0  0
  2 12  1  0  0  0  0
  2 16  1  0  0  0  0
  3 21  1  0  0  0  0
  4 14  2  0  0  0  0
  4 13  1  0  0  0  0
  7  9  1  0  0  0  0
  8 10  1  0  0  0  0
 11  7  2  0  0  0  0
 12 23  1  6  0  0  0
 12  1  1  0  0  0  0
 13  5  1  0  0  0  0
 13  7  1  0  0  0  0
 14 11  1  0  0  0  0
 15 20  1  0  0  0  0
 16 11  1  1  0  0  0
 16  3  1  0  0  0  0
 17  8  2  0  0  0  0
 18  6  2  0  0  0  0
 18 14  1  0  0  0  0
 19 10  2  0  0  0  0
 20 19  1  0  0  0  0
 21 20  2  0  0  0  0
 21 17  1  0  0  0  0
 22 25  1  0  0  0  0
 23 24  1  0  0  0  0
 25 24  2  0  0  0  0
 26 22  2  0  0  0  0
 26 27  1  0  0  0  0
 27 23  2  0  0  0  0
M  END
>  <MODEL>
4

>  <REMARK>
 VINA RESULT:      -7.5      1.845      4.950
  Name = 
  1 active torsions:
  status: ('A' for Active; 'I' for Inactive)
    1  A    between atoms: C_9  and  C_15
                            x       y       z     vdW  Elec       q    Type
                         _______ _______ _______ _____ _____    ______ ____

>  <TORSDO>
F 1

$$$$
=
 OpenBabel11052418233D

 27 31  0  0  1  0  0  0  0  0999 V2000
  189.4200  177.6710  142.7150 C   0  0  0  0  0  2  0  0  0  0  0  0
  188.7230  175.5290  141.7760 C   0  0  2  0  0  3  0  0  0  0  0  0
  190.4500  175.0000  143.3960 N   0  0  0  0  0  2  0  0  0  0  0  0
  190.5820  172.6470  139.5390 N   0  0  0  0  0  0  0  0  0  0  0  0
  192.7390  171.5350  139.8690 C   0  0  0  0  0  1  0  0  0  0  0  0
  188.0510  174.9720  140.6530 C   0  0  0  0  0  3  0  0  0  0  0  0
  191.7250  173.3190  141.2980 C   0  0  0  0  0  0  0  0  0  0  0  0
  189.2900  174.5400  146.8880 C   0  0  0  0  0  3  0  0  0  0  0  0
  192.8150  173.3830  142.3180 C   0  0  0  0  0  1  0  0  0  0  0  0
  188.8750  175.8150  147.2600 C   0  0  0  0  0  3  0  0  0  0  0  0
  190.5630  174.0640  141.2760 C   0  0  0  0  0  0  0  0  0  0  0  0
  188.3420  176.7480  142.2190 C   0  0  2  0  0  3  0  0  0  0  0  0
  191.7090  172.4950  140.2260 N   0  0  0  0  0  0  0  0  0  0  0  0
  189.8880  173.6040  140.1790 C   0  0  0  0  0  0  0  0  0  0  0  0
  189.3650  177.7680  144.1550 N   0  0  0  0  0  2  0  0  0  0  0  0
  189.9640  174.9450  142.1810 C   0  0  1  0  0  3  0  0  0  0  0  0
  189.7640  174.3140  145.5960 C   0  0  0  0  0  3  0  0  0  0  0  0
  188.6280  174.0020  139.8860 N   0  0  0  0  0  0  0  0  0  0  0  0
  188.9300  176.8590  146.3360 C   0  0  0  0  0  3  0  0  0  0  0  0
  189.3900  176.6440  145.0320 C   0  0  0  0  0  0  0  0  0  0  0  0
  189.8110  175.3420  144.6430 C   0  0  0  0  0  0  0  0  0  0  0  0
  184.3640  178.2670  141.6070 C   0  0  0  0  0  3  0  0  0  0  0  0
  186.9760  177.3060  142.0110 C   0  0  0  0  0  0  0  0  0  0  0  0
  186.5840  177.8090  140.7580 C   0  0  0  0  0  3  0  0  0  0  0  0
  185.2890  178.2920  140.5590 C   0  0  0  0  0  3  0  0  0  0  0  0
  184.7350  177.7540  142.8520 C   0  0  0  0  0  3  0  0  0  0  0  0
  186.0310  177.2720  143.0520 C   0  0  0  0  0  3  0  0  0  0  0  0
  1 15  1  0  0  0  0
  2  6  1  6  0  0  0
  2 16  1  0  0  0  0
  2 12  1  0  0  0  0
  3 21  1  0  0  0  0
  4 14  2  0  0  0  0
  4 13  1  0  0  0  0
  5 13  1  0  0  0  0
  7  9  1  0  0  0  0
  8 10  1  0  0  0  0
 11  7  2  0  0  0  0
 12 23  1  6  0  0  0
 12  1  1  0  0  0  0
 13  7  1  0  0  0  0
 14 11  1  0  0  0  0
 15 20  1  0  0  0  0
 16 11  1  1  0  0  0
 16  3  1  0  0  0  0
 17  8  2  0  0  0  0
 18 14  1  0  0  0  0
 18  6  2  0  0  0  0
 19 10  2  0  0  0  0
 20 19  1  0  0  0  0
 21 20  2  0  0  0  0
 21 17  1  0  0  0  0
 22 26  1  0  0  0  0
 23 27  1  0  0  0  0
 24 23  2  0  0  0  0
 25 24  1  0  0  0  0
 25 22  2  0  0  0  0
 26 27  2  0  0  0  0
M  END
>  <MODEL>
5

>  <REMARK>
 VINA RESULT:      -7.5      2.122      6.474
  Name = 
  1 active torsions:
  status: ('A' for Active; 'I' for Inactive)
    1  A    between atoms: C_9  and  C_15
                            x       y       z     vdW  Elec       q    Type
                         _______ _______ _______ _____ _____    ______ ____

>  <TORSDO>
F 1

$$$$
=
 OpenBabel11052418233D

 27 31  0  0  1  0  0  0  0  0999 V2000
  191.3590  176.1100  143.2270 C   0  0  0  0  0  2  0  0  0  0  0  0
  190.0080  175.1770  145.0330 C   0  0  2  0  0  3  0  0  0  0  0  0
  188.4770  175.5150  143.1810 N   0  0  0  0  0  2  0  0  0  0  0  0
  186.8770  176.5680  147.2750 N   0  0  0  0  0  0  0  0  0  0  0  0
  184.7870  177.6400  146.5810 C   0  0  0  0  0  1  0  0  0  0  0  0
  190.0150  174.9820  146.4420 C   0  0  0  0  0  3  0  0  0  0  0  0
  186.6500  176.8620  145.1040 C   0  0  0  0  0  0  0  0  0  0  0  0
  188.2550  172.7240  140.7490 C   0  0  0  0  0  3  0  0  0  0  0  0
  186.0220  177.2350  143.8010 C   0  0  0  0  0  1  0  0  0  0  0  0
  189.5070  172.7270  140.1410 C   0  0  0  0  0  3  0  0  0  0  0  0
  187.8810  176.2670  145.2940 C   0  0  0  0  0  0  0  0  0  0  0  0
  191.1850  175.1490  144.3700 C   0  0  2  0  0  3  0  0  0  0  0  0
  186.0880  177.0470  146.3210 N   0  0  0  0  0  0  0  0  0  0  0  0
  187.9690  176.0960  146.6480 C   0  0  0  0  0  0  0  0  0  0  0  0
  191.2940  175.4020  141.9700 N   0  0  0  0  0  2  0  0  0  0  0  0
  188.8260  175.7100  144.4280 C   0  0  1  0  0  3  0  0  0  0  0  0
  187.9770  173.6340  141.7700 C   0  0  0  0  0  3  0  0  0  0  0  0
  188.9870  175.4200  147.2260 N   0  0  0  0  0  0  0  0  0  0  0  0
  190.4790  173.6360  140.5590 C   0  0  0  0  0  3  0  0  0  0  0  0
  190.2190  174.5450  141.5910 C   0  0  0  0  0  0  0  0  0  0  0  0
  188.9430  174.5450  142.2210 C   0  0  0  0  0  0  0  0  0  0  0  0
  194.6950  173.0430  145.6970 C   0  0  0  0  0  3  0  0  0  0  0  0
  192.3850  174.4110  144.8590 C   0  0  0  0  0  0  0  0  0  0  0  0
  192.4710  173.0140  144.7400 C   0  0  0  0  0  3  0  0  0  0  0  0
  193.6150  172.3320  145.1620 C   0  0  0  0  0  3  0  0  0  0  0  0
  194.6290  174.4340  145.8050 C   0  0  0  0  0  3  0  0  0  0  0  0
  193.4840  175.1140  145.3840 C   0  0  0  0  0  3  0  0  0  0  0  0
  1 12  1  0  0  0  0
  2  6  1  1  0  0  0
  6 18  2  0  0  0  0
  7 11  2  0  0  0  0
  7 13  1  0  0  0  0
  8 17  1  0  0  0  0
  9  7  1  0  0  0  0
 10 19  1  0  0  0  0
 10  8  2  0  0  0  0
 11 14  1  0  0  0  0
 12 23  1  1  0  0  0
 12  2  1  0  0  0  0
 13  5  1  0  0  0  0
 13  4  1  0  0  0  0
 14 18  1  0  0  0  0
 14  4  2  0  0  0  0
 15  1  1  0  0  0  0
 16  3  1  1  0  0  0
 16  2  1  0  0  0  0
 16 11  1  0  0  0  0
 17 21  2  0  0  0  0
 19 20  2  0  0  0  0
 20 15  1  0  0  0  0
 20 21  1  0  0  0  0
 21  3  1  0  0  0  0
 22 26  1  0  0  0  0
 23 27  1  0  0  0  0
 24 23  2  0  0  0  0
 24 25  1  0  0  0  0
 25 22  2  0  0  0  0
 27 26  2  0  0  0  0
M  END
>  <MODEL>
6

>  <REMARK>
 VINA RESULT:      -7.4      2.581      3.634
  Name = 
  1 active torsions:
  status: ('A' for Active; 'I' for Inactive)
    1  A    between atoms: C_9  and  C_15
                            x       y       z     vdW  Elec       q    Type
                         _______ _______ _______ _____ _____    ______ ____

>  <TORSDO>
F 1

$$$$
=
 OpenBabel11052418233D

 27 31  0  0  1  0  0  0  0  0999 V2000
  190.9390  177.4790  143.3650 C   0  0  0  0  0  2  0  0  0  0  0  0
  190.0610  175.2250  143.0420 C   0  0  2  0  0  3  0  0  0  0  0  0
  192.4450  175.0620  142.6250 N   0  0  0  0  0  2  0  0  0  0  0  0
  189.7920  172.6930  139.8350 N   0  0  0  0  0  0  0  0  0  0  0  0
  191.4940  172.0100  138.2120 C   0  0  0  0  0  1  0  0  0  0  0  0
  188.8450  174.5280  142.8000 C   0  0  0  0  0  3  0  0  0  0  0  0
  191.7780  173.6030  140.1190 C   0  0  0  0  0  0  0  0  0  0  0  0
  194.5620  174.4680  145.6110 C   0  0  0  0  0  3  0  0  0  0  0  0
  193.2290  173.8910  139.9070 C   0  0  0  0  0  1  0  0  0  0  0  0
  194.4390  175.6510  146.3330 C   0  0  0  0  0  3  0  0  0  0  0  0
  190.9640  174.1180  141.1090 C   0  0  0  0  0  0  0  0  0  0  0  0
  190.0210  176.3600  143.7740 C   0  0  2  0  0  3  0  0  0  0  0  0
  191.0300  172.7690  139.3610 N   0  0  0  0  0  0  0  0  0  0  0  0
  189.7540  173.5180  140.8970 C   0  0  0  0  0  0  0  0  0  0  0  0
  192.0280  177.5950  144.3060 N   0  0  0  0  0  2  0  0  0  0  0  0
  191.2030  174.8910  142.2480 C   0  0  1  0  0  3  0  0  0  0  0  0
  193.8570  174.3060  144.4180 C   0  0  0  0  0  3  0  0  0  0  0  0
  188.7140  173.6670  141.7490 N   0  0  0  0  0  0  0  0  0  0  0  0
  193.6060  176.6670  145.8630 C   0  0  0  0  0  3  0  0  0  0  0  0
  192.8820  176.5140  144.6750 C   0  0  0  0  0  0  0  0  0  0  0  0
  192.9990  175.3050  143.9340 C   0  0  0  0  0  0  0  0  0  0  0  0
  186.9160  177.1180  146.6530 C   0  0  0  0  0  3  0  0  0  0  0  0
  188.9630  176.6500  144.7830 C   0  0  0  0  0  0  0  0  0  0  0  0
  187.9860  177.6310  144.5430 C   0  0  0  0  0  3  0  0  0  0  0  0
  186.9720  177.8680  145.4750 C   0  0  0  0  0  3  0  0  0  0  0  0
  187.8700  176.1280  146.8970 C   0  0  0  0  0  3  0  0  0  0  0  0
  188.8850  175.8920  145.9650 C   0  0  0  0  0  3  0  0  0  0  0  0
  1 12  1  0  0  0  0
  1 15  1  0  0  0  0
  2  6  1  6  0  0  0
  2 12  1  0  0  0  0
  3 21  1  0  0  0  0
  4 14  2  0  0  0  0
  5 13  1  0  0  0  0
  7 11  2  0  0  0  0
  8 10  1  0  0  0  0
  9  7  1  0  0  0  0
 12 23  1  6  0  0  0
 13  4  1  0  0  0  0
 13  7  1  0  0  0  0
 14 11  1  0  0  0  0
 14 18  1  0  0  0  0
 15 20  1  0  0  0  0
 16 11  1  1  0  0  0
 16  3  1  0  0  0  0
 16  2  1  0  0  0  0
 17  8  2  0  0  0  0
 18  6  2  0  0  0  0
 19 10  2  0  0  0  0
 20 19  1  0  0  0  0
 21 17  1  0  0  0  0
 21 20  2  0  0  0  0
 22 26  1  0  0  0  0
 23 27  1  0  0  0  0
 24 23  2  0  0  0  0
 24 25  1  0  0  0  0
 25 22  2  0  0  0  0
 27 26  2  0  0  0  0
M  END
>  <MODEL>
7

>  <REMARK>
 VINA RESULT:      -7.4      3.157      5.695
  Name = 
  1 active torsions:
  status: ('A' for Active; 'I' for Inactive)
    1  A    between atoms: C_9  and  C_15
                            x       y       z     vdW  Elec       q    Type
                         _______ _______ _______ _____ _____    ______ ____

>  <TORSDO>
F 1

$$$$
=
 OpenBabel11052418233D

 27 31  0  0  1  0  0  0  0  0999 V2000
  189.6420  173.0800  143.9080 C   0  0  0  0  0  2  0  0  0  0  0  0
  188.9740  175.2470  143.0050 C   0  0  2  0  0  3  0  0  0  0  0  0
  189.3210  175.6090  145.3790 N   0  0  0  0  0  2  0  0  0  0  0  0
  185.7520  177.7100  143.5680 N   0  0  0  0  0  0  0  0  0  0  0  0
  184.7210  178.5180  145.6370 C   0  0  0  0  0  1  0  0  0  0  0  0
  188.3360  175.8340  141.8780 C   0  0  0  0  0  3  0  0  0  0  0  0
  186.6790  176.9760  145.4270 C   0  0  0  0  0  0  0  0  0  0  0  0
  192.7960  176.4160  146.3910 C   0  0  0  0  0  3  0  0  0  0  0  0
  186.9440  176.8110  146.8880 C   0  0  0  0  0  1  0  0  0  0  0  0
  193.4870  175.2340  146.1380 C   0  0  0  0  0  3  0  0  0  0  0  0
  187.3820  176.4050  144.3840 C   0  0  0  0  0  0  0  0  0  0  0  0
  189.6990  174.1210  142.8250 C   0  0  2  0  0  3  0  0  0  0  0  0
  185.6940  177.7360  144.8950 N   0  0  0  0  0  0  0  0  0  0  0  0
  186.7790  176.8980  143.2610 C   0  0  0  0  0  0  0  0  0  0  0  0
  190.8810  173.0690  144.6500 N   0  0  0  0  0  2  0  0  0  0  0  0
  188.5670  175.6680  144.3100 C   0  0  1  0  0  3  0  0  0  0  0  0
  191.4370  176.5030  146.0890 C   0  0  0  0  0  3  0  0  0  0  0  0
  187.2660  176.6690  142.0190 N   0  0  0  0  0  0  0  0  0  0  0  0
  192.8180  174.1460  145.5780 C   0  0  0  0  0  3  0  0  0  0  0  0
  191.4580  174.2230  145.2570 C   0  0  0  0  0  0  0  0  0  0  0  0
  190.7460  175.4290  145.5080 C   0  0  0  0  0  0  0  0  0  0  0  0
  191.5590  172.9720  139.1200 C   0  0  0  0  0  3  0  0  0  0  0  0
  190.3350  173.7530  141.5280 C   0  0  0  0  0  0  0  0  0  0  0  0
  191.6410  174.1730  141.2200 C   0  0  0  0  0  3  0  0  0  0  0  0
  192.2470  173.7910  140.0210 C   0  0  0  0  0  3  0  0  0  0  0  0
  190.2680  172.5330  139.4210 C   0  0  0  0  0  3  0  0  0  0  0  0
  189.6620  172.9170  140.6190 C   0  0  0  0  0  3  0  0  0  0  0  0
  1 15  1  0  0  0  0
  2  6  1  6  0  0  0
  2 16  1  0  0  0  0
  3 21  1  0  0  0  0
  4 13  1  0  0  0  0
  6 18  2  0  0  0  0
  7  9  1  0  0  0  0
 10  8  1  0  0  0  0
 11  7  2  0  0  0  0
 12 23  1  6  0  0  0
 12  2  1  0  0  0  0
 12  1  1  0  0  0  0
 13  7  1  0  0  0  0
 13  5  1  0  0  0  0
 14  4  2  0  0  0  0
 14 11  1  0  0  0  0
 15 20  1  0  0  0  0
 16 11  1  6  0  0  0
 16  3  1  0  0  0  0
 17  8  2  0  0  0  0
 18 14  1  0  0  0  0
 19 10  2  0  0  0  0
 20 21  2  0  0  0  0
 20 19  1  0  0  0  0
 21 17  1  0  0  0  0
 22 26  2  0  0  0  0
 22 25  1  0  0  0  0
 24 23  1  0  0  0  0
 25 24  2  0  0  0  0
 26 27  1  0  0  0  0
 27 23  2  0  0  0  0
M  END
>  <MODEL>
8

>  <REMARK>
 VINA RESULT:      -7.3      1.967      5.277
  Name = 
  1 active torsions:
  status: ('A' for Active; 'I' for Inactive)
    1  A    between atoms: C_9  and  C_15
                            x       y       z     vdW  Elec       q    Type
                         _______ _______ _______ _____ _____    ______ ____

>  <TORSDO>
F 1

$$$$
=
 OpenBabel11052418233D

 27 31  0  0  1  0  0  0  0  0999 V2000
  190.0420  173.3860  144.9670 C   0  0  0  0  0  2  0  0  0  0  0  0
  191.2880  175.4110  144.4170 C   0  0  2  0  0  3  0  0  0  0  0  0
  192.0620  173.7250  142.8540 N   0  0  0  0  0  2  0  0  0  0  0  0
  195.2450  176.4570  144.5380 N   0  0  0  0  0  0  0  0  0  0  0  0
  197.2170  175.2910  143.6720 C   0  0  0  0  0  1  0  0  0  0  0  0
  191.6630  176.6700  144.9620 C   0  0  0  0  0  3  0  0  0  0  0  0
  194.8380  174.5230  143.5650 C   0  0  0  0  0  0  0  0  0  0  0  0
  190.0660  173.3740  139.7480 C   0  0  0  0  0  3  0  0  0  0  0  0
  195.0860  173.2520  142.8190 C   0  0  0  0  0  1  0  0  0  0  0  0
  188.8520  172.8650  140.2020 C   0  0  0  0  0  3  0  0  0  0  0  0
  193.6200  175.0110  143.9950 C   0  0  0  0  0  0  0  0  0  0  0  0
  190.1010  174.8770  144.7800 C   0  0  2  0  0  3  0  0  0  0  0  0
  195.7920  175.4100  143.9300 N   0  0  0  0  0  0  0  0  0  0  0  0
  193.9240  176.2100  144.5780 C   0  0  0  0  0  0  0  0  0  0  0  0
  189.3260  172.7770  143.8710 N   0  0  0  0  0  2  0  0  0  0  0  0
  192.2960  174.6210  143.7790 C   0  0  1  0  0  3  0  0  0  0  0  0
  191.0760  173.6780  140.6620 C   0  0  0  0  0  3  0  0  0  0  0  0
  192.9690  177.0640  145.0130 N   0  0  0  0  0  0  0  0  0  0  0  0
  188.6510  172.6660  141.5670 C   0  0  0  0  0  3  0  0  0  0  0  0
  189.6500  172.9780  142.4970 C   0  0  0  0  0  0  0  0  0  0  0  0
  190.8910  173.5040  142.0410 C   0  0  0  0  0  0  0  0  0  0  0  0
  186.6960  177.1450  146.1100 C   0  0  0  0  0  3  0  0  0  0  0  0
  188.9410  175.6910  145.2400 C   0  0  0  0  0  0  0  0  0  0  0  0
  188.1590  176.4150  144.3240 C   0  0  0  0  0  3  0  0  0  0  0  0
  187.0470  177.1430  144.7560 C   0  0  0  0  0  3  0  0  0  0  0  0
  187.4540  176.4160  147.0280 C   0  0  0  0  0  3  0  0  0  0  0  0
  188.5660  175.6890  146.5960 C   0  0  0  0  0  3  0  0  0  0  0  0
  2 12  1  0  0  0  0
  2  6  1  1  0  0  0
  4 14  2  0  0  0  0
  5 13  1  0  0  0  0
  6 18  2  0  0  0  0
  7 13  1  0  0  0  0
  7 11  2  0  0  0  0
  8 10  2  0  0  0  0
  8 17  1  0  0  0  0
  9  7  1  0  0  0  0
 10 19  1  0  0  0  0
 11 14  1  0  0  0  0
 12  1  1  0  0  0  0
 12 23  1  1  0  0  0
 13  4  1  0  0  0  0
 14 18  1  0  0  0  0
 15  1  1  0  0  0  0
 16  3  1  6  0  0  0
 16 11  1  0  0  0  0
 16  2  1  0  0  0  0
 17 21  2  0  0  0  0
 19 20  2  0  0  0  0
 20 15  1  0  0  0  0
 21 20  1  0  0  0  0
 21  3  1  0  0  0  0
 22 26  1  0  0  0  0
 23 27  1  0  0  0  0
 24 25  1  0  0  0  0
 24 23  2  0  0  0  0
 25 22  2  0  0  0  0
 27 26  2  0  0  0  0
M  END
>  <MODEL>
9

>  <REMARK>
 VINA RESULT:      -7.2      3.416      6.505
  Name = 
  1 active torsions:
  status: ('A' for Active; 'I' for Inactive)
    1  A    between atoms: C_9  and  C_15
                            x       y       z     vdW  Elec       q    Type
                         _______ _______ _______ _____ _____    ______ ____

>  <TORSDO>
F 1

$$$$
