=
 OpenBabel11052421093D

 43 48  0  0  1  0  0  0  0  0999 V2000
  191.7130  172.9310  143.1790 O   0  0  0  0  0  0  0  0  0  0  0  0
  189.0870  173.8230  138.9910 C   0  0  0  0  0  0  0  0  0  0  0  0
  192.9510  171.7400  141.3850 C   0  0  0  0  0  0  0  0  0  0  0  0
  191.0520  172.6130  139.5460 C   0  0  0  0  0  0  0  0  0  0  0  0
  188.9300  174.2230  140.3200 C   0  0  0  0  0  3  0  0  0  0  0  0
  188.1050  174.2610  137.9650 C   0  0  0  0  0  1  0  0  0  0  0  0
  190.9360  172.9930  140.8980 C   0  0  0  0  0  0  0  0  0  0  0  0
  190.1340  173.0320  138.6340 N   0  0  0  0  0  0  0  0  0  0  0  0
  189.8580  173.8040  141.2740 C   0  0  0  0  0  3  0  0  0  0  0  0
  191.8760  172.5460  141.8390 C   0  0  0  0  0  0  0  0  0  0  0  0
  193.0310  171.3990  140.0680 N   0  0  0  0  0  0  0  0  0  0  0  0
  192.1150  171.8060  139.1530 C   0  0  0  0  0  3  0  0  0  0  0  0
  194.0680  171.3160  142.2850 C   0  0  0  0  0  2  0  0  0  0  0  0
  195.0860  172.4350  142.4440 C   0  0  0  0  0  2  0  0  0  0  0  0
  195.6120  172.4870  143.8710 C   0  0  0  0  0  2  0  0  0  0  0  0
  193.6880  174.9940  146.1330 C   0  0  0  0  0  2  0  0  0  0  0  0
  195.5370  176.4330  144.1440 C   0  0  0  0  0  2  0  0  0  0  0  0
  194.6500  176.8220  145.3220 C   0  0  0  0  0  2  0  0  0  0  0  0
  194.1870  173.6640  145.5710 C   0  0  0  0  0  2  0  0  0  0  0  0
  195.2940  173.8230  144.5220 C   0  0  2  0  0  3  0  0  0  0  0  0
  194.7510  175.8750  146.3480 O   0  0  0  0  0  0  0  0  0  0  0  0
  194.8280  175.0220  143.2290 S   0  0  0  0  0  0  0  0  0  0  0  0
  191.1770  172.0890  144.1900 C   0  0  0  0  0  2  0  0  0  0  0  0
  189.8770  172.6740  144.7160 C   0  0  0  0  0  2  0  0  0  0  0  0
  190.1140  174.0130  145.3980 C   0  0  1  0  0  3  0  0  0  0  0  0
  189.7150  177.9540  146.0450 F   0  0  0  0  0  0  0  0  0  0  0  0
  188.7170  177.4070  145.2440 C   0  0  2  0  0  0  0  0  0  0  0  0
  189.6040  175.1080  144.5740 N   0  0  2  0  0  0  0  0  0  0  0  0
  189.3990  174.0360  146.7350 C   0  0  0  0  0  2  0  0  0  0  0  0
  190.7650  175.9130  144.1860 C   0  0  0  0  0  2  0  0  0  0  0  0
  188.6770  175.8740  145.4310 C   0  0  1  0  0  3  0  0  0  0  0  0
  189.0180  177.7170  143.7720 C   0  0  0  0  0  2  0  0  0  0  0  0
  188.8710  175.4360  146.8650 C   0  0  0  0  0  2  0  0  0  0  0  0
  190.3360  177.0870  143.3040 C   0  0  0  0  0  2  0  0  0  0  0  0
  187.4090  177.9530  145.6160 N   0  0  0  0  0  2  0  0  0  0  0  0
  186.3330  177.0780  145.1540 C   0  0  1  0  0  3  0  0  0  0  0  0
  185.3450  176.8470  146.2820 C   0  0  0  0  0  1  0  0  0  0  0  0
  185.6430  177.6840  143.9750 C   0  0  0  0  0  0  0  0  0  0  0  0
  184.9740  177.5240  141.6520 N   0  0  0  0  0  0  0  0  0  0  0  0
  183.3680  178.6710  143.0880 C   0  0  0  0  0  2  0  0  0  0  0  0
  183.9140  178.2730  141.7520 C   0  0  0  0  0  3  0  0  0  0  0  0
  184.7390  179.2370  144.1390 S   0  0  0  0  0  0  0  0  0  0  0  0
  185.7240  177.0720  142.7910 C   0  0  0  0  0  3  0  0  0  0  0  0
  1 23  1  0  0  0  0
  2  5  1  0  0  0  0
  3 10  1  0  0  0  0
  3 13  1  0  0  0  0
  4  7  1  0  0  0  0
  5  9  2  0  0  0  0
  6  2  1  0  0  0  0
  7  9  1  0  0  0  0
  7 10  2  0  0  0  0
  8  2  2  0  0  0  0
  8  4  1  0  0  0  0
 10  1  1  0  0  0  0
 11  3  2  0  0  0  0
 12  4  2  0  0  0  0
 12 11  1  0  0  0  0
 13 14  1  0  0  0  0
 14 15  1  0  0  0  0
 16 21  1  0  0  0  0
 17 18  1  0  0  0  0
 18 21  1  0  0  0  0
 19 16  1  0  0  0  0
 20 15  1  6  0  0  0
 20 19  1  0  0  0  0
 22 17  1  0  0  0  0
 22 20  1  0  0  0  0
 23 24  1  0  0  0  0
 25 24  1  6  0  0  0
 25 29  1  0  0  0  0
 27 31  1  0  0  0  0
 27 35  1  0  0  0  0
 27 26  1  1  0  0  0
 28 30  1  1  0  0  0
 28 25  1  0  0  0  0
 28 31  1  0  0  0  0
 29 33  1  0  0  0  0
 31 33  1  1  0  0  0
 32 27  1  0  0  0  0
 34 32  1  0  0  0  0
 34 30  1  0  0  0  0
 36 35  1  0  0  0  0
 36 37  1  1  0  0  0
 38 42  1  0  0  0  0
 38 36  1  0  0  0  0
 39 41  2  0  0  0  0
 39 43  1  0  0  0  0
 40 42  1  0  0  0  0
 41 40  1  0  0  0  0
 43 38  2  0  0  0  0
M  END
>  <MODEL>
1

>  <REMARK>
 VINA RESULT:      -7.3      0.000      0.000
  Name = 
  11 active torsions:
  status: ('A' for Active; 'I' for Inactive)
    1  A    between atoms: C_1  and  C_28
    2  A    between atoms: C_1  and  C_34
    3  A    between atoms: C_2  and  C_13
    4  A    between atoms: C_4  and  N_22
    5  A    between atoms: C_8  and  C_34
    6  A    between atoms: C_11  and  C_14
    7  A    between atoms: C_13  and  C_38
    8  A    between atoms: C_14  and  N_22
    9  A    between atoms: O_27  and  C_30
   10  A    between atoms: O_27  and  C_38
   11  A    between atoms: C_28  and  C_35
                            x       y       z     vdW  Elec       q    Type
                         _______ _______ _______ _____ _____    ______ ____

>  <TORSDO>
F 11

$$$$
=
 OpenBabel11052421093D

 43 48  0  0  1  0  0  0  0  0999 V2000
  195.8910  175.5560  144.3130 O   0  0  0  0  0  0  0  0  0  0  0  0
  197.0600  170.7910  145.3900 C   0  0  0  0  0  0  0  0  0  0  0  0
  195.8180  174.3730  142.1300 C   0  0  0  0  0  0  0  0  0  0  0  0
  196.5230  172.0130  143.4280 C   0  0  0  0  0  0  0  0  0  0  0  0
  196.9120  171.9390  146.1730 C   0  0  0  0  0  3  0  0  0  0  0  0
  197.4330  169.5020  146.0290 C   0  0  0  0  0  1  0  0  0  0  0  0
  196.3610  173.1950  144.1760 C   0  0  0  0  0  0  0  0  0  0  0  0
  196.8660  170.8510  144.0450 N   0  0  0  0  0  0  0  0  0  0  0  0
  196.5630  173.1440  145.5610 C   0  0  0  0  0  3  0  0  0  0  0  0
  196.0220  174.3960  143.5330 C   0  0  0  0  0  0  0  0  0  0  0  0
  195.9790  173.2080  141.4420 N   0  0  0  0  0  0  0  0  0  0  0  0
  196.3290  172.0450  142.0500 C   0  0  0  0  0  3  0  0  0  0  0  0
  195.3380  175.5700  141.3720 C   0  0  0  0  0  2  0  0  0  0  0  0
  194.0260  175.2670  140.6620 C   0  0  0  0  0  2  0  0  0  0  0  0
  192.9200  174.9890  141.6690 C   0  0  0  0  0  2  0  0  0  0  0  0
  189.4120  173.3930  141.1670 C   0  0  0  0  0  2  0  0  0  0  0  0
  191.6520  171.6070  140.0540 C   0  0  0  0  0  2  0  0  0  0  0  0
  190.1270  171.6070  140.0610 C   0  0  0  0  0  2  0  0  0  0  0  0
  190.4770  174.4180  141.5520 C   0  0  0  0  0  2  0  0  0  0  0  0
  191.8880  174.0310  141.0960 C   0  0  2  0  0  3  0  0  0  0  0  0
  189.6340  172.9050  139.8760 O   0  0  0  0  0  0  0  0  0  0  0  0
  192.3130  172.3290  141.5950 S   0  0  0  0  0  0  0  0  0  0  0  0
  194.6450  176.1260  144.6890 C   0  0  0  0  0  2  0  0  0  0  0  0
  194.4070  175.9160  146.1750 C   0  0  0  0  0  2  0  0  0  0  0  0
  193.0560  175.2610  146.4260 C   0  0  1  0  0  3  0  0  0  0  0  0
  189.0560  174.9340  146.4540 F   0  0  0  0  0  0  0  0  0  0  0  0
  189.5370  175.9370  145.6190 C   0  0  2  0  0  0  0  0  0  0  0  0
  191.9780  176.2420  146.3020 N   0  0  2  0  0  0  0  0  0  0  0  0
  192.8290  174.1570  145.4120 C   0  0  0  0  0  2  0  0  0  0  0  0
  191.3630  176.3560  147.6270 C   0  0  0  0  0  2  0  0  0  0  0  0
  191.0310  175.6930  145.3110 C   0  0  1  0  0  3  0  0  0  0  0  0
  189.3930  177.2940  146.3180 C   0  0  0  0  0  2  0  0  0  0  0  0
  191.3670  174.2370  145.0770 C   0  0  0  0  0  2  0  0  0  0  0  0
  190.2230  177.3750  147.6060 C   0  0  0  0  0  2  0  0  0  0  0  0
  188.7990  175.9430  144.3530 N   0  0  0  0  0  2  0  0  0  0  0  0
  188.4510  177.3080  143.9630 C   0  0  1  0  0  3  0  0  0  0  0  0
  189.3220  177.7440  142.8000 C   0  0  0  0  0  1  0  0  0  0  0  0
  187.0070  177.3870  143.5880 C   0  0  0  0  0  0  0  0  0  0  0  0
  184.7310  177.9500  144.1960 N   0  0  0  0  0  0  0  0  0  0  0  0
  185.2850  178.3770  141.8580 C   0  0  0  0  0  2  0  0  0  0  0  0
  184.3190  178.2240  142.9920 C   0  0  0  0  0  3  0  0  0  0  0  0
  186.4730  177.0020  141.9070 S   0  0  0  0  0  0  0  0  0  0  0  0
  186.1110  177.7220  144.5200 C   0  0  0  0  0  3  0  0  0  0  0  0
  1 23  1  0  0  0  0
  2  6  1  0  0  0  0
  2  5  1  0  0  0  0
  3 10  1  0  0  0  0
  4  8  1  0  0  0  0
  4  7  1  0  0  0  0
  7  9  1  0  0  0  0
  8  2  2  0  0  0  0
  9  5  2  0  0  0  0
 10  7  2  0  0  0  0
 10  1  1  0  0  0  0
 11 12  1  0  0  0  0
 11  3  2  0  0  0  0
 12  4  2  0  0  0  0
 13  3  1  0  0  0  0
 14 13  1  0  0  0  0
 14 15  1  0  0  0  0
 16 19  1  0  0  0  0
 17 18  1  0  0  0  0
 17 22  1  0  0  0  0
 20 19  1  0  0  0  0
 20 22  1  0  0  0  0
 20 15  1  1  0  0  0
 21 18  1  0  0  0  0
 21 16  1  0  0  0  0
 23 24  1  0  0  0  0
 25 24  1  6  0  0  0
 27 32  1  0  0  0  0
 27 26  1  1  0  0  0
 28 25  1  0  0  0  0
 28 30  1  1  0  0  0
 29 25  1  0  0  0  0
 31 33  1  1  0  0  0
 31 27  1  0  0  0  0
 31 28  1  0  0  0  0
 32 34  1  0  0  0  0
 33 29  1  0  0  0  0
 34 30  1  0  0  0  0
 35 27  1  0  0  0  0
 36 37  1  6  0  0  0
 36 35  1  0  0  0  0
 38 36  1  0  0  0  0
 38 43  2  0  0  0  0
 39 43  1  0  0  0  0
 40 42  1  0  0  0  0
 40 41  1  0  0  0  0
 41 39  2  0  0  0  0
 42 38  1  0  0  0  0
M  END
>  <MODEL>
2

>  <REMARK>
 VINA RESULT:      -7.2      2.328      5.577
  Name = 
  11 active torsions:
  status: ('A' for Active; 'I' for Inactive)
    1  A    between atoms: C_1  and  C_28
    2  A    between atoms: C_1  and  C_34
    3  A    between atoms: C_2  and  C_13
    4  A    between atoms: C_4  and  N_22
    5  A    between atoms: C_8  and  C_34
    6  A    between atoms: C_11  and  C_14
    7  A    between atoms: C_13  and  C_38
    8  A    between atoms: C_14  and  N_22
    9  A    between atoms: O_27  and  C_30
   10  A    between atoms: O_27  and  C_38
   11  A    between atoms: C_28  and  C_35
                            x       y       z     vdW  Elec       q    Type
                         _______ _______ _______ _____ _____    ______ ____

>  <TORSDO>
F 11

$$$$
=
 OpenBabel11052421093D

 43 48  0  0  1  0  0  0  0  0999 V2000
  189.8820  176.0790  143.6560 O   0  0  0  0  0  0  0  0  0  0  0  0
  194.8940  175.9000  143.9380 C   0  0  0  0  0  0  0  0  0  0  0  0
  190.3650  175.4200  146.0020 C   0  0  0  0  0  0  0  0  0  0  0  0
  193.0880  175.5120  145.4280 C   0  0  0  0  0  0  0  0  0  0  0  0
  194.0060  176.2230  142.9090 C   0  0  0  0  0  3  0  0  0  0  0  0
  196.3590  175.9350  143.6900 C   0  0  0  0  0  1  0  0  0  0  0  0
  192.1550  175.8310  144.4210 C   0  0  0  0  0  0  0  0  0  0  0  0
  194.4220  175.5530  145.1650 N   0  0  0  0  0  0  0  0  0  0  0  0
  192.6330  176.1860  143.1550 C   0  0  0  0  0  3  0  0  0  0  0  0
  190.7780  175.7730  144.6920 C   0  0  0  0  0  0  0  0  0  0  0  0
  191.2990  175.1240  146.9490 N   0  0  0  0  0  0  0  0  0  0  0  0
  192.6320  175.1540  146.6920 C   0  0  0  0  0  3  0  0  0  0  0  0
  188.9290  175.4480  146.4220 C   0  0  0  0  0  2  0  0  0  0  0  0
  188.4940  176.8670  146.7590 C   0  0  0  0  0  2  0  0  0  0  0  0
  186.9780  176.9860  146.7350 C   0  0  0  0  0  2  0  0  0  0  0  0
  184.6120  179.3180  144.7190 C   0  0  0  0  0  2  0  0  0  0  0  0
  186.7660  178.0500  142.9310 C   0  0  0  0  0  2  0  0  0  0  0  0
  185.6670  179.0960  142.7780 C   0  0  0  0  0  2  0  0  0  0  0  0
  185.2370  178.5970  145.9120 C   0  0  0  0  0  2  0  0  0  0  0  0
  186.5150  177.8280  145.5580 C   0  0  2  0  0  3  0  0  0  0  0  0
  185.5980  179.9050  143.9190 O   0  0  0  0  0  0  0  0  0  0  0  0
  186.2710  176.7480  144.1090 S   0  0  0  0  0  0  0  0  0  0  0  0
  189.6450  175.2420  142.5330 C   0  0  0  0  0  2  0  0  0  0  0  0
  188.8790  174.0020  142.9630 C   0  0  0  0  0  2  0  0  0  0  0  0
  189.7560  172.7610  142.8840 C   0  0  1  0  0  3  0  0  0  0  0  0
  193.1270  170.6440  142.3730 F   0  0  0  0  0  0  0  0  0  0  0  0
  193.3390  172.0000  142.6000 C   0  0  2  0  0  0  0  0  0  0  0  0
  191.0470  173.0810  142.2780 N   0  0  2  0  0  0  0  0  0  0  0  0
  189.9950  172.2170  144.2800 C   0  0  0  0  0  2  0  0  0  0  0  0
  191.1160  172.3310  141.0210 C   0  0  0  0  0  2  0  0  0  0  0  0
  192.0780  172.6280  143.2340 C   0  0  1  0  0  3  0  0  0  0  0  0
  193.6210  172.7020  141.2660 C   0  0  0  0  0  2  0  0  0  0  0  0
  191.4200  171.7440  144.2700 C   0  0  0  0  0  2  0  0  0  0  0  0
  192.4350  172.6100  140.2990 C   0  0  0  0  0  2  0  0  0  0  0  0
  194.4640  172.1930  143.5190 N   0  0  0  0  0  2  0  0  0  0  0  0
  195.3920  171.0680  143.4440 C   0  0  1  0  0  3  0  0  0  0  0  0
  196.6910  171.5200  142.8040 C   0  0  0  0  0  1  0  0  0  0  0  0
  195.6510  170.5180  144.8090 C   0  0  0  0  0  0  0  0  0  0  0  0
  194.8080  169.4330  146.8050 N   0  0  0  0  0  0  0  0  0  0  0  0
  197.0880  168.8050  146.2000 C   0  0  0  0  0  2  0  0  0  0  0  0
  195.9260  168.8590  147.1440 C   0  0  0  0  0  3  0  0  0  0  0  0
  197.3290  170.4520  145.4690 S   0  0  0  0  0  0  0  0  0  0  0  0
  194.6190  170.0980  145.5450 C   0  0  0  0  0  3  0  0  0  0  0  0
  1 10  1  0  0  0  0
  2  8  1  0  0  0  0
  3 13  1  0  0  0  0
  3 11  1  0  0  0  0
  4 12  1  0  0  0  0
  5  9  1  0  0  0  0
  5  2  2  0  0  0  0
  6  2  1  0  0  0  0
  7 10  1  0  0  0  0
  7  4  1  0  0  0  0
  8  4  2  0  0  0  0
  9  7  2  0  0  0  0
 10  3  2  0  0  0  0
 12 11  2  0  0  0  0
 13 14  1  0  0  0  0
 15 14  1  0  0  0  0
 16 19  1  0  0  0  0
 17 22  1  0  0  0  0
 18 17  1  0  0  0  0
 18 21  1  0  0  0  0
 20 19  1  0  0  0  0
 20 15  1  1  0  0  0
 21 16  1  0  0  0  0
 22 20  1  0  0  0  0
 23 24  1  0  0  0  0
 23  1  1  0  0  0  0
 25 24  1  1  0  0  0
 25 29  1  0  0  0  0
 27 26  1  6  0  0  0
 27 31  1  0  0  0  0
 27 35  1  0  0  0  0
 28 30  1  6  0  0  0
 28 25  1  0  0  0  0
 28 31  1  0  0  0  0
 31 33  1  1  0  0  0
 32 27  1  0  0  0  0
 33 29  1  0  0  0  0
 34 30  1  0  0  0  0
 34 32  1  0  0  0  0
 36 37  1  1  0  0  0
 36 35  1  0  0  0  0
 36 38  1  0  0  0  0
 38 42  1  0  0  0  0
 38 43  2  0  0  0  0
 39 41  2  0  0  0  0
 40 41  1  0  0  0  0
 42 40  1  0  0  0  0
 43 39  1  0  0  0  0
M  END
>  <MODEL>
3

>  <REMARK>
 VINA RESULT:      -7.1      3.236      8.976
  Name = 
  11 active torsions:
  status: ('A' for Active; 'I' for Inactive)
    1  A    between atoms: C_1  and  C_28
    2  A    between atoms: C_1  and  C_34
    3  A    between atoms: C_2  and  C_13
    4  A    between atoms: C_4  and  N_22
    5  A    between atoms: C_8  and  C_34
    6  A    between atoms: C_11  and  C_14
    7  A    between atoms: C_13  and  C_38
    8  A    between atoms: C_14  and  N_22
    9  A    between atoms: O_27  and  C_30
   10  A    between atoms: O_27  and  C_38
   11  A    between atoms: C_28  and  C_35
                            x       y       z     vdW  Elec       q    Type
                         _______ _______ _______ _____ _____    ______ ____

>  <TORSDO>
F 11

$$$$
=
 OpenBabel11052421093D

 43 48  0  0  1  0  0  0  0  0999 V2000
  195.6120  175.5750  145.0400 O   0  0  0  0  0  0  0  0  0  0  0  0
  194.6100  170.6530  144.9640 C   0  0  0  0  0  0  0  0  0  0  0  0
  196.9610  174.6780  143.1560 C   0  0  0  0  0  0  0  0  0  0  0  0
  195.9740  172.1350  143.7090 C   0  0  0  0  0  0  0  0  0  0  0  0
  194.1590  171.7080  145.7610 C   0  0  0  0  0  3  0  0  0  0  0  0
  194.1160  169.2730  145.2110 C   0  0  0  0  0  1  0  0  0  0  0  0
  195.5470  173.2290  144.4860 C   0  0  0  0  0  0  0  0  0  0  0  0
  195.5020  170.8850  143.9630 N   0  0  0  0  0  0  0  0  0  0  0  0
  194.6320  172.9980  145.5200 C   0  0  0  0  0  3  0  0  0  0  0  0
  196.0480  174.5150  144.2290 C   0  0  0  0  0  0  0  0  0  0  0  0
  197.3460  173.5960  142.4240 N   0  0  0  0  0  0  0  0  0  0  0  0
  196.8850  172.3440  142.6780 C   0  0  0  0  0  3  0  0  0  0  0  0
  197.4570  176.0230  142.7270 C   0  0  0  0  0  2  0  0  0  0  0  0
  197.0130  176.3330  141.3050 C   0  0  0  0  0  2  0  0  0  0  0  0
  195.5400  176.7130  141.2710 C   0  0  0  0  0  2  0  0  0  0  0  0
  193.2310  173.7340  140.3210 C   0  0  0  0  0  2  0  0  0  0  0  0
  194.7340  174.8420  137.8800 C   0  0  0  0  0  2  0  0  0  0  0  0
  193.6440  173.8080  138.1410 C   0  0  0  0  0  2  0  0  0  0  0  0
  193.9000  174.8140  141.1700 C   0  0  0  0  0  2  0  0  0  0  0  0
  194.7580  175.7860  140.3540 C   0  0  2  0  0  3  0  0  0  0  0  0
  192.7550  174.2690  139.1200 O   0  0  0  0  0  0  0  0  0  0  0  0
  195.9230  174.9040  139.2630 S   0  0  0  0  0  0  0  0  0  0  0  0
  194.6790  176.5630  144.6260 C   0  0  0  0  0  2  0  0  0  0  0  0
  193.4800  176.5660  145.5580 C   0  0  0  0  0  2  0  0  0  0  0  0
  192.2330  176.0550  144.8500 C   0  0  1  0  0  3  0  0  0  0  0  0
  188.3240  175.3210  144.3170 F   0  0  0  0  0  0  0  0  0  0  0  0
  188.5940  176.2730  145.2950 C   0  0  2  0  0  0  0  0  0  0  0  0
  191.0930  176.0370  145.7640 N   0  0  2  0  0  0  0  0  0  0  0  0
  191.9060  176.9610  143.6790 C   0  0  0  0  0  2  0  0  0  0  0  0
  190.7060  174.6330  145.9210 C   0  0  0  0  0  2  0  0  0  0  0  0
  190.0260  176.8220  145.1110 C   0  0  1  0  0  3  0  0  0  0  0  0
  188.4890  175.6250  146.6800 C   0  0  0  0  0  2  0  0  0  0  0  0
  190.4060  177.0420  143.6640 C   0  0  0  0  0  2  0  0  0  0  0  0
  189.5180  174.5050  146.8770 C   0  0  0  0  0  2  0  0  0  0  0  0
  187.6530  177.3920  145.1900 N   0  0  0  0  0  2  0  0  0  0  0  0
  186.3250  176.9170  144.8110 C   0  0  1  0  0  3  0  0  0  0  0  0
  185.3480  177.1780  145.9420 C   0  0  0  0  0  1  0  0  0  0  0  0
  185.8670  177.6000  143.5630 C   0  0  0  0  0  0  0  0  0  0  0  0
  186.0150  177.8460  141.1570 N   0  0  0  0  0  0  0  0  0  0  0  0
  183.7760  178.1770  142.0700 C   0  0  0  0  0  2  0  0  0  0  0  0
  184.7950  178.2630  140.9760 C   0  0  0  0  0  3  0  0  0  0  0  0
  184.5150  178.7940  143.6120 S   0  0  0  0  0  0  0  0  0  0  0  0
  186.4900  177.3330  142.4120 C   0  0  0  0  0  3  0  0  0  0  0  0
  2  6  1  0  0  0  0
  2  5  1  0  0  0  0
  3 10  1  0  0  0  0
  4  8  1  0  0  0  0
  4  7  1  0  0  0  0
  7  9  1  0  0  0  0
  8  2  2  0  0  0  0
  9  5  2  0  0  0  0
 10  7  2  0  0  0  0
 10  1  1  0  0  0  0
 11 12  1  0  0  0  0
 11  3  2  0  0  0  0
 12  4  2  0  0  0  0
 13  3  1  0  0  0  0
 14 13  1  0  0  0  0
 15 14  1  0  0  0  0
 16 19  1  0  0  0  0
 17 18  1  0  0  0  0
 17 22  1  0  0  0  0
 18 21  1  0  0  0  0
 20 19  1  0  0  0  0
 20 15  1  1  0  0  0
 21 16  1  0  0  0  0
 22 20  1  0  0  0  0
 23  1  1  0  0  0  0
 23 24  1  0  0  0  0
 25 24  1  1  0  0  0
 25 28  1  0  0  0  0
 27 26  1  6  0  0  0
 27 32  1  0  0  0  0
 28 30  1  6  0  0  0
 29 25  1  0  0  0  0
 30 34  1  0  0  0  0
 31 33  1  6  0  0  0
 31 27  1  0  0  0  0
 31 28  1  0  0  0  0
 32 34  1  0  0  0  0
 33 29  1  0  0  0  0
 35 27  1  0  0  0  0
 36 35  1  0  0  0  0
 36 37  1  1  0  0  0
 38 42  1  0  0  0  0
 38 36  1  0  0  0  0
 39 43  1  0  0  0  0
 40 42  1  0  0  0  0
 41 39  2  0  0  0  0
 41 40  1  0  0  0  0
 43 38  2  0  0  0  0
M  END
>  <MODEL>
4

>  <REMARK>
 VINA RESULT:      -7.1      2.537      5.031
  Name = 
  11 active torsions:
  status: ('A' for Active; 'I' for Inactive)
    1  A    between atoms: C_1  and  C_28
    2  A    between atoms: C_1  and  C_34
    3  A    between atoms: C_2  and  C_13
    4  A    between atoms: C_4  and  N_22
    5  A    between atoms: C_8  and  C_34
    6  A    between atoms: C_11  and  C_14
    7  A    between atoms: C_13  and  C_38
    8  A    between atoms: C_14  and  N_22
    9  A    between atoms: O_27  and  C_30
   10  A    between atoms: O_27  and  C_38
   11  A    between atoms: C_28  and  C_35
                            x       y       z     vdW  Elec       q    Type
                         _______ _______ _______ _____ _____    ______ ____

>  <TORSDO>
F 11

$$$$
=
 OpenBabel11052421093D

 43 48  0  0  1  0  0  0  0  0999 V2000
  188.9250  174.1800  143.3810 O   0  0  0  0  0  0  0  0  0  0  0  0
  193.0040  176.1650  145.5410 C   0  0  0  0  0  0  0  0  0  0  0  0
  189.0670  176.4890  142.4750 C   0  0  0  0  0  0  0  0  0  0  0  0
  191.3540  176.9090  144.0060 C   0  0  0  0  0  0  0  0  0  0  0  0
  192.3990  174.9080  145.6160 C   0  0  0  0  0  3  0  0  0  0  0  0
  194.2290  176.4460  146.3340 C   0  0  0  0  0  1  0  0  0  0  0  0
  190.7110  175.6570  144.0480 C   0  0  0  0  0  0  0  0  0  0  0  0
  192.4730  177.1320  144.7450 N   0  0  0  0  0  0  0  0  0  0  0  0
  191.2480  174.6570  144.8670 C   0  0  0  0  0  3  0  0  0  0  0  0
  189.5470  175.4350  143.2950 C   0  0  0  0  0  0  0  0  0  0  0  0
  189.7210  177.6840  142.4570 N   0  0  0  0  0  0  0  0  0  0  0  0
  190.8340  177.9170  143.1990 C   0  0  0  0  0  3  0  0  0  0  0  0
  187.9080  176.3130  141.5450 C   0  0  0  0  0  2  0  0  0  0  0  0
  186.6010  176.2450  142.3210 C   0  0  0  0  0  2  0  0  0  0  0  0
  186.2090  177.6200  142.8390 C   0  0  0  0  0  2  0  0  0  0  0  0
  184.4190  178.6780  146.1230 C   0  0  0  0  0  2  0  0  0  0  0  0
  186.8010  176.8130  146.6670 C   0  0  0  0  0  2  0  0  0  0  0  0
  185.6770  177.4490  147.4780 C   0  0  0  0  0  2  0  0  0  0  0  0
  184.7110  178.5460  144.6290 C   0  0  0  0  0  2  0  0  0  0  0  0
  185.8450  177.5650  144.3140 C   0  0  2  0  0  3  0  0  0  0  0  0
  184.4780  177.4310  146.7540 O   0  0  0  0  0  0  0  0  0  0  0  0
  187.3320  177.9120  145.3110 S   0  0  0  0  0  0  0  0  0  0  0  0
  188.9090  173.2250  142.3310 C   0  0  0  0  0  2  0  0  0  0  0  0
  189.5770  171.9390  142.7890 C   0  0  0  0  0  2  0  0  0  0  0  0
  190.8810  171.7020  142.0420 C   0  0  1  0  0  3  0  0  0  0  0  0
  193.8100  172.4300  139.3960 F   0  0  0  0  0  0  0  0  0  0  0  0
  193.0000  173.5290  139.6610 C   0  0  2  0  0  0  0  0  0  0  0  0
  190.9640  172.5650  140.8650 N   0  0  2  0  0  0  0  0  0  0  0  0
  192.0530  172.0080  142.9540 C   0  0  0  0  0  2  0  0  0  0  0  0
  190.9700  171.6800  139.6970 C   0  0  0  0  0  2  0  0  0  0  0  0
  192.2340  173.3090  140.9850 C   0  0  1  0  0  3  0  0  0  0  0  0
  191.9830  173.6990  138.5260 C   0  0  0  0  0  2  0  0  0  0  0  0
  193.0720  172.6620  142.0650 C   0  0  0  0  0  2  0  0  0  0  0  0
  191.0420  172.4930  138.4040 C   0  0  0  0  0  2  0  0  0  0  0  0
  193.8130  174.7410  139.7940 N   0  0  0  0  0  2  0  0  0  0  0  0
  195.2360  174.4190  139.7340 C   0  0  1  0  0  3  0  0  0  0  0  0
  195.8440  175.0230  138.4820 C   0  0  0  0  0  1  0  0  0  0  0  0
  195.9360  174.9330  140.9500 C   0  0  0  0  0  0  0  0  0  0  0  0
  196.4480  176.7860  142.4240 N   0  0  0  0  0  0  0  0  0  0  0  0
  196.2310  174.6320  143.5500 C   0  0  0  0  0  2  0  0  0  0  0  0
  196.6280  176.0750  143.4990 C   0  0  0  0  0  3  0  0  0  0  0  0
  196.8240  173.8040  142.0430 S   0  0  0  0  0  0  0  0  0  0  0  0
  195.9170  176.2430  141.2050 C   0  0  0  0  0  3  0  0  0  0  0  0
  2  5  1  0  0  0  0
  2  6  1  0  0  0  0
  3 10  1  0  0  0  0
  4  7  1  0  0  0  0
  4  8  1  0  0  0  0
  7  9  1  0  0  0  0
  8  2  2  0  0  0  0
  9  5  2  0  0  0  0
 10  1  1  0  0  0  0
 10  7  2  0  0  0  0
 11  3  2  0  0  0  0
 11 12  1  0  0  0  0
 12  4  2  0  0  0  0
 13 14  1  0  0  0  0
 13  3  1  0  0  0  0
 14 15  1  0  0  0  0
 16 21  1  0  0  0  0
 17 18  1  0  0  0  0
 19 16  1  0  0  0  0
 20 15  1  6  0  0  0
 20 19  1  0  0  0  0
 20 22  1  0  0  0  0
 21 18  1  0  0  0  0
 22 17  1  0  0  0  0
 23 24  1  0  0  0  0
 23  1  1  0  0  0  0
 25 24  1  1  0  0  0
 25 29  1  0  0  0  0
 27 26  1  6  0  0  0
 27 35  1  0  0  0  0
 27 31  1  0  0  0  0
 28 30  1  6  0  0  0
 28 31  1  0  0  0  0
 28 25  1  0  0  0  0
 31 33  1  1  0  0  0
 32 27  1  0  0  0  0
 33 29  1  0  0  0  0
 34 32  1  0  0  0  0
 34 30  1  0  0  0  0
 36 37  1  6  0  0  0
 36 35  1  0  0  0  0
 36 38  1  0  0  0  0
 38 43  2  0  0  0  0
 38 42  1  0  0  0  0
 39 41  2  0  0  0  0
 41 40  1  0  0  0  0
 42 40  1  0  0  0  0
 43 39  1  0  0  0  0
M  END
>  <MODEL>
5

>  <REMARK>
 VINA RESULT:      -7.0      3.064      8.599
  Name = 
  11 active torsions:
  status: ('A' for Active; 'I' for Inactive)
    1  A    between atoms: C_1  and  C_28
    2  A    between atoms: C_1  and  C_34
    3  A    between atoms: C_2  and  C_13
    4  A    between atoms: C_4  and  N_22
    5  A    between atoms: C_8  and  C_34
    6  A    between atoms: C_11  and  C_14
    7  A    between atoms: C_13  and  C_38
    8  A    between atoms: C_14  and  N_22
    9  A    between atoms: O_27  and  C_30
   10  A    between atoms: O_27  and  C_38
   11  A    between atoms: C_28  and  C_35
                            x       y       z     vdW  Elec       q    Type
                         _______ _______ _______ _____ _____    ______ ____

>  <TORSDO>
F 11

$$$$
=
 OpenBabel11052421093D

 43 48  0  0  1  0  0  0  0  0999 V2000
  191.9760  172.6260  144.6520 O   0  0  0  0  0  0  0  0  0  0  0  0
  189.2210  172.6470  140.4520 C   0  0  0  0  0  0  0  0  0  0  0  0
  192.5420  170.4950  143.5080 C   0  0  0  0  0  0  0  0  0  0  0  0
  190.7770  171.1670  141.4630 C   0  0  0  0  0  0  0  0  0  0  0  0
  189.3710  173.5580  141.5000 C   0  0  0  0  0  3  0  0  0  0  0  0
  188.2950  172.9540  139.3310 C   0  0  0  0  0  1  0  0  0  0  0  0
  190.9610  172.0560  142.5410 C   0  0  0  0  0  0  0  0  0  0  0  0
  189.9200  171.4800  140.4550 N   0  0  0  0  0  0  0  0  0  0  0  0
  190.2440  173.2580  142.5470 C   0  0  0  0  0  3  0  0  0  0  0  0
  191.8350  171.7230  143.5880 C   0  0  0  0  0  0  0  0  0  0  0  0
  192.3390  169.6660  142.4470 N   0  0  0  0  0  0  0  0  0  0  0  0
  191.4790  169.9670  141.4400 C   0  0  0  0  0  3  0  0  0  0  0  0
  193.5830  170.1070  144.5100 C   0  0  0  0  0  2  0  0  0  0  0  0
  194.7300  169.3670  143.8350 C   0  0  0  0  0  2  0  0  0  0  0  0
  195.5470  170.3150  142.9700 C   0  0  0  0  0  2  0  0  0  0  0  0
  197.0050  173.8730  143.5410 C   0  0  0  0  0  2  0  0  0  0  0  0
  196.8290  172.2740  146.1600 C   0  0  0  0  0  2  0  0  0  0  0  0
  197.1820  173.6990  145.7470 C   0  0  0  0  0  2  0  0  0  0  0  0
  196.3850  172.6780  142.8190 C   0  0  0  0  0  2  0  0  0  0  0  0
  195.9790  171.5400  143.7610 C   0  0  2  0  0  3  0  0  0  0  0  0
  196.3250  174.1430  144.7320 O   0  0  0  0  0  0  0  0  0  0  0  0
  197.3410  171.0760  144.8820 S   0  0  0  0  0  0  0  0  0  0  0  0
  193.0010  173.6050  144.7370 C   0  0  0  0  0  2  0  0  0  0  0  0
  192.9980  174.2410  146.1170 C   0  0  0  0  0  2  0  0  0  0  0  0
  192.1510  175.5050  146.1370 C   0  0  1  0  0  3  0  0  0  0  0  0
  189.6050  178.2700  144.7290 F   0  0  0  0  0  0  0  0  0  0  0  0
  189.5960  177.0760  144.0160 C   0  0  2  0  0  0  0  0  0  0  0  0
  191.6910  175.8370  144.7900 N   0  0  2  0  0  0  0  0  0  0  0  0
  190.9410  175.2930  147.0260 C   0  0  0  0  0  2  0  0  0  0  0  0
  192.3090  177.1190  144.4410 C   0  0  0  0  0  2  0  0  0  0  0  0
  190.2210  175.9500  144.8700 C   0  0  1  0  0  3  0  0  0  0  0  0
  190.4240  177.2410  142.7360 C   0  0  0  0  0  2  0  0  0  0  0  0
  189.8200  176.0060  146.3270 C   0  0  0  0  0  2  0  0  0  0  0  0
  191.8970  177.5510  143.0330 C   0  0  0  0  0  2  0  0  0  0  0  0
  188.2220  176.6930  143.6800 N   0  0  0  0  0  2  0  0  0  0  0  0
  187.3640  177.8720  143.5880 C   0  0  1  0  0  3  0  0  0  0  0  0
  186.9220  178.0700  142.1510 C   0  0  0  0  0  1  0  0  0  0  0  0
  186.1760  177.7190  144.4810 C   0  0  0  0  0  0  0  0  0  0  0  0
  185.2610  177.0750  146.6300 N   0  0  0  0  0  0  0  0  0  0  0  0
  184.1390  178.9730  145.5830 C   0  0  0  0  0  2  0  0  0  0  0  0
  184.2390  177.8800  146.6030 C   0  0  0  0  0  3  0  0  0  0  0  0
  184.5490  178.2920  143.9480 S   0  0  0  0  0  0  0  0  0  0  0  0
  186.3280  177.1300  145.6690 C   0  0  0  0  0  3  0  0  0  0  0  0
  1 23  1  0  0  0  0
  2  8  2  0  0  0  0
  2  5  1  0  0  0  0
  3 10  1  0  0  0  0
  3 13  1  0  0  0  0
  4  7  1  0  0  0  0
  5  9  2  0  0  0  0
  6  2  1  0  0  0  0
  7  9  1  0  0  0  0
  7 10  2  0  0  0  0
  8  4  1  0  0  0  0
 10  1  1  0  0  0  0
 11  3  2  0  0  0  0
 12  4  2  0  0  0  0
 12 11  1  0  0  0  0
 14 13  1  0  0  0  0
 15 14  1  0  0  0  0
 16 21  1  0  0  0  0
 18 17  1  0  0  0  0
 19 16  1  0  0  0  0
 19 20  1  0  0  0  0
 20 15  1  6  0  0  0
 20 22  1  0  0  0  0
 21 18  1  0  0  0  0
 22 17  1  0  0  0  0
 23 24  1  0  0  0  0
 25 24  1  6  0  0  0
 25 29  1  0  0  0  0
 27 26  1  1  0  0  0
 27 31  1  0  0  0  0
 28 30  1  1  0  0  0
 28 31  1  0  0  0  0
 28 25  1  0  0  0  0
 31 33  1  1  0  0  0
 32 34  1  0  0  0  0
 32 27  1  0  0  0  0
 33 29  1  0  0  0  0
 34 30  1  0  0  0  0
 35 27  1  0  0  0  0
 36 37  1  6  0  0  0
 36 35  1  0  0  0  0
 36 38  1  0  0  0  0
 38 43  2  0  0  0  0
 40 41  1  0  0  0  0
 41 39  2  0  0  0  0
 42 38  1  0  0  0  0
 42 40  1  0  0  0  0
 43 39  1  0  0  0  0
M  END
>  <MODEL>
6

>  <REMARK>
 VINA RESULT:      -6.9      2.048      2.823
  Name = 
  11 active torsions:
  status: ('A' for Active; 'I' for Inactive)
    1  A    between atoms: C_1  and  C_28
    2  A    between atoms: C_1  and  C_34
    3  A    between atoms: C_2  and  C_13
    4  A    between atoms: C_4  and  N_22
    5  A    between atoms: C_8  and  C_34
    6  A    between atoms: C_11  and  C_14
    7  A    between atoms: C_13  and  C_38
    8  A    between atoms: C_14  and  N_22
    9  A    between atoms: O_27  and  C_30
   10  A    between atoms: O_27  and  C_38
   11  A    between atoms: C_28  and  C_35
                            x       y       z     vdW  Elec       q    Type
                         _______ _______ _______ _____ _____    ______ ____

>  <TORSDO>
F 11

$$$$
=
 OpenBabel11052421093D

 43 48  0  0  1  0  0  0  0  0999 V2000
  195.2970  175.0370  144.9260 O   0  0  0  0  0  0  0  0  0  0  0  0
  197.0800  170.3510  145.2360 C   0  0  0  0  0  0  0  0  0  0  0  0
  194.9000  174.0540  142.6790 C   0  0  0  0  0  0  0  0  0  0  0  0
  196.0570  171.6790  143.5550 C   0  0  0  0  0  0  0  0  0  0  0  0
  196.9870  171.4010  146.1530 C   0  0  0  0  0  3  0  0  0  0  0  0
  197.6860  169.0580  145.6480 C   0  0  0  0  0  1  0  0  0  0  0  0
  195.9410  172.7640  144.4460 C   0  0  0  0  0  0  0  0  0  0  0  0
  196.6180  170.5100  143.9670 N   0  0  0  0  0  0  0  0  0  0  0  0
  196.4170  172.6100  145.7530 C   0  0  0  0  0  3  0  0  0  0  0  0
  195.3750  173.9740  144.0130 C   0  0  0  0  0  0  0  0  0  0  0  0
  195.0250  172.9800  141.8510 N   0  0  0  0  0  0  0  0  0  0  0  0
  195.5920  171.8130  142.2510 C   0  0  0  0  0  3  0  0  0  0  0  0
  194.1730  175.2550  142.1610 C   0  0  0  0  0  2  0  0  0  0  0  0
  193.0510  174.8400  141.2200 C   0  0  0  0  0  2  0  0  0  0  0  0
  191.8930  174.2320  141.9960 C   0  0  0  0  0  2  0  0  0  0  0  0
  188.0810  174.3800  141.2520 C   0  0  0  0  0  2  0  0  0  0  0  0
  189.6590  173.1710  138.9080 C   0  0  0  0  0  2  0  0  0  0  0  0
  188.2190  173.5920  139.1810 C   0  0  0  0  0  2  0  0  0  0  0  0
  189.4060  174.5770  141.9870 C   0  0  0  0  0  2  0  0  0  0  0  0
  190.6300  174.1920  141.1500 C   0  0  2  0  0  3  0  0  0  0  0  0
  188.1870  174.7830  139.9180 O   0  0  0  0  0  0  0  0  0  0  0  0
  190.4520  172.5300  140.4220 S   0  0  0  0  0  0  0  0  0  0  0  0
  194.2160  175.2370  145.8260 C   0  0  0  0  0  2  0  0  0  0  0  0
  193.5110  176.5450  145.5070 C   0  0  0  0  0  2  0  0  0  0  0  0
  192.1510  176.2930  144.8710 C   0  0  1  0  0  3  0  0  0  0  0  0
  188.1730  175.7810  144.7350 F   0  0  0  0  0  0  0  0  0  0  0  0
  188.6300  176.3630  145.9140 C   0  0  2  0  0  0  0  0  0  0  0  0
  191.1550  175.9820  145.8950 N   0  0  2  0  0  0  0  0  0  0  0  0
  191.7060  177.5320  144.1180 C   0  0  0  0  0  2  0  0  0  0  0  0
  190.7220  174.6040  145.6500 C   0  0  0  0  0  2  0  0  0  0  0  0
  190.0470  176.9390  145.6990 C   0  0  1  0  0  3  0  0  0  0  0  0
  188.6910  175.2990  147.0160 C   0  0  0  0  0  2  0  0  0  0  0  0
  190.2260  177.6170  144.3590 C   0  0  0  0  0  2  0  0  0  0  0  0
  189.6800  174.1750  146.6840 C   0  0  0  0  0  2  0  0  0  0  0  0
  187.7430  177.4570  146.3180 N   0  0  0  0  0  2  0  0  0  0  0  0
  186.3430  177.0950  146.1040 C   0  0  1  0  0  3  0  0  0  0  0  0
  185.5170  177.5200  147.3030 C   0  0  0  0  0  1  0  0  0  0  0  0
  185.8250  177.7430  144.8610 C   0  0  0  0  0  0  0  0  0  0  0  0
  184.8940  177.5190  142.6350 N   0  0  0  0  0  0  0  0  0  0  0  0
  184.0500  179.4310  143.8950 C   0  0  0  0  0  2  0  0  0  0  0  0
  184.2390  178.6440  142.6350 C   0  0  0  0  0  3  0  0  0  0  0  0
  185.6400  179.5360  144.7690 S   0  0  0  0  0  0  0  0  0  0  0  0
  185.5240  176.9790  143.8080 C   0  0  0  0  0  3  0  0  0  0  0  0
  1 23  1  0  0  0  0
  2  6  1  0  0  0  0
  2  5  1  0  0  0  0
  3 10  1  0  0  0  0
  4  8  1  0  0  0  0
  4  7  1  0  0  0  0
  7  9  1  0  0  0  0
  8  2  2  0  0  0  0
  9  5  2  0  0  0  0
 10  7  2  0  0  0  0
 10  1  1  0  0  0  0
 11 12  1  0  0  0  0
 11  3  2  0  0  0  0
 12  4  2  0  0  0  0
 13  3  1  0  0  0  0
 14 15  1  0  0  0  0
 14 13  1  0  0  0  0
 16 19  1  0  0  0  0
 17 18  1  0  0  0  0
 17 22  1  0  0  0  0
 18 21  1  0  0  0  0
 20 19  1  0  0  0  0
 20 15  1  1  0  0  0
 21 16  1  0  0  0  0
 22 20  1  0  0  0  0
 24 23  1  0  0  0  0
 25 24  1  1  0  0  0
 25 28  1  0  0  0  0
 27 26  1  6  0  0  0
 27 35  1  0  0  0  0
 27 32  1  0  0  0  0
 28 30  1  6  0  0  0
 29 33  1  0  0  0  0
 29 25  1  0  0  0  0
 30 34  1  0  0  0  0
 31 33  1  6  0  0  0
 31 28  1  0  0  0  0
 31 27  1  0  0  0  0
 34 32  1  0  0  0  0
 36 35  1  0  0  0  0
 36 37  1  1  0  0  0
 38 36  1  0  0  0  0
 39 41  2  0  0  0  0
 39 43  1  0  0  0  0
 40 42  1  0  0  0  0
 41 40  1  0  0  0  0
 42 38  1  0  0  0  0
 43 38  2  0  0  0  0
M  END
>  <MODEL>
7

>  <REMARK>
 VINA RESULT:      -6.9      2.181      5.546
  Name = 
  11 active torsions:
  status: ('A' for Active; 'I' for Inactive)
    1  A    between atoms: C_1  and  C_28
    2  A    between atoms: C_1  and  C_34
    3  A    between atoms: C_2  and  C_13
    4  A    between atoms: C_4  and  N_22
    5  A    between atoms: C_8  and  C_34
    6  A    between atoms: C_11  and  C_14
    7  A    between atoms: C_13  and  C_38
    8  A    between atoms: C_14  and  N_22
    9  A    between atoms: O_27  and  C_30
   10  A    between atoms: O_27  and  C_38
   11  A    between atoms: C_28  and  C_35
                            x       y       z     vdW  Elec       q    Type
                         _______ _______ _______ _____ _____    ______ ____

>  <TORSDO>
F 11

$$$$
=
 OpenBabel11052421093D

 43 48  0  0  1  0  0  0  0  0999 V2000
  193.4080  172.7820  144.4540 O   0  0  0  0  0  0  0  0  0  0  0  0
  196.7590  169.3510  145.9480 C   0  0  0  0  0  0  0  0  0  0  0  0
  192.4860  170.6110  143.6770 C   0  0  0  0  0  0  0  0  0  0  0  0
  194.7010  169.3230  144.7660 C   0  0  0  0  0  0  0  0  0  0  0  0
  196.6840  170.7390  146.0910 C   0  0  0  0  0  3  0  0  0  0  0  0
  197.9170  168.6100  146.5110 C   0  0  0  0  0  1  0  0  0  0  0  0
  194.5820  170.7210  144.8870 C   0  0  0  0  0  0  0  0  0  0  0  0
  195.7760  168.6770  145.2930 N   0  0  0  0  0  0  0  0  0  0  0  0
  195.5910  171.4230  145.5570 C   0  0  0  0  0  3  0  0  0  0  0  0
  193.4790  171.3860  144.3290 C   0  0  0  0  0  0  0  0  0  0  0  0
  192.6350  169.2600  143.5850 N   0  0  0  0  0  0  0  0  0  0  0  0
  193.7090  168.6090  144.1020 C   0  0  0  0  0  3  0  0  0  0  0  0
  191.2170  171.2100  143.1580 C   0  0  0  0  0  2  0  0  0  0  0  0
  190.8940  170.6690  141.7720 C   0  0  0  0  0  2  0  0  0  0  0  0
  191.6530  171.4390  140.7030 C   0  0  0  0  0  2  0  0  0  0  0  0
  188.3070  173.0040  139.4950 C   0  0  0  0  0  2  0  0  0  0  0  0
  190.2180  172.4400  137.1550 C   0  0  0  0  0  2  0  0  0  0  0  0
  188.8680  173.1230  137.3500 C   0  0  0  0  0  2  0  0  0  0  0  0
  189.3830  172.4820  140.4450 C   0  0  0  0  0  2  0  0  0  0  0  0
  190.6960  172.1240  139.7400 C   0  0  2  0  0  3  0  0  0  0  0  0
  188.8600  173.8620  138.5400 O   0  0  0  0  0  0  0  0  0  0  0  0
  190.4140  171.0360  138.3040 S   0  0  0  0  0  0  0  0  0  0  0  0
  193.8900  173.6960  143.4790 C   0  0  0  0  0  2  0  0  0  0  0  0
  193.0210  174.9420  143.4620 C   0  0  0  0  0  2  0  0  0  0  0  0
  191.6790  174.6840  144.1330 C   0  0  1  0  0  3  0  0  0  0  0  0
  188.4840  175.4720  146.4300 F   0  0  0  0  0  0  0  0  0  0  0  0
  189.2250  176.5980  146.0840 C   0  0  2  0  0  0  0  0  0  0  0  0
  191.4270  175.6770  145.1760 N   0  0  2  0  0  0  0  0  0  0  0  0
  190.5710  174.7680  143.1020 C   0  0  0  0  0  2  0  0  0  0  0  0
  191.3900  174.9470  146.4460 C   0  0  0  0  0  2  0  0  0  0  0  0
  190.1170  176.2830  144.8630 C   0  0  1  0  0  3  0  0  0  0  0  0
  190.1230  176.9980  147.2610 C   0  0  0  0  0  2  0  0  0  0  0  0
  189.4300  175.4350  143.8170 C   0  0  0  0  0  2  0  0  0  0  0  0
  191.1410  175.9060  147.6110 C   0  0  0  0  0  2  0  0  0  0  0  0
  188.3330  177.7060  145.7320 N   0  0  0  0  0  2  0  0  0  0  0  0
  186.9360  177.2860  145.7930 C   0  0  1  0  0  3  0  0  0  0  0  0
  186.2800  177.8730  147.0280 C   0  0  0  0  0  1  0  0  0  0  0  0
  186.2090  177.7220  144.5630 C   0  0  0  0  0  0  0  0  0  0  0  0
  185.2620  177.1670  142.4030 N   0  0  0  0  0  0  0  0  0  0  0  0
  184.0120  178.8510  143.6500 C   0  0  0  0  0  2  0  0  0  0  0  0
  184.3390  178.0840  142.4060 C   0  0  0  0  0  3  0  0  0  0  0  0
  185.5610  179.4010  144.4270 S   0  0  0  0  0  0  0  0  0  0  0  0
  186.0660  176.8600  143.5530 C   0  0  0  0  0  3  0  0  0  0  0  0
  2  5  1  0  0  0  0
  2  6  1  0  0  0  0
  3 10  1  0  0  0  0
  4  7  1  0  0  0  0
  4  8  1  0  0  0  0
  7  9  1  0  0  0  0
  8  2  2  0  0  0  0
  9  5  2  0  0  0  0
 10  1  1  0  0  0  0
 10  7  2  0  0  0  0
 11  3  2  0  0  0  0
 11 12  1  0  0  0  0
 12  4  2  0  0  0  0
 13  3  1  0  0  0  0
 14 13  1  0  0  0  0
 15 14  1  0  0  0  0
 16 19  1  0  0  0  0
 17 18  1  0  0  0  0
 17 22  1  0  0  0  0
 18 21  1  0  0  0  0
 20 19  1  0  0  0  0
 20 15  1  1  0  0  0
 21 16  1  0  0  0  0
 22 20  1  0  0  0  0
 23  1  1  0  0  0  0
 24 23  1  0  0  0  0
 25 24  1  6  0  0  0
 25 28  1  0  0  0  0
 27 26  1  1  0  0  0
 27 32  1  0  0  0  0
 28 30  1  1  0  0  0
 29 33  1  0  0  0  0
 29 25  1  0  0  0  0
 30 34  1  0  0  0  0
 31 33  1  6  0  0  0
 31 28  1  0  0  0  0
 31 27  1  0  0  0  0
 32 34  1  0  0  0  0
 35 36  1  0  0  0  0
 35 27  1  0  0  0  0
 36 37  1  1  0  0  0
 38 36  1  0  0  0  0
 39 41  2  0  0  0  0
 39 43  1  0  0  0  0
 40 42  1  0  0  0  0
 41 40  1  0  0  0  0
 42 38  1  0  0  0  0
 43 38  2  0  0  0  0
M  END
>  <MODEL>
8

>  <REMARK>
 VINA RESULT:      -6.7      2.728      5.835
  Name = 
  11 active torsions:
  status: ('A' for Active; 'I' for Inactive)
    1  A    between atoms: C_1  and  C_28
    2  A    between atoms: C_1  and  C_34
    3  A    between atoms: C_2  and  C_13
    4  A    between atoms: C_4  and  N_22
    5  A    between atoms: C_8  and  C_34
    6  A    between atoms: C_11  and  C_14
    7  A    between atoms: C_13  and  C_38
    8  A    between atoms: C_14  and  N_22
    9  A    between atoms: O_27  and  C_30
   10  A    between atoms: O_27  and  C_38
   11  A    between atoms: C_28  and  C_35
                            x       y       z     vdW  Elec       q    Type
                         _______ _______ _______ _____ _____    ______ ____

>  <TORSDO>
F 11

$$$$
=
 OpenBabel11052421093D

 43 48  0  0  1  0  0  0  0  0999 V2000
  193.4140  174.3930  140.5140 O   0  0  0  0  0  0  0  0  0  0  0  0
  196.9790  175.4310  137.1310 C   0  0  0  0  0  0  0  0  0  0  0  0
  195.4600  174.8250  141.8550 C   0  0  0  0  0  0  0  0  0  0  0  0
  196.8680  175.2730  139.4960 C   0  0  0  0  0  0  0  0  0  0  0  0
  195.6200  175.1260  137.0240 C   0  0  0  0  0  3  0  0  0  0  0  0
  197.7800  175.6830  135.9050 C   0  0  0  0  0  1  0  0  0  0  0  0
  195.4940  174.9640  139.4370 C   0  0  0  0  0  0  0  0  0  0  0  0
  197.5710  175.4970  138.3540 N   0  0  0  0  0  0  0  0  0  0  0  0
  194.8790  174.8900  138.1820 C   0  0  0  0  0  3  0  0  0  0  0  0
  194.7750  174.7180  140.6180 C   0  0  0  0  0  0  0  0  0  0  0  0
  196.7870  175.1310  141.8710 N   0  0  0  0  0  0  0  0  0  0  0  0
  197.4980  175.3480  140.7340 C   0  0  0  0  0  3  0  0  0  0  0  0
  194.7570  174.7020  143.1710 C   0  0  0  0  0  2  0  0  0  0  0  0
  194.3920  176.0750  143.7160 C   0  0  0  0  0  2  0  0  0  0  0  0
  192.9330  176.3970  143.4340 C   0  0  0  0  0  2  0  0  0  0  0  0
  190.1570  177.2140  146.0290 C   0  0  0  0  0  2  0  0  0  0  0  0
  192.1410  175.1230  147.0950 C   0  0  0  0  0  2  0  0  0  0  0  0
  190.8290  175.7490  147.5550 C   0  0  0  0  0  2  0  0  0  0  0  0
  190.9410  177.2290  144.7180 C   0  0  0  0  0  2  0  0  0  0  0  0
  192.0800  176.2050  144.6780 C   0  0  2  0  0  3  0  0  0  0  0  0
  189.9530  175.9040  146.4730 O   0  0  0  0  0  0  0  0  0  0  0  0
  193.1440  176.3230  146.1550 S   0  0  0  0  0  0  0  0  0  0  0  0
  192.8840  173.0960  140.7470 C   0  0  0  0  0  2  0  0  0  0  0  0
  191.9880  172.6870  139.5900 C   0  0  0  0  0  2  0  0  0  0  0  0
  190.5370  172.5700  140.0360 C   0  0  1  0  0  3  0  0  0  0  0  0
  187.1860  173.5600  142.0100 F   0  0  0  0  0  0  0  0  0  0  0  0
  188.1300  174.5800  141.9490 C   0  0  2  0  0  0  0  0  0  0  0  0
  190.2810  173.4340  141.1870 N   0  0  2  0  0  0  0  0  0  0  0  0
  189.6210  172.9860  138.9010 C   0  0  0  0  0  2  0  0  0  0  0  0
  189.9460  172.5500  142.3060 C   0  0  0  0  0  2  0  0  0  0  0  0
  189.1390  174.2930  140.8150 C   0  0  1  0  0  3  0  0  0  0  0  0
  188.8900  174.6510  143.2790 C   0  0  0  0  0  2  0  0  0  0  0  0
  188.4980  173.7290  139.5660 C   0  0  0  0  0  2  0  0  0  0  0  0
  189.6700  173.3640  143.5720 C   0  0  0  0  0  2  0  0  0  0  0  0
  187.4770  175.8620  141.6730 N   0  0  0  0  0  2  0  0  0  0  0  0
  187.8470  176.8580  142.6760 C   0  0  1  0  0  3  0  0  0  0  0  0
  188.6000  177.9950  142.0110 C   0  0  0  0  0  1  0  0  0  0  0  0
  186.6270  177.3770  143.3660 C   0  0  0  0  0  0  0  0  0  0  0  0
  185.2360  177.4530  145.3480 N   0  0  0  0  0  0  0  0  0  0  0  0
  185.3330  179.5490  144.1020 C   0  0  0  0  0  2  0  0  0  0  0  0
  184.7500  178.6430  145.1420 C   0  0  0  0  0  3  0  0  0  0  0  0
  185.5740  178.6050  142.5670 S   0  0  0  0  0  0  0  0  0  0  0  0
  186.3120  176.9010  144.5730 C   0  0  0  0  0  3  0  0  0  0  0  0
  1 10  1  0  0  0  0
  1 23  1  0  0  0  0
  2  8  1  0  0  0  0
  3 11  1  0  0  0  0
  3 13  1  0  0  0  0
  4 12  1  0  0  0  0
  5  2  2  0  0  0  0
  5  9  1  0  0  0  0
  6  2  1  0  0  0  0
  7  4  1  0  0  0  0
  7 10  1  0  0  0  0
  8  4  2  0  0  0  0
  9  7  2  0  0  0  0
 10  3  2  0  0  0  0
 12 11  2  0  0  0  0
 13 14  1  0  0  0  0
 15 14  1  0  0  0  0
 16 21  1  0  0  0  0
 17 18  1  0  0  0  0
 19 16  1  0  0  0  0
 20 15  1  6  0  0  0
 20 19  1  0  0  0  0
 20 22  1  0  0  0  0
 21 18  1  0  0  0  0
 22 17  1  0  0  0  0
 24 23  1  0  0  0  0
 25 24  1  6  0  0  0
 25 28  1  0  0  0  0
 27 26  1  1  0  0  0
 27 32  1  0  0  0  0
 28 30  1  1  0  0  0
 29 33  1  0  0  0  0
 29 25  1  0  0  0  0
 30 34  1  0  0  0  0
 31 33  1  6  0  0  0
 31 28  1  0  0  0  0
 31 27  1  0  0  0  0
 32 34  1  0  0  0  0
 35 27  1  0  0  0  0
 35 36  1  0  0  0  0
 36 37  1  6  0  0  0
 36 38  1  0  0  0  0
 38 43  2  0  0  0  0
 40 41  1  0  0  0  0
 41 39  2  0  0  0  0
 42 38  1  0  0  0  0
 42 40  1  0  0  0  0
 43 39  1  0  0  0  0
M  END
>  <MODEL>
9

>  <REMARK>
 VINA RESULT:      -6.7      3.257      5.125
  Name = 
  11 active torsions:
  status: ('A' for Active; 'I' for Inactive)
    1  A    between atoms: C_1  and  C_28
    2  A    between atoms: C_1  and  C_34
    3  A    between atoms: C_2  and  C_13
    4  A    between atoms: C_4  and  N_22
    5  A    between atoms: C_8  and  C_34
    6  A    between atoms: C_11  and  C_14
    7  A    between atoms: C_13  and  C_38
    8  A    between atoms: C_14  and  N_22
    9  A    between atoms: O_27  and  C_30
   10  A    between atoms: O_27  and  C_38
   11  A    between atoms: C_28  and  C_35
                            x       y       z     vdW  Elec       q    Type
                         _______ _______ _______ _____ _____    ______ ____

>  <TORSDO>
F 11

$$$$
