=
 OpenBabel11052420333D

 34 39  0  0  1  0  0  0  0  0999 V2000
  189.3400  175.4960  144.4220 C   0  0  0  0  0  0  0  0  0  0  0  0
  186.1730  177.0810  143.3250 C   0  0  0  0  0  3  0  0  0  0  0  0
  187.3800  175.3530  142.4100 N   0  0  0  0  0  0  0  0  0  0  0  0
  191.4160  174.3850  145.1330 C   0  0  0  0  0  0  0  0  0  0  0  0
  190.3660  175.3200  145.3800 C   0  0  0  0  0  3  0  0  0  0  0  0
  190.4030  173.8260  143.0290 C   0  0  0  0  0  0  0  0  0  0  0  0
  190.0210  173.1170  141.8430 N   0  0  0  0  0  0  0  0  0  0  0  0
  191.4260  173.5980  143.9490 C   0  0  0  0  0  3  0  0  0  0  0  0
  188.5220  174.6280  142.3510 C   0  0  0  0  0  0  0  0  0  0  0  0
  189.4580  174.7440  143.2860 C   0  0  0  0  0  0  0  0  0  0  0  0
  188.8990  173.5950  141.4370 N   0  0  0  0  0  0  0  0  0  0  0  0
  185.9460  178.3050  144.1440 C   0  0  0  0  0  2  0  0  0  0  0  0
  185.7270  178.0060  145.5850 C   0  0  0  0  0  0  0  0  0  0  0  0
  186.6740  177.4070  146.3010 C   0  0  0  0  0  3  0  0  0  0  0  0
  187.1930  176.2300  143.4570 C   0  0  0  0  0  0  0  0  0  0  0  0
  187.9040  176.7830  145.7780 C   0  0  0  0  0  3  0  0  0  0  0  0
  188.1470  176.2590  144.5610 C   0  0  0  0  0  0  0  0  0  0  0  0
  184.5590  178.5170  146.2430 N   0  0  0  0  0  0  0  0  0  0  0  0
  183.5880  178.9290  145.5730 O   0  0  0  0  0  0  0  0  0  0  0  0
  184.4810  178.5370  147.6170 O   0  0  0  0  0  0  0  0  0  0  0  0
  192.5060  174.2200  146.1390 C   0  0  0  0  0  2  0  0  0  0  0  0
  195.3080  173.1080  144.0400 C   0  0  0  0  0  3  0  0  0  0  0  0
  194.1890  175.7150  145.2150 C   0  0  0  0  0  3  0  0  0  0  0  0
  197.2660  175.0340  141.5570 C   0  0  2  0  0  3  0  0  0  0  0  0
  196.5970  173.7470  142.0520 C   0  0  0  0  0  2  0  0  0  0  0  0
  195.9860  174.0400  143.3720 C   0  0  0  0  0  0  0  0  0  0  0  0
  195.4600  176.1430  144.5950 C   0  0  0  0  0  3  0  0  0  0  0  0
  196.2810  175.3850  143.8600 C   0  0  0  0  0  0  0  0  0  0  0  0
  197.6320  176.1290  142.9790 S   0  0  0  0  0  0  0  0  0  0  0  0
  193.8420  174.4610  145.5190 C   0  0  0  0  0  0  0  0  0  0  0  0
  194.8040  173.3180  145.4290 C   0  0  0  0  0  2  0  0  0  0  0  0
  196.4070  175.7360  140.5550 C   0  0  0  0  0  0  0  0  0  0  0  0
  195.6750  176.7020  140.9000 O   0  0  0  0  0  0  0  0  0  0  0  0
  196.4190  175.3100  139.1980 N   0  0  0  0  0  1  0  0  0  0  0  0
  1 17  1  0  0  0  0
  1  5  1  0  0  0  0
  2 15  2  0  0  0  0
  2 12  1  0  0  0  0
  3 15  1  0  0  0  0
  4  5  2  0  0  0  0
  4 21  1  0  0  0  0
  6 10  1  0  0  0  0
  6  8  2  0  0  0  0
  7  6  1  0  0  0  0
  8  4  1  0  0  0  0
  9  3  2  0  0  0  0
  9 10  1  0  0  0  0
 10  1  2  0  0  0  0
 11  7  2  0  0  0  0
 11  9  1  0  0  0  0
 12 13  1  0  0  0  0
 13 18  1  0  0  0  0
 13 14  2  0  0  0  0
 15 17  1  0  0  0  0
 16 14  1  0  0  0  0
 17 16  2  0  0  0  0
 18 20  2  0  0  0  0
 19 18  2  0  0  0  0
 22 31  1  0  0  0  0
 23 30  2  0  0  0  0
 24 32  1  6  0  0  0
 24 25  1  0  0  0  0
 24 29  1  0  0  0  0
 25 26  1  0  0  0  0
 26 28  1  0  0  0  0
 26 22  2  0  0  0  0
 27 23  1  0  0  0  0
 28 27  2  0  0  0  0
 29 28  1  0  0  0  0
 30 21  1  0  0  0  0
 31 30  1  0  0  0  0
 32 33  2  0  0  0  0
 34 32  1  0  0  0  0
M  END
>  <MODEL>
1

>  <REMARK>
 VINA RESULT:      -8.2      0.000      0.000
  Name = 
  4 active torsions:
  status: ('A' for Active; 'I' for Inactive)
    1  A    between atoms: N_3  and  C_25
    2  A    between atoms: C_7  and  C_11
    3  A    between atoms: C_8  and  C_18
    4  A    between atoms: C_18  and  C_30
                            x       y       z     vdW  Elec       q    Type
                         _______ _______ _______ _____ _____    ______ ____

>  <TORSDO>
F 4

$$$$
=
 OpenBabel11052420333D

 34 39  0  0  1  0  0  0  0  0999 V2000
  189.4840  176.6990  143.5300 C   0  0  0  0  0  0  0  0  0  0  0  0
  185.8100  176.9250  143.0830 C   0  0  0  0  0  3  0  0  0  0  0  0
  187.3400  175.4540  142.2030 N   0  0  0  0  0  0  0  0  0  0  0  0
  191.9160  176.4820  143.8290 C   0  0  0  0  0  0  0  0  0  0  0  0
  190.6770  177.0950  144.1820 C   0  0  0  0  0  3  0  0  0  0  0  0
  190.7660  175.1100  142.2290 C   0  0  0  0  0  0  0  0  0  0  0  0
  190.4300  174.0320  141.3460 N   0  0  0  0  0  0  0  0  0  0  0  0
  191.9660  175.4480  142.8540 C   0  0  0  0  0  3  0  0  0  0  0  0
  188.6280  175.1100  141.9630 C   0  0  0  0  0  0  0  0  0  0  0  0
  189.6300  175.7420  142.5650 C   0  0  0  0  0  0  0  0  0  0  0  0
  189.1540  174.0320  141.1860 N   0  0  0  0  0  0  0  0  0  0  0  0
  185.3360  178.1980  143.6940 C   0  0  0  0  0  2  0  0  0  0  0  0
  185.5290  178.2420  145.1690 C   0  0  0  0  0  0  0  0  0  0  0  0
  186.7500  178.1620  145.6910 C   0  0  0  0  0  3  0  0  0  0  0  0
  187.0700  176.4810  143.0810 C   0  0  0  0  0  0  0  0  0  0  0  0
  187.9890  177.8150  144.9720 C   0  0  0  0  0  3  0  0  0  0  0  0
  188.1530  177.0820  143.8530 C   0  0  0  0  0  0  0  0  0  0  0  0
  184.4130  178.5390  146.0190 N   0  0  0  0  0  0  0  0  0  0  0  0
  183.3420  178.9560  145.5310 O   0  0  0  0  0  0  0  0  0  0  0  0
  184.4980  178.3460  147.3800 O   0  0  0  0  0  0  0  0  0  0  0  0
  193.1720  176.9200  144.5060 C   0  0  0  0  0  2  0  0  0  0  0  0
  193.2400  173.4650  145.7510 C   0  0  0  0  0  3  0  0  0  0  0  0
  195.1950  175.5800  144.6890 C   0  0  0  0  0  3  0  0  0  0  0  0
  195.7180  170.7960  145.0840 C   0  0  2  0  0  3  0  0  0  0  0  0
  194.2870  171.2860  145.3280 C   0  0  0  0  0  2  0  0  0  0  0  0
  194.3460  172.7540  145.5370 C   0  0  0  0  0  0  0  0  0  0  0  0
  196.0860  174.4820  145.1160 C   0  0  0  0  0  3  0  0  0  0  0  0
  195.7080  173.2800  145.5640 C   0  0  0  0  0  0  0  0  0  0  0  0
  196.9120  171.9930  145.7890 S   0  0  0  0  0  0  0  0  0  0  0  0
  193.9200  175.7470  145.0480 C   0  0  0  0  0  0  0  0  0  0  0  0
  193.2690  174.9130  146.1070 C   0  0  0  0  0  2  0  0  0  0  0  0
  195.9750  170.5900  143.6250 C   0  0  0  0  0  0  0  0  0  0  0  0
  195.0590  170.1770  142.8640 O   0  0  0  0  0  0  0  0  0  0  0  0
  197.2650  170.8660  143.0930 N   0  0  0  0  0  1  0  0  0  0  0  0
  1 17  1  0  0  0  0
  1  5  1  0  0  0  0
  2 12  1  0  0  0  0
  3 15  1  0  0  0  0
  4  5  2  0  0  0  0
  4 21  1  0  0  0  0
  6 10  1  0  0  0  0
  6  8  2  0  0  0  0
  7  6  1  0  0  0  0
  8  4  1  0  0  0  0
  9  3  2  0  0  0  0
  9 10  1  0  0  0  0
 10  1  2  0  0  0  0
 11  7  2  0  0  0  0
 11  9  1  0  0  0  0
 12 13  1  0  0  0  0
 13 14  2  0  0  0  0
 13 18  1  0  0  0  0
 15  2  2  0  0  0  0
 15 17  1  0  0  0  0
 16 14  1  0  0  0  0
 17 16  2  0  0  0  0
 18 20  2  0  0  0  0
 19 18  2  0  0  0  0
 21 30  1  0  0  0  0
 22 31  1  0  0  0  0
 23 30  2  0  0  0  0
 23 27  1  0  0  0  0
 24 32  1  6  0  0  0
 24 25  1  0  0  0  0
 24 29  1  0  0  0  0
 25 26  1  0  0  0  0
 26 28  1  0  0  0  0
 26 22  2  0  0  0  0
 27 28  2  0  0  0  0
 28 29  1  0  0  0  0
 30 31  1  0  0  0  0
 33 32  2  0  0  0  0
 34 32  1  0  0  0  0
M  END
>  <MODEL>
2

>  <REMARK>
 VINA RESULT:      -8.2      2.361      2.844
  Name = 
  4 active torsions:
  status: ('A' for Active; 'I' for Inactive)
    1  A    between atoms: N_3  and  C_25
    2  A    between atoms: C_7  and  C_11
    3  A    between atoms: C_8  and  C_18
    4  A    between atoms: C_18  and  C_30
                            x       y       z     vdW  Elec       q    Type
                         _______ _______ _______ _____ _____    ______ ____

>  <TORSDO>
F 4

$$$$
=
 OpenBabel11052420333D

 34 39  0  0  1  0  0  0  0  0999 V2000
  187.3220  176.1370  142.8820 C   0  0  0  0  0  0  0  0  0  0  0  0
  187.7610  175.1690  139.3290 C   0  0  0  0  0  3  0  0  0  0  0  0
  186.6080  176.9170  140.2760 N   0  0  0  0  0  0  0  0  0  0  0  0
  187.0370  176.8440  145.2210 C   0  0  0  0  0  0  0  0  0  0  0  0
  187.6490  175.9940  144.2510 C   0  0  0  0  0  3  0  0  0  0  0  0
  185.8260  177.9490  143.4670 C   0  0  0  0  0  0  0  0  0  0  0  0
  185.1010  178.9340  142.7180 N   0  0  0  0  0  0  0  0  0  0  0  0
  186.1290  177.8640  144.8250 C   0  0  0  0  0  3  0  0  0  0  0  0
  186.0820  177.5140  141.3720 C   0  0  0  0  0  0  0  0  0  0  0  0
  186.3950  177.1010  142.5950 C   0  0  0  0  0  0  0  0  0  0  0  0
  185.2530  178.6750  141.4680 N   0  0  0  0  0  0  0  0  0  0  0  0
  188.4080  173.8280  139.2800 C   0  0  0  0  0  2  0  0  0  0  0  0
  189.7890  173.8290  139.8340 C   0  0  0  0  0  0  0  0  0  0  0  0
  190.0060  174.1570  141.1040 C   0  0  0  0  0  3  0  0  0  0  0  0
  187.4770  175.8590  140.4370 C   0  0  0  0  0  0  0  0  0  0  0  0
  189.0270  174.7460  142.0360 C   0  0  0  0  0  3  0  0  0  0  0  0
  187.9370  175.4930  141.7730 C   0  0  0  0  0  0  0  0  0  0  0  0
  190.8680  173.3140  139.0400 N   0  0  0  0  0  0  0  0  0  0  0  0
  191.0240  173.6990  137.8630 O   0  0  0  0  0  0  0  0  0  0  0  0
  191.7590  172.4100  139.5740 O   0  0  0  0  0  0  0  0  0  0  0  0
  187.3720  176.6720  146.6650 C   0  0  0  0  0  2  0  0  0  0  0  0
  190.0630  174.2150  146.1990 C   0  0  0  0  0  3  0  0  0  0  0  0
  189.7410  177.1970  146.8560 C   0  0  0  0  0  3  0  0  0  0  0  0
  193.5910  174.7800  145.2300 C   0  0  2  0  0  3  0  0  0  0  0  0
  192.2930  173.9670  145.2050 C   0  0  0  0  0  2  0  0  0  0  0  0
  191.3030  174.6790  146.0500 C   0  0  0  0  0  0  0  0  0  0  0  0
  191.1930  176.9730  147.0070 C   0  0  0  0  0  3  0  0  0  0  0  0
  191.8570  175.8450  146.7320 C   0  0  0  0  0  0  0  0  0  0  0  0
  193.6330  175.8350  146.7270 S   0  0  0  0  0  0  0  0  0  0  0  0
  188.7950  176.2540  146.8340 C   0  0  0  0  0  0  0  0  0  0  0  0
  189.0840  174.8200  147.1500 C   0  0  0  0  0  2  0  0  0  0  0  0
  193.7310  175.6090  143.9940 C   0  0  0  0  0  0  0  0  0  0  0  0
  194.6350  176.4830  143.9040 O   0  0  0  0  0  0  0  0  0  0  0  0
  192.8350  175.4070  142.9070 N   0  0  0  0  0  1  0  0  0  0  0  0
  1  5  1  0  0  0  0
  2 15  2  0  0  0  0
  3 15  1  0  0  0  0
  3  9  2  0  0  0  0
  4 21  1  0  0  0  0
  5  4  2  0  0  0  0
  6  8  2  0  0  0  0
  7  6  1  0  0  0  0
  8  4  1  0  0  0  0
  9 11  1  0  0  0  0
  9 10  1  0  0  0  0
 10  1  2  0  0  0  0
 10  6  1  0  0  0  0
 11  7  2  0  0  0  0
 12  2  1  0  0  0  0
 12 13  1  0  0  0  0
 13 14  2  0  0  0  0
 14 16  1  0  0  0  0
 15 17  1  0  0  0  0
 17 16  2  0  0  0  0
 17  1  1  0  0  0  0
 18 20  2  0  0  0  0
 18 13  1  0  0  0  0
 19 18  2  0  0  0  0
 21 30  1  0  0  0  0
 22 31  1  0  0  0  0
 23 27  1  0  0  0  0
 24 32  1  6  0  0  0
 24 29  1  0  0  0  0
 25 24  1  0  0  0  0
 25 26  1  0  0  0  0
 26 22  2  0  0  0  0
 26 28  1  0  0  0  0
 28 27  2  0  0  0  0
 29 28  1  0  0  0  0
 30 23  2  0  0  0  0
 30 31  1  0  0  0  0
 33 32  2  0  0  0  0
 34 32  1  0  0  0  0
M  END
>  <MODEL>
3

>  <REMARK>
 VINA RESULT:      -8.1      3.683      6.150
  Name = 
  4 active torsions:
  status: ('A' for Active; 'I' for Inactive)
    1  A    between atoms: N_3  and  C_25
    2  A    between atoms: C_7  and  C_11
    3  A    between atoms: C_8  and  C_18
    4  A    between atoms: C_18  and  C_30
                            x       y       z     vdW  Elec       q    Type
                         _______ _______ _______ _____ _____    ______ ____

>  <TORSDO>
F 4

$$$$
=
 OpenBabel11052420333D

 34 39  0  0  1  0  0  0  0  0999 V2000
  191.3050  173.7650  144.5000 C   0  0  0  0  0  0  0  0  0  0  0  0
  193.0490  172.2270  141.6130 C   0  0  0  0  0  3  0  0  0  0  0  0
  193.8800  173.2840  143.4770 N   0  0  0  0  0  0  0  0  0  0  0  0
  190.1950  174.7600  146.4570 C   0  0  0  0  0  0  0  0  0  0  0  0
  190.1270  174.0100  145.2450 C   0  0  0  0  0  3  0  0  0  0  0  0
  192.5680  174.9860  146.1670 C   0  0  0  0  0  0  0  0  0  0  0  0
  193.9650  175.1690  146.4320 N   0  0  0  0  0  0  0  0  0  0  0  0
  191.4420  175.2370  146.9490 C   0  0  0  0  0  3  0  0  0  0  0  0
  193.6770  174.0540  144.5710 C   0  0  0  0  0  0  0  0  0  0  0  0
  192.4500  174.3090  145.0130 C   0  0  0  0  0  0  0  0  0  0  0  0
  194.6270  174.6140  145.4800 N   0  0  0  0  0  0  0  0  0  0  0  0
  192.0370  171.8840  140.5750 C   0  0  0  0  0  2  0  0  0  0  0  0
  191.0770  170.8390  141.0230 C   0  0  0  0  0  0  0  0  0  0  0  0
  190.2870  171.0540  142.0710 C   0  0  0  0  0  3  0  0  0  0  0  0
  192.7920  172.7640  142.8080 C   0  0  0  0  0  0  0  0  0  0  0  0
  190.3820  172.1750  143.0240 C   0  0  0  0  0  3  0  0  0  0  0  0
  191.4530  172.9190  143.3670 C   0  0  0  0  0  0  0  0  0  0  0  0
  190.8860  169.6650  140.2210 N   0  0  0  0  0  0  0  0  0  0  0  0
  191.4020  168.5800  140.5590 O   0  0  0  0  0  0  0  0  0  0  0  0
  190.1120  169.7130  139.0830 O   0  0  0  0  0  0  0  0  0  0  0  0
  188.9450  175.0320  147.2250 C   0  0  0  0  0  2  0  0  0  0  0  0
  188.6630  177.7360  144.7550 C   0  0  0  0  0  3  0  0  0  0  0  0
  186.9180  176.3260  146.8510 C   0  0  0  0  0  3  0  0  0  0  0  0
  185.6360  179.0550  143.0800 C   0  0  2  0  0  3  0  0  0  0  0  0
  187.1200  178.6720  143.0930 C   0  0  0  0  0  2  0  0  0  0  0  0
  187.4400  178.1680  144.4510 C   0  0  0  0  0  0  0  0  0  0  0  0
  186.0550  177.4290  146.3820 C   0  0  0  0  0  3  0  0  0  0  0  0
  186.3260  178.2830  145.3880 C   0  0  0  0  0  0  0  0  0  0  0  0
  185.0660  179.3830  144.7900 S   0  0  0  0  0  0  0  0  0  0  0  0
  188.2400  176.2320  146.6850 C   0  0  0  0  0  0  0  0  0  0  0  0
  189.0630  177.3580  146.1420 C   0  0  0  0  0  2  0  0  0  0  0  0
  184.8090  177.9850  142.4420 C   0  0  0  0  0  0  0  0  0  0  0  0
  185.3350  176.8990  142.0760 O   0  0  0  0  0  0  0  0  0  0  0  0
  183.4160  178.1950  142.2500 N   0  0  0  0  0  1  0  0  0  0  0  0
  1 10  2  0  0  0  0
  1  5  1  0  0  0  0
  2 15  2  0  0  0  0
  3  9  2  0  0  0  0
  4  8  1  0  0  0  0
  4 21  1  0  0  0  0
  5  4  2  0  0  0  0
  6  7  1  0  0  0  0
  6  8  2  0  0  0  0
  9 10  1  0  0  0  0
  9 11  1  0  0  0  0
 10  6  1  0  0  0  0
 11  7  2  0  0  0  0
 12 13  1  0  0  0  0
 12  2  1  0  0  0  0
 13 14  2  0  0  0  0
 14 16  1  0  0  0  0
 15 17  1  0  0  0  0
 15  3  1  0  0  0  0
 16 17  2  0  0  0  0
 17  1  1  0  0  0  0
 18 19  2  0  0  0  0
 18 13  1  0  0  0  0
 20 18  2  0  0  0  0
 22 31  1  0  0  0  0
 24 32  1  1  0  0  0
 24 25  1  0  0  0  0
 24 29  1  0  0  0  0
 25 26  1  0  0  0  0
 26 22  2  0  0  0  0
 26 28  1  0  0  0  0
 27 23  1  0  0  0  0
 28 27  2  0  0  0  0
 29 28  1  0  0  0  0
 30 23  2  0  0  0  0
 30 21  1  0  0  0  0
 31 30  1  0  0  0  0
 33 32  2  0  0  0  0
 34 32  1  0  0  0  0
M  END
>  <MODEL>
4

>  <REMARK>
 VINA RESULT:      -8.0      4.098      8.723
  Name = 
  4 active torsions:
  status: ('A' for Active; 'I' for Inactive)
    1  A    between atoms: N_3  and  C_25
    2  A    between atoms: C_7  and  C_11
    3  A    between atoms: C_8  and  C_18
    4  A    between atoms: C_18  and  C_30
                            x       y       z     vdW  Elec       q    Type
                         _______ _______ _______ _____ _____    ______ ____

>  <TORSDO>
F 4

$$$$
=
 OpenBabel11052420333D

 34 39  0  0  1  0  0  0  0  0999 V2000
  190.1210  176.8100  144.7510 C   0  0  0  0  0  0  0  0  0  0  0  0
  186.9580  176.9860  146.6790 C   0  0  0  0  0  3  0  0  0  0  0  0
  189.1430  176.9020  147.3860 N   0  0  0  0  0  0  0  0  0  0  0  0
  192.2480  176.7360  143.5170 C   0  0  0  0  0  0  0  0  0  0  0  0
  190.8270  176.8690  143.5250 C   0  0  0  0  0  3  0  0  0  0  0  0
  192.2280  176.5120  145.9070 C   0  0  0  0  0  0  0  0  0  0  0  0
  192.6290  176.5270  147.2840 N   0  0  0  0  0  0  0  0  0  0  0  0
  192.9720  176.5840  144.7300 C   0  0  0  0  0  3  0  0  0  0  0  0
  190.4520  176.6890  147.1150 C   0  0  0  0  0  0  0  0  0  0  0  0
  190.8890  176.6010  145.8630 C   0  0  0  0  0  0  0  0  0  0  0  0
  191.5700  176.6320  148.0050 N   0  0  0  0  0  0  0  0  0  0  0  0
  185.8190  176.7870  145.7390 C   0  0  0  0  0  2  0  0  0  0  0  0
  185.6980  177.8790  144.7350 C   0  0  0  0  0  0  0  0  0  0  0  0
  186.6840  178.1160  143.8740 C   0  0  0  0  0  3  0  0  0  0  0  0
  188.2510  177.0230  146.3430 C   0  0  0  0  0  0  0  0  0  0  0  0
  188.0400  177.5390  143.9160 C   0  0  0  0  0  3  0  0  0  0  0  0
  188.7400  177.0720  144.9690 C   0  0  0  0  0  0  0  0  0  0  0  0
  184.4480  178.5660  144.5860 N   0  0  0  0  0  0  0  0  0  0  0  0
  183.9510  178.7330  143.4530 O   0  0  0  0  0  0  0  0  0  0  0  0
  183.7670  179.0280  145.6910 O   0  0  0  0  0  0  0  0  0  0  0  0
  192.9810  176.7780  142.2180 C   0  0  0  0  0  2  0  0  0  0  0  0
  196.4740  175.9310  142.9760 C   0  0  0  0  0  3  0  0  0  0  0  0
  193.8380  174.5020  142.3180 C   0  0  0  0  0  3  0  0  0  0  0  0
  197.8620  172.7940  144.3680 C   0  0  2  0  0  3  0  0  0  0  0  0
  197.8370  174.3190  144.2280 C   0  0  0  0  0  2  0  0  0  0  0  0
  196.7500  174.6630  143.2780 C   0  0  0  0  0  0  0  0  0  0  0  0
  194.8220  173.4010  142.3400 C   0  0  0  0  0  3  0  0  0  0  0  0
  196.1120  173.4940  142.6800 C   0  0  0  0  0  0  0  0  0  0  0  0
  197.0850  172.0240  142.8990 S   0  0  0  0  0  0  0  0  0  0  0  0
  194.1140  175.8050  142.2160 C   0  0  0  0  0  0  0  0  0  0  0  0
  195.4900  176.3140  141.9220 C   0  0  0  0  0  2  0  0  0  0  0  0
  197.1730  172.3570  145.6210 C   0  0  0  0  0  0  0  0  0  0  0  0
  196.8130  173.2020  146.4850 O   0  0  0  0  0  0  0  0  0  0  0  0
  196.9190  170.9740  145.8380 N   0  0  0  0  0  1  0  0  0  0  0  0
  1 17  1  0  0  0  0
  1 10  1  0  0  0  0
  4  5  1  0  0  0  0
  4  8  2  0  0  0  0
  5  1  2  0  0  0  0
  6  7  1  0  0  0  0
  7 11  2  0  0  0  0
  8  6  1  0  0  0  0
  9  3  2  0  0  0  0
  9 11  1  0  0  0  0
 10  6  2  0  0  0  0
 10  9  1  0  0  0  0
 12  2  1  0  0  0  0
 13 12  1  0  0  0  0
 14 16  1  0  0  0  0
 14 13  2  0  0  0  0
 15  2  2  0  0  0  0
 15  3  1  0  0  0  0
 16 17  2  0  0  0  0
 17 15  1  0  0  0  0
 18 13  1  0  0  0  0
 18 20  2  0  0  0  0
 19 18  2  0  0  0  0
 21  4  1  0  0  0  0
 22 26  2  0  0  0  0
 23 27  1  0  0  0  0
 24 32  1  1  0  0  0
 25 24  1  0  0  0  0
 26 25  1  0  0  0  0
 27 28  2  0  0  0  0
 28 29  1  0  0  0  0
 28 26  1  0  0  0  0
 29 24  1  0  0  0  0
 30 21  1  0  0  0  0
 30 23  2  0  0  0  0
 31 30  1  0  0  0  0
 31 22  1  0  0  0  0
 32 34  1  0  0  0  0
 32 33  2  0  0  0  0
M  END
>  <MODEL>
5

>  <REMARK>
 VINA RESULT:      -8.0      3.173      4.053
  Name = 
  4 active torsions:
  status: ('A' for Active; 'I' for Inactive)
    1  A    between atoms: N_3  and  C_25
    2  A    between atoms: C_7  and  C_11
    3  A    between atoms: C_8  and  C_18
    4  A    between atoms: C_18  and  C_30
                            x       y       z     vdW  Elec       q    Type
                         _______ _______ _______ _____ _____    ______ ____

>  <TORSDO>
F 4

$$$$
=
 OpenBabel11052420333D

 34 39  0  0  1  0  0  0  0  0999 V2000
  189.6190  175.8760  145.8540 C   0  0  0  0  0  0  0  0  0  0  0  0
  186.5130  177.8910  146.0590 C   0  0  0  0  0  3  0  0  0  0  0  0
  188.4680  178.0240  147.2580 N   0  0  0  0  0  0  0  0  0  0  0  0
  191.7150  174.5960  145.7270 C   0  0  0  0  0  0  0  0  0  0  0  0
  190.4220  174.9060  145.2090 C   0  0  0  0  0  3  0  0  0  0  0  0
  191.3860  176.2090  147.4750 C   0  0  0  0  0  0  0  0  0  0  0  0
  191.6310  177.1710  148.5090 N   0  0  0  0  0  0  0  0  0  0  0  0
  192.2260  175.2780  146.8660 C   0  0  0  0  0  3  0  0  0  0  0  0
  189.6560  177.4850  147.6210 C   0  0  0  0  0  0  0  0  0  0  0  0
  190.1610  176.4400  146.9750 C   0  0  0  0  0  0  0  0  0  0  0  0
  190.5990  177.9320  148.5980 N   0  0  0  0  0  0  0  0  0  0  0  0
  185.4700  177.2420  145.2150 C   0  0  0  0  0  2  0  0  0  0  0  0
  185.8130  177.2420  143.7670 C   0  0  0  0  0  0  0  0  0  0  0  0
  186.9030  176.6160  143.3320 C   0  0  0  0  0  3  0  0  0  0  0  0
  187.7730  177.4720  146.2040 C   0  0  0  0  0  0  0  0  0  0  0  0
  187.9840  176.0590  144.1650 C   0  0  0  0  0  3  0  0  0  0  0  0
  188.3850  176.4190  145.4000 C   0  0  0  0  0  0  0  0  0  0  0  0
  184.8770  177.7770  142.8200 N   0  0  0  0  0  0  0  0  0  0  0  0
  185.0590  177.6160  141.5950 O   0  0  0  0  0  0  0  0  0  0  0  0
  183.7550  178.4510  143.2480 O   0  0  0  0  0  0  0  0  0  0  0  0
  192.5470  173.5560  145.0530 C   0  0  0  0  0  2  0  0  0  0  0  0
  189.4540  172.3060  143.5170 C   0  0  0  0  0  3  0  0  0  0  0  0
  192.2510  173.2360  142.6590 C   0  0  0  0  0  3  0  0  0  0  0  0
  188.2000  172.8010  140.0680 C   0  0  2  0  0  3  0  0  0  0  0  0
  187.9890  172.6540  141.5790 C   0  0  0  0  0  2  0  0  0  0  0  0
  189.3210  172.4430  142.1980 C   0  0  0  0  0  0  0  0  0  0  0  0
  191.6570  172.7480  141.3980 C   0  0  0  0  0  3  0  0  0  0  0  0
  190.4000  172.3250  141.2220 C   0  0  0  0  0  0  0  0  0  0  0  0
  189.7830  172.0170  139.5850 S   0  0  0  0  0  0  0  0  0  0  0  0
  191.8190  172.9640  143.8930 C   0  0  0  0  0  0  0  0  0  0  0  0
  190.7510  171.9510  144.1630 C   0  0  0  0  0  2  0  0  0  0  0  0
  188.1740  174.2380  139.6580 C   0  0  0  0  0  0  0  0  0  0  0  0
  188.3860  175.1510  140.5010 O   0  0  0  0  0  0  0  0  0  0  0  0
  187.9090  174.5770  138.3020 N   0  0  0  0  0  1  0  0  0  0  0  0
  1 10  1  0  0  0  0
  2 15  2  0  0  0  0
  3  9  2  0  0  0  0
  4  8  2  0  0  0  0
  5  4  1  0  0  0  0
  5  1  2  0  0  0  0
  6  7  1  0  0  0  0
  7 11  2  0  0  0  0
  8  6  1  0  0  0  0
  9 11  1  0  0  0  0
 10  6  2  0  0  0  0
 10  9  1  0  0  0  0
 12  2  1  0  0  0  0
 13 12  1  0  0  0  0
 14 13  2  0  0  0  0
 14 16  1  0  0  0  0
 15  3  1  0  0  0  0
 16 17  2  0  0  0  0
 17  1  1  0  0  0  0
 17 15  1  0  0  0  0
 18 20  2  0  0  0  0
 18 13  1  0  0  0  0
 19 18  2  0  0  0  0
 21  4  1  0  0  0  0
 22 31  1  0  0  0  0
 23 30  2  0  0  0  0
 24 32  1  1  0  0  0
 24 25  1  0  0  0  0
 25 26  1  0  0  0  0
 26 22  2  0  0  0  0
 27 23  1  0  0  0  0
 28 27  2  0  0  0  0
 28 26  1  0  0  0  0
 29 24  1  0  0  0  0
 29 28  1  0  0  0  0
 30 31  1  0  0  0  0
 30 21  1  0  0  0  0
 32 33  2  0  0  0  0
 34 32  1  0  0  0  0
M  END
>  <MODEL>
6

>  <REMARK>
 VINA RESULT:      -7.8      3.722      5.493
  Name = 
  4 active torsions:
  status: ('A' for Active; 'I' for Inactive)
    1  A    between atoms: N_3  and  C_25
    2  A    between atoms: C_7  and  C_11
    3  A    between atoms: C_8  and  C_18
    4  A    between atoms: C_18  and  C_30
                            x       y       z     vdW  Elec       q    Type
                         _______ _______ _______ _____ _____    ______ ____

>  <TORSDO>
F 4

$$$$
=
 OpenBabel11052420333D

 34 39  0  0  1  0  0  0  0  0999 V2000
  192.1110  173.8580  144.5660 C   0  0  0  0  0  0  0  0  0  0  0  0
  195.1140  173.4000  142.4410 C   0  0  0  0  0  3  0  0  0  0  0  0
  192.9950  172.5340  142.2480 N   0  0  0  0  0  0  0  0  0  0  0  0
  190.0800  174.1640  145.9200 C   0  0  0  0  0  0  0  0  0  0  0  0
  191.4320  174.5100  145.6240 C   0  0  0  0  0  3  0  0  0  0  0  0
  190.1080  172.5700  144.1250 C   0  0  0  0  0  0  0  0  0  0  0  0
  189.6910  171.6940  143.0700 N   0  0  0  0  0  0  0  0  0  0  0  0
  189.3880  173.1960  145.1410 C   0  0  0  0  0  3  0  0  0  0  0  0
  191.7740  172.2990  142.7860 C   0  0  0  0  0  0  0  0  0  0  0  0
  191.3920  172.8990  143.9080 C   0  0  0  0  0  0  0  0  0  0  0  0
  190.6840  171.5310  142.2710 N   0  0  0  0  0  0  0  0  0  0  0  0
  196.2850  174.0020  143.1390 C   0  0  0  0  0  2  0  0  0  0  0  0
  196.1700  175.4760  143.3000 C   0  0  0  0  0  0  0  0  0  0  0  0
  195.1720  176.0030  144.0030 C   0  0  0  0  0  3  0  0  0  0  0  0
  193.8540  173.4050  142.8830 C   0  0  0  0  0  0  0  0  0  0  0  0
  193.9840  175.2890  144.5060 C   0  0  0  0  0  3  0  0  0  0  0  0
  193.3910  174.1750  144.0330 C   0  0  0  0  0  0  0  0  0  0  0  0
  197.2330  176.3220  142.8360 N   0  0  0  0  0  0  0  0  0  0  0  0
  197.8620  176.0320  141.7970 O   0  0  0  0  0  0  0  0  0  0  0  0
  197.5550  177.4770  143.5140 O   0  0  0  0  0  0  0  0  0  0  0  0
  189.3790  174.8420  147.0510 C   0  0  0  0  0  2  0  0  0  0  0  0
  188.9930  177.5610  144.6120 C   0  0  0  0  0  3  0  0  0  0  0  0
  187.4010  176.2490  146.8850 C   0  0  0  0  0  3  0  0  0  0  0  0
  185.8870  179.0530  143.2570 C   0  0  2  0  0  3  0  0  0  0  0  0
  187.3400  178.5860  143.1160 C   0  0  0  0  0  2  0  0  0  0  0  0
  187.7720  178.0630  144.4360 C   0  0  0  0  0  0  0  0  0  0  0  0
  186.5580  177.4010  146.5040 C   0  0  0  0  0  3  0  0  0  0  0  0
  186.7700  178.2390  145.4840 C   0  0  0  0  0  0  0  0  0  0  0  0
  185.5190  179.4100  145.0160 S   0  0  0  0  0  0  0  0  0  0  0  0
  188.6910  176.0800  146.5820 C   0  0  0  0  0  0  0  0  0  0  0  0
  189.5140  177.1590  145.9510 C   0  0  0  0  0  2  0  0  0  0  0  0
  184.9390  178.0330  142.7140 C   0  0  0  0  0  0  0  0  0  0  0  0
  183.6990  178.2560  142.6890 O   0  0  0  0  0  0  0  0  0  0  0  0
  185.4430  176.7980  142.2190 N   0  0  0  0  0  1  0  0  0  0  0  0
  1  5  1  0  0  0  0
  2 15  2  0  0  0  0
  2 12  1  0  0  0  0
  3  9  2  0  0  0  0
  3 15  1  0  0  0  0
  4 21  1  0  0  0  0
  5  4  2  0  0  0  0
  6  8  2  0  0  0  0
  7  6  1  0  0  0  0
  8  4  1  0  0  0  0
  9 10  1  0  0  0  0
 10  6  1  0  0  0  0
 10  1  2  0  0  0  0
 11  9  1  0  0  0  0
 11  7  2  0  0  0  0
 12 13  1  0  0  0  0
 13 14  2  0  0  0  0
 14 16  1  0  0  0  0
 15 17  1  0  0  0  0
 17 16  2  0  0  0  0
 17  1  1  0  0  0  0
 18 13  1  0  0  0  0
 18 20  2  0  0  0  0
 19 18  2  0  0  0  0
 22 31  1  0  0  0  0
 24 32  1  1  0  0  0
 24 29  1  0  0  0  0
 25 24  1  0  0  0  0
 25 26  1  0  0  0  0
 26 22  2  0  0  0  0
 26 28  1  0  0  0  0
 27 23  1  0  0  0  0
 28 27  2  0  0  0  0
 29 28  1  0  0  0  0
 30 23  2  0  0  0  0
 30 21  1  0  0  0  0
 31 30  1  0  0  0  0
 33 32  2  0  0  0  0
 34 32  1  0  0  0  0
M  END
>  <MODEL>
7

>  <REMARK>
 VINA RESULT:      -7.8      3.054      8.650
  Name = 
  4 active torsions:
  status: ('A' for Active; 'I' for Inactive)
    1  A    between atoms: N_3  and  C_25
    2  A    between atoms: C_7  and  C_11
    3  A    between atoms: C_8  and  C_18
    4  A    between atoms: C_18  and  C_30
                            x       y       z     vdW  Elec       q    Type
                         _______ _______ _______ _____ _____    ______ ____

>  <TORSDO>
F 4

$$$$
=
 OpenBabel11052420333D

 34 39  0  0  1  0  0  0  0  0999 V2000
  187.6650  175.9210  141.4060 C   0  0  0  0  0  0  0  0  0  0  0  0
  185.5910  178.8290  142.4020 C   0  0  0  0  0  3  0  0  0  0  0  0
  185.8260  177.7800  140.3710 N   0  0  0  0  0  0  0  0  0  0  0  0
  188.9900  173.9700  140.7070 C   0  0  0  0  0  0  0  0  0  0  0  0
  188.5080  174.8330  141.7370 C   0  0  0  0  0  3  0  0  0  0  0  0
  187.7900  175.2630  139.0790 C   0  0  0  0  0  0  0  0  0  0  0  0
  187.0950  175.6530  137.8870 N   0  0  0  0  0  0  0  0  0  0  0  0
  188.6050  174.1660  139.3530 C   0  0  0  0  0  3  0  0  0  0  0  0
  186.4920  176.9110  139.5740 C   0  0  0  0  0  0  0  0  0  0  0  0
  187.3920  176.0720  140.0750 C   0  0  0  0  0  0  0  0  0  0  0  0
  186.3210  176.6370  138.1810 N   0  0  0  0  0  0  0  0  0  0  0  0
  185.9830  179.2420  143.7790 C   0  0  0  0  0  2  0  0  0  0  0  0
  185.6800  178.2070  144.8030 C   0  0  0  0  0  0  0  0  0  0  0  0
  186.2490  177.0060  144.7380 C   0  0  0  0  0  3  0  0  0  0  0  0
  186.0950  177.7950  141.7230 C   0  0  0  0  0  0  0  0  0  0  0  0
  187.0300  176.4680  143.6100 C   0  0  0  0  0  3  0  0  0  0  0  0
  186.9730  176.7840  142.3010 C   0  0  0  0  0  0  0  0  0  0  0  0
  184.9020  178.5600  145.9560 N   0  0  0  0  0  0  0  0  0  0  0  0
  185.3890  178.4570  147.1010 O   0  0  0  0  0  0  0  0  0  0  0  0
  183.6190  179.0410  145.8140 O   0  0  0  0  0  0  0  0  0  0  0  0
  189.8960  172.8380  141.0620 C   0  0  0  0  0  2  0  0  0  0  0  0
  192.1380  175.3770  142.4820 C   0  0  0  0  0  3  0  0  0  0  0  0
  190.8530  172.7110  143.2960 C   0  0  0  0  0  3  0  0  0  0  0  0
  192.7980  176.1790  146.0360 C   0  0  2  0  0  3  0  0  0  0  0  0
  192.6110  176.5800  144.5680 C   0  0  0  0  0  2  0  0  0  0  0  0
  192.3630  175.3380  143.7940 C   0  0  0  0  0  0  0  0  0  0  0  0
  191.7560  173.0090  144.4270 C   0  0  0  0  0  3  0  0  0  0  0  0
  192.4760  174.1230  144.5970 C   0  0  0  0  0  0  0  0  0  0  0  0
  193.3060  174.4220  146.1390 S   0  0  0  0  0  0  0  0  0  0  0  0
  190.9020  173.2620  142.0800 C   0  0  0  0  0  0  0  0  0  0  0  0
  192.0280  174.1470  141.6450 C   0  0  0  0  0  2  0  0  0  0  0  0
  191.5480  176.4160  146.8210 C   0  0  0  0  0  0  0  0  0  0  0  0
  191.4870  176.1040  148.0410 O   0  0  0  0  0  0  0  0  0  0  0  0
  190.4190  177.0020  146.1860 N   0  0  0  0  0  1  0  0  0  0  0  0
  1  5  1  0  0  0  0
  1 17  1  0  0  0  0
  2 12  1  0  0  0  0
  3 15  1  0  0  0  0
  4 21  1  0  0  0  0
  4  5  2  0  0  0  0
  6  8  2  0  0  0  0
  6 10  1  0  0  0  0
  7 11  2  0  0  0  0
  7  6  1  0  0  0  0
  8  4  1  0  0  0  0
  9 10  1  0  0  0  0
  9  3  2  0  0  0  0
 10  1  2  0  0  0  0
 11  9  1  0  0  0  0
 12 13  1  0  0  0  0
 13 18  1  0  0  0  0
 14 13  2  0  0  0  0
 15 17  1  0  0  0  0
 15  2  2  0  0  0  0
 16 14  1  0  0  0  0
 17 16  2  0  0  0  0
 18 19  2  0  0  0  0
 20 18  2  0  0  0  0
 21 30  1  0  0  0  0
 22 26  2  0  0  0  0
 23 27  1  0  0  0  0
 24 29  1  0  0  0  0
 24 32  1  1  0  0  0
 25 24  1  0  0  0  0
 26 25  1  0  0  0  0
 26 28  1  0  0  0  0
 27 28  2  0  0  0  0
 28 29  1  0  0  0  0
 30 23  2  0  0  0  0
 31 30  1  0  0  0  0
 31 22  1  0  0  0  0
 32 33  2  0  0  0  0
 34 32  1  0  0  0  0
M  END
>  <MODEL>
8

>  <REMARK>
 VINA RESULT:      -7.8      3.495      4.692
  Name = 
  4 active torsions:
  status: ('A' for Active; 'I' for Inactive)
    1  A    between atoms: N_3  and  C_25
    2  A    between atoms: C_7  and  C_11
    3  A    between atoms: C_8  and  C_18
    4  A    between atoms: C_18  and  C_30
                            x       y       z     vdW  Elec       q    Type
                         _______ _______ _______ _____ _____    ______ ____

>  <TORSDO>
F 4

$$$$
=
 OpenBabel11052420333D

 34 39  0  0  1  0  0  0  0  0999 V2000
  189.4500  175.6800  143.5180 C   0  0  0  0  0  0  0  0  0  0  0  0
  188.1630  174.6010  140.2130 C   0  0  0  0  0  3  0  0  0  0  0  0
  187.4750  176.2900  141.6110 N   0  0  0  0  0  0  0  0  0  0  0  0
  190.2950  176.4600  145.6930 C   0  0  0  0  0  0  0  0  0  0  0  0
  190.4220  175.6210  144.5450 C   0  0  0  0  0  3  0  0  0  0  0  0
  188.2810  177.3890  144.7730 C   0  0  0  0  0  0  0  0  0  0  0  0
  187.1960  178.2800  144.4850 N   0  0  0  0  0  0  0  0  0  0  0  0
  189.2210  177.3860  145.8030 C   0  0  0  0  0  3  0  0  0  0  0  0
  187.5080  176.8880  142.8260 C   0  0  0  0  0  0  0  0  0  0  0  0
  188.4200  176.5530  143.7310 C   0  0  0  0  0  0  0  0  0  0  0  0
  186.7330  177.9810  143.3240 N   0  0  0  0  0  0  0  0  0  0  0  0
  188.8200  173.3150  139.8450 C   0  0  0  0  0  2  0  0  0  0  0  0
  190.2870  173.4500  139.6410 C   0  0  0  0  0  0  0  0  0  0  0  0
  191.0730  173.8480  140.6380 C   0  0  0  0  0  3  0  0  0  0  0  0
  188.4020  175.3130  141.3180 C   0  0  0  0  0  0  0  0  0  0  0  0
  190.6330  174.3950  141.9340 C   0  0  0  0  0  3  0  0  0  0  0  0
  189.4920  175.0400  142.2480 C   0  0  0  0  0  0  0  0  0  0  0  0
  190.8750  172.9900  138.4160 N   0  0  0  0  0  0  0  0  0  0  0  0
  191.7190  172.0700  138.4280 O   0  0  0  0  0  0  0  0  0  0  0  0
  190.4990  173.5380  137.2100 O   0  0  0  0  0  0  0  0  0  0  0  0
  191.3130  176.3760  146.7810 C   0  0  0  0  0  2  0  0  0  0  0  0
  193.4220  173.9380  145.0200 C   0  0  0  0  0  3  0  0  0  0  0  0
  193.4910  176.8990  145.8280 C   0  0  0  0  0  3  0  0  0  0  0  0
  196.0620  174.5350  142.4940 C   0  0  2  0  0  3  0  0  0  0  0  0
  194.9000  173.7210  143.0730 C   0  0  0  0  0  2  0  0  0  0  0  0
  194.4450  174.4080  144.3070 C   0  0  0  0  0  0  0  0  0  0  0  0
  194.8350  176.6740  145.2590 C   0  0  0  0  0  3  0  0  0  0  0  0
  195.2720  175.5550  144.6700 C   0  0  0  0  0  0  0  0  0  0  0  0
  196.8290  175.5470  143.8150 S   0  0  0  0  0  0  0  0  0  0  0  0
  192.6380  175.9550  146.2370 C   0  0  0  0  0  0  0  0  0  0  0  0
  193.0260  174.5130  146.3380 C   0  0  0  0  0  2  0  0  0  0  0  0
  195.6030  175.4000  141.3640 C   0  0  0  0  0  0  0  0  0  0  0  0
  194.8380  174.9410  140.4730 O   0  0  0  0  0  0  0  0  0  0  0  0
  196.0330  176.7540  141.2960 N   0  0  0  0  0  1  0  0  0  0  0  0
  1 10  2  0  0  0  0
  1  5  1  0  0  0  0
  2 15  2  0  0  0  0
  3  9  2  0  0  0  0
  4  8  1  0  0  0  0
  4 21  1  0  0  0  0
  5  4  2  0  0  0  0
  6  8  2  0  0  0  0
  7  6  1  0  0  0  0
  9 11  1  0  0  0  0
  9 10  1  0  0  0  0
 10  6  1  0  0  0  0
 11  7  2  0  0  0  0
 12  2  1  0  0  0  0
 13 12  1  0  0  0  0
 13 14  2  0  0  0  0
 14 16  1  0  0  0  0
 15  3  1  0  0  0  0
 15 17  1  0  0  0  0
 16 17  2  0  0  0  0
 17  1  1  0  0  0  0
 18 19  2  0  0  0  0
 18 13  1  0  0  0  0
 20 18  2  0  0  0  0
 22 31  1  0  0  0  0
 23 30  2  0  0  0  0
 24 32  1  6  0  0  0
 24 25  1  0  0  0  0
 24 29  1  0  0  0  0
 25 26  1  0  0  0  0
 26 28  1  0  0  0  0
 26 22  2  0  0  0  0
 27 23  1  0  0  0  0
 28 27  2  0  0  0  0
 29 28  1  0  0  0  0
 30 31  1  0  0  0  0
 30 21  1  0  0  0  0
 33 32  2  0  0  0  0
 34 32  1  0  0  0  0
M  END
>  <MODEL>
9

>  <REMARK>
 VINA RESULT:      -7.7      3.490      5.154
  Name = 
  4 active torsions:
  status: ('A' for Active; 'I' for Inactive)
    1  A    between atoms: N_3  and  C_25
    2  A    between atoms: C_7  and  C_11
    3  A    between atoms: C_8  and  C_18
    4  A    between atoms: C_18  and  C_30
                            x       y       z     vdW  Elec       q    Type
                         _______ _______ _______ _____ _____    ______ ____

>  <TORSDO>
F 4

$$$$
