=
 OpenBabel11052419163D

 32 37  0  0  1  0  0  0  0  0999 V2000
  189.7020  176.6400  145.8680 C   0  0  0  0  0  0  0  0  0  0  0  0
  191.1870  175.4770  144.3450 C   0  0  0  0  0  0  0  0  0  0  0  0
  189.4430  177.2450  147.2260 C   0  0  0  0  0  2  0  0  0  0  0  0
  190.9720  176.0980  145.5720 C   0  0  0  0  0  0  0  0  0  0  0  0
  192.5700  174.9730  144.0170 C   0  0  2  0  0  3  0  0  0  0  0  0
  189.3930  172.2420  141.4350 C   0  0  0  0  0  2  0  0  0  0  0  0
  190.1120  175.2310  143.4940 C   0  0  0  0  0  0  0  0  0  0  0  0
  191.8670  172.6340  141.2750 C   0  0  0  0  0  2  0  0  0  0  0  0
  191.5830  173.5080  142.5000 C   0  0  1  0  0  3  0  0  0  0  0  0
  192.1410  176.1710  146.5340 C   0  0  2  0  0  3  0  0  0  0  0  0
  192.7050  174.3220  142.7620 O   0  0  0  0  0  0  0  0  0  0  0  0
  192.8970  174.8300  146.5780 C   0  0  0  0  0  2  0  0  0  0  0  0
  191.7170  176.5570  147.9490 C   0  0  0  0  0  2  0  0  0  0  0  0
  188.8900  175.7490  143.7910 N   0  0  0  0  0  0  0  0  0  0  0  0
  188.6540  176.4660  144.9270 C   0  0  0  0  0  0  0  0  0  0  0  0
  190.3220  174.3750  142.2810 C   0  0  1  0  0  3  0  0  0  0  0  0
  193.1840  174.1970  145.1930 C   0  0  2  0  0  3  0  0  0  0  0  0
  190.7260  177.7110  147.9050 C   0  0  0  0  0  2  0  0  0  0  0  0
  190.5990  172.2710  140.5000 C   0  0  0  0  0  2  0  0  0  0  0  0
  189.1180  173.5640  142.0180 N   0  0  0  0  0  2  0  0  0  0  0  0
  186.0350  179.1330  144.7740 C   0  0  0  0  0  0  0  0  0  0  0  0
  183.3610  178.2550  146.8330 O   0  0  0  0  0  1  0  0  0  0  0  0
  185.5920  180.2620  143.8990 C   0  0  0  0  0  1  0  0  0  0  0  0
  185.1310  176.7620  146.4460 C   0  0  0  0  0  3  0  0  0  0  0  0
  187.2830  176.9930  145.1410 C   0  0  0  0  0  0  0  0  0  0  0  0
  185.5820  179.1690  146.1950 C   0  0  0  0  0  2  0  0  0  0  0  0
  186.4980  176.3770  146.0440 C   0  0  0  0  0  3  0  0  0  0  0  0
  186.8310  178.1490  144.3070 C   0  0  0  0  0  0  0  0  0  0  0  0
  187.3060  178.1970  142.8850 C   0  0  0  0  0  1  0  0  0  0  0  0
  184.6830  178.0150  146.4830 C   0  0  0  0  0  0  0  0  0  0  0  0
  194.6780  173.9500  144.9970 C   0  0  0  0  0  2  0  0  0  0  0  0
  195.5290  174.8880  145.8410 C   0  0  0  0  0  1  0  0  0  0  0  0
  1  3  1  0  0  0  0
  2  4  2  0  0  0  0
  3 18  1  0  0  0  0
  4  1  1  0  0  0  0
  4 10  1  0  0  0  0
  5 11  1  6  0  0  0
  5  2  1  0  0  0  0
  5 17  1  0  0  0  0
  6 20  1  0  0  0  0
  7 14  2  0  0  0  0
  7  2  1  0  0  0  0
  9  8  1  6  0  0  0
  9 11  1  0  0  0  0
 10 12  1  1  0  0  0
 10 13  1  0  0  0  0
 14 15  1  0  0  0  0
 15 25  1  0  0  0  0
 15  1  2  0  0  0  0
 16 20  1  1  0  0  0
 16  9  1  0  0  0  0
 16  7  1  0  0  0  0
 17 31  1  6  0  0  0
 17 12  1  0  0  0  0
 18 13  1  0  0  0  0
 19  8  1  0  0  0  0
 19  6  1  0  0  0  0
 21 26  1  0  0  0  0
 23 21  1  0  0  0  0
 24 30  2  0  0  0  0
 25 27  2  0  0  0  0
 26 30  1  0  0  0  0
 27 24  1  0  0  0  0
 28 21  2  0  0  0  0
 28 25  1  0  0  0  0
 29 28  1  0  0  0  0
 30 22  1  0  0  0  0
 31 32  1  0  0  0  0
M  END
>  <MODEL>
1

>  <REMARK>
 VINA RESULT:      -8.8      0.000      0.000
  Name = 
  2 active torsions:
  status: ('A' for Active; 'I' for Inactive)
    1  A    between atoms: C_13  and  C_29
    2  A    between atoms: C_16  and  C_27
                            x       y       z     vdW  Elec       q    Type
                         _______ _______ _______ _____ _____    ______ ____

>  <TORSDO>
F 2

$$$$
=
 OpenBabel11052419163D

 32 37  0  0  1  0  0  0  0  0999 V2000
  189.7150  175.2590  144.7760 C   0  0  0  0  0  0  0  0  0  0  0  0
  187.5200  176.2310  144.4370 C   0  0  0  0  0  0  0  0  0  0  0  0
  190.9240  175.0480  145.6550 C   0  0  0  0  0  2  0  0  0  0  0  0
  188.6040  175.9750  145.2720 C   0  0  0  0  0  0  0  0  0  0  0  0
  186.3120  176.9300  145.0070 C   0  0  2  0  0  3  0  0  0  0  0  0
  186.4010  177.9100  140.1850 C   0  0  0  0  0  2  0  0  0  0  0  0
  187.6100  175.9440  143.0770 C   0  0  0  0  0  0  0  0  0  0  0  0
  184.6330  178.0940  141.9560 C   0  0  0  0  0  2  0  0  0  0  0  0
  185.7770  177.5880  142.8380 C   0  0  1  0  0  3  0  0  0  0  0  0
  188.5230  176.4790  146.7000 C   0  0  2  0  0  3  0  0  0  0  0  0
  185.2600  177.1860  144.0880 O   0  0  0  0  0  0  0  0  0  0  0  0
  187.9590  177.9120  146.7420 C   0  0  0  0  0  2  0  0  0  0  0  0
  189.8710  176.4460  147.4150 C   0  0  0  0  0  2  0  0  0  0  0  0
  188.6880  175.2620  142.6050 N   0  0  0  0  0  0  0  0  0  0  0  0
  189.7250  174.8850  143.4080 C   0  0  0  0  0  0  0  0  0  0  0  0
  186.5250  176.4190  142.1580 C   0  0  1  0  0  3  0  0  0  0  0  0
  186.7090  178.1480  145.8560 C   0  0  2  0  0  3  0  0  0  0  0  0
  190.5820  175.1300  147.1380 C   0  0  0  0  0  2  0  0  0  0  0  0
  184.9000  177.8920  140.4640 C   0  0  0  0  0  2  0  0  0  0  0  0
  187.0970  176.7990  140.8510 N   0  0  0  0  0  2  0  0  0  0  0  0
  192.1380  172.0330  143.2120 C   0  0  0  0  0  0  0  0  0  0  0  0
  194.7310  172.8520  141.0290 O   0  0  0  0  0  1  0  0  0  0  0  0
  192.2060  170.5630  143.4780 C   0  0  0  0  0  1  0  0  0  0  0  0
  192.8700  174.2610  141.2790 C   0  0  0  0  0  3  0  0  0  0  0  0
  190.8430  174.1330  142.7850 C   0  0  0  0  0  0  0  0  0  0  0  0
  193.4380  172.7630  143.1480 C   0  0  0  0  0  2  0  0  0  0  0  0
  191.6750  174.7970  141.9600 C   0  0  0  0  0  3  0  0  0  0  0  0
  190.9580  172.6690  143.0690 C   0  0  0  0  0  0  0  0  0  0  0  0
  189.6810  171.8940  143.2030 C   0  0  0  0  0  1  0  0  0  0  0  0
  193.6590  173.3130  141.7810 C   0  0  0  0  0  0  0  0  0  0  0  0
  185.5380  178.6760  146.6820 C   0  0  0  0  0  2  0  0  0  0  0  0
  186.0030  179.4300  147.9180 C   0  0  0  0  0  1  0  0  0  0  0  0
  1  4  1  0  0  0  0
  1  3  1  0  0  0  0
  2  5  1  0  0  0  0
  2  4  2  0  0  0  0
  3 18  1  0  0  0  0
  4 10  1  0  0  0  0
  5 11  1  6  0  0  0
  5 17  1  0  0  0  0
  6 19  1  0  0  0  0
  6 20  1  0  0  0  0
  7  2  1  0  0  0  0
  9  8  1  6  0  0  0
  9 11  1  0  0  0  0
 10 12  1  6  0  0  0
 10 13  1  0  0  0  0
 14  7  2  0  0  0  0
 14 15  1  0  0  0  0
 15  1  2  0  0  0  0
 16 20  1  6  0  0  0
 16  9  1  0  0  0  0
 16  7  1  0  0  0  0
 17 31  1  1  0  0  0
 17 12  1  0  0  0  0
 18 13  1  0  0  0  0
 19  8  1  0  0  0  0
 21 23  1  0  0  0  0
 22 30  1  0  0  0  0
 24 30  2  0  0  0  0
 24 27  1  0  0  0  0
 25 28  1  0  0  0  0
 25 15  1  0  0  0  0
 26 21  1  0  0  0  0
 27 25  2  0  0  0  0
 28 29  1  0  0  0  0
 28 21  2  0  0  0  0
 30 26  1  0  0  0  0
 31 32  1  0  0  0  0
M  END
>  <MODEL>
2

>  <REMARK>
 VINA RESULT:      -8.6      2.000      7.262
  Name = 
  2 active torsions:
  status: ('A' for Active; 'I' for Inactive)
    1  A    between atoms: C_13  and  C_29
    2  A    between atoms: C_16  and  C_27
                            x       y       z     vdW  Elec       q    Type
                         _______ _______ _______ _____ _____    ______ ____

>  <TORSDO>
F 2

$$$$
=
 OpenBabel11052419163D

 32 37  0  0  1  0  0  0  0  0999 V2000
  191.0710  175.5110  145.0070 C   0  0  0  0  0  0  0  0  0  0  0  0
  188.7130  176.0610  144.8770 C   0  0  0  0  0  0  0  0  0  0  0  0
  192.3530  175.4540  145.8000 C   0  0  0  0  0  2  0  0  0  0  0  0
  189.8790  175.9400  145.6290 C   0  0  0  0  0  0  0  0  0  0  0  0
  187.4340  176.4470  145.5760 C   0  0  2  0  0  3  0  0  0  0  0  0
  187.0160  177.9090  140.8950 C   0  0  0  0  0  2  0  0  0  0  0  0
  188.7660  175.9370  143.4910 C   0  0  0  0  0  0  0  0  0  0  0  0
  185.3660  177.5610  142.7530 C   0  0  0  0  0  2  0  0  0  0  0  0
  186.6410  177.2040  143.5210 C   0  0  1  0  0  3  0  0  0  0  0  0
  189.7960  176.2700  147.1060 C   0  0  2  0  0  3  0  0  0  0  0  0
  186.2940  176.5830  144.7390 O   0  0  0  0  0  0  0  0  0  0  0  0
  188.9730  177.5520  147.3350 C   0  0  0  0  0  2  0  0  0  0  0  0
  191.1700  176.4310  147.7520 C   0  0  0  0  0  2  0  0  0  0  0  0
  189.9210  175.5320  142.8980 N   0  0  0  0  0  0  0  0  0  0  0  0
  191.0620  175.2870  143.6050 C   0  0  0  0  0  0  0  0  0  0  0  0
  187.5520  176.2800  142.6810 C   0  0  1  0  0  3  0  0  0  0  0  0
  187.6460  177.6270  146.5370 C   0  0  2  0  0  3  0  0  0  0  0  0
  192.1000  175.3160  147.2980 C   0  0  0  0  0  2  0  0  0  0  0  0
  185.5680  177.5680  141.2370 C   0  0  0  0  0  2  0  0  0  0  0  0
  187.9540  176.8960  141.4010 N   0  0  0  0  0  2  0  0  0  0  0  0
  193.8130  172.8740  142.8310 C   0  0  0  0  0  0  0  0  0  0  0  0
  196.2600  174.4730  140.9280 O   0  0  0  0  0  1  0  0  0  0  0  0
  194.0700  171.4020  142.7680 C   0  0  0  0  0  1  0  0  0  0  0  0
  194.2380  175.5470  141.4480 C   0  0  0  0  0  3  0  0  0  0  0  0
  192.2590  174.8380  142.8520 C   0  0  0  0  0  0  0  0  0  0  0  0
  195.0100  173.7570  142.9520 C   0  0  0  0  0  2  0  0  0  0  0  0
  192.9920  175.7650  142.2090 C   0  0  0  0  0  3  0  0  0  0  0  0
  192.5610  173.3730  142.8100 C   0  0  0  0  0  0  0  0  0  0  0  0
  191.3930  172.4340  142.7470 C   0  0  0  0  0  1  0  0  0  0  0  0
  195.1460  174.6180  141.7430 C   0  0  0  0  0  0  0  0  0  0  0  0
  186.4530  177.8270  147.4690 C   0  0  0  0  0  2  0  0  0  0  0  0
  185.6720  179.0890  147.1380 C   0  0  0  0  0  1  0  0  0  0  0  0
  1  4  1  0  0  0  0
  1  3  1  0  0  0  0
  2  5  1  0  0  0  0
  2  4  2  0  0  0  0
  3 18  1  0  0  0  0
  4 10  1  0  0  0  0
  5 11  1  6  0  0  0
  5 17  1  0  0  0  0
  6 19  1  0  0  0  0
  6 20  1  0  0  0  0
  7  2  1  0  0  0  0
  9  8  1  6  0  0  0
  9 11  1  0  0  0  0
 10 12  1  6  0  0  0
 10 13  1  0  0  0  0
 14  7  2  0  0  0  0
 14 15  1  0  0  0  0
 15  1  2  0  0  0  0
 16 20  1  6  0  0  0
 16  7  1  0  0  0  0
 16  9  1  0  0  0  0
 17 12  1  0  0  0  0
 17 31  1  1  0  0  0
 18 13  1  0  0  0  0
 19  8  1  0  0  0  0
 21 26  1  0  0  0  0
 22 30  1  0  0  0  0
 23 21  1  0  0  0  0
 24 30  2  0  0  0  0
 24 27  1  0  0  0  0
 25 15  1  0  0  0  0
 27 25  2  0  0  0  0
 28 21  2  0  0  0  0
 28 25  1  0  0  0  0
 29 28  1  0  0  0  0
 30 26  1  0  0  0  0
 32 31  1  0  0  0  0
M  END
>  <MODEL>
3

>  <REMARK>
 VINA RESULT:      -8.5      1.974      7.252
  Name = 
  2 active torsions:
  status: ('A' for Active; 'I' for Inactive)
    1  A    between atoms: C_13  and  C_29
    2  A    between atoms: C_16  and  C_27
                            x       y       z     vdW  Elec       q    Type
                         _______ _______ _______ _____ _____    ______ ____

>  <TORSDO>
F 2

$$$$
=
 OpenBabel11052419163D

 32 37  0  0  1  0  0  0  0  0999 V2000
  189.3450  175.0600  144.8580 C   0  0  0  0  0  0  0  0  0  0  0  0
  187.2940  176.2730  144.4100 C   0  0  0  0  0  0  0  0  0  0  0  0
  190.4930  174.7390  145.7840 C   0  0  0  0  0  2  0  0  0  0  0  0
  188.3140  175.9220  145.2900 C   0  0  0  0  0  0  0  0  0  0  0  0
  186.1620  177.1320  144.9140 C   0  0  2  0  0  3  0  0  0  0  0  0
  186.5160  177.9130  140.0680 C   0  0  0  0  0  2  0  0  0  0  0  0
  187.3910  175.9270  143.0650 C   0  0  0  0  0  0  0  0  0  0  0  0
  184.7290  178.3730  141.7690 C   0  0  0  0  0  2  0  0  0  0  0  0
  185.7770  177.7680  142.7070 C   0  0  1  0  0  3  0  0  0  0  0  0
  188.2490  176.4840  146.6960 C   0  0  2  0  0  3  0  0  0  0  0  0
  185.1770  177.4770  143.9500 O   0  0  0  0  0  0  0  0  0  0  0  0
  187.8610  177.9750  146.6720 C   0  0  0  0  0  2  0  0  0  0  0  0
  189.5610  176.3180  147.4590 C   0  0  0  0  0  2  0  0  0  0  0  0
  188.3920  175.1040  142.6540 N   0  0  0  0  0  0  0  0  0  0  0  0
  189.3520  174.6360  143.5040 C   0  0  0  0  0  0  0  0  0  0  0  0
  186.3990  176.4930  142.0930 C   0  0  1  0  0  3  0  0  0  0  0  0
  186.6770  178.3250  145.7350 C   0  0  2  0  0  3  0  0  0  0  0  0
  190.1170  174.9180  147.2520 C   0  0  0  0  0  2  0  0  0  0  0  0
  185.0160  178.0850  140.2950 C   0  0  0  0  0  2  0  0  0  0  0  0
  187.0530  176.7530  140.7950 N   0  0  0  0  0  2  0  0  0  0  0  0
  192.0810  173.7630  141.0980 C   0  0  0  0  0  0  0  0  0  0  0  0
  192.6440  170.3220  141.1800 O   0  0  0  0  0  1  0  0  0  0  0  0
  193.2220  174.4000  140.3720 C   0  0  0  0  0  1  0  0  0  0  0  0
  191.1730  171.3440  142.6990 C   0  0  0  0  0  3  0  0  0  0  0  0
  190.3900  173.7350  142.9460 C   0  0  0  0  0  0  0  0  0  0  0  0
  191.5720  172.4730  140.5480 C   0  0  0  0  0  2  0  0  0  0  0  0
  190.2870  172.4160  143.1930 C   0  0  0  0  0  3  0  0  0  0  0  0
  191.5200  174.3440  142.1790 C   0  0  0  0  0  0  0  0  0  0  0  0
  192.0330  175.6710  142.6520 C   0  0  0  0  0  1  0  0  0  0  0  0
  191.7960  171.3670  141.5220 C   0  0  0  0  0  0  0  0  0  0  0  0
  185.5530  179.0190  146.5010 C   0  0  0  0  0  2  0  0  0  0  0  0
  184.4450  178.0530  146.8930 C   0  0  0  0  0  1  0  0  0  0  0  0
  1  4  1  0  0  0  0
  1  3  1  0  0  0  0
  2  5  1  0  0  0  0
  2  4  2  0  0  0  0
  3 18  1  0  0  0  0
  4 10  1  0  0  0  0
  5 11  1  6  0  0  0
  5 17  1  0  0  0  0
  6 19  1  0  0  0  0
  6 20  1  0  0  0  0
  7  2  1  0  0  0  0
  9  8  1  6  0  0  0
  9 11  1  0  0  0  0
 10 12  1  6  0  0  0
 10 13  1  0  0  0  0
 14  7  2  0  0  0  0
 14 15  1  0  0  0  0
 15  1  2  0  0  0  0
 16 20  1  6  0  0  0
 16  9  1  0  0  0  0
 16  7  1  0  0  0  0
 17 31  1  1  0  0  0
 17 12  1  0  0  0  0
 18 13  1  0  0  0  0
 19  8  1  0  0  0  0
 21 28  2  0  0  0  0
 22 30  1  0  0  0  0
 23 21  1  0  0  0  0
 24 27  1  0  0  0  0
 25 27  2  0  0  0  0
 25 15  1  0  0  0  0
 26 21  1  0  0  0  0
 26 30  1  0  0  0  0
 28 29  1  0  0  0  0
 28 25  1  0  0  0  0
 30 24  2  0  0  0  0
 31 32  1  0  0  0  0
M  END
>  <MODEL>
4

>  <REMARK>
 VINA RESULT:      -8.4      2.110      7.125
  Name = 
  2 active torsions:
  status: ('A' for Active; 'I' for Inactive)
    1  A    between atoms: C_13  and  C_29
    2  A    between atoms: C_16  and  C_27
                            x       y       z     vdW  Elec       q    Type
                         _______ _______ _______ _____ _____    ______ ____

>  <TORSDO>
F 2

$$$$
=
 OpenBabel11052419163D

 32 37  0  0  1  0  0  0  0  0999 V2000
  188.9940  174.4280  143.2020 C   0  0  0  0  0  0  0  0  0  0  0  0
  191.1230  173.4980  143.8990 C   0  0  0  0  0  0  0  0  0  0  0  0
  187.8160  174.4210  142.2590 C   0  0  0  0  0  2  0  0  0  0  0  0
  190.0020  173.4470  143.0750 C   0  0  0  0  0  0  0  0  0  0  0  0
  192.1490  172.3980  143.7990 C   0  0  2  0  0  3  0  0  0  0  0  0
  194.4850  176.4050  145.4480 C   0  0  0  0  0  2  0  0  0  0  0  0
  191.3340  174.6080  144.7130 C   0  0  0  0  0  0  0  0  0  0  0  0
  195.0540  173.9600  145.4140 C   0  0  0  0  0  2  0  0  0  0  0  0
  193.7000  173.8820  144.7040 C   0  0  1  0  0  3  0  0  0  0  0  0
  189.9180  172.3100  142.0760 C   0  0  2  0  0  3  0  0  0  0  0  0
  193.2810  172.5360  144.6470 O   0  0  0  0  0  0  0  0  0  0  0  0
  191.2770  172.0890  141.3850 C   0  0  0  0  0  2  0  0  0  0  0  0
  188.8430  172.5330  141.0150 C   0  0  0  0  0  2  0  0  0  0  0  0
  190.3630  175.5540  144.8240 N   0  0  0  0  0  0  0  0  0  0  0  0
  189.1930  175.4890  144.1240 C   0  0  0  0  0  0  0  0  0  0  0  0
  192.6440  174.7490  145.4290 C   0  0  1  0  0  3  0  0  0  0  0  0
  192.5000  172.0810  142.3370 C   0  0  2  0  0  3  0  0  0  0  0  0
  187.5630  173.0410  141.6620 C   0  0  0  0  0  2  0  0  0  0  0  0
  195.2670  175.2910  146.1380 C   0  0  0  0  0  2  0  0  0  0  0  0
  193.0340  176.1710  145.5000 N   0  0  0  0  0  2  0  0  0  0  0  0
  186.0780  176.9250  145.6150 C   0  0  0  0  0  0  0  0  0  0  0  0
  185.1600  179.7910  143.8510 O   0  0  0  0  0  1  0  0  0  0  0  0
  185.2890  176.8930  146.8850 C   0  0  0  0  0  1  0  0  0  0  0  0
  187.1860  178.6920  143.4040 C   0  0  0  0  0  3  0  0  0  0  0  0
  188.2010  176.5720  144.3340 C   0  0  0  0  0  0  0  0  0  0  0  0
  185.3550  177.3720  144.3890 C   0  0  0  0  0  2  0  0  0  0  0  0
  188.1260  177.5540  143.4170 C   0  0  0  0  0  3  0  0  0  0  0  0
  187.3690  176.5390  145.5770 C   0  0  0  0  0  0  0  0  0  0  0  0
  188.0270  176.0410  146.8290 C   0  0  0  0  0  1  0  0  0  0  0  0
  185.9410  178.6430  143.8740 C   0  0  0  0  0  0  0  0  0  0  0  0
  193.2910  170.7810  142.2080 C   0  0  0  0  0  2  0  0  0  0  0  0
  192.5190  169.5850  142.7430 C   0  0  0  0  0  1  0  0  0  0  0  0
  1 15  1  0  0  0  0
  2  7  2  0  0  0  0
  3  1  1  0  0  0  0
  4  1  2  0  0  0  0
  4  2  1  0  0  0  0
  5  2  1  6  0  0  0
  5 11  1  0  0  0  0
  6 20  1  0  0  0  0
  6 19  1  0  0  0  0
  7 14  1  0  0  0  0
  8 19  1  0  0  0  0
  9  8  1  1  0  0  0
  9 16  1  0  0  0  0
 10 13  1  6  0  0  0
 10  4  1  0  0  0  0
 11  9  1  0  0  0  0
 12 10  1  0  0  0  0
 12 17  1  0  0  0  0
 13 18  1  0  0  0  0
 15 25  1  0  0  0  0
 15 14  2  0  0  0  0
 16  7  1  6  0  0  0
 16 20  1  0  0  0  0
 17 31  1  1  0  0  0
 17  5  1  0  0  0  0
 18  3  1  0  0  0  0
 21 23  1  0  0  0  0
 22 30  1  0  0  0  0
 24 27  1  0  0  0  0
 24 30  2  0  0  0  0
 25 28  1  0  0  0  0
 26 21  1  0  0  0  0
 27 25  2  0  0  0  0
 28 21  2  0  0  0  0
 28 29  1  0  0  0  0
 30 26  1  0  0  0  0
 31 32  1  0  0  0  0
M  END
>  <MODEL>
5

>  <REMARK>
 VINA RESULT:      -8.3      1.809      4.708
  Name = 
  2 active torsions:
  status: ('A' for Active; 'I' for Inactive)
    1  A    between atoms: C_13  and  C_29
    2  A    between atoms: C_16  and  C_27
                            x       y       z     vdW  Elec       q    Type
                         _______ _______ _______ _____ _____    ______ ____

>  <TORSDO>
F 2

$$$$
=
 OpenBabel11052419163D

 32 37  0  0  1  0  0  0  0  0999 V2000
  190.0930  174.8550  143.8830 C   0  0  0  0  0  0  0  0  0  0  0  0
  188.7820  176.1680  145.4440 C   0  0  0  0  0  0  0  0  0  0  0  0
  191.4200  174.2710  143.4660 C   0  0  0  0  0  2  0  0  0  0  0  0
  189.9900  175.5690  145.0960 C   0  0  0  0  0  0  0  0  0  0  0  0
  188.6710  176.8600  146.7790 C   0  0  2  0  0  3  0  0  0  0  0  0
  185.4000  178.9850  143.7780 C   0  0  0  0  0  2  0  0  0  0  0  0
  187.7420  176.2180  144.5190 C   0  0  0  0  0  0  0  0  0  0  0  0
  185.7030  178.9620  146.2690 C   0  0  0  0  0  2  0  0  0  0  0  0
  186.9130  178.1030  145.8910 C   0  0  1  0  0  3  0  0  0  0  0  0
  191.1450  175.7080  146.0670 C   0  0  2  0  0  3  0  0  0  0  0  0
  187.4200  177.4770  147.0490 O   0  0  0  0  0  0  0  0  0  0  0  0
  191.2350  177.1490  146.6070 C   0  0  0  0  0  2  0  0  0  0  0  0
  192.4860  175.3170  145.4500 C   0  0  0  0  0  2  0  0  0  0  0  0
  187.8520  175.5350  143.3480 N   0  0  0  0  0  0  0  0  0  0  0  0
  188.9730  174.8340  143.0110 C   0  0  0  0  0  0  0  0  0  0  0  0
  186.5320  177.0490  144.8260 C   0  0  1  0  0  3  0  0  0  0  0  0
  189.8840  177.7640  147.0520 C   0  0  2  0  0  3  0  0  0  0  0  0
  192.3430  174.0280  144.6560 C   0  0  0  0  0  2  0  0  0  0  0  0
  184.6960  179.1020  145.1270 C   0  0  0  0  0  2  0  0  0  0  0  0
  186.0090  177.6600  143.5890 N   0  0  0  0  0  2  0  0  0  0  0  0
  190.1420  172.1620  140.6700 C   0  0  0  0  0  0  0  0  0  0  0  0
  189.2070  172.9810  137.4110 O   0  0  0  0  0  1  0  0  0  0  0  0
  190.5690  170.7290  140.6800 C   0  0  0  0  0  1  0  0  0  0  0  0
  188.4800  174.2650  139.2370 C   0  0  0  0  0  3  0  0  0  0  0  0
  188.9750  174.1170  141.7120 C   0  0  0  0  0  0  0  0  0  0  0  0
  190.5630  172.9770  139.4930 C   0  0  0  0  0  2  0  0  0  0  0  0
  188.5210  174.7680  140.6250 C   0  0  0  0  0  3  0  0  0  0  0  0
  189.4380  172.6950  141.6890 C   0  0  0  0  0  0  0  0  0  0  0  0
  189.0950  171.8420  142.8740 C   0  0  0  0  0  1  0  0  0  0  0  0
  189.3710  173.4240  138.7160 C   0  0  0  0  0  0  0  0  0  0  0  0
  189.9390  178.2240  148.5070 C   0  0  0  0  0  2  0  0  0  0  0  0
  191.2740  177.9010  149.1600 C   0  0  0  0  0  1  0  0  0  0  0  0
  1  4  1  0  0  0  0
  3  1  1  0  0  0  0
  3 18  1  0  0  0  0
  4  2  2  0  0  0  0
  4 10  1  0  0  0  0
  5  2  1  6  0  0  0
  5 11  1  0  0  0  0
  5 17  1  0  0  0  0
  6 19  1  0  0  0  0
  7 16  1  0  0  0  0
  7  2  1  0  0  0  0
  9  8  1  1  0  0  0
  9 11  1  0  0  0  0
 10 13  1  6  0  0  0
 10 12  1  0  0  0  0
 12 17  1  0  0  0  0
 14  7  2  0  0  0  0
 15 14  1  0  0  0  0
 15  1  2  0  0  0  0
 16 20  1  6  0  0  0
 16  9  1  0  0  0  0
 17 31  1  1  0  0  0
 18 13  1  0  0  0  0
 19  8  1  0  0  0  0
 20  6  1  0  0  0  0
 21 23  1  0  0  0  0
 21 28  2  0  0  0  0
 22 30  1  0  0  0  0
 24 27  1  0  0  0  0
 25 15  1  0  0  0  0
 26 21  1  0  0  0  0
 27 25  2  0  0  0  0
 28 25  1  0  0  0  0
 28 29  1  0  0  0  0
 30 24  2  0  0  0  0
 30 26  1  0  0  0  0
 31 32  1  0  0  0  0
M  END
>  <MODEL>
6

>  <REMARK>
 VINA RESULT:      -7.8      1.984      6.787
  Name = 
  2 active torsions:
  status: ('A' for Active; 'I' for Inactive)
    1  A    between atoms: C_13  and  C_29
    2  A    between atoms: C_16  and  C_27
                            x       y       z     vdW  Elec       q    Type
                         _______ _______ _______ _____ _____    ______ ____

>  <TORSDO>
F 2

$$$$
=
 OpenBabel11052419163D

 32 37  0  0  1  0  0  0  0  0999 V2000
  191.1440  174.1090  144.2910 C   0  0  0  0  0  0  0  0  0  0  0  0
  193.5410  173.8130  144.5060 C   0  0  0  0  0  0  0  0  0  0  0  0
  189.7650  173.5110  144.1550 C   0  0  0  0  0  2  0  0  0  0  0  0
  192.2630  173.2630  144.4530 C   0  0  0  0  0  0  0  0  0  0  0  0
  194.7150  172.9010  144.7560 C   0  0  2  0  0  3  0  0  0  0  0  0
  196.4170  176.7930  142.2700 C   0  0  0  0  0  2  0  0  0  0  0  0
  193.7270  175.1630  144.2200 C   0  0  0  0  0  0  0  0  0  0  0  0
  197.5160  174.9880  143.6230 C   0  0  0  0  0  2  0  0  0  0  0  0
  196.0680  174.5100  143.7540 C   0  0  1  0  0  3  0  0  0  0  0  0
  192.1420  171.7580  144.5870 C   0  0  2  0  0  3  0  0  0  0  0  0
  195.9900  173.5280  144.7640 O   0  0  0  0  0  0  0  0  0  0  0  0
  193.2210  171.0460  143.7490 C   0  0  0  0  0  2  0  0  0  0  0  0
  190.7650  171.2380  144.1830 C   0  0  0  0  0  2  0  0  0  0  0  0
  192.6440  175.9700  144.0560 N   0  0  0  0  0  0  0  0  0  0  0  0
  191.3640  175.4990  144.1110 C   0  0  0  0  0  0  0  0  0  0  0  0
  195.1220  175.6920  144.0700 C   0  0  1  0  0  3  0  0  0  0  0  0
  194.6470  171.6370  143.8830 C   0  0  2  0  0  3  0  0  0  0  0  0
  189.6750  172.1200  144.7730 C   0  0  0  0  0  2  0  0  0  0  0  0
  197.6220  176.4330  143.1340 C   0  0  0  0  0  2  0  0  0  0  0  0
  195.1590  176.7390  143.0310 N   0  0  0  0  0  2  0  0  0  0  0  0
  188.1390  177.1180  145.0940 C   0  0  0  0  0  0  0  0  0  0  0  0
  186.8670  178.9120  142.3870 O   0  0  0  0  0  1  0  0  0  0  0  0
  187.3860  177.5330  146.3170 C   0  0  0  0  0  1  0  0  0  0  0  0
  188.9940  177.9220  142.2910 C   0  0  0  0  0  3  0  0  0  0  0  0
  190.2610  176.4740  143.9300 C   0  0  0  0  0  0  0  0  0  0  0  0
  187.3450  176.9550  143.8420 C   0  0  0  0  0  2  0  0  0  0  0  0
  190.0570  176.9840  142.7010 C   0  0  0  0  0  3  0  0  0  0  0  0
  189.4650  176.8740  145.1310 C   0  0  0  0  0  0  0  0  0  0  0  0
  190.2010  176.9950  146.4330 C   0  0  0  0  0  1  0  0  0  0  0  0
  187.7720  177.9530  142.8200 C   0  0  0  0  0  0  0  0  0  0  0  0
  195.6450  170.5740  144.3390 C   0  0  0  0  0  2  0  0  0  0  0  0
  195.4600  170.2040  145.8020 C   0  0  0  0  0  1  0  0  0  0  0  0
  1  4  1  0  0  0  0
  3  1  1  0  0  0  0
  3 18  1  0  0  0  0
  4  2  2  0  0  0  0
  4 10  1  0  0  0  0
  5  2  1  6  0  0  0
  5 11  1  0  0  0  0
  6 20  1  0  0  0  0
  6 19  1  0  0  0  0
  7  2  1  0  0  0  0
  9  8  1  1  0  0  0
  9 16  1  0  0  0  0
  9 11  1  0  0  0  0
 10 12  1  6  0  0  0
 12 17  1  0  0  0  0
 13 10  1  0  0  0  0
 13 18  1  0  0  0  0
 14 15  1  0  0  0  0
 14  7  2  0  0  0  0
 15  1  2  0  0  0  0
 16 20  1  6  0  0  0
 16  7  1  0  0  0  0
 17 31  1  1  0  0  0
 17  5  1  0  0  0  0
 19  8  1  0  0  0  0
 21 28  2  0  0  0  0
 21 23  1  0  0  0  0
 22 30  1  0  0  0  0
 24 27  1  0  0  0  0
 24 30  2  0  0  0  0
 25 15  1  0  0  0  0
 25 28  1  0  0  0  0
 26 21  1  0  0  0  0
 27 25  2  0  0  0  0
 28 29  1  0  0  0  0
 30 26  1  0  0  0  0
 31 32  1  0  0  0  0
M  END
>  <MODEL>
7

>  <REMARK>
 VINA RESULT:      -7.7      2.785      4.910
  Name = 
  2 active torsions:
  status: ('A' for Active; 'I' for Inactive)
    1  A    between atoms: C_13  and  C_29
    2  A    between atoms: C_16  and  C_27
                            x       y       z     vdW  Elec       q    Type
                         _______ _______ _______ _____ _____    ______ ____

>  <TORSDO>
F 2

$$$$
=
 OpenBabel11052419163D

 32 37  0  0  1  0  0  0  0  0999 V2000
  191.9700  174.6210  145.1960 C   0  0  0  0  0  0  0  0  0  0  0  0
  190.0320  174.5550  143.7410 C   0  0  0  0  0  0  0  0  0  0  0  0
  192.6920  175.2210  146.3770 C   0  0  0  0  0  2  0  0  0  0  0  0
  190.6680  175.0590  144.8720 C   0  0  0  0  0  0  0  0  0  0  0  0
  188.6130  174.9770  143.4550 C   0  0  2  0  0  3  0  0  0  0  0  0
  190.6590  173.7900  139.1390 C   0  0  0  0  0  2  0  0  0  0  0  0
  190.7440  173.7680  142.8390 C   0  0  0  0  0  0  0  0  0  0  0  0
  188.2890  174.1000  139.9040 C   0  0  0  0  0  2  0  0  0  0  0  0
  188.9920  174.4330  141.2230 C   0  0  1  0  0  3  0  0  0  0  0  0
  189.9040  176.0590  145.7180 C   0  0  2  0  0  3  0  0  0  0  0  0
  188.0430  174.4490  142.2660 O   0  0  0  0  0  0  0  0  0  0  0  0
  189.1880  177.0920  144.8280 C   0  0  0  0  0  2  0  0  0  0  0  0
  190.7960  176.7880  146.7190 C   0  0  0  0  0  2  0  0  0  0  0  0
  192.0010  173.3570  143.1530 N   0  0  0  0  0  0  0  0  0  0  0  0
  192.6270  173.7290  144.3080 C   0  0  0  0  0  0  0  0  0  0  0  0
  190.1140  173.4130  141.5250 C   0  0  1  0  0  3  0  0  0  0  0  0
  188.4300  176.4950  143.6150 C   0  0  2  0  0  3  0  0  0  0  0  0
  191.7300  175.8040  147.4070 C   0  0  0  0  0  2  0  0  0  0  0  0
  189.2050  173.3880  138.9080 C   0  0  0  0  0  2  0  0  0  0  0  0
  191.1400  173.3720  140.4650 N   0  0  0  0  0  2  0  0  0  0  0  0
  196.2180  173.2120  143.3970 C   0  0  0  0  0  0  0  0  0  0  0  0
  197.5650  170.6770  145.3780 O   0  0  0  0  0  1  0  0  0  0  0  0
  197.3490  173.9240  142.7270 C   0  0  0  0  0  1  0  0  0  0  0  0
  195.3980  171.4930  145.7660 C   0  0  0  0  0  3  0  0  0  0  0  0
  193.9950  173.2100  144.5510 C   0  0  0  0  0  0  0  0  0  0  0  0
  196.3260  171.7270  143.4970 C   0  0  0  0  0  2  0  0  0  0  0  0
  194.1440  172.1900  145.4160 C   0  0  0  0  0  3  0  0  0  0  0  0
  195.1400  173.8790  143.8590 C   0  0  0  0  0  0  0  0  0  0  0  0
  195.0580  175.3650  143.6770 C   0  0  0  0  0  1  0  0  0  0  0  0
  196.4140  171.3070  144.9250 C   0  0  0  0  0  0  0  0  0  0  0  0
  186.9560  176.8940  143.6330 C   0  0  0  0  0  2  0  0  0  0  0  0
  186.3520  176.7910  145.0250 C   0  0  0  0  0  1  0  0  0  0  0  0
  1  3  1  0  0  0  0
  2  4  2  0  0  0  0
  3 18  1  0  0  0  0
  4  1  1  0  0  0  0
  4 10  1  0  0  0  0
  5 11  1  6  0  0  0
  5 17  1  0  0  0  0
  5  2  1  0  0  0  0
  6 20  1  0  0  0  0
  7 14  2  0  0  0  0
  7  2  1  0  0  0  0
  9  8  1  6  0  0  0
  9 16  1  0  0  0  0
  9 11  1  0  0  0  0
 10 12  1  6  0  0  0
 10 13  1  0  0  0  0
 13 18  1  0  0  0  0
 14 15  1  0  0  0  0
 15 25  1  0  0  0  0
 15  1  2  0  0  0  0
 16 20  1  6  0  0  0
 16  7  1  0  0  0  0
 17 31  1  1  0  0  0
 17 12  1  0  0  0  0
 19  6  1  0  0  0  0
 19  8  1  0  0  0  0
 21 26  1  0  0  0  0
 21 28  2  0  0  0  0
 23 21  1  0  0  0  0
 25 27  2  0  0  0  0
 26 30  1  0  0  0  0
 27 24  1  0  0  0  0
 28 25  1  0  0  0  0
 29 28  1  0  0  0  0
 30 22  1  0  0  0  0
 30 24  2  0  0  0  0
 31 32  1  0  0  0  0
M  END
>  <MODEL>
8

>  <REMARK>
 VINA RESULT:      -7.6      2.335      7.403
  Name = 
  2 active torsions:
  status: ('A' for Active; 'I' for Inactive)
    1  A    between atoms: C_13  and  C_29
    2  A    between atoms: C_16  and  C_27
                            x       y       z     vdW  Elec       q    Type
                         _______ _______ _______ _____ _____    ______ ____

>  <TORSDO>
F 2

$$$$
=
 OpenBabel11052419163D

 32 37  0  0  1  0  0  0  0  0999 V2000
  188.2690  176.5110  142.9440 C   0  0  0  0  0  0  0  0  0  0  0  0
  188.1670  175.2380  140.8830 C   0  0  0  0  0  0  0  0  0  0  0  0
  187.8160  177.6900  143.7710 C   0  0  0  0  0  2  0  0  0  0  0  0
  187.6980  176.2840  141.6740 C   0  0  0  0  0  0  0  0  0  0  0  0
  187.4930  174.9640  139.5630 C   0  0  2  0  0  3  0  0  0  0  0  0
  192.1200  173.3330  139.1810 C   0  0  0  0  0  2  0  0  0  0  0  0
  189.3110  174.5410  141.2650 C   0  0  0  0  0  0  0  0  0  0  0  0
  190.0290  172.9350  137.8520 C   0  0  0  0  0  2  0  0  0  0  0  0
  189.4570  173.9190  138.8740 C   0  0  1  0  0  3  0  0  0  0  0  0
  186.5670  177.1270  141.1190 C   0  0  2  0  0  3  0  0  0  0  0  0
  188.0480  173.9040  138.7970 O   0  0  0  0  0  0  0  0  0  0  0  0
  186.8090  177.4570  139.6340 C   0  0  0  0  0  2  0  0  0  0  0  0
  186.3620  178.4240  141.8970 C   0  0  0  0  0  2  0  0  0  0  0  0
  189.8610  174.7720  142.4870 N   0  0  0  0  0  0  0  0  0  0  0  0
  189.3660  175.7070  143.3490 C   0  0  0  0  0  0  0  0  0  0  0  0
  189.9260  173.5680  140.3050 C   0  0  1  0  0  3  0  0  0  0  0  0
  187.2640  176.2570  138.7640 C   0  0  2  0  0  3  0  0  0  0  0  0
  186.4140  178.1550  143.3930 C   0  0  0  0  0  2  0  0  0  0  0  0
  191.3760  172.3510  138.2810 C   0  0  0  0  0  2  0  0  0  0  0  0
  191.3970  173.5850  140.4370 N   0  0  0  0  0  2  0  0  0  0  0  0
  192.3660  176.2040  145.5280 C   0  0  0  0  0  0  0  0  0  0  0  0
  191.5660  175.3600  148.8160 O   0  0  0  0  0  1  0  0  0  0  0  0
  193.6660  176.9420  145.5450 C   0  0  0  0  0  1  0  0  0  0  0  0
  189.9160  175.4180  147.1460 C   0  0  0  0  0  3  0  0  0  0  0  0
  190.0410  175.8640  144.6610 C   0  0  0  0  0  0  0  0  0  0  0  0
  192.2460  175.0360  146.4480 C   0  0  0  0  0  2  0  0  0  0  0  0
  189.4100  175.4090  145.7590 C   0  0  0  0  0  3  0  0  0  0  0  0
  191.3640  176.5610  144.6990 C   0  0  0  0  0  0  0  0  0  0  0  0
  191.5630  177.7070  143.7520 C   0  0  0  0  0  1  0  0  0  0  0  0
  191.1990  175.2900  147.4790 C   0  0  0  0  0  0  0  0  0  0  0  0
  186.3180  176.0410  137.5850 C   0  0  0  0  0  2  0  0  0  0  0  0
  187.0270  176.1890  136.2470 C   0  0  0  0  0  1  0  0  0  0  0  0
  1 15  1  0  0  0  0
  1  3  1  0  0  0  0
  2  7  2  0  0  0  0
  2  4  1  0  0  0  0
  4  1  2  0  0  0  0
  5 11  1  6  0  0  0
  5  2  1  0  0  0  0
  6 20  1  0  0  0  0
  7 14  1  0  0  0  0
  8 19  1  0  0  0  0
  9  8  1  6  0  0  0
  9 16  1  0  0  0  0
 10 12  1  6  0  0  0
 10  4  1  0  0  0  0
 10 13  1  0  0  0  0
 11  9  1  0  0  0  0
 13 18  1  0  0  0  0
 14 15  2  0  0  0  0
 15 25  1  0  0  0  0
 16 20  1  6  0  0  0
 16  7  1  0  0  0  0
 17 31  1  6  0  0  0
 17  5  1  0  0  0  0
 17 12  1  0  0  0  0
 18  3  1  0  0  0  0
 19  6  1  0  0  0  0
 21 23  1  0  0  0  0
 21 26  1  0  0  0  0
 24 30  2  0  0  0  0
 25 28  1  0  0  0  0
 25 27  2  0  0  0  0
 26 30  1  0  0  0  0
 27 24  1  0  0  0  0
 28 21  2  0  0  0  0
 29 28  1  0  0  0  0
 30 22  1  0  0  0  0
 32 31  1  0  0  0  0
M  END
>  <MODEL>
9

>  <REMARK>
 VINA RESULT:      -7.6      3.005      6.318
  Name = 
  2 active torsions:
  status: ('A' for Active; 'I' for Inactive)
    1  A    between atoms: C_13  and  C_29
    2  A    between atoms: C_16  and  C_27
                            x       y       z     vdW  Elec       q    Type
                         _______ _______ _______ _____ _____    ______ ____

>  <TORSDO>
F 2

$$$$
