=
 OpenBabel11052420593D

 43 48  0  0  1  0  0  0  0  0999 V2000
  196.4110  169.4410  147.2640 C   0  0  1  0  0  3  0  0  0  0  0  0
  196.2280  172.8570  143.4360 C   0  0  0  0  0  0  0  0  0  0  0  0
  193.5480  173.5670  143.2470 C   0  0  0  0  0  0  0  0  0  0  0  0
  196.9830  170.8640  145.2690 C   0  0  0  0  0  0  0  0  0  0  0  0
  195.0330  169.2750  146.6450 C   0  0  0  0  0  2  0  0  0  0  0  0
  196.8060  168.1660  147.9750 C   0  0  0  0  0  1  0  0  0  0  0  0
  195.6190  171.2200  145.1470 C   0  0  0  0  0  0  0  0  0  0  0  0
  197.4280  169.7470  146.1680 C   0  0  0  0  0  2  0  0  0  0  0  0
  194.5780  170.6050  146.0500 C   0  0  0  0  0  2  0  0  0  0  0  0
  193.9440  172.6050  144.1230 N   0  0  0  0  0  0  0  0  0  0  0  0
  195.2460  172.2270  144.2380 C   0  0  0  0  0  0  0  0  0  0  0  0
  197.5690  172.4780  143.5580 C   0  0  0  0  0  3  0  0  0  0  0  0
  195.8450  173.8650  142.5340 C   0  0  0  0  0  0  0  0  0  0  0  0
  194.4900  174.2080  142.4430 C   0  0  0  0  0  3  0  0  0  0  0  0
  197.9410  171.4850  144.4630 C   0  0  0  0  0  3  0  0  0  0  0  0
  192.1130  173.9680  143.1600 C   0  0  1  0  0  3  0  0  0  0  0  0
  189.6110  176.8030  143.2850 C   0  0  0  0  0  3  0  0  0  0  0  0
  191.7630  175.4190  144.2170 S   0  0  0  0  0  0  0  0  0  0  0  0
  191.7290  174.2930  141.7200 C   0  0  0  0  0  2  0  0  0  0  0  0
  190.5620  175.9170  143.0120 C   0  0  0  0  0  0  0  0  0  0  0  0
  190.6430  175.2500  141.7650 N   0  0  0  0  0  2  0  0  0  0  0  0
  188.6130  177.1330  142.3160 N   0  0  0  0  0  2  0  0  0  0  0  0
  187.1820  177.0810  142.6020 C   0  0  2  0  0  0  0  0  0  0  0  0
  186.8990  175.8680  143.2360 O   0  0  0  0  0  1  0  0  0  0  0  0
  186.3810  177.1800  141.2950 C   0  0  0  0  0  2  0  0  0  0  0  0
  184.2250  178.1360  140.4670 C   0  0  0  0  0  1  0  0  0  0  0  0
  185.5050  178.4280  141.2270 C   0  0  0  0  0  2  0  0  0  0  0  0
  186.8070  178.2370  143.5400 C   0  0  0  0  0  2  0  0  0  0  0  0
  186.0210  177.7910  144.7680 C   0  0  1  0  0  3  0  0  0  0  0  0
  184.2690  178.3880  146.4290 C   0  0  0  0  0  2  0  0  0  0  0  0
  186.6150  177.8650  147.1950 C   0  0  0  0  0  3  0  0  0  0  0  0
  185.3000  178.5140  147.5510 C   0  0  0  0  0  2  0  0  0  0  0  0
  186.9620  177.5830  145.9270 C   0  0  0  0  0  3  0  0  0  0  0  0
  184.9100  178.7880  145.1070 C   0  0  0  0  0  2  0  0  0  0  0  0
  196.8260  174.4790  141.7340 O   0  0  0  0  0  0  0  0  0  0  0  0
  197.4550  172.9090  138.4080 C   0  0  0  0  0  3  0  0  0  0  0  0
  197.9410  174.1230  137.6660 C   0  0  2  0  0  3  0  0  0  0  0  0
  197.0880  175.4460  139.6050 C   0  0  0  0  0  3  0  0  0  0  0  0
  197.0510  173.0140  139.6770 C   0  0  0  0  0  3  0  0  0  0  0  0
  196.9980  174.3360  140.3480 C   0  0  0  0  0  0  0  0  0  0  0  0
  197.1630  175.3680  138.1040 C   0  0  0  0  0  2  0  0  0  0  0  0
  196.8860  174.8690  135.6020 N   0  0  0  0  0  1  0  0  0  0  0  0
  197.8060  173.8980  136.1700 C   0  0  0  0  0  2  0  0  0  0  0  0
  1  6  1  6  0  0  0
  2 12  1  0  0  0  0
  2 11  1  0  0  0  0
  3 10  1  0  0  0  0
  4  8  1  0  0  0  0
  5  1  1  0  0  0  0
  7  4  2  0  0  0  0
  7  9  1  0  0  0  0
  8  1  1  0  0  0  0
  9  5  1  0  0  0  0
 10 11  2  0  0  0  0
 11  7  1  0  0  0  0
 12 15  2  0  0  0  0
 13  2  2  0  0  0  0
 14 13  1  0  0  0  0
 14  3  2  0  0  0  0
 15  4  1  0  0  0  0
 16  3  1  6  0  0  0
 16 18  1  0  0  0  0
 19 21  1  0  0  0  0
 19 16  1  0  0  0  0
 20 17  2  0  0  0  0
 20 18  1  0  0  0  0
 21 20  1  0  0  0  0
 22 23  1  0  0  0  0
 22 17  1  0  0  0  0
 23 24  1  1  0  0  0
 23 28  1  0  0  0  0
 25 23  1  0  0  0  0
 26 27  1  0  0  0  0
 27 25  1  0  0  0  0
 29 28  1  6  0  0  0
 29 34  1  0  0  0  0
 29 33  1  0  0  0  0
 30 32  1  0  0  0  0
 31 32  1  0  0  0  0
 33 31  2  0  0  0  0
 34 30  1  0  0  0  0
 35 13  1  0  0  0  0
 36 39  2  0  0  0  0
 37 43  1  6  0  0  0
 37 41  1  0  0  0  0
 37 36  1  0  0  0  0
 38 40  2  0  0  0  0
 39 40  1  0  0  0  0
 40 35  1  0  0  0  0
 41 38  1  0  0  0  0
 42 43  1  0  0  0  0
M  END
>  <MODEL>
1

>  <REMARK>
 VINA RESULT:      -7.5      0.000      0.000
  Name = 
  10 active torsions:
  status: ('A' for Active; 'I' for Inactive)
    1  A    between atoms: O_1  and  C_34
    2  A    between atoms: O_1  and  C_35
    3  A    between atoms: C_2  and  C_13
    4  A    between atoms: C_3  and  N_4
    5  A    between atoms: N_4  and  C_22
    6  A    between atoms: C_10  and  C_22
    7  A    between atoms: C_10  and  C_42
    8  A    between atoms: C_11  and  C_14
    9  A    between atoms: C_14  and  C_22
   10  A    between atoms: C_19  and  C_37
                            x       y       z     vdW  Elec       q    Type
                         _______ _______ _______ _____ _____    ______ ____

>  <TORSDO>
F 10

$$$$
=
 OpenBabel11052420593D

 43 48  0  0  1  0  0  0  0  0999 V2000
  185.7470  178.1680  146.2320 C   0  0  1  0  0  3  0  0  0  0  0  0
  190.3840  176.0340  145.6840 C   0  0  0  0  0  0  0  0  0  0  0  0
  190.1730  174.4540  143.4080 C   0  0  0  0  0  0  0  0  0  0  0  0
  188.0980  177.3680  146.6330 C   0  0  0  0  0  0  0  0  0  0  0  0
  185.4930  176.8270  145.5640 C   0  0  0  0  0  2  0  0  0  0  0  0
  184.4980  178.6200  146.9550 C   0  0  0  0  0  1  0  0  0  0  0  0
  188.0000  176.5440  145.4870 C   0  0  0  0  0  0  0  0  0  0  0  0
  186.8920  178.0310  147.2310 C   0  0  0  0  0  2  0  0  0  0  0  0
  186.7050  176.4410  144.7190 C   0  0  0  0  0  2  0  0  0  0  0  0
  189.0850  175.1110  143.8920 N   0  0  0  0  0  0  0  0  0  0  0  0
  189.1490  175.8880  145.0080 C   0  0  0  0  0  0  0  0  0  0  0  0
  190.4570  176.8390  146.8260 C   0  0  0  0  0  3  0  0  0  0  0  0
  191.5260  175.3780  145.1940 C   0  0  0  0  0  0  0  0  0  0  0  0
  191.4050  174.5790  144.0500 C   0  0  0  0  0  3  0  0  0  0  0  0
  189.3200  177.4950  147.2990 C   0  0  0  0  0  3  0  0  0  0  0  0
  190.0690  173.6250  142.1710 C   0  0  1  0  0  3  0  0  0  0  0  0
  189.2740  173.5490  138.4740 C   0  0  0  0  0  3  0  0  0  0  0  0
  188.7660  174.2560  141.0540 S   0  0  0  0  0  0  0  0  0  0  0  0
  191.4000  173.5990  141.4250 C   0  0  0  0  0  2  0  0  0  0  0  0
  189.7660  173.7100  139.6960 C   0  0  0  0  0  0  0  0  0  0  0  0
  191.1070  173.3900  140.0220 N   0  0  0  0  0  2  0  0  0  0  0  0
  190.0860  173.0400  137.4140 N   0  0  0  0  0  2  0  0  0  0  0  0
  189.9260  173.4530  136.0220 C   0  0  2  0  0  0  0  0  0  0  0  0
  188.9080  174.4090  135.9560 O   0  0  0  0  0  1  0  0  0  0  0  0
  189.5550  172.2420  135.1530 C   0  0  0  0  0  2  0  0  0  0  0  0
  191.1070  170.3630  134.5990 C   0  0  0  0  0  1  0  0  0  0  0  0
  190.1790  170.9400  135.6500 C   0  0  0  0  0  2  0  0  0  0  0  0
  191.2360  174.0800  135.5230 C   0  0  0  0  0  2  0  0  0  0  0  0
  192.3790  173.9770  136.5280 C   0  0  1  0  0  3  0  0  0  0  0  0
  194.1860  175.1880  137.7320 C   0  0  0  0  0  2  0  0  0  0  0  0
  194.7500  173.2460  136.2240 C   0  0  0  0  0  3  0  0  0  0  0  0
  195.2730  174.4720  136.9300 C   0  0  0  0  0  2  0  0  0  0  0  0
  193.4400  173.0470  135.9980 C   0  0  0  0  0  3  0  0  0  0  0  0
  192.9470  175.3580  136.8640 C   0  0  0  0  0  2  0  0  0  0  0  0
  192.7470  175.5210  145.8790 O   0  0  0  0  0  0  0  0  0  0  0  0
  195.6500  176.1570  143.6220 C   0  0  0  0  0  3  0  0  0  0  0  0
  196.4080  174.8790  143.8540 C   0  0  2  0  0  3  0  0  0  0  0  0
  194.8690  174.5090  145.7860 C   0  0  0  0  0  3  0  0  0  0  0  0
  194.5190  176.3970  144.2910 C   0  0  0  0  0  3  0  0  0  0  0  0
  194.0370  175.4530  145.3290 C   0  0  0  0  0  0  0  0  0  0  0  0
  196.2990  174.4470  145.3190 C   0  0  0  0  0  2  0  0  0  0  0  0
  197.9390  175.6010  142.1030 N   0  0  0  0  0  1  0  0  0  0  0  0
  197.8610  175.0650  143.4510 C   0  0  0  0  0  2  0  0  0  0  0  0
  1  6  1  1  0  0  0
  1  8  1  0  0  0  0
  2 12  1  0  0  0  0
  3 10  2  0  0  0  0
  3 14  1  0  0  0  0
  4  8  1  0  0  0  0
  4 15  1  0  0  0  0
  5  1  1  0  0  0  0
  7  4  2  0  0  0  0
  9  7  1  0  0  0  0
  9  5  1  0  0  0  0
 10 11  1  0  0  0  0
 11  7  1  0  0  0  0
 11  2  2  0  0  0  0
 12 15  2  0  0  0  0
 13  2  1  0  0  0  0
 13 35  1  0  0  0  0
 14 13  2  0  0  0  0
 16  3  1  1  0  0  0
 17 20  2  0  0  0  0
 18 16  1  0  0  0  0
 19 16  1  0  0  0  0
 20 21  1  0  0  0  0
 20 18  1  0  0  0  0
 21 19  1  0  0  0  0
 22 17  1  0  0  0  0
 23 24  1  6  0  0  0
 23 22  1  0  0  0  0
 25 27  1  0  0  0  0
 25 23  1  0  0  0  0
 26 27  1  0  0  0  0
 28 23  1  0  0  0  0
 29 28  1  6  0  0  0
 29 34  1  0  0  0  0
 31 32  1  0  0  0  0
 32 30  1  0  0  0  0
 33 31  2  0  0  0  0
 33 29  1  0  0  0  0
 34 30  1  0  0  0  0
 36 37  1  0  0  0  0
 36 39  2  0  0  0  0
 37 43  1  1  0  0  0
 37 41  1  0  0  0  0
 39 40  1  0  0  0  0
 40 38  2  0  0  0  0
 40 35  1  0  0  0  0
 41 38  1  0  0  0  0
 42 43  1  0  0  0  0
M  END
>  <MODEL>
2

>  <REMARK>
 VINA RESULT:      -7.5      3.850      9.127
  Name = 
  10 active torsions:
  status: ('A' for Active; 'I' for Inactive)
    1  A    between atoms: O_1  and  C_34
    2  A    between atoms: O_1  and  C_35
    3  A    between atoms: C_2  and  C_13
    4  A    between atoms: C_3  and  N_4
    5  A    between atoms: N_4  and  C_22
    6  A    between atoms: C_10  and  C_22
    7  A    between atoms: C_10  and  C_42
    8  A    between atoms: C_11  and  C_14
    9  A    between atoms: C_14  and  C_22
   10  A    between atoms: C_19  and  C_37
                            x       y       z     vdW  Elec       q    Type
                         _______ _______ _______ _____ _____    ______ ____

>  <TORSDO>
F 10

$$$$
=
 OpenBabel11052420593D

 43 48  0  0  1  0  0  0  0  0999 V2000
  196.8720  170.5430  146.0480 C   0  0  1  0  0  3  0  0  0  0  0  0
  196.2810  174.2170  142.5120 C   0  0  0  0  0  0  0  0  0  0  0  0
  193.8100  175.3560  143.0790 C   0  0  0  0  0  0  0  0  0  0  0  0
  197.1350  172.0000  144.0140 C   0  0  0  0  0  0  0  0  0  0  0  0
  195.3720  170.6440  145.8240 C   0  0  0  0  0  2  0  0  0  0  0  0
  197.2130  169.1730  146.5900 C   0  0  0  0  0  1  0  0  0  0  0  0
  195.8700  172.5760  144.2780 C   0  0  0  0  0  0  0  0  0  0  0  0
  197.6010  170.7630  144.7260 C   0  0  0  0  0  2  0  0  0  0  0  0
  195.0130  172.0700  145.4130 C   0  0  0  0  0  2  0  0  0  0  0  0
  194.2510  174.2820  143.7870 N   0  0  0  0  0  0  0  0  0  0  0  0
  195.4510  173.6940  143.5330 C   0  0  0  0  0  0  0  0  0  0  0  0
  197.5200  173.6220  142.2530 C   0  0  0  0  0  3  0  0  0  0  0  0
  195.8540  175.3360  141.7770 C   0  0  0  0  0  0  0  0  0  0  0  0
  194.6040  175.8970  142.0680 C   0  0  0  0  0  3  0  0  0  0  0  0
  197.9390  172.5180  142.9960 C   0  0  0  0  0  3  0  0  0  0  0  0
  192.4950  175.9860  143.3970 C   0  0  1  0  0  3  0  0  0  0  0  0
  189.0320  175.5160  144.8440 C   0  0  0  0  0  3  0  0  0  0  0  0
  191.1290  174.7760  143.2740 S   0  0  0  0  0  0  0  0  0  0  0  0
  192.5080  176.5860  144.8000 C   0  0  0  0  0  2  0  0  0  0  0  0
  190.3260  175.6560  144.5860 C   0  0  0  0  0  0  0  0  0  0  0  0
  191.1450  176.5720  145.2910 N   0  0  0  0  0  2  0  0  0  0  0  0
  188.3950  176.2910  145.8620 N   0  0  0  0  0  2  0  0  0  0  0  0
  187.2340  177.1390  145.6070 C   0  0  2  0  0  0  0  0  0  0  0  0
  187.6830  178.4290  145.3100 O   0  0  0  0  0  1  0  0  0  0  0  0
  186.3290  177.1790  146.8470 C   0  0  0  0  0  2  0  0  0  0  0  0
  184.0850  178.1830  146.4000 C   0  0  0  0  0  1  0  0  0  0  0  0
  185.4830  178.4470  146.9250 C   0  0  0  0  0  2  0  0  0  0  0  0
  186.4570  176.5880  144.4020 C   0  0  0  0  0  2  0  0  0  0  0  0
  186.3380  177.5830  143.2520 C   0  0  1  0  0  3  0  0  0  0  0  0
  184.9470  178.3900  141.3550 C   0  0  0  0  0  2  0  0  0  0  0  0
  187.2740  177.5090  140.9360 C   0  0  0  0  0  3  0  0  0  0  0  0
  185.9320  177.8320  140.3270 C   0  0  0  0  0  2  0  0  0  0  0  0
  187.4470  177.3470  142.2590 C   0  0  0  0  0  3  0  0  0  0  0  0
  184.9570  177.5060  142.5950 C   0  0  0  0  0  2  0  0  0  0  0  0
  196.6810  175.8440  140.7580 O   0  0  0  0  0  0  0  0  0  0  0  0
  195.5680  174.3720  137.5150 C   0  0  0  0  0  3  0  0  0  0  0  0
  196.9120  174.2050  136.8620 C   0  0  2  0  0  3  0  0  0  0  0  0
  197.7990  175.6490  138.6970 C   0  0  0  0  0  3  0  0  0  0  0  0
  195.4730  174.9350  138.7220 C   0  0  0  0  0  3  0  0  0  0  0  0
  196.6750  175.4750  139.4030 C   0  0  0  0  0  0  0  0  0  0  0  0
  197.8320  175.3770  137.2160 C   0  0  0  0  0  2  0  0  0  0  0  0
  196.9770  172.7170  134.9350 N   0  0  0  0  0  1  0  0  0  0  0  0
  196.7400  174.0870  135.3580 C   0  0  0  0  0  2  0  0  0  0  0  0
  1  6  1  6  0  0  0
  2 11  1  0  0  0  0
  3 10  1  0  0  0  0
  4  7  2  0  0  0  0
  4  8  1  0  0  0  0
  5  1  1  0  0  0  0
  7  9  1  0  0  0  0
  8  1  1  0  0  0  0
  9  5  1  0  0  0  0
 11 10  2  0  0  0  0
 11  7  1  0  0  0  0
 12  2  1  0  0  0  0
 12 15  2  0  0  0  0
 13 14  1  0  0  0  0
 13  2  2  0  0  0  0
 14  3  2  0  0  0  0
 15  4  1  0  0  0  0
 16  3  1  1  0  0  0
 16 19  1  0  0  0  0
 17 22  1  0  0  0  0
 18 16  1  0  0  0  0
 18 20  1  0  0  0  0
 19 21  1  0  0  0  0
 20 17  2  0  0  0  0
 20 21  1  0  0  0  0
 23 24  1  6  0  0  0
 23 22  1  0  0  0  0
 23 25  1  0  0  0  0
 25 27  1  0  0  0  0
 26 27  1  0  0  0  0
 28 23  1  0  0  0  0
 29 28  1  1  0  0  0
 30 34  1  0  0  0  0
 31 33  2  0  0  0  0
 32 31  1  0  0  0  0
 32 30  1  0  0  0  0
 33 29  1  0  0  0  0
 34 29  1  0  0  0  0
 35 13  1  0  0  0  0
 36 39  2  0  0  0  0
 37 43  1  6  0  0  0
 37 41  1  0  0  0  0
 37 36  1  0  0  0  0
 38 40  2  0  0  0  0
 39 40  1  0  0  0  0
 40 35  1  0  0  0  0
 41 38  1  0  0  0  0
 42 43  1  0  0  0  0
M  END
>  <MODEL>
3

>  <REMARK>
 VINA RESULT:      -7.4      1.624      3.033
  Name = 
  10 active torsions:
  status: ('A' for Active; 'I' for Inactive)
    1  A    between atoms: O_1  and  C_34
    2  A    between atoms: O_1  and  C_35
    3  A    between atoms: C_2  and  C_13
    4  A    between atoms: C_3  and  N_4
    5  A    between atoms: N_4  and  C_22
    6  A    between atoms: C_10  and  C_22
    7  A    between atoms: C_10  and  C_42
    8  A    between atoms: C_11  and  C_14
    9  A    between atoms: C_14  and  C_22
   10  A    between atoms: C_19  and  C_37
                            x       y       z     vdW  Elec       q    Type
                         _______ _______ _______ _____ _____    ______ ____

>  <TORSDO>
F 10

$$$$
=
 OpenBabel11052420593D

 43 48  0  0  1  0  0  0  0  0999 V2000
  185.1980  177.8900  146.0680 C   0  0  1  0  0  3  0  0  0  0  0  0
  187.9790  175.4960  142.4770 C   0  0  0  0  0  0  0  0  0  0  0  0
  189.8730  174.0430  143.9000 C   0  0  0  0  0  0  0  0  0  0  0  0
  186.2200  177.1810  143.8810 C   0  0  0  0  0  0  0  0  0  0  0  0
  186.5870  177.7460  146.6680 C   0  0  0  0  0  2  0  0  0  0  0  0
  184.4740  179.0390  146.7330 C   0  0  0  0  0  1  0  0  0  0  0  0
  187.2030  176.4520  144.5910 C   0  0  0  0  0  0  0  0  0  0  0  0
  185.3150  178.1600  144.5710 C   0  0  0  0  0  2  0  0  0  0  0  0
  187.2620  176.5010  146.0980 C   0  0  0  0  0  2  0  0  0  0  0  0
  189.0090  174.8670  144.5500 N   0  0  0  0  0  0  0  0  0  0  0  0
  188.0730  175.5990  143.8860 C   0  0  0  0  0  0  0  0  0  0  0  0
  187.0120  176.2390  141.7920 C   0  0  0  0  0  3  0  0  0  0  0  0
  188.8500  174.6380  141.7850 C   0  0  0  0  0  0  0  0  0  0  0  0
  189.8050  173.9160  142.5120 C   0  0  0  0  0  3  0  0  0  0  0  0
  186.1450  177.0800  142.4900 C   0  0  0  0  0  3  0  0  0  0  0  0
  190.8750  173.2410  144.6620 C   0  0  1  0  0  3  0  0  0  0  0  0
  194.1530  171.3560  144.5600 C   0  0  0  0  0  3  0  0  0  0  0  0
  191.6920  172.0050  143.5910 S   0  0  0  0  0  0  0  0  0  0  0  0
  191.9350  174.1480  145.2800 C   0  0  0  0  0  2  0  0  0  0  0  0
  193.1540  172.2310  144.5670 C   0  0  0  0  0  0  0  0  0  0  0  0
  193.1500  173.3700  145.4090 N   0  0  0  0  0  2  0  0  0  0  0  0
  195.2890  171.5270  145.4100 N   0  0  0  0  0  2  0  0  0  0  0  0
  196.6610  171.5370  144.9110 C   0  0  2  0  0  0  0  0  0  0  0  0
  196.6470  171.1580  143.5650 O   0  0  0  0  0  1  0  0  0  0  0  0
  197.5210  170.5520  145.7160 C   0  0  0  0  0  2  0  0  0  0  0  0
  196.8670  168.9350  147.5070 C   0  0  0  0  0  1  0  0  0  0  0  0
  196.7970  169.2440  146.0230 C   0  0  0  0  0  2  0  0  0  0  0  0
  197.2340  172.9570  145.0270 C   0  0  0  0  0  2  0  0  0  0  0  0
  196.7420  173.9000  143.9340 C   0  0  1  0  0  3  0  0  0  0  0  0
  197.3850  175.4750  142.1200 C   0  0  0  0  0  2  0  0  0  0  0  0
  195.9860  176.2790  144.0600 C   0  0  0  0  0  3  0  0  0  0  0  0
  196.8880  176.6810  142.9190 C   0  0  0  0  0  2  0  0  0  0  0  0
  195.9570  175.0290  144.5520 C   0  0  0  0  0  3  0  0  0  0  0  0
  197.9040  174.4130  143.0800 C   0  0  0  0  0  2  0  0  0  0  0  0
  188.7550  174.5490  140.3840 O   0  0  0  0  0  0  0  0  0  0  0  0
  191.2750  172.9110  138.1720 C   0  0  0  0  0  3  0  0  0  0  0  0
  190.3570  171.9900  137.4170 C   0  0  2  0  0  3  0  0  0  0  0  0
  188.6400  172.5540  139.1410 C   0  0  0  0  0  3  0  0  0  0  0  0
  190.7940  173.6870  139.1460 C   0  0  0  0  0  3  0  0  0  0  0  0
  189.3700  173.5970  139.5540 C   0  0  0  0  0  0  0  0  0  0  0  0
  189.2640  171.4430  138.3400 C   0  0  0  0  0  2  0  0  0  0  0  0
  191.0160  169.6520  137.5960 N   0  0  0  0  0  1  0  0  0  0  0  0
  191.1610  170.8590  136.7990 C   0  0  0  0  0  2  0  0  0  0  0  0
  1  5  1  0  0  0  0
  1  6  1  1  0  0  0
  2 11  1  0  0  0  0
  3 10  1  0  0  0  0
  4  8  1  0  0  0  0
  4  7  2  0  0  0  0
  7  9  1  0  0  0  0
  8  1  1  0  0  0  0
  9  5  1  0  0  0  0
 11 10  2  0  0  0  0
 11  7  1  0  0  0  0
 12  2  1  0  0  0  0
 12 15  2  0  0  0  0
 13  2  2  0  0  0  0
 13 14  1  0  0  0  0
 14  3  2  0  0  0  0
 15  4  1  0  0  0  0
 16  3  1  6  0  0  0
 16 19  1  0  0  0  0
 17 20  2  0  0  0  0
 17 22  1  0  0  0  0
 18 20  1  0  0  0  0
 18 16  1  0  0  0  0
 19 21  1  0  0  0  0
 20 21  1  0  0  0  0
 23 24  1  6  0  0  0
 23 28  1  0  0  0  0
 23 22  1  0  0  0  0
 23 25  1  0  0  0  0
 25 27  1  0  0  0  0
 27 26  1  0  0  0  0
 29 33  1  0  0  0  0
 29 28  1  1  0  0  0
 30 32  1  0  0  0  0
 30 34  1  0  0  0  0
 31 33  2  0  0  0  0
 32 31  1  0  0  0  0
 34 29  1  0  0  0  0
 35 13  1  0  0  0  0
 36 39  2  0  0  0  0
 37 43  1  1  0  0  0
 37 36  1  0  0  0  0
 37 41  1  0  0  0  0
 38 40  2  0  0  0  0
 39 40  1  0  0  0  0
 40 35  1  0  0  0  0
 41 38  1  0  0  0  0
 43 42  1  0  0  0  0
M  END
>  <MODEL>
4

>  <REMARK>
 VINA RESULT:      -7.2      2.782     10.186
  Name = 
  10 active torsions:
  status: ('A' for Active; 'I' for Inactive)
    1  A    between atoms: O_1  and  C_34
    2  A    between atoms: O_1  and  C_35
    3  A    between atoms: C_2  and  C_13
    4  A    between atoms: C_3  and  N_4
    5  A    between atoms: N_4  and  C_22
    6  A    between atoms: C_10  and  C_22
    7  A    between atoms: C_10  and  C_42
    8  A    between atoms: C_11  and  C_14
    9  A    between atoms: C_14  and  C_22
   10  A    between atoms: C_19  and  C_37
                            x       y       z     vdW  Elec       q    Type
                         _______ _______ _______ _____ _____    ______ ____

>  <TORSDO>
F 10

$$$$
=
 OpenBabel11052420593D

 43 48  0  0  1  0  0  0  0  0999 V2000
  185.0350  177.6060  146.2370 C   0  0  1  0  0  3  0  0  0  0  0  0
  188.1310  175.5310  142.7070 C   0  0  0  0  0  0  0  0  0  0  0  0
  190.1850  174.3580  144.1660 C   0  0  0  0  0  0  0  0  0  0  0  0
  186.1580  176.9990  144.0690 C   0  0  0  0  0  0  0  0  0  0  0  0
  186.4260  177.6530  146.8480 C   0  0  0  0  0  2  0  0  0  0  0  0
  184.1640  178.6640  146.8770 C   0  0  0  0  0  1  0  0  0  0  0  0
  187.2210  176.4140  144.7980 C   0  0  0  0  0  0  0  0  0  0  0  0
  185.1290  177.8650  144.7360 C   0  0  0  0  0  2  0  0  0  0  0  0
  187.2600  176.4960  146.3040 C   0  0  0  0  0  2  0  0  0  0  0  0
  189.2160  175.0750  144.7970 N   0  0  0  0  0  0  0  0  0  0  0  0
  188.1990  175.6690  144.1140 C   0  0  0  0  0  0  0  0  0  0  0  0
  187.0820  176.1320  142.0020 C   0  0  0  0  0  3  0  0  0  0  0  0
  189.1110  174.7810  142.0350 C   0  0  0  0  0  0  0  0  0  0  0  0
  190.1450  174.2010  142.7810 C   0  0  0  0  0  3  0  0  0  0  0  0
  186.1080  176.8650  142.6800 C   0  0  0  0  0  3  0  0  0  0  0  0
  191.2750  173.7050  144.9490 C   0  0  1  0  0  3  0  0  0  0  0  0
  194.2590  171.3820  144.8800 C   0  0  0  0  0  3  0  0  0  0  0  0
  191.6970  172.0640  144.2610 S   0  0  0  0  0  0  0  0  0  0  0  0
  192.5250  174.5790  144.9660 C   0  0  0  0  0  2  0  0  0  0  0  0
  193.3690  172.3610  144.7700 C   0  0  0  0  0  0  0  0  0  0  0  0
  193.6670  173.7000  145.1210 N   0  0  0  0  0  2  0  0  0  0  0  0
  195.5810  171.6390  145.3620 N   0  0  0  0  0  2  0  0  0  0  0  0
  196.7790  171.3790  144.5700 C   0  0  2  0  0  0  0  0  0  0  0  0
  197.4100  170.2400  145.0800 O   0  0  0  0  0  1  0  0  0  0  0  0
  197.7340  172.5790  144.6500 C   0  0  0  0  0  2  0  0  0  0  0  0
  196.8300  174.9090  144.6390 C   0  0  0  0  0  1  0  0  0  0  0  0
  197.1870  173.7180  145.5070 C   0  0  0  0  0  2  0  0  0  0  0  0
  196.3790  171.1190  143.1100 C   0  0  0  0  0  2  0  0  0  0  0  0
  196.6860  172.2880  142.1800 C   0  0  1  0  0  3  0  0  0  0  0  0
  195.7510  174.0200  140.6610 C   0  0  0  0  0  2  0  0  0  0  0  0
  197.3900  172.3150  139.7820 C   0  0  0  0  0  3  0  0  0  0  0  0
  196.3250  173.3230  139.4270 C   0  0  0  0  0  2  0  0  0  0  0  0
  197.5210  171.8090  141.0200 C   0  0  0  0  0  3  0  0  0  0  0  0
  195.4020  172.9760  141.7130 C   0  0  0  0  0  2  0  0  0  0  0  0
  189.0400  174.6570  140.6350 O   0  0  0  0  0  0  0  0  0  0  0  0
  191.4840  172.7230  138.5830 C   0  0  0  0  0  3  0  0  0  0  0  0
  190.5140  171.8980  137.7820 C   0  0  2  0  0  3  0  0  0  0  0  0
  188.7760  172.6710  139.4010 C   0  0  0  0  0  3  0  0  0  0  0  0
  191.0370  173.5600  139.5220 C   0  0  0  0  0  3  0  0  0  0  0  0
  189.5920  173.6330  139.8480 C   0  0  0  0  0  0  0  0  0  0  0  0
  189.3170  171.4860  138.6460 C   0  0  0  0  0  2  0  0  0  0  0  0
  191.5150  169.7360  138.2870 N   0  0  0  0  0  1  0  0  0  0  0  0
  191.2210  170.6780  137.2200 C   0  0  0  0  0  2  0  0  0  0  0  0
  1  5  1  0  0  0  0
  1  6  1  1  0  0  0
  2 11  1  0  0  0  0
  3 10  1  0  0  0  0
  4  8  1  0  0  0  0
  4  7  2  0  0  0  0
  7  9  1  0  0  0  0
  8  1  1  0  0  0  0
  9  5  1  0  0  0  0
 11 10  2  0  0  0  0
 11  7  1  0  0  0  0
 12 15  2  0  0  0  0
 12  2  1  0  0  0  0
 13  2  2  0  0  0  0
 13 14  1  0  0  0  0
 14  3  2  0  0  0  0
 15  4  1  0  0  0  0
 16  3  1  6  0  0  0
 16 19  1  0  0  0  0
 17 22  1  0  0  0  0
 18 20  1  0  0  0  0
 18 16  1  0  0  0  0
 19 21  1  0  0  0  0
 20 17  2  0  0  0  0
 20 21  1  0  0  0  0
 23 25  1  0  0  0  0
 23 24  1  1  0  0  0
 23 22  1  0  0  0  0
 25 27  1  0  0  0  0
 26 27  1  0  0  0  0
 28 23  1  0  0  0  0
 29 28  1  1  0  0  0
 30 34  1  0  0  0  0
 31 33  2  0  0  0  0
 32 31  1  0  0  0  0
 32 30  1  0  0  0  0
 33 29  1  0  0  0  0
 34 29  1  0  0  0  0
 35 13  1  0  0  0  0
 36 39  2  0  0  0  0
 37 43  1  1  0  0  0
 37 36  1  0  0  0  0
 37 41  1  0  0  0  0
 38 40  2  0  0  0  0
 39 40  1  0  0  0  0
 40 35  1  0  0  0  0
 41 38  1  0  0  0  0
 43 42  1  0  0  0  0
M  END
>  <MODEL>
5

>  <REMARK>
 VINA RESULT:      -7.1      2.674     10.191
  Name = 
  10 active torsions:
  status: ('A' for Active; 'I' for Inactive)
    1  A    between atoms: O_1  and  C_34
    2  A    between atoms: O_1  and  C_35
    3  A    between atoms: C_2  and  C_13
    4  A    between atoms: C_3  and  N_4
    5  A    between atoms: N_4  and  C_22
    6  A    between atoms: C_10  and  C_22
    7  A    between atoms: C_10  and  C_42
    8  A    between atoms: C_11  and  C_14
    9  A    between atoms: C_14  and  C_22
   10  A    between atoms: C_19  and  C_37
                            x       y       z     vdW  Elec       q    Type
                         _______ _______ _______ _____ _____    ______ ____

>  <TORSDO>
F 10

$$$$
=
 OpenBabel11052420593D

 43 48  0  0  1  0  0  0  0  0999 V2000
  196.0740  172.9310  145.1190 C   0  0  1  0  0  3  0  0  0  0  0  0
  192.2740  171.0200  142.2440 C   0  0  0  0  0  0  0  0  0  0  0  0
  190.2220  172.8830  142.4520 C   0  0  0  0  0  0  0  0  0  0  0  0
  194.6210  171.4060  143.7430 C   0  0  0  0  0  0  0  0  0  0  0  0
  194.7930  173.4300  145.7660 C   0  0  0  0  0  2  0  0  0  0  0  0
  197.1890  172.9190  146.1400 C   0  0  0  0  0  1  0  0  0  0  0  0
  193.5600  172.3350  143.8550 C   0  0  0  0  0  0  0  0  0  0  0  0
  195.8580  171.5170  144.5850 C   0  0  0  0  0  2  0  0  0  0  0  0
  193.7080  173.5750  144.7020 C   0  0  0  0  0  2  0  0  0  0  0  0
  191.3700  173.0410  143.1650 N   0  0  0  0  0  0  0  0  0  0  0  0
  192.3920  172.1460  143.0940 C   0  0  0  0  0  0  0  0  0  0  0  0
  193.3270  170.1020  142.1600 C   0  0  0  0  0  3  0  0  0  0  0  0
  191.1050  170.8430  141.4850 C   0  0  0  0  0  0  0  0  0  0  0  0
  190.0750  171.7850  141.6040 C   0  0  0  0  0  3  0  0  0  0  0  0
  194.4880  170.2920  142.9100 C   0  0  0  0  0  3  0  0  0  0  0  0
  189.1280  173.8940  142.5420 C   0  0  1  0  0  3  0  0  0  0  0  0
  188.1230  177.5120  142.0830 C   0  0  0  0  0  3  0  0  0  0  0  0
  189.7830  175.5460  142.9740 S   0  0  0  0  0  0  0  0  0  0  0  0
  188.3680  173.9850  141.2220 C   0  0  0  0  0  2  0  0  0  0  0  0
  188.4890  176.2400  141.9810 C   0  0  0  0  0  0  0  0  0  0  0  0
  187.8260  175.3260  141.1260 N   0  0  0  0  0  2  0  0  0  0  0  0
  187.0290  178.0260  141.3200 N   0  0  0  0  0  2  0  0  0  0  0  0
  185.6760  178.1520  141.8560 C   0  0  2  0  0  0  0  0  0  0  0  0
  185.2210  176.8800  142.2170 O   0  0  0  0  0  1  0  0  0  0  0  0
  184.7430  178.7530  140.7940 C   0  0  0  0  0  2  0  0  0  0  0  0
  182.3940  178.3180  141.5270 C   0  0  0  0  0  1  0  0  0  0  0  0
  183.4900  177.9130  140.5600 C   0  0  0  0  0  2  0  0  0  0  0  0
  185.7040  179.0470  143.1040 C   0  0  0  0  0  2  0  0  0  0  0  0
  185.3550  178.3050  144.3900 C   0  0  1  0  0  3  0  0  0  0  0  0
  184.0660  178.3500  146.5160 C   0  0  0  0  0  2  0  0  0  0  0  0
  186.5800  178.1520  146.5620 C   0  0  0  0  0  3  0  0  0  0  0  0
  185.3410  178.5030  147.3470 C   0  0  0  0  0  2  0  0  0  0  0  0
  186.5980  178.1110  145.2190 C   0  0  0  0  0  3  0  0  0  0  0  0
  184.2570  179.0340  145.1690 C   0  0  0  0  0  2  0  0  0  0  0  0
  190.9920  169.7160  140.6490 O   0  0  0  0  0  0  0  0  0  0  0  0
  190.2330  170.0350  137.0100 C   0  0  0  0  0  3  0  0  0  0  0  0
  191.2280  169.0420  136.4770 C   0  0  2  0  0  3  0  0  0  0  0  0
  192.2420  169.0810  138.7600 C   0  0  0  0  0  3  0  0  0  0  0  0
  190.1810  170.2970  138.3190 C   0  0  0  0  0  3  0  0  0  0  0  0
  191.1510  169.6790  139.2550 C   0  0  0  0  0  0  0  0  0  0  0  0
  192.5300  169.1000  137.2820 C   0  0  0  0  0  2  0  0  0  0  0  0
  191.1380  170.6890  134.6860 N   0  0  0  0  0  1  0  0  0  0  0  0
  191.4880  169.3150  135.0060 C   0  0  0  0  0  2  0  0  0  0  0  0
  1  5  1  0  0  0  0
  1  6  1  1  0  0  0
  2 11  1  0  0  0  0
  3 10  1  0  0  0  0
  4  7  2  0  0  0  0
  4  8  1  0  0  0  0
  7  9  1  0  0  0  0
  8  1  1  0  0  0  0
  9  5  1  0  0  0  0
 11 10  2  0  0  0  0
 11  7  1  0  0  0  0
 12  2  1  0  0  0  0
 12 15  2  0  0  0  0
 13 14  1  0  0  0  0
 13  2  2  0  0  0  0
 14  3  2  0  0  0  0
 15  4  1  0  0  0  0
 16  3  1  6  0  0  0
 16 18  1  0  0  0  0
 19 16  1  0  0  0  0
 20 17  2  0  0  0  0
 20 18  1  0  0  0  0
 21 19  1  0  0  0  0
 21 20  1  0  0  0  0
 22 23  1  0  0  0  0
 22 17  1  0  0  0  0
 23 24  1  1  0  0  0
 23 28  1  0  0  0  0
 25 23  1  0  0  0  0
 27 25  1  0  0  0  0
 27 26  1  0  0  0  0
 29 28  1  6  0  0  0
 29 34  1  0  0  0  0
 29 33  1  0  0  0  0
 30 32  1  0  0  0  0
 31 32  1  0  0  0  0
 33 31  2  0  0  0  0
 34 30  1  0  0  0  0
 35 13  1  0  0  0  0
 36 39  2  0  0  0  0
 37 43  1  6  0  0  0
 37 36  1  0  0  0  0
 37 41  1  0  0  0  0
 38 40  2  0  0  0  0
 39 40  1  0  0  0  0
 40 35  1  0  0  0  0
 41 38  1  0  0  0  0
 42 43  1  0  0  0  0
M  END
>  <MODEL>
6

>  <REMARK>
 VINA RESULT:      -7.1      3.537      4.495
  Name = 
  10 active torsions:
  status: ('A' for Active; 'I' for Inactive)
    1  A    between atoms: O_1  and  C_34
    2  A    between atoms: O_1  and  C_35
    3  A    between atoms: C_2  and  C_13
    4  A    between atoms: C_3  and  N_4
    5  A    between atoms: N_4  and  C_22
    6  A    between atoms: C_10  and  C_22
    7  A    between atoms: C_10  and  C_42
    8  A    between atoms: C_11  and  C_14
    9  A    between atoms: C_14  and  C_22
   10  A    between atoms: C_19  and  C_37
                            x       y       z     vdW  Elec       q    Type
                         _______ _______ _______ _____ _____    ______ ____

>  <TORSDO>
F 10

$$$$
=
 OpenBabel11052420593D

 43 48  0  0  1  0  0  0  0  0999 V2000
  185.7170  178.8150  144.1250 C   0  0  1  0  0  3  0  0  0  0  0  0
  189.5510  175.5000  144.9400 C   0  0  0  0  0  0  0  0  0  0  0  0
  189.5590  173.8610  142.6960 C   0  0  0  0  0  0  0  0  0  0  0  0
  187.5490  177.4580  145.1890 C   0  0  0  0  0  0  0  0  0  0  0  0
  185.3020  177.5400  143.4090 C   0  0  0  0  0  2  0  0  0  0  0  0
  184.4890  179.6340  144.4560 C   0  0  0  0  0  1  0  0  0  0  0  0
  187.5520  176.6020  144.0620 C   0  0  0  0  0  0  0  0  0  0  0  0
  186.4540  178.4600  145.4130 C   0  0  0  0  0  2  0  0  0  0  0  0
  186.5470  176.7850  142.9510 C   0  0  0  0  0  2  0  0  0  0  0  0
  188.6030  174.8160  142.8460 N   0  0  0  0  0  0  0  0  0  0  0  0
  188.5640  175.6320  143.9340 C   0  0  0  0  0  0  0  0  0  0  0  0
  189.5200  176.3440  146.0560 C   0  0  0  0  0  3  0  0  0  0  0  0
  190.5590  174.5310  144.8000 C   0  0  0  0  0  0  0  0  0  0  0  0
  190.5480  173.7060  143.6680 C   0  0  0  0  0  3  0  0  0  0  0  0
  188.5220  177.3100  146.1800 C   0  0  0  0  0  3  0  0  0  0  0  0
  189.5820  172.9950  141.4810 C   0  0  1  0  0  3  0  0  0  0  0  0
  189.6420  172.8530  137.7010 C   0  0  0  0  0  3  0  0  0  0  0  0
  188.7090  173.7870  140.0830 S   0  0  0  0  0  0  0  0  0  0  0  0
  191.0170  172.6860  141.0650 C   0  0  0  0  0  2  0  0  0  0  0  0
  189.8680  172.9920  139.0020 C   0  0  0  0  0  0  0  0  0  0  0  0
  191.0140  172.4530  139.6350 N   0  0  0  0  0  2  0  0  0  0  0  0
  190.5610  172.1460  136.8660 N   0  0  0  0  0  2  0  0  0  0  0  0
  190.3760  172.0020  135.4250 C   0  0  2  0  0  0  0  0  0  0  0  0
  189.0110  172.1080  135.1390 O   0  0  0  0  0  1  0  0  0  0  0  0
  190.8960  170.6330  134.9610 C   0  0  0  0  0  2  0  0  0  0  0  0
  193.2090  169.7790  135.3690 C   0  0  0  0  0  1  0  0  0  0  0  0
  191.8320  169.9790  135.9740 C   0  0  0  0  0  2  0  0  0  0  0  0
  191.1290  173.1270  134.7000 C   0  0  0  0  0  2  0  0  0  0  0  0
  192.2870  173.7010  135.5090 C   0  0  1  0  0  3  0  0  0  0  0  0
  193.4320  175.7610  136.3030 C   0  0  0  0  0  2  0  0  0  0  0  0
  194.6750  174.0890  134.8800 C   0  0  0  0  0  3  0  0  0  0  0  0
  194.6340  175.5070  135.3920 C   0  0  0  0  0  2  0  0  0  0  0  0
  193.5960  173.2860  134.8870 C   0  0  0  0  0  3  0  0  0  0  0  0
  192.1720  175.2220  135.6380 C   0  0  0  0  0  2  0  0  0  0  0  0
  191.5310  174.4010  145.8090 O   0  0  0  0  0  0  0  0  0  0  0  0
  194.9120  172.8810  145.3820 C   0  0  0  0  0  3  0  0  0  0  0  0
  195.7460  174.0210  145.8970 C   0  0  2  0  0  3  0  0  0  0  0  0
  193.6640  175.3930  145.7520 C   0  0  0  0  0  3  0  0  0  0  0  0
  193.5840  173.0030  145.3000 C   0  0  0  0  0  3  0  0  0  0  0  0
  192.9200  174.2870  145.6350 C   0  0  0  0  0  0  0  0  0  0  0  0
  195.1430  175.3640  145.4720 C   0  0  0  0  0  2  0  0  0  0  0  0
  197.2430  174.2790  143.9930 N   0  0  0  0  0  1  0  0  0  0  0  0
  197.1710  173.8830  145.3890 C   0  0  0  0  0  2  0  0  0  0  0  0
  1  6  1  1  0  0  0
  1  8  1  0  0  0  0
  2 12  1  0  0  0  0
  3 10  2  0  0  0  0
  3 14  1  0  0  0  0
  4  8  1  0  0  0  0
  4 15  1  0  0  0  0
  5  1  1  0  0  0  0
  7  4  2  0  0  0  0
  9  5  1  0  0  0  0
  9  7  1  0  0  0  0
 10 11  1  0  0  0  0
 11  7  1  0  0  0  0
 11  2  2  0  0  0  0
 12 15  2  0  0  0  0
 13  2  1  0  0  0  0
 13 35  1  0  0  0  0
 14 13  2  0  0  0  0
 16  3  1  1  0  0  0
 17 20  2  0  0  0  0
 18 16  1  0  0  0  0
 19 16  1  0  0  0  0
 20 21  1  0  0  0  0
 20 18  1  0  0  0  0
 21 19  1  0  0  0  0
 22 17  1  0  0  0  0
 23 24  1  6  0  0  0
 23 22  1  0  0  0  0
 25 23  1  0  0  0  0
 25 27  1  0  0  0  0
 26 27  1  0  0  0  0
 28 23  1  0  0  0  0
 29 28  1  6  0  0  0
 29 34  1  0  0  0  0
 31 33  2  0  0  0  0
 31 32  1  0  0  0  0
 32 30  1  0  0  0  0
 33 29  1  0  0  0  0
 34 30  1  0  0  0  0
 36 37  1  0  0  0  0
 37 43  1  6  0  0  0
 39 36  2  0  0  0  0
 39 40  1  0  0  0  0
 40 38  2  0  0  0  0
 40 35  1  0  0  0  0
 41 38  1  0  0  0  0
 41 37  1  0  0  0  0
 42 43  1  0  0  0  0
M  END
>  <MODEL>
7

>  <REMARK>
 VINA RESULT:      -7.0      4.038      9.901
  Name = 
  10 active torsions:
  status: ('A' for Active; 'I' for Inactive)
    1  A    between atoms: O_1  and  C_34
    2  A    between atoms: O_1  and  C_35
    3  A    between atoms: C_2  and  C_13
    4  A    between atoms: C_3  and  N_4
    5  A    between atoms: N_4  and  C_22
    6  A    between atoms: C_10  and  C_22
    7  A    between atoms: C_10  and  C_42
    8  A    between atoms: C_11  and  C_14
    9  A    between atoms: C_14  and  C_22
   10  A    between atoms: C_19  and  C_37
                            x       y       z     vdW  Elec       q    Type
                         _______ _______ _______ _____ _____    ______ ____

>  <TORSDO>
F 10

$$$$
=
 OpenBabel11052420593D

 43 48  0  0  1  0  0  0  0  0999 V2000
  190.8300  171.1110  135.7990 C   0  0  1  0  0  3  0  0  0  0  0  0
  188.7880  174.1510  139.3960 C   0  0  0  0  0  0  0  0  0  0  0  0
  190.0070  173.3630  141.7660 C   0  0  0  0  0  0  0  0  0  0  0  0
  189.3640  172.7410  137.0340 C   0  0  0  0  0  0  0  0  0  0  0  0
  190.8450  170.2860  137.0750 C   0  0  0  0  0  2  0  0  0  0  0  0
  190.8480  170.1910  134.5990 C   0  0  0  0  0  1  0  0  0  0  0  0
  189.9620  172.3370  138.2510 C   0  0  0  0  0  0  0  0  0  0  0  0
  189.5690  171.9700  135.7620 C   0  0  0  0  0  2  0  0  0  0  0  0
  190.9700  171.2150  138.2800 C   0  0  0  0  0  2  0  0  0  0  0  0
  190.2650  172.7000  140.6070 N   0  0  0  0  0  0  0  0  0  0  0  0
  189.6810  173.0530  139.4290 C   0  0  0  0  0  0  0  0  0  0  0  0
  188.1930  174.5240  138.1860 C   0  0  0  0  0  3  0  0  0  0  0  0
  188.5180  174.8620  140.5780 C   0  0  0  0  0  0  0  0  0  0  0  0
  189.1340  174.4510  141.7670 C   0  0  0  0  0  3  0  0  0  0  0  0
  188.4750  173.8180  137.0160 C   0  0  0  0  0  3  0  0  0  0  0  0
  190.6800  172.9590  143.0360 C   0  0  1  0  0  3  0  0  0  0  0  0
  193.5580  171.0970  144.6350 C   0  0  0  0  0  3  0  0  0  0  0  0
  191.5020  171.3340  142.8660 S   0  0  0  0  0  0  0  0  0  0  0  0
  191.7110  174.0010  143.4560 C   0  0  0  0  0  2  0  0  0  0  0  0
  192.7340  171.9200  143.9970 C   0  0  0  0  0  0  0  0  0  0  0  0
  192.7290  173.3170  144.2270 N   0  0  0  0  0  2  0  0  0  0  0  0
  194.4950  171.5910  145.5950 N   0  0  0  0  0  2  0  0  0  0  0  0
  195.8910  171.8700  145.2720 C   0  0  2  0  0  0  0  0  0  0  0  0
  196.1010  171.5780  143.9200 O   0  0  0  0  0  1  0  0  0  0  0  0
  196.8150  171.0010  146.1380 C   0  0  0  0  0  2  0  0  0  0  0  0
  197.1360  168.7640  147.2070 C   0  0  0  0  0  1  0  0  0  0  0  0
  196.1160  169.7660  146.6990 C   0  0  0  0  0  2  0  0  0  0  0  0
  196.1830  173.3580  145.5150 C   0  0  0  0  0  2  0  0  0  0  0  0
  196.3290  174.1650  144.2300 C   0  0  1  0  0  3  0  0  0  0  0  0
  197.8720  175.4440  142.7570 C   0  0  0  0  0  2  0  0  0  0  0  0
  195.8500  176.5720  143.7580 C   0  0  0  0  0  3  0  0  0  0  0  0
  197.2010  176.7700  143.1170 C   0  0  0  0  0  2  0  0  0  0  0  0
  195.4740  175.4040  144.3070 C   0  0  0  0  0  3  0  0  0  0  0  0
  197.7960  174.5000  143.9500 C   0  0  0  0  0  2  0  0  0  0  0  0
  187.6220  175.9460  140.5380 O   0  0  0  0  0  0  0  0  0  0  0  0
  185.8830  176.4220  143.8040 C   0  0  0  0  0  3  0  0  0  0  0  0
  185.2450  177.7570  143.5350 C   0  0  2  0  0  3  0  0  0  0  0  0
  186.7390  177.8840  141.5380 C   0  0  0  0  0  3  0  0  0  0  0  0
  186.6770  175.8610  142.8890 C   0  0  0  0  0  3  0  0  0  0  0  0
  187.0080  176.5770  141.6320 C   0  0  0  0  0  0  0  0  0  0  0  0
  186.1820  178.6460  142.7110 C   0  0  0  0  0  2  0  0  0  0  0  0
  185.7840  179.5360  145.1090 N   0  0  0  0  0  1  0  0  0  0  0  0
  184.8820  178.4260  144.8500 C   0  0  0  0  0  2  0  0  0  0  0  0
  1  6  1  6  0  0  0
  1  5  1  0  0  0  0
  2 11  1  0  0  0  0
  2 13  1  0  0  0  0
  3 14  1  0  0  0  0
  4  7  1  0  0  0  0
  5  9  1  0  0  0  0
  7  9  1  0  0  0  0
  7 11  2  0  0  0  0
  8  1  1  0  0  0  0
  8  4  1  0  0  0  0
 10  3  2  0  0  0  0
 11 10  1  0  0  0  0
 12  2  2  0  0  0  0
 13 14  2  0  0  0  0
 15  4  2  0  0  0  0
 15 12  1  0  0  0  0
 16  3  1  6  0  0  0
 16 19  1  0  0  0  0
 17 22  1  0  0  0  0
 18 16  1  0  0  0  0
 18 20  1  0  0  0  0
 19 21  1  0  0  0  0
 20 21  1  0  0  0  0
 20 17  2  0  0  0  0
 23 24  1  6  0  0  0
 23 28  1  0  0  0  0
 23 22  1  0  0  0  0
 23 25  1  0  0  0  0
 25 27  1  0  0  0  0
 27 26  1  0  0  0  0
 29 33  1  0  0  0  0
 29 28  1  1  0  0  0
 30 32  1  0  0  0  0
 30 34  1  0  0  0  0
 31 33  2  0  0  0  0
 32 31  1  0  0  0  0
 34 29  1  0  0  0  0
 35 13  1  0  0  0  0
 35 40  1  0  0  0  0
 37 36  1  0  0  0  0
 37 43  1  1  0  0  0
 38 40  2  0  0  0  0
 38 41  1  0  0  0  0
 39 36  2  0  0  0  0
 40 39  1  0  0  0  0
 41 37  1  0  0  0  0
 43 42  1  0  0  0  0
M  END
>  <MODEL>
8

>  <REMARK>
 VINA RESULT:      -6.9      3.423     10.797
  Name = 
  10 active torsions:
  status: ('A' for Active; 'I' for Inactive)
    1  A    between atoms: O_1  and  C_34
    2  A    between atoms: O_1  and  C_35
    3  A    between atoms: C_2  and  C_13
    4  A    between atoms: C_3  and  N_4
    5  A    between atoms: N_4  and  C_22
    6  A    between atoms: C_10  and  C_22
    7  A    between atoms: C_10  and  C_42
    8  A    between atoms: C_11  and  C_14
    9  A    between atoms: C_14  and  C_22
   10  A    between atoms: C_19  and  C_37
                            x       y       z     vdW  Elec       q    Type
                         _______ _______ _______ _____ _____    ______ ____

>  <TORSDO>
F 10

$$$$
=
 OpenBabel11052420593D

 43 48  0  0  1  0  0  0  0  0999 V2000
  191.4970  168.8600  136.2030 C   0  0  1  0  0  3  0  0  0  0  0  0
  192.4820  171.4780  140.5080 C   0  0  0  0  0  0  0  0  0  0  0  0
  190.3900  173.2930  140.7280 C   0  0  0  0  0  0  0  0  0  0  0  0
  192.6190  169.8270  138.2360 C   0  0  0  0  0  0  0  0  0  0  0  0
  190.9070  170.2420  135.9740 C   0  0  0  0  0  2  0  0  0  0  0  0
  191.7920  168.2070  134.8710 C   0  0  0  0  0  1  0  0  0  0  0  0
  191.5710  170.7700  138.3510 C   0  0  0  0  0  0  0  0  0  0  0  0
  192.7880  168.9840  137.0060 C   0  0  0  0  0  2  0  0  0  0  0  0
  190.4790  170.8400  137.3120 C   0  0  0  0  0  2  0  0  0  0  0  0
  190.4840  172.4820  139.6400 N   0  0  0  0  0  0  0  0  0  0  0  0
  191.4990  171.5860  139.4950 C   0  0  0  0  0  0  0  0  0  0  0  0
  193.5220  170.5520  140.3670 C   0  0  0  0  0  3  0  0  0  0  0  0
  192.3970  172.2950  141.6480 C   0  0  0  0  0  0  0  0  0  0  0  0
  191.3420  173.2100  141.7440 C   0  0  0  0  0  3  0  0  0  0  0  0
  193.5910  169.7380  139.2360 C   0  0  0  0  0  3  0  0  0  0  0  0
  189.2540  174.2520  140.8620 C   0  0  1  0  0  3  0  0  0  0  0  0
  186.4450  175.5380  143.0440 C   0  0  0  0  0  3  0  0  0  0  0  0
  187.9140  173.5560  141.8940 S   0  0  0  0  0  0  0  0  0  0  0  0
  189.7260  175.5670  141.4740 C   0  0  0  0  0  2  0  0  0  0  0  0
  187.5870  175.2050  142.4550 C   0  0  0  0  0  0  0  0  0  0  0  0
  188.5960  176.1550  142.1650 N   0  0  0  0  0  2  0  0  0  0  0  0
  186.1790  176.8910  143.4230 N   0  0  0  0  0  2  0  0  0  0  0  0
  186.4770  177.4170  144.7520 C   0  0  2  0  0  0  0  0  0  0  0  0
  185.9990  176.5130  145.7060 O   0  0  0  0  0  1  0  0  0  0  0  0
  185.7940  178.7800  144.9440 C   0  0  0  0  0  2  0  0  0  0  0  0
  185.7150  179.1670  147.4110 C   0  0  0  0  0  1  0  0  0  0  0  0
  184.8990  178.8270  146.1790 C   0  0  0  0  0  2  0  0  0  0  0  0
  187.9970  177.5600  144.9140 C   0  0  0  0  0  2  0  0  0  0  0  0
  188.5470  176.8340  146.1380 C   0  0  1  0  0  3  0  0  0  0  0  0
  190.3860  176.6990  147.8060 C   0  0  0  0  0  2  0  0  0  0  0  0
  189.8800  174.7280  146.3150 C   0  0  0  0  0  3  0  0  0  0  0  0
  190.8980  175.3850  147.2130 C   0  0  0  0  0  2  0  0  0  0  0  0
  188.8420  175.3980  145.7870 C   0  0  0  0  0  3  0  0  0  0  0  0
  189.7790  177.5490  146.6990 C   0  0  0  0  0  2  0  0  0  0  0  0
  193.3850  172.1870  142.6450 O   0  0  0  0  0  0  0  0  0  0  0  0
  193.7680  173.9020  145.9360 C   0  0  0  0  0  3  0  0  0  0  0  0
  193.8550  175.3220  145.4490 C   0  0  2  0  0  3  0  0  0  0  0  0
  194.1530  174.3480  143.1680 C   0  0  0  0  0  3  0  0  0  0  0  0
  193.6710  172.8970  145.0610 C   0  0  0  0  0  3  0  0  0  0  0  0
  193.7290  173.1550  143.6020 C   0  0  0  0  0  0  0  0  0  0  0  0
  194.6400  175.3930  144.1360 C   0  0  0  0  0  2  0  0  0  0  0  0
  194.8000  177.5050  145.9710 N   0  0  0  0  0  1  0  0  0  0  0  0
  194.5010  176.1900  146.5140 C   0  0  0  0  0  2  0  0  0  0  0  0
  1  6  1  6  0  0  0
  1  8  1  0  0  0  0
  2 13  1  0  0  0  0
  3 14  1  0  0  0  0
  4  7  2  0  0  0  0
  4 15  1  0  0  0  0
  5  1  1  0  0  0  0
  5  9  1  0  0  0  0
  7 11  1  0  0  0  0
  8  4  1  0  0  0  0
  9  7  1  0  0  0  0
 10  3  2  0  0  0  0
 11 10  1  0  0  0  0
 11  2  2  0  0  0  0
 12  2  1  0  0  0  0
 13 14  2  0  0  0  0
 13 35  1  0  0  0  0
 15 12  2  0  0  0  0
 16  3  1  1  0  0  0
 16 19  1  0  0  0  0
 16 18  1  0  0  0  0
 17 22  1  0  0  0  0
 18 20  1  0  0  0  0
 19 21  1  0  0  0  0
 20 17  2  0  0  0  0
 21 20  1  0  0  0  0
 22 23  1  0  0  0  0
 23 28  1  0  0  0  0
 23 25  1  0  0  0  0
 23 24  1  1  0  0  0
 25 27  1  0  0  0  0
 27 26  1  0  0  0  0
 29 28  1  6  0  0  0
 29 34  1  0  0  0  0
 31 32  1  0  0  0  0
 32 30  1  0  0  0  0
 33 29  1  0  0  0  0
 33 31  2  0  0  0  0
 34 30  1  0  0  0  0
 35 40  1  0  0  0  0
 37 36  1  0  0  0  0
 37 43  1  1  0  0  0
 38 40  2  0  0  0  0
 38 41  1  0  0  0  0
 39 36  2  0  0  0  0
 40 39  1  0  0  0  0
 41 37  1  0  0  0  0
 42 43  1  0  0  0  0
M  END
>  <MODEL>
9

>  <REMARK>
 VINA RESULT:      -6.8      3.741      6.642
  Name = 
  10 active torsions:
  status: ('A' for Active; 'I' for Inactive)
    1  A    between atoms: O_1  and  C_34
    2  A    between atoms: O_1  and  C_35
    3  A    between atoms: C_2  and  C_13
    4  A    between atoms: C_3  and  N_4
    5  A    between atoms: N_4  and  C_22
    6  A    between atoms: C_10  and  C_22
    7  A    between atoms: C_10  and  C_42
    8  A    between atoms: C_11  and  C_14
    9  A    between atoms: C_14  and  C_22
   10  A    between atoms: C_19  and  C_37
                            x       y       z     vdW  Elec       q    Type
                         _______ _______ _______ _____ _____    ______ ____

>  <TORSDO>
F 10

$$$$
