=
 OpenBabel11052418063D

 28 31  0  0  1  0  0  0  0  0999 V2000
  189.1370  176.5280  142.4770 C   0  0  1  0  0  3  0  0  0  0  0  0
  188.2890  173.1810  141.3970 C   0  0  0  0  0  2  0  0  0  0  0  0
  189.2140  175.0550  142.5580 N   0  0  0  0  0  0  0  0  0  0  0  0
  189.6070  173.5110  140.7500 C   0  0  0  0  0  2  0  0  0  0  0  0
  187.9520  174.4120  142.1990 C   0  0  0  0  0  2  0  0  0  0  0  0
  190.2440  174.5380  141.6620 C   0  0  0  0  0  2  0  0  0  0  0  0
  187.6510  177.9240  141.1150 O   0  0  0  0  0  1  0  0  0  0  0  0
  187.7450  177.1690  142.2840 C   0  0  2  0  0  3  0  0  0  0  0  0
  187.3230  177.9970  143.4900 C   0  0  0  0  0  2  0  0  0  0  0  0
  186.1050  177.3820  144.1690 C   0  0  2  0  0  3  0  0  0  0  0  0
  183.9260  178.7730  145.7320 C   0  0  0  0  0  2  0  0  0  0  0  0
  184.8080  177.9050  143.5280 C   0  0  0  0  0  2  0  0  0  0  0  0
  187.0050  176.5280  146.3370 C   0  0  0  0  0  1  0  0  0  0  0  0
  186.1770  177.6180  145.6850 C   0  0  2  0  0  3  0  0  0  0  0  0
  184.7860  177.6430  146.3140 C   0  0  0  0  0  2  0  0  0  0  0  0
  184.2660  179.1200  144.2770 C   0  0  0  0  0  2  0  0  0  0  0  0
  189.9150  177.2020  143.5980 C   0  0  0  0  0  2  0  0  0  0  0  0
  190.1000  176.2410  144.7650 C   0  0  0  0  0  2  0  0  0  0  0  0
  192.5100  176.6930  144.5140 C   0  0  0  0  0  3  0  0  0  0  0  0
  191.8350  175.8540  146.7170 C   0  0  2  0  0  0  0  0  0  0  0  0
  194.1840  175.7220  146.0740 C   0  0  0  0  0  0  0  0  0  0  0  0
  191.5000  176.3110  145.3120 C   0  0  0  0  0  0  0  0  0  0  0  0
  190.2520  177.6390  147.6060 C   0  0  0  0  0  1  0  0  0  0  0  0
  193.1370  175.3110  146.9030 O   0  0  0  0  0  0  0  0  0  0  0  0
  190.7580  175.2050  147.5530 C   0  0  0  0  0  2  0  0  0  0  0  0
  195.3400  175.2590  146.2460 O   0  0  0  0  0  0  0  0  0  0  0  0
  193.9380  176.7470  145.0040 C   0  0  0  0  0  2  0  0  0  0  0  0
  191.2930  176.5840  147.9390 C   0  0  1  0  0  3  0  0  0  0  0  0
  1  3  1  0  0  0  0
  1 17  1  1  0  0  0
  2  5  1  0  0  0  0
  4  2  1  0  0  0  0
  4  6  1  0  0  0  0
  5  3  1  0  0  0  0
  6  3  1  0  0  0  0
  8  7  1  6  0  0  0
  8  1  1  0  0  0  0
  8  9  1  0  0  0  0
 10  9  1  6  0  0  0
 10 14  1  0  0  0  0
 11 15  1  0  0  0  0
 12 10  1  0  0  0  0
 12 16  1  0  0  0  0
 14 15  1  0  0  0  0
 14 13  1  1  0  0  0
 16 11  1  0  0  0  0
 17 18  1  0  0  0  0
 18 22  1  0  0  0  0
 19 27  1  0  0  0  0
 19 22  2  0  0  0  0
 20 24  1  0  0  0  0
 20 25  1  1  0  0  0
 20 28  1  0  0  0  0
 21 26  2  0  0  0  0
 21 24  1  0  0  0  0
 22 20  1  0  0  0  0
 25 28  1  0  0  0  0
 27 21  1  0  0  0  0
 28 23  1  6  0  0  0
M  END
>  <MODEL>
1

>  <REMARK>
 VINA RESULT:      -7.4      0.000      0.000
  Name = 
  7 active torsions:
  status: ('A' for Active; 'I' for Inactive)
    1  A    between atoms: C_2  and  C_3
    2  A    between atoms: C_2  and  C_26
    3  A    between atoms: C_10  and  C_13
    4  A    between atoms: C_10  and  C_17
    5  A    between atoms: N_16  and  C_27
    6  A    between atoms: C_17  and  C_27
    7  A    between atoms: C_26  and  C_27
                            x       y       z     vdW  Elec       q    Type
                         _______ _______ _______ _____ _____    ______ ____

>  <TORSDO>
F 7

$$$$
=
 OpenBabel11052418063D

 28 31  0  0  1  0  0  0  0  0999 V2000
  189.5440  176.1200  143.5310 C   0  0  1  0  0  3  0  0  0  0  0  0
  189.6650  172.5050  143.6130 C   0  0  0  0  0  2  0  0  0  0  0  0
  188.9840  174.7860  143.8320 N   0  0  0  0  0  0  0  0  0  0  0  0
  190.0740  172.9710  144.9850 C   0  0  0  0  0  2  0  0  0  0  0  0
  189.3920  173.7800  142.8550 C   0  0  0  0  0  2  0  0  0  0  0  0
  189.4170  174.3260  145.1480 C   0  0  0  0  0  2  0  0  0  0  0  0
  189.1530  178.0960  142.1320 O   0  0  0  0  0  1  0  0  0  0  0  0
  188.5720  177.2190  143.0480 C   0  0  2  0  0  3  0  0  0  0  0  0
  187.9540  177.9890  144.2070 C   0  0  0  0  0  2  0  0  0  0  0  0
  186.6320  177.3590  144.6320 C   0  0  2  0  0  3  0  0  0  0  0  0
  184.1700  178.7240  145.7270 C   0  0  0  0  0  2  0  0  0  0  0  0
  185.4830  177.8670  143.7440 C   0  0  0  0  0  2  0  0  0  0  0  0
  187.0930  176.5160  146.9370 C   0  0  0  0  0  1  0  0  0  0  0  0
  186.3990  177.5950  146.1320 C   0  0  2  0  0  3  0  0  0  0  0  0
  184.9100  177.6050  146.4710 C   0  0  0  0  0  2  0  0  0  0  0  0
  184.7890  179.0750  144.3680 C   0  0  0  0  0  2  0  0  0  0  0  0
  190.4490  176.6240  144.6460 C   0  0  0  0  0  2  0  0  0  0  0  0
  191.8650  176.8290  144.1250 C   0  0  0  0  0  2  0  0  0  0  0  0
  192.9030  174.7490  143.3050 C   0  0  0  0  0  3  0  0  0  0  0  0
  193.2510  175.2150  145.6880 C   0  0  2  0  0  0  0  0  0  0  0  0
  193.6080  172.9470  144.8650 C   0  0  0  0  0  0  0  0  0  0  0  0
  192.7050  175.5970  144.3270 C   0  0  0  0  0  0  0  0  0  0  0  0
  194.5480  177.4060  145.7110 C   0  0  0  0  0  1  0  0  0  0  0  0
  193.3930  173.8210  145.9350 O   0  0  0  0  0  0  0  0  0  0  0  0
  192.8490  176.0290  146.8950 C   0  0  0  0  0  2  0  0  0  0  0  0
  193.7530  171.7160  145.0800 O   0  0  0  0  0  0  0  0  0  0  0  0
  193.7090  173.4820  143.4650 C   0  0  0  0  0  2  0  0  0  0  0  0
  194.2920  176.0730  146.3950 C   0  0  1  0  0  3  0  0  0  0  0  0
  1  3  1  0  0  0  0
  1 17  1  1  0  0  0
  2  4  1  0  0  0  0
  3  6  1  0  0  0  0
  4  6  1  0  0  0  0
  5  2  1  0  0  0  0
  5  3  1  0  0  0  0
  8  7  1  6  0  0  0
  8  1  1  0  0  0  0
  8  9  1  0  0  0  0
 10  9  1  6  0  0  0
 10 14  1  0  0  0  0
 11 15  1  0  0  0  0
 12 16  1  0  0  0  0
 12 10  1  0  0  0  0
 14 15  1  0  0  0  0
 14 13  1  1  0  0  0
 16 11  1  0  0  0  0
 18 22  1  0  0  0  0
 18 17  1  0  0  0  0
 19 27  1  0  0  0  0
 19 22  2  0  0  0  0
 20 24  1  0  0  0  0
 20 28  1  0  0  0  0
 20 25  1  1  0  0  0
 21 26  2  0  0  0  0
 21 24  1  0  0  0  0
 22 20  1  0  0  0  0
 27 21  1  0  0  0  0
 28 23  1  6  0  0  0
 28 25  1  0  0  0  0
M  END
>  <MODEL>
2

>  <REMARK>
 VINA RESULT:      -7.2      1.774      2.322
  Name = 
  7 active torsions:
  status: ('A' for Active; 'I' for Inactive)
    1  A    between atoms: C_2  and  C_3
    2  A    between atoms: C_2  and  C_26
    3  A    between atoms: C_10  and  C_13
    4  A    between atoms: C_10  and  C_17
    5  A    between atoms: N_16  and  C_27
    6  A    between atoms: C_17  and  C_27
    7  A    between atoms: C_26  and  C_27
                            x       y       z     vdW  Elec       q    Type
                         _______ _______ _______ _____ _____    ______ ____

>  <TORSDO>
F 7

$$$$
=
 OpenBabel11052418063D

 28 31  0  0  1  0  0  0  0  0999 V2000
  190.3640  175.4260  146.1300 C   0  0  1  0  0  3  0  0  0  0  0  0
  193.9760  175.2380  146.1300 C   0  0  0  0  0  2  0  0  0  0  0  0
  191.6760  175.2230  146.7780 N   0  0  0  0  0  0  0  0  0  0  0  0
  193.6270  176.6260  146.5940 C   0  0  0  0  0  2  0  0  0  0  0  0
  192.6410  174.5800  145.8900 C   0  0  0  0  0  2  0  0  0  0  0  0
  192.2470  176.4980  147.2030 C   0  0  0  0  0  2  0  0  0  0  0  0
  188.3060  175.2000  147.4450 O   0  0  0  0  0  1  0  0  0  0  0  0
  189.2480  176.1050  146.9550 C   0  0  2  0  0  3  0  0  0  0  0  0
  188.5630  177.2230  146.1820 C   0  0  0  0  0  2  0  0  0  0  0  0
  187.0530  177.1780  146.3890 C   0  0  2  0  0  3  0  0  0  0  0  0
  184.9090  178.6980  144.9000 C   0  0  0  0  0  2  0  0  0  0  0  0
  186.3520  176.6350  145.1330 C   0  0  0  0  0  2  0  0  0  0  0  0
  186.6780  178.7080  148.3280 C   0  0  0  0  0  1  0  0  0  0  0  0
  186.5440  178.5610  146.8260 C   0  0  2  0  0  3  0  0  0  0  0  0
  185.0880  178.7740  146.4220 C   0  0  0  0  0  2  0  0  0  0  0  0
  185.9110  177.7660  144.2070 C   0  0  0  0  0  2  0  0  0  0  0  0
  190.4990  176.0510  144.7490 C   0  0  0  0  0  2  0  0  0  0  0  0
  189.9020  175.1320  143.6920 C   0  0  0  0  0  2  0  0  0  0  0  0
  189.2930  177.2590  142.6050 C   0  0  0  0  0  3  0  0  0  0  0  0
  188.2960  175.2560  141.6000 C   0  0  2  0  0  0  0  0  0  0  0  0
  187.3150  177.4350  141.1110 C   0  0  0  0  0  0  0  0  0  0  0  0
  189.2030  175.9200  142.6170 C   0  0  0  0  0  0  0  0  0  0  0  0
  190.2960  173.9000  140.7980 C   0  0  0  0  0  1  0  0  0  0  0  0
  187.2070  176.0420  141.1290 O   0  0  0  0  0  0  0  0  0  0  0  0
  187.9960  173.7830  141.7360 C   0  0  0  0  0  2  0  0  0  0  0  0
  186.3620  178.1320  140.6780 O   0  0  0  0  0  0  0  0  0  0  0  0
  188.5830  178.0980  141.5700 C   0  0  0  0  0  2  0  0  0  0  0  0
  188.8440  174.2820  140.5660 C   0  0  1  0  0  3  0  0  0  0  0  0
  1 17  1  6  0  0  0
  1  3  1  0  0  0  0
  1  8  1  0  0  0  0
  2  4  1  0  0  0  0
  3  6  1  0  0  0  0
  4  6  1  0  0  0  0
  5  2  1  0  0  0  0
  5  3  1  0  0  0  0
  8  7  1  6  0  0  0
  9  8  1  0  0  0  0
 10  9  1  6  0  0  0
 10 14  1  0  0  0  0
 11 15  1  0  0  0  0
 12 10  1  0  0  0  0
 14 13  1  1  0  0  0
 15 14  1  0  0  0  0
 16 11  1  0  0  0  0
 16 12  1  0  0  0  0
 18 17  1  0  0  0  0
 19 22  2  0  0  0  0
 20 25  1  1  0  0  0
 20 22  1  0  0  0  0
 21 24  1  0  0  0  0
 21 27  1  0  0  0  0
 22 18  1  0  0  0  0
 24 20  1  0  0  0  0
 26 21  2  0  0  0  0
 27 19  1  0  0  0  0
 28 23  1  1  0  0  0
 28 20  1  0  0  0  0
 28 25  1  0  0  0  0
M  END
>  <MODEL>
3

>  <REMARK>
 VINA RESULT:      -7.2      2.190      5.650
  Name = 
  7 active torsions:
  status: ('A' for Active; 'I' for Inactive)
    1  A    between atoms: C_2  and  C_3
    2  A    between atoms: C_2  and  C_26
    3  A    between atoms: C_10  and  C_13
    4  A    between atoms: C_10  and  C_17
    5  A    between atoms: N_16  and  C_27
    6  A    between atoms: C_17  and  C_27
    7  A    between atoms: C_26  and  C_27
                            x       y       z     vdW  Elec       q    Type
                         _______ _______ _______ _____ _____    ______ ____

>  <TORSDO>
F 7

$$$$
=
 OpenBabel11052418063D

 28 31  0  0  1  0  0  0  0  0999 V2000
  190.2730  177.1590  144.9850 C   0  0  1  0  0  3  0  0  0  0  0  0
  191.2730  175.2300  147.8780 C   0  0  0  0  0  2  0  0  0  0  0  0
  191.0080  176.9620  146.2520 N   0  0  0  0  0  0  0  0  0  0  0  0
  192.3780  175.0770  146.8670 C   0  0  0  0  0  2  0  0  0  0  0  0
  190.2710  176.1280  147.1980 C   0  0  0  0  0  2  0  0  0  0  0  0
  192.2980  176.3220  146.0090 C   0  0  0  0  0  2  0  0  0  0  0  0
  191.2450  177.6650  142.7920 O   0  0  0  0  0  1  0  0  0  0  0  0
  190.9250  176.6420  143.6840 C   0  0  2  0  0  3  0  0  0  0  0  0
  190.0750  175.5810  142.9980 C   0  0  0  0  0  2  0  0  0  0  0  0
  190.7780  174.2290  143.0160 C   0  0  2  0  0  3  0  0  0  0  0  0
  190.1030  171.7410  141.4410 C   0  0  0  0  0  2  0  0  0  0  0  0
  191.3800  173.9150  141.6360 C   0  0  0  0  0  2  0  0  0  0  0  0
  189.8430  173.1040  145.0410 C   0  0  0  0  0  1  0  0  0  0  0  0
  189.8150  173.1460  143.5260 C   0  0  2  0  0  3  0  0  0  0  0  0
  190.1780  171.7700  142.9730 C   0  0  0  0  0  2  0  0  0  0  0  0
  190.4180  173.0910  140.7830 C   0  0  0  0  0  2  0  0  0  0  0  0
  188.8190  176.7220  145.0950 C   0  0  0  0  0  2  0  0  0  0  0  0
  187.9040  177.9380  145.1440 C   0  0  0  0  0  2  0  0  0  0  0  0
  186.9710  177.2050  142.9840 C   0  0  0  0  0  3  0  0  0  0  0  0
  185.4110  178.4310  144.4270 C   0  0  2  0  0  0  0  0  0  0  0  0
  184.9020  178.2200  142.0510 C   0  0  0  0  0  0  0  0  0  0  0  0
  186.7670  177.8050  144.1680 C   0  0  0  0  0  0  0  0  0  0  0  0
  185.2090  176.9720  146.5050 C   0  0  0  0  0  1  0  0  0  0  0  0
  184.6900  178.8570  143.2770 O   0  0  0  0  0  0  0  0  0  0  0  0
  185.2280  179.3050  145.6440 C   0  0  0  0  0  2  0  0  0  0  0  0
  184.2530  178.5800  141.0360 O   0  0  0  0  0  0  0  0  0  0  0  0
  185.8730  177.0770  141.9550 C   0  0  0  0  0  2  0  0  0  0  0  0
  184.5220  177.9520  145.5680 C   0  0  1  0  0  3  0  0  0  0  0  0
  1 17  1  1  0  0  0
  1  3  1  0  0  0  0
  3  5  1  0  0  0  0
  4  2  1  0  0  0  0
  5  2  1  0  0  0  0
  6  3  1  0  0  0  0
  6  4  1  0  0  0  0
  8  7  1  6  0  0  0
  8  1  1  0  0  0  0
  9  8  1  0  0  0  0
 10  9  1  6  0  0  0
 10 14  1  0  0  0  0
 11 15  1  0  0  0  0
 12 10  1  0  0  0  0
 14 13  1  1  0  0  0
 15 14  1  0  0  0  0
 16 11  1  0  0  0  0
 16 12  1  0  0  0  0
 17 18  1  0  0  0  0
 19 22  2  0  0  0  0
 20 28  1  0  0  0  0
 20 25  1  1  0  0  0
 21 24  1  0  0  0  0
 22 20  1  0  0  0  0
 22 18  1  0  0  0  0
 24 20  1  0  0  0  0
 26 21  2  0  0  0  0
 27 21  1  0  0  0  0
 27 19  1  0  0  0  0
 28 25  1  0  0  0  0
 28 23  1  1  0  0  0
M  END
>  <MODEL>
4

>  <REMARK>
 VINA RESULT:      -7.1      2.245      6.947
  Name = 
  7 active torsions:
  status: ('A' for Active; 'I' for Inactive)
    1  A    between atoms: C_2  and  C_3
    2  A    between atoms: C_2  and  C_26
    3  A    between atoms: C_10  and  C_13
    4  A    between atoms: C_10  and  C_17
    5  A    between atoms: N_16  and  C_27
    6  A    between atoms: C_17  and  C_27
    7  A    between atoms: C_26  and  C_27
                            x       y       z     vdW  Elec       q    Type
                         _______ _______ _______ _____ _____    ______ ____

>  <TORSDO>
F 7

$$$$
=
 OpenBabel11052418063D

 28 31  0  0  1  0  0  0  0  0999 V2000
  189.4860  175.7880  142.5420 C   0  0  1  0  0  3  0  0  0  0  0  0
  188.9980  172.6810  140.7550 C   0  0  0  0  0  2  0  0  0  0  0  0
  188.8490  174.9440  141.5110 N   0  0  0  0  0  0  0  0  0  0  0  0
  187.9160  172.7400  141.7990 C   0  0  0  0  0  2  0  0  0  0  0  0
  189.7720  173.9600  140.9500 C   0  0  0  0  0  2  0  0  0  0  0  0
  187.7110  174.2160  142.0660 C   0  0  0  0  0  2  0  0  0  0  0  0
  189.6880  178.2270  142.3880 O   0  0  0  0  0  1  0  0  0  0  0  0
  188.8730  177.1790  142.8160 C   0  0  2  0  0  3  0  0  0  0  0  0
  188.4930  177.3610  144.2790 C   0  0  0  0  0  2  0  0  0  0  0  0
  186.9860  177.2230  144.4680 C   0  0  2  0  0  3  0  0  0  0  0  0
  184.9180  179.4120  144.7060 C   0  0  0  0  0  2  0  0  0  0  0  0
  186.2360  177.8100  143.2600 C   0  0  0  0  0  2  0  0  0  0  0  0
  186.7320  176.8260  146.9200 C   0  0  0  0  0  1  0  0  0  0  0  0
  186.5690  177.8440  145.8100 C   0  0  2  0  0  3  0  0  0  0  0  0
  185.1220  178.3300  145.7750 C   0  0  0  0  0  2  0  0  0  0  0  0
  185.8520  179.2680  143.4970 C   0  0  0  0  0  2  0  0  0  0  0  0
  189.7350  175.0220  143.8330 C   0  0  0  0  0  2  0  0  0  0  0  0
  191.2230  175.0040  144.1580 C   0  0  0  0  0  2  0  0  0  0  0  0
  190.4890  175.2060  146.5030 C   0  0  0  0  0  3  0  0  0  0  0  0
  192.7670  175.9970  146.0550 C   0  0  2  0  0  0  0  0  0  0  0  0
  191.6500  176.7120  148.1030 C   0  0  0  0  0  0  0  0  0  0  0  0
  191.4710  175.3590  145.5990 C   0  0  0  0  0  0  0  0  0  0  0  0
  193.9990  173.9230  145.2410 C   0  0  0  0  0  1  0  0  0  0  0  0
  192.6700  176.8860  147.1620 O   0  0  0  0  0  0  0  0  0  0  0  0
  193.7940  176.3910  145.0210 C   0  0  0  0  0  2  0  0  0  0  0  0
  191.5710  177.4830  149.0930 O   0  0  0  0  0  0  0  0  0  0  0  0
  190.6750  175.5790  147.9540 C   0  0  0  0  0  2  0  0  0  0  0  0
  194.0890  175.2440  145.9870 C   0  0  1  0  0  3  0  0  0  0  0  0
  1  8  1  0  0  0  0
  1 17  1  1  0  0  0
  2  5  1  0  0  0  0
  2  4  1  0  0  0  0
  3  6  1  0  0  0  0
  3  1  1  0  0  0  0
  4  6  1  0  0  0  0
  5  3  1  0  0  0  0
  8  7  1  1  0  0  0
  8  9  1  0  0  0  0
 10  9  1  6  0  0  0
 10 14  1  0  0  0  0
 11 15  1  0  0  0  0
 12 16  1  0  0  0  0
 12 10  1  0  0  0  0
 14 13  1  1  0  0  0
 15 14  1  0  0  0  0
 16 11  1  0  0  0  0
 17 18  1  0  0  0  0
 18 22  1  0  0  0  0
 19 27  1  0  0  0  0
 20 25  1  6  0  0  0
 20 24  1  0  0  0  0
 21 26  2  0  0  0  0
 22 20  1  0  0  0  0
 22 19  2  0  0  0  0
 24 21  1  0  0  0  0
 25 28  1  0  0  0  0
 27 21  1  0  0  0  0
 28 23  1  6  0  0  0
 28 20  1  0  0  0  0
M  END
>  <MODEL>
5

>  <REMARK>
 VINA RESULT:      -7.1      1.317      2.578
  Name = 
  7 active torsions:
  status: ('A' for Active; 'I' for Inactive)
    1  A    between atoms: C_2  and  C_3
    2  A    between atoms: C_2  and  C_26
    3  A    between atoms: C_10  and  C_13
    4  A    between atoms: C_10  and  C_17
    5  A    between atoms: N_16  and  C_27
    6  A    between atoms: C_17  and  C_27
    7  A    between atoms: C_26  and  C_27
                            x       y       z     vdW  Elec       q    Type
                         _______ _______ _______ _____ _____    ______ ____

>  <TORSDO>
F 7

$$$$
=
 OpenBabel11052418063D

 28 31  0  0  1  0  0  0  0  0999 V2000
  189.8230  175.7000  145.4120 C   0  0  1  0  0  3  0  0  0  0  0  0
  190.2790  174.6260  141.9880 C   0  0  0  0  0  2  0  0  0  0  0  0
  189.3620  175.0960  144.1450 N   0  0  0  0  0  0  0  0  0  0  0  0
  190.4810  173.4040  142.8440 C   0  0  0  0  0  2  0  0  0  0  0  0
  189.9740  175.7230  142.9760 C   0  0  0  0  0  2  0  0  0  0  0  0
  189.6840  173.6720  144.1030 C   0  0  0  0  0  2  0  0  0  0  0  0
  187.9320  175.7310  146.9740 O   0  0  0  0  0  1  0  0  0  0  0  0
  188.8050  176.5260  146.2300 C   0  0  2  0  0  3  0  0  0  0  0  0
  188.0280  177.5040  145.3610 C   0  0  0  0  0  2  0  0  0  0  0  0
  186.5260  177.3150  145.5430 C   0  0  2  0  0  3  0  0  0  0  0  0
  184.2720  178.6600  144.0480 C   0  0  0  0  0  2  0  0  0  0  0  0
  185.8970  176.7360  144.2650 C   0  0  0  0  0  2  0  0  0  0  0  0
  185.9830  178.7620  147.5050 C   0  0  0  0  0  1  0  0  0  0  0  0
  185.8850  178.6350  145.9980 C   0  0  2  0  0  3  0  0  0  0  0  0
  184.4210  178.7210  145.5750 C   0  0  0  0  0  2  0  0  0  0  0  0
  185.3670  177.8400  143.3540 C   0  0  0  0  0  2  0  0  0  0  0  0
  190.5630  174.6990  146.2870 C   0  0  0  0  0  2  0  0  0  0  0  0
  191.8300  175.3270  146.8530 C   0  0  0  0  0  2  0  0  0  0  0  0
  193.0980  173.4870  145.8120 C   0  0  0  0  0  3  0  0  0  0  0  0
  194.3130  175.6090  146.0030 C   0  0  2  0  0  0  0  0  0  0  0  0
  195.5760  173.5560  145.6340 C   0  0  0  0  0  0  0  0  0  0  0  0
  193.0590  174.7780  146.1810 C   0  0  0  0  0  0  0  0  0  0  0  0
  192.9570  177.2340  144.5860 C   0  0  0  0  0  1  0  0  0  0  0  0
  195.5440  174.8960  146.0290 O   0  0  0  0  0  0  0  0  0  0  0  0
  194.3730  176.9880  146.6160 C   0  0  0  0  0  2  0  0  0  0  0  0
  196.6650  172.9260  145.6370 O   0  0  0  0  0  0  0  0  0  0  0  0
  194.3190  172.8790  145.1650 C   0  0  0  0  0  2  0  0  0  0  0  0
  194.3320  176.8330  145.0960 C   0  0  1  0  0  3  0  0  0  0  0  0
  1  8  1  0  0  0  0
  1 17  1  1  0  0  0
  2  4  1  0  0  0  0
  2  5  1  0  0  0  0
  3  1  1  0  0  0  0
  4  6  1  0  0  0  0
  5  3  1  0  0  0  0
  6  3  1  0  0  0  0
  8  7  1  6  0  0  0
  9  8  1  0  0  0  0
 10  9  1  6  0  0  0
 10 14  1  0  0  0  0
 11 15  1  0  0  0  0
 12 10  1  0  0  0  0
 14 13  1  1  0  0  0
 15 14  1  0  0  0  0
 16 11  1  0  0  0  0
 16 12  1  0  0  0  0
 17 18  1  0  0  0  0
 19 22  2  0  0  0  0
 20 24  1  0  0  0  0
 20 22  1  0  0  0  0
 20 25  1  1  0  0  0
 21 26  2  0  0  0  0
 21 24  1  0  0  0  0
 22 18  1  0  0  0  0
 27 21  1  0  0  0  0
 27 19  1  0  0  0  0
 28 23  1  1  0  0  0
 28 20  1  0  0  0  0
 28 25  1  0  0  0  0
M  END
>  <MODEL>
6

>  <REMARK>
 VINA RESULT:      -7.1      1.881      3.013
  Name = 
  7 active torsions:
  status: ('A' for Active; 'I' for Inactive)
    1  A    between atoms: C_2  and  C_3
    2  A    between atoms: C_2  and  C_26
    3  A    between atoms: C_10  and  C_13
    4  A    between atoms: C_10  and  C_17
    5  A    between atoms: N_16  and  C_27
    6  A    between atoms: C_17  and  C_27
    7  A    between atoms: C_26  and  C_27
                            x       y       z     vdW  Elec       q    Type
                         _______ _______ _______ _____ _____    ______ ____

>  <TORSDO>
F 7

$$$$
=
 OpenBabel11052418063D

 28 31  0  0  1  0  0  0  0  0999 V2000
  189.9420  176.2500  145.6580 C   0  0  1  0  0  3  0  0  0  0  0  0
  193.4410  175.9140  146.5130 C   0  0  0  0  0  2  0  0  0  0  0  0
  191.2780  176.7870  145.9900 N   0  0  0  0  0  0  0  0  0  0  0  0
  193.3910  176.1430  145.0260 C   0  0  0  0  0  2  0  0  0  0  0  0
  191.9950  175.9410  146.9410 C   0  0  0  0  0  2  0  0  0  0  0  0
  192.1030  176.9030  144.7910 C   0  0  0  0  0  2  0  0  0  0  0  0
  187.8210  176.2170  146.8880 O   0  0  0  0  0  1  0  0  0  0  0  0
  188.7060  177.0220  146.1710 C   0  0  2  0  0  3  0  0  0  0  0  0
  187.9780  177.7500  145.0490 C   0  0  0  0  0  2  0  0  0  0  0  0
  186.4870  177.4300  145.0750 C   0  0  2  0  0  3  0  0  0  0  0  0
  184.3390  178.3410  143.1560 C   0  0  0  0  0  2  0  0  0  0  0  0
  186.0840  176.6360  143.8200 C   0  0  0  0  0  2  0  0  0  0  0  0
  185.5660  179.0410  146.7470 C   0  0  0  0  0  1  0  0  0  0  0  0
  185.6780  178.7210  145.2690 C   0  0  2  0  0  3  0  0  0  0  0  0
  184.2810  178.6020  144.6670 C   0  0  0  0  0  2  0  0  0  0  0  0
  185.5840  177.5600  142.7130 C   0  0  0  0  0  2  0  0  0  0  0  0
  189.8150  175.9090  144.1800 C   0  0  0  0  0  2  0  0  0  0  0  0
  189.3580  174.4670  144.0080 C   0  0  0  0  0  2  0  0  0  0  0  0
  188.6850  174.8950  141.6760 C   0  0  0  0  0  3  0  0  0  0  0  0
  189.8050  172.7450  142.0570 C   0  0  2  0  0  0  0  0  0  0  0  0
  188.5020  173.0520  140.0170 C   0  0  0  0  0  0  0  0  0  0  0  0
  189.2960  174.0830  142.5550 C   0  0  0  0  0  0  0  0  0  0  0  0
  192.1220  173.3900  142.8920 C   0  0  0  0  0  1  0  0  0  0  0  0
  189.1260  172.1990  140.9320 O   0  0  0  0  0  0  0  0  0  0  0  0
  190.2840  171.7240  143.0590 C   0  0  0  0  0  2  0  0  0  0  0  0
  187.9170  172.5750  139.0120 O   0  0  0  0  0  0  0  0  0  0  0  0
  188.5660  174.5410  140.2130 C   0  0  0  0  0  2  0  0  0  0  0  0
  191.2840  172.3880  142.1150 C   0  0  1  0  0  3  0  0  0  0  0  0
  1 17  1  6  0  0  0
  1  3  1  0  0  0  0
  1  8  1  0  0  0  0
  2  5  1  0  0  0  0
  3  5  1  0  0  0  0
  4  2  1  0  0  0  0
  6  4  1  0  0  0  0
  6  3  1  0  0  0  0
  8  7  1  6  0  0  0
  9  8  1  0  0  0  0
 10  9  1  6  0  0  0
 10 14  1  0  0  0  0
 11 15  1  0  0  0  0
 12 10  1  0  0  0  0
 14 13  1  1  0  0  0
 15 14  1  0  0  0  0
 16 11  1  0  0  0  0
 16 12  1  0  0  0  0
 18 17  1  0  0  0  0
 19 22  2  0  0  0  0
 20 28  1  0  0  0  0
 20 22  1  0  0  0  0
 20 25  1  1  0  0  0
 21 27  1  0  0  0  0
 21 24  1  0  0  0  0
 22 18  1  0  0  0  0
 24 20  1  0  0  0  0
 26 21  2  0  0  0  0
 27 19  1  0  0  0  0
 28 23  1  1  0  0  0
 28 25  1  0  0  0  0
M  END
>  <MODEL>
7

>  <REMARK>
 VINA RESULT:      -7.0      2.541      5.341
  Name = 
  7 active torsions:
  status: ('A' for Active; 'I' for Inactive)
    1  A    between atoms: C_2  and  C_3
    2  A    between atoms: C_2  and  C_26
    3  A    between atoms: C_10  and  C_13
    4  A    between atoms: C_10  and  C_17
    5  A    between atoms: N_16  and  C_27
    6  A    between atoms: C_17  and  C_27
    7  A    between atoms: C_26  and  C_27
                            x       y       z     vdW  Elec       q    Type
                         _______ _______ _______ _____ _____    ______ ____

>  <TORSDO>
F 7

$$$$
=
 OpenBabel11052418063D

 28 31  0  0  1  0  0  0  0  0999 V2000
  189.2260  176.0640  142.9170 C   0  0  1  0  0  3  0  0  0  0  0  0
  191.8670  173.6350  142.4560 C   0  0  0  0  0  2  0  0  0  0  0  0
  189.7710  174.7850  142.4190 N   0  0  0  0  0  0  0  0  0  0  0  0
  191.0740  173.1740  143.6500 C   0  0  0  0  0  2  0  0  0  0  0  0
  191.1700  174.8980  142.0150 C   0  0  0  0  0  2  0  0  0  0  0  0
  189.6890  173.7500  143.4450 C   0  0  0  0  0  2  0  0  0  0  0  0
  188.0870  177.9090  141.7710 O   0  0  0  0  0  1  0  0  0  0  0  0
  187.9410  176.6090  142.2550 C   0  0  2  0  0  3  0  0  0  0  0  0
  186.7350  176.5150  143.1780 C   0  0  0  0  0  2  0  0  0  0  0  0
  186.1850  177.9010  143.4930 C   0  0  2  0  0  3  0  0  0  0  0  0
  184.0670  178.6660  145.5070 C   0  0  0  0  0  2  0  0  0  0  0  0
  186.5030  178.2910  144.9460 C   0  0  0  0  0  2  0  0  0  0  0  0
  184.4990  178.2910  141.6910 C   0  0  0  0  0  1  0  0  0  0  0  0
  184.6860  177.9580  143.1580 C   0  0  2  0  0  3  0  0  0  0  0  0
  183.9610  178.9950  144.0120 C   0  0  0  0  0  2  0  0  0  0  0  0
  185.3570  177.9270  145.8850 C   0  0  0  0  0  2  0  0  0  0  0  0
  189.1260  176.0890  144.4360 C   0  0  0  0  0  2  0  0  0  0  0  0
  190.0390  177.1650  145.0080 C   0  0  0  0  0  2  0  0  0  0  0  0
  192.4530  176.8260  144.6410 C   0  0  0  0  0  3  0  0  0  0  0  0
  191.5250  175.6620  146.5900 C   0  0  2  0  0  0  0  0  0  0  0  0
  193.6750  174.9360  145.6950 C   0  0  0  0  0  0  0  0  0  0  0  0
  191.3730  176.5940  145.4050 C   0  0  0  0  0  0  0  0  0  0  0  0
  190.6780  177.5370  148.0900 C   0  0  0  0  0  1  0  0  0  0  0  0
  192.5500  174.6810  146.4850 O   0  0  0  0  0  0  0  0  0  0  0  0
  190.2890  175.2030  147.3250 C   0  0  0  0  0  2  0  0  0  0  0  0
  194.5920  174.0800  145.6140 O   0  0  0  0  0  0  0  0  0  0  0  0
  193.8070  176.2480  144.9760 C   0  0  0  0  0  2  0  0  0  0  0  0
  191.2780  176.1430  148.0140 C   0  0  1  0  0  3  0  0  0  0  0  0
  1 17  1  1  0  0  0
  2  4  1  0  0  0  0
  3  1  1  0  0  0  0
  3  6  1  0  0  0  0
  5  3  1  0  0  0  0
  5  2  1  0  0  0  0
  6  4  1  0  0  0  0
  8  7  1  1  0  0  0
  8  1  1  0  0  0  0
  8  9  1  0  0  0  0
 10  9  1  1  0  0  0
 10 12  1  0  0  0  0
 11 16  1  0  0  0  0
 12 16  1  0  0  0  0
 14 13  1  6  0  0  0
 14 10  1  0  0  0  0
 14 15  1  0  0  0  0
 15 11  1  0  0  0  0
 17 18  1  0  0  0  0
 18 22  1  0  0  0  0
 19 27  1  0  0  0  0
 19 22  2  0  0  0  0
 20 25  1  6  0  0  0
 20 28  1  0  0  0  0
 21 24  1  0  0  0  0
 22 20  1  0  0  0  0
 24 20  1  0  0  0  0
 25 28  1  0  0  0  0
 26 21  2  0  0  0  0
 27 21  1  0  0  0  0
 28 23  1  6  0  0  0
M  END
>  <MODEL>
8

>  <REMARK>
 VINA RESULT:      -7.0      1.158      1.998
  Name = 
  7 active torsions:
  status: ('A' for Active; 'I' for Inactive)
    1  A    between atoms: C_2  and  C_3
    2  A    between atoms: C_2  and  C_26
    3  A    between atoms: C_10  and  C_13
    4  A    between atoms: C_10  and  C_17
    5  A    between atoms: N_16  and  C_27
    6  A    between atoms: C_17  and  C_27
    7  A    between atoms: C_26  and  C_27
                            x       y       z     vdW  Elec       q    Type
                         _______ _______ _______ _____ _____    ______ ____

>  <TORSDO>
F 7

$$$$
=
 OpenBabel11052418063D

 28 31  0  0  1  0  0  0  0  0999 V2000
  187.8570  176.5600  143.9050 C   0  0  1  0  0  3  0  0  0  0  0  0
  185.0670  177.7240  145.8910 C   0  0  0  0  0  2  0  0  0  0  0  0
  186.4510  176.9700  144.0940 N   0  0  0  0  0  0  0  0  0  0  0  0
  185.6430  178.9420  145.2200 C   0  0  0  0  0  2  0  0  0  0  0  0
  185.9320  176.5890  145.4050 C   0  0  0  0  0  2  0  0  0  0  0  0
  186.3110  178.4180  143.9660 C   0  0  0  0  0  2  0  0  0  0  0  0
  187.3150  176.1490  141.5490 O   0  0  0  0  0  1  0  0  0  0  0  0
  188.2450  175.9060  142.5600 C   0  0  2  0  0  3  0  0  0  0  0  0
  188.5020  174.4120  142.7020 C   0  0  0  0  0  2  0  0  0  0  0  0
  189.9420  174.1480  143.1260 C   0  0  2  0  0  3  0  0  0  0  0  0
  191.9450  172.2530  141.8930 C   0  0  0  0  0  2  0  0  0  0  0  0
  190.9170  174.5600  142.0110 C   0  0  0  0  0  2  0  0  0  0  0  0
  189.7130  172.5430  145.0260 C   0  0  0  0  0  1  0  0  0  0  0  0
  190.0970  172.6850  143.5670 C   0  0  2  0  0  3  0  0  0  0  0  0
  191.5270  172.1900  143.3680 C   0  0  0  0  0  2  0  0  0  0  0  0
  191.2610  173.3790  141.1070 C   0  0  0  0  0  2  0  0  0  0  0  0
  188.8310  177.6650  144.2910 C   0  0  0  0  0  2  0  0  0  0  0  0
  189.4290  177.3850  145.6630 C   0  0  0  0  0  2  0  0  0  0  0  0
  191.5980  177.1820  144.5090 C   0  0  0  0  0  3  0  0  0  0  0  0
  191.3520  175.7870  146.5110 C   0  0  2  0  0  0  0  0  0  0  0  0
  193.1030  175.2430  144.9020 C   0  0  0  0  0  0  0  0  0  0  0  0
  190.8230  176.8300  145.5470 C   0  0  0  0  0  0  0  0  0  0  0  0
  191.0240  177.4620  148.4010 C   0  0  0  0  0  1  0  0  0  0  0  0
  192.2930  174.8640  145.9770 O   0  0  0  0  0  0  0  0  0  0  0  0
  190.4200  175.2060  147.5470 C   0  0  0  0  0  2  0  0  0  0  0  0
  193.9490  174.4370  144.4380 O   0  0  0  0  0  0  0  0  0  0  0  0
  192.9910  176.6270  144.3280 C   0  0  0  0  0  2  0  0  0  0  0  0
  191.5740  176.1080  147.9830 C   0  0  1  0  0  3  0  0  0  0  0  0
  1  3  1  0  0  0  0
  1 17  1  6  0  0  0
  3  5  1  0  0  0  0
  4  2  1  0  0  0  0
  5  2  1  0  0  0  0
  6  3  1  0  0  0  0
  6  4  1  0  0  0  0
  8  7  1  6  0  0  0
  8  9  1  0  0  0  0
  8  1  1  0  0  0  0
 10  9  1  6  0  0  0
 10 14  1  0  0  0  0
 11 15  1  0  0  0  0
 12 10  1  0  0  0  0
 14 13  1  1  0  0  0
 15 14  1  0  0  0  0
 16 11  1  0  0  0  0
 16 12  1  0  0  0  0
 17 18  1  0  0  0  0
 19 22  2  0  0  0  0
 20 25  1  1  0  0  0
 20 28  1  0  0  0  0
 21 24  1  0  0  0  0
 22 18  1  0  0  0  0
 22 20  1  0  0  0  0
 24 20  1  0  0  0  0
 25 28  1  0  0  0  0
 26 21  2  0  0  0  0
 27 19  1  0  0  0  0
 27 21  1  0  0  0  0
 28 23  1  6  0  0  0
M  END
>  <MODEL>
9

>  <REMARK>
 VINA RESULT:      -6.9      1.790      4.901
  Name = 
  7 active torsions:
  status: ('A' for Active; 'I' for Inactive)
    1  A    between atoms: C_2  and  C_3
    2  A    between atoms: C_2  and  C_26
    3  A    between atoms: C_10  and  C_13
    4  A    between atoms: C_10  and  C_17
    5  A    between atoms: N_16  and  C_27
    6  A    between atoms: C_17  and  C_27
    7  A    between atoms: C_26  and  C_27
                            x       y       z     vdW  Elec       q    Type
                         _______ _______ _______ _____ _____    ______ ____

>  <TORSDO>
F 7

$$$$
