=
 OpenBabel11052417533D

 31 35  0  0  1  0  0  0  0  0999 V2000
  185.1100  178.1880  140.7740 C   0  0  0  0  0  0  0  0  0  0  0  0
  187.2640  178.0810  143.8320 N   0  0  0  0  0  0  0  0  0  0  0  0
  186.4720  178.1530  145.0130 C   0  0  0  0  0  0  0  0  0  0  0  0
  184.5650  178.5150  146.4260 C   0  0  0  0  0  0  0  0  0  0  0  0
  186.7800  177.8970  142.4930 C   0  0  0  0  0  0  0  0  0  0  0  0
  185.8890  177.4850  139.9070 N   0  0  0  0  0  0  0  0  0  0  0  0
  185.1320  178.5200  145.1390 C   0  0  0  0  0  3  0  0  0  0  0  0
  189.0140  176.3930  143.4920 C   0  0  2  0  0  3  0  0  0  0  0  0
  184.0000  178.6420  140.3960 O   0  0  0  0  0  0  0  0  0  0  0  0
  189.6800  177.3950  146.5810 C   0  0  0  0  0  1  0  0  0  0  0  0
  183.2690  178.8670  146.5930 F   0  0  0  0  0  0  0  0  0  0  0  0
  188.9090  176.6310  141.9800 C   0  0  0  0  0  2  0  0  0  0  0  0
  188.6170  177.6690  144.2420 C   0  0  2  0  0  3  0  0  0  0  0  0
  185.5430  178.4060  142.0840 C   0  0  0  0  0  2  0  0  0  0  0  0
  185.3430  178.1470  147.5440 C   0  0  0  0  0  3  0  0  0  0  0  0
  187.5590  177.1620  141.5830 C   0  0  0  0  0  0  0  0  0  0  0  0
  187.0940  176.9760  140.2810 C   0  0  0  0  0  3  0  0  0  0  0  0
  188.5320  177.4370  145.6900 N   0  0  0  0  0  0  0  0  0  0  0  0
  187.2190  177.7890  146.0950 C   0  0  0  0  0  0  0  0  0  0  0  0
  186.6890  177.7760  147.3860 C   0  0  0  0  0  3  0  0  0  0  0  0
  189.7750  174.0180  144.8610 O   0  0  0  0  0  0  0  0  0  0  0  0
  190.7000  174.8040  144.5190 C   0  0  0  0  0  0  0  0  0  0  0  0
  190.3780  176.0180  143.8340 N   0  0  0  0  0  2  0  0  0  0  0  0
  194.7990  173.9520  145.4740 C   0  0  0  0  0  0  0  0  0  0  0  0
  192.7710  175.2230  145.8220 C   0  0  0  0  0  3  0  0  0  0  0  0
  192.2290  172.7040  143.1530 O   0  0  0  0  0  1  0  0  0  0  0  0
  196.1560  173.6830  145.8050 N   0  0  0  0  0  1  0  0  0  0  0  0
  194.1040  174.9600  146.1450 C   0  0  0  0  0  3  0  0  0  0  0  0
  192.8260  173.4670  144.1490 C   0  0  0  0  0  0  0  0  0  0  0  0
  192.1140  174.4850  144.8230 C   0  0  0  0  0  0  0  0  0  0  0  0
  194.1600  173.2090  144.4800 C   0  0  0  0  0  3  0  0  0  0  0  0
  1 14  1  0  0  0  0
  2  3  1  0  0  0  0
  3  7  2  0  0  0  0
  3 19  1  0  0  0  0
  4 11  1  0  0  0  0
  4 15  2  0  0  0  0
  5  2  1  0  0  0  0
  6 17  2  0  0  0  0
  6  1  1  0  0  0  0
  7  4  1  0  0  0  0
  8 23  1  6  0  0  0
  8 13  1  0  0  0  0
  9  1  2  0  0  0  0
 12  8  1  0  0  0  0
 13  2  1  6  0  0  0
 13 18  1  0  0  0  0
 14  5  1  0  0  0  0
 16 12  1  0  0  0  0
 16  5  2  0  0  0  0
 17 16  1  0  0  0  0
 18 19  1  0  0  0  0
 18 10  1  0  0  0  0
 19 20  2  0  0  0  0
 20 15  1  0  0  0  0
 22 30  1  0  0  0  0
 22 21  2  0  0  0  0
 23 22  1  0  0  0  0
 24 27  1  0  0  0  0
 24 28  1  0  0  0  0
 25 28  2  0  0  0  0
 26 29  1  0  0  0  0
 29 31  1  0  0  0  0
 29 30  2  0  0  0  0
 30 25  1  0  0  0  0
 31 24  2  0  0  0  0
M  END
>  <MODEL>
1

>  <REMARK>
 VINA RESULT:      -9.0      0.000      0.000
  Name = 
  2 active torsions:
  status: ('A' for Active; 'I' for Inactive)
    1  A    between atoms: C_9  and  C_22
    2  A    between atoms: C_15  and  N_23
                            x       y       z     vdW  Elec       q    Type
                         _______ _______ _______ _____ _____    ______ ____

>  <TORSDO>
F 2

$$$$
=
 OpenBabel11052417533D

 31 35  0  0  1  0  0  0  0  0999 V2000
  184.5140  178.2910  146.5590 C   0  0  0  0  0  0  0  0  0  0  0  0
  186.8950  176.7410  144.1230 N   0  0  0  0  0  0  0  0  0  0  0  0
  186.5370  177.0690  142.7840 C   0  0  0  0  0  0  0  0  0  0  0  0
  185.2220  177.8460  140.9320 C   0  0  0  0  0  0  0  0  0  0  0  0
  186.3390  177.3120  145.3170 C   0  0  0  0  0  0  0  0  0  0  0  0
  185.3320  178.4310  147.6380 N   0  0  0  0  0  0  0  0  0  0  0  0
  185.3400  177.6090  142.3140 C   0  0  0  0  0  3  0  0  0  0  0  0
  189.1750  176.9900  144.9990 C   0  0  2  0  0  3  0  0  0  0  0  0
  183.3160  178.6670  146.6240 O   0  0  0  0  0  0  0  0  0  0  0  0
  189.7620  175.5080  142.0930 C   0  0  0  0  0  1  0  0  0  0  0  0
  184.0760  178.3660  140.4340 F   0  0  0  0  0  0  0  0  0  0  0  0
  188.5960  177.0140  146.4190 C   0  0  0  0  0  2  0  0  0  0  0  0
  188.2550  176.1780  144.0820 C   0  0  2  0  0  3  0  0  0  0  0  0
  185.0040  177.7280  145.3780 C   0  0  0  0  0  2  0  0  0  0  0  0
  186.2910  177.5410  140.0640 C   0  0  0  0  0  3  0  0  0  0  0  0
  187.1670  177.4820  146.4400 C   0  0  0  0  0  0  0  0  0  0  0  0
  186.6330  178.0380  147.6030 C   0  0  0  0  0  3  0  0  0  0  0  0
  188.6750  176.2750  142.6770 N   0  0  0  0  0  0  0  0  0  0  0  0
  187.5720  176.7840  141.9430 C   0  0  0  0  0  0  0  0  0  0  0  0
  187.4870  177.0030  140.5680 C   0  0  0  0  0  3  0  0  0  0  0  0
  191.5750  178.2950  144.2040 O   0  0  0  0  0  0  0  0  0  0  0  0
  191.6780  177.1080  144.6170 C   0  0  0  0  0  0  0  0  0  0  0  0
  190.5040  176.3970  145.0230 N   0  0  0  0  0  2  0  0  0  0  0  0
  195.5020  175.1770  144.9000 C   0  0  0  0  0  0  0  0  0  0  0  0
  193.5710  176.1960  145.9380 C   0  0  0  0  0  3  0  0  0  0  0  0
  193.1870  176.2560  142.2490 O   0  0  0  0  0  1  0  0  0  0  0  0
  196.7680  174.5370  145.0130 N   0  0  0  0  0  1  0  0  0  0  0  0
  194.8140  175.5690  146.0490 C   0  0  0  0  0  3  0  0  0  0  0  0
  193.7030  176.0400  143.5210 C   0  0  0  0  0  0  0  0  0  0  0  0
  192.9990  176.4410  144.6800 C   0  0  0  0  0  0  0  0  0  0  0  0
  194.9480  175.4120  143.6410 C   0  0  0  0  0  3  0  0  0  0  0  0
  1  9  2  0  0  0  0
  1  6  1  0  0  0  0
  2  5  1  0  0  0  0
  3  2  1  0  0  0  0
  4  7  2  0  0  0  0
  5 14  1  0  0  0  0
  5 16  2  0  0  0  0
  7  3  1  0  0  0  0
  8 23  1  1  0  0  0
  8 12  1  0  0  0  0
 10 18  1  0  0  0  0
 11  4  1  0  0  0  0
 12 16  1  0  0  0  0
 13 18  1  6  0  0  0
 13  2  1  0  0  0  0
 13  8  1  0  0  0  0
 14  1  1  0  0  0  0
 15 20  2  0  0  0  0
 15  4  1  0  0  0  0
 16 17  1  0  0  0  0
 17  6  2  0  0  0  0
 19 18  1  0  0  0  0
 19  3  2  0  0  0  0
 20 19  1  0  0  0  0
 21 22  2  0  0  0  0
 22 30  1  0  0  0  0
 22 23  1  0  0  0  0
 24 27  1  0  0  0  0
 24 28  1  0  0  0  0
 25 28  2  0  0  0  0
 26 29  1  0  0  0  0
 29 31  1  0  0  0  0
 29 30  2  0  0  0  0
 30 25  1  0  0  0  0
 31 24  2  0  0  0  0
M  END
>  <MODEL>
2

>  <REMARK>
 VINA RESULT:      -9.0      2.428      4.294
  Name = 
  2 active torsions:
  status: ('A' for Active; 'I' for Inactive)
    1  A    between atoms: C_9  and  C_22
    2  A    between atoms: C_15  and  N_23
                            x       y       z     vdW  Elec       q    Type
                         _______ _______ _______ _____ _____    ______ ____

>  <TORSDO>
F 2

$$$$
=
 OpenBabel11052417533D

 31 35  0  0  1  0  0  0  0  0999 V2000
  185.0560  178.2600  140.8910 C   0  0  0  0  0  0  0  0  0  0  0  0
  187.2160  178.1760  143.9440 N   0  0  0  0  0  0  0  0  0  0  0  0
  186.4230  178.1650  145.1270 C   0  0  0  0  0  0  0  0  0  0  0  0
  184.5010  178.3720  146.5500 C   0  0  0  0  0  0  0  0  0  0  0  0
  186.7420  178.0080  142.6000 C   0  0  0  0  0  0  0  0  0  0  0  0
  185.8720  177.6310  140.0010 N   0  0  0  0  0  0  0  0  0  0  0  0
  185.0650  178.4510  145.2640 C   0  0  0  0  0  3  0  0  0  0  0  0
  189.0580  176.6010  143.5520 C   0  0  2  0  0  3  0  0  0  0  0  0
  183.9220  178.6630  140.5270 O   0  0  0  0  0  0  0  0  0  0  0  0
  189.6700  177.5370  146.6720 C   0  0  0  0  0  1  0  0  0  0  0  0
  183.1870  178.6450  146.7270 F   0  0  0  0  0  0  0  0  0  0  0  0
  188.9380  176.8810  142.0480 C   0  0  0  0  0  2  0  0  0  0  0  0
  188.5910  177.8270  144.3420 C   0  0  2  0  0  3  0  0  0  0  0  0
  185.4780  178.4600  142.2070 C   0  0  0  0  0  2  0  0  0  0  0  0
  185.2990  178.0120  147.6560 C   0  0  0  0  0  3  0  0  0  0  0  0
  187.5600  177.3480  141.6670 C   0  0  0  0  0  0  0  0  0  0  0  0
  187.1040  177.1790  140.3590 C   0  0  0  0  0  3  0  0  0  0  0  0
  188.5210  177.5440  145.7820 N   0  0  0  0  0  0  0  0  0  0  0  0
  187.1900  177.8080  146.1970 C   0  0  0  0  0  0  0  0  0  0  0  0
  186.6640  177.7230  147.4870 C   0  0  0  0  0  3  0  0  0  0  0  0
  190.0350  174.0440  144.3290 O   0  0  0  0  0  0  0  0  0  0  0  0
  190.8750  174.9820  144.2600 C   0  0  0  0  0  0  0  0  0  0  0  0
  190.4420  176.2920  143.8820 N   0  0  0  0  0  2  0  0  0  0  0  0
  195.0330  174.2800  145.0650 C   0  0  0  0  0  0  0  0  0  0  0  0
  193.1940  174.5100  143.5130 C   0  0  0  0  0  3  0  0  0  0  0  0
  191.9670  174.9650  146.9840 O   0  0  0  0  0  1  0  0  0  0  0  0
  196.4140  174.0470  145.3140 N   0  0  0  0  0  1  0  0  0  0  0  0
  194.5500  174.2790  143.7560 C   0  0  0  0  0  3  0  0  0  0  0  0
  192.8010  174.7410  145.8950 C   0  0  0  0  0  0  0  0  0  0  0  0
  192.3020  174.7420  144.5720 C   0  0  0  0  0  0  0  0  0  0  0  0
  194.1610  174.5100  146.1300 C   0  0  0  0  0  3  0  0  0  0  0  0
  1 14  1  0  0  0  0
  2  3  1  0  0  0  0
  3  7  2  0  0  0  0
  3 19  1  0  0  0  0
  4 11  1  0  0  0  0
  4 15  2  0  0  0  0
  5  2  1  0  0  0  0
  6 17  2  0  0  0  0
  6  1  1  0  0  0  0
  7  4  1  0  0  0  0
  8 23  1  6  0  0  0
  8 13  1  0  0  0  0
  9  1  2  0  0  0  0
 12  8  1  0  0  0  0
 13  2  1  6  0  0  0
 13 18  1  0  0  0  0
 14  5  1  0  0  0  0
 16 12  1  0  0  0  0
 16  5  2  0  0  0  0
 17 16  1  0  0  0  0
 18 19  1  0  0  0  0
 18 10  1  0  0  0  0
 19 20  2  0  0  0  0
 20 15  1  0  0  0  0
 22 21  2  0  0  0  0
 22 30  1  0  0  0  0
 23 22  1  0  0  0  0
 24 27  1  0  0  0  0
 24 31  1  0  0  0  0
 25 28  1  0  0  0  0
 25 30  2  0  0  0  0
 28 24  2  0  0  0  0
 29 31  2  0  0  0  0
 29 26  1  0  0  0  0
 30 29  1  0  0  0  0
M  END
>  <MODEL>
3

>  <REMARK>
 VINA RESULT:      -8.8      0.724      1.184
  Name = 
  2 active torsions:
  status: ('A' for Active; 'I' for Inactive)
    1  A    between atoms: C_9  and  C_22
    2  A    between atoms: C_15  and  N_23
                            x       y       z     vdW  Elec       q    Type
                         _______ _______ _______ _____ _____    ______ ____

>  <TORSDO>
F 2

$$$$
=
 OpenBabel11052417533D

 31 35  0  0  1  0  0  0  0  0999 V2000
  184.7400  178.2410  146.6050 C   0  0  0  0  0  0  0  0  0  0  0  0
  186.9410  176.5880  144.0700 N   0  0  0  0  0  0  0  0  0  0  0  0
  186.5790  176.9800  142.7500 C   0  0  0  0  0  0  0  0  0  0  0  0
  185.2850  177.9070  140.9520 C   0  0  0  0  0  0  0  0  0  0  0  0
  186.4570  177.1640  145.2930 C   0  0  0  0  0  0  0  0  0  0  0  0
  185.5900  178.2880  147.6670 N   0  0  0  0  0  0  0  0  0  0  0  0
  185.4160  177.6220  142.3240 C   0  0  0  0  0  3  0  0  0  0  0  0
  189.2530  176.6390  144.8960 C   0  0  2  0  0  3  0  0  0  0  0  0
  183.5760  178.7040  146.7100 O   0  0  0  0  0  0  0  0  0  0  0  0
  189.6600  175.2010  141.9370 C   0  0  0  0  0  1  0  0  0  0  0  0
  184.1720  178.5270  140.4970 F   0  0  0  0  0  0  0  0  0  0  0  0
  188.7090  176.6650  146.3300 C   0  0  0  0  0  2  0  0  0  0  0  0
  188.2540  175.9250  143.9800 C   0  0  2  0  0  3  0  0  0  0  0  0
  185.1600  177.6770  145.3970 C   0  0  0  0  0  2  0  0  0  0  0  0
  186.3090  177.5480  140.0510 C   0  0  0  0  0  3  0  0  0  0  0  0
  187.3200  177.2380  146.3990 C   0  0  0  0  0  0  0  0  0  0  0  0
  186.8570  177.7990  147.5900 C   0  0  0  0  0  3  0  0  0  0  0  0
  188.6480  176.0310  142.5690 N   0  0  0  0  0  0  0  0  0  0  0  0
  187.5710  176.6420  141.8760 C   0  0  0  0  0  0  0  0  0  0  0  0
  187.4720  176.9070  140.5100 C   0  0  0  0  0  3  0  0  0  0  0  0
  191.7650  177.8440  144.3190 O   0  0  0  0  0  0  0  0  0  0  0  0
  191.7680  176.6100  144.5810 C   0  0  0  0  0  0  0  0  0  0  0  0
  190.5330  175.9470  144.8720 N   0  0  0  0  0  2  0  0  0  0  0  0
  195.4110  174.3400  144.5020 C   0  0  0  0  0  0  0  0  0  0  0  0
  193.3010  174.9790  143.5100 C   0  0  0  0  0  3  0  0  0  0  0  0
  193.7710  176.7800  146.7180 O   0  0  0  0  0  1  0  0  0  0  0  0
  196.6140  173.5820  144.4590 N   0  0  0  0  0  1  0  0  0  0  0  0
  194.4810  174.2320  143.4680 C   0  0  0  0  0  3  0  0  0  0  0  0
  193.9810  175.9430  145.6290 C   0  0  0  0  0  0  0  0  0  0  0  0
  193.0330  175.8410  144.5850 C   0  0  0  0  0  0  0  0  0  0  0  0
  195.1610  175.1930  145.5790 C   0  0  0  0  0  3  0  0  0  0  0  0
  1  9  2  0  0  0  0
  1  6  1  0  0  0  0
  2  5  1  0  0  0  0
  3  2  1  0  0  0  0
  4  7  2  0  0  0  0
  5 14  1  0  0  0  0
  5 16  2  0  0  0  0
  7  3  1  0  0  0  0
  8 23  1  1  0  0  0
  8 12  1  0  0  0  0
 10 18  1  0  0  0  0
 11  4  1  0  0  0  0
 12 16  1  0  0  0  0
 13 18  1  6  0  0  0
 13  2  1  0  0  0  0
 13  8  1  0  0  0  0
 14  1  1  0  0  0  0
 15 20  2  0  0  0  0
 15  4  1  0  0  0  0
 16 17  1  0  0  0  0
 17  6  2  0  0  0  0
 19 18  1  0  0  0  0
 19  3  2  0  0  0  0
 20 19  1  0  0  0  0
 21 22  2  0  0  0  0
 22 30  1  0  0  0  0
 22 23  1  0  0  0  0
 24 31  1  0  0  0  0
 25 30  2  0  0  0  0
 27 24  1  0  0  0  0
 28 25  1  0  0  0  0
 28 24  2  0  0  0  0
 29 26  1  0  0  0  0
 30 29  1  0  0  0  0
 31 29  2  0  0  0  0
M  END
>  <MODEL>
4

>  <REMARK>
 VINA RESULT:      -8.7      2.426      4.395
  Name = 
  2 active torsions:
  status: ('A' for Active; 'I' for Inactive)
    1  A    between atoms: C_9  and  C_22
    2  A    between atoms: C_15  and  N_23
                            x       y       z     vdW  Elec       q    Type
                         _______ _______ _______ _____ _____    ______ ____

>  <TORSDO>
F 2

$$$$
=
 OpenBabel11052417533D

 31 35  0  0  1  0  0  0  0  0999 V2000
  185.8050  178.1920  146.6570 C   0  0  0  0  0  0  0  0  0  0  0  0
  188.9060  177.1390  144.8480 N   0  0  0  0  0  0  0  0  0  0  0  0
  189.9580  176.8560  145.7650 C   0  0  0  0  0  0  0  0  0  0  0  0
  191.1930  176.7910  147.8230 C   0  0  0  0  0  0  0  0  0  0  0  0
  187.5290  177.3750  145.1780 C   0  0  0  0  0  0  0  0  0  0  0  0
  184.8580  177.7780  145.7710 N   0  0  0  0  0  0  0  0  0  0  0  0
  190.0390  177.1810  147.1200 C   0  0  0  0  0  3  0  0  0  0  0  0
  188.2680  175.6160  143.0310 C   0  0  2  0  0  3  0  0  0  0  0  0
  185.4610  178.7510  147.7290 O   0  0  0  0  0  0  0  0  0  0  0  0
  191.5690  175.6240  142.7310 C   0  0  0  0  0  1  0  0  0  0  0  0
  191.3130  177.0880  149.1380 F   0  0  0  0  0  0  0  0  0  0  0  0
  186.8970  176.3030  142.9760 C   0  0  0  0  0  2  0  0  0  0  0  0
  189.3200  176.6070  143.5380 C   0  0  2  0  0  3  0  0  0  0  0  0
  187.1590  177.9980  146.3750 C   0  0  0  0  0  2  0  0  0  0  0  0
  192.2260  176.0920  147.1640 C   0  0  0  0  0  3  0  0  0  0  0  0
  186.5320  176.9430  144.2870 C   0  0  0  0  0  0  0  0  0  0  0  0
  185.1910  177.1680  144.6020 C   0  0  0  0  0  3  0  0  0  0  0  0
  190.6110  175.9470  143.7750 N   0  0  0  0  0  0  0  0  0  0  0  0
  190.9550  176.1730  145.1330 C   0  0  0  0  0  0  0  0  0  0  0  0
  192.1140  175.7730  145.8000 C   0  0  0  0  0  3  0  0  0  0  0  0
  187.7200  173.0200  142.0050 O   0  0  0  0  0  0  0  0  0  0  0  0
  188.3190  173.8230  141.2400 C   0  0  0  0  0  0  0  0  0  0  0  0
  188.6300  175.1410  141.7030 N   0  0  0  0  0  2  0  0  0  0  0  0
  189.4020  172.7170  137.2350 C   0  0  0  0  0  0  0  0  0  0  0  0
  188.2250  174.1550  138.7820 C   0  0  0  0  0  3  0  0  0  0  0  0
  190.0700  171.5410  140.6590 O   0  0  0  0  0  1  0  0  0  0  0  0
  189.7520  172.3660  135.9020 N   0  0  0  0  0  1  0  0  0  0  0  0
  188.5660  173.8090  137.4730 C   0  0  0  0  0  3  0  0  0  0  0  0
  189.5570  172.3100  139.6210 C   0  0  0  0  0  0  0  0  0  0  0  0
  188.7110  173.4140  139.8720 C   0  0  0  0  0  0  0  0  0  0  0  0
  189.8960  171.9710  138.3070 C   0  0  0  0  0  3  0  0  0  0  0  0
  1  9  2  0  0  0  0
  2  5  1  0  0  0  0
  2  3  1  0  0  0  0
  3  7  1  0  0  0  0
  4 11  1  0  0  0  0
  5 14  1  0  0  0  0
  6  1  1  0  0  0  0
  7  4  2  0  0  0  0
  8 23  1  6  0  0  0
  8 13  1  0  0  0  0
 10 18  1  0  0  0  0
 12  8  1  0  0  0  0
 12 16  1  0  0  0  0
 13 18  1  1  0  0  0
 13  2  1  0  0  0  0
 14  1  1  0  0  0  0
 15  4  1  0  0  0  0
 16 17  1  0  0  0  0
 16  5  2  0  0  0  0
 17  6  2  0  0  0  0
 18 19  1  0  0  0  0
 19  3  2  0  0  0  0
 19 20  1  0  0  0  0
 20 15  2  0  0  0  0
 22 23  1  0  0  0  0
 22 21  2  0  0  0  0
 24 28  2  0  0  0  0
 24 31  1  0  0  0  0
 25 30  2  0  0  0  0
 27 24  1  0  0  0  0
 28 25  1  0  0  0  0
 29 30  1  0  0  0  0
 29 26  1  0  0  0  0
 30 22  1  0  0  0  0
 31 29  2  0  0  0  0
M  END
>  <MODEL>
5

>  <REMARK>
 VINA RESULT:      -8.2      3.597      5.959
  Name = 
  2 active torsions:
  status: ('A' for Active; 'I' for Inactive)
    1  A    between atoms: C_9  and  C_22
    2  A    between atoms: C_15  and  N_23
                            x       y       z     vdW  Elec       q    Type
                         _______ _______ _______ _____ _____    ______ ____

>  <TORSDO>
F 2

$$$$
=
 OpenBabel11052417533D

 31 35  0  0  1  0  0  0  0  0999 V2000
  185.8150  178.1300  146.5650 C   0  0  0  0  0  0  0  0  0  0  0  0
  188.9790  177.1590  144.8200 N   0  0  0  0  0  0  0  0  0  0  0  0
  190.0110  176.8760  145.7600 C   0  0  0  0  0  0  0  0  0  0  0  0
  191.1920  176.7910  147.8490 C   0  0  0  0  0  0  0  0  0  0  0  0
  187.5900  177.3680  145.1180 C   0  0  0  0  0  0  0  0  0  0  0  0
  184.8980  177.7180  145.6470 N   0  0  0  0  0  0  0  0  0  0  0  0
  190.0510  177.1760  147.1220 C   0  0  0  0  0  3  0  0  0  0  0  0
  188.4140  175.6610  142.9600 C   0  0  2  0  0  3  0  0  0  0  0  0
  185.4340  178.6630  147.6380 O   0  0  0  0  0  0  0  0  0  0  0  0
  191.7210  175.7250  142.7480 C   0  0  0  0  0  1  0  0  0  0  0  0
  191.2720  177.0660  149.1720 F   0  0  0  0  0  0  0  0  0  0  0  0
  187.0340  176.3270  142.8810 C   0  0  0  0  0  2  0  0  0  0  0  0
  189.4360  176.6580  143.5130 C   0  0  2  0  0  3  0  0  0  0  0  0
  187.1790  177.9620  146.3160 C   0  0  0  0  0  2  0  0  0  0  0  0
  192.2530  176.1210  147.2050 C   0  0  0  0  0  3  0  0  0  0  0  0
  186.6240  176.9370  144.1930 C   0  0  0  0  0  0  0  0  0  0  0  0
  185.2720  177.1350  144.4770 C   0  0  0  0  0  3  0  0  0  0  0  0
  190.7310  176.0140  143.7720 N   0  0  0  0  0  0  0  0  0  0  0  0
  191.0350  176.2200  145.1430 C   0  0  0  0  0  0  0  0  0  0  0  0
  192.1820  175.8260  145.8320 C   0  0  0  0  0  3  0  0  0  0  0  0
  187.8150  173.1230  141.8200 O   0  0  0  0  0  0  0  0  0  0  0  0
  188.4790  173.9270  141.1120 C   0  0  0  0  0  0  0  0  0  0  0  0
  188.8180  175.2160  141.6340 N   0  0  0  0  0  2  0  0  0  0  0  0
  189.8120  172.7610  137.2010 C   0  0  0  0  0  0  0  0  0  0  0  0
  189.8830  172.5390  139.6070 C   0  0  0  0  0  3  0  0  0  0  0  0
  187.4440  175.1690  138.6640 O   0  0  0  0  0  1  0  0  0  0  0  0
  190.2640  172.3610  135.9130 N   0  0  0  0  0  1  0  0  0  0  0  0
  190.3290  172.1470  138.3430 C   0  0  0  0  0  3  0  0  0  0  0  0
  188.4010  174.1650  138.5860 C   0  0  0  0  0  0  0  0  0  0  0  0
  188.9180  173.5490  139.7490 C   0  0  0  0  0  0  0  0  0  0  0  0
  188.8510  173.7660  137.3230 C   0  0  0  0  0  3  0  0  0  0  0  0
  1  9  2  0  0  0  0
  2  5  1  0  0  0  0
  2  3  1  0  0  0  0
  3  7  1  0  0  0  0
  4 11  1  0  0  0  0
  5 14  1  0  0  0  0
  6  1  1  0  0  0  0
  7  4  2  0  0  0  0
  8 23  1  6  0  0  0
  8 13  1  0  0  0  0
 10 18  1  0  0  0  0
 12  8  1  0  0  0  0
 12 16  1  0  0  0  0
 13 18  1  1  0  0  0
 13  2  1  0  0  0  0
 14  1  1  0  0  0  0
 15  4  1  0  0  0  0
 16 17  1  0  0  0  0
 16  5  2  0  0  0  0
 17  6  2  0  0  0  0
 18 19  1  0  0  0  0
 19  3  2  0  0  0  0
 19 20  1  0  0  0  0
 20 15  2  0  0  0  0
 22 23  1  0  0  0  0
 22 21  2  0  0  0  0
 24 31  2  0  0  0  0
 24 28  1  0  0  0  0
 25 30  1  0  0  0  0
 27 24  1  0  0  0  0
 28 25  2  0  0  0  0
 29 26  1  0  0  0  0
 29 30  2  0  0  0  0
 30 22  1  0  0  0  0
 31 29  1  0  0  0  0
M  END
>  <MODEL>
6

>  <REMARK>
 VINA RESULT:      -8.0      3.686      6.012
  Name = 
  2 active torsions:
  status: ('A' for Active; 'I' for Inactive)
    1  A    between atoms: C_9  and  C_22
    2  A    between atoms: C_15  and  N_23
                            x       y       z     vdW  Elec       q    Type
                         _______ _______ _______ _____ _____    ______ ____

>  <TORSDO>
F 2

$$$$
=
 OpenBabel11052417533D

 31 35  0  0  1  0  0  0  0  0999 V2000
  192.7660  170.2780  143.1580 C   0  0  0  0  0  0  0  0  0  0  0  0
  191.8340  173.4250  144.9540 N   0  0  0  0  0  0  0  0  0  0  0  0
  192.9960  174.1590  145.3290 C   0  0  0  0  0  0  0  0  0  0  0  0
  195.3050  174.6480  145.7680 C   0  0  0  0  0  0  0  0  0  0  0  0
  191.7920  172.2820  144.0860 C   0  0  0  0  0  0  0  0  0  0  0  0
  191.6660  170.1140  142.3730 N   0  0  0  0  0  0  0  0  0  0  0  0
  194.3230  173.7300  145.3550 C   0  0  0  0  0  3  0  0  0  0  0  0
  189.9210  174.4420  143.8000 C   0  0  2  0  0  3  0  0  0  0  0  0
  193.7090  169.4490  143.0990 O   0  0  0  0  0  0  0  0  0  0  0  0
  190.4930  176.6740  146.1830 C   0  0  0  0  0  1  0  0  0  0  0  0
  196.6040  174.2710  145.8110 F   0  0  0  0  0  0  0  0  0  0  0  0
  189.5070  173.0460  143.3170 C   0  0  0  0  0  2  0  0  0  0  0  0
  190.6800  174.3250  145.1250 C   0  0  2  0  0  3  0  0  0  0  0  0
  192.8490  171.3660  144.0290 C   0  0  0  0  0  2  0  0  0  0  0  0
  194.9410  175.9600  146.1380 C   0  0  0  0  0  3  0  0  0  0  0  0
  190.6740  172.1000  143.2550 C   0  0  0  0  0  0  0  0  0  0  0  0
  190.6280  170.9920  142.4070 C   0  0  0  0  0  3  0  0  0  0  0  0
  191.2490  175.6150  145.5360 N   0  0  0  0  0  0  0  0  0  0  0  0
  192.6490  175.4310  145.6790 C   0  0  0  0  0  0  0  0  0  0  0  0
  193.5970  176.3660  146.0950 C   0  0  0  0  0  3  0  0  0  0  0  0
  189.3930  176.8780  142.4260 O   0  0  0  0  0  0  0  0  0  0  0  0
  188.5230  176.4840  143.2490 C   0  0  0  0  0  0  0  0  0  0  0  0
  188.7360  175.2690  143.9760 N   0  0  0  0  0  2  0  0  0  0  0  0
  184.9720  178.7780  143.9980 C   0  0  0  0  0  0  0  0  0  0  0  0
  187.1050  177.8970  144.7170 C   0  0  0  0  0  3  0  0  0  0  0  0
  186.4070  176.8060  141.2410 O   0  0  0  0  0  1  0  0  0  0  0  0
  183.8030  179.5440  144.2630 N   0  0  0  0  0  1  0  0  0  0  0  0
  185.9560  178.6470  144.9780 C   0  0  0  0  0  3  0  0  0  0  0  0
  186.2840  177.4050  142.4890 C   0  0  0  0  0  0  0  0  0  0  0  0
  187.2860  177.2670  143.4760 C   0  0  0  0  0  0  0  0  0  0  0  0
  185.1360  178.1590  142.7580 C   0  0  0  0  0  3  0  0  0  0  0  0
  1 14  1  0  0  0  0
  2  3  1  0  0  0  0
  3  7  2  0  0  0  0
  3 19  1  0  0  0  0
  4 11  1  0  0  0  0
  4 15  2  0  0  0  0
  5  2  1  0  0  0  0
  6 17  2  0  0  0  0
  6  1  1  0  0  0  0
  7  4  1  0  0  0  0
  8 23  1  1  0  0  0
  8 13  1  0  0  0  0
  9  1  2  0  0  0  0
 12  8  1  0  0  0  0
 13  2  1  6  0  0  0
 13 18  1  0  0  0  0
 14  5  1  0  0  0  0
 16 12  1  0  0  0  0
 16  5  2  0  0  0  0
 17 16  1  0  0  0  0
 18 19  1  0  0  0  0
 18 10  1  0  0  0  0
 19 20  2  0  0  0  0
 20 15  1  0  0  0  0
 21 22  2  0  0  0  0
 22 30  1  0  0  0  0
 22 23  1  0  0  0  0
 24 27  1  0  0  0  0
 24 28  1  0  0  0  0
 25 28  2  0  0  0  0
 26 29  1  0  0  0  0
 29 31  1  0  0  0  0
 29 30  2  0  0  0  0
 30 25  1  0  0  0  0
 31 24  2  0  0  0  0
M  END
>  <MODEL>
7

>  <REMARK>
 VINA RESULT:      -7.6      3.440      8.336
  Name = 
  2 active torsions:
  status: ('A' for Active; 'I' for Inactive)
    1  A    between atoms: C_9  and  C_22
    2  A    between atoms: C_15  and  N_23
                            x       y       z     vdW  Elec       q    Type
                         _______ _______ _______ _____ _____    ______ ____

>  <TORSDO>
F 2

$$$$
=
 OpenBabel11052417533D

 31 35  0  0  1  0  0  0  0  0999 V2000
  195.2730  174.7550  145.6980 C   0  0  0  0  0  0  0  0  0  0  0  0
  192.0910  174.3930  143.7640 N   0  0  0  0  0  0  0  0  0  0  0  0
  191.9100  173.0490  143.3310 C   0  0  0  0  0  0  0  0  0  0  0  0
  192.4240  170.7590  142.8230 C   0  0  0  0  0  0  0  0  0  0  0  0
  193.0830  174.8630  144.6890 C   0  0  0  0  0  0  0  0  0  0  0  0
  194.9440  175.7960  146.5110 N   0  0  0  0  0  0  0  0  0  0  0  0
  192.8450  172.0130  143.3010 C   0  0  0  0  0  3  0  0  0  0  0  0
  190.3380  175.6810  144.9020 C   0  0  2  0  0  3  0  0  0  0  0  0
  196.4130  174.2300  145.7800 O   0  0  0  0  0  0  0  0  0  0  0  0
  188.6270  174.3410  142.4000 C   0  0  0  0  0  1  0  0  0  0  0  0
  193.3000  169.7290  142.7750 F   0  0  0  0  0  0  0  0  0  0  0  0
  191.4250  176.6090  145.4620 C   0  0  0  0  0  2  0  0  0  0  0  0
  190.8060  175.0860  143.5700 C   0  0  2  0  0  3  0  0  0  0  0  0
  194.3480  174.2700  144.7720 C   0  0  0  0  0  2  0  0  0  0  0  0
  191.0940  170.5710  142.3950 C   0  0  0  0  0  3  0  0  0  0  0  0
  192.7620  175.9270  145.5500 C   0  0  0  0  0  0  0  0  0  0  0  0
  193.7210  176.3870  146.4530 C   0  0  0  0  0  3  0  0  0  0  0  0
  189.8770  174.0580  143.0840 N   0  0  0  0  0  0  0  0  0  0  0  0
  190.6220  172.8610  142.9240 C   0  0  0  0  0  0  0  0  0  0  0  0
  190.1720  171.6310  142.4430 C   0  0  0  0  0  3  0  0  0  0  0  0
  188.1090  175.6760  146.6700 O   0  0  0  0  0  0  0  0  0  0  0  0
  188.0200  176.3950  145.6380 C   0  0  0  0  0  0  0  0  0  0  0  0
  189.1070  176.4330  144.7070 N   0  0  0  0  0  2  0  0  0  0  0  0
  184.4800  178.6710  144.7880 C   0  0  0  0  0  0  0  0  0  0  0  0
  186.1510  177.0480  144.1410 C   0  0  0  0  0  3  0  0  0  0  0  0
  186.8700  178.2890  147.5620 O   0  0  0  0  0  1  0  0  0  0  0  0
  183.3060  179.4160  144.4910 N   0  0  0  0  0  1  0  0  0  0  0  0
  184.9980  177.7800  143.8480 C   0  0  0  0  0  3  0  0  0  0  0  0
  186.2700  178.1010  146.3230 C   0  0  0  0  0  0  0  0  0  0  0  0
  186.8020  177.1960  145.3760 C   0  0  0  0  0  0  0  0  0  0  0  0
  185.1150  178.8300  146.0220 C   0  0  0  0  0  3  0  0  0  0  0  0
  1  9  2  0  0  0  0
  1  6  1  0  0  0  0
  2  5  1  0  0  0  0
  3  2  1  0  0  0  0
  4  7  2  0  0  0  0
  5 14  1  0  0  0  0
  5 16  2  0  0  0  0
  7  3  1  0  0  0  0
  8 23  1  6  0  0  0
  8 12  1  0  0  0  0
 10 18  1  0  0  0  0
 11  4  1  0  0  0  0
 12 16  1  0  0  0  0
 13 18  1  1  0  0  0
 13  2  1  0  0  0  0
 13  8  1  0  0  0  0
 14  1  1  0  0  0  0
 15 20  2  0  0  0  0
 15  4  1  0  0  0  0
 16 17  1  0  0  0  0
 17  6  2  0  0  0  0
 19 18  1  0  0  0  0
 19  3  2  0  0  0  0
 20 19  1  0  0  0  0
 22 21  2  0  0  0  0
 23 22  1  0  0  0  0
 24 31  1  0  0  0  0
 25 30  2  0  0  0  0
 27 24  1  0  0  0  0
 28 25  1  0  0  0  0
 28 24  2  0  0  0  0
 29 26  1  0  0  0  0
 30 22  1  0  0  0  0
 30 29  1  0  0  0  0
 31 29  2  0  0  0  0
M  END
>  <MODEL>
8

>  <REMARK>
 VINA RESULT:      -7.5      3.666      8.806
  Name = 
  2 active torsions:
  status: ('A' for Active; 'I' for Inactive)
    1  A    between atoms: C_9  and  C_22
    2  A    between atoms: C_15  and  N_23
                            x       y       z     vdW  Elec       q    Type
                         _______ _______ _______ _____ _____    ______ ____

>  <TORSDO>
F 2

$$$$
=
 OpenBabel11052417533D

 31 35  0  0  1  0  0  0  0  0999 V2000
  193.5670  172.6660  140.2880 C   0  0  0  0  0  0  0  0  0  0  0  0
  192.3550  174.0500  143.5460 N   0  0  0  0  0  0  0  0  0  0  0  0
  193.4430  174.5200  144.3350 C   0  0  0  0  0  0  0  0  0  0  0  0
  195.6990  174.8580  145.0850 C   0  0  0  0  0  0  0  0  0  0  0  0
  192.4130  173.6410  142.1710 C   0  0  0  0  0  0  0  0  0  0  0  0
  192.4770  172.9000  139.5070 N   0  0  0  0  0  0  0  0  0  0  0  0
  194.8070  174.2770  144.1650 C   0  0  0  0  0  3  0  0  0  0  0  0
  190.3340  175.3790  143.1240 C   0  0  2  0  0  3  0  0  0  0  0  0
  194.5860  172.1180  139.7970 O   0  0  0  0  0  0  0  0  0  0  0  0
  190.7170  175.8150  146.3870 C   0  0  0  0  0  1  0  0  0  0  0  0
  197.0300  174.6440  144.9580 F   0  0  0  0  0  0  0  0  0  0  0  0
  190.0530  174.5060  141.8930 C   0  0  0  0  0  2  0  0  0  0  0  0
  191.1210  174.5690  144.1600 C   0  0  2  0  0  3  0  0  0  0  0  0
  193.5540  173.0330  141.6360 C   0  0  0  0  0  2  0  0  0  0  0  0
  195.2130  175.6600  146.1380 C   0  0  0  0  0  3  0  0  0  0  0  0
  191.3070  173.8860  141.3410 C   0  0  0  0  0  0  0  0  0  0  0  0
  191.3580  173.4930  140.0030 C   0  0  0  0  0  3  0  0  0  0  0  0
  191.5650  175.4130  145.2770 N   0  0  0  0  0  0  0  0  0  0  0  0
  192.9780  175.3040  145.3490 C   0  0  0  0  0  0  0  0  0  0  0  0
  193.8350  175.8930  146.2800 C   0  0  0  0  0  3  0  0  0  0  0  0
  189.4520  178.0820  143.2230 O   0  0  0  0  0  0  0  0  0  0  0  0
  188.6830  177.2100  143.7110 C   0  0  0  0  0  0  0  0  0  0  0  0
  189.0760  175.8340  143.6970 N   0  0  0  0  0  2  0  0  0  0  0  0
  184.9400  178.2870  145.5180 C   0  0  0  0  0  0  0  0  0  0  0  0
  187.1180  177.2450  145.6370 C   0  0  0  0  0  3  0  0  0  0  0  0
  186.6020  178.6810  142.2560 O   0  0  0  0  0  1  0  0  0  0  0  0
  183.7060  178.6370  146.1320 N   0  0  0  0  0  1  0  0  0  0  0  0
  185.9060  177.5870  146.2410 C   0  0  0  0  0  3  0  0  0  0  0  0
  186.3970  178.3050  143.5790 C   0  0  0  0  0  0  0  0  0  0  0  0
  187.3820  177.5960  144.3040 C   0  0  0  0  0  0  0  0  0  0  0  0
  185.1860  178.6450  144.1910 C   0  0  0  0  0  3  0  0  0  0  0  0
  1 14  1  0  0  0  0
  2  3  1  0  0  0  0
  3 19  1  0  0  0  0
  4 15  2  0  0  0  0
  5  2  1  0  0  0  0
  6 17  2  0  0  0  0
  6  1  1  0  0  0  0
  7  3  2  0  0  0  0
  7  4  1  0  0  0  0
  8 23  1  1  0  0  0
  8 13  1  0  0  0  0
  9  1  2  0  0  0  0
 11  4  1  0  0  0  0
 12  8  1  0  0  0  0
 13  2  1  6  0  0  0
 13 18  1  0  0  0  0
 14  5  1  0  0  0  0
 15 20  1  0  0  0  0
 16 12  1  0  0  0  0
 16  5  2  0  0  0  0
 17 16  1  0  0  0  0
 18 19  1  0  0  0  0
 18 10  1  0  0  0  0
 19 20  2  0  0  0  0
 21 22  2  0  0  0  0
 22 30  1  0  0  0  0
 23 22  1  0  0  0  0
 24 27  1  0  0  0  0
 24 28  1  0  0  0  0
 25 28  2  0  0  0  0
 26 29  1  0  0  0  0
 29 31  1  0  0  0  0
 29 30  2  0  0  0  0
 30 25  1  0  0  0  0
 31 24  2  0  0  0  0
M  END
>  <MODEL>
9

>  <REMARK>
 VINA RESULT:      -7.4      3.615      8.117
  Name = 
  2 active torsions:
  status: ('A' for Active; 'I' for Inactive)
    1  A    between atoms: C_9  and  C_22
    2  A    between atoms: C_15  and  N_23
                            x       y       z     vdW  Elec       q    Type
                         _______ _______ _______ _____ _____    ______ ____

>  <TORSDO>
F 2

$$$$
