=
 OpenBabel11052419163D

 32 36  0  0  1  0  0  0  0  0999 V2000
  187.5810  176.6840  142.5890 C   0  0  1  0  0  3  0  0  0  0  0  0
  187.0290  177.2820  144.9890 C   0  0  1  0  0  3  0  0  0  0  0  0
  187.0580  176.3530  141.3330 O   0  0  0  0  0  0  0  0  0  0  0  0
  186.4410  176.9810  143.5900 C   0  0  1  0  0  3  0  0  0  0  0  0
  185.9170  177.5870  146.0010 C   0  0  1  0  0  3  0  0  0  0  0  0
  187.9450  176.1460  145.4780 C   0  0  1  0  0  3  0  0  0  0  0  0
  185.0940  178.7760  145.5170 C   0  0  1  0  0  3  0  0  0  0  0  0
  185.5520  178.1610  143.1230 C   0  0  1  0  0  3  0  0  0  0  0  0
  185.1020  176.4660  146.1970 O   0  0  0  0  0  1  0  0  0  0  0  0
  184.8330  177.8360  141.8170 C   0  0  0  0  0  2  0  0  0  0  0  0
  185.6710  178.1700  140.5820 C   0  0  0  0  0  2  0  0  0  0  0  0
  189.0580  175.8840  144.4610 C   0  0  0  0  0  2  0  0  0  0  0  0
  184.4740  178.4750  144.1590 C   0  0  0  0  0  2  0  0  0  0  0  0
  188.4770  175.5390  143.0980 C   0  0  2  0  0  3  0  0  0  0  0  0
  184.0900  179.0740  146.4390 O   0  0  0  0  0  1  0  0  0  0  0  0
  187.0670  177.5540  140.6200 C   0  0  0  0  0  2  0  0  0  0  0  0
  192.2080  175.3540  142.2150 C   0  0  0  0  0  0  0  0  0  0  0  0
  193.3280  176.0230  142.5870 F   0  0  0  0  0  0  0  0  0  0  0  0
  189.6260  175.1800  142.1410 C   0  0  2  0  0  3  0  0  0  0  0  0
  192.3190  174.1260  141.7060 C   0  0  0  0  0  3  0  0  0  0  0  0
  189.8960  173.6660  142.0950 C   0  0  0  0  0  2  0  0  0  0  0  0
  190.8840  175.9700  142.4180 C   0  0  0  0  0  0  0  0  0  0  0  0
  190.8070  177.1770  142.7730 O   0  0  0  0  0  0  0  0  0  0  0  0
  191.1210  173.3470  141.2340 C   0  0  1  0  0  3  0  0  0  0  0  0
  190.0880  172.5840  139.4290 C   0  0  0  0  0  1  0  0  0  0  0  0
  190.8560  173.6530  139.8950 O   0  0  0  0  0  0  0  0  0  0  0  0
  190.7020  177.0430  147.3310 N   0  0  0  0  0  0  0  0  0  0  0  0
  188.8670  174.1270  147.6230 O   0  0  0  0  0  0  0  0  0  0  0  0
  189.2990  175.2900  147.4110 C   0  0  0  0  0  0  0  0  0  0  0  0
  188.4980  176.4260  146.8890 C   0  0  1  0  0  3  0  0  0  0  0  0
  190.6290  175.6890  147.6690 N   0  0  0  0  0  2  0  0  0  0  0  0
  189.5630  177.4900  146.9010 C   0  0  0  0  0  3  0  0  0  0  0  0
  1  3  1  6  0  0  0
  1 14  1  0  0  0  0
  1  4  1  0  0  0  0
  2  6  1  0  0  0  0
  2  5  1  0  0  0  0
  4  2  1  0  0  0  0
  5  9  1  0  0  0  0
  6 30  1  0  0  0  0
  7  5  1  0  0  0  0
  7 15  1  0  0  0  0
  8  4  1  0  0  0  0
  8 13  1  0  0  0  0
 10  8  1  0  0  0  0
 11 16  1  0  0  0  0
 11 10  1  0  0  0  0
 12  6  1  0  0  0  0
 13  7  1  0  0  0  0
 14 12  1  0  0  0  0
 16  3  1  0  0  0  0
 17 22  1  0  0  0  0
 17 18  1  0  0  0  0
 19 22  1  0  0  0  0
 19 14  1  0  0  0  0
 20 17  2  0  0  0  0
 21 19  1  0  0  0  0
 22 23  2  0  0  0  0
 24 20  1  0  0  0  0
 24 21  1  0  0  0  0
 25 26  1  0  0  0  0
 26 24  1  0  0  0  0
 27 31  1  0  0  0  0
 29 28  2  0  0  0  0
 29 31  1  0  0  0  0
 30 32  1  0  0  0  0
 30 29  1  0  0  0  0
 32 27  2  0  0  0  0
M  END
>  <MODEL>
1

>  <REMARK>
 VINA RESULT:      -8.5      0.000      0.000
  Name = 
  3 active torsions:
  status: ('A' for Active; 'I' for Inactive)
    1  A    between atoms: C_10  and  C_28
    2  A    between atoms: O_15  and  C_26
    3  A    between atoms: C_16  and  C_27
                            x       y       z     vdW  Elec       q    Type
                         _______ _______ _______ _____ _____    ______ ____

>  <TORSDO>
F 3

$$$$
=
 OpenBabel11052419163D

 32 36  0  0  1  0  0  0  0  0999 V2000
  189.5390  176.2830  145.6690 C   0  0  1  0  0  3  0  0  0  0  0  0
  190.7880  174.6690  144.1660 C   0  0  1  0  0  3  0  0  0  0  0  0
  189.2140  176.6120  146.9920 O   0  0  0  0  0  0  0  0  0  0  0  0
  190.4880  175.0630  145.6320 C   0  0  1  0  0  3  0  0  0  0  0  0
  191.7340  173.4630  144.1010 C   0  0  1  0  0  3  0  0  0  0  0  0
  189.4960  174.4200  143.3690 C   0  0  1  0  0  3  0  0  0  0  0  0
  193.0350  173.7910  144.8270 C   0  0  1  0  0  3  0  0  0  0  0  0
  191.8120  175.3340  146.3900 C   0  0  1  0  0  3  0  0  0  0  0  0
  191.1300  172.3270  144.6520 O   0  0  0  0  0  1  0  0  0  0  0  0
  191.5660  175.5760  147.8770 C   0  0  0  0  0  2  0  0  0  0  0  0
  191.2540  177.0380  148.1940 C   0  0  0  0  0  2  0  0  0  0  0  0
  188.5860  175.6490  143.4310 C   0  0  0  0  0  2  0  0  0  0  0  0
  192.7570  174.1390  146.2830 C   0  0  0  0  0  2  0  0  0  0  0  0
  188.2510  176.0050  144.8710 C   0  0  2  0  0  3  0  0  0  0  0  0
  193.9100  172.7080  144.7580 O   0  0  0  0  0  1  0  0  0  0  0  0
  190.1260  177.6120  147.3400 C   0  0  0  0  0  2  0  0  0  0  0  0
  185.8960  178.4500  143.0810 C   0  0  0  0  0  0  0  0  0  0  0  0
  185.8030  178.9700  141.8320 F   0  0  0  0  0  0  0  0  0  0  0  0
  187.2530  177.1730  144.8800 C   0  0  2  0  0  3  0  0  0  0  0  0
  184.8130  178.4230  143.8600 C   0  0  0  0  0  3  0  0  0  0  0  0
  185.8640  176.7530  145.3890 C   0  0  0  0  0  2  0  0  0  0  0  0
  187.1750  177.8830  143.5470 C   0  0  0  0  0  0  0  0  0  0  0  0
  188.2150  178.0380  142.8520 O   0  0  0  0  0  0  0  0  0  0  0  0
  184.8580  177.9000  145.2710 C   0  0  1  0  0  3  0  0  0  0  0  0
  184.9090  178.4400  147.4180 C   0  0  0  0  0  1  0  0  0  0  0  0
  185.2070  178.9330  146.1470 O   0  0  0  0  0  0  0  0  0  0  0  0
  188.2870  174.2020  140.1540 N   0  0  0  0  0  0  0  0  0  0  0  0
  189.3840  171.5910  142.1390 O   0  0  0  0  0  0  0  0  0  0  0  0
  189.1510  172.6940  141.5780 C   0  0  0  0  0  0  0  0  0  0  0  0
  189.7940  173.9880  141.9190 C   0  0  1  0  0  3  0  0  0  0  0  0
  188.2420  172.8510  140.5080 N   0  0  0  0  0  2  0  0  0  0  0  0
  189.1200  174.8630  140.8960 C   0  0  0  0  0  3  0  0  0  0  0  0
  1  3  1  1  0  0  0
  2  4  1  0  0  0  0
  3 16  1  0  0  0  0
  4  1  1  0  0  0  0
  4  8  1  0  0  0  0
  5  2  1  0  0  0  0
  5  9  1  0  0  0  0
  5  7  1  0  0  0  0
  6 12  1  0  0  0  0
  6  2  1  0  0  0  0
  7 13  1  0  0  0  0
  8 10  1  0  0  0  0
 10 11  1  0  0  0  0
 12 14  1  0  0  0  0
 13  8  1  0  0  0  0
 14 19  1  0  0  0  0
 14  1  1  0  0  0  0
 15  7  1  0  0  0  0
 16 11  1  0  0  0  0
 17 22  1  0  0  0  0
 17 20  2  0  0  0  0
 18 17  1  0  0  0  0
 19 21  1  0  0  0  0
 20 24  1  0  0  0  0
 22 19  1  0  0  0  0
 23 22  2  0  0  0  0
 24 21  1  0  0  0  0
 24 26  1  0  0  0  0
 26 25  1  0  0  0  0
 27 31  1  0  0  0  0
 27 32  2  0  0  0  0
 29 30  1  0  0  0  0
 29 28  2  0  0  0  0
 30  6  1  0  0  0  0
 31 29  1  0  0  0  0
 32 30  1  0  0  0  0
M  END
>  <MODEL>
2

>  <REMARK>
 VINA RESULT:      -8.1      3.286      7.267
  Name = 
  3 active torsions:
  status: ('A' for Active; 'I' for Inactive)
    1  A    between atoms: C_10  and  C_28
    2  A    between atoms: O_15  and  C_26
    3  A    between atoms: C_16  and  C_27
                            x       y       z     vdW  Elec       q    Type
                         _______ _______ _______ _____ _____    ______ ____

>  <TORSDO>
F 3

$$$$
=
 OpenBabel11052419163D

 32 36  0  0  1  0  0  0  0  0999 V2000
  189.0350  175.0340  143.3190 C   0  0  1  0  0  3  0  0  0  0  0  0
  190.9060  174.0480  144.7150 C   0  0  1  0  0  3  0  0  0  0  0  0
  188.4960  175.1560  142.0310 O   0  0  0  0  0  0  0  0  0  0  0  0
  190.2820  174.1220  143.3010 C   0  0  1  0  0  3  0  0  0  0  0  0
  192.1440  173.1410  144.7250 C   0  0  1  0  0  3  0  0  0  0  0  0
  191.2240  175.4470  145.2690 C   0  0  1  0  0  3  0  0  0  0  0  0
  191.7600  171.7420  144.2540 C   0  0  1  0  0  3  0  0  0  0  0  0
  189.9510  172.6950  142.7920 C   0  0  1  0  0  3  0  0  0  0  0  0
  193.1580  173.6750  143.9220 O   0  0  0  0  0  1  0  0  0  0  0  0
  189.4760  172.7160  141.3420 C   0  0  0  0  0  2  0  0  0  0  0  0
  187.9710  172.9540  141.2160 C   0  0  0  0  0  2  0  0  0  0  0  0
  189.9650  176.3180  145.2710 C   0  0  0  0  0  2  0  0  0  0  0  0
  191.1840  171.7960  142.8450 C   0  0  0  0  0  2  0  0  0  0  0  0
  189.3820  176.4310  143.8710 C   0  0  2  0  0  3  0  0  0  0  0  0
  192.8740  170.9040  144.2760 O   0  0  0  0  0  1  0  0  0  0  0  0
  187.4910  174.1870  141.9790 C   0  0  0  0  0  2  0  0  0  0  0  0
  186.4570  178.2450  142.1730 C   0  0  0  0  0  0  0  0  0  0  0  0
  186.1530  178.6260  140.9080 F   0  0  0  0  0  0  0  0  0  0  0  0
  188.1870  177.3980  143.9030 C   0  0  2  0  0  3  0  0  0  0  0  0
  185.4740  178.0950  143.0640 C   0  0  0  0  0  3  0  0  0  0  0  0
  186.9550  176.7830  144.5860 C   0  0  0  0  0  2  0  0  0  0  0  0
  187.8560  177.9600  142.5390 C   0  0  0  0  0  0  0  0  0  0  0  0
  188.7800  178.2360  141.7270 O   0  0  0  0  0  0  0  0  0  0  0  0
  185.7460  177.7170  144.4950 C   0  0  1  0  0  3  0  0  0  0  0  0
  185.3550  178.6200  146.4790 C   0  0  0  0  0  1  0  0  0  0  0  0
  185.9740  178.8690  145.2530 O   0  0  0  0  0  0  0  0  0  0  0  0
  191.4320  176.8550  148.4030 N   0  0  0  0  0  0  0  0  0  0  0  0
  194.0120  176.4470  146.1370 O   0  0  0  0  0  0  0  0  0  0  0  0
  192.9590  176.3830  146.8240 C   0  0  0  0  0  0  0  0  0  0  0  0
  191.8830  175.3730  146.6610 C   0  0  1  0  0  3  0  0  0  0  0  0
  192.6610  177.2680  147.8830 N   0  0  0  0  0  2  0  0  0  0  0  0
  190.9680  175.8230  147.7690 C   0  0  0  0  0  3  0  0  0  0  0  0
  1  3  1  6  0  0  0
  1 14  1  0  0  0  0
  2  5  1  0  0  0  0
  2  6  1  0  0  0  0
  4  1  1  0  0  0  0
  4  2  1  0  0  0  0
  6 12  1  0  0  0  0
  6 30  1  0  0  0  0
  7 15  1  0  0  0  0
  7  5  1  0  0  0  0
  8 13  1  0  0  0  0
  8  4  1  0  0  0  0
  9  5  1  0  0  0  0
 10  8  1  0  0  0  0
 11 10  1  0  0  0  0
 11 16  1  0  0  0  0
 13  7  1  0  0  0  0
 14 19  1  0  0  0  0
 14 12  1  0  0  0  0
 16  3  1  0  0  0  0
 17 22  1  0  0  0  0
 17 20  2  0  0  0  0
 18 17  1  0  0  0  0
 19 21  1  0  0  0  0
 20 24  1  0  0  0  0
 22 19  1  0  0  0  0
 23 22  2  0  0  0  0
 24 21  1  0  0  0  0
 24 26  1  0  0  0  0
 26 25  1  0  0  0  0
 28 29  2  0  0  0  0
 29 31  1  0  0  0  0
 30 29  1  0  0  0  0
 30 32  1  0  0  0  0
 31 27  1  0  0  0  0
 32 27  2  0  0  0  0
M  END
>  <MODEL>
3

>  <REMARK>
 VINA RESULT:      -8.0      2.756      6.209
  Name = 
  3 active torsions:
  status: ('A' for Active; 'I' for Inactive)
    1  A    between atoms: C_10  and  C_28
    2  A    between atoms: O_15  and  C_26
    3  A    between atoms: C_16  and  C_27
                            x       y       z     vdW  Elec       q    Type
                         _______ _______ _______ _____ _____    ______ ____

>  <TORSDO>
F 3

$$$$
=
 OpenBabel11052419163D

 32 36  0  0  1  0  0  0  0  0999 V2000
  191.0150  175.4760  145.3600 C   0  0  1  0  0  3  0  0  0  0  0  0
  188.6730  175.6790  144.4120 C   0  0  1  0  0  3  0  0  0  0  0  0
  192.0240  176.1180  146.0900 O   0  0  0  0  0  0  0  0  0  0  0  0
  189.7570  176.3700  145.2740 C   0  0  1  0  0  3  0  0  0  0  0  0
  187.4100  176.5450  144.3150 C   0  0  1  0  0  3  0  0  0  0  0  0
  189.2100  175.3020  143.0200 C   0  0  1  0  0  3  0  0  0  0  0  0
  186.8650  176.8170  145.7140 C   0  0  1  0  0  3  0  0  0  0  0  0
  189.1860  176.7060  146.6750 C   0  0  1  0  0  3  0  0  0  0  0  0
  187.6790  177.7440  143.6450 O   0  0  0  0  0  1  0  0  0  0  0  0
  190.1750  177.5240  147.5000 C   0  0  0  0  0  2  0  0  0  0  0  0
  191.1650  176.6520  148.2730 C   0  0  0  0  0  2  0  0  0  0  0  0
  190.4520  174.4180  143.1500 C   0  0  0  0  0  2  0  0  0  0  0  0
  187.9080  177.5350  146.5590 C   0  0  0  0  0  2  0  0  0  0  0  0
  191.5350  175.1200  143.9550 C   0  0  2  0  0  3  0  0  0  0  0  0
  185.7060  177.5880  145.6380 O   0  0  0  0  0  1  0  0  0  0  0  0
  191.8810  175.6310  147.3910 C   0  0  0  0  0  2  0  0  0  0  0  0
  195.2190  174.5100  144.8440 C   0  0  0  0  0  0  0  0  0  0  0  0
  196.3060  175.2900  145.0680 F   0  0  0  0  0  0  0  0  0  0  0  0
  192.7980  174.2420  143.9660 C   0  0  2  0  0  3  0  0  0  0  0  0
  195.1910  173.2710  145.3390 C   0  0  0  0  0  3  0  0  0  0  0  0
  192.7200  173.1190  145.0140 C   0  0  0  0  0  2  0  0  0  0  0  0
  194.0680  175.0510  144.0980 C   0  0  0  0  0  0  0  0  0  0  0  0
  194.1680  176.1700  143.5250 O   0  0  0  0  0  0  0  0  0  0  0  0
  194.0350  172.3400  145.0910 C   0  0  1  0  0  3  0  0  0  0  0  0
  193.4460  170.4950  144.0160 C   0  0  0  0  0  1  0  0  0  0  0  0
  194.2430  171.6350  143.9010 O   0  0  0  0  0  0  0  0  0  0  0  0
  188.5550  173.1680  140.4010 N   0  0  0  0  0  0  0  0  0  0  0  0
  187.6850  176.5070  140.6220 O   0  0  0  0  0  0  0  0  0  0  0  0
  188.0020  175.3050  140.8190 C   0  0  0  0  0  0  0  0  0  0  0  0
  188.1200  174.6500  142.1460 C   0  0  1  0  0  3  0  0  0  0  0  0
  188.2710  174.3870  139.7800 N   0  0  0  0  0  2  0  0  0  0  0  0
  188.4840  173.2610  141.6920 C   0  0  0  0  0  3  0  0  0  0  0  0
  1  3  1  1  0  0  0
  2  4  1  0  0  0  0
  3 16  1  0  0  0  0
  4  1  1  0  0  0  0
  4  8  1  0  0  0  0
  5  2  1  0  0  0  0
  5  7  1  0  0  0  0
  6 12  1  0  0  0  0
  6  2  1  0  0  0  0
  7 13  1  0  0  0  0
  8 10  1  0  0  0  0
  9  5  1  0  0  0  0
 10 11  1  0  0  0  0
 12 14  1  0  0  0  0
 13  8  1  0  0  0  0
 14 19  1  0  0  0  0
 14  1  1  0  0  0  0
 15  7  1  0  0  0  0
 16 11  1  0  0  0  0
 17 18  1  0  0  0  0
 17 20  2  0  0  0  0
 19 22  1  0  0  0  0
 19 21  1  0  0  0  0
 21 24  1  0  0  0  0
 22 17  1  0  0  0  0
 23 22  2  0  0  0  0
 24 20  1  0  0  0  0
 26 25  1  0  0  0  0
 26 24  1  0  0  0  0
 27 32  2  0  0  0  0
 28 29  2  0  0  0  0
 29 30  1  0  0  0  0
 30  6  1  0  0  0  0
 31 27  1  0  0  0  0
 31 29  1  0  0  0  0
 32 30  1  0  0  0  0
M  END
>  <MODEL>
4

>  <REMARK>
 VINA RESULT:      -7.9      3.331      5.399
  Name = 
  3 active torsions:
  status: ('A' for Active; 'I' for Inactive)
    1  A    between atoms: C_10  and  C_28
    2  A    between atoms: O_15  and  C_26
    3  A    between atoms: C_16  and  C_27
                            x       y       z     vdW  Elec       q    Type
                         _______ _______ _______ _____ _____    ______ ____

>  <TORSDO>
F 3

$$$$
=
 OpenBabel11052419163D

 32 36  0  0  1  0  0  0  0  0999 V2000
  187.8420  176.0380  142.6200 C   0  0  1  0  0  3  0  0  0  0  0  0
  187.5650  177.1730  144.8680 C   0  0  1  0  0  3  0  0  0  0  0  0
  187.1940  175.6160  141.4510 O   0  0  0  0  0  0  0  0  0  0  0  0
  186.8530  176.7700  143.5550 C   0  0  1  0  0  3  0  0  0  0  0  0
  186.6050  177.9080  145.8130 C   0  0  1  0  0  3  0  0  0  0  0  0
  188.2200  175.9620  145.5550 C   0  0  1  0  0  3  0  0  0  0  0  0
  186.0520  179.1490  145.1200 C   0  0  1  0  0  3  0  0  0  0  0  0
  186.2340  178.0210  142.8810 C   0  0  1  0  0  3  0  0  0  0  0  0
  185.5670  177.0630  146.2220 O   0  0  0  0  0  1  0  0  0  0  0  0
  185.3950  177.6420  141.6640 C   0  0  0  0  0  2  0  0  0  0  0  0
  186.2220  177.5410  140.3830 C   0  0  0  0  0  2  0  0  0  0  0  0
  189.1900  175.2670  144.5970 C   0  0  0  0  0  2  0  0  0  0  0  0
  185.3120  178.7610  143.8470 C   0  0  0  0  0  2  0  0  0  0  0  0
  188.4770  174.8260  143.3280 C   0  0  2  0  0  3  0  0  0  0  0  0
  185.1920  179.8360  145.9760 O   0  0  0  0  0  1  0  0  0  0  0  0
  187.4410  176.6320  140.5250 C   0  0  0  0  0  2  0  0  0  0  0  0
  189.3560  172.9070  140.1220 C   0  0  0  0  0  0  0  0  0  0  0  0
  188.6640  172.2050  139.1910 F   0  0  0  0  0  0  0  0  0  0  0  0
  189.4630  174.0400  142.4470 C   0  0  2  0  0  3  0  0  0  0  0  0
  190.5490  173.4140  139.8050 C   0  0  0  0  0  3  0  0  0  0  0  0
  190.4980  174.9540  141.7690 C   0  0  0  0  0  2  0  0  0  0  0  0
  188.7660  173.1400  141.4530 C   0  0  0  0  0  0  0  0  0  0  0  0
  187.7040  172.5430  141.7770 O   0  0  0  0  0  0  0  0  0  0  0  0
  191.3860  174.1660  140.8040 C   0  0  1  0  0  3  0  0  0  0  0  0
  193.4270  173.9050  141.6250 C   0  0  0  0  0  1  0  0  0  0  0  0
  192.1890  173.2700  141.5180 O   0  0  0  0  0  0  0  0  0  0  0  0
  191.1910  176.6480  147.1490 N   0  0  0  0  0  0  0  0  0  0  0  0
  188.9260  174.1660  147.9640 O   0  0  0  0  0  0  0  0  0  0  0  0
  189.5290  175.1930  147.5550 C   0  0  0  0  0  0  0  0  0  0  0  0
  188.8940  176.3550  146.8840 C   0  0  1  0  0  3  0  0  0  0  0  0
  190.9190  175.3940  147.7010 N   0  0  0  0  0  2  0  0  0  0  0  0
  190.1170  177.2120  146.6910 C   0  0  0  0  0  3  0  0  0  0  0  0
  1  3  1  6  0  0  0
  1 14  1  0  0  0  0
  1  4  1  0  0  0  0
  2  6  1  0  0  0  0
  2  5  1  0  0  0  0
  4  2  1  0  0  0  0
  5  9  1  0  0  0  0
  6 30  1  0  0  0  0
  7  5  1  0  0  0  0
  7 15  1  0  0  0  0
  8  4  1  0  0  0  0
  8 13  1  0  0  0  0
 10  8  1  0  0  0  0
 11 16  1  0  0  0  0
 11 10  1  0  0  0  0
 12  6  1  0  0  0  0
 13  7  1  0  0  0  0
 14 12  1  0  0  0  0
 16  3  1  0  0  0  0
 17 22  1  0  0  0  0
 18 17  1  0  0  0  0
 19 14  1  0  0  0  0
 20 17  2  0  0  0  0
 20 24  1  0  0  0  0
 21 19  1  0  0  0  0
 22 23  2  0  0  0  0
 22 19  1  0  0  0  0
 24 26  1  0  0  0  0
 24 21  1  0  0  0  0
 26 25  1  0  0  0  0
 27 31  1  0  0  0  0
 29 31  1  0  0  0  0
 29 28  2  0  0  0  0
 30 29  1  0  0  0  0
 32 30  1  0  0  0  0
 32 27  2  0  0  0  0
M  END
>  <MODEL>
5

>  <REMARK>
 VINA RESULT:      -7.7      1.686      2.221
  Name = 
  3 active torsions:
  status: ('A' for Active; 'I' for Inactive)
    1  A    between atoms: C_10  and  C_28
    2  A    between atoms: O_15  and  C_26
    3  A    between atoms: C_16  and  C_27
                            x       y       z     vdW  Elec       q    Type
                         _______ _______ _______ _____ _____    ______ ____

>  <TORSDO>
F 3

$$$$
=
 OpenBabel11052419163D

 32 36  0  0  1  0  0  0  0  0999 V2000
  189.6600  175.0350  142.9110 C   0  0  1  0  0  3  0  0  0  0  0  0
  191.9450  174.1750  143.5900 C   0  0  1  0  0  3  0  0  0  0  0  0
  188.7460  175.1790  141.8590 O   0  0  0  0  0  0  0  0  0  0  0  0
  190.9170  174.2710  142.4370 C   0  0  1  0  0  3  0  0  0  0  0  0
  193.2010  173.4150  143.1460 C   0  0  1  0  0  3  0  0  0  0  0  0
  192.2930  175.5620  144.1570 C   0  0  1  0  0  3  0  0  0  0  0  0
  192.8160  172.0150  142.6770 C   0  0  1  0  0  3  0  0  0  0  0  0
  190.5710  172.8530  141.9150 C   0  0  1  0  0  3  0  0  0  0  0  0
  193.8730  174.1100  142.1340 O   0  0  0  0  0  1  0  0  0  0  0  0
  189.6780  172.9160  140.6790 C   0  0  0  0  0  2  0  0  0  0  0  0
  188.1910  172.9910  141.0280 C   0  0  0  0  0  2  0  0  0  0  0  0
  191.0230  176.2850  144.6150 C   0  0  0  0  0  2  0  0  0  0  0  0
  191.8360  172.0970  141.5140 C   0  0  0  0  0  2  0  0  0  0  0  0
  190.0340  176.4220  143.4680 C   0  0  2  0  0  3  0  0  0  0  0  0
  193.9530  171.3070  142.2880 O   0  0  0  0  0  1  0  0  0  0  0  0
  187.8610  174.1090  142.0130 C   0  0  0  0  0  2  0  0  0  0  0  0
  186.6580  178.1390  142.8480 C   0  0  0  0  0  0  0  0  0  0  0  0
  186.0160  178.6580  141.7720 F   0  0  0  0  0  0  0  0  0  0  0  0
  188.8260  177.2460  143.9440 C   0  0  2  0  0  3  0  0  0  0  0  0
  185.9490  177.7640  143.9140 C   0  0  0  0  0  3  0  0  0  0  0  0
  187.8540  176.4160  144.8000 C   0  0  0  0  0  2  0  0  0  0  0  0
  188.1200  177.9530  142.8110 C   0  0  0  0  0  0  0  0  0  0  0  0
  188.7840  178.4350  141.8540 O   0  0  0  0  0  0  0  0  0  0  0  0
  186.6030  177.2220  145.1560 C   0  0  1  0  0  3  0  0  0  0  0  0
  185.7350  178.6600  146.6000 C   0  0  0  0  0  1  0  0  0  0  0  0
  186.9410  178.2750  146.0110 O   0  0  0  0  0  0  0  0  0  0  0  0
  193.5400  177.0070  147.0210 N   0  0  0  0  0  0  0  0  0  0  0  0
  195.2610  176.4050  144.0830 O   0  0  0  0  0  0  0  0  0  0  0  0
  194.4730  176.4170  145.0640 C   0  0  0  0  0  0  0  0  0  0  0  0
  193.3480  175.4720  145.2780 C   0  0  1  0  0  3  0  0  0  0  0  0
  194.5660  177.3360  146.1320 N   0  0  0  0  0  2  0  0  0  0  0  0
  192.8480  175.9960  146.5980 C   0  0  0  0  0  3  0  0  0  0  0  0
  1  3  1  6  0  0  0
  1 14  1  0  0  0  0
  2  6  1  0  0  0  0
  3 16  1  0  0  0  0
  4  1  1  0  0  0  0
  4  2  1  0  0  0  0
  5  2  1  0  0  0  0
  6 12  1  0  0  0  0
  6 30  1  0  0  0  0
  7  5  1  0  0  0  0
  8  4  1  0  0  0  0
  9  5  1  0  0  0  0
 10 11  1  0  0  0  0
 10  8  1  0  0  0  0
 11 16  1  0  0  0  0
 13  8  1  0  0  0  0
 13  7  1  0  0  0  0
 14 19  1  0  0  0  0
 14 12  1  0  0  0  0
 15  7  1  0  0  0  0
 17 20  2  0  0  0  0
 18 17  1  0  0  0  0
 19 21  1  0  0  0  0
 20 24  1  0  0  0  0
 21 24  1  0  0  0  0
 22 17  1  0  0  0  0
 22 19  1  0  0  0  0
 23 22  2  0  0  0  0
 24 26  1  0  0  0  0
 26 25  1  0  0  0  0
 28 29  2  0  0  0  0
 29 30  1  0  0  0  0
 29 31  1  0  0  0  0
 30 32  1  0  0  0  0
 31 27  1  0  0  0  0
 32 27  2  0  0  0  0
M  END
>  <MODEL>
6

>  <REMARK>
 VINA RESULT:      -7.7      2.767      6.664
  Name = 
  3 active torsions:
  status: ('A' for Active; 'I' for Inactive)
    1  A    between atoms: C_10  and  C_28
    2  A    between atoms: O_15  and  C_26
    3  A    between atoms: C_16  and  C_27
                            x       y       z     vdW  Elec       q    Type
                         _______ _______ _______ _____ _____    ______ ____

>  <TORSDO>
F 3

$$$$
=
 OpenBabel11052419163D

 32 36  0  0  1  0  0  0  0  0999 V2000
  188.8370  176.3670  145.0430 C   0  0  1  0  0  3  0  0  0  0  0  0
  190.4300  174.7930  143.8580 C   0  0  1  0  0  3  0  0  0  0  0  0
  188.3320  176.7820  146.2830 O   0  0  0  0  0  0  0  0  0  0  0  0
  189.9270  175.2890  145.2340 C   0  0  1  0  0  3  0  0  0  0  0  0
  191.5200  173.7260  144.0200 C   0  0  1  0  0  3  0  0  0  0  0  0
  189.2720  174.2920  142.9770 C   0  0  1  0  0  3  0  0  0  0  0  0
  192.6850  174.2980  144.8220 C   0  0  1  0  0  3  0  0  0  0  0  0
  191.1190  175.8120  146.0770 C   0  0  1  0  0  3  0  0  0  0  0  0
  191.0060  172.5800  144.6390 O   0  0  0  0  0  1  0  0  0  0  0  0
  190.6850  176.1680  147.4970 C   0  0  0  0  0  2  0  0  0  0  0  0
  190.1620  177.6000  147.6140 C   0  0  0  0  0  2  0  0  0  0  0  0
  188.2160  175.3870  142.8120 C   0  0  0  0  0  2  0  0  0  0  0  0
  192.2100  174.7510  146.1970 C   0  0  0  0  0  2  0  0  0  0  0  0
  187.6870  175.8380  144.1650 C   0  0  2  0  0  3  0  0  0  0  0  0
  193.6900  173.3410  144.9610 O   0  0  0  0  0  1  0  0  0  0  0  0
  189.0700  177.9260  146.5980 C   0  0  0  0  0  2  0  0  0  0  0  0
  185.3280  178.5920  145.4230 C   0  0  0  0  0  0  0  0  0  0  0  0
  184.8100  178.9530  146.6230 F   0  0  0  0  0  0  0  0  0  0  0  0
  186.5560  176.8560  143.9460 C   0  0  2  0  0  3  0  0  0  0  0  0
  185.3970  179.4950  144.4420 C   0  0  0  0  0  3  0  0  0  0  0  0
  187.0290  178.0980  143.1710 C   0  0  0  0  0  2  0  0  0  0  0  0
  185.8480  177.2260  145.2290 C   0  0  0  0  0  0  0  0  0  0  0  0
  185.6520  176.3540  146.1170 O   0  0  0  0  0  0  0  0  0  0  0  0
  185.9190  179.1480  143.0750 C   0  0  1  0  0  3  0  0  0  0  0  0
  185.4800  178.3220  141.0670 C   0  0  0  0  0  1  0  0  0  0  0  0
  184.8760  178.6680  142.2770 O   0  0  0  0  0  0  0  0  0  0  0  0
  188.4490  173.5710  139.7140 N   0  0  0  0  0  0  0  0  0  0  0  0
  189.6670  171.3650  142.0820 O   0  0  0  0  0  0  0  0  0  0  0  0
  189.3500  172.3590  141.3770 C   0  0  0  0  0  0  0  0  0  0  0  0
  189.7760  173.7600  141.6210 C   0  0  1  0  0  3  0  0  0  0  0  0
  188.5470  172.2720  140.2190 N   0  0  0  0  0  2  0  0  0  0  0  0
  189.1040  174.4180  140.4450 C   0  0  0  0  0  3  0  0  0  0  0  0
  1  4  1  0  0  0  0
  1  3  1  1  0  0  0
  2  5  1  0  0  0  0
  2  4  1  0  0  0  0
  3 16  1  0  0  0  0
  4  8  1  0  0  0  0
  5  9  1  0  0  0  0
  5  7  1  0  0  0  0
  6  2  1  0  0  0  0
  7 15  1  0  0  0  0
  7 13  1  0  0  0  0
  8 13  1  0  0  0  0
  8 10  1  0  0  0  0
 10 11  1  0  0  0  0
 12  6  1  0  0  0  0
 12 14  1  0  0  0  0
 14  1  1  0  0  0  0
 16 11  1  0  0  0  0
 17 18  1  0  0  0  0
 19 14  1  0  0  0  0
 19 22  1  0  0  0  0
 20 17  2  0  0  0  0
 21 19  1  0  0  0  0
 22 17  1  0  0  0  0
 22 23  2  0  0  0  0
 24 21  1  0  0  0  0
 24 20  1  0  0  0  0
 25 26  1  0  0  0  0
 26 24  1  0  0  0  0
 27 31  1  0  0  0  0
 27 32  2  0  0  0  0
 29 30  1  0  0  0  0
 29 28  2  0  0  0  0
 30  6  1  0  0  0  0
 31 29  1  0  0  0  0
 32 30  1  0  0  0  0
M  END
>  <MODEL>
7

>  <REMARK>
 VINA RESULT:      -7.6      3.413      7.008
  Name = 
  3 active torsions:
  status: ('A' for Active; 'I' for Inactive)
    1  A    between atoms: C_10  and  C_28
    2  A    between atoms: O_15  and  C_26
    3  A    between atoms: C_16  and  C_27
                            x       y       z     vdW  Elec       q    Type
                         _______ _______ _______ _____ _____    ______ ____

>  <TORSDO>
F 3

$$$$
=
 OpenBabel11052419163D

 32 36  0  0  1  0  0  0  0  0999 V2000
  191.0240  176.0040  145.1890 C   0  0  1  0  0  3  0  0  0  0  0  0
  188.6030  175.9180  144.4450 C   0  0  1  0  0  3  0  0  0  0  0  0
  191.9870  176.7260  145.9070 O   0  0  0  0  0  0  0  0  0  0  0  0
  189.6430  176.6880  145.2940 C   0  0  1  0  0  3  0  0  0  0  0  0
  187.2200  176.5740  144.5380 C   0  0  1  0  0  3  0  0  0  0  0  0
  189.0630  175.7660  142.9850 C   0  0  1  0  0  3  0  0  0  0  0  0
  186.7690  176.6200  145.9940 C   0  0  1  0  0  3  0  0  0  0  0  0
  189.1560  176.7920  146.7620 C   0  0  1  0  0  3  0  0  0  0  0  0
  187.2420  177.8600  143.9840 O   0  0  0  0  0  1  0  0  0  0  0  0
  190.0810  177.6760  147.5960 C   0  0  0  0  0  2  0  0  0  0  0  0
  191.2570  176.9030  148.1930 C   0  0  0  0  0  2  0  0  0  0  0  0
  190.4320  175.0850  142.9250 C   0  0  0  0  0  2  0  0  0  0  0  0
  187.7630  177.4130  146.8330 C   0  0  0  0  0  2  0  0  0  0  0  0
  191.4640  175.8710  143.7190 C   0  0  2  0  0  3  0  0  0  0  0  0
  185.5040  177.1990  146.0890 O   0  0  0  0  0  1  0  0  0  0  0  0
  192.0380  176.1000  147.1550 C   0  0  0  0  0  2  0  0  0  0  0  0
  193.6870  172.8070  143.0850 C   0  0  0  0  0  0  0  0  0  0  0  0
  193.5700  171.4680  143.2680 F   0  0  0  0  0  0  0  0  0  0  0  0
  192.8410  175.2110  143.5410 C   0  0  2  0  0  3  0  0  0  0  0  0
  194.5600  173.2700  142.1880 C   0  0  0  0  0  3  0  0  0  0  0  0
  193.4600  175.5110  142.1650 C   0  0  0  0  0  2  0  0  0  0  0  0
  192.8210  173.7300  143.8410 C   0  0  0  0  0  0  0  0  0  0  0  0
  192.1020  173.2840  144.7750 O   0  0  0  0  0  0  0  0  0  0  0  0
  194.7690  174.7430  141.9670 C   0  0  1  0  0  3  0  0  0  0  0  0
  196.1990  176.4070  142.2740 C   0  0  0  0  0  1  0  0  0  0  0  0
  195.7420  175.2210  142.8510 O   0  0  0  0  0  0  0  0  0  0  0  0
  188.5260  173.5670  140.3930 N   0  0  0  0  0  0  0  0  0  0  0  0
  187.4380  176.8440  140.5910 O   0  0  0  0  0  0  0  0  0  0  0  0
  187.8360  175.6670  140.7960 C   0  0  0  0  0  0  0  0  0  0  0  0
  188.0100  175.0350  142.1280 C   0  0  1  0  0  3  0  0  0  0  0  0
  188.1560  174.7580  139.7640 N   0  0  0  0  0  2  0  0  0  0  0  0
  188.4610  173.6690  141.6840 C   0  0  0  0  0  3  0  0  0  0  0  0
  1  4  1  0  0  0  0
  1  3  1  1  0  0  0
  2  5  1  0  0  0  0
  2  4  1  0  0  0  0
  3 16  1  0  0  0  0
  4  8  1  0  0  0  0
  5  7  1  0  0  0  0
  6  2  1  0  0  0  0
  7 15  1  0  0  0  0
  7 13  1  0  0  0  0
  8 13  1  0  0  0  0
  8 10  1  0  0  0  0
  9  5  1  0  0  0  0
 10 11  1  0  0  0  0
 12  6  1  0  0  0  0
 12 14  1  0  0  0  0
 14  1  1  0  0  0  0
 16 11  1  0  0  0  0
 17 18  1  0  0  0  0
 17 22  1  0  0  0  0
 19 14  1  0  0  0  0
 19 22  1  0  0  0  0
 20 17  2  0  0  0  0
 21 19  1  0  0  0  0
 22 23  2  0  0  0  0
 24 21  1  0  0  0  0
 24 20  1  0  0  0  0
 24 26  1  0  0  0  0
 25 26  1  0  0  0  0
 27 32  2  0  0  0  0
 28 29  2  0  0  0  0
 29 30  1  0  0  0  0
 30  6  1  0  0  0  0
 31 27  1  0  0  0  0
 31 29  1  0  0  0  0
 32 30  1  0  0  0  0
M  END
>  <MODEL>
8

>  <REMARK>
 VINA RESULT:      -7.5      3.077      5.353
  Name = 
  3 active torsions:
  status: ('A' for Active; 'I' for Inactive)
    1  A    between atoms: C_10  and  C_28
    2  A    between atoms: O_15  and  C_26
    3  A    between atoms: C_16  and  C_27
                            x       y       z     vdW  Elec       q    Type
                         _______ _______ _______ _____ _____    ______ ____

>  <TORSDO>
F 3

$$$$
=
 OpenBabel11052419163D

 32 36  0  0  1  0  0  0  0  0999 V2000
  188.9490  174.8440  143.3520 C   0  0  1  0  0  3  0  0  0  0  0  0
  191.1500  174.2010  144.4310 C   0  0  1  0  0  3  0  0  0  0  0  0
  188.2730  175.0500  142.1420 O   0  0  0  0  0  0  0  0  0  0  0  0
  190.3940  174.3620  143.0900 C   0  0  1  0  0  3  0  0  0  0  0  0
  192.5870  173.7160  144.1990 C   0  0  1  0  0  3  0  0  0  0  0  0
  191.1160  175.4950  145.2610 C   0  0  1  0  0  3  0  0  0  0  0  0
  192.5660  172.3860  143.4520 C   0  0  1  0  0  3  0  0  0  0  0  0
  190.4270  173.0290  142.3000 C   0  0  1  0  0  3  0  0  0  0  0  0
  193.3270  174.6710  143.4920 O   0  0  0  0  0  1  0  0  0  0  0  0
  189.8250  173.1910  140.9070 C   0  0  0  0  0  2  0  0  0  0  0  0
  188.3080  172.9940  140.8920 C   0  0  0  0  0  2  0  0  0  0  0  0
  189.6700  175.9390  145.4980 C   0  0  0  0  0  2  0  0  0  0  0  0
  191.8620  172.5410  142.1110 C   0  0  0  0  0  2  0  0  0  0  0  0
  188.9430  176.1450  144.1770 C   0  0  2  0  0  3  0  0  0  0  0  0
  193.8670  171.9250  143.2520 O   0  0  0  0  0  1  0  0  0  0  0  0
  187.5800  173.8570  141.9190 C   0  0  0  0  0  2  0  0  0  0  0  0
  186.3870  177.8770  146.4570 C   0  0  0  0  0  0  0  0  0  0  0  0
  186.2270  178.0320  147.7950 F   0  0  0  0  0  0  0  0  0  0  0  0
  187.5350  176.6920  144.4620 C   0  0  2  0  0  3  0  0  0  0  0  0
  185.8050  178.7430  145.6250 C   0  0  0  0  0  3  0  0  0  0  0  0
  187.2650  178.0190  143.7330 C   0  0  0  0  0  2  0  0  0  0  0  0
  187.2340  176.7860  145.9400 C   0  0  0  0  0  0  0  0  0  0  0  0
  187.6630  175.9030  146.7310 O   0  0  0  0  0  0  0  0  0  0  0  0
  185.9070  178.6030  144.1300 C   0  0  1  0  0  3  0  0  0  0  0  0
  184.7450  178.1090  142.3100 C   0  0  0  0  0  1  0  0  0  0  0  0
  184.8780  177.7810  143.6600 O   0  0  0  0  0  0  0  0  0  0  0  0
  191.4220  176.5320  148.5290 N   0  0  0  0  0  0  0  0  0  0  0  0
  193.8160  176.7690  146.0450 O   0  0  0  0  0  0  0  0  0  0  0  0
  192.8480  176.4740  146.7930 C   0  0  0  0  0  0  0  0  0  0  0  0
  191.9030  175.3490  146.5790 C   0  0  1  0  0  3  0  0  0  0  0  0
  192.5340  177.1750  147.9780 N   0  0  0  0  0  2  0  0  0  0  0  0
  191.0420  175.5290  147.8000 C   0  0  0  0  0  3  0  0  0  0  0  0
  1  3  1  6  0  0  0
  1 14  1  0  0  0  0
  2  6  1  0  0  0  0
  4  1  1  0  0  0  0
  4  2  1  0  0  0  0
  5  2  1  0  0  0  0
  6 12  1  0  0  0  0
  6 30  1  0  0  0  0
  7  5  1  0  0  0  0
  8  4  1  0  0  0  0
  9  5  1  0  0  0  0
 10  8  1  0  0  0  0
 11 10  1  0  0  0  0
 11 16  1  0  0  0  0
 13  8  1  0  0  0  0
 13  7  1  0  0  0  0
 14 19  1  0  0  0  0
 14 12  1  0  0  0  0
 15  7  1  0  0  0  0
 16  3  1  0  0  0  0
 17 18  1  0  0  0  0
 19 22  1  0  0  0  0
 20 17  2  0  0  0  0
 21 24  1  0  0  0  0
 21 19  1  0  0  0  0
 22 17  1  0  0  0  0
 22 23  2  0  0  0  0
 24 20  1  0  0  0  0
 25 26  1  0  0  0  0
 26 24  1  0  0  0  0
 28 29  2  0  0  0  0
 29 31  1  0  0  0  0
 30 29  1  0  0  0  0
 30 32  1  0  0  0  0
 31 27  1  0  0  0  0
 32 27  2  0  0  0  0
M  END
>  <MODEL>
9

>  <REMARK>
 VINA RESULT:      -7.2      2.699      6.374
  Name = 
  3 active torsions:
  status: ('A' for Active; 'I' for Inactive)
    1  A    between atoms: C_10  and  C_28
    2  A    between atoms: O_15  and  C_26
    3  A    between atoms: C_16  and  C_27
                            x       y       z     vdW  Elec       q    Type
                         _______ _______ _______ _____ _____    ______ ____

>  <TORSDO>
F 3

$$$$
