=
 OpenBabel11052417403D

 31 34  0  0  1  0  0  0  0  0999 V2000
  190.8500  176.2660  147.2240 C   0  0  1  0  0  3  0  0  0  0  0  0
  188.5160  177.2820  144.3170 C   0  0  1  0  0  3  0  0  0  0  0  0
  187.0460  177.2830  144.7910 C   0  0  1  0  0  3  0  0  0  0  0  0
  185.6830  177.4790  146.8760 C   0  0  0  0  0  2  0  0  0  0  0  0
  189.3680  176.3770  145.2360 C   0  0  2  0  0  3  0  0  0  0  0  0
  192.3380  175.9260  146.2600 S   0  0  0  0  0  0  0  0  0  0  0  0
  186.9490  177.9400  146.1690 C   0  0  0  0  0  2  0  0  0  0  0  0
  188.5920  175.3720  142.6410 C   0  0  1  0  0  3  0  0  0  0  0  0
  191.2040  176.9300  148.3970 O   0  0  0  0  0  1  0  0  0  0  0  0
  186.2740  177.3770  142.4570 N   0  0  0  0  0  2  0  0  0  0  0  0
  184.5060  178.4340  146.6590 C   0  0  0  0  0  2  0  0  0  0  0  0
  189.8050  174.6980  143.2930 C   0  0  0  0  0  2  0  0  0  0  0  0
  188.6490  176.9000  142.8240 C   0  0  1  0  0  3  0  0  0  0  0  0
  189.9930  177.1740  146.3730 C   0  0  0  0  0  2  0  0  0  0  0  0
  184.3770  178.9890  145.2380 C   0  0  0  0  0  2  0  0  0  0  0  0
  190.3120  175.4290  144.5040 C   0  0  0  0  0  0  0  0  0  0  0  0
  191.4780  175.1050  144.9570 N   0  0  0  0  0  0  0  0  0  0  0  0
  187.6210  177.6530  141.9770 C   0  0  0  0  0  2  0  0  0  0  0  0
  186.1320  177.9940  143.7700 C   0  0  1  0  0  3  0  0  0  0  0  0
  184.6600  177.9440  144.1700 C   0  0  0  0  0  2  0  0  0  0  0  0
  188.5130  174.9520  141.1770 C   0  0  0  0  0  2  0  0  0  0  0  0
  189.6800  174.2630  140.7920 O   0  0  0  0  0  0  0  0  0  0  0  0
  188.0540  172.8330  140.1320 O   0  0  0  0  0  1  0  0  0  0  0  0
  189.3690  173.2340  139.8680 C   0  0  1  0  0  0  0  0  0  0  0  0
  188.0930  173.7170  137.8700 O   0  0  0  0  0  1  0  0  0  0  0  0
  189.3730  173.7720  138.4260 C   0  0  0  0  0  2  0  0  0  0  0  0
  190.2810  172.0170  140.0630 C   0  0  0  0  0  0  0  0  0  0  0  0
  190.3900  171.1490  139.0550 C   0  0  0  0  0  2  0  0  0  0  0  0
  190.9460  171.7230  141.3120 N   0  0  0  0  0  0  0  0  0  0  0  0
  192.3260  172.1070  141.5690 C   0  0  0  0  0  1  0  0  0  0  0  0
  190.2140  171.1260  142.4180 C   0  0  0  0  0  1  0  0  0  0  0  0
  1  9  1  1  0  0  0
  2  3  1  0  0  0  0
  2  5  1  0  0  0  0
  3  7  1  0  0  0  0
  5 14  1  0  0  0  0
  6  1  1  0  0  0  0
  7  4  1  0  0  0  0
  8 13  1  0  0  0  0
  8 12  1  0  0  0  0
 10 19  1  0  0  0  0
 11  4  1  0  0  0  0
 12 16  1  0  0  0  0
 13  2  1  0  0  0  0
 14  1  1  0  0  0  0
 15 11  1  0  0  0  0
 16 17  2  0  0  0  0
 16  5  1  0  0  0  0
 17  6  1  0  0  0  0
 18 10  1  0  0  0  0
 18 13  1  0  0  0  0
 19 20  1  0  0  0  0
 19  3  1  0  0  0  0
 20 15  1  0  0  0  0
 21  8  1  0  0  0  0
 22 21  1  0  0  0  0
 24 27  1  0  0  0  0
 24 23  1  0  0  0  0
 24 22  1  0  0  0  0
 25 26  1  0  0  0  0
 26 24  1  0  0  0  0
 27 29  1  0  0  0  0
 28 27  2  0  0  0  0
 29 30  1  0  0  0  0
 29 31  1  0  0  0  0
M  END
>  <MODEL>
1

>  <REMARK>
 VINA RESULT:      -7.5      0.000      0.000
  Name = 
  6 active torsions:
  status: ('A' for Active; 'I' for Inactive)
    1  A    between atoms: N_1  and  C_19
    2  A    between atoms: C_7  and  C_22
    3  A    between atoms: O_9  and  C_22
    4  A    between atoms: O_9  and  C_23
    5  A    between atoms: C_15  and  C_23
    6  A    between atoms: C_19  and  C_22
                            x       y       z     vdW  Elec       q    Type
                         _______ _______ _______ _____ _____    ______ ____

>  <TORSDO>
F 6

$$$$
=
 OpenBabel11052417403D

 31 34  0  0  1  0  0  0  0  0999 V2000
  190.9150  176.2610  147.3400 C   0  0  1  0  0  3  0  0  0  0  0  0
  188.5620  177.2800  144.4500 C   0  0  1  0  0  3  0  0  0  0  0  0
  187.0940  177.2650  144.9300 C   0  0  1  0  0  3  0  0  0  0  0  0
  185.7370  177.4310  147.0210 C   0  0  0  0  0  2  0  0  0  0  0  0
  189.4250  176.3760  145.3590 C   0  0  2  0  0  3  0  0  0  0  0  0
  192.4030  175.9420  146.3680 S   0  0  0  0  0  0  0  0  0  0  0  0
  186.9950  177.9090  146.3140 C   0  0  0  0  0  2  0  0  0  0  0  0
  188.6480  175.3840  142.7590 C   0  0  1  0  0  3  0  0  0  0  0  0
  191.2680  176.9190  148.5170 O   0  0  0  0  0  1  0  0  0  0  0  0
  186.3120  177.3700  142.6000 N   0  0  0  0  0  2  0  0  0  0  0  0
  184.5500  178.3770  146.8160 C   0  0  0  0  0  2  0  0  0  0  0  0
  189.8690  174.7170  143.4000 C   0  0  0  0  0  2  0  0  0  0  0  0
  188.6930  176.9120  142.9540 C   0  0  1  0  0  3  0  0  0  0  0  0
  190.0480  177.1680  146.5000 C   0  0  0  0  0  2  0  0  0  0  0  0
  184.4110  178.9420  145.4010 C   0  0  0  0  0  2  0  0  0  0  0  0
  190.3750  175.4420  144.6160 C   0  0  0  0  0  0  0  0  0  0  0  0
  191.5450  175.1250  145.0610 N   0  0  0  0  0  0  0  0  0  0  0  0
  187.6540  177.6630  142.1170 C   0  0  0  0  0  2  0  0  0  0  0  0
  186.1690  177.9760  143.9180 C   0  0  1  0  0  3  0  0  0  0  0  0
  184.6990  177.9090  144.3230 C   0  0  0  0  0  2  0  0  0  0  0  0
  188.5680  174.9760  141.2910 C   0  0  0  0  0  2  0  0  0  0  0  0
  189.6900  174.2090  140.9240 O   0  0  0  0  0  0  0  0  0  0  0  0
  188.0070  172.8540  140.2520 O   0  0  0  0  0  1  0  0  0  0  0  0
  189.3290  173.2190  139.9750 C   0  0  1  0  0  0  0  0  0  0  0  0
  188.1140  173.5390  137.9080 O   0  0  0  0  0  1  0  0  0  0  0  0
  189.3260  173.8010  138.5510 C   0  0  0  0  0  2  0  0  0  0  0  0
  190.2030  171.9670  140.1170 C   0  0  0  0  0  0  0  0  0  0  0  0
  190.6140  171.6270  141.3400 C   0  0  0  0  0  2  0  0  0  0  0  0
  190.6760  171.2040  138.9840 N   0  0  0  0  0  0  0  0  0  0  0  0
  192.0420  171.3040  138.4930 C   0  0  0  0  0  1  0  0  0  0  0  0
  189.8240  170.2060  138.3560 C   0  0  0  0  0  1  0  0  0  0  0  0
  1  9  1  1  0  0  0
  2  3  1  0  0  0  0
  2  5  1  0  0  0  0
  3  7  1  0  0  0  0
  5 14  1  0  0  0  0
  6  1  1  0  0  0  0
  7  4  1  0  0  0  0
  8 13  1  0  0  0  0
  8 12  1  0  0  0  0
 10 19  1  0  0  0  0
 11  4  1  0  0  0  0
 12 16  1  0  0  0  0
 13  2  1  0  0  0  0
 14  1  1  0  0  0  0
 15 11  1  0  0  0  0
 16 17  2  0  0  0  0
 16  5  1  0  0  0  0
 17  6  1  0  0  0  0
 18 10  1  0  0  0  0
 18 13  1  0  0  0  0
 19 20  1  0  0  0  0
 19  3  1  0  0  0  0
 20 15  1  0  0  0  0
 21  8  1  0  0  0  0
 22 21  1  0  0  0  0
 24 27  1  0  0  0  0
 24 23  1  0  0  0  0
 24 22  1  0  0  0  0
 25 26  1  0  0  0  0
 26 24  1  0  0  0  0
 27 28  2  0  0  0  0
 29 27  1  0  0  0  0
 30 29  1  0  0  0  0
 31 29  1  0  0  0  0
M  END
>  <MODEL>
2

>  <REMARK>
 VINA RESULT:      -7.4      0.643      1.129
  Name = 
  6 active torsions:
  status: ('A' for Active; 'I' for Inactive)
    1  A    between atoms: N_1  and  C_19
    2  A    between atoms: C_7  and  C_22
    3  A    between atoms: O_9  and  C_22
    4  A    between atoms: O_9  and  C_23
    5  A    between atoms: C_15  and  C_23
    6  A    between atoms: C_19  and  C_22
                            x       y       z     vdW  Elec       q    Type
                         _______ _______ _______ _____ _____    ______ ____

>  <TORSDO>
F 6

$$$$
=
 OpenBabel11052417403D

 31 34  0  0  1  0  0  0  0  0999 V2000
  188.8280  173.5380  140.2270 C   0  0  1  0  0  3  0  0  0  0  0  0
  188.6480  175.3200  143.6510 C   0  0  1  0  0  3  0  0  0  0  0  0
  187.6930  176.5310  143.5700 C   0  0  1  0  0  3  0  0  0  0  0  0
  185.7610  177.3900  142.2390 C   0  0  0  0  0  2  0  0  0  0  0  0
  189.1580  174.9540  142.2400 C   0  0  2  0  0  3  0  0  0  0  0  0
  190.2960  172.5320  140.5310 S   0  0  0  0  0  0  0  0  0  0  0  0
  186.4310  176.1440  142.7960 C   0  0  0  0  0  2  0  0  0  0  0  0
  190.9240  176.3880  144.0190 C   0  0  1  0  0  3  0  0  0  0  0  0
  187.8880  172.7810  139.5320 O   0  0  0  0  0  1  0  0  0  0  0  0
  188.5610  177.3810  145.7090 N   0  0  0  0  0  2  0  0  0  0  0  0
  184.6730  177.9390  143.1660 C   0  0  0  0  0  2  0  0  0  0  0  0
  191.5950  175.6230  142.8740 C   0  0  0  0  0  2  0  0  0  0  0  0
  189.8000  175.5490  144.6570 C   0  0  1  0  0  3  0  0  0  0  0  0
  188.2750  173.9000  141.5850 C   0  0  0  0  0  2  0  0  0  0  0  0
  185.0200  177.9130  144.6560 C   0  0  0  0  0  2  0  0  0  0  0  0
  190.6590  174.6970  142.1490 C   0  0  0  0  0  0  0  0  0  0  0  0
  191.1780  173.8150  141.3590 N   0  0  0  0  0  0  0  0  0  0  0  0
  189.2700  176.1360  145.9660 C   0  0  0  0  0  2  0  0  0  0  0  0
  187.3410  177.0590  144.9780 C   0  0  1  0  0  3  0  0  0  0  0  0
  186.4630  178.3060  144.9320 C   0  0  0  0  0  2  0  0  0  0  0  0
  191.9880  176.8160  145.0260 C   0  0  0  0  0  2  0  0  0  0  0  0
  193.2740  176.4580  144.5760 O   0  0  0  0  0  0  0  0  0  0  0  0
  194.2920  176.6800  146.5840 O   0  0  0  0  0  1  0  0  0  0  0  0
  193.9770  175.7530  145.5850 C   0  0  1  0  0  0  0  0  0  0  0  0
  192.9520  173.5670  145.4330 O   0  0  0  0  0  1  0  0  0  0  0  0
  193.0740  174.6970  146.2460 C   0  0  0  0  0  2  0  0  0  0  0  0
  195.2910  175.1740  145.0460 C   0  0  0  0  0  0  0  0  0  0  0  0
  196.0850  174.5260  145.9010 C   0  0  0  0  0  2  0  0  0  0  0  0
  195.7460  175.3820  143.6900 N   0  0  0  0  0  0  0  0  0  0  0  0
  196.6480  176.4650  143.3280 C   0  0  0  0  0  1  0  0  0  0  0  0
  195.4090  174.4300  142.6420 C   0  0  0  0  0  1  0  0  0  0  0  0
  1  9  1  6  0  0  0
  1  6  1  0  0  0  0
  1 14  1  0  0  0  0
  2 13  1  0  0  0  0
  3  2  1  0  0  0  0
  3 19  1  0  0  0  0
  4  7  1  0  0  0  0
  4 11  1  0  0  0  0
  5  2  1  0  0  0  0
  6 17  1  0  0  0  0
  7  3  1  0  0  0  0
  8 13  1  0  0  0  0
  8 21  1  0  0  0  0
 10 18  1  0  0  0  0
 11 15  1  0  0  0  0
 12  8  1  0  0  0  0
 13 18  1  0  0  0  0
 14  5  1  0  0  0  0
 15 20  1  0  0  0  0
 16  5  1  0  0  0  0
 16 12  1  0  0  0  0
 17 16  2  0  0  0  0
 19 10  1  0  0  0  0
 20 19  1  0  0  0  0
 22 21  1  0  0  0  0
 22 24  1  0  0  0  0
 24 26  1  0  0  0  0
 24 23  1  0  0  0  0
 25 26  1  0  0  0  0
 27 24  1  0  0  0  0
 27 28  2  0  0  0  0
 29 27  1  0  0  0  0
 30 29  1  0  0  0  0
 31 29  1  0  0  0  0
M  END
>  <MODEL>
3

>  <REMARK>
 VINA RESULT:      -7.1      3.146      5.824
  Name = 
  6 active torsions:
  status: ('A' for Active; 'I' for Inactive)
    1  A    between atoms: N_1  and  C_19
    2  A    between atoms: C_7  and  C_22
    3  A    between atoms: O_9  and  C_22
    4  A    between atoms: O_9  and  C_23
    5  A    between atoms: C_15  and  C_23
    6  A    between atoms: C_19  and  C_22
                            x       y       z     vdW  Elec       q    Type
                         _______ _______ _______ _____ _____    ______ ____

>  <TORSDO>
F 6

$$$$
=
 OpenBabel11052417403D

 31 34  0  0  1  0  0  0  0  0999 V2000
  191.1990  176.4680  147.7580 C   0  0  1  0  0  3  0  0  0  0  0  0
  188.9770  177.3410  144.7200 C   0  0  1  0  0  3  0  0  0  0  0  0
  187.4850  177.2310  145.1050 C   0  0  1  0  0  3  0  0  0  0  0  0
  185.9870  177.3040  147.1040 C   0  0  0  0  0  2  0  0  0  0  0  0
  189.8350  176.4920  145.6840 C   0  0  2  0  0  3  0  0  0  0  0  0
  192.7640  176.2480  146.8840 S   0  0  0  0  0  0  0  0  0  0  0  0
  187.2560  177.8640  146.4780 C   0  0  0  0  0  2  0  0  0  0  0  0
  189.2930  175.4600  143.0410 C   0  0  1  0  0  3  0  0  0  0  0  0
  191.4320  177.1450  148.9540 O   0  0  0  0  0  1  0  0  0  0  0  0
  186.8500  177.2920  142.7290 N   0  0  0  0  0  2  0  0  0  0  0  0
  184.7590  178.1730  146.8210 C   0  0  0  0  0  2  0  0  0  0  0  0
  190.5110  174.8700  143.7610 C   0  0  0  0  0  2  0  0  0  0  0  0
  189.2270  176.9870  143.2360 C   0  0  1  0  0  3  0  0  0  0  0  0
  190.3310  177.3200  146.8620 C   0  0  0  0  0  2  0  0  0  0  0  0
  184.6750  178.7310  145.3980 C   0  0  0  0  0  2  0  0  0  0  0  0
  190.8890  175.6230  145.0060 C   0  0  0  0  0  0  0  0  0  0  0  0
  192.0460  175.3810  145.5270 N   0  0  0  0  0  0  0  0  0  0  0  0
  188.1990  177.6710  142.3330 C   0  0  0  0  0  2  0  0  0  0  0  0
  186.5830  177.8830  144.0340 C   0  0  1  0  0  3  0  0  0  0  0  0
  185.0980  177.7210  144.3430 C   0  0  0  0  0  2  0  0  0  0  0  0
  189.3340  175.0510  141.5720 C   0  0  0  0  0  2  0  0  0  0  0  0
  189.0560  173.6780  141.4280 O   0  0  0  0  0  0  0  0  0  0  0  0
  191.1610  173.9450  140.6420 O   0  0  0  0  0  1  0  0  0  0  0  0
  190.1130  173.0240  140.7460 C   0  0  1  0  0  0  0  0  0  0  0  0
  189.6890  171.3820  142.4720 O   0  0  0  0  0  1  0  0  0  0  0  0
  190.6540  171.8460  141.5750 C   0  0  0  0  0  2  0  0  0  0  0  0
  189.6940  172.6230  139.3260 C   0  0  0  0  0  0  0  0  0  0  0  0
  189.6250  171.3220  139.0390 C   0  0  0  0  0  2  0  0  0  0  0  0
  189.4680  173.5840  138.2700 N   0  0  0  0  0  0  0  0  0  0  0  0
  190.4720  173.8820  137.2600 C   0  0  0  0  0  1  0  0  0  0  0  0
  188.1660  174.2110  138.1070 C   0  0  0  0  0  1  0  0  0  0  0  0
  1  9  1  1  0  0  0
  2  3  1  0  0  0  0
  2  5  1  0  0  0  0
  3  7  1  0  0  0  0
  5 14  1  0  0  0  0
  6  1  1  0  0  0  0
  7  4  1  0  0  0  0
  8 13  1  0  0  0  0
  8 12  1  0  0  0  0
 10 19  1  0  0  0  0
 11  4  1  0  0  0  0
 12 16  1  0  0  0  0
 13  2  1  0  0  0  0
 14  1  1  0  0  0  0
 15 11  1  0  0  0  0
 16 17  2  0  0  0  0
 16  5  1  0  0  0  0
 17  6  1  0  0  0  0
 18 10  1  0  0  0  0
 18 13  1  0  0  0  0
 19 20  1  0  0  0  0
 19  3  1  0  0  0  0
 20 15  1  0  0  0  0
 21  8  1  0  0  0  0
 22 21  1  0  0  0  0
 23 24  1  0  0  0  0
 24 22  1  0  0  0  0
 24 26  1  0  0  0  0
 26 25  1  0  0  0  0
 27 24  1  0  0  0  0
 28 27  2  0  0  0  0
 29 27  1  0  0  0  0
 30 29  1  0  0  0  0
 31 29  1  0  0  0  0
M  END
>  <MODEL>
4

>  <REMARK>
 VINA RESULT:      -7.0      1.282      2.137
  Name = 
  6 active torsions:
  status: ('A' for Active; 'I' for Inactive)
    1  A    between atoms: N_1  and  C_19
    2  A    between atoms: C_7  and  C_22
    3  A    between atoms: O_9  and  C_22
    4  A    between atoms: O_9  and  C_23
    5  A    between atoms: C_15  and  C_23
    6  A    between atoms: C_19  and  C_22
                            x       y       z     vdW  Elec       q    Type
                         _______ _______ _______ _____ _____    ______ ____

>  <TORSDO>
F 6

$$$$
=
 OpenBabel11052417403D

 31 34  0  0  1  0  0  0  0  0999 V2000
  185.2490  178.1260  140.9600 C   0  0  1  0  0  3  0  0  0  0  0  0
  187.2960  177.0410  144.0530 C   0  0  1  0  0  3  0  0  0  0  0  0
  186.8230  177.8180  145.3010 C   0  0  1  0  0  3  0  0  0  0  0  0
  184.8340  179.0470  146.1820 C   0  0  0  0  0  2  0  0  0  0  0  0
  186.9180  177.8180  142.7720 C   0  0  2  0  0  3  0  0  0  0  0  0
  186.3110  177.4210  139.6810 S   0  0  0  0  0  0  0  0  0  0  0  0
  185.2950  177.8770  145.3270 C   0  0  0  0  0  2  0  0  0  0  0  0
  189.6580  177.9010  143.6820 C   0  0  1  0  0  3  0  0  0  0  0  0
  183.9150  177.9150  140.6170 O   0  0  0  0  0  1  0  0  0  0  0  0
  188.8320  177.1020  146.5280 N   0  0  0  0  0  2  0  0  0  0  0  0
  184.5540  178.6430  147.6320 C   0  0  0  0  0  2  0  0  0  0  0  0
  189.4260  178.2360  142.2040 C   0  0  0  0  0  2  0  0  0  0  0  0
  188.8020  176.6950  144.1130 C   0  0  1  0  0  3  0  0  0  0  0  0
  185.5640  177.3760  142.2330 C   0  0  0  0  0  2  0  0  0  0  0  0
  185.5610  177.6620  148.2370 C   0  0  0  0  0  2  0  0  0  0  0  0
  188.0320  177.9240  141.7360 C   0  0  0  0  0  0  0  0  0  0  0  0
  187.8150  177.9100  140.4620 N   0  0  0  0  0  0  0  0  0  0  0  0
  189.1780  176.1430  145.4890 C   0  0  0  0  0  2  0  0  0  0  0  0
  187.3780  177.1840  146.5960 C   0  0  1  0  0  3  0  0  0  0  0  0
  186.9970  177.9750  147.8430 C   0  0  0  0  0  2  0  0  0  0  0  0
  191.1500  177.6830  143.9170 C   0  0  0  0  0  2  0  0  0  0  0  0
  191.7670  177.1710  142.7590 O   0  0  0  0  0  0  0  0  0  0  0  0
  193.7780  176.2620  142.2570 O   0  0  0  0  0  1  0  0  0  0  0  0
  192.6650  176.1260  143.0940 C   0  0  1  0  0  0  0  0  0  0  0  0
  194.5810  176.2640  144.5640 O   0  0  0  0  0  1  0  0  0  0  0  0
  193.1840  176.2890  144.5320 C   0  0  0  0  0  2  0  0  0  0  0  0
  192.0400  174.7500  142.8280 C   0  0  0  0  0  0  0  0  0  0  0  0
  191.0930  174.6640  141.8930 C   0  0  0  0  0  2  0  0  0  0  0  0
  192.3620  173.5750  143.6070 N   0  0  0  0  0  0  0  0  0  0  0  0
  193.6340  172.8810  143.4780 C   0  0  0  0  0  1  0  0  0  0  0  0
  191.4600  173.1070  144.6470 C   0  0  0  0  0  1  0  0  0  0  0  0
  1  9  1  6  0  0  0
  1 14  1  0  0  0  0
  2 13  1  0  0  0  0
  2  3  1  0  0  0  0
  3  7  1  0  0  0  0
  3 19  1  0  0  0  0
  4 11  1  0  0  0  0
  5  2  1  0  0  0  0
  6 17  1  0  0  0  0
  6  1  1  0  0  0  0
  7  4  1  0  0  0  0
  8 21  1  0  0  0  0
  8 13  1  0  0  0  0
 10 19  1  0  0  0  0
 11 15  1  0  0  0  0
 12  8  1  0  0  0  0
 13 18  1  0  0  0  0
 14  5  1  0  0  0  0
 16 12  1  0  0  0  0
 16  5  1  0  0  0  0
 17 16  2  0  0  0  0
 18 10  1  0  0  0  0
 19 20  1  0  0  0  0
 20 15  1  0  0  0  0
 22 24  1  0  0  0  0
 22 21  1  0  0  0  0
 23 24  1  0  0  0  0
 24 26  1  0  0  0  0
 26 25  1  0  0  0  0
 27 24  1  0  0  0  0
 27 29  1  0  0  0  0
 28 27  2  0  0  0  0
 29 31  1  0  0  0  0
 30 29  1  0  0  0  0
M  END
>  <MODEL>
5

>  <REMARK>
 VINA RESULT:      -7.0      3.311      5.184
  Name = 
  6 active torsions:
  status: ('A' for Active; 'I' for Inactive)
    1  A    between atoms: N_1  and  C_19
    2  A    between atoms: C_7  and  C_22
    3  A    between atoms: O_9  and  C_22
    4  A    between atoms: O_9  and  C_23
    5  A    between atoms: C_15  and  C_23
    6  A    between atoms: C_19  and  C_22
                            x       y       z     vdW  Elec       q    Type
                         _______ _______ _______ _____ _____    ______ ____

>  <TORSDO>
F 6

$$$$
=
 OpenBabel11052417403D

 31 34  0  0  1  0  0  0  0  0999 V2000
  192.9380  174.8450  145.3690 C   0  0  1  0  0  3  0  0  0  0  0  0
  189.7950  174.6750  143.1280 C   0  0  1  0  0  3  0  0  0  0  0  0
  190.2010  174.3960  141.6640 C   0  0  1  0  0  3  0  0  0  0  0  0
  192.0630  173.4040  140.3240 C   0  0  0  0  0  2  0  0  0  0  0  0
  190.9870  175.2850  143.9000 C   0  0  2  0  0  3  0  0  0  0  0  0
  192.1840  175.6070  146.8220 S   0  0  0  0  0  0  0  0  0  0  0  0
  191.2780  173.3100  141.6240 C   0  0  0  0  0  2  0  0  0  0  0  0
  188.8550  177.0350  143.0380 C   0  0  1  0  0  3  0  0  0  0  0  0
  193.8310  173.8570  145.7800 O   0  0  0  0  0  1  0  0  0  0  0  0
  187.9500  175.0260  140.9000 N   0  0  0  0  0  2  0  0  0  0  0  0
  191.5070  172.4850  139.2330 C   0  0  0  0  0  2  0  0  0  0  0  0
  189.7270  177.5470  144.1890 C   0  0  0  0  0  2  0  0  0  0  0  0
  188.5190  175.5430  143.2260 C   0  0  1  0  0  3  0  0  0  0  0  0
  191.8100  174.2080  144.5920 C   0  0  0  0  0  2  0  0  0  0  0  0
  189.9800  172.4290  139.1500 C   0  0  0  0  0  2  0  0  0  0  0  0
  190.6390  176.4970  144.7580 C   0  0  0  0  0  0  0  0  0  0  0  0
  191.2060  176.7440  145.8930 N   0  0  0  0  0  0  0  0  0  0  0  0
  187.4420  175.0360  142.2650 C   0  0  0  0  0  2  0  0  0  0  0  0
  188.9770  173.9960  140.8120 C   0  0  1  0  0  3  0  0  0  0  0  0
  189.3300  173.7910  139.3420 C   0  0  0  0  0  2  0  0  0  0  0  0
  187.6130  177.9120  142.9220 C   0  0  0  0  0  2  0  0  0  0  0  0
  187.2830  178.4780  144.1690 O   0  0  0  0  0  0  0  0  0  0  0  0
  185.4950  179.8480  143.9590 O   0  0  0  0  0  1  0  0  0  0  0  0
  185.8760  178.5530  144.3260 C   0  0  1  0  0  0  0  0  0  0  0  0
  184.0980  178.2430  142.7150 O   0  0  0  0  0  1  0  0  0  0  0  0
  185.1640  177.6010  143.3490 C   0  0  0  0  0  2  0  0  0  0  0  0
  185.4670  178.3370  145.7880 C   0  0  0  0  0  0  0  0  0  0  0  0
  184.2210  178.6580  146.1420 C   0  0  0  0  0  2  0  0  0  0  0  0
  186.3910  177.8960  146.8080 N   0  0  0  0  0  0  0  0  0  0  0  0
  186.6470  178.6690  148.0140 C   0  0  0  0  0  1  0  0  0  0  0  0
  187.0200  176.5870  146.7210 C   0  0  0  0  0  1  0  0  0  0  0  0
  1  9  1  1  0  0  0
  1  6  1  0  0  0  0
  2 13  1  0  0  0  0
  2  5  1  0  0  0  0
  3  2  1  0  0  0  0
  4  7  1  0  0  0  0
  5 14  1  0  0  0  0
  5 16  1  0  0  0  0
  7  3  1  0  0  0  0
  8 13  1  0  0  0  0
  8 12  1  0  0  0  0
 10 18  1  0  0  0  0
 11  4  1  0  0  0  0
 12 16  1  0  0  0  0
 14  1  1  0  0  0  0
 15 11  1  0  0  0  0
 15 20  1  0  0  0  0
 16 17  2  0  0  0  0
 17  6  1  0  0  0  0
 18 13  1  0  0  0  0
 19 10  1  0  0  0  0
 19  3  1  0  0  0  0
 20 19  1  0  0  0  0
 21  8  1  0  0  0  0
 21 22  1  0  0  0  0
 22 24  1  0  0  0  0
 23 24  1  0  0  0  0
 24 27  1  0  0  0  0
 25 26  1  0  0  0  0
 26 24  1  0  0  0  0
 27 28  2  0  0  0  0
 27 29  1  0  0  0  0
 29 30  1  0  0  0  0
 31 29  1  0  0  0  0
M  END
>  <MODEL>
6

>  <REMARK>
 VINA RESULT:      -7.0      2.804      6.806
  Name = 
  6 active torsions:
  status: ('A' for Active; 'I' for Inactive)
    1  A    between atoms: N_1  and  C_19
    2  A    between atoms: C_7  and  C_22
    3  A    between atoms: O_9  and  C_22
    4  A    between atoms: O_9  and  C_23
    5  A    between atoms: C_15  and  C_23
    6  A    between atoms: C_19  and  C_22
                            x       y       z     vdW  Elec       q    Type
                         _______ _______ _______ _____ _____    ______ ____

>  <TORSDO>
F 6

$$$$
=
 OpenBabel11052417403D

 31 34  0  0  1  0  0  0  0  0999 V2000
  190.3970  172.5060  140.4800 C   0  0  1  0  0  3  0  0  0  0  0  0
  190.8270  175.7650  142.5120 C   0  0  1  0  0  3  0  0  0  0  0  0
  191.3160  175.4390  143.9410 C   0  0  1  0  0  3  0  0  0  0  0  0
  192.5160  173.6590  145.2200 C   0  0  0  0  0  2  0  0  0  0  0  0
  190.1350  174.5290  141.8950 C   0  0  2  0  0  3  0  0  0  0  0  0
  189.4260  173.1760  139.1120 S   0  0  0  0  0  0  0  0  0  0  0  0
  192.4140  174.3750  143.8820 C   0  0  0  0  0  2  0  0  0  0  0  0
  188.4880  176.6860  142.8850 C   0  0  1  0  0  3  0  0  0  0  0  0
  191.3320  171.6020  139.9800 O   0  0  0  0  0  1  0  0  0  0  0  0
  190.7610  177.7220  144.6700 N   0  0  0  0  0  2  0  0  0  0  0  0
  193.5700  174.2800  146.1410 C   0  0  0  0  0  2  0  0  0  0  0  0
  187.8340  175.7500  141.8630 C   0  0  0  0  0  2  0  0  0  0  0  0
  189.9330  177.0260  142.4720 C   0  0  1  0  0  3  0  0  0  0  0  0
  191.1180  173.6800  141.1010 C   0  0  0  0  0  2  0  0  0  0  0  0
  193.6110  175.8100  146.1380 C   0  0  0  0  0  2  0  0  0  0  0  0
  188.8090  174.8190  141.1990 C   0  0  0  0  0  0  0  0  0  0  0  0
  188.4150  174.1910  140.1410 N   0  0  0  0  0  0  0  0  0  0  0  0
  190.5520  178.1560  143.2960 C   0  0  0  0  0  2  0  0  0  0  0  0
  191.8110  176.7100  144.6640 C   0  0  1  0  0  3  0  0  0  0  0  0
  192.2260  176.4370  146.1070 C   0  0  0  0  0  2  0  0  0  0  0  0
  187.6150  177.9250  143.0600 C   0  0  0  0  0  2  0  0  0  0  0  0
  187.2230  178.0730  144.4050 O   0  0  0  0  0  0  0  0  0  0  0  0
  185.7700  179.7810  144.0990 O   0  0  0  0  0  1  0  0  0  0  0  0
  185.8560  178.4400  144.4880 C   0  0  1  0  0  0  0  0  0  0  0  0
  184.2220  178.4990  142.7040 O   0  0  0  0  0  1  0  0  0  0  0  0
  185.0130  177.6440  143.4760 C   0  0  0  0  0  2  0  0  0  0  0  0
  185.3370  178.3310  145.9270 C   0  0  0  0  0  0  0  0  0  0  0  0
  184.0670  178.6660  146.1600 C   0  0  0  0  0  2  0  0  0  0  0  0
  186.1820  177.9760  147.0440 N   0  0  0  0  0  0  0  0  0  0  0  0
  186.6560  178.9610  148.0050 C   0  0  0  0  0  1  0  0  0  0  0  0
  186.4980  176.5830  147.3210 C   0  0  0  0  0  1  0  0  0  0  0  0
  1  9  1  6  0  0  0
  1 14  1  0  0  0  0
  2  3  1  0  0  0  0
  3 19  1  0  0  0  0
  4 11  1  0  0  0  0
  5  2  1  0  0  0  0
  6 17  1  0  0  0  0
  6  1  1  0  0  0  0
  7  3  1  0  0  0  0
  7  4  1  0  0  0  0
  8 21  1  0  0  0  0
 12  8  1  0  0  0  0
 13  2  1  0  0  0  0
 13  8  1  0  0  0  0
 13 18  1  0  0  0  0
 14  5  1  0  0  0  0
 15 11  1  0  0  0  0
 16 12  1  0  0  0  0
 16  5  1  0  0  0  0
 17 16  2  0  0  0  0
 18 10  1  0  0  0  0
 19 10  1  0  0  0  0
 19 20  1  0  0  0  0
 20 15  1  0  0  0  0
 21 22  1  0  0  0  0
 22 24  1  0  0  0  0
 23 24  1  0  0  0  0
 24 27  1  0  0  0  0
 25 26  1  0  0  0  0
 26 24  1  0  0  0  0
 27 28  2  0  0  0  0
 27 29  1  0  0  0  0
 29 31  1  0  0  0  0
 29 30  1  0  0  0  0
M  END
>  <MODEL>
7

>  <REMARK>
 VINA RESULT:      -6.9      3.282      7.275
  Name = 
  6 active torsions:
  status: ('A' for Active; 'I' for Inactive)
    1  A    between atoms: N_1  and  C_19
    2  A    between atoms: C_7  and  C_22
    3  A    between atoms: O_9  and  C_22
    4  A    between atoms: O_9  and  C_23
    5  A    between atoms: C_15  and  C_23
    6  A    between atoms: C_19  and  C_22
                            x       y       z     vdW  Elec       q    Type
                         _______ _______ _______ _____ _____    ______ ____

>  <TORSDO>
F 6

$$$$
=
 OpenBabel11052417403D

 31 34  0  0  1  0  0  0  0  0999 V2000
  188.8230  173.3470  140.0110 C   0  0  1  0  0  3  0  0  0  0  0  0
  188.9700  175.1390  143.4310 C   0  0  1  0  0  3  0  0  0  0  0  0
  188.0190  176.3570  143.4330 C   0  0  1  0  0  3  0  0  0  0  0  0
  185.9800  177.2270  142.2810 C   0  0  0  0  0  2  0  0  0  0  0  0
  189.3460  174.7650  141.9790 C   0  0  2  0  0  3  0  0  0  0  0  0
  190.3050  172.3300  140.1830 S   0  0  0  0  0  0  0  0  0  0  0  0
  186.6900  175.9780  142.7800 C   0  0  0  0  0  2  0  0  0  0  0  0
  191.2780  176.1920  143.5850 C   0  0  1  0  0  3  0  0  0  0  0  0
  187.8170  172.5940  139.4070 O   0  0  0  0  0  1  0  0  0  0  0  0
  189.0860  177.2080  145.4800 N   0  0  0  0  0  2  0  0  0  0  0  0
  184.9860  177.7870  143.3020 C   0  0  0  0  0  2  0  0  0  0  0  0
  191.8350  175.4190  142.3850 C   0  0  0  0  0  2  0  0  0  0  0  0
  190.2110  175.3630  144.3250 C   0  0  1  0  0  3  0  0  0  0  0  0
  188.3980  173.7170  141.4130 C   0  0  0  0  0  2  0  0  0  0  0  0
  185.4670  177.7630  144.7550 C   0  0  0  0  0  2  0  0  0  0  0  0
  190.8300  174.4970  141.7520 C   0  0  0  0  0  0  0  0  0  0  0  0
  191.2680  173.6100  140.9220 N   0  0  0  0  0  0  0  0  0  0  0  0
  189.8070  175.9580  145.6760 C   0  0  0  0  0  2  0  0  0  0  0  0
  187.8030  176.8930  144.8650 C   0  0  1  0  0  3  0  0  0  0  0  0
  186.9330  178.1460  144.8950 C   0  0  0  0  0  2  0  0  0  0  0  0
  192.4320  176.6150  144.4880 C   0  0  0  0  0  2  0  0  0  0  0  0
  193.6690  176.2500  143.9210 O   0  0  0  0  0  0  0  0  0  0  0  0
  195.7980  176.7100  144.5350 O   0  0  0  0  0  1  0  0  0  0  0  0
  194.6380  176.0360  144.9330 C   0  0  1  0  0  0  0  0  0  0  0  0
  194.8280  177.9160  146.4450 O   0  0  0  0  0  1  0  0  0  0  0  0
  194.1980  176.6830  146.2580 C   0  0  0  0  0  2  0  0  0  0  0  0
  194.9800  174.5470  145.0710 C   0  0  0  0  0  0  0  0  0  0  0  0
  196.0720  174.2190  145.7630 C   0  0  0  0  0  2  0  0  0  0  0  0
  194.2320  173.5030  144.4090 N   0  0  0  0  0  0  0  0  0  0  0  0
  193.0110  172.9440  144.9700 C   0  0  0  0  0  1  0  0  0  0  0  0
  194.6130  173.0460  143.0810 C   0  0  0  0  0  1  0  0  0  0  0  0
  1  9  1  1  0  0  0
  1  6  1  0  0  0  0
  1 14  1  0  0  0  0
  2  3  1  0  0  0  0
  2 13  1  0  0  0  0
  3 19  1  0  0  0  0
  4  7  1  0  0  0  0
  4 11  1  0  0  0  0
  5  2  1  0  0  0  0
  6 17  1  0  0  0  0
  7  3  1  0  0  0  0
  8 13  1  0  0  0  0
  8 21  1  0  0  0  0
 10 18  1  0  0  0  0
 11 15  1  0  0  0  0
 12  8  1  0  0  0  0
 13 18  1  0  0  0  0
 14  5  1  0  0  0  0
 15 20  1  0  0  0  0
 16  5  1  0  0  0  0
 16 12  1  0  0  0  0
 17 16  2  0  0  0  0
 19 20  1  0  0  0  0
 19 10  1  0  0  0  0
 22 21  1  0  0  0  0
 22 24  1  0  0  0  0
 23 24  1  0  0  0  0
 24 27  1  0  0  0  0
 24 26  1  0  0  0  0
 26 25  1  0  0  0  0
 27 28  2  0  0  0  0
 29 30  1  0  0  0  0
 29 27  1  0  0  0  0
 31 29  1  0  0  0  0
M  END
>  <MODEL>
8

>  <REMARK>
 VINA RESULT:      -6.9      3.123      5.915
  Name = 
  6 active torsions:
  status: ('A' for Active; 'I' for Inactive)
    1  A    between atoms: N_1  and  C_19
    2  A    between atoms: C_7  and  C_22
    3  A    between atoms: O_9  and  C_22
    4  A    between atoms: O_9  and  C_23
    5  A    between atoms: C_15  and  C_23
    6  A    between atoms: C_19  and  C_22
                            x       y       z     vdW  Elec       q    Type
                         _______ _______ _______ _____ _____    ______ ____

>  <TORSDO>
F 6

$$$$
=
 OpenBabel11052417403D

 31 34  0  0  1  0  0  0  0  0999 V2000
  185.2590  178.2590  140.9600 C   0  0  1  0  0  3  0  0  0  0  0  0
  187.1350  176.9370  144.0680 C   0  0  1  0  0  3  0  0  0  0  0  0
  186.6930  177.7160  145.3260 C   0  0  1  0  0  3  0  0  0  0  0  0
  184.7830  179.0740  146.1940 C   0  0  0  0  0  2  0  0  0  0  0  0
  186.8510  177.7750  142.8010 C   0  0  2  0  0  3  0  0  0  0  0  0
  186.2950  177.5060  139.6870 S   0  0  0  0  0  0  0  0  0  0  0  0
  185.1740  177.8940  145.3180 C   0  0  0  0  0  2  0  0  0  0  0  0
  189.5660  177.6190  143.7770 C   0  0  1  0  0  3  0  0  0  0  0  0
  183.9210  178.1620  140.5800 O   0  0  0  0  0  1  0  0  0  0  0  0
  188.6070  176.8130  146.5800 N   0  0  0  0  0  2  0  0  0  0  0  0
  184.4350  178.6560  147.6250 C   0  0  0  0  0  2  0  0  0  0  0  0
  189.3980  178.0090  142.3040 C   0  0  0  0  0  2  0  0  0  0  0  0
  188.6070  176.4730  144.1540 C   0  0  1  0  0  3  0  0  0  0  0  0
  185.4820  177.4540  142.2180 C   0  0  0  0  0  2  0  0  0  0  0  0
  185.3470  177.5830  148.2260 C   0  0  0  0  0  2  0  0  0  0  0  0
  187.9960  177.8200  141.7950 C   0  0  0  0  0  0  0  0  0  0  0  0
  187.8120  177.8550  140.5160 N   0  0  0  0  0  0  0  0  0  0  0  0
  188.9040  175.8570  145.5220 C   0  0  0  0  0  2  0  0  0  0  0  0
  187.1630  177.0070  146.6150 C   0  0  1  0  0  3  0  0  0  0  0  0
  186.8120  177.7920  147.8750 C   0  0  0  0  0  2  0  0  0  0  0  0
  191.0290  177.2780  144.0400 C   0  0  0  0  0  2  0  0  0  0  0  0
  191.6770  176.9030  142.8470 O   0  0  0  0  0  0  0  0  0  0  0  0
  192.0510  175.1860  144.2730 O   0  0  0  0  0  1  0  0  0  0  0  0
  192.4450  175.7280  143.0450 C   0  0  1  0  0  0  0  0  0  0  0  0
  190.7390  174.4100  141.9480 O   0  0  0  0  0  1  0  0  0  0  0  0
  192.1120  174.6700  141.9790 C   0  0  0  0  0  2  0  0  0  0  0  0
  193.9430  176.0500  143.1300 C   0  0  0  0  0  0  0  0  0  0  0  0
  194.6050  176.2460  141.9890 C   0  0  0  0  0  2  0  0  0  0  0  0
  194.6780  176.0560  144.3750 N   0  0  0  0  0  0  0  0  0  0  0  0
  194.5740  177.1440  145.3360 C   0  0  0  0  0  1  0  0  0  0  0  0
  195.4690  174.9010  144.7730 C   0  0  0  0  0  1  0  0  0  0  0  0
  1  9  1  6  0  0  0
  1 14  1  0  0  0  0
  2 13  1  0  0  0  0
  2  3  1  0  0  0  0
  3 19  1  0  0  0  0
  4 11  1  0  0  0  0
  5  2  1  0  0  0  0
  6 17  1  0  0  0  0
  6  1  1  0  0  0  0
  7  3  1  0  0  0  0
  7  4  1  0  0  0  0
  8 21  1  0  0  0  0
  8 13  1  0  0  0  0
 10 19  1  0  0  0  0
 11 15  1  0  0  0  0
 12  8  1  0  0  0  0
 13 18  1  0  0  0  0
 14  5  1  0  0  0  0
 16 12  1  0  0  0  0
 16  5  1  0  0  0  0
 17 16  2  0  0  0  0
 18 10  1  0  0  0  0
 19 20  1  0  0  0  0
 20 15  1  0  0  0  0
 22 24  1  0  0  0  0
 22 21  1  0  0  0  0
 24 27  1  0  0  0  0
 24 23  1  0  0  0  0
 25 26  1  0  0  0  0
 26 24  1  0  0  0  0
 27 29  1  0  0  0  0
 28 27  2  0  0  0  0
 29 31  1  0  0  0  0
 29 30  1  0  0  0  0
M  END
>  <MODEL>
9

>  <REMARK>
 VINA RESULT:      -6.9      3.320      5.288
  Name = 
  6 active torsions:
  status: ('A' for Active; 'I' for Inactive)
    1  A    between atoms: N_1  and  C_19
    2  A    between atoms: C_7  and  C_22
    3  A    between atoms: O_9  and  C_22
    4  A    between atoms: O_9  and  C_23
    5  A    between atoms: C_15  and  C_23
    6  A    between atoms: C_19  and  C_22
                            x       y       z     vdW  Elec       q    Type
                         _______ _______ _______ _____ _____    ______ ____

>  <TORSDO>
F 6

$$$$
