=
 OpenBabel11052417503D

 31 35  0  0  0  0  0  0  0  0999 V2000
  189.8450  172.1220  141.8840 C   0  0  0  0  0  0  0  0  0  0  0  0
  189.9100  175.5100  143.4800 C   0  0  0  0  0  0  0  0  0  0  0  0
  190.7280  175.3400  144.7240 C   0  0  0  0  0  0  0  0  0  0  0  0
  192.6370  174.3680  145.8850 C   0  0  0  0  0  0  0  0  0  0  0  0
  189.6580  174.4520  142.5710 C   0  0  0  0  0  0  0  0  0  0  0  0
  189.1020  172.3910  140.7330 C   0  0  0  0  0  3  0  0  0  0  0  0
  191.8030  174.4360  144.7670 C   0  0  0  0  0  3  0  0  0  0  0  0
  188.6080  176.9820  142.0290 C   0  0  0  0  0  0  0  0  0  0  0  0
  190.4360  170.5020  142.1850 Cl  0  0  0  0  0  0  0  0  0  0  0  0
  189.1720  177.3770  145.8330 S   0  0  0  0  0  0  0  0  0  0  0  0
  193.6630  173.4830  145.9100 F   0  0  0  0  0  0  0  0  0  0  0  0
  188.4000  175.9500  141.1750 N   0  0  0  0  0  0  0  0  0  0  0  0
  189.3570  176.7850  143.2020 C   0  0  0  0  0  0  0  0  0  0  0  0
  190.1170  173.1430  142.7960 C   0  0  0  0  0  3  0  0  0  0  0  0
  192.4280  175.2250  146.9650 C   0  0  0  0  0  3  0  0  0  0  0  0
  188.8940  174.7090  141.4080 C   0  0  0  0  0  0  0  0  0  0  0  0
  188.6260  173.6820  140.4970 C   0  0  0  0  0  3  0  0  0  0  0  0
  189.5860  177.9250  144.1540 C   0  0  0  0  0  2  0  0  0  0  0  0
  190.5190  176.1930  145.8310 C   0  0  0  0  0  0  0  0  0  0  0  0
  191.3740  176.1390  146.9350 C   0  0  0  0  0  3  0  0  0  0  0  0
  187.9840  178.3080  141.7140 C   0  0  0  0  0  2  0  0  0  0  0  0
  185.7100  178.2410  141.0370 O   0  0  0  0  0  0  0  0  0  0  0  0
  186.5150  178.2770  142.0050 C   0  0  0  0  0  0  0  0  0  0  0  0
  185.0730  178.3350  146.0500 C   0  0  0  0  0  0  0  0  0  0  0  0
  185.8280  179.4960  144.0690 C   0  0  0  0  0  3  0  0  0  0  0  0
  185.8870  175.8670  143.4880 F   0  0  0  0  0  0  0  0  0  0  0  0
  184.6100  178.3640  147.3580 O   0  0  0  0  0  1  0  0  0  0  0  0
  185.3610  179.5270  145.3850 C   0  0  0  0  0  3  0  0  0  0  0  0
  185.7180  177.0750  144.0810 C   0  0  0  0  0  0  0  0  0  0  0  0
  186.0160  178.2750  143.4010 C   0  0  0  0  0  0  0  0  0  0  0  0
  185.2520  177.1120  145.3990 C   0  0  0  0  0  3  0  0  0  0  0  0
  1  9  1  0  0  0  0
  1 14  1  0  0  0  0
  2  3  1  0  0  0  0
  3  7  2  0  0  0  0
  3 19  1  0  0  0  0
  4 11  1  0  0  0  0
  4 15  2  0  0  0  0
  5 14  2  0  0  0  0
  5  2  1  0  0  0  0
  6  1  2  0  0  0  0
  7  4  1  0  0  0  0
  8 13  1  0  0  0  0
 12 16  1  0  0  0  0
 12  8  2  0  0  0  0
 13  2  2  0  0  0  0
 13 18  1  0  0  0  0
 16  5  1  0  0  0  0
 17  6  1  0  0  0  0
 17 16  2  0  0  0  0
 18 10  1  0  0  0  0
 19 10  1  0  0  0  0
 19 20  2  0  0  0  0
 20 15  1  0  0  0  0
 21 23  1  0  0  0  0
 21  8  1  0  0  0  0
 22 23  2  0  0  0  0
 23 30  1  0  0  0  0
 24 27  1  0  0  0  0
 25 28  1  0  0  0  0
 26 29  1  0  0  0  0
 28 24  2  0  0  0  0
 29 31  2  0  0  0  0
 30 25  2  0  0  0  0
 30 29  1  0  0  0  0
 31 24  1  0  0  0  0
M  END
>  <MODEL>
1

>  <REMARK>
 VINA RESULT:      -8.8      0.000      0.000
  Name = 
  3 active torsions:
  status: ('A' for Active; 'I' for Inactive)
    1  A    between atoms: C_9  and  C_22
    2  A    between atoms: C_9  and  C_23
    3  A    between atoms: C_15  and  C_23
                            x       y       z     vdW  Elec       q    Type
                         _______ _______ _______ _____ _____    ______ ____

>  <TORSDO>
F 3

$$$$
=
 OpenBabel11052417503D

 31 35  0  0  0  0  0  0  0  0999 V2000
  185.4200  178.1270  146.4320 C   0  0  0  0  0  0  0  0  0  0  0  0
  188.1130  177.2410  143.9830 C   0  0  0  0  0  0  0  0  0  0  0  0
  187.4330  177.2140  142.6480 C   0  0  0  0  0  0  0  0  0  0  0  0
  185.8200  178.1420  141.0760 C   0  0  0  0  0  0  0  0  0  0  0  0
  187.4370  177.5590  145.1880 C   0  0  0  0  0  0  0  0  0  0  0  0
  186.1520  178.1620  147.6210 C   0  0  0  0  0  3  0  0  0  0  0  0
  186.3710  178.0860  142.3570 C   0  0  0  0  0  3  0  0  0  0  0  0
  190.1650  176.9710  145.2810 C   0  0  0  0  0  0  0  0  0  0  0  0
  183.7020  178.4620  146.4510 Cl  0  0  0  0  0  0  0  0  0  0  0  0
  189.3100  175.2810  141.9120 S   0  0  0  0  0  0  0  0  0  0  0  0
  184.7900  178.9840  140.8190 F   0  0  0  0  0  0  0  0  0  0  0  0
  189.4890  177.2940  146.4110 N   0  0  0  0  0  0  0  0  0  0  0  0
  189.4940  176.9280  144.0470 C   0  0  0  0  0  0  0  0  0  0  0  0
  186.0570  177.8250  145.2270 C   0  0  0  0  0  3  0  0  0  0  0  0
  186.3440  177.3500  140.0550 C   0  0  0  0  0  3  0  0  0  0  0  0
  188.1640  177.5830  146.4010 C   0  0  0  0  0  0  0  0  0  0  0  0
  187.5200  177.8890  147.6050 C   0  0  0  0  0  3  0  0  0  0  0  0
  190.2390  176.5660  142.7920 C   0  0  0  0  0  2  0  0  0  0  0  0
  187.9460  176.4060  141.6090 C   0  0  0  0  0  0  0  0  0  0  0  0
  187.4100  176.4870  140.3210 C   0  0  0  0  0  3  0  0  0  0  0  0
  191.6180  176.6200  145.3920 C   0  0  0  0  0  2  0  0  0  0  0  0
  192.2650  175.0230  147.0260 O   0  0  0  0  0  0  0  0  0  0  0  0
  191.7800  175.2130  145.8790 C   0  0  0  0  0  0  0  0  0  0  0  0
  190.6400  171.8930  143.4050 C   0  0  0  0  0  0  0  0  0  0  0  0
  192.2230  173.6130  144.0180 C   0  0  0  0  0  3  0  0  0  0  0  0
  189.2670  173.8030  146.1940 F   0  0  0  0  0  0  0  0  0  0  0  0
  190.2790  170.8220  142.5980 O   0  0  0  0  0  1  0  0  0  0  0  0
  191.8620  172.5350  143.2060 C   0  0  0  0  0  3  0  0  0  0  0  0
  190.1350  173.4050  145.2310 C   0  0  0  0  0  0  0  0  0  0  0  0
  191.3680  174.0650  145.0370 C   0  0  0  0  0  0  0  0  0  0  0  0
  189.7790  172.3270  144.4150 C   0  0  0  0  0  3  0  0  0  0  0  0
  1  9  1  0  0  0  0
  1  6  1  0  0  0  0
  2 13  2  0  0  0  0
  2  5  1  0  0  0  0
  3  2  1  0  0  0  0
  4  7  2  0  0  0  0
  5 14  1  0  0  0  0
  5 16  2  0  0  0  0
  7  3  1  0  0  0  0
  8 21  1  0  0  0  0
  8 12  2  0  0  0  0
 10 18  1  0  0  0  0
 11  4  1  0  0  0  0
 13  8  1  0  0  0  0
 14  1  2  0  0  0  0
 15 20  2  0  0  0  0
 15  4  1  0  0  0  0
 16 12  1  0  0  0  0
 16 17  1  0  0  0  0
 17  6  2  0  0  0  0
 18 13  1  0  0  0  0
 19 10  1  0  0  0  0
 19  3  2  0  0  0  0
 20 19  1  0  0  0  0
 21 23  1  0  0  0  0
 23 22  2  0  0  0  0
 24 31  1  0  0  0  0
 25 30  2  0  0  0  0
 27 24  1  0  0  0  0
 28 24  2  0  0  0  0
 28 25  1  0  0  0  0
 29 26  1  0  0  0  0
 30 29  1  0  0  0  0
 30 23  1  0  0  0  0
 31 29  2  0  0  0  0
M  END
>  <MODEL>
2

>  <REMARK>
 VINA RESULT:      -8.4      3.703      7.361
  Name = 
  3 active torsions:
  status: ('A' for Active; 'I' for Inactive)
    1  A    between atoms: C_9  and  C_22
    2  A    between atoms: C_9  and  C_23
    3  A    between atoms: C_15  and  C_23
                            x       y       z     vdW  Elec       q    Type
                         _______ _______ _______ _____ _____    ______ ____

>  <TORSDO>
F 3

$$$$
=
 OpenBabel11052417503D

 31 35  0  0  0  0  0  0  0  0999 V2000
  186.6640  177.1430  141.2040 C   0  0  0  0  0  0  0  0  0  0  0  0
  187.7820  176.3270  144.6860 C   0  0  0  0  0  0  0  0  0  0  0  0
  187.0460  177.2890  145.5670 C   0  0  0  0  0  0  0  0  0  0  0  0
  185.0200  178.5200  146.1280 C   0  0  0  0  0  0  0  0  0  0  0  0
  187.6220  176.2920  143.2770 C   0  0  0  0  0  0  0  0  0  0  0  0
  187.3670  176.1830  140.4750 C   0  0  0  0  0  3  0  0  0  0  0  0
  185.7480  177.7210  145.2460 C   0  0  0  0  0  3  0  0  0  0  0  0
  189.3690  174.4810  144.4860 C   0  0  0  0  0  0  0  0  0  0  0  0
  185.6190  178.2790  140.3790 Cl  0  0  0  0  0  0  0  0  0  0  0  0
  189.2400  177.1390  147.2890 S   0  0  0  0  0  0  0  0  0  0  0  0
  183.7730  178.9340  145.7960 F   0  0  0  0  0  0  0  0  0  0  0  0
  189.1790  174.4670  143.1430 N   0  0  0  0  0  0  0  0  0  0  0  0
  188.6850  175.4130  145.2840 C   0  0  0  0  0  0  0  0  0  0  0  0
  186.7930  177.1990  142.5930 C   0  0  0  0  0  3  0  0  0  0  0  0
  185.5650  178.8750  147.3620 C   0  0  0  0  0  3  0  0  0  0  0  0
  188.3400  175.3340  142.5240 C   0  0  0  0  0  0  0  0  0  0  0  0
  188.2040  175.2820  141.1330 C   0  0  0  0  0  3  0  0  0  0  0  0
  188.8950  175.4340  146.7730 C   0  0  0  0  0  2  0  0  0  0  0  0
  187.5930  177.6670  146.8140 C   0  0  0  0  0  0  0  0  0  0  0  0
  186.8480  178.4440  147.7060 C   0  0  0  0  0  3  0  0  0  0  0  0
  190.3520  173.5170  145.0790 C   0  0  0  0  0  2  0  0  0  0  0  0
  192.0910  172.8790  143.5950 O   0  0  0  0  0  0  0  0  0  0  0  0
  191.7040  173.7050  144.4640 C   0  0  0  0  0  0  0  0  0  0  0  0
  194.2240  176.9730  145.6540 C   0  0  0  0  0  0  0  0  0  0  0  0
  193.3830  174.7330  145.9950 C   0  0  0  0  0  3  0  0  0  0  0  0
  191.8260  176.2100  143.0110 F   0  0  0  0  0  0  0  0  0  0  0  0
  195.0400  178.0240  146.0480 O   0  0  0  0  0  1  0  0  0  0  0  0
  194.2050  175.7900  146.3920 C   0  0  0  0  0  3  0  0  0  0  0  0
  192.5970  176.0440  144.1140 C   0  0  0  0  0  0  0  0  0  0  0  0
  192.5680  174.8440  144.8570 C   0  0  0  0  0  0  0  0  0  0  0  0
  193.4220  177.0990  144.5180 C   0  0  0  0  0  3  0  0  0  0  0  0
  1 14  1  0  0  0  0
  2 13  2  0  0  0  0
  2  3  1  0  0  0  0
  3 19  1  0  0  0  0
  4 15  2  0  0  0  0
  5  2  1  0  0  0  0
  6 17  1  0  0  0  0
  6  1  2  0  0  0  0
  7  3  2  0  0  0  0
  7  4  1  0  0  0  0
  8 21  1  0  0  0  0
  8 13  1  0  0  0  0
  9  1  1  0  0  0  0
 11  4  1  0  0  0  0
 12  8  2  0  0  0  0
 13 18  1  0  0  0  0
 14  5  2  0  0  0  0
 15 20  1  0  0  0  0
 16 12  1  0  0  0  0
 16  5  1  0  0  0  0
 17 16  2  0  0  0  0
 18 10  1  0  0  0  0
 19 10  1  0  0  0  0
 19 20  2  0  0  0  0
 22 23  2  0  0  0  0
 23 30  1  0  0  0  0
 23 21  1  0  0  0  0
 24 27  1  0  0  0  0
 24 28  1  0  0  0  0
 25 28  2  0  0  0  0
 26 29  1  0  0  0  0
 29 31  1  0  0  0  0
 29 30  2  0  0  0  0
 30 25  1  0  0  0  0
 31 24  2  0  0  0  0
M  END
>  <MODEL>
3

>  <REMARK>
 VINA RESULT:      -8.4      3.594      6.594
  Name = 
  3 active torsions:
  status: ('A' for Active; 'I' for Inactive)
    1  A    between atoms: C_9  and  C_22
    2  A    between atoms: C_9  and  C_23
    3  A    between atoms: C_15  and  C_23
                            x       y       z     vdW  Elec       q    Type
                         _______ _______ _______ _____ _____    ______ ____

>  <TORSDO>
F 3

$$$$
=
 OpenBabel11052417503D

 31 35  0  0  0  0  0  0  0  0999 V2000
  184.8780  178.1560  145.8700 C   0  0  0  0  0  0  0  0  0  0  0  0
  187.7880  176.3430  144.3590 C   0  0  0  0  0  0  0  0  0  0  0  0
  187.5210  176.3370  142.8850 C   0  0  0  0  0  0  0  0  0  0  0  0
  186.7240  177.4580  140.8740 C   0  0  0  0  0  0  0  0  0  0  0  0
  186.9210  176.9570  145.2990 C   0  0  0  0  0  0  0  0  0  0  0  0
  185.2350  178.1390  147.2190 C   0  0  0  0  0  3  0  0  0  0  0  0
  186.8630  177.4110  142.2630 C   0  0  0  0  0  3  0  0  0  0  0  0
  189.2470  175.7110  146.2140 C   0  0  0  0  0  0  0  0  0  0  0  0
  183.3830  178.9150  145.3680 Cl  0  0  0  0  0  0  0  0  0  0  0  0
  188.9190  173.9200  142.8050 S   0  0  0  0  0  0  0  0  0  0  0  0
  186.0780  178.4980  140.2940 F   0  0  0  0  0  0  0  0  0  0  0  0
  188.4010  176.3220  147.0820 N   0  0  0  0  0  0  0  0  0  0  0  0
  188.9550  175.6990  144.8390 C   0  0  0  0  0  0  0  0  0  0  0  0
  185.7130  177.5660  144.9190 C   0  0  0  0  0  3  0  0  0  0  0  0
  187.2690  176.4480  140.0830 C   0  0  0  0  0  3  0  0  0  0  0  0
  187.2640  176.9340  146.6710 C   0  0  0  0  0  0  0  0  0  0  0  0
  186.4240  177.5280  147.6190 C   0  0  0  0  0  3  0  0  0  0  0  0
  189.8870  175.0200  143.8750 C   0  0  0  0  0  2  0  0  0  0  0  0
  188.0570  175.3130  142.0730 C   0  0  0  0  0  0  0  0  0  0  0  0
  187.9400  175.3790  140.6820 C   0  0  0  0  0  3  0  0  0  0  0  0
  190.4570  175.0190  146.7630 C   0  0  0  0  0  2  0  0  0  0  0  0
  191.4210  176.8160  147.9790 O   0  0  0  0  0  0  0  0  0  0  0  0
  191.5520  176.0070  147.0220 C   0  0  0  0  0  0  0  0  0  0  0  0
  195.1160  176.0330  144.6250 C   0  0  0  0  0  0  0  0  0  0  0  0
  193.8930  175.2760  146.5680 C   0  0  0  0  0  3  0  0  0  0  0  0
  191.7920  177.5370  144.5720 F   0  0  0  0  0  0  0  0  0  0  0  0
  196.2730  176.0370  143.8590 O   0  0  0  0  0  1  0  0  0  0  0  0
  195.0580  175.2780  145.7970 C   0  0  0  0  0  3  0  0  0  0  0  0
  192.8400  176.7860  144.9900 C   0  0  0  0  0  0  0  0  0  0  0  0
  192.7720  176.0290  146.1800 C   0  0  0  0  0  0  0  0  0  0  0  0
  194.0100  176.7850  144.2240 C   0  0  0  0  0  3  0  0  0  0  0  0
  1  6  1  0  0  0  0
  2 13  2  0  0  0  0
  2  5  1  0  0  0  0
  3  2  1  0  0  0  0
  4  7  2  0  0  0  0
  5 16  2  0  0  0  0
  6 17  2  0  0  0  0
  7  3  1  0  0  0  0
  8 21  1  0  0  0  0
  8 12  2  0  0  0  0
  9  1  1  0  0  0  0
 10 18  1  0  0  0  0
 11  4  1  0  0  0  0
 13  8  1  0  0  0  0
 14  5  1  0  0  0  0
 14  1  2  0  0  0  0
 15 20  2  0  0  0  0
 15  4  1  0  0  0  0
 16 12  1  0  0  0  0
 16 17  1  0  0  0  0
 18 13  1  0  0  0  0
 19 10  1  0  0  0  0
 19  3  2  0  0  0  0
 20 19  1  0  0  0  0
 21 23  1  0  0  0  0
 23 22  2  0  0  0  0
 24 28  1  0  0  0  0
 26 29  1  0  0  0  0
 27 24  1  0  0  0  0
 28 25  2  0  0  0  0
 29 30  2  0  0  0  0
 30 25  1  0  0  0  0
 30 23  1  0  0  0  0
 31 24  2  0  0  0  0
 31 29  1  0  0  0  0
M  END
>  <MODEL>
4

>  <REMARK>
 VINA RESULT:      -8.4      3.929      7.661
  Name = 
  3 active torsions:
  status: ('A' for Active; 'I' for Inactive)
    1  A    between atoms: C_9  and  C_22
    2  A    between atoms: C_9  and  C_23
    3  A    between atoms: C_15  and  C_23
                            x       y       z     vdW  Elec       q    Type
                         _______ _______ _______ _____ _____    ______ ____

>  <TORSDO>
F 3

$$$$
=
 OpenBabel11052417503D

 31 35  0  0  0  0  0  0  0  0999 V2000
  185.6710  177.5890  143.6700 C   0  0  0  0  0  0  0  0  0  0  0  0
  188.5620  175.2210  143.9440 C   0  0  0  0  0  0  0  0  0  0  0  0
  188.5900  174.4880  142.6380 C   0  0  0  0  0  0  0  0  0  0  0  0
  188.3520  174.4730  140.2130 C   0  0  0  0  0  0  0  0  0  0  0  0
  187.6150  176.2340  144.2400 C   0  0  0  0  0  0  0  0  0  0  0  0
  185.7520  178.2400  144.9020 C   0  0  0  0  0  3  0  0  0  0  0  0
  188.2100  175.1190  141.4420 C   0  0  0  0  0  3  0  0  0  0  0  0
  189.5370  175.5740  146.1560 C   0  0  0  0  0  0  0  0  0  0  0  0
  184.4130  178.0200  142.5330 Cl  0  0  0  0  0  0  0  0  0  0  0  0
  189.6540  172.3300  144.0580 S   0  0  0  0  0  0  0  0  0  0  0  0
  187.9710  175.0960  139.0720 F   0  0  0  0  0  0  0  0  0  0  0  0
  188.6240  176.5480  146.3990 N   0  0  0  0  0  0  0  0  0  0  0  0
  189.5200  174.8840  144.9320 C   0  0  0  0  0  0  0  0  0  0  0  0
  186.5930  176.5920  143.3440 C   0  0  0  0  0  3  0  0  0  0  0  0
  188.9070  173.1940  140.1570 C   0  0  0  0  0  3  0  0  0  0  0  0
  187.6770  176.8920  145.4910 C   0  0  0  0  0  0  0  0  0  0  0  0
  186.7520  177.8910  145.8110 C   0  0  0  0  0  3  0  0  0  0  0  0
  190.5270  173.8020  144.6600 C   0  0  0  0  0  2  0  0  0  0  0  0
  189.1380  173.1870  142.5690 C   0  0  0  0  0  0  0  0  0  0  0  0
  189.3040  172.5550  141.3330 C   0  0  0  0  0  3  0  0  0  0  0  0
  190.5170  175.2280  147.2350 C   0  0  0  0  0  2  0  0  0  0  0  0
  191.5320  177.1560  148.1780 O   0  0  0  0  0  0  0  0  0  0  0  0
  191.6060  176.2540  147.3010 C   0  0  0  0  0  0  0  0  0  0  0  0
  194.9680  176.0870  144.6340 C   0  0  0  0  0  0  0  0  0  0  0  0
  193.9350  175.5540  146.7530 C   0  0  0  0  0  3  0  0  0  0  0  0
  191.5830  177.4510  144.6610 F   0  0  0  0  0  0  0  0  0  0  0  0
  196.0610  176.0300  143.7800 O   0  0  0  0  0  1  0  0  0  0  0  0
  195.0360  175.4940  145.8950 C   0  0  0  0  0  3  0  0  0  0  0  0
  192.6950  176.8000  145.0860 C   0  0  0  0  0  0  0  0  0  0  0  0
  192.7540  176.2070  146.3650 C   0  0  0  0  0  0  0  0  0  0  0  0
  193.8000  176.7380  144.2310 C   0  0  0  0  0  3  0  0  0  0  0  0
  1  6  1  0  0  0  0
  2  5  2  0  0  0  0
  2 13  1  0  0  0  0
  3  2  1  0  0  0  0
  4  7  1  0  0  0  0
  5 16  1  0  0  0  0
  6 17  2  0  0  0  0
  7  3  2  0  0  0  0
  8 12  1  0  0  0  0
  8 21  1  0  0  0  0
  9  1  1  0  0  0  0
 10 18  1  0  0  0  0
 11  4  1  0  0  0  0
 13  8  2  0  0  0  0
 14  1  2  0  0  0  0
 14  5  1  0  0  0  0
 15  4  2  0  0  0  0
 15 20  1  0  0  0  0
 16 17  1  0  0  0  0
 16 12  2  0  0  0  0
 18 13  1  0  0  0  0
 19  3  1  0  0  0  0
 19 10  1  0  0  0  0
 20 19  2  0  0  0  0
 21 23  1  0  0  0  0
 23 22  2  0  0  0  0
 24 28  1  0  0  0  0
 26 29  1  0  0  0  0
 27 24  1  0  0  0  0
 28 25  2  0  0  0  0
 29 30  2  0  0  0  0
 30 25  1  0  0  0  0
 30 23  1  0  0  0  0
 31 24  2  0  0  0  0
 31 29  1  0  0  0  0
M  END
>  <MODEL>
5

>  <REMARK>
 VINA RESULT:      -8.3      3.732      7.136
  Name = 
  3 active torsions:
  status: ('A' for Active; 'I' for Inactive)
    1  A    between atoms: C_9  and  C_22
    2  A    between atoms: C_9  and  C_23
    3  A    between atoms: C_15  and  C_23
                            x       y       z     vdW  Elec       q    Type
                         _______ _______ _______ _____ _____    ______ ____

>  <TORSDO>
F 3

$$$$
=
 OpenBabel11052417503D

 31 35  0  0  0  0  0  0  0  0999 V2000
  186.6450  177.1400  141.1560 C   0  0  0  0  0  0  0  0  0  0  0  0
  187.7610  176.2490  144.6190 C   0  0  0  0  0  0  0  0  0  0  0  0
  187.0210  177.1890  145.5210 C   0  0  0  0  0  0  0  0  0  0  0  0
  184.9900  178.4020  146.1070 C   0  0  0  0  0  0  0  0  0  0  0  0
  187.6030  176.2460  143.2100 C   0  0  0  0  0  0  0  0  0  0  0  0
  187.3520  176.1980  140.4060 C   0  0  0  0  0  3  0  0  0  0  0  0
  185.7220  177.6240  145.2080 C   0  0  0  0  0  3  0  0  0  0  0  0
  189.3540  174.4120  144.3810 C   0  0  0  0  0  0  0  0  0  0  0  0
  185.5990  178.2910  140.3540 Cl  0  0  0  0  0  0  0  0  0  0  0  0
  189.2130  177.0060  147.2430 S   0  0  0  0  0  0  0  0  0  0  0  0
  183.7430  178.8190  145.7820 F   0  0  0  0  0  0  0  0  0  0  0  0
  189.1660  174.4290  143.0380 N   0  0  0  0  0  0  0  0  0  0  0  0
  188.6660  175.3250  145.1990 C   0  0  0  0  0  0  0  0  0  0  0  0
  186.7730  177.1650  142.5460 C   0  0  0  0  0  3  0  0  0  0  0  0
  185.5330  178.7300  147.3490 C   0  0  0  0  0  3  0  0  0  0  0  0
  188.3250  175.3060  142.4370 C   0  0  0  0  0  0  0  0  0  0  0  0
  188.1910  175.2850  141.0450 C   0  0  0  0  0  3  0  0  0  0  0  0
  188.8740  175.3130  146.6870 C   0  0  0  0  0  2  0  0  0  0  0  0
  187.5650  177.5400  146.7770 C   0  0  0  0  0  0  0  0  0  0  0  0
  186.8170  178.2950  147.6850 C   0  0  0  0  0  3  0  0  0  0  0  0
  190.3380  173.4390  144.9530 C   0  0  0  0  0  2  0  0  0  0  0  0
  192.0930  172.8960  143.4490 O   0  0  0  0  0  0  0  0  0  0  0  0
  191.6980  173.6640  144.3670 C   0  0  0  0  0  0  0  0  0  0  0  0
  194.1580  176.9170  145.7110 C   0  0  0  0  0  0  0  0  0  0  0  0
  192.2860  176.0860  144.4270 C   0  0  0  0  0  3  0  0  0  0  0  0
  193.9630  173.2990  146.1380 F   0  0  0  0  0  0  0  0  0  0  0  0
  194.9490  177.9750  146.1380 O   0  0  0  0  0  1  0  0  0  0  0  0
  193.0800  177.1520  144.8570 C   0  0  0  0  0  3  0  0  0  0  0  0
  193.6490  174.5470  145.7110 C   0  0  0  0  0  0  0  0  0  0  0  0
  192.5580  174.7730  144.8430 C   0  0  0  0  0  0  0  0  0  0  0  0
  194.4410  175.6180  146.1360 C   0  0  0  0  0  3  0  0  0  0  0  0
  1 14  1  0  0  0  0
  2 13  2  0  0  0  0
  2  3  1  0  0  0  0
  3 19  1  0  0  0  0
  4 15  2  0  0  0  0
  5  2  1  0  0  0  0
  6 17  1  0  0  0  0
  6  1  2  0  0  0  0
  7  3  2  0  0  0  0
  7  4  1  0  0  0  0
  8 21  1  0  0  0  0
  8 13  1  0  0  0  0
  9  1  1  0  0  0  0
 11  4  1  0  0  0  0
 12  8  2  0  0  0  0
 13 18  1  0  0  0  0
 14  5  2  0  0  0  0
 15 20  1  0  0  0  0
 16 12  1  0  0  0  0
 16  5  1  0  0  0  0
 17 16  2  0  0  0  0
 18 10  1  0  0  0  0
 19 10  1  0  0  0  0
 19 20  2  0  0  0  0
 22 23  2  0  0  0  0
 23 30  1  0  0  0  0
 23 21  1  0  0  0  0
 24 31  1  0  0  0  0
 24 27  1  0  0  0  0
 25 30  2  0  0  0  0
 25 28  1  0  0  0  0
 28 24  2  0  0  0  0
 29 31  2  0  0  0  0
 29 26  1  0  0  0  0
 30 29  1  0  0  0  0
M  END
>  <MODEL>
6

>  <REMARK>
 VINA RESULT:      -8.2      3.485      6.646
  Name = 
  3 active torsions:
  status: ('A' for Active; 'I' for Inactive)
    1  A    between atoms: C_9  and  C_22
    2  A    between atoms: C_9  and  C_23
    3  A    between atoms: C_15  and  C_23
                            x       y       z     vdW  Elec       q    Type
                         _______ _______ _______ _____ _____    ______ ____

>  <TORSDO>
F 3

$$$$
=
 OpenBabel11052417503D

 31 35  0  0  0  0  0  0  0  0999 V2000
  186.5890  177.0880  141.3350 C   0  0  0  0  0  0  0  0  0  0  0  0
  187.8780  176.4710  144.7980 C   0  0  0  0  0  0  0  0  0  0  0  0
  187.0060  177.2990  145.6920 C   0  0  0  0  0  0  0  0  0  0  0  0
  184.8130  178.1780  146.2860 C   0  0  0  0  0  0  0  0  0  0  0  0
  187.7050  176.4090  143.3920 C   0  0  0  0  0  0  0  0  0  0  0  0
  187.4300  176.2570  140.5930 C   0  0  0  0  0  3  0  0  0  0  0  0
  185.6500  177.5100  145.3910 C   0  0  0  0  0  3  0  0  0  0  0  0
  189.7460  174.9120  144.5720 C   0  0  0  0  0  0  0  0  0  0  0  0
  185.3590  178.0350  140.5270 Cl  0  0  0  0  0  0  0  0  0  0  0  0
  189.2200  177.5140  147.3820 S   0  0  0  0  0  0  0  0  0  0  0  0
  183.5110  178.3800  145.9720 F   0  0  0  0  0  0  0  0  0  0  0  0
  189.5410  174.8670  143.2320 N   0  0  0  0  0  0  0  0  0  0  0  0
  188.9280  175.7200  145.3820 C   0  0  0  0  0  0  0  0  0  0  0  0
  186.7280  177.1660  142.7220 C   0  0  0  0  0  3  0  0  0  0  0  0
  185.3110  178.6190  147.5120 C   0  0  0  0  0  3  0  0  0  0  0  0
  188.5610  175.5820  142.6270 C   0  0  0  0  0  0  0  0  0  0  0  0
  188.4150  175.5080  141.2380 C   0  0  0  0  0  3  0  0  0  0  0  0
  189.1550  175.7760  146.8670 C   0  0  0  0  0  2  0  0  0  0  0  0
  187.5020  177.7620  146.9320 C   0  0  0  0  0  0  0  0  0  0  0  0
  186.6530  178.4060  147.8360 C   0  0  0  0  0  3  0  0  0  0  0  0
  190.8830  174.1250  145.1480 C   0  0  0  0  0  2  0  0  0  0  0  0
  192.1260  176.0860  144.6520 O   0  0  0  0  0  0  0  0  0  0  0  0
  192.1710  174.8720  144.9880 C   0  0  0  0  0  0  0  0  0  0  0  0
  195.9170  172.8870  145.6700 C   0  0  0  0  0  0  0  0  0  0  0  0
  193.6180  172.8420  144.9260 C   0  0  0  0  0  3  0  0  0  0  0  0
  194.4940  176.2220  146.0750 F   0  0  0  0  0  0  0  0  0  0  0  0
  197.1230  172.2350  145.8890 O   0  0  0  0  0  1  0  0  0  0  0  0
  194.8310  172.1860  145.1450 C   0  0  0  0  0  3  0  0  0  0  0  0
  194.5790  174.9070  145.7560 C   0  0  0  0  0  0  0  0  0  0  0  0
  193.4720  174.2060  145.2290 C   0  0  0  0  0  0  0  0  0  0  0  0
  195.7900  174.2430  145.9740 C   0  0  0  0  0  3  0  0  0  0  0  0
  1 14  1  0  0  0  0
  2 13  2  0  0  0  0
  2  3  1  0  0  0  0
  3 19  1  0  0  0  0
  4 15  2  0  0  0  0
  5  2  1  0  0  0  0
  6 17  1  0  0  0  0
  6  1  2  0  0  0  0
  7  3  2  0  0  0  0
  7  4  1  0  0  0  0
  8 21  1  0  0  0  0
  8 13  1  0  0  0  0
  9  1  1  0  0  0  0
 11  4  1  0  0  0  0
 12  8  2  0  0  0  0
 13 18  1  0  0  0  0
 14  5  2  0  0  0  0
 15 20  1  0  0  0  0
 16 12  1  0  0  0  0
 16  5  1  0  0  0  0
 17 16  2  0  0  0  0
 18 10  1  0  0  0  0
 19 10  1  0  0  0  0
 19 20  2  0  0  0  0
 22 23  2  0  0  0  0
 23 21  1  0  0  0  0
 23 30  1  0  0  0  0
 24 27  1  0  0  0  0
 24 31  1  0  0  0  0
 25 28  1  0  0  0  0
 25 30  2  0  0  0  0
 28 24  2  0  0  0  0
 29 31  2  0  0  0  0
 29 26  1  0  0  0  0
 30 29  1  0  0  0  0
M  END
>  <MODEL>
7

>  <REMARK>
 VINA RESULT:      -7.8      3.844      7.414
  Name = 
  3 active torsions:
  status: ('A' for Active; 'I' for Inactive)
    1  A    between atoms: C_9  and  C_22
    2  A    between atoms: C_9  and  C_23
    3  A    between atoms: C_15  and  C_23
                            x       y       z     vdW  Elec       q    Type
                         _______ _______ _______ _____ _____    ______ ____

>  <TORSDO>
F 3

$$$$
=
 OpenBabel11052417503D

 31 35  0  0  0  0  0  0  0  0999 V2000
  185.4550  178.1470  146.4700 C   0  0  0  0  0  0  0  0  0  0  0  0
  188.1660  177.2820  144.0330 C   0  0  0  0  0  0  0  0  0  0  0  0
  187.4840  177.2060  142.7010 C   0  0  0  0  0  0  0  0  0  0  0  0
  185.8410  178.0540  141.1130 C   0  0  0  0  0  0  0  0  0  0  0  0
  187.4840  177.6080  145.2330 C   0  0  0  0  0  0  0  0  0  0  0  0
  186.1880  178.2290  147.6550 C   0  0  0  0  0  3  0  0  0  0  0  0
  186.3970  178.0410  142.3940 C   0  0  0  0  0  3  0  0  0  0  0  0
  190.2280  177.0980  145.3300 C   0  0  0  0  0  0  0  0  0  0  0  0
  183.7290  178.4340  146.4860 Cl  0  0  0  0  0  0  0  0  0  0  0  0
  189.4120  175.3100  142.0020 S   0  0  0  0  0  0  0  0  0  0  0  0
  184.7870  178.8600  140.8410 F   0  0  0  0  0  0  0  0  0  0  0  0
  189.5450  177.4280  146.4550 N   0  0  0  0  0  0  0  0  0  0  0  0
  189.5550  177.0090  144.0990 C   0  0  0  0  0  0  0  0  0  0  0  0
  186.0970  177.8360  145.2700 C   0  0  0  0  0  3  0  0  0  0  0  0
  186.3860  177.2540  140.1090 C   0  0  0  0  0  3  0  0  0  0  0  0
  188.2130  177.6790  146.4430 C   0  0  0  0  0  0  0  0  0  0  0  0
  187.5640  177.9940  147.6410 C   0  0  0  0  0  3  0  0  0  0  0  0
  190.3070  176.6400  142.8510 C   0  0  0  0  0  2  0  0  0  0  0  0
  188.0170  176.3900  141.6780 C   0  0  0  0  0  0  0  0  0  0  0  0
  187.4750  176.4270  140.3910 C   0  0  0  0  0  3  0  0  0  0  0  0
  191.6900  176.7910  145.4450 C   0  0  0  0  0  2  0  0  0  0  0  0
  190.9240  174.8250  146.5330 O   0  0  0  0  0  0  0  0  0  0  0  0
  191.8920  175.4040  145.9730 C   0  0  0  0  0  0  0  0  0  0  0  0
  195.6480  173.3670  145.5410 C   0  0  0  0  0  0  0  0  0  0  0  0
  193.2430  173.4140  145.3130 C   0  0  0  0  0  3  0  0  0  0  0  0
  194.4270  176.5990  146.7140 F   0  0  0  0  0  0  0  0  0  0  0  0
  196.8570  172.6990  145.4000 O   0  0  0  0  0  1  0  0  0  0  0  0
  194.4580  172.7410  145.1690 C   0  0  0  0  0  3  0  0  0  0  0  0
  194.4100  175.3440  146.2010 C   0  0  0  0  0  0  0  0  0  0  0  0
  193.1990  174.7190  145.8310 C   0  0  0  0  0  0  0  0  0  0  0  0
  195.6230  174.6640  146.0560 C   0  0  0  0  0  3  0  0  0  0  0  0
  1  9  1  0  0  0  0
  1  6  1  0  0  0  0
  2 13  2  0  0  0  0
  2  5  1  0  0  0  0
  3  2  1  0  0  0  0
  4  7  2  0  0  0  0
  5 14  1  0  0  0  0
  5 16  2  0  0  0  0
  7  3  1  0  0  0  0
  8 21  1  0  0  0  0
  8 12  2  0  0  0  0
 10 18  1  0  0  0  0
 11  4  1  0  0  0  0
 13  8  1  0  0  0  0
 14  1  2  0  0  0  0
 15 20  2  0  0  0  0
 15  4  1  0  0  0  0
 16 12  1  0  0  0  0
 16 17  1  0  0  0  0
 17  6  2  0  0  0  0
 18 13  1  0  0  0  0
 19 10  1  0  0  0  0
 19  3  2  0  0  0  0
 20 19  1  0  0  0  0
 21 23  1  0  0  0  0
 23 22  2  0  0  0  0
 24 31  1  0  0  0  0
 25 30  2  0  0  0  0
 27 24  1  0  0  0  0
 28 25  1  0  0  0  0
 28 24  2  0  0  0  0
 29 26  1  0  0  0  0
 30 23  1  0  0  0  0
 30 29  1  0  0  0  0
 31 29  2  0  0  0  0
M  END
>  <MODEL>
8

>  <REMARK>
 VINA RESULT:      -7.7      4.063      8.111
  Name = 
  3 active torsions:
  status: ('A' for Active; 'I' for Inactive)
    1  A    between atoms: C_9  and  C_22
    2  A    between atoms: C_9  and  C_23
    3  A    between atoms: C_15  and  C_23
                            x       y       z     vdW  Elec       q    Type
                         _______ _______ _______ _____ _____    ______ ____

>  <TORSDO>
F 3

$$$$
=
 OpenBabel11052417503D

 31 35  0  0  0  0  0  0  0  0999 V2000
  195.0070  176.4110  144.3170 C   0  0  0  0  0  0  0  0  0  0  0  0
  191.5190  175.1140  143.8790 C   0  0  0  0  0  0  0  0  0  0  0  0
  191.4910  174.5310  142.4990 C   0  0  0  0  0  0  0  0  0  0  0  0
  192.5630  173.2680  140.7120 C   0  0  0  0  0  0  0  0  0  0  0  0
  192.6800  175.6990  144.4460 C   0  0  0  0  0  0  0  0  0  0  0  0
  194.9410  176.8920  145.6260 C   0  0  0  0  0  3  0  0  0  0  0  0
  192.6270  173.9160  141.9470 C   0  0  0  0  0  3  0  0  0  0  0  0
  190.3350  175.6010  145.9590 C   0  0  0  0  0  0  0  0  0  0  0  0
  196.4960  176.5440  143.4080 Cl  0  0  0  0  0  0  0  0  0  0  0  0
  188.7850  175.2200  142.4390 S   0  0  0  0  0  0  0  0  0  0  0  0
  193.6720  172.6880  140.1940 F   0  0  0  0  0  0  0  0  0  0  0  0
  191.4680  176.1400  146.4740 N   0  0  0  0  0  0  0  0  0  0  0  0
  190.3310  175.0870  144.6510 C   0  0  0  0  0  0  0  0  0  0  0  0
  193.8840  175.8220  143.7320 C   0  0  0  0  0  3  0  0  0  0  0  0
  191.3520  173.1970  140.0230 C   0  0  0  0  0  3  0  0  0  0  0  0
  192.6230  176.2040  145.7660 C   0  0  0  0  0  0  0  0  0  0  0  0
  193.7510  176.7910  146.3480 C   0  0  0  0  0  3  0  0  0  0  0  0
  189.0770  174.4930  144.0750 C   0  0  0  0  0  2  0  0  0  0  0  0
  190.2740  174.4650  141.7840 C   0  0  0  0  0  0  0  0  0  0  0  0
  190.2080  173.7910  140.5610 C   0  0  0  0  0  3  0  0  0  0  0  0
  189.0920  175.6140  146.7960 C   0  0  0  0  0  2  0  0  0  0  0  0
  189.0260  177.8330  147.6380 O   0  0  0  0  0  0  0  0  0  0  0  0
  188.5130  176.9940  146.8500 C   0  0  0  0  0  0  0  0  0  0  0  0
  185.1580  178.0720  144.3950 C   0  0  0  0  0  0  0  0  0  0  0  0
  186.0580  177.1950  146.4600 C   0  0  0  0  0  3  0  0  0  0  0  0
  188.8000  178.1030  144.1870 F   0  0  0  0  0  0  0  0  0  0  0  0
  184.0660  178.4140  143.6090 O   0  0  0  0  0  1  0  0  0  0  0  0
  184.9590  177.5410  145.6700 C   0  0  0  0  0  3  0  0  0  0  0  0
  187.5580  177.9160  144.6980 C   0  0  0  0  0  0  0  0  0  0  0  0
  187.3690  177.3740  145.9880 C   0  0  0  0  0  0  0  0  0  0  0  0
  186.4540  178.2580  143.9120 C   0  0  0  0  0  3  0  0  0  0  0  0
  1  6  1  0  0  0  0
  2  5  2  0  0  0  0
  2 13  1  0  0  0  0
  3  2  1  0  0  0  0
  4  7  2  0  0  0  0
  5 16  1  0  0  0  0
  6 17  2  0  0  0  0
  7  3  1  0  0  0  0
  8 12  1  0  0  0  0
  8 21  1  0  0  0  0
  9  1  1  0  0  0  0
 10 18  1  0  0  0  0
 11  4  1  0  0  0  0
 13  8  2  0  0  0  0
 14  1  2  0  0  0  0
 14  5  1  0  0  0  0
 15 20  2  0  0  0  0
 15  4  1  0  0  0  0
 16 17  1  0  0  0  0
 16 12  2  0  0  0  0
 18 13  1  0  0  0  0
 19 10  1  0  0  0  0
 19  3  2  0  0  0  0
 20 19  1  0  0  0  0
 21 23  1  0  0  0  0
 23 22  2  0  0  0  0
 24 28  1  0  0  0  0
 26 29  1  0  0  0  0
 27 24  1  0  0  0  0
 28 25  2  0  0  0  0
 29 30  2  0  0  0  0
 30 25  1  0  0  0  0
 30 23  1  0  0  0  0
 31 24  2  0  0  0  0
 31 29  1  0  0  0  0
M  END
>  <MODEL>
9

>  <REMARK>
 VINA RESULT:      -7.6      3.121      5.146
  Name = 
  3 active torsions:
  status: ('A' for Active; 'I' for Inactive)
    1  A    between atoms: C_9  and  C_22
    2  A    between atoms: C_9  and  C_23
    3  A    between atoms: C_15  and  C_23
                            x       y       z     vdW  Elec       q    Type
                         _______ _______ _______ _____ _____    ______ ____

>  <TORSDO>
F 3

$$$$
