=
 OpenBabel11052421353D

 32 36  0  0  1  0  0  0  0  0999 V2000
  184.8610  179.0130  144.4320 C   0  0  2  0  0  3  0  0  0  0  0  0
  188.0460  176.3420  143.3340 C   0  0  0  0  0  0  0  0  0  0  0  0
  190.4180  177.1780  147.4840 C   0  0  0  0  0  3  0  0  0  0  0  0
  191.4150  176.3130  147.0360 C   0  0  0  0  0  3  0  0  0  0  0  0
  185.9130  177.3800  142.8470 C   0  0  0  0  0  0  0  0  0  0  0  0
  187.0370  177.8630  144.9420 C   0  0  0  0  0  3  0  0  0  0  0  0
  185.3250  180.3040  144.2570 F   0  0  0  0  0  0  0  0  0  0  0  0
  189.3070  177.4180  146.6750 C   0  0  0  0  0  3  0  0  0  0  0  0
  188.0910  177.0080  144.5810 C   0  0  0  0  0  0  0  0  0  0  0  0
  189.1970  176.7940  145.4240 C   0  0  0  0  0  0  0  0  0  0  0  0
  190.1390  175.2920  143.7590 C   0  0  0  0  0  0  0  0  0  0  0  0
  183.7420  178.2230  142.3520 C   0  0  0  0  0  0  0  0  0  0  0  0
  185.9500  178.0440  144.0830 C   0  0  0  0  0  0  0  0  0  0  0  0
  184.7890  177.5470  141.9800 N   0  0  0  0  0  0  0  0  0  0  0  0
  183.6970  178.8160  143.6230 O   0  0  0  0  0  0  0  0  0  0  0  0
  191.3040  175.7110  145.8220 N   0  0  0  0  0  0  0  0  0  0  0  0
  190.2310  175.9250  145.0090 C   0  0  0  0  0  0  0  0  0  0  0  0
  186.9580  176.5310  142.4770 C   0  0  0  0  0  3  0  0  0  0  0  0
  189.0560  175.5120  142.9660 N   0  0  0  0  0  0  0  0  0  0  0  0
  182.5860  178.3450  141.4580 C   0  0  0  0  0  0  0  0  0  0  0  0
  182.6500  177.9030  140.2760 O   0  0  0  0  0  0  0  0  0  0  0  0
  181.4190  178.9510  141.9240 O   0  0  0  0  0  0  0  0  0  0  0  0
  180.3880  179.3710  141.0440 C   0  0  0  0  0  1  0  0  0  0  0  0
  191.1940  174.3380  143.2980 C   0  0  0  0  0  2  0  0  0  0  0  0
  190.1610  173.5610  139.0730 C   0  0  0  0  0  1  0  0  0  0  0  0
  191.5570  173.5040  141.1410 C   0  0  0  0  0  2  0  0  0  0  0  0
  190.6380  172.0840  142.8570 C   0  0  2  0  0  3  0  0  0  0  0  0
  190.6830  170.9760  141.7890 C   0  0  0  0  0  2  0  0  0  0  0  0
  190.1790  171.4870  140.4430 C   0  0  0  0  0  2  0  0  0  0  0  0
  191.0100  172.6820  139.9700 C   0  0  1  0  0  3  0  0  0  0  0  0
  189.3920  171.8910  143.7050 C   0  0  0  0  0  1  0  0  0  0  0  0
  190.6470  173.4440  142.2870 N   0  0  0  0  0  0  0  0  0  0  0  0
  1  7  1  6  0  0  0
  2  9  1  0  0  0  0
  4  3  1  0  0  0  0
  5 13  1  0  0  0  0
  8  3  2  0  0  0  0
  9  6  1  0  0  0  0
  9 10  2  0  0  0  0
 10  8  1  0  0  0  0
 11 17  2  0  0  0  0
 12 15  1  0  0  0  0
 13  1  1  0  0  0  0
 13  6  2  0  0  0  0
 14 12  2  0  0  0  0
 14  5  1  0  0  0  0
 15  1  1  0  0  0  0
 16  4  2  0  0  0  0
 17 10  1  0  0  0  0
 17 16  1  0  0  0  0
 18  5  2  0  0  0  0
 18  2  1  0  0  0  0
 19  2  2  0  0  0  0
 19 11  1  0  0  0  0
 20 22  1  0  0  0  0
 20 12  1  0  0  0  0
 21 20  2  0  0  0  0
 23 22  1  0  0  0  0
 24 11  1  0  0  0  0
 26 32  1  0  0  0  0
 27 31  1  6  0  0  0
 28 27  1  0  0  0  0
 29 28  1  0  0  0  0
 30 25  1  6  0  0  0
 30 29  1  0  0  0  0
 30 26  1  0  0  0  0
 32 27  1  0  0  0  0
 32 24  1  0  0  0  0
M  END
>  <MODEL>
1

>  <REMARK>
 VINA RESULT:      -8.2      0.000      0.000
  Name = 
  4 active torsions:
  status: ('A' for Active; 'I' for Inactive)
    1  A    between atoms: C_1  and  O_10
    2  A    between atoms: C_1  and  C_19
    3  A    between atoms: C_16  and  C_27
    4  A    between atoms: C_27  and  N_32
                            x       y       z     vdW  Elec       q    Type
                         _______ _______ _______ _____ _____    ______ ____

>  <TORSDO>
F 4

$$$$
=
 OpenBabel11052421353D

 32 36  0  0  1  0  0  0  0  0999 V2000
  185.5010  178.1770  144.7800 C   0  0  2  0  0  3  0  0  0  0  0  0
  189.4270  177.1770  143.3400 C   0  0  0  0  0  0  0  0  0  0  0  0
  191.1680  176.7530  147.8490 C   0  0  0  0  0  3  0  0  0  0  0  0
  192.4120  176.4600  147.2930 C   0  0  0  0  0  3  0  0  0  0  0  0
  187.1070  177.7200  142.9090 C   0  0  0  0  0  0  0  0  0  0  0  0
  187.8970  177.5400  145.1950 C   0  0  0  0  0  3  0  0  0  0  0  0
  185.5400  179.4900  145.2100 F   0  0  0  0  0  0  0  0  0  0  0  0
  190.0870  177.0130  147.0070 C   0  0  0  0  0  3  0  0  0  0  0  0
  189.1870  177.2320  144.7330 C   0  0  0  0  0  0  0  0  0  0  0  0
  190.2520  176.9790  145.6140 C   0  0  0  0  0  0  0  0  0  0  0  0
  191.7170  176.6410  143.7030 C   0  0  0  0  0  0  0  0  0  0  0  0
  184.8120  178.0870  142.3880 C   0  0  0  0  0  0  0  0  0  0  0  0
  186.8600  177.7760  144.2900 C   0  0  0  0  0  0  0  0  0  0  0  0
  186.0390  177.9380  141.9830 N   0  0  0  0  0  0  0  0  0  0  0  0
  184.5090  178.0450  143.7570 O   0  0  0  0  0  0  0  0  0  0  0  0
  192.5680  176.4290  145.9430 N   0  0  0  0  0  0  0  0  0  0  0  0
  191.5310  176.6780  145.0940 C   0  0  0  0  0  0  0  0  0  0  0  0
  188.3870  177.4200  142.4390 C   0  0  0  0  0  3  0  0  0  0  0  0
  190.6680  176.8840  142.8710 N   0  0  0  0  0  0  0  0  0  0  0  0
  183.7310  178.2690  141.4140 C   0  0  0  0  0  0  0  0  0  0  0  0
  184.0010  178.4270  140.1910 O   0  0  0  0  0  0  0  0  0  0  0  0
  182.4060  178.2670  141.8520 O   0  0  0  0  0  0  0  0  0  0  0  0
  181.3180  178.4060  140.9520 C   0  0  0  0  0  1  0  0  0  0  0  0
  193.0440  176.2920  143.1110 C   0  0  0  0  0  2  0  0  0  0  0  0
  191.8270  172.1470  144.0340 C   0  0  0  0  0  1  0  0  0  0  0  0
  192.6310  174.0400  142.6220 C   0  0  0  0  0  2  0  0  0  0  0  0
  194.8520  174.7720  143.2050 C   0  0  2  0  0  3  0  0  0  0  0  0
  195.2630  173.3090  142.9530 C   0  0  0  0  0  2  0  0  0  0  0  0
  194.2610  172.3400  143.5730 C   0  0  0  0  0  2  0  0  0  0  0  0
  192.8590  172.5760  143.0100 C   0  0  1  0  0  3  0  0  0  0  0  0
  195.6620  175.3110  144.3710 C   0  0  0  0  0  1  0  0  0  0  0  0
  193.4120  174.9330  143.4820 N   0  0  0  0  0  0  0  0  0  0  0  0
  1  7  1  6  0  0  0
  2  9  1  0  0  0  0
  4  3  1  0  0  0  0
  5 13  1  0  0  0  0
  8  3  2  0  0  0  0
  9  6  1  0  0  0  0
  9 10  2  0  0  0  0
 10  8  1  0  0  0  0
 11 17  2  0  0  0  0
 12 15  1  0  0  0  0
 13  1  1  0  0  0  0
 13  6  2  0  0  0  0
 14 12  2  0  0  0  0
 14  5  1  0  0  0  0
 15  1  1  0  0  0  0
 16  4  2  0  0  0  0
 17 10  1  0  0  0  0
 17 16  1  0  0  0  0
 18  5  2  0  0  0  0
 18  2  1  0  0  0  0
 19  2  2  0  0  0  0
 19 11  1  0  0  0  0
 20 22  1  0  0  0  0
 20 12  1  0  0  0  0
 21 20  2  0  0  0  0
 23 22  1  0  0  0  0
 24 32  1  0  0  0  0
 24 11  1  0  0  0  0
 26 30  1  0  0  0  0
 26 32  1  0  0  0  0
 27 32  1  0  0  0  0
 27 31  1  1  0  0  0
 28 27  1  0  0  0  0
 28 29  1  0  0  0  0
 30 29  1  0  0  0  0
 30 25  1  1  0  0  0
M  END
>  <MODEL>
2

>  <REMARK>
 VINA RESULT:      -7.9      2.032      2.720
  Name = 
  4 active torsions:
  status: ('A' for Active; 'I' for Inactive)
    1  A    between atoms: C_1  and  O_10
    2  A    between atoms: C_1  and  C_19
    3  A    between atoms: C_16  and  C_27
    4  A    between atoms: C_27  and  N_32
                            x       y       z     vdW  Elec       q    Type
                         _______ _______ _______ _____ _____    ______ ____

>  <TORSDO>
F 4

$$$$
=
 OpenBabel11052421353D

 32 36  0  0  1  0  0  0  0  0999 V2000
  185.0550  179.2690  144.4010 C   0  0  2  0  0  3  0  0  0  0  0  0
  188.0650  176.2260  144.0030 C   0  0  0  0  0  0  0  0  0  0  0  0
  190.2730  177.6240  148.0910 C   0  0  0  0  0  3  0  0  0  0  0  0
  191.2190  176.6240  147.8690 C   0  0  0  0  0  3  0  0  0  0  0  0
  186.0530  177.3070  143.2000 C   0  0  0  0  0  0  0  0  0  0  0  0
  187.1000  178.0780  145.2480 C   0  0  0  0  0  3  0  0  0  0  0  0
  185.6310  180.4710  144.0330 F   0  0  0  0  0  0  0  0  0  0  0  0
  189.2310  177.7920  147.1800 C   0  0  0  0  0  3  0  0  0  0  0  0
  188.0980  177.1000  145.1140 C   0  0  0  0  0  0  0  0  0  0  0  0
  189.1360  176.9630  146.0530 C   0  0  0  0  0  0  0  0  0  0  0  0
  190.0400  175.1240  144.7440 C   0  0  0  0  0  0  0  0  0  0  0  0
  183.9870  178.2000  142.4210 C   0  0  0  0  0  0  0  0  0  0  0  0
  186.0790  178.1790  144.3000 C   0  0  0  0  0  0  0  0  0  0  0  0
  184.9940  177.3950  142.2430 N   0  0  0  0  0  0  0  0  0  0  0  0
  183.9240  179.0130  143.5620 O   0  0  0  0  0  0  0  0  0  0  0  0
  191.1240  175.8230  146.7750 N   0  0  0  0  0  0  0  0  0  0  0  0
  190.1170  175.9620  145.8670 C   0  0  0  0  0  0  0  0  0  0  0  0
  187.0440  176.3340  143.0550 C   0  0  0  0  0  3  0  0  0  0  0  0
  189.0230  175.2730  143.8530 N   0  0  0  0  0  0  0  0  0  0  0  0
  182.8940  178.2400  141.4430 C   0  0  0  0  0  0  0  0  0  0  0  0
  183.1070  177.9150  140.2420 O   0  0  0  0  0  0  0  0  0  0  0  0
  181.6230  178.6400  141.8540 O   0  0  0  0  0  0  0  0  0  0  0  0
  180.5230  178.6800  140.9580 C   0  0  0  0  0  1  0  0  0  0  0  0
  191.0370  174.0310  144.5280 C   0  0  0  0  0  2  0  0  0  0  0  0
  194.7420  176.3910  145.0010 C   0  0  0  0  0  1  0  0  0  0  0  0
  193.3240  174.3390  144.9210 C   0  0  0  0  0  2  0  0  0  0  0  0
  192.5270  173.8310  142.7050 C   0  0  2  0  0  3  0  0  0  0  0  0
  194.0140  173.8340  142.3060 C   0  0  0  0  0  2  0  0  0  0  0  0
  194.7510  175.0150  142.9310 C   0  0  0  0  0  2  0  0  0  0  0  0
  194.6350  174.9800  144.4560 C   0  0  1  0  0  3  0  0  0  0  0  0
  191.7170  174.4230  141.5640 C   0  0  0  0  0  1  0  0  0  0  0  0
  192.2560  174.5770  143.9480 N   0  0  0  0  0  0  0  0  0  0  0  0
  1  7  1  6  0  0  0
  2  9  1  0  0  0  0
  4  3  1  0  0  0  0
  5 13  1  0  0  0  0
  8  3  2  0  0  0  0
  9  6  1  0  0  0  0
  9 10  2  0  0  0  0
 10  8  1  0  0  0  0
 11 17  2  0  0  0  0
 12 15  1  0  0  0  0
 13  1  1  0  0  0  0
 13  6  2  0  0  0  0
 14 12  2  0  0  0  0
 14  5  1  0  0  0  0
 15  1  1  0  0  0  0
 16  4  2  0  0  0  0
 17 10  1  0  0  0  0
 17 16  1  0  0  0  0
 18  5  2  0  0  0  0
 18  2  1  0  0  0  0
 19  2  2  0  0  0  0
 19 11  1  0  0  0  0
 20 22  1  0  0  0  0
 20 12  1  0  0  0  0
 21 20  2  0  0  0  0
 23 22  1  0  0  0  0
 24 11  1  0  0  0  0
 27 31  1  6  0  0  0
 27 32  1  0  0  0  0
 28 27  1  0  0  0  0
 28 29  1  0  0  0  0
 29 30  1  0  0  0  0
 30 26  1  0  0  0  0
 30 25  1  6  0  0  0
 32 24  1  0  0  0  0
 32 26  1  0  0  0  0
M  END
>  <MODEL>
3

>  <REMARK>
 VINA RESULT:      -7.9      1.542      2.622
  Name = 
  4 active torsions:
  status: ('A' for Active; 'I' for Inactive)
    1  A    between atoms: C_1  and  O_10
    2  A    between atoms: C_1  and  C_19
    3  A    between atoms: C_16  and  C_27
    4  A    between atoms: C_27  and  N_32
                            x       y       z     vdW  Elec       q    Type
                         _______ _______ _______ _____ _____    ______ ____

>  <TORSDO>
F 4

$$$$
=
 OpenBabel11052421353D

 32 36  0  0  1  0  0  0  0  0999 V2000
  188.3500  173.7390  137.9550 C   0  0  2  0  0  3  0  0  0  0  0  0
  189.0020  175.0070  142.0110 C   0  0  0  0  0  0  0  0  0  0  0  0
  185.6740  178.5180  141.6370 C   0  0  0  0  0  3  0  0  0  0  0  0
  185.9680  178.8750  142.9530 C   0  0  0  0  0  3  0  0  0  0  0  0
  189.4870  173.5010  140.1780 C   0  0  0  0  0  0  0  0  0  0  0  0
  187.8160  175.2380  139.9010 C   0  0  0  0  0  3  0  0  0  0  0  0
  188.9750  174.6550  137.1300 F   0  0  0  0  0  0  0  0  0  0  0  0
  186.3580  177.4540  141.0490 C   0  0  0  0  0  3  0  0  0  0  0  0
  188.0380  175.6710  141.2180 C   0  0  0  0  0  0  0  0  0  0  0  0
  187.3300  176.7510  141.7750 C   0  0  0  0  0  0  0  0  0  0  0  0
  188.5670  176.4560  143.8480 C   0  0  0  0  0  0  0  0  0  0  0  0
  189.9150  171.8760  138.4910 C   0  0  0  0  0  0  0  0  0  0  0  0
  188.5320  174.1550  139.3840 C   0  0  0  0  0  0  0  0  0  0  0  0
  190.2010  172.3780  139.6560 N   0  0  0  0  0  0  0  0  0  0  0  0
  188.8930  172.4370  137.7100 O   0  0  0  0  0  0  0  0  0  0  0  0
  186.9120  178.1900  143.6530 N   0  0  0  0  0  0  0  0  0  0  0  0
  187.5960  177.1460  143.1060 C   0  0  0  0  0  0  0  0  0  0  0  0
  189.7190  173.9270  141.4870 C   0  0  0  0  0  3  0  0  0  0  0  0
  189.2340  175.4110  143.2880 N   0  0  0  0  0  0  0  0  0  0  0  0
  190.6360  170.6980  137.9970 C   0  0  0  0  0  0  0  0  0  0  0  0
  191.7630  170.8310  137.4450 O   0  0  0  0  0  0  0  0  0  0  0  0
  190.0640  169.4330  138.1440 O   0  0  0  0  0  0  0  0  0  0  0  0
  190.5550  168.4930  139.0870 C   0  0  0  0  0  1  0  0  0  0  0  0
  188.8540  176.8190  145.2690 C   0  0  0  0  0  2  0  0  0  0  0  0
  193.0990  175.7620  144.6570 C   0  0  0  0  0  1  0  0  0  0  0  0
  191.1650  177.0600  145.5520 C   0  0  0  0  0  2  0  0  0  0  0  0
  189.8650  175.8220  147.1590 C   0  0  2  0  0  3  0  0  0  0  0  0
  191.1920  175.6660  147.9240 C   0  0  0  0  0  2  0  0  0  0  0  0
  192.3360  175.3140  146.9790 C   0  0  0  0  0  2  0  0  0  0  0  0
  192.4960  176.3860  145.8990 C   0  0  1  0  0  3  0  0  0  0  0  0
  189.0630  174.5410  147.3110 C   0  0  0  0  0  1  0  0  0  0  0  0
  190.0500  176.1270  145.7270 N   0  0  0  0  0  0  0  0  0  0  0  0
  1  7  1  6  0  0  0
  1 13  1  0  0  0  0
  2 19  1  0  0  0  0
  3  4  1  0  0  0  0
  4 16  2  0  0  0  0
  5 18  1  0  0  0  0
  6  9  2  0  0  0  0
  8  3  2  0  0  0  0
  8 10  1  0  0  0  0
  9 10  1  0  0  0  0
  9  2  1  0  0  0  0
 10 17  2  0  0  0  0
 11 24  1  0  0  0  0
 12 14  2  0  0  0  0
 13  6  1  0  0  0  0
 13  5  2  0  0  0  0
 14  5  1  0  0  0  0
 15  1  1  0  0  0  0
 15 12  1  0  0  0  0
 17 16  1  0  0  0  0
 17 11  1  0  0  0  0
 18  2  2  0  0  0  0
 19 11  2  0  0  0  0
 20 22  1  0  0  0  0
 20 12  1  0  0  0  0
 21 20  2  0  0  0  0
 22 23  1  0  0  0  0
 24 32  1  0  0  0  0
 26 32  1  0  0  0  0
 26 30  1  0  0  0  0
 27 31  1  6  0  0  0
 27 28  1  0  0  0  0
 29 28  1  0  0  0  0
 30 25  1  6  0  0  0
 30 29  1  0  0  0  0
 32 27  1  0  0  0  0
M  END
>  <MODEL>
4

>  <REMARK>
 VINA RESULT:      -7.4      4.143      7.530
  Name = 
  4 active torsions:
  status: ('A' for Active; 'I' for Inactive)
    1  A    between atoms: C_1  and  O_10
    2  A    between atoms: C_1  and  C_19
    3  A    between atoms: C_16  and  C_27
    4  A    between atoms: C_27  and  N_32
                            x       y       z     vdW  Elec       q    Type
                         _______ _______ _______ _____ _____    ______ ____

>  <TORSDO>
F 4

$$$$
=
 OpenBabel11052421353D

 32 36  0  0  1  0  0  0  0  0999 V2000
  190.8100  171.2610  141.6470 C   0  0  2  0  0  3  0  0  0  0  0  0
  189.1020  175.1090  142.5130 C   0  0  0  0  0  0  0  0  0  0  0  0
  191.0910  175.1960  146.9370 C   0  0  0  0  0  3  0  0  0  0  0  0
  190.4780  176.4320  147.1400 C   0  0  0  0  0  3  0  0  0  0  0  0
  189.4590  173.2660  140.9840 C   0  0  0  0  0  0  0  0  0  0  0  0
  190.4820  173.2220  143.1830 C   0  0  0  0  0  3  0  0  0  0  0  0
  190.0670  170.3150  142.3270 F   0  0  0  0  0  0  0  0  0  0  0  0
  190.9080  174.5330  145.7240 C   0  0  0  0  0  3  0  0  0  0  0  0
  189.9110  174.4700  143.4810 C   0  0  0  0  0  0  0  0  0  0  0  0
  190.1160  175.1060  144.7180 C   0  0  0  0  0  0  0  0  0  0  0  0
  188.7160  176.9490  143.9720 C   0  0  0  0  0  0  0  0  0  0  0  0
  189.8850  171.5800  139.3560 C   0  0  0  0  0  0  0  0  0  0  0  0
  190.2630  172.6250  141.9390 C   0  0  0  0  0  0  0  0  0  0  0  0
  189.2560  172.6650  139.7020 N   0  0  0  0  0  0  0  0  0  0  0  0
  190.7790  170.9660  140.2460 O   0  0  0  0  0  0  0  0  0  0  0  0
  189.7110  176.9830  146.1620 N   0  0  0  0  0  0  0  0  0  0  0  0
  189.5140  176.3600  144.9660 C   0  0  0  0  0  0  0  0  0  0  0  0
  188.8820  174.5050  141.2720 C   0  0  0  0  0  3  0  0  0  0  0  0
  188.5380  176.3160  142.7810 N   0  0  0  0  0  0  0  0  0  0  0  0
  189.6890  171.0080  138.0200 C   0  0  0  0  0  0  0  0  0  0  0  0
  189.6700  169.7550  137.8650 O   0  0  0  0  0  0  0  0  0  0  0  0
  189.5250  171.8600  136.9270 O   0  0  0  0  0  0  0  0  0  0  0  0
  189.7070  171.4120  135.5930 C   0  0  0  0  0  1  0  0  0  0  0  0
  188.0900  178.2900  144.1800 C   0  0  0  0  0  2  0  0  0  0  0  0
  184.9230  176.7890  146.8690 C   0  0  0  0  0  1  0  0  0  0  0  0
  186.5140  178.4500  145.9040 C   0  0  0  0  0  2  0  0  0  0  0  0
  185.9360  179.1140  143.6610 C   0  0  2  0  0  3  0  0  0  0  0  0
  184.5770  179.5130  144.2650 C   0  0  0  0  0  2  0  0  0  0  0  0
  184.0660  178.4450  145.2270 C   0  0  0  0  0  2  0  0  0  0  0  0
  185.0710  178.2070  146.3550 C   0  0  1  0  0  3  0  0  0  0  0  0
  185.7020  178.5460  142.2720 C   0  0  0  0  0  1  0  0  0  0  0  0
  186.6740  178.1360  144.4830 N   0  0  0  0  0  0  0  0  0  0  0  0
  1 13  1  0  0  0  0
  1  7  1  1  0  0  0
  2 19  2  0  0  0  0
  2  9  1  0  0  0  0
  3  4  1  0  0  0  0
  5 18  2  0  0  0  0
  5 13  1  0  0  0  0
  6  9  1  0  0  0  0
  8  3  2  0  0  0  0
  9 10  2  0  0  0  0
 10 17  1  0  0  0  0
 10  8  1  0  0  0  0
 11 24  1  0  0  0  0
 11 17  2  0  0  0  0
 12 14  2  0  0  0  0
 12 15  1  0  0  0  0
 13  6  2  0  0  0  0
 14  5  1  0  0  0  0
 15  1  1  0  0  0  0
 16  4  2  0  0  0  0
 17 16  1  0  0  0  0
 18  2  1  0  0  0  0
 19 11  1  0  0  0  0
 20 12  1  0  0  0  0
 21 20  2  0  0  0  0
 22 20  1  0  0  0  0
 23 22  1  0  0  0  0
 24 32  1  0  0  0  0
 26 30  1  0  0  0  0
 27 31  1  6  0  0  0
 27 28  1  0  0  0  0
 27 32  1  0  0  0  0
 28 29  1  0  0  0  0
 29 30  1  0  0  0  0
 30 25  1  6  0  0  0
 32 26  1  0  0  0  0
M  END
>  <MODEL>
5

>  <REMARK>
 VINA RESULT:      -7.3      4.288      7.770
  Name = 
  4 active torsions:
  status: ('A' for Active; 'I' for Inactive)
    1  A    between atoms: C_1  and  O_10
    2  A    between atoms: C_1  and  C_19
    3  A    between atoms: C_16  and  C_27
    4  A    between atoms: C_27  and  N_32
                            x       y       z     vdW  Elec       q    Type
                         _______ _______ _______ _____ _____    ______ ____

>  <TORSDO>
F 4

$$$$
=
 OpenBabel11052421353D

 32 36  0  0  1  0  0  0  0  0999 V2000
  190.7870  175.3380  147.6060 C   0  0  2  0  0  3  0  0  0  0  0  0
  193.1980  176.1390  144.1380 C   0  0  0  0  0  0  0  0  0  0  0  0
  196.9980  173.7760  146.0140 C   0  0  0  0  0  3  0  0  0  0  0  0
  197.7130  174.1020  144.8620 C   0  0  0  0  0  3  0  0  0  0  0  0
  191.0870  176.3070  145.3130 C   0  0  0  0  0  0  0  0  0  0  0  0
  192.9410  175.1170  146.3300 C   0  0  0  0  0  3  0  0  0  0  0  0
  191.2060  176.1940  148.6080 F   0  0  0  0  0  0  0  0  0  0  0  0
  195.6760  174.2010  146.1410 C   0  0  0  0  0  3  0  0  0  0  0  0
  193.7410  175.3920  145.2090 C   0  0  0  0  0  0  0  0  0  0  0  0
  195.0730  174.9490  145.1190 C   0  0  0  0  0  0  0  0  0  0  0  0
  195.2470  176.0050  142.9360 C   0  0  0  0  0  0  0  0  0  0  0  0
  188.9300  176.3850  146.3180 C   0  0  0  0  0  0  0  0  0  0  0  0
  191.6190  175.5660  146.3800 C   0  0  0  0  0  0  0  0  0  0  0  0
  189.7270  176.7440  145.3550 N   0  0  0  0  0  0  0  0  0  0  0  0
  189.3960  175.5570  147.3510 O   0  0  0  0  0  0  0  0  0  0  0  0
  197.1240  174.8280  143.8740 N   0  0  0  0  0  0  0  0  0  0  0  0
  195.8330  175.2570  143.9690 C   0  0  0  0  0  0  0  0  0  0  0  0
  191.8760  176.5900  144.1960 C   0  0  0  0  0  3  0  0  0  0  0  0
  193.9560  176.4170  143.0450 N   0  0  0  0  0  0  0  0  0  0  0  0
  187.5270  176.8150  146.3150 C   0  0  0  0  0  0  0  0  0  0  0  0
  186.7490  176.4430  147.2360 O   0  0  0  0  0  0  0  0  0  0  0  0
  187.0660  177.6360  145.2850 O   0  0  0  0  0  0  0  0  0  0  0  0
  185.7090  178.0430  145.2020 C   0  0  0  0  0  1  0  0  0  0  0  0
  196.0060  176.3230  141.6870 C   0  0  0  0  0  2  0  0  0  0  0  0
  193.0890  173.8930  139.4280 C   0  0  0  0  0  1  0  0  0  0  0  0
  194.6160  175.8150  139.8730 C   0  0  0  0  0  2  0  0  0  0  0  0
  196.9440  175.1950  139.8340 C   0  0  2  0  0  3  0  0  0  0  0  0
  196.6520  174.6720  138.4160 C   0  0  0  0  0  2  0  0  0  0  0  0
  195.3390  173.8950  138.3740 C   0  0  0  0  0  2  0  0  0  0  0  0
  194.1760  174.7710  138.8420 C   0  0  1  0  0  3  0  0  0  0  0  0
  197.9410  174.2620  140.5000 C   0  0  0  0  0  1  0  0  0  0  0  0
  195.7360  175.3140  140.6730 N   0  0  0  0  0  0  0  0  0  0  0  0
  1  7  1  1  0  0  0
  2 18  2  0  0  0  0
  2  9  1  0  0  0  0
  3  8  1  0  0  0  0
  4  3  2  0  0  0  0
  5 14  1  0  0  0  0
  5 13  2  0  0  0  0
  6 13  1  0  0  0  0
  9  6  2  0  0  0  0
 10  9  1  0  0  0  0
 10  8  2  0  0  0  0
 11 19  2  0  0  0  0
 11 17  1  0  0  0  0
 12 15  1  0  0  0  0
 13  1  1  0  0  0  0
 14 12  2  0  0  0  0
 15  1  1  0  0  0  0
 16 17  2  0  0  0  0
 16  4  1  0  0  0  0
 17 10  1  0  0  0  0
 18  5  1  0  0  0  0
 19  2  1  0  0  0  0
 20 12  1  0  0  0  0
 20 21  2  0  0  0  0
 22 20  1  0  0  0  0
 23 22  1  0  0  0  0
 24 11  1  0  0  0  0
 26 32  1  0  0  0  0
 27 31  1  1  0  0  0
 27 32  1  0  0  0  0
 28 27  1  0  0  0  0
 29 28  1  0  0  0  0
 29 30  1  0  0  0  0
 30 25  1  1  0  0  0
 30 26  1  0  0  0  0
 32 24  1  0  0  0  0
M  END
>  <MODEL>
6

>  <REMARK>
 VINA RESULT:      -7.2      4.538      6.510
  Name = 
  4 active torsions:
  status: ('A' for Active; 'I' for Inactive)
    1  A    between atoms: C_1  and  O_10
    2  A    between atoms: C_1  and  C_19
    3  A    between atoms: C_16  and  C_27
    4  A    between atoms: C_27  and  N_32
                            x       y       z     vdW  Elec       q    Type
                         _______ _______ _______ _____ _____    ______ ____

>  <TORSDO>
F 4

$$$$
=
 OpenBabel11052421353D

 32 36  0  0  1  0  0  0  0  0999 V2000
  186.8370  176.3960  142.8080 C   0  0  2  0  0  3  0  0  0  0  0  0
  190.5280  175.5340  144.8360 C   0  0  0  0  0  0  0  0  0  0  0  0
  191.6610  172.0410  141.6640 C   0  0  0  0  0  3  0  0  0  0  0  0
  192.8250  171.8140  142.3980 C   0  0  0  0  0  3  0  0  0  0  0  0
  188.5010  176.8420  144.6300 C   0  0  0  0  0  0  0  0  0  0  0  0
  188.9840  175.1060  143.0070 C   0  0  0  0  0  3  0  0  0  0  0  0
  185.9410  175.3950  143.1340 F   0  0  0  0  0  0  0  0  0  0  0  0
  190.7730  173.0330  142.0810 C   0  0  0  0  0  3  0  0  0  0  0  0
  190.1820  174.8050  143.6750 C   0  0  0  0  0  0  0  0  0  0  0  0
  191.0500  173.7940  143.2260 C   0  0  0  0  0  0  0  0  0  0  0  0
  192.5350  174.2800  145.0890 C   0  0  0  0  0  0  0  0  0  0  0  0
  186.6190  178.2860  144.4170 C   0  0  0  0  0  0  0  0  0  0  0  0
  188.1500  176.1230  143.4770 C   0  0  0  0  0  0  0  0  0  0  0  0
  187.6590  177.8990  145.0960 N   0  0  0  0  0  0  0  0  0  0  0  0
  186.2940  177.6610  143.2040 O   0  0  0  0  0  0  0  0  0  0  0  0
  193.0890  172.5540  143.5080 N   0  0  0  0  0  0  0  0  0  0  0  0
  192.2410  173.5310  143.9390 C   0  0  0  0  0  0  0  0  0  0  0  0
  189.6870  176.5470  145.3050 C   0  0  0  0  0  3  0  0  0  0  0  0
  191.6810  175.2560  145.4990 N   0  0  0  0  0  0  0  0  0  0  0  0
  185.7960  179.4000  144.8990 C   0  0  0  0  0  0  0  0  0  0  0  0
  185.5660  180.3880  144.1470 O   0  0  0  0  0  0  0  0  0  0  0  0
  185.2730  179.3570  146.1910 O   0  0  0  0  0  0  0  0  0  0  0  0
  184.4440  178.2910  146.6300 C   0  0  0  0  0  1  0  0  0  0  0  0
  193.8010  174.0580  145.8530 C   0  0  0  0  0  2  0  0  0  0  0  0
  195.7210  176.2110  142.5060 C   0  0  0  0  0  1  0  0  0  0  0  0
  195.1810  175.6830  144.8840 C   0  0  0  0  0  2  0  0  0  0  0  0
  196.1030  173.5800  145.6140 C   0  0  2  0  0  3  0  0  0  0  0  0
  197.4580  174.1660  145.1750 C   0  0  0  0  0  2  0  0  0  0  0  0
  197.3440  174.8710  143.8280 C   0  0  0  0  0  2  0  0  0  0  0  0
  196.3020  175.9910  143.8880 C   0  0  1  0  0  3  0  0  0  0  0  0
  196.0890  172.0950  145.2910 C   0  0  0  0  0  1  0  0  0  0  0  0
  194.9490  174.2390  144.9750 N   0  0  0  0  0  0  0  0  0  0  0  0
  1  7  1  1  0  0  0
  1 15  1  0  0  0  0
  1 13  1  0  0  0  0
  2 18  2  0  0  0  0
  2 19  1  0  0  0  0
  3  8  2  0  0  0  0
  3  4  1  0  0  0  0
  4 16  2  0  0  0  0
  5 14  1  0  0  0  0
  5 18  1  0  0  0  0
  6 13  1  0  0  0  0
  6  9  2  0  0  0  0
  8 10  1  0  0  0  0
  9  2  1  0  0  0  0
 10  9  1  0  0  0  0
 10 17  2  0  0  0  0
 11 19  2  0  0  0  0
 11 24  1  0  0  0  0
 12 20  1  0  0  0  0
 12 14  2  0  0  0  0
 13  5  2  0  0  0  0
 15 12  1  0  0  0  0
 16 17  1  0  0  0  0
 17 11  1  0  0  0  0
 20 22  1  0  0  0  0
 21 20  2  0  0  0  0
 22 23  1  0  0  0  0
 26 32  1  0  0  0  0
 27 31  1  6  0  0  0
 28 27  1  0  0  0  0
 29 30  1  0  0  0  0
 29 28  1  0  0  0  0
 30 25  1  6  0  0  0
 30 26  1  0  0  0  0
 32 27  1  0  0  0  0
 32 24  1  0  0  0  0
M  END
>  <MODEL>
7

>  <REMARK>
 VINA RESULT:      -7.1      3.273      5.312
  Name = 
  4 active torsions:
  status: ('A' for Active; 'I' for Inactive)
    1  A    between atoms: C_1  and  O_10
    2  A    between atoms: C_1  and  C_19
    3  A    between atoms: C_16  and  C_27
    4  A    between atoms: C_27  and  N_32
                            x       y       z     vdW  Elec       q    Type
                         _______ _______ _______ _____ _____    ______ ____

>  <TORSDO>
F 4

$$$$
=
 OpenBabel11052421353D

 32 36  0  0  1  0  0  0  0  0999 V2000
  189.1440  177.1490  146.8520 C   0  0  2  0  0  3  0  0  0  0  0  0
  191.7710  176.8380  143.4630 C   0  0  0  0  0  0  0  0  0  0  0  0
  195.3160  174.9170  146.1620 C   0  0  0  0  0  3  0  0  0  0  0  0
  196.1070  174.8750  145.0140 C   0  0  0  0  0  3  0  0  0  0  0  0
  189.6190  177.4250  144.4060 C   0  0  0  0  0  0  0  0  0  0  0  0
  191.3410  176.4810  145.8300 C   0  0  0  0  0  3  0  0  0  0  0  0
  189.5650  178.2290  147.6050 F   0  0  0  0  0  0  0  0  0  0  0  0
  194.0190  175.4220  146.0800 C   0  0  0  0  0  3  0  0  0  0  0  0
  192.2120  176.3940  144.7320 C   0  0  0  0  0  0  0  0  0  0  0  0
  193.5160  175.8820  144.8550 C   0  0  0  0  0  0  0  0  0  0  0  0
  193.8660  176.2800  142.4820 C   0  0  0  0  0  0  0  0  0  0  0  0
  187.4230  177.8800  145.2060 C   0  0  0  0  0  0  0  0  0  0  0  0
  190.0490  176.9870  145.6680 C   0  0  0  0  0  0  0  0  0  0  0  0
  188.2890  177.9200  144.2360 N   0  0  0  0  0  0  0  0  0  0  0  0
  187.7840  177.3520  146.4550 O   0  0  0  0  0  0  0  0  0  0  0  0
  195.6150  175.3230  143.8280 N   0  0  0  0  0  0  0  0  0  0  0  0
  194.3510  175.8220  143.7170 C   0  0  0  0  0  0  0  0  0  0  0  0
  190.4790  177.3480  143.3080 C   0  0  0  0  0  3  0  0  0  0  0  0
  192.5990  176.7650  142.3880 N   0  0  0  0  0  0  0  0  0  0  0  0
  186.0530  178.3580  144.9930 C   0  0  0  0  0  0  0  0  0  0  0  0
  185.8430  179.3820  144.2850 O   0  0  0  0  0  0  0  0  0  0  0  0
  184.9890  177.6710  145.5780 O   0  0  0  0  0  0  0  0  0  0  0  0
  184.1220  178.2900  146.5160 C   0  0  0  0  0  1  0  0  0  0  0  0
  194.7040  176.2010  141.2460 C   0  0  0  0  0  2  0  0  0  0  0  0
  192.8040  172.2570  140.6520 C   0  0  0  0  0  1  0  0  0  0  0  0
  193.5910  174.5410  140.0280 C   0  0  0  0  0  2  0  0  0  0  0  0
  195.9920  174.7170  139.9330 C   0  0  2  0  0  3  0  0  0  0  0  0
  195.9110  173.5570  138.9230 C   0  0  0  0  0  2  0  0  0  0  0  0
  194.9370  172.4820  139.3950 C   0  0  0  0  0  2  0  0  0  0  0  0
  193.5400  173.0700  139.6060 C   0  0  1  0  0  3  0  0  0  0  0  0
  197.2360  174.5330  140.7850 C   0  0  0  0  0  1  0  0  0  0  0  0
  194.8030  174.8180  140.8010 N   0  0  0  0  0  0  0  0  0  0  0  0
  1  7  1  6  0  0  0
  2  9  1  0  0  0  0
  4  3  2  0  0  0  0
  5 13  2  0  0  0  0
  8  3  1  0  0  0  0
  9 10  1  0  0  0  0
  9  6  2  0  0  0  0
 10  8  2  0  0  0  0
 11 17  1  0  0  0  0
 12 15  1  0  0  0  0
 13  6  1  0  0  0  0
 13  1  1  0  0  0  0
 14  5  1  0  0  0  0
 14 12  2  0  0  0  0
 15  1  1  0  0  0  0
 16  4  1  0  0  0  0
 17 16  2  0  0  0  0
 17 10  1  0  0  0  0
 18  2  2  0  0  0  0
 18  5  1  0  0  0  0
 19 11  2  0  0  0  0
 19  2  1  0  0  0  0
 20 12  1  0  0  0  0
 20 22  1  0  0  0  0
 21 20  2  0  0  0  0
 22 23  1  0  0  0  0
 24 11  1  0  0  0  0
 26 32  1  0  0  0  0
 27 31  1  1  0  0  0
 27 32  1  0  0  0  0
 28 29  1  0  0  0  0
 28 27  1  0  0  0  0
 29 30  1  0  0  0  0
 30 26  1  0  0  0  0
 30 25  1  1  0  0  0
 32 24  1  0  0  0  0
M  END
>  <MODEL>
8

>  <REMARK>
 VINA RESULT:      -7.1      3.444      4.961
  Name = 
  4 active torsions:
  status: ('A' for Active; 'I' for Inactive)
    1  A    between atoms: C_1  and  O_10
    2  A    between atoms: C_1  and  C_19
    3  A    between atoms: C_16  and  C_27
    4  A    between atoms: C_27  and  N_32
                            x       y       z     vdW  Elec       q    Type
                         _______ _______ _______ _____ _____    ______ ____

>  <TORSDO>
F 4

$$$$
=
 OpenBabel11052421353D

 32 36  0  0  1  0  0  0  0  0999 V2000
  186.6130  176.3120  142.5160 C   0  0  2  0  0  3  0  0  0  0  0  0
  190.8540  176.2310  143.2150 C   0  0  0  0  0  0  0  0  0  0  0  0
  191.5130  172.7480  139.9010 C   0  0  0  0  0  3  0  0  0  0  0  0
  192.8730  172.7740  140.2090 C   0  0  0  0  0  3  0  0  0  0  0  0
  188.6670  177.1640  143.6740 C   0  0  0  0  0  0  0  0  0  0  0  0
  188.9050  175.4160  142.0090 C   0  0  0  0  0  3  0  0  0  0  0  0
  186.0700  175.2030  143.1360 F   0  0  0  0  0  0  0  0  0  0  0  0
  190.6430  173.6070  140.5730 C   0  0  0  0  0  3  0  0  0  0  0  0
  190.2890  175.3690  142.2460 C   0  0  0  0  0  0  0  0  0  0  0  0
  191.1330  174.4870  141.5490 C   0  0  0  0  0  0  0  0  0  0  0  0
  193.0270  175.3520  142.8050 C   0  0  0  0  0  0  0  0  0  0  0  0
  186.5890  178.2540  144.0760 C   0  0  0  0  0  0  0  0  0  0  0  0
  188.0990  176.3130  142.7140 C   0  0  0  0  0  0  0  0  0  0  0  0
  187.8440  178.0980  144.3770 N   0  0  0  0  0  0  0  0  0  0  0  0
  186.0070  177.4950  143.0490 O   0  0  0  0  0  0  0  0  0  0  0  0
  193.3430  173.6290  141.1570 N   0  0  0  0  0  0  0  0  0  0  0  0
  192.5180  174.4800  141.8300 C   0  0  0  0  0  0  0  0  0  0  0  0
  190.0410  177.1220  143.9200 C   0  0  0  0  0  3  0  0  0  0  0  0
  192.1900  176.2000  143.4610 N   0  0  0  0  0  0  0  0  0  0  0  0
  185.7780  179.2490  144.7860 C   0  0  0  0  0  0  0  0  0  0  0  0
  185.4050  180.3000  144.1950 O   0  0  0  0  0  0  0  0  0  0  0  0
  185.4250  179.0210  146.1170 O   0  0  0  0  0  0  0  0  0  0  0  0
  184.4450  178.0620  146.4800 C   0  0  0  0  0  1  0  0  0  0  0  0
  194.4910  175.4010  143.1080 C   0  0  0  0  0  2  0  0  0  0  0  0
  195.0900  171.1270  144.0520 C   0  0  0  0  0  1  0  0  0  0  0  0
  195.7430  173.4450  143.3980 C   0  0  0  0  0  2  0  0  0  0  0  0
  195.5230  175.0280  145.2010 C   0  0  2  0  0  3  0  0  0  0  0  0
  196.4600  174.0840  145.9770 C   0  0  0  0  0  2  0  0  0  0  0  0
  196.0580  172.6250  145.7820 C   0  0  0  0  0  2  0  0  0  0  0  0
  196.0760  172.2520  144.2990 C   0  0  1  0  0  3  0  0  0  0  0  0
  194.5000  175.6000  146.1680 C   0  0  0  0  0  1  0  0  0  0  0  0
  194.8320  174.3690  144.0770 N   0  0  0  0  0  0  0  0  0  0  0  0
  1 13  1  0  0  0  0
  1 15  1  0  0  0  0
  1  7  1  1  0  0  0
  2 19  1  0  0  0  0
  2 18  1  0  0  0  0
  3  4  2  0  0  0  0
  3  8  1  0  0  0  0
  4 16  1  0  0  0  0
  5 18  2  0  0  0  0
  5 14  1  0  0  0  0
  6  9  1  0  0  0  0
  6 13  2  0  0  0  0
  8 10  2  0  0  0  0
  9  2  2  0  0  0  0
 10 17  1  0  0  0  0
 10  9  1  0  0  0  0
 11 24  1  0  0  0  0
 11 19  2  0  0  0  0
 12 14  2  0  0  0  0
 12 20  1  0  0  0  0
 13  5  1  0  0  0  0
 15 12  1  0  0  0  0
 16 17  2  0  0  0  0
 17 11  1  0  0  0  0
 20 22  1  0  0  0  0
 21 20  2  0  0  0  0
 22 23  1  0  0  0  0
 24 32  1  0  0  0  0
 26 32  1  0  0  0  0
 26 30  1  0  0  0  0
 27 28  1  0  0  0  0
 27 31  1  1  0  0  0
 29 28  1  0  0  0  0
 30 25  1  1  0  0  0
 30 29  1  0  0  0  0
 32 27  1  0  0  0  0
M  END
>  <MODEL>
9

>  <REMARK>
 VINA RESULT:      -7.1      3.091      5.379
  Name = 
  4 active torsions:
  status: ('A' for Active; 'I' for Inactive)
    1  A    between atoms: C_1  and  O_10
    2  A    between atoms: C_1  and  C_19
    3  A    between atoms: C_16  and  C_27
    4  A    between atoms: C_27  and  N_32
                            x       y       z     vdW  Elec       q    Type
                         _______ _______ _______ _____ _____    ______ ____

>  <TORSDO>
F 4

$$$$
