=
 OpenBabel11052418183D

 28 29  0  0  1  0  0  0  0  0999 V2000
  191.8780  174.3130  143.4520 C   0  0  0  0  0  3  0  0  0  0  0  0
  191.9000  176.9760  144.5790 O   0  0  0  0  0  1  0  0  0  0  0  0
  191.6180  176.2610  145.7470 C   0  0  1  0  0  3  0  0  0  0  0  0
  189.3950  172.2650  141.5470 O   0  0  0  0  0  1  0  0  0  0  0  0
  193.6810  175.0160  145.6330 O   0  0  0  0  0  1  0  0  0  0  0  0
  189.2930  177.3670  145.4280 C   0  0  0  0  0  2  0  0  0  0  0  0
  188.5020  176.8910  144.2050 C   0  0  2  0  0  3  0  0  0  0  0  0
  190.1150  176.2630  146.1140 C   0  0  1  0  0  3  0  0  0  0  0  0
  188.9420  174.0120  143.1260 C   0  0  0  0  0  2  0  0  0  0  0  0
  189.4300  176.6160  143.0170 C   0  0  0  0  0  2  0  0  0  0  0  0
  192.1840  172.3170  142.2190 O   0  0  0  0  0  1  0  0  0  0  0  0
  188.7510  175.3450  141.8980 S   0  0  0  0  0  0  0  0  0  0  0  0
  189.9090  172.9180  142.6680 C   0  0  2  0  0  3  0  0  0  0  0  0
  191.3340  173.4110  142.3850 C   0  0  1  0  0  3  0  0  0  0  0  0
  191.7930  174.0080  144.6990 N   0  0  0  0  0  0  0  0  0  0  0  0
  192.2950  174.8780  145.7430 C   0  0  2  0  0  3  0  0  0  0  0  0
  186.2730  178.6530  141.9390 O   0  0  0  0  0  0  0  0  0  0  0  0
  186.0280  177.2730  143.8610 C   0  0  1  0  0  3  0  0  0  0  0  0
  185.5770  177.5350  142.4220 C   0  0  1  0  0  3  0  0  0  0  0  0
  187.3920  177.9030  143.8930 C   0  0  2  0  0  3  0  0  0  0  0  0
  187.5430  178.5650  142.5310 C   0  0  0  0  0  2  0  0  0  0  0  0
  185.1590  177.8610  144.9880 C   0  0  0  0  0  3  0  0  0  0  0  0
  185.5470  179.2940  145.2980 C   0  0  0  0  0  1  0  0  0  0  0  0
  185.1400  177.0220  146.2580 C   0  0  0  0  0  1  0  0  0  0  0  0
  183.9010  178.2880  140.9740 C   0  0  0  0  0  1  0  0  0  0  0  0
  184.1390  177.7270  142.2910 N   0  0  0  0  0  2  0  0  0  0  0  0
  188.9540  174.7630  147.2620 C   0  0  0  0  0  1  0  0  0  0  0  0
  189.5070  175.0060  146.0040 O   0  0  0  0  0  0  0  0  0  0  0  0
  1 15  2  0  0  0  0
  3  2  1  6  0  0  0
  3  8  1  0  0  0  0
  6  8  1  0  0  0  0
  7 10  1  6  0  0  0
  7  6  1  0  0  0  0
  8 28  1  6  0  0  0
 12 10  1  0  0  0  0
 12  9  1  0  0  0  0
 13  4  1  6  0  0  0
 13  9  1  0  0  0  0
 14 11  1  1  0  0  0
 14 13  1  0  0  0  0
 14  1  1  0  0  0  0
 15 16  1  0  0  0  0
 16  5  1  6  0  0  0
 16  3  1  0  0  0  0
 17 19  1  0  0  0  0
 17 21  1  0  0  0  0
 18 20  1  0  0  0  0
 18 22  1  1  0  0  0
 19 26  1  1  0  0  0
 19 18  1  0  0  0  0
 20 21  1  6  0  0  0
 20  7  1  0  0  0  0
 22 23  1  0  0  0  0
 22 24  1  0  0  0  0
 25 26  1  0  0  0  0
 28 27  1  0  0  0  0
M  END
>  <MODEL>
1

>  <REMARK>
 VINA RESULT:      -7.3      0.000      0.000
  Name = 
  4 active torsions:
  status: ('A' for Active; 'I' for Inactive)
    1  A    between atoms: C_9  and  C_14
    2  A    between atoms: C_10  and  C_13
    3  A    between atoms: C_11  and  O_22
    4  A    between atoms: C_12  and  N_23
                            x       y       z     vdW  Elec       q    Type
                         _______ _______ _______ _____ _____    ______ ____

>  <TORSDO>
F 4

$$$$
=
 OpenBabel11052418183D

 28 29  0  0  1  0  0  0  0  0999 V2000
  185.7920  178.2920  144.1970 C   0  0  0  0  0  3  0  0  0  0  0  0
  187.6320  178.6700  141.9990 O   0  0  0  0  0  1  0  0  0  0  0  0
  186.9880  177.5190  141.5330 C   0  0  1  0  0  3  0  0  0  0  0  0
  186.0320  176.8200  147.6270 O   0  0  0  0  0  1  0  0  0  0  0  0
  184.8340  178.6020  141.4620 O   0  0  0  0  0  1  0  0  0  0  0  0
  189.2780  176.4450  142.1120 C   0  0  0  0  0  2  0  0  0  0  0  0
  189.6220  176.3990  143.6030 C   0  0  2  0  0  3  0  0  0  0  0  0
  187.7870  176.2230  141.8030 C   0  0  1  0  0  3  0  0  0  0  0  0
  187.3340  176.2460  145.6970 C   0  0  0  0  0  2  0  0  0  0  0  0
  189.1170  177.6510  144.3290 C   0  0  0  0  0  2  0  0  0  0  0  0
  184.3070  178.4660  146.0310 O   0  0  0  0  0  1  0  0  0  0  0  0
  188.7510  177.3220  146.0860 S   0  0  0  0  0  0  0  0  0  0  0  0
  186.0080  176.7920  146.2320 C   0  0  2  0  0  3  0  0  0  0  0  0
  185.6260  178.1730  145.6830 C   0  0  1  0  0  3  0  0  0  0  0  0
  185.3380  177.3950  143.3950 N   0  0  0  0  0  0  0  0  0  0  0  0
  185.5090  177.4850  141.9590 C   0  0  2  0  0  3  0  0  0  0  0  0
  192.8720  177.1310  145.0550 O   0  0  0  0  0  0  0  0  0  0  0  0
  191.4470  175.2330  144.9070 C   0  0  1  0  0  3  0  0  0  0  0  0
  192.2900  176.1170  145.8290 C   0  0  1  0  0  3  0  0  0  0  0  0
  191.1290  176.1620  143.7690 C   0  0  2  0  0  3  0  0  0  0  0  0
  191.9100  177.4310  144.0780 C   0  0  0  0  0  2  0  0  0  0  0  0
  192.1070  173.9530  144.3640 C   0  0  0  0  0  3  0  0  0  0  0  0
  192.6950  174.1760  142.9830 C   0  0  0  0  0  1  0  0  0  0  0  0
  191.1940  172.7350  144.3680 C   0  0  0  0  0  1  0  0  0  0  0  0
  194.5840  176.0090  146.2740 C   0  0  0  0  0  1  0  0  0  0  0  0
  193.3090  175.3810  146.5650 N   0  0  0  0  0  2  0  0  0  0  0  0
  187.4640  174.0810  142.2780 C   0  0  0  0  0  1  0  0  0  0  0  0
  187.1770  175.3690  142.7310 O   0  0  0  0  0  0  0  0  0  0  0  0
  1 14  1  0  0  0  0
  3  8  1  0  0  0  0
  3 16  1  0  0  0  0
  3  2  1  1  0  0  0
  7  6  1  6  0  0  0
  7 20  1  0  0  0  0
  7 10  1  0  0  0  0
  8  6  1  0  0  0  0
  8 28  1  1  0  0  0
  9 12  1  0  0  0  0
  9 13  1  0  0  0  0
 10 12  1  0  0  0  0
 13  4  1  1  0  0  0
 14 11  1  6  0  0  0
 14 13  1  0  0  0  0
 15  1  2  0  0  0  0
 16  5  1  1  0  0  0
 16 15  1  0  0  0  0
 17 19  1  0  0  0  0
 18 22  1  6  0  0  0
 18 19  1  0  0  0  0
 19 26  1  6  0  0  0
 20 21  1  1  0  0  0
 20 18  1  0  0  0  0
 21 17  1  0  0  0  0
 22 24  1  0  0  0  0
 23 22  1  0  0  0  0
 25 26  1  0  0  0  0
 27 28  1  0  0  0  0
M  END
>  <MODEL>
2

>  <REMARK>
 VINA RESULT:      -6.7      2.281      7.106
  Name = 
  4 active torsions:
  status: ('A' for Active; 'I' for Inactive)
    1  A    between atoms: C_9  and  C_14
    2  A    between atoms: C_10  and  C_13
    3  A    between atoms: C_11  and  O_22
    4  A    between atoms: C_12  and  N_23
                            x       y       z     vdW  Elec       q    Type
                         _______ _______ _______ _____ _____    ______ ____

>  <TORSDO>
F 4

$$$$
=
 OpenBabel11052418183D

 28 29  0  0  1  0  0  0  0  0999 V2000
  193.1720  174.5300  143.6840 C   0  0  0  0  0  3  0  0  0  0  0  0
  192.2680  177.2630  143.9570 O   0  0  0  0  0  1  0  0  0  0  0  0
  192.6540  177.0420  145.2820 C   0  0  1  0  0  3  0  0  0  0  0  0
  191.4980  171.1870  143.5680 O   0  0  0  0  0  1  0  0  0  0  0  0
  194.9500  176.6180  144.6740 O   0  0  0  0  0  1  0  0  0  0  0  0
  190.0870  177.0820  145.6550 C   0  0  0  0  0  2  0  0  0  0  0  0
  189.3150  175.9150  145.0330 C   0  0  2  0  0  3  0  0  0  0  0  0
  191.4680  176.6980  146.2130 C   0  0  1  0  0  3  0  0  0  0  0  0
  190.7230  173.1710  144.6710 C   0  0  0  0  0  2  0  0  0  0  0  0
  189.9240  175.5000  143.6890 C   0  0  0  0  0  2  0  0  0  0  0  0
  194.0240  172.4290  143.0090 O   0  0  0  0  0  1  0  0  0  0  0  0
  189.6360  173.7360  143.3230 S   0  0  0  0  0  0  0  0  0  0  0  0
  191.9280  172.3720  144.1670 C   0  0  2  0  0  3  0  0  0  0  0  0
  192.8440  173.1450  143.2100 C   0  0  1  0  0  3  0  0  0  0  0  0
  193.5600  174.7540  144.8900 N   0  0  0  0  0  0  0  0  0  0  0  0
  193.8600  176.0880  145.3690 C   0  0  2  0  0  3  0  0  0  0  0  0
  186.2760  177.4410  146.3130 O   0  0  0  0  0  0  0  0  0  0  0  0
  187.6030  177.6440  144.3490 C   0  0  1  0  0  3  0  0  0  0  0  0
  186.9010  178.3880  145.4880 C   0  0  1  0  0  3  0  0  0  0  0  0
  187.8280  176.2810  144.9430 C   0  0  2  0  0  3  0  0  0  0  0  0
  187.1340  176.3310  146.2960 C   0  0  0  0  0  2  0  0  0  0  0  0
  186.8390  177.5120  143.0200 C   0  0  0  0  0  3  0  0  0  0  0  0
  186.3270  176.0990  142.8130 C   0  0  0  0  0  1  0  0  0  0  0  0
  187.6250  177.9820  141.8040 C   0  0  0  0  0  1  0  0  0  0  0  0
  184.6440  178.9990  145.5470 C   0  0  0  0  0  1  0  0  0  0  0  0
  185.9430  179.3830  145.0260 N   0  0  0  0  0  2  0  0  0  0  0  0
  191.2160  175.4950  148.0590 C   0  0  0  0  0  1  0  0  0  0  0  0
  191.4950  175.3830  146.6960 O   0  0  0  0  0  0  0  0  0  0  0  0
  1 15  2  0  0  0  0
  3  2  1  6  0  0  0
  3 16  1  0  0  0  0
  3  8  1  0  0  0  0
  6  8  1  0  0  0  0
  7 10  1  6  0  0  0
  7  6  1  0  0  0  0
  8 28  1  6  0  0  0
 12 10  1  0  0  0  0
 12  9  1  0  0  0  0
 13  4  1  6  0  0  0
 13  9  1  0  0  0  0
 14 11  1  1  0  0  0
 14  1  1  0  0  0  0
 14 13  1  0  0  0  0
 15 16  1  0  0  0  0
 16  5  1  6  0  0  0
 18 22  1  6  0  0  0
 18 20  1  0  0  0  0
 18 19  1  0  0  0  0
 19 26  1  6  0  0  0
 19 17  1  0  0  0  0
 20  7  1  0  0  0  0
 20 21  1  1  0  0  0
 21 17  1  0  0  0  0
 23 22  1  0  0  0  0
 24 22  1  0  0  0  0
 26 25  1  0  0  0  0
 28 27  1  0  0  0  0
M  END
>  <MODEL>
3

>  <REMARK>
 VINA RESULT:      -6.6      2.077      2.770
  Name = 
  4 active torsions:
  status: ('A' for Active; 'I' for Inactive)
    1  A    between atoms: C_9  and  C_14
    2  A    between atoms: C_10  and  C_13
    3  A    between atoms: C_11  and  O_22
    4  A    between atoms: C_12  and  N_23
                            x       y       z     vdW  Elec       q    Type
                         _______ _______ _______ _____ _____    ______ ____

>  <TORSDO>
F 4

$$$$
=
 OpenBabel11052418183D

 28 29  0  0  1  0  0  0  0  0999 V2000
  186.0230  178.4690  143.4720 C   0  0  0  0  0  3  0  0  0  0  0  0
  188.4870  178.2910  141.9690 O   0  0  0  0  0  1  0  0  0  0  0  0
  187.8200  177.2020  141.4000 C   0  0  1  0  0  3  0  0  0  0  0  0
  184.9250  177.4130  146.8880 O   0  0  0  0  0  1  0  0  0  0  0  0
  186.0260  178.5790  140.5590 O   0  0  0  0  0  1  0  0  0  0  0  0
  189.5850  175.8750  142.7630 C   0  0  0  0  0  2  0  0  0  0  0  0
  189.4390  175.9630  144.2850 C   0  0  2  0  0  3  0  0  0  0  0  0
  188.2470  175.8430  142.0040 C   0  0  1  0  0  3  0  0  0  0  0  0
  186.6300  176.4160  145.5290 C   0  0  0  0  0  2  0  0  0  0  0  0
  188.9720  177.3560  144.7190 C   0  0  0  0  0  2  0  0  0  0  0  0
  184.1040  179.0900  144.7090 O   0  0  0  0  0  1  0  0  0  0  0  0
  188.0300  177.3070  146.2800 S   0  0  0  0  0  0  0  0  0  0  0  0
  185.3270  177.2170  145.5660 C   0  0  2  0  0  3  0  0  0  0  0  0
  185.3900  178.5610  144.8290 C   0  0  1  0  0  3  0  0  0  0  0  0
  185.6830  177.5580  142.6310 N   0  0  0  0  0  0  0  0  0  0  0  0
  186.3010  177.4430  141.3250 C   0  0  2  0  0  3  0  0  0  0  0  0
  193.0420  175.4930  144.3230 O   0  0  0  0  0  0  0  0  0  0  0  0
  191.4480  176.6550  145.6530 C   0  0  1  0  0  3  0  0  0  0  0  0
  192.7800  176.7430  144.9030 C   0  0  1  0  0  3  0  0  0  0  0  0
  190.7530  175.5250  144.9460 C   0  0  2  0  0  3  0  0  0  0  0  0
  191.7810  174.9980  143.9560 C   0  0  0  0  0  2  0  0  0  0  0  0
  191.5110  176.3620  147.1630 C   0  0  0  0  0  3  0  0  0  0  0  0
  190.7280  175.1120  147.5180 C   0  0  0  0  0  1  0  0  0  0  0  0
  191.0830  177.5310  148.0390 C   0  0  0  0  0  1  0  0  0  0  0  0
  194.8870  176.1110  145.6970 C   0  0  0  0  0  1  0  0  0  0  0  0
  193.8910  177.1660  145.7430 N   0  0  0  0  0  2  0  0  0  0  0  0
  187.3140  173.8670  142.3790 C   0  0  0  0  0  1  0  0  0  0  0  0
  187.2360  175.2130  142.7410 O   0  0  0  0  0  0  0  0  0  0  0  0
  1 14  1  0  0  0  0
  3  2  1  1  0  0  0
  3  8  1  0  0  0  0
  7  6  1  6  0  0  0
  7 10  1  0  0  0  0
  7 20  1  0  0  0  0
  8 28  1  1  0  0  0
  8  6  1  0  0  0  0
  9 13  1  0  0  0  0
  9 12  1  0  0  0  0
 10 12  1  0  0  0  0
 13  4  1  1  0  0  0
 14 11  1  6  0  0  0
 14 13  1  0  0  0  0
 15  1  2  0  0  0  0
 16  5  1  6  0  0  0
 16  3  1  0  0  0  0
 16 15  1  0  0  0  0
 17 19  1  0  0  0  0
 18 22  1  1  0  0  0
 19 18  1  0  0  0  0
 19 26  1  1  0  0  0
 20 21  1  6  0  0  0
 20 18  1  0  0  0  0
 21 17  1  0  0  0  0
 22 23  1  0  0  0  0
 22 24  1  0  0  0  0
 25 26  1  0  0  0  0
 27 28  1  0  0  0  0
M  END
>  <MODEL>
4

>  <REMARK>
 VINA RESULT:      -6.5      2.311      6.919
  Name = 
  4 active torsions:
  status: ('A' for Active; 'I' for Inactive)
    1  A    between atoms: C_9  and  C_14
    2  A    between atoms: C_10  and  C_13
    3  A    between atoms: C_11  and  O_22
    4  A    between atoms: C_12  and  N_23
                            x       y       z     vdW  Elec       q    Type
                         _______ _______ _______ _____ _____    ______ ____

>  <TORSDO>
F 4

$$$$
=
 OpenBabel11052418183D

 28 29  0  0  1  0  0  0  0  0999 V2000
  187.2060  178.0930  144.2840 C   0  0  0  0  0  3  0  0  0  0  0  0
  189.2230  178.1580  142.2120 O   0  0  0  0  0  1  0  0  0  0  0  0
  188.3980  177.1700  141.6650 C   0  0  1  0  0  3  0  0  0  0  0  0
  186.9330  176.5120  147.6620 O   0  0  0  0  0  1  0  0  0  0  0  0
  186.5060  178.6580  141.5110 O   0  0  0  0  0  1  0  0  0  0  0  0
  190.3920  175.6510  142.3340 C   0  0  0  0  0  2  0  0  0  0  0  0
  190.6240  175.4980  143.8410 C   0  0  2  0  0  3  0  0  0  0  0  0
  188.9100  175.7350  141.9310 C   0  0  1  0  0  3  0  0  0  0  0  0
  188.2190  175.7440  145.7900 C   0  0  0  0  0  2  0  0  0  0  0  0
  190.3280  176.8050  144.5830 C   0  0  0  0  0  2  0  0  0  0  0  0
  185.6690  178.5080  146.0330 O   0  0  0  0  0  1  0  0  0  0  0  0
  189.7910  176.5090  146.3020 S   0  0  0  0  0  0  0  0  0  0  0  0
  186.9940  176.5260  146.2680 C   0  0  2  0  0  3  0  0  0  0  0  0
  186.9250  177.9690  145.7520 C   0  0  1  0  0  3  0  0  0  0  0  0
  186.6390  177.3240  143.4230 N   0  0  0  0  0  0  0  0  0  0  0  0
  186.9170  177.4170  142.0040 C   0  0  2  0  0  3  0  0  0  0  0  0
  194.0180  174.7330  142.7900 O   0  0  0  0  0  0  0  0  0  0  0  0
  193.0030  176.0460  144.4950 C   0  0  1  0  0  3  0  0  0  0  0  0
  194.0390  176.0110  143.3690 C   0  0  1  0  0  3  0  0  0  0  0  0
  192.0420  174.9650  144.0840 C   0  0  2  0  0  3  0  0  0  0  0  0
  192.6720  174.3370  142.8490 C   0  0  0  0  0  2  0  0  0  0  0  0
  193.5080  175.7750  145.9230 C   0  0  0  0  0  3  0  0  0  0  0  0
  192.8490  174.5460  146.5210 C   0  0  0  0  0  1  0  0  0  0  0  0
  193.3760  176.9660  146.8630 C   0  0  0  0  0  1  0  0  0  0  0  0
  196.2110  176.4560  142.6190 C   0  0  0  0  0  1  0  0  0  0  0  0
  195.3840  176.3550  143.8090 N   0  0  0  0  0  2  0  0  0  0  0  0
  187.8500  173.7960  142.1140 C   0  0  0  0  0  1  0  0  0  0  0  0
  188.0860  174.9940  142.7890 O   0  0  0  0  0  0  0  0  0  0  0  0
  1 14  1  0  0  0  0
  3  8  1  0  0  0  0
  3 16  1  0  0  0  0
  3  2  1  1  0  0  0
  7  6  1  6  0  0  0
  7 20  1  0  0  0  0
  7 10  1  0  0  0  0
  8  6  1  0  0  0  0
  8 28  1  1  0  0  0
  9 13  1  0  0  0  0
  9 12  1  0  0  0  0
 10 12  1  0  0  0  0
 13  4  1  1  0  0  0
 14 11  1  6  0  0  0
 14 13  1  0  0  0  0
 15  1  2  0  0  0  0
 16  5  1  1  0  0  0
 16 15  1  0  0  0  0
 17 21  1  0  0  0  0
 17 19  1  0  0  0  0
 18 22  1  1  0  0  0
 19 26  1  1  0  0  0
 19 18  1  0  0  0  0
 20 21  1  6  0  0  0
 20 18  1  0  0  0  0
 22 23  1  0  0  0  0
 22 24  1  0  0  0  0
 25 26  1  0  0  0  0
 27 28  1  0  0  0  0
M  END
>  <MODEL>
5

>  <REMARK>
 VINA RESULT:      -6.3      2.530      7.053
  Name = 
  4 active torsions:
  status: ('A' for Active; 'I' for Inactive)
    1  A    between atoms: C_9  and  C_14
    2  A    between atoms: C_10  and  C_13
    3  A    between atoms: C_11  and  O_22
    4  A    between atoms: C_12  and  N_23
                            x       y       z     vdW  Elec       q    Type
                         _______ _______ _______ _____ _____    ______ ____

>  <TORSDO>
F 4

$$$$
=
 OpenBabel11052418183D

 28 29  0  0  1  0  0  0  0  0999 V2000
  186.0890  178.3300  143.3650 C   0  0  0  0  0  3  0  0  0  0  0  0
  188.4860  178.1930  141.7530 O   0  0  0  0  0  1  0  0  0  0  0  0
  187.8480  177.0450  141.2710 C   0  0  1  0  0  3  0  0  0  0  0  0
  185.2070  177.3990  146.8780 O   0  0  0  0  0  1  0  0  0  0  0  0
  185.9500  178.2900  140.4530 O   0  0  0  0  0  1  0  0  0  0  0  0
  189.7390  175.8760  142.6090 C   0  0  0  0  0  2  0  0  0  0  0  0
  189.6610  176.0340  144.1300 C   0  0  2  0  0  3  0  0  0  0  0  0
  188.3710  175.7410  141.9190 C   0  0  1  0  0  3  0  0  0  0  0  0
  186.8940  176.4160  145.4880 C   0  0  0  0  0  2  0  0  0  0  0  0
  189.1460  177.4250  144.5180 C   0  0  0  0  0  2  0  0  0  0  0  0
  184.2020  178.9210  144.6630 O   0  0  0  0  0  1  0  0  0  0  0  0
  188.2810  177.4100  146.1240 S   0  0  0  0  0  0  0  0  0  0  0  0
  185.5560  177.1550  145.5500 C   0  0  2  0  0  3  0  0  0  0  0  0
  185.5160  178.4600  144.7450 C   0  0  1  0  0  3  0  0  0  0  0  0
  185.7560  177.3610  142.5870 N   0  0  0  0  0  0  0  0  0  0  0  0
  186.3170  177.2100  141.2600 C   0  0  2  0  0  3  0  0  0  0  0  0
  192.0030  173.7870  145.7650 O   0  0  0  0  0  0  0  0  0  0  0  0
  191.9630  175.0610  143.7570 C   0  0  1  0  0  3  0  0  0  0  0  0
  192.2280  173.6900  144.3840 C   0  0  1  0  0  3  0  0  0  0  0  0
  191.0240  175.6940  144.7460 C   0  0  2  0  0  3  0  0  0  0  0  0
  190.9390  174.6950  145.8900 C   0  0  0  0  0  2  0  0  0  0  0  0
  193.1780  175.9790  143.5340 C   0  0  0  0  0  3  0  0  0  0  0  0
  193.1380  177.1850  144.4540 C   0  0  0  0  0  1  0  0  0  0  0  0
  193.3710  176.4120  142.0880 C   0  0  0  0  0  1  0  0  0  0  0  0
  194.1410  172.7940  145.3910 C   0  0  0  0  0  1  0  0  0  0  0  0
  193.5650  173.1780  144.1150 N   0  0  0  0  0  2  0  0  0  0  0  0
  187.4420  173.7690  142.3230 C   0  0  0  0  0  1  0  0  0  0  0  0
  187.4290  175.1020  142.7350 O   0  0  0  0  0  0  0  0  0  0  0  0
  1 14  1  0  0  0  0
  3  2  1  1  0  0  0
  3  8  1  0  0  0  0
  7  6  1  6  0  0  0
  7 10  1  0  0  0  0
  7 20  1  0  0  0  0
  8  6  1  0  0  0  0
  8 28  1  1  0  0  0
  9 13  1  0  0  0  0
  9 12  1  0  0  0  0
 10 12  1  0  0  0  0
 13  4  1  1  0  0  0
 14 11  1  6  0  0  0
 14 13  1  0  0  0  0
 15  1  2  0  0  0  0
 16  5  1  6  0  0  0
 16  3  1  0  0  0  0
 16 15  1  0  0  0  0
 17 21  1  0  0  0  0
 18 22  1  1  0  0  0
 18 19  1  0  0  0  0
 18 20  1  0  0  0  0
 19 26  1  1  0  0  0
 19 17  1  0  0  0  0
 20 21  1  1  0  0  0
 22 23  1  0  0  0  0
 24 22  1  0  0  0  0
 26 25  1  0  0  0  0
 27 28  1  0  0  0  0
M  END
>  <MODEL>
6

>  <REMARK>
 VINA RESULT:      -6.1      2.272      7.185
  Name = 
  4 active torsions:
  status: ('A' for Active; 'I' for Inactive)
    1  A    between atoms: C_9  and  C_14
    2  A    between atoms: C_10  and  C_13
    3  A    between atoms: C_11  and  O_22
    4  A    between atoms: C_12  and  N_23
                            x       y       z     vdW  Elec       q    Type
                         _______ _______ _______ _____ _____    ______ ____

>  <TORSDO>
F 4

$$$$
=
 OpenBabel11052418183D

 28 29  0  0  1  0  0  0  0  0999 V2000
  195.6970  173.5590  143.4880 C   0  0  0  0  0  3  0  0  0  0  0  0
  194.2050  175.7530  142.3360 O   0  0  0  0  0  1  0  0  0  0  0  0
  194.7860  176.4390  143.4070 C   0  0  1  0  0  3  0  0  0  0  0  0
  194.8660  170.6810  145.7260 O   0  0  0  0  0  1  0  0  0  0  0  0
  197.0290  176.0070  142.6310 O   0  0  0  0  0  1  0  0  0  0  0  0
  192.3450  176.3960  144.2840 C   0  0  0  0  0  2  0  0  0  0  0  0
  191.8060  175.0110  144.6570 C   0  0  2  0  0  3  0  0  0  0  0  0
  193.8330  176.6020  144.6140 C   0  0  1  0  0  3  0  0  0  0  0  0
  193.7760  172.8140  145.6250 C   0  0  0  0  0  2  0  0  0  0  0  0
  192.3350  173.9340  143.7030 C   0  0  0  0  0  2  0  0  0  0  0  0
  196.9400  171.6060  143.9720 O   0  0  0  0  0  1  0  0  0  0  0  0
  192.4350  172.2990  144.5050 S   0  0  0  0  0  0  0  0  0  0  0  0
  195.0680  172.0240  145.4070 C   0  0  2  0  0  3  0  0  0  0  0  0
  195.6550  172.1490  143.9960 C   0  0  1  0  0  3  0  0  0  0  0  0
  196.1590  174.5200  144.2070 N   0  0  0  0  0  0  0  0  0  0  0  0
  196.1860  175.8910  143.7390 C   0  0  2  0  0  3  0  0  0  0  0  0
  188.6610  175.3510  146.4450 O   0  0  0  0  0  0  0  0  0  0  0  0
  189.7420  176.4690  144.6450 C   0  0  1  0  0  3  0  0  0  0  0  0
  189.0170  176.6270  145.9840 C   0  0  1  0  0  3  0  0  0  0  0  0
  190.2740  175.0650  144.7290 C   0  0  2  0  0  3  0  0  0  0  0  0
  189.7100  174.5160  146.0300 C   0  0  0  0  0  2  0  0  0  0  0  0
  188.8990  176.6280  143.3670 C   0  0  0  0  0  3  0  0  0  0  0  0
  188.8720  175.3460  142.5560 C   0  0  0  0  0  1  0  0  0  0  0  0
  189.3120  177.8060  142.4960 C   0  0  0  0  0  1  0  0  0  0  0  0
  186.7650  176.8070  146.5900 C   0  0  0  0  0  1  0  0  0  0  0  0
  187.8490  177.4940  145.9120 N   0  0  0  0  0  2  0  0  0  0  0  0
  194.1870  176.7930  146.7950 C   0  0  0  0  0  1  0  0  0  0  0  0
  194.2290  175.8750  145.7450 O   0  0  0  0  0  0  0  0  0  0  0  0
  1 14  1  0  0  0  0
  1 15  2  0  0  0  0
  3  2  1  6  0  0  0
  3 16  1  0  0  0  0
  3  8  1  0  0  0  0
  6  8  1  0  0  0  0
  6  7  1  0  0  0  0
  7 10  1  6  0  0  0
  7 20  1  0  0  0  0
  8 28  1  1  0  0  0
 10 12  1  0  0  0  0
 12  9  1  0  0  0  0
 13  9  1  0  0  0  0
 13  4  1  6  0  0  0
 14 11  1  1  0  0  0
 14 13  1  0  0  0  0
 16  5  1  6  0  0  0
 16 15  1  0  0  0  0
 18 22  1  6  0  0  0
 18 20  1  0  0  0  0
 18 19  1  0  0  0  0
 19 26  1  6  0  0  0
 19 17  1  0  0  0  0
 20 21  1  1  0  0  0
 21 17  1  0  0  0  0
 23 22  1  0  0  0  0
 24 22  1  0  0  0  0
 26 25  1  0  0  0  0
 28 27  1  0  0  0  0
M  END
>  <MODEL>
7

>  <REMARK>
 VINA RESULT:      -6.0      3.163      4.973
  Name = 
  4 active torsions:
  status: ('A' for Active; 'I' for Inactive)
    1  A    between atoms: C_9  and  C_14
    2  A    between atoms: C_10  and  C_13
    3  A    between atoms: C_11  and  O_22
    4  A    between atoms: C_12  and  N_23
                            x       y       z     vdW  Elec       q    Type
                         _______ _______ _______ _____ _____    ______ ____

>  <TORSDO>
F 4

$$$$
=
 OpenBabel11052418183D

 28 29  0  0  1  0  0  0  0  0999 V2000
  191.8930  171.4930  143.7760 C   0  0  0  0  0  3  0  0  0  0  0  0
  189.1760  171.6510  142.8000 O   0  0  0  0  0  1  0  0  0  0  0  0
  189.8370  171.6480  141.5680 C   0  0  1  0  0  3  0  0  0  0  0  0
  194.3620  173.9470  145.1430 O   0  0  0  0  0  1  0  0  0  0  0  0
  190.8210  169.4810  141.9580 O   0  0  0  0  0  1  0  0  0  0  0  0
  189.0530  174.1220  141.5550 C   0  0  0  0  0  2  0  0  0  0  0  0
  189.7080  175.0230  142.6050 C   0  0  2  0  0  3  0  0  0  0  0  0
  189.9950  173.0610  140.9590 C   0  0  1  0  0  3  0  0  0  0  0  0
  192.5780  174.3760  143.6000 C   0  0  0  0  0  2  0  0  0  0  0  0
  189.9480  174.2650  143.9160 C   0  0  0  0  0  2  0  0  0  0  0  0
  193.9170  171.1200  144.9430 O   0  0  0  0  0  1  0  0  0  0  0  0
  191.3690  174.9350  144.8430 S   0  0  0  0  0  0  0  0  0  0  0  0
  193.5730  173.3560  144.1560 C   0  0  2  0  0  3  0  0  0  0  0  0
  192.9290  172.0720  144.6940 C   0  0  1  0  0  3  0  0  0  0  0  0
  192.1190  171.3400  142.5190 N   0  0  0  0  0  0  0  0  0  0  0  0
  191.1210  170.8020  141.6160 C   0  0  2  0  0  3  0  0  0  0  0  0
  186.8540  177.1420  141.8490 O   0  0  0  0  0  0  0  0  0  0  0  0
  187.7680  176.1240  143.7940 C   0  0  1  0  0  3  0  0  0  0  0  0
  186.5070  176.3580  142.9590 C   0  0  1  0  0  3  0  0  0  0  0  0
  188.8650  176.2930  142.7800 C   0  0  2  0  0  3  0  0  0  0  0  0
  188.1500  176.7250  141.5080 C   0  0  0  0  0  2  0  0  0  0  0  0
  188.0090  177.0710  144.9830 C   0  0  0  0  0  3  0  0  0  0  0  0
  189.2680  177.8960  144.7880 C   0  0  0  0  0  1  0  0  0  0  0  0
  188.0270  176.3750  146.3370 C   0  0  0  0  0  1  0  0  0  0  0  0
  184.6960  177.8290  142.7840 C   0  0  0  0  0  1  0  0  0  0  0  0
  185.4220  176.9760  143.7080 N   0  0  0  0  0  2  0  0  0  0  0  0
  191.6070  173.6260  139.5450 C   0  0  0  0  0  1  0  0  0  0  0  0
  191.3230  173.5050  140.9060 O   0  0  0  0  0  0  0  0  0  0  0  0
  1 14  1  0  0  0  0
  3 16  1  0  0  0  0
  3  2  1  1  0  0  0
  7  6  1  6  0  0  0
  7 20  1  0  0  0  0
  7 10  1  0  0  0  0
  8 28  1  1  0  0  0
  8  6  1  0  0  0  0
  8  3  1  0  0  0  0
  9 13  1  0  0  0  0
  9 12  1  0  0  0  0
 10 12  1  0  0  0  0
 13 14  1  0  0  0  0
 13  4  1  1  0  0  0
 14 11  1  6  0  0  0
 15  1  2  0  0  0  0
 16  5  1  1  0  0  0
 16 15  1  0  0  0  0
 17 19  1  0  0  0  0
 18 22  1  1  0  0  0
 19 26  1  1  0  0  0
 19 18  1  0  0  0  0
 20 21  1  6  0  0  0
 20 18  1  0  0  0  0
 21 17  1  0  0  0  0
 22 24  1  0  0  0  0
 23 22  1  0  0  0  0
 25 26  1  0  0  0  0
 27 28  1  0  0  0  0
M  END
>  <MODEL>
8

>  <REMARK>
 VINA RESULT:      -5.9      2.317      4.365
  Name = 
  4 active torsions:
  status: ('A' for Active; 'I' for Inactive)
    1  A    between atoms: C_9  and  C_14
    2  A    between atoms: C_10  and  C_13
    3  A    between atoms: C_11  and  O_22
    4  A    between atoms: C_12  and  N_23
                            x       y       z     vdW  Elec       q    Type
                         _______ _______ _______ _____ _____    ______ ____

>  <TORSDO>
F 4

$$$$
=
 OpenBabel11052418183D

 28 29  0  0  1  0  0  0  0  0999 V2000
  191.0000  174.4290  143.1140 C   0  0  0  0  0  3  0  0  0  0  0  0
  188.2540  173.5500  142.9000 O   0  0  0  0  0  1  0  0  0  0  0  0
  188.3160  174.3160  141.7310 C   0  0  1  0  0  3  0  0  0  0  0  0
  192.7800  177.1120  145.0170 O   0  0  0  0  0  1  0  0  0  0  0  0
  190.0640  172.9520  140.7810 O   0  0  0  0  0  1  0  0  0  0  0  0
  186.7820  175.8870  143.1130 C   0  0  0  0  0  2  0  0  0  0  0  0
  187.4450  176.5520  144.3230 C   0  0  2  0  0  3  0  0  0  0  0  0
  187.7100  175.7290  141.8960 C   0  0  1  0  0  3  0  0  0  0  0  0
  190.4990  177.1140  144.2790 C   0  0  0  0  0  2  0  0  0  0  0  0
  188.4410  175.6060  145.0010 C   0  0  0  0  0  2  0  0  0  0  0  0
  193.3120  174.7260  143.5160 O   0  0  0  0  0  1  0  0  0  0  0  0
  189.7830  176.5120  145.8420 S   0  0  0  0  0  0  0  0  0  0  0  0
  191.9220  176.6040  144.0420 C   0  0  2  0  0  3  0  0  0  0  0  0
  192.0430  175.0760  143.9770 C   0  0  1  0  0  3  0  0  0  0  0  0
  190.7370  174.8680  141.9330 N   0  0  0  0  0  0  0  0  0  0  0  0
  189.7180  174.2680  141.0970 C   0  0  2  0  0  3  0  0  0  0  0  0
  186.0930  177.2520  147.6230 O   0  0  0  0  0  0  0  0  0  0  0  0
  186.5760  178.5110  145.6630 C   0  0  1  0  0  3  0  0  0  0  0  0
  186.7390  178.4170  147.1820 C   0  0  1  0  0  3  0  0  0  0  0  0
  186.3580  177.0760  145.2720 C   0  0  2  0  0  3  0  0  0  0  0  0
  186.2920  176.3220  146.5910 C   0  0  0  0  0  2  0  0  0  0  0  0
  185.4180  179.3750  145.1330 C   0  0  0  0  0  3  0  0  0  0  0  0
  184.0760  178.7070  145.3660 C   0  0  0  0  0  1  0  0  0  0  0  0
  185.5680  179.7850  143.6750 C   0  0  0  0  0  1  0  0  0  0  0  0
  187.0610  179.7530  149.0760 C   0  0  0  0  0  1  0  0  0  0  0  0
  186.2370  179.5850  147.8930 N   0  0  0  0  0  2  0  0  0  0  0  0
  187.9640  177.8400  141.2670 C   0  0  0  0  0  1  0  0  0  0  0  0
  188.6560  176.7600  141.8150 O   0  0  0  0  0  0  0  0  0  0  0  0
  1 14  1  0  0  0  0
  3  8  1  0  0  0  0
  3  2  1  1  0  0  0
  7  6  1  6  0  0  0
  7 10  1  0  0  0  0
  7 20  1  0  0  0  0
  8 28  1  1  0  0  0
  8  6  1  0  0  0  0
  9 12  1  0  0  0  0
 10 12  1  0  0  0  0
 13  9  1  0  0  0  0
 13  4  1  1  0  0  0
 14 11  1  6  0  0  0
 14 13  1  0  0  0  0
 15  1  2  0  0  0  0
 16  5  1  1  0  0  0
 16  3  1  0  0  0  0
 16 15  1  0  0  0  0
 18 22  1  1  0  0  0
 18 19  1  0  0  0  0
 19 17  1  0  0  0  0
 19 26  1  1  0  0  0
 20 18  1  0  0  0  0
 20 21  1  1  0  0  0
 21 17  1  0  0  0  0
 22 23  1  0  0  0  0
 24 22  1  0  0  0  0
 26 25  1  0  0  0  0
 27 28  1  0  0  0  0
M  END
>  <MODEL>
9

>  <REMARK>
 VINA RESULT:      -5.9      2.454      4.594
  Name = 
  4 active torsions:
  status: ('A' for Active; 'I' for Inactive)
    1  A    between atoms: C_9  and  C_14
    2  A    between atoms: C_10  and  C_13
    3  A    between atoms: C_11  and  O_22
    4  A    between atoms: C_12  and  N_23
                            x       y       z     vdW  Elec       q    Type
                         _______ _______ _______ _____ _____    ______ ____

>  <TORSDO>
F 4

$$$$
