=
 OpenBabel11052418143D

 28 32  0  0  1  0  0  0  0  0999 V2000
  192.3930  175.0080  143.2290 N   0  0  1  0  0  0  0  0  0  0  0  0
  188.5070  177.2560  145.9600 C   0  0  0  0  0  2  0  0  0  0  0  0
  188.4390  174.0550  140.5910 C   0  0  0  0  0  2  0  0  0  0  0  0
  186.5650  176.9210  144.3920 C   0  0  0  0  0  0  0  0  0  0  0  0
  188.7800  175.9930  143.7720 C   0  0  1  0  0  3  0  0  0  0  0  0
  186.3230  178.3780  146.4080 C   0  0  1  0  0  3  0  0  0  0  0  0
  187.8500  176.3300  144.9370 C   0  0  1  0  0  3  0  0  0  0  0  0
  186.7570  175.6960  142.3390 C   0  0  0  0  0  3  0  0  0  0  0  0
  185.8460  177.7980  145.1020 C   0  0  0  0  0  3  0  0  0  0  0  0
  190.4210  174.6100  141.8900 C   0  0  0  0  0  0  0  0  0  0  0  0
  190.0560  175.3050  144.2430 C   0  0  0  0  0  2  0  0  0  0  0  0
  186.0910  176.5160  143.1000 N   0  0  0  0  0  0  0  0  0  0  0  0
  192.7100  173.9560  141.0560 C   0  0  0  0  0  2  0  0  0  0  0  0
  188.9510  174.6430  141.6700 C   0  0  0  0  0  0  0  0  0  0  0  0
  191.2930  174.2080  140.8230 N   0  0  0  0  0  0  0  0  0  0  0  0
  185.1710  178.4720  147.3870 C   0  0  0  0  0  1  0  0  0  0  0  0
  187.4790  177.5940  147.0310 C   0  0  0  0  0  2  0  0  0  0  0  0
  188.0440  175.0600  142.8040 C   0  0  1  0  0  3  0  0  0  0  0  0
  193.2440  174.9820  142.0420 C   0  0  0  0  0  2  0  0  0  0  0  0
  190.9540  174.9890  143.0740 C   0  0  1  0  0  3  0  0  0  0  0  0
  193.0650  175.0370  144.5270 C   0  0  1  0  0  3  0  0  0  0  0  0
  193.2460  173.6270  145.1110 C   0  0  0  0  0  2  0  0  0  0  0  0
  195.5640  174.0340  146.0760 C   0  0  1  0  0  3  0  0  0  0  0  0
  194.5710  176.0890  144.4870 S   0  0  0  0  0  0  0  0  0  0  0  0
  194.7700  171.8410  145.5350 O   0  0  0  0  0  1  0  0  0  0  0  0
  194.7040  173.1760  145.1410 C   0  0  1  0  0  3  0  0  0  0  0  0
  197.0220  173.9210  145.6760 C   0  0  0  0  0  1  0  0  0  0  0  0
  195.1510  175.5080  146.1150 C   0  0  0  0  0  2  0  0  0  0  0  0
  1 19  1  1  0  0  0
  1 21  1  0  0  0  0
  2 17  1  0  0  0  0
  3 14  2  0  0  0  0
  4  7  1  0  0  0  0
  4  9  2  0  0  0  0
  5 11  1  1  0  0  0
  5  7  1  0  0  0  0
  6 17  1  0  0  0  0
  6 16  1  1  0  0  0
  7  2  1  1  0  0  0
  8 12  2  0  0  0  0
  9  6  1  0  0  0  0
 10 20  1  0  0  0  0
 12  4  1  0  0  0  0
 13 19  1  0  0  0  0
 14 10  1  0  0  0  0
 14 18  1  0  0  0  0
 15 13  1  0  0  0  0
 15 10  2  0  0  0  0
 18  8  1  6  0  0  0
 18  5  1  0  0  0  0
 20  1  1  0  0  0  0
 20 11  1  1  0  0  0
 21 22  1  6  0  0  0
 22 26  1  0  0  0  0
 23 27  1  6  0  0  0
 23 28  1  0  0  0  0
 24 21  1  0  0  0  0
 24 28  1  0  0  0  0
 26 25  1  1  0  0  0
 26 23  1  0  0  0  0
M  END
>  <MODEL>
1

>  <REMARK>
 VINA RESULT:      -7.9      0.000      0.000
  Name = 
  1 active torsions:
  status: ('A' for Active; 'I' for Inactive)
    1  A    between atoms: N_1  and  C_2
                            x       y       z     vdW  Elec       q    Type
                         _______ _______ _______ _____ _____    ______ ____

>  <TORSDO>
F 1

$$$$
=
 OpenBabel11052418143D

 28 32  0  0  1  0  0  0  0  0999 V2000
  192.8720  175.1730  143.7270 N   0  0  0  0  0  0  0  0  0  0  0  0
  187.9390  176.6440  142.6690 C   0  0  0  0  0  2  0  0  0  0  0  0
  191.2270  176.8150  147.9830 C   0  0  0  0  0  2  0  0  0  0  0  0
  187.1120  177.2370  144.9720 C   0  0  0  0  0  0  0  0  0  0  0  0
  189.4720  176.5280  144.6910 C   0  0  1  0  0  3  0  0  0  0  0  0
  185.5190  177.1200  143.0490 C   0  0  1  0  0  3  0  0  0  0  0  0
  188.2970  177.2450  144.0270 C   0  0  1  0  0  3  0  0  0  0  0  0
  188.5290  177.1900  146.9060 C   0  0  0  0  0  3  0  0  0  0  0  0
  185.8560  177.2500  144.5120 C   0  0  0  0  0  3  0  0  0  0  0  0
  192.0070  175.9250  145.8560 C   0  0  0  0  0  0  0  0  0  0  0  0
  190.7300  176.5820  143.8330 C   0  0  0  0  0  2  0  0  0  0  0  0
  187.3350  177.2400  146.3890 N   0  0  0  0  0  0  0  0  0  0  0  0
  194.2980  174.8830  145.6790 C   0  0  0  0  0  2  0  0  0  0  0  0
  190.9660  176.5650  146.7010 C   0  0  0  0  0  0  0  0  0  0  0  0
  193.1580  175.3270  146.4730 N   0  0  0  0  0  2  0  0  0  0  0  0
  184.3820  178.0540  142.6920 C   0  0  0  0  0  1  0  0  0  0  0  0
  186.7150  177.3710  142.1300 C   0  0  0  0  0  2  0  0  0  0  0  0
  189.7630  177.1970  146.0390 C   0  0  1  0  0  3  0  0  0  0  0  0
  193.7950  174.2550  144.3900 C   0  0  0  0  0  2  0  0  0  0  0  0
  191.8700  175.8640  144.5120 C   0  0  0  0  0  0  0  0  0  0  0  0
  193.0310  175.3500  142.2860 C   0  0  1  0  0  3  0  0  0  0  0  0
  194.0740  176.4300  141.9520 C   0  0  0  0  0  2  0  0  0  0  0  0
  195.0860  175.2160  139.9580 C   0  0  1  0  0  3  0  0  0  0  0  0
  193.2390  173.7410  141.4240 S   0  0  0  0  0  0  0  0  0  0  0  0
  196.2940  176.8720  141.1970 O   0  0  0  0  0  1  0  0  0  0  0  0
  195.3440  175.8590  141.3260 C   0  0  1  0  0  3  0  0  0  0  0  0
  196.1910  174.2280  139.6430 C   0  0  0  0  0  1  0  0  0  0  0  0
  193.7250  174.5220  139.8500 C   0  0  0  0  0  2  0  0  0  0  0  0
  1 19  1  0  0  0  0
  1 20  1  0  0  0  0
  4 12  1  0  0  0  0
  5 11  1  6  0  0  0
  5 18  1  0  0  0  0
  6 16  1  6  0  0  0
  6  9  1  0  0  0  0
  7  2  1  6  0  0  0
  7  5  1  0  0  0  0
  7  4  1  0  0  0  0
  9  4  2  0  0  0  0
 10 15  1  0  0  0  0
 10 14  1  0  0  0  0
 11 20  1  0  0  0  0
 12  8  2  0  0  0  0
 13 15  1  0  0  0  0
 14  3  2  0  0  0  0
 17  2  1  0  0  0  0
 17  6  1  0  0  0  0
 18 14  1  0  0  0  0
 18  8  1  1  0  0  0
 19 13  1  0  0  0  0
 20 10  2  0  0  0  0
 21 22  1  1  0  0  0
 21  1  1  0  0  0  0
 23 27  1  1  0  0  0
 23 26  1  0  0  0  0
 24 21  1  0  0  0  0
 26 25  1  6  0  0  0
 26 22  1  0  0  0  0
 28 23  1  0  0  0  0
 28 24  1  0  0  0  0
M  END
>  <MODEL>
2

>  <REMARK>
 VINA RESULT:      -7.7      2.493      4.469
  Name = 
  1 active torsions:
  status: ('A' for Active; 'I' for Inactive)
    1  A    between atoms: N_1  and  C_2
                            x       y       z     vdW  Elec       q    Type
                         _______ _______ _______ _____ _____    ______ ____

>  <TORSDO>
F 1

$$$$
=
 OpenBabel11052418143D

 28 32  0  0  1  0  0  0  0  0999 V2000
  191.0350  173.9100  142.5510 N   0  0  0  0  0  0  0  0  0  0  0  0
  186.7100  176.5060  144.0270 C   0  0  0  0  0  2  0  0  0  0  0  0
  192.4570  176.3660  146.4820 C   0  0  0  0  0  2  0  0  0  0  0  0
  187.4840  177.5350  146.1910 C   0  0  0  0  0  0  0  0  0  0  0  0
  189.0940  176.2050  144.8510 C   0  0  1  0  0  3  0  0  0  0  0  0
  185.0750  177.6380  145.5350 C   0  0  1  0  0  3  0  0  0  0  0  0
  187.8800  177.1310  144.7840 C   0  0  1  0  0  3  0  0  0  0  0  0
  189.7350  177.3220  146.9910 C   0  0  0  0  0  3  0  0  0  0  0  0
  186.2170  177.8290  146.4990 C   0  0  0  0  0  3  0  0  0  0  0  0
  191.7020  175.0830  144.5570 C   0  0  0  0  0  0  0  0  0  0  0  0
  189.6050  175.8350  143.4640 C   0  0  0  0  0  2  0  0  0  0  0  0
  188.4900  177.6290  147.2100 N   0  0  0  0  0  0  0  0  0  0  0  0
  193.2650  173.4630  143.4180 C   0  0  0  0  0  2  0  0  0  0  0  0
  191.4630  176.0600  145.6510 C   0  0  0  0  0  0  0  0  0  0  0  0
  192.8870  174.2720  144.5710 N   0  0  0  0  0  2  0  0  0  0  0  0
  184.1040  178.7950  145.6420 C   0  0  0  0  0  1  0  0  0  0  0  0
  185.5310  177.4670  144.0850 C   0  0  0  0  0  2  0  0  0  0  0  0
  190.2160  176.9120  145.6200 C   0  0  1  0  0  3  0  0  0  0  0  0
  192.0150  172.8570  142.8020 C   0  0  0  0  0  2  0  0  0  0  0  0
  190.7990  174.9190  143.5630 C   0  0  0  0  0  0  0  0  0  0  0  0
  190.3480  173.8850  141.2620 C   0  0  1  0  0  3  0  0  0  0  0  0
  191.3350  173.7610  140.0890 C   0  0  0  0  0  2  0  0  0  0  0  0
  189.8990  172.1910  138.6960 C   0  0  1  0  0  3  0  0  0  0  0  0
  188.9490  172.6950  141.2600 S   0  0  0  0  0  0  0  0  0  0  0  0
  192.2760  172.3200  138.4370 O   0  0  0  0  0  1  0  0  0  0  0  0
  191.2530  172.4120  139.3790 C   0  0  1  0  0  3  0  0  0  0  0  0
  189.6670  170.7060  138.4940 C   0  0  0  0  0  1  0  0  0  0  0  0
  188.7170  172.8010  139.4560 C   0  0  0  0  0  2  0  0  0  0  0  0
  1 19  1  0  0  0  0
  1 20  1  0  0  0  0
  2 17  1  0  0  0  0
  4  9  2  0  0  0  0
  4 12  1  0  0  0  0
  5 11  1  6  0  0  0
  5 18  1  0  0  0  0
  6 16  1  6  0  0  0
  6  9  1  0  0  0  0
  7  2  1  1  0  0  0
  7  5  1  0  0  0  0
  7  4  1  0  0  0  0
  8 12  2  0  0  0  0
 10 15  1  0  0  0  0
 10 14  1  0  0  0  0
 11 20  1  0  0  0  0
 13 15  1  0  0  0  0
 14  3  2  0  0  0  0
 17  6  1  0  0  0  0
 18 14  1  0  0  0  0
 18  8  1  1  0  0  0
 19 13  1  0  0  0  0
 20 10  2  0  0  0  0
 21 22  1  6  0  0  0
 21  1  1  0  0  0  0
 23 27  1  1  0  0  0
 23 26  1  0  0  0  0
 23 28  1  0  0  0  0
 24 21  1  0  0  0  0
 26 25  1  6  0  0  0
 26 22  1  0  0  0  0
 28 24  1  0  0  0  0
M  END
>  <MODEL>
3

>  <REMARK>
 VINA RESULT:      -7.6      2.798      5.126
  Name = 
  1 active torsions:
  status: ('A' for Active; 'I' for Inactive)
    1  A    between atoms: N_1  and  C_2
                            x       y       z     vdW  Elec       q    Type
                         _______ _______ _______ _____ _____    ______ ____

>  <TORSDO>
F 1

$$$$
=
 OpenBabel11052418143D

 28 32  0  0  1  0  0  0  0  0999 V2000
  190.1480  176.2250  145.0790 N   0  0  0  0  0  0  0  0  0  0  0  0
  186.0310  177.4220  142.0410 C   0  0  0  0  0  2  0  0  0  0  0  0
  187.1260  178.5220  148.0960 C   0  0  0  0  0  2  0  0  0  0  0  0
  184.4400  178.3740  143.7440 C   0  0  0  0  0  0  0  0  0  0  0  0
  186.7010  177.6660  144.4790 C   0  0  1  0  0  3  0  0  0  0  0  0
  183.6660  177.9150  141.4130 C   0  0  1  0  0  3  0  0  0  0  0  0
  185.8890  178.2450  143.3210 C   0  0  1  0  0  3  0  0  0  0  0  0
  185.0380  178.6710  146.0480 C   0  0  0  0  0  3  0  0  0  0  0  0
  183.4450  178.2910  142.8550 C   0  0  0  0  0  3  0  0  0  0  0  0
  188.5940  177.3050  146.5850 C   0  0  0  0  0  0  0  0  0  0  0  0
  188.1880  177.5980  144.1540 C   0  0  0  0  0  2  0  0  0  0  0  0
  184.1240  178.6150  145.1230 N   0  0  0  0  0  0  0  0  0  0  0  0
  190.7370  176.2850  147.4410 C   0  0  0  0  0  2  0  0  0  0  0  0
  187.3460  178.0590  146.8670 C   0  0  0  0  0  0  0  0  0  0  0  0
  189.4070  176.8360  147.6720 N   0  0  0  0  0  2  0  0  0  0  0  0
  182.7870  178.7590  140.5140 C   0  0  0  0  0  1  0  0  0  0  0  0
  185.1280  178.0300  140.9770 C   0  0  0  0  0  2  0  0  0  0  0  0
  186.5040  178.5540  145.7140 C   0  0  1  0  0  3  0  0  0  0  0  0
  190.7170  175.4440  146.1750 C   0  0  0  0  0  2  0  0  0  0  0  0
  188.9610  177.0200  145.3130 C   0  0  0  0  0  0  0  0  0  0  0  0
  190.8370  176.1640  143.7920 C   0  0  1  0  0  3  0  0  0  0  0  0
  192.2340  176.8030  143.8580 C   0  0  0  0  0  2  0  0  0  0  0  0
  193.3800  175.0950  142.3620 C   0  0  1  0  0  3  0  0  0  0  0  0
  190.7600  174.4800  143.0610 S   0  0  0  0  0  0  0  0  0  0  0  0
  194.5860  176.4160  143.9550 O   0  0  0  0  0  1  0  0  0  0  0  0
  193.3640  175.7840  143.7310 C   0  0  1  0  0  3  0  0  0  0  0  0
  194.1170  173.7750  142.4650 C   0  0  0  0  0  1  0  0  0  0  0  0
  191.9870  174.8660  141.7700 C   0  0  0  0  0  2  0  0  0  0  0  0
  1 20  1  0  0  0  0
  1 19  1  0  0  0  0
  4 12  1  0  0  0  0
  5 11  1  6  0  0  0
  5 18  1  0  0  0  0
  6 16  1  6  0  0  0
  6  9  1  0  0  0  0
  7  2  1  6  0  0  0
  7  4  1  0  0  0  0
  7  5  1  0  0  0  0
  9  4  2  0  0  0  0
 10 14  1  0  0  0  0
 10 15  1  0  0  0  0
 11 20  1  0  0  0  0
 12  8  2  0  0  0  0
 13 15  1  0  0  0  0
 14  3  2  0  0  0  0
 17  6  1  0  0  0  0
 17  2  1  0  0  0  0
 18  8  1  1  0  0  0
 18 14  1  0  0  0  0
 19 13  1  0  0  0  0
 20 10  2  0  0  0  0
 21 22  1  1  0  0  0
 21  1  1  0  0  0  0
 23 27  1  1  0  0  0
 23 26  1  0  0  0  0
 24 21  1  0  0  0  0
 26 22  1  0  0  0  0
 26 25  1  6  0  0  0
 28 23  1  0  0  0  0
 28 24  1  0  0  0  0
M  END
>  <MODEL>
4

>  <REMARK>
 VINA RESULT:      -7.4      2.707      5.004
  Name = 
  1 active torsions:
  status: ('A' for Active; 'I' for Inactive)
    1  A    between atoms: N_1  and  C_2
                            x       y       z     vdW  Elec       q    Type
                         _______ _______ _______ _____ _____    ______ ____

>  <TORSDO>
F 1

$$$$
=
 OpenBabel11052418143D

 28 32  0  0  1  0  0  0  0  0999 V2000
  187.5740  176.9640  146.7110 N   0  0  0  0  0  0  0  0  0  0  0  0
  189.2280  174.5250  142.3590 C   0  0  0  0  0  2  0  0  0  0  0  0
  185.4120  179.4150  143.1300 C   0  0  0  0  0  2  0  0  0  0  0  0
  187.8640  175.7050  140.6020 C   0  0  0  0  0  0  0  0  0  0  0  0
  187.6630  176.4320  142.9650 C   0  0  1  0  0  3  0  0  0  0  0  0
  189.1990  173.6760  140.0130 C   0  0  1  0  0  3  0  0  0  0  0  0
  188.6080  175.8490  141.9150 C   0  0  1  0  0  3  0  0  0  0  0  0
  186.4080  177.5410  141.1120 C   0  0  0  0  0  3  0  0  0  0  0  0
  188.1910  174.7560  139.7180 C   0  0  0  0  0  3  0  0  0  0  0  0
  186.4450  178.1240  144.9150 C   0  0  0  0  0  0  0  0  0  0  0  0
  188.3730  176.6930  144.2880 C   0  0  0  0  0  2  0  0  0  0  0  0
  186.8040  176.6180  140.2840 N   0  0  0  0  0  0  0  0  0  0  0  0
  185.9460  178.6650  147.3280 C   0  0  0  0  0  2  0  0  0  0  0  0
  186.2070  178.4050  143.4760 C   0  0  0  0  0  0  0  0  0  0  0  0
  185.6140  178.7410  145.9100 N   0  0  0  0  0  2  0  0  0  0  0  0
  190.0570  173.4180  138.7920 C   0  0  0  0  0  1  0  0  0  0  0  0
  190.0840  173.9890  141.2200 C   0  0  0  0  0  2  0  0  0  0  0  0
  187.0940  177.7550  142.4390 C   0  0  1  0  0  3  0  0  0  0  0  0
  186.4930  177.2810  147.6400 C   0  0  0  0  0  2  0  0  0  0  0  0
  187.4150  177.2640  145.3030 C   0  0  0  0  0  0  0  0  0  0  0  0
  188.7800  176.3620  147.2760 C   0  0  1  0  0  3  0  0  0  0  0  0
  188.9130  174.8780  146.8960 C   0  0  0  0  0  2  0  0  0  0  0  0
  191.4330  174.9150  146.5510 C   0  0  1  0  0  3  0  0  0  0  0  0
  190.2640  177.4030  146.9720 S   0  0  0  0  0  0  0  0  0  0  0  0
  190.0230  173.2790  145.5170 O   0  0  0  0  0  1  0  0  0  0  0  0
  190.0640  174.6090  145.9310 C   0  0  1  0  0  3  0  0  0  0  0  0
  192.4470  175.1580  145.4510 C   0  0  0  0  0  1  0  0  0  0  0  0
  191.4210  176.1040  147.5160 C   0  0  0  0  0  2  0  0  0  0  0  0
  1 19  1  0  0  0  0
  3 14  2  0  0  0  0
  4  7  1  0  0  0  0
  5 11  1  1  0  0  0
  6 16  1  6  0  0  0
  6 17  1  0  0  0  0
  7  2  1  1  0  0  0
  7  5  1  0  0  0  0
  9  6  1  0  0  0  0
  9  4  2  0  0  0  0
 10 20  2  0  0  0  0
 10 15  1  0  0  0  0
 11 20  1  0  0  0  0
 12  4  1  0  0  0  0
 12  8  2  0  0  0  0
 13 19  1  0  0  0  0
 14 10  1  0  0  0  0
 15 13  1  0  0  0  0
 17  2  1  0  0  0  0
 18  8  1  6  0  0  0
 18  5  1  0  0  0  0
 18 14  1  0  0  0  0
 20  1  1  0  0  0  0
 21  1  1  6  0  0  0
 22 21  1  0  0  0  0
 23 27  1  6  0  0  0
 23 28  1  0  0  0  0
 24 21  1  0  0  0  0
 24 28  1  0  0  0  0
 26 25  1  1  0  0  0
 26 23  1  0  0  0  0
 26 22  1  0  0  0  0
M  END
>  <MODEL>
5

>  <REMARK>
 VINA RESULT:      -7.4      2.806      5.943
  Name = 
  1 active torsions:
  status: ('A' for Active; 'I' for Inactive)
    1  A    between atoms: N_1  and  C_2
                            x       y       z     vdW  Elec       q    Type
                         _______ _______ _______ _____ _____    ______ ____

>  <TORSDO>
F 1

$$$$
=
 OpenBabel11052418143D

 28 32  0  0  1  0  0  0  0  0999 V2000
  191.5010  172.8010  143.6370 N   0  0  0  0  0  0  0  0  0  0  0  0
  187.2250  175.8470  143.8610 C   0  0  0  0  0  2  0  0  0  0  0  0
  192.6320  176.1200  146.9850 C   0  0  0  0  0  2  0  0  0  0  0  0
  187.8160  177.3620  145.7830 C   0  0  0  0  0  0  0  0  0  0  0  0
  189.4730  175.6760  145.0310 C   0  0  1  0  0  3  0  0  0  0  0  0
  185.5100  177.3850  144.8210 C   0  0  1  0  0  3  0  0  0  0  0  0
  188.3410  176.6000  144.5830 C   0  0  1  0  0  3  0  0  0  0  0  0
  189.9420  177.2750  146.8910 C   0  0  0  0  0  3  0  0  0  0  0  0
  186.5450  177.7720  145.8450 C   0  0  0  0  0  3  0  0  0  0  0  0
  192.0150  174.4190  145.3580 C   0  0  0  0  0  0  0  0  0  0  0  0
  190.1130  174.9470  143.8550 C   0  0  0  0  0  2  0  0  0  0  0  0
  188.7040  177.6740  146.8670 N   0  0  0  0  0  0  0  0  0  0  0  0
  193.5830  172.5050  144.8640 C   0  0  0  0  0  2  0  0  0  0  0  0
  191.7210  175.6500  146.1360 C   0  0  0  0  0  0  0  0  0  0  0  0
  193.1330  173.5940  145.7220 N   0  0  0  0  0  2  0  0  0  0  0  0
  184.6150  178.5680  144.5140 C   0  0  0  0  0  1  0  0  0  0  0  0
  186.1150  176.8350  143.5290 C   0  0  0  0  0  2  0  0  0  0  0  0
  190.5460  176.5130  145.7370 C   0  0  1  0  0  3  0  0  0  0  0  0
  192.3730  171.8100  144.2630 C   0  0  0  0  0  2  0  0  0  0  0  0
  191.2220  174.0410  144.3290 C   0  0  0  0  0  0  0  0  0  0  0  0
  190.9660  172.4750  142.3170 C   0  0  1  0  0  3  0  0  0  0  0  0
  189.4970  172.0250  142.3880 C   0  0  0  0  0  2  0  0  0  0  0  0
  188.7520  173.2070  140.2620 C   0  0  1  0  0  3  0  0  0  0  0  0
  191.3430  173.7890  141.0890 S   0  0  0  0  0  0  0  0  0  0  0  0
  187.2210  172.6310  142.0110 O   0  0  0  0  0  1  0  0  0  0  0  0
  188.5330  173.0340  141.7690 C   0  0  1  0  0  3  0  0  0  0  0  0
  188.1910  174.5420  139.8150 C   0  0  0  0  0  1  0  0  0  0  0  0
  190.2190  173.0920  139.8350 C   0  0  0  0  0  2  0  0  0  0  0  0
  1 19  1  0  0  0  0
  1 20  1  0  0  0  0
  4  9  2  0  0  0  0
  4 12  1  0  0  0  0
  5 11  1  6  0  0  0
  5 18  1  0  0  0  0
  6 16  1  6  0  0  0
  6  9  1  0  0  0  0
  7  2  1  1  0  0  0
  7  5  1  0  0  0  0
  7  4  1  0  0  0  0
 10 15  1  0  0  0  0
 10 14  1  0  0  0  0
 11 20  1  0  0  0  0
 12  8  2  0  0  0  0
 13 15  1  0  0  0  0
 14  3  2  0  0  0  0
 17  2  1  0  0  0  0
 17  6  1  0  0  0  0
 18 14  1  0  0  0  0
 18  8  1  1  0  0  0
 19 13  1  0  0  0  0
 20 10  2  0  0  0  0
 21 22  1  1  0  0  0
 21  1  1  0  0  0  0
 23 27  1  1  0  0  0
 23 26  1  0  0  0  0
 24 21  1  0  0  0  0
 26 25  1  6  0  0  0
 26 22  1  0  0  0  0
 28 23  1  0  0  0  0
 28 24  1  0  0  0  0
M  END
>  <MODEL>
6

>  <REMARK>
 VINA RESULT:      -7.2      2.755      5.144
  Name = 
  1 active torsions:
  status: ('A' for Active; 'I' for Inactive)
    1  A    between atoms: N_1  and  C_2
                            x       y       z     vdW  Elec       q    Type
                         _______ _______ _______ _____ _____    ______ ____

>  <TORSDO>
F 1

$$$$
=
 OpenBabel11052418143D

 28 32  0  0  1  0  0  0  0  0999 V2000
  189.9420  173.1040  141.5510 N   0  0  0  0  0  0  0  0  0  0  0  0
  186.9080  177.2350  142.7090 C   0  0  0  0  0  2  0  0  0  0  0  0
  191.1490  174.1650  146.1250 C   0  0  0  0  0  2  0  0  0  0  0  0
  187.4270  177.5400  145.1550 C   0  0  0  0  0  0  0  0  0  0  0  0
  188.6160  175.7690  143.8870 C   0  0  1  0  0  3  0  0  0  0  0  0
  185.5670  178.8250  144.0900 C   0  0  1  0  0  3  0  0  0  0  0  0
  187.9800  177.1560  143.7960 C   0  0  1  0  0  3  0  0  0  0  0  0
  189.0650  176.2160  146.3030 C   0  0  0  0  0  3  0  0  0  0  0  0
  186.3740  178.3550  145.2720 C   0  0  0  0  0  3  0  0  0  0  0  0
  190.4730  173.6020  143.8560 C   0  0  0  0  0  0  0  0  0  0  0  0
  189.2770  175.3600  142.5770 C   0  0  0  0  0  2  0  0  0  0  0  0
  188.0600  177.0420  146.3430 N   0  0  0  0  0  0  0  0  0  0  0  0
  191.4450  171.5770  142.7070 C   0  0  0  0  0  2  0  0  0  0  0  0
  190.3850  174.4500  145.0730 C   0  0  0  0  0  0  0  0  0  0  0  0
  191.1500  172.3370  143.9160 N   0  0  0  0  0  2  0  0  0  0  0  0
  185.1910  180.2820  144.2630 C   0  0  0  0  0  1  0  0  0  0  0  0
  186.2820  178.6220  142.7530 C   0  0  0  0  0  2  0  0  0  0  0  0
  189.6780  175.7830  144.9940 C   0  0  1  0  0  3  0  0  0  0  0  0
  190.2750  171.6950  141.7450 C   0  0  0  0  0  2  0  0  0  0  0  0
  189.8930  173.9880  142.6970 C   0  0  0  0  0  0  0  0  0  0  0  0
  189.6890  173.5440  140.1810 C   0  0  1  0  0  3  0  0  0  0  0  0
  190.9740  173.5600  139.3360 C   0  0  0  0  0  2  0  0  0  0  0  0
  189.8990  172.6960  137.1990 C   0  0  1  0  0  3  0  0  0  0  0  0
  188.2540  172.6660  139.4410 S   0  0  0  0  0  0  0  0  0  0  0  0
  192.2410  172.4630  137.6390 O   0  0  0  0  0  1  0  0  0  0  0  0
  190.9900  172.4840  138.2540 C   0  0  1  0  0  3  0  0  0  0  0  0
  189.6040  171.3850  136.4990 C   0  0  0  0  0  1  0  0  0  0  0  0
  188.6020  173.2850  137.7620 C   0  0  0  0  0  2  0  0  0  0  0  0
  1 19  1  0  0  0  0
  1 20  1  0  0  0  0
  2 17  1  0  0  0  0
  4  9  2  0  0  0  0
  4 12  1  0  0  0  0
  5 11  1  6  0  0  0
  5 18  1  0  0  0  0
  6 16  1  1  0  0  0
  6  9  1  0  0  0  0
  7  2  1  6  0  0  0
  7  5  1  0  0  0  0
  7  4  1  0  0  0  0
  8 12  2  0  0  0  0
 10 15  1  0  0  0  0
 10 14  1  0  0  0  0
 11 20  1  0  0  0  0
 13 15  1  0  0  0  0
 14  3  2  0  0  0  0
 17  6  1  0  0  0  0
 18 14  1  0  0  0  0
 18  8  1  1  0  0  0
 19 13  1  0  0  0  0
 20 10  2  0  0  0  0
 21 22  1  6  0  0  0
 21  1  1  0  0  0  0
 23 27  1  1  0  0  0
 23 28  1  0  0  0  0
 23 26  1  0  0  0  0
 24 21  1  0  0  0  0
 26 25  1  6  0  0  0
 26 22  1  0  0  0  0
 28 24  1  0  0  0  0
M  END
>  <MODEL>
7

>  <REMARK>
 VINA RESULT:      -7.2      3.382      5.586
  Name = 
  1 active torsions:
  status: ('A' for Active; 'I' for Inactive)
    1  A    between atoms: N_1  and  C_2
                            x       y       z     vdW  Elec       q    Type
                         _______ _______ _______ _____ _____    ______ ____

>  <TORSDO>
F 1

$$$$
=
 OpenBabel11052418143D

 28 32  0  0  1  0  0  0  0  0999 V2000
  188.9660  176.3890  145.3960 N   0  0  0  0  0  0  0  0  0  0  0  0
  189.0040  173.6500  140.9120 C   0  0  0  0  0  2  0  0  0  0  0  0
  193.0500  173.7910  145.6750 C   0  0  0  0  0  2  0  0  0  0  0  0
  191.2610  172.5420  141.0470 C   0  0  0  0  0  0  0  0  0  0  0  0
  190.5060  173.9600  142.9370 C   0  0  1  0  0  3  0  0  0  0  0  0
  189.9200  172.4220  138.9410 C   0  0  1  0  0  3  0  0  0  0  0  0
  190.0500  173.0140  141.8260 C   0  0  1  0  0  3  0  0  0  0  0  0
  192.6970  172.7630  142.9550 C   0  0  0  0  0  3  0  0  0  0  0  0
  191.1710  172.2110  139.7540 C   0  0  0  0  0  3  0  0  0  0  0  0
  191.0360  175.1430  145.4800 C   0  0  0  0  0  0  0  0  0  0  0  0
  189.3460  174.3990  143.8220 C   0  0  0  0  0  2  0  0  0  0  0  0
  192.5280  172.4230  141.7100 N   0  0  0  0  0  0  0  0  0  0  0  0
  190.4690  176.8400  147.2580 C   0  0  0  0  0  2  0  0  0  0  0  0
  191.9740  174.1150  144.9600 C   0  0  0  0  0  0  0  0  0  0  0  0
  191.4280  175.9740  146.5830 N   0  0  0  0  0  2  0  0  0  0  0  0
  189.6940  171.2430  138.0180 C   0  0  0  0  0  1  0  0  0  0  0  0
  188.6770  172.6640  139.7990 C   0  0  0  0  0  2  0  0  0  0  0  0
  191.5460  173.2410  143.8040 C   0  0  1  0  0  3  0  0  0  0  0  0
  189.5330  177.4490  146.2270 C   0  0  0  0  0  2  0  0  0  0  0  0
  189.8260  175.3330  144.9050 C   0  0  0  0  0  0  0  0  0  0  0  0
  187.5330  176.4570  145.1190 C   0  0  1  0  0  3  0  0  0  0  0  0
  186.7310  176.8990  146.3540 C   0  0  0  0  0  2  0  0  0  0  0  0
  185.0760  178.3590  145.0890 C   0  0  1  0  0  3  0  0  0  0  0  0
  187.1840  177.3760  143.5670 S   0  0  0  0  0  0  0  0  0  0  0  0
  185.5490  178.6800  147.4150 O   0  0  0  0  0  1  0  0  0  0  0  0
  186.1240  178.2920  146.2050 C   0  0  1  0  0  3  0  0  0  0  0  0
  184.9150  179.7930  144.6260 C   0  0  0  0  0  1  0  0  0  0  0  0
  185.3930  177.4600  143.8900 C   0  0  0  0  0  2  0  0  0  0  0  0
  1 19  1  0  0  0  0
  4 12  1  0  0  0  0
  4  7  1  0  0  0  0
  5 18  1  0  0  0  0
  5 11  1  1  0  0  0
  6 16  1  1  0  0  0
  6  9  1  0  0  0  0
  6 17  1  0  0  0  0
  7  2  1  6  0  0  0
  7  5  1  0  0  0  0
  9  4  2  0  0  0  0
 10 15  1  0  0  0  0
 11 20  1  0  0  0  0
 12  8  2  0  0  0  0
 14 10  1  0  0  0  0
 14  3  2  0  0  0  0
 15 13  1  0  0  0  0
 17  2  1  0  0  0  0
 18  8  1  6  0  0  0
 18 14  1  0  0  0  0
 19 13  1  0  0  0  0
 20  1  1  0  0  0  0
 20 10  2  0  0  0  0
 21  1  1  1  0  0  0
 21 22  1  0  0  0  0
 23 27  1  6  0  0  0
 23 26  1  0  0  0  0
 24 28  1  0  0  0  0
 24 21  1  0  0  0  0
 26 22  1  0  0  0  0
 26 25  1  1  0  0  0
 28 23  1  0  0  0  0
M  END
>  <MODEL>
8

>  <REMARK>
 VINA RESULT:      -7.2      3.267      7.802
  Name = 
  1 active torsions:
  status: ('A' for Active; 'I' for Inactive)
    1  A    between atoms: N_1  and  C_2
                            x       y       z     vdW  Elec       q    Type
                         _______ _______ _______ _____ _____    ______ ____

>  <TORSDO>
F 1

$$$$
=
 OpenBabel11052418143D

 28 32  0  0  1  0  0  0  0  0999 V2000
  188.3830  177.0670  144.8110 N   0  0  0  0  0  0  0  0  0  0  0  0
  192.9790  176.1170  142.4460 C   0  0  0  0  0  2  0  0  0  0  0  0
  191.5330  176.8130  148.4880 C   0  0  0  0  0  2  0  0  0  0  0  0
  194.5600  176.2540  144.4010 C   0  0  0  0  0  0  0  0  0  0  0  0
  192.1270  176.5140  144.8060 C   0  0  1  0  0  3  0  0  0  0  0  0
  195.4460  176.1140  142.0680 C   0  0  1  0  0  3  0  0  0  0  0  0
  193.1810  175.8330  143.9340 C   0  0  1  0  0  3  0  0  0  0  0  0
  193.8050  176.5790  146.6540 C   0  0  0  0  0  3  0  0  0  0  0  0
  195.5940  176.3090  143.5550 C   0  0  0  0  0  3  0  0  0  0  0  0
  189.9820  177.0130  146.6230 C   0  0  0  0  0  0  0  0  0  0  0  0
  190.7160  176.0610  144.4520 C   0  0  0  0  0  2  0  0  0  0  0  0
  194.7720  176.5760  145.7830 N   0  0  0  0  0  0  0  0  0  0  0  0
  187.5710  177.6280  147.0370 C   0  0  0  0  0  2  0  0  0  0  0  0
  191.3410  176.7670  147.1710 C   0  0  0  0  0  0  0  0  0  0  0  0
  188.9630  177.5710  147.4660 N   0  0  0  0  0  2  0  0  0  0  0  0
  196.6030  175.2970  141.5330 C   0  0  0  0  0  1  0  0  0  0  0  0
  194.1180  175.4660  141.6740 C   0  0  0  0  0  2  0  0  0  0  0  0
  192.4020  176.1720  146.2750 C   0  0  1  0  0  3  0  0  0  0  0  0
  187.5180  177.9770  145.5580 C   0  0  0  0  0  2  0  0  0  0  0  0
  189.6990  176.7520  145.3260 C   0  0  0  0  0  0  0  0  0  0  0  0
  187.8470  176.5100  143.5700 C   0  0  1  0  0  3  0  0  0  0  0  0
  186.3100  176.4800  143.5720 C   0  0  0  0  0  2  0  0  0  0  0  0
  186.0280  177.1280  141.1290 C   0  0  1  0  0  3  0  0  0  0  0  0
  188.6320  177.2680  142.0920 S   0  0  0  0  0  0  0  0  0  0  0  0
  184.3090  177.4910  142.7560 O   0  0  0  0  0  1  0  0  0  0  0  0
  185.6920  177.4670  142.5860 C   0  0  1  0  0  3  0  0  0  0  0  0
  185.8780  178.3680  140.2690 C   0  0  0  0  0  1  0  0  0  0  0  0
  187.4260  176.5340  140.9400 C   0  0  0  0  0  2  0  0  0  0  0  0
  1 20  1  0  0  0  0
  1 19  1  0  0  0  0
  4 12  1  0  0  0  0
  5 11  1  6  0  0  0
  5 18  1  0  0  0  0
  6 16  1  1  0  0  0
  6  9  1  0  0  0  0
  7  2  1  6  0  0  0
  7  4  1  0  0  0  0
  7  5  1  0  0  0  0
  9  4  2  0  0  0  0
 10 14  1  0  0  0  0
 10 15  1  0  0  0  0
 11 20  1  0  0  0  0
 12  8  2  0  0  0  0
 13 15  1  0  0  0  0
 14  3  2  0  0  0  0
 17  6  1  0  0  0  0
 17  2  1  0  0  0  0
 18  8  1  1  0  0  0
 18 14  1  0  0  0  0
 19 13  1  0  0  0  0
 20 10  2  0  0  0  0
 21 22  1  6  0  0  0
 21  1  1  0  0  0  0
 23 27  1  6  0  0  0
 23 26  1  0  0  0  0
 24 21  1  0  0  0  0
 26 25  1  6  0  0  0
 26 22  1  0  0  0  0
 28 23  1  0  0  0  0
 28 24  1  0  0  0  0
M  END
>  <MODEL>
9

>  <REMARK>
 VINA RESULT:      -7.2      3.513      8.299
  Name = 
  1 active torsions:
  status: ('A' for Active; 'I' for Inactive)
    1  A    between atoms: N_1  and  C_2
                            x       y       z     vdW  Elec       q    Type
                         _______ _______ _______ _____ _____    ______ ____

>  <TORSDO>
F 1

$$$$
