=
 OpenBabel11052417073D

 30 34  0  0  1  0  0  0  0  0999 V2000
  189.1630  176.3320  145.3510 C   0  0  0  0  0  0  0  0  0  0  0  0
  188.6000  176.8030  144.1160 C   0  0  0  0  0  0  0  0  0  0  0  0
  188.3740  176.3240  146.5130 C   0  0  0  0  0  3  0  0  0  0  0  0
  185.0900  177.5870  145.5180 C   0  0  0  0  0  2  0  0  0  0  0  0
  186.5010  177.1750  145.2750 C   0  0  0  0  0  0  0  0  0  0  0  0
  186.1630  176.8220  147.4850 O   0  0  0  0  0  0  0  0  0  0  0  0
  187.0580  176.7540  146.4420 C   0  0  0  0  0  0  0  0  0  0  0  0
  187.2380  177.2150  144.0870 C   0  0  0  0  0  0  0  0  0  0  0  0
  184.5700  178.6050  147.7410 C   0  0  0  0  0  1  0  0  0  0  0  0
  184.9070  177.3130  147.0250 C   0  0  1  0  0  3  0  0  0  0  0  0
  190.7430  174.3280  145.1770 C   0  0  1  0  0  3  0  0  0  0  0  0
  192.2180  173.9600  145.3040 C   0  0  0  0  0  2  0  0  0  0  0  0
  189.9760  173.5090  146.0080 O   0  0  0  0  0  1  0  0  0  0  0  0
  191.3060  176.2290  146.8010 C   0  0  0  0  0  2  0  0  0  0  0  0
  193.6970  176.3640  145.9440 C   0  0  0  0  0  1  0  0  0  0  0  0
  190.5670  175.8070  145.5310 C   0  0  2  0  0  3  0  0  0  0  0  0
  192.6980  174.2220  146.6080 O   0  0  0  0  0  0  0  0  0  0  0  0
  192.7110  175.6200  146.8400 C   0  0  2  0  0  3  0  0  0  0  0  0
  185.7110  176.8280  142.1440 C   0  0  0  0  0  1  0  0  0  0  0  0
  186.6270  177.6870  142.8770 N   0  0  0  0  0  0  0  0  0  0  0  0
  186.6880  179.1010  142.5420 C   0  0  0  0  0  2  0  0  0  0  0  0
  185.8940  179.8270  143.4100 F   0  0  0  0  0  0  0  0  0  0  0  0
  189.3580  176.7900  142.8860 N   0  0  0  0  0  0  0  0  0  0  0  0
  188.6440  174.5860  142.5750 C   0  0  0  0  0  2  0  0  0  0  0  0
  190.0050  174.6950  142.0730 C   0  0  1  0  0  3  0  0  0  0  0  0
  190.1220  173.9430  140.7650 C   0  0  0  0  0  1  0  0  0  0  0  0
  189.0710  175.8240  141.8970 N   0  0  0  0  0  0  0  0  0  0  0  0
  190.2520  177.9070  142.5630 C   0  0  1  0  0  3  0  0  0  0  0  0
  190.7620  178.4640  143.7530 O   0  0  0  0  0  0  0  0  0  0  0  0
  191.6360  177.6390  143.0240 C   0  0  0  0  0  2  0  0  0  0  0  0
  1  3  1  0  0  0  0
  2  1  2  0  0  0  0
  4 10  1  0  0  0  0
  5  4  1  0  0  0  0
  5  7  1  0  0  0  0
  7  3  2  0  0  0  0
  7  6  1  0  0  0  0
  8  2  1  0  0  0  0
  8  5  2  0  0  0  0
 10  6  1  0  0  0  0
 10  9  1  1  0  0  0
 11 12  1  0  0  0  0
 11 16  1  0  0  0  0
 11 13  1  1  0  0  0
 12 17  1  0  0  0  0
 14 18  1  0  0  0  0
 16  1  1  1  0  0  0
 16 14  1  0  0  0  0
 17 18  1  0  0  0  0
 18 15  1  6  0  0  0
 19 20  1  0  0  0  0
 20  8  1  0  0  0  0
 21 20  1  0  0  0  0
 21 22  1  0  0  0  0
 23  2  1  0  0  0  0
 25 26  1  6  0  0  0
 25 24  1  0  0  0  0
 27 25  1  0  0  0  0
 27 24  1  0  0  0  0
 27 23  1  0  0  0  0
 28 23  1  1  0  0  0
 28 30  1  0  0  0  0
 28 29  1  0  0  0  0
 30 29  1  0  0  0  0
M  END
>  <MODEL>
1

>  <REMARK>
 VINA RESULT:      -6.5      0.000      0.000
  Name = 
  6 active torsions:
  status: ('A' for Active; 'I' for Inactive)
    1  A    between atoms: C_1  and  C_22
    2  A    between atoms: C_4  and  N_23
    3  A    between atoms: C_7  and  N_30
    4  A    between atoms: C_10  and  N_23
    5  A    between atoms: C_13  and  N_30
    6  A    between atoms: N_23  and  N_25
                            x       y       z     vdW  Elec       q    Type
                         _______ _______ _______ _____ _____    ______ ____

>  <TORSDO>
F 6

$$$$
=
 OpenBabel11052417073D

 30 34  0  0  1  0  0  0  0  0999 V2000
  190.7530  175.7030  143.9640 C   0  0  0  0  0  0  0  0  0  0  0  0
  190.3000  174.7940  142.9480 C   0  0  0  0  0  0  0  0  0  0  0  0
  189.8740  176.6820  144.4580 C   0  0  0  0  0  3  0  0  0  0  0  0
  186.7110  176.1890  142.6920 C   0  0  0  0  0  2  0  0  0  0  0  0
  188.1260  175.8680  143.0280 C   0  0  0  0  0  0  0  0  0  0  0  0
  187.6060  177.6420  144.3340 O   0  0  0  0  0  0  0  0  0  0  0  0
  188.5780  176.7390  143.9680 C   0  0  0  0  0  0  0  0  0  0  0  0
  188.9550  174.8780  142.4900 C   0  0  0  0  0  0  0  0  0  0  0  0
  186.0410  178.5970  142.7780 C   0  0  0  0  0  1  0  0  0  0  0  0
  186.4020  177.3860  143.6150 C   0  0  1  0  0  3  0  0  0  0  0  0
  192.2590  174.8050  145.8260 C   0  0  1  0  0  3  0  0  0  0  0  0
  193.7110  174.8190  146.2940 C   0  0  0  0  0  2  0  0  0  0  0  0
  191.4220  175.2270  146.8600 O   0  0  0  0  0  1  0  0  0  0  0  0
  192.8180  177.0570  144.7400 C   0  0  0  0  0  2  0  0  0  0  0  0
  195.2510  176.3890  144.4130 C   0  0  0  0  0  1  0  0  0  0  0  0
  192.1250  175.7030  144.5930 C   0  0  2  0  0  3  0  0  0  0  0  0
  194.1390  176.1350  146.5860 O   0  0  0  0  0  0  0  0  0  0  0  0
  194.1950  176.8950  145.3920 C   0  0  2  0  0  3  0  0  0  0  0  0
  187.5550  172.9060  141.8500 C   0  0  0  0  0  1  0  0  0  0  0  0
  188.4530  173.9890  141.4820 N   0  0  0  0  0  0  0  0  0  0  0  0
  188.6000  174.3350  140.0770 C   0  0  0  0  0  2  0  0  0  0  0  0
  187.8110  175.4290  139.7740 F   0  0  0  0  0  0  0  0  0  0  0  0
  191.1520  173.7440  142.4390 N   0  0  0  0  0  0  0  0  0  0  0  0
  192.9840  172.9580  141.2180 C   0  0  0  0  0  2  0  0  0  0  0  0
  193.2830  174.3110  141.6580 C   0  0  1  0  0  3  0  0  0  0  0  0
  193.9400  175.0760  140.5300 C   0  0  0  0  0  1  0  0  0  0  0  0
  191.9040  173.9610  141.2640 N   0  0  0  0  0  0  0  0  0  0  0  0
  191.4190  172.5550  143.2560 C   0  0  1  0  0  3  0  0  0  0  0  0
  190.2910  172.2620  144.0490 O   0  0  0  0  0  0  0  0  0  0  0  0
  190.4880  171.4510  142.9180 C   0  0  0  0  0  2  0  0  0  0  0  0
  1  3  1  0  0  0  0
  2  1  2  0  0  0  0
  4  5  1  0  0  0  0
  4 10  1  0  0  0  0
  5  7  1  0  0  0  0
  7  6  1  0  0  0  0
  7  3  2  0  0  0  0
  8  2  1  0  0  0  0
  8  5  2  0  0  0  0
 10  9  1  6  0  0  0
 10  6  1  0  0  0  0
 11 12  1  0  0  0  0
 11 13  1  1  0  0  0
 12 17  1  0  0  0  0
 14 18  1  0  0  0  0
 16  1  1  1  0  0  0
 16 14  1  0  0  0  0
 16 11  1  0  0  0  0
 18 15  1  6  0  0  0
 18 17  1  0  0  0  0
 20 19  1  0  0  0  0
 20  8  1  0  0  0  0
 21 20  1  0  0  0  0
 22 21  1  0  0  0  0
 23  2  1  0  0  0  0
 24 27  1  0  0  0  0
 24 25  1  0  0  0  0
 25 26  1  6  0  0  0
 27 25  1  0  0  0  0
 27 23  1  0  0  0  0
 28 23  1  6  0  0  0
 28 29  1  0  0  0  0
 30 28  1  0  0  0  0
 30 29  1  0  0  0  0
M  END
>  <MODEL>
2

>  <REMARK>
 VINA RESULT:      -6.3      2.532      3.849
  Name = 
  6 active torsions:
  status: ('A' for Active; 'I' for Inactive)
    1  A    between atoms: C_1  and  C_22
    2  A    between atoms: C_4  and  N_23
    3  A    between atoms: C_7  and  N_30
    4  A    between atoms: C_10  and  N_23
    5  A    between atoms: C_13  and  N_30
    6  A    between atoms: N_23  and  N_25
                            x       y       z     vdW  Elec       q    Type
                         _______ _______ _______ _____ _____    ______ ____

>  <TORSDO>
F 6

$$$$
=
 OpenBabel11052417073D

 30 34  0  0  1  0  0  0  0  0999 V2000
  190.7560  175.7580  144.1220 C   0  0  0  0  0  0  0  0  0  0  0  0
  190.3250  174.8820  143.0680 C   0  0  0  0  0  0  0  0  0  0  0  0
  189.8410  176.6600  144.6890 C   0  0  0  0  0  3  0  0  0  0  0  0
  186.6620  176.0930  142.9720 C   0  0  0  0  0  2  0  0  0  0  0  0
  188.1000  175.8310  143.2570 C   0  0  0  0  0  0  0  0  0  0  0  0
  187.5220  177.5020  144.6710 O   0  0  0  0  0  0  0  0  0  0  0  0
  188.5310  176.6740  144.2330 C   0  0  0  0  0  0  0  0  0  0  0  0
  188.9660  174.9170  142.6470 C   0  0  0  0  0  0  0  0  0  0  0  0
  185.8680  178.4530  143.2060 C   0  0  0  0  0  1  0  0  0  0  0  0
  186.3150  177.2200  143.9670 C   0  0  1  0  0  3  0  0  0  0  0  0
  192.3010  174.9970  146.0120 C   0  0  1  0  0  3  0  0  0  0  0  0
  193.7640  175.0390  146.4440 C   0  0  0  0  0  2  0  0  0  0  0  0
  191.4900  175.5020  147.0300 O   0  0  0  0  0  1  0  0  0  0  0  0
  192.8440  177.1560  144.7440 C   0  0  0  0  0  2  0  0  0  0  0  0
  195.2660  176.4520  144.4140 C   0  0  0  0  0  1  0  0  0  0  0  0
  192.1430  175.7990  144.7180 C   0  0  2  0  0  3  0  0  0  0  0  0
  194.2040  176.3710  146.6260 O   0  0  0  0  0  0  0  0  0  0  0  0
  194.2350  177.0370  145.3750 C   0  0  2  0  0  3  0  0  0  0  0  0
  187.6940  172.8840  141.9360 C   0  0  0  0  0  1  0  0  0  0  0  0
  188.4860  174.0580  141.6030 N   0  0  0  0  0  0  0  0  0  0  0  0
  188.5350  174.5050  140.2200 C   0  0  0  0  0  2  0  0  0  0  0  0
  187.7760  175.6500  140.0660 F   0  0  0  0  0  0  0  0  0  0  0  0
  191.2190  173.9080  142.4830 N   0  0  0  0  0  0  0  0  0  0  0  0
  190.6000  172.4200  144.1760 C   0  0  0  0  0  2  0  0  0  0  0  0
  191.9960  172.1760  143.8480 C   0  0  1  0  0  3  0  0  0  0  0  0
  192.2510  170.6850  143.8000 C   0  0  0  0  0  1  0  0  0  0  0  0
  191.0480  172.5370  142.7760 N   0  0  0  0  0  0  0  0  0  0  0  0
  192.1400  174.3070  141.4130 C   0  0  1  0  0  3  0  0  0  0  0  0
  192.8960  173.1920  141.0000 O   0  0  0  0  0  0  0  0  0  0  0  0
  191.8460  173.5840  140.1520 C   0  0  0  0  0  2  0  0  0  0  0  0
  1  3  1  0  0  0  0
  2  1  2  0  0  0  0
  4  5  1  0  0  0  0
  4 10  1  0  0  0  0
  5  7  1  0  0  0  0
  7  6  1  0  0  0  0
  7  3  2  0  0  0  0
  8  2  1  0  0  0  0
  8  5  2  0  0  0  0
 10  9  1  6  0  0  0
 10  6  1  0  0  0  0
 11 12  1  0  0  0  0
 11 13  1  1  0  0  0
 12 17  1  0  0  0  0
 14 18  1  0  0  0  0
 16  1  1  1  0  0  0
 16 14  1  0  0  0  0
 16 11  1  0  0  0  0
 18 15  1  6  0  0  0
 18 17  1  0  0  0  0
 20 19  1  0  0  0  0
 20  8  1  0  0  0  0
 21 20  1  0  0  0  0
 22 21  1  0  0  0  0
 23 27  1  0  0  0  0
 23  2  1  0  0  0  0
 25 26  1  6  0  0  0
 25 24  1  0  0  0  0
 27 25  1  0  0  0  0
 27 24  1  0  0  0  0
 28 23  1  1  0  0  0
 29 28  1  0  0  0  0
 30 29  1  0  0  0  0
 30 28  1  0  0  0  0
M  END
>  <MODEL>
3

>  <REMARK>
 VINA RESULT:      -6.0      2.440      3.660
  Name = 
  6 active torsions:
  status: ('A' for Active; 'I' for Inactive)
    1  A    between atoms: C_1  and  C_22
    2  A    between atoms: C_4  and  N_23
    3  A    between atoms: C_7  and  N_30
    4  A    between atoms: C_10  and  N_23
    5  A    between atoms: C_13  and  N_30
    6  A    between atoms: N_23  and  N_25
                            x       y       z     vdW  Elec       q    Type
                         _______ _______ _______ _____ _____    ______ ____

>  <TORSDO>
F 6

$$$$
=
 OpenBabel11052417073D

 30 34  0  0  1  0  0  0  0  0999 V2000
  192.7610  175.4720  143.2860 C   0  0  0  0  0  0  0  0  0  0  0  0
  192.0010  174.2540  143.2340 C   0  0  0  0  0  0  0  0  0  0  0  0
  192.1570  176.6440  143.7700 C   0  0  0  0  0  3  0  0  0  0  0  0
  188.7450  175.7180  144.7010 C   0  0  0  0  0  2  0  0  0  0  0  0
  190.1180  175.4490  144.1910 C   0  0  0  0  0  0  0  0  0  0  0  0
  190.1060  177.6560  144.6910 O   0  0  0  0  0  0  0  0  0  0  0  0
  190.8420  176.5990  144.2070 C   0  0  0  0  0  0  0  0  0  0  0  0
  190.6600  174.2510  143.7120 C   0  0  0  0  0  0  0  0  0  0  0  0
  187.7710  177.9680  144.2080 C   0  0  0  0  0  1  0  0  0  0  0  0
  188.7940  177.2220  145.0410 C   0  0  1  0  0  3  0  0  0  0  0  0
  195.1920  175.7210  144.0410 C   0  0  1  0  0  3  0  0  0  0  0  0
  196.6130  175.7640  143.4850 C   0  0  0  0  0  2  0  0  0  0  0  0
  194.9520  176.8540  144.8200 O   0  0  0  0  0  1  0  0  0  0  0  0
  194.5020  176.5960  141.7340 C   0  0  0  0  0  2  0  0  0  0  0  0
  196.4710  175.4400  140.6140 C   0  0  0  0  0  1  0  0  0  0  0  0
  194.2060  175.6230  142.8740 C   0  0  2  0  0  3  0  0  0  0  0  0
  196.7800  176.8520  142.5980 O   0  0  0  0  0  0  0  0  0  0  0  0
  196.0030  176.6400  141.4320 C   0  0  2  0  0  3  0  0  0  0  0  0
  189.7350  172.2460  144.8860 C   0  0  0  0  0  1  0  0  0  0  0  0
  189.8620  173.0600  143.6880 N   0  0  0  0  0  0  0  0  0  0  0  0
  188.9560  172.8210  142.5750 C   0  0  0  0  0  2  0  0  0  0  0  0
  189.2450  173.6870  141.5370 F   0  0  0  0  0  0  0  0  0  0  0  0
  192.5900  173.0130  142.7840 N   0  0  0  0  0  0  0  0  0  0  0  0
  193.5620  172.3220  140.7740 C   0  0  0  0  0  2  0  0  0  0  0  0
  192.7690  173.5110  140.5060 C   0  0  1  0  0  3  0  0  0  0  0  0
  192.0030  173.3280  139.2140 C   0  0  0  0  0  1  0  0  0  0  0  0
  192.2910  172.5240  141.4940 N   0  0  0  0  0  0  0  0  0  0  0  0
  193.6680  172.3900  143.5600 C   0  0  1  0  0  3  0  0  0  0  0  0
  193.3570  172.4470  144.9330 O   0  0  0  0  0  0  0  0  0  0  0  0
  193.1780  171.2030  144.3030 C   0  0  0  0  0  2  0  0  0  0  0  0
  1  3  1  0  0  0  0
  2  1  2  0  0  0  0
  2  8  1  0  0  0  0
  3  7  2  0  0  0  0
  4 10  1  0  0  0  0
  5  7  1  0  0  0  0
  5  4  1  0  0  0  0
  6 10  1  0  0  0  0
  7  6  1  0  0  0  0
  8  5  2  0  0  0  0
 10  9  1  6  0  0  0
 11 13  1  6  0  0  0
 12 11  1  0  0  0  0
 14 16  1  0  0  0  0
 16  1  1  1  0  0  0
 16 11  1  0  0  0  0
 17 12  1  0  0  0  0
 18 15  1  1  0  0  0
 18 14  1  0  0  0  0
 18 17  1  0  0  0  0
 20  8  1  0  0  0  0
 20 19  1  0  0  0  0
 21 20  1  0  0  0  0
 22 21  1  0  0  0  0
 23  2  1  0  0  0  0
 24 27  1  0  0  0  0
 25 26  1  6  0  0  0
 25 24  1  0  0  0  0
 25 27  1  0  0  0  0
 27 23  1  0  0  0  0
 28 23  1  6  0  0  0
 28 30  1  0  0  0  0
 28 29  1  0  0  0  0
 30 29  1  0  0  0  0
M  END
>  <MODEL>
4

>  <REMARK>
 VINA RESULT:      -5.9      3.388      5.366
  Name = 
  6 active torsions:
  status: ('A' for Active; 'I' for Inactive)
    1  A    between atoms: C_1  and  C_22
    2  A    between atoms: C_4  and  N_23
    3  A    between atoms: C_7  and  N_30
    4  A    between atoms: C_10  and  N_23
    5  A    between atoms: C_13  and  N_30
    6  A    between atoms: N_23  and  N_25
                            x       y       z     vdW  Elec       q    Type
                         _______ _______ _______ _____ _____    ______ ____

>  <TORSDO>
F 6

$$$$
=
 OpenBabel11052417073D

 30 34  0  0  1  0  0  0  0  0999 V2000
  189.8000  174.5490  141.7910 C   0  0  0  0  0  0  0  0  0  0  0  0
  190.3040  175.4690  142.7740 C   0  0  0  0  0  0  0  0  0  0  0  0
  188.6680  174.8970  141.0360 C   0  0  0  0  0  3  0  0  0  0  0  0
  187.6930  178.2410  142.1470 C   0  0  0  0  0  2  0  0  0  0  0  0
  188.5510  177.0240  142.1430 C   0  0  0  0  0  0  0  0  0  0  0  0
  186.9520  176.6120  140.5950 O   0  0  0  0  0  0  0  0  0  0  0  0
  188.0690  176.1310  141.2390 C   0  0  0  0  0  0  0  0  0  0  0  0
  189.6690  176.7330  142.9330 C   0  0  0  0  0  0  0  0  0  0  0  0
  185.2550  177.9140  141.6950 C   0  0  0  0  0  1  0  0  0  0  0  0
  186.6360  177.9190  141.0700 C   0  0  1  0  0  3  0  0  0  0  0  0
  190.8280  173.0370  140.0030 C   0  0  1  0  0  3  0  0  0  0  0  0
  191.5030  171.6790  139.8380 C   0  0  0  0  0  2  0  0  0  0  0  0
  189.7410  173.1370  139.1340 O   0  0  0  0  0  1  0  0  0  0  0  0
  189.6910  171.9750  142.0390 C   0  0  0  0  0  2  0  0  0  0  0  0
  191.6700  170.4270  142.4420 C   0  0  0  0  0  1  0  0  0  0  0  0
  190.3960  173.2020  141.4630 C   0  0  2  0  0  3  0  0  0  0  0  0
  190.6380  170.6290  140.2230 O   0  0  0  0  0  0  0  0  0  0  0  0
  190.4090  170.6880  141.6210 C   0  0  2  0  0  3  0  0  0  0  0  0
  191.1390  178.6710  143.5130 C   0  0  0  0  0  1  0  0  0  0  0  0
  190.1380  177.6880  143.8950 N   0  0  0  0  0  0  0  0  0  0  0  0
  189.4190  177.8650  145.1460 C   0  0  0  0  0  2  0  0  0  0  0  0
  188.3900  176.9450  145.2340 F   0  0  0  0  0  0  0  0  0  0  0  0
  191.4900  175.1750  143.5450 N   0  0  0  0  0  0  0  0  0  0  0  0
  191.4560  173.3970  145.0620 C   0  0  0  0  0  2  0  0  0  0  0  0
  190.1560  174.0460  145.0990 C   0  0  1  0  0  3  0  0  0  0  0  0
  189.6910  174.1670  146.5340 C   0  0  0  0  0  1  0  0  0  0  0  0
  191.3720  174.8620  144.9170 N   0  0  0  0  0  0  0  0  0  0  0  0
  192.7750  174.9710  142.8670 C   0  0  1  0  0  3  0  0  0  0  0  0
  193.0390  176.0620  142.0150 O   0  0  0  0  0  0  0  0  0  0  0  0
  193.7480  176.0310  143.2290 C   0  0  0  0  0  2  0  0  0  0  0  0
  1  2  1  0  0  0  0
  2  8  2  0  0  0  0
  2 23  1  0  0  0  0
  3  7  1  0  0  0  0
  3  1  2  0  0  0  0
  5  4  1  0  0  0  0
  5  8  1  0  0  0  0
  6 10  1  0  0  0  0
  6  7  1  0  0  0  0
  7  5  2  0  0  0  0
  8 20  1  0  0  0  0
 10  9  1  1  0  0  0
 10  4  1  0  0  0  0
 11 13  1  6  0  0  0
 11 16  1  0  0  0  0
 12 11  1  0  0  0  0
 12 17  1  0  0  0  0
 16  1  1  6  0  0  0
 16 14  1  0  0  0  0
 17 18  1  0  0  0  0
 18 14  1  0  0  0  0
 18 15  1  1  0  0  0
 19 20  1  0  0  0  0
 20 21  1  0  0  0  0
 21 22  1  0  0  0  0
 23 27  1  0  0  0  0
 24 25  1  0  0  0  0
 25 26  1  1  0  0  0
 27 24  1  0  0  0  0
 27 25  1  0  0  0  0
 28 30  1  0  0  0  0
 28 23  1  1  0  0  0
 29 28  1  0  0  0  0
 29 30  1  0  0  0  0
M  END
>  <MODEL>
5

>  <REMARK>
 VINA RESULT:      -5.9      3.175      5.138
  Name = 
  6 active torsions:
  status: ('A' for Active; 'I' for Inactive)
    1  A    between atoms: C_1  and  C_22
    2  A    between atoms: C_4  and  N_23
    3  A    between atoms: C_7  and  N_30
    4  A    between atoms: C_10  and  N_23
    5  A    between atoms: C_13  and  N_30
    6  A    between atoms: N_23  and  N_25
                            x       y       z     vdW  Elec       q    Type
                         _______ _______ _______ _____ _____    ______ ____

>  <TORSDO>
F 6

$$$$
=
 OpenBabel11052417073D

 30 34  0  0  1  0  0  0  0  0999 V2000
  189.5620  174.9090  142.4260 C   0  0  0  0  0  0  0  0  0  0  0  0
  189.7380  175.1250  143.8350 C   0  0  0  0  0  0  0  0  0  0  0  0
  188.5910  175.6490  141.7300 C   0  0  0  0  0  3  0  0  0  0  0  0
  187.0470  177.8680  144.1920 C   0  0  0  0  0  2  0  0  0  0  0  0
  188.0100  176.8250  143.7410 C   0  0  0  0  0  0  0  0  0  0  0  0
  186.8400  177.3790  141.8840 O   0  0  0  0  0  0  0  0  0  0  0  0
  187.8350  176.5890  142.4140 C   0  0  0  0  0  0  0  0  0  0  0  0
  188.9530  176.1140  144.4910 C   0  0  0  0  0  0  0  0  0  0  0  0
  184.8160  177.9190  143.0650 C   0  0  0  0  0  1  0  0  0  0  0  0
  186.2910  178.2220  142.8950 C   0  0  1  0  0  3  0  0  0  0  0  0
  191.8720  174.0380  141.7600 C   0  0  1  0  0  3  0  0  0  0  0  0
  192.5390  172.9450  140.9310 C   0  0  0  0  0  2  0  0  0  0  0  0
  192.3570  175.2890  141.3750 O   0  0  0  0  0  1  0  0  0  0  0  0
  189.9170  173.7800  140.1240 C   0  0  0  0  0  2  0  0  0  0  0  0
  190.4610  171.3250  139.7330 C   0  0  0  0  0  1  0  0  0  0  0  0
  190.3550  173.9440  141.5790 C   0  0  2  0  0  3  0  0  0  0  0  0
  192.1910  173.0580  139.5650 O   0  0  0  0  0  0  0  0  0  0  0  0
  190.8140  172.7720  139.3970 C   0  0  2  0  0  3  0  0  0  0  0  0
  189.8600  177.5230  146.3480 C   0  0  0  0  0  1  0  0  0  0  0  0
  189.0960  176.3710  145.8950 N   0  0  0  0  0  0  0  0  0  0  0  0
  188.2530  175.6660  146.8480 C   0  0  0  0  0  2  0  0  0  0  0  0
  189.0260  174.8350  147.6380 F   0  0  0  0  0  0  0  0  0  0  0  0
  190.7510  174.4190  144.5860 N   0  0  0  0  0  0  0  0  0  0  0  0
  192.9180  174.0140  145.3640 C   0  0  0  0  0  2  0  0  0  0  0  0
  192.2790  174.9490  146.2760 C   0  0  1  0  0  3  0  0  0  0  0  0
  193.2590  176.0370  146.6550 C   0  0  0  0  0  1  0  0  0  0  0  0
  191.9980  175.0350  144.8300 N   0  0  0  0  0  0  0  0  0  0  0  0
  190.4120  173.1770  145.2900 C   0  0  1  0  0  3  0  0  0  0  0  0
  189.3160  172.5580  144.6550 O   0  0  0  0  0  0  0  0  0  0  0  0
  190.5810  171.9960  144.4090 C   0  0  0  0  0  2  0  0  0  0  0  0
  1  2  1  0  0  0  0
  2  8  2  0  0  0  0
  2 23  1  0  0  0  0
  3  7  1  0  0  0  0
  3  1  2  0  0  0  0
  5  4  1  0  0  0  0
  5  8  1  0  0  0  0
  6  7  1  0  0  0  0
  6 10  1  0  0  0  0
  7  5  2  0  0  0  0
  8 20  1  0  0  0  0
 10  9  1  1  0  0  0
 10  4  1  0  0  0  0
 11 13  1  6  0  0  0
 12 11  1  0  0  0  0
 14 16  1  0  0  0  0
 16 11  1  0  0  0  0
 16  1  1  6  0  0  0
 17 12  1  0  0  0  0
 18 17  1  0  0  0  0
 18 15  1  1  0  0  0
 18 14  1  0  0  0  0
 20 19  1  0  0  0  0
 20 21  1  0  0  0  0
 21 22  1  0  0  0  0
 23 27  1  0  0  0  0
 24 25  1  0  0  0  0
 25 26  1  6  0  0  0
 27 24  1  0  0  0  0
 27 25  1  0  0  0  0
 28 23  1  6  0  0  0
 29 28  1  0  0  0  0
 30 29  1  0  0  0  0
 30 28  1  0  0  0  0
M  END
>  <MODEL>
6

>  <REMARK>
 VINA RESULT:      -5.8      2.836      5.288
  Name = 
  6 active torsions:
  status: ('A' for Active; 'I' for Inactive)
    1  A    between atoms: C_1  and  C_22
    2  A    between atoms: C_4  and  N_23
    3  A    between atoms: C_7  and  N_30
    4  A    between atoms: C_10  and  N_23
    5  A    between atoms: C_13  and  N_30
    6  A    between atoms: N_23  and  N_25
                            x       y       z     vdW  Elec       q    Type
                         _______ _______ _______ _____ _____    ______ ____

>  <TORSDO>
F 6

$$$$
=
 OpenBabel11052417073D

 30 34  0  0  1  0  0  0  0  0999 V2000
  188.1520  176.1100  143.6960 C   0  0  0  0  0  0  0  0  0  0  0  0
  189.5530  175.9500  143.9720 C   0  0  0  0  0  0  0  0  0  0  0  0
  187.5100  175.2070  142.8320 C   0  0  0  0  0  3  0  0  0  0  0  0
  190.0620  172.7990  141.8020 C   0  0  0  0  0  2  0  0  0  0  0  0
  189.5560  173.9820  142.5530 C   0  0  0  0  0  0  0  0  0  0  0  0
  187.7630  173.2100  141.4070 O   0  0  0  0  0  0  0  0  0  0  0  0
  188.2370  174.1650  142.2780 C   0  0  0  0  0  0  0  0  0  0  0  0
  190.2540  174.8530  143.3960 C   0  0  0  0  0  0  0  0  0  0  0  0
  189.0450  172.3560  139.5600 C   0  0  0  0  0  1  0  0  0  0  0  0
  188.8050  172.3030  141.0560 C   0  0  1  0  0  3  0  0  0  0  0  0
  187.2270  177.2230  145.8040 C   0  0  1  0  0  3  0  0  0  0  0  0
  186.3760  178.4090  146.2490 C   0  0  0  0  0  2  0  0  0  0  0  0
  186.7090  176.0410  146.3370 O   0  0  0  0  0  1  0  0  0  0  0  0
  185.8900  177.3670  143.6230 C   0  0  0  0  0  2  0  0  0  0  0  0
  185.5660  179.8760  143.8900 C   0  0  0  0  0  1  0  0  0  0  0  0
  187.2600  177.1820  144.2740 C   0  0  2  0  0  3  0  0  0  0  0  0
  185.0670  178.3220  145.7240 O   0  0  0  0  0  0  0  0  0  0  0  0
  185.1050  178.4850  144.3160 C   0  0  2  0  0  3  0  0  0  0  0  0
  192.0790  173.5720  144.5300 C   0  0  0  0  0  1  0  0  0  0  0  0
  191.6510  174.6460  143.6470 N   0  0  0  0  0  0  0  0  0  0  0  0
  192.6400  175.3040  142.8090 C   0  0  0  0  0  2  0  0  0  0  0  0
  193.5110  176.0380  143.5920 F   0  0  0  0  0  0  0  0  0  0  0  0
  190.2480  176.8270  144.8860 N   0  0  0  0  0  0  0  0  0  0  0  0
  189.9900  175.5660  146.8370 C   0  0  0  0  0  2  0  0  0  0  0  0
  190.4330  176.8970  147.2160 C   0  0  1  0  0  3  0  0  0  0  0  0
  191.4830  176.7910  148.3010 C   0  0  0  0  0  1  0  0  0  0  0  0
  190.9540  176.2810  145.9800 N   0  0  0  0  0  0  0  0  0  0  0  0
  190.4200  178.2460  144.5540 C   0  0  1  0  0  3  0  0  0  0  0  0
  191.7740  178.5020  144.2580 O   0  0  0  0  0  0  0  0  0  0  0  0
  190.8990  178.4170  143.1610 C   0  0  0  0  0  2  0  0  0  0  0  0
  1  2  1  0  0  0  0
  2 23  1  0  0  0  0
  3  1  2  0  0  0  0
  4  5  1  0  0  0  0
  5  8  1  0  0  0  0
  6  7  1  0  0  0  0
  7  5  2  0  0  0  0
  7  3  1  0  0  0  0
  8 20  1  0  0  0  0
  8  2  2  0  0  0  0
 10  9  1  6  0  0  0
 10  6  1  0  0  0  0
 10  4  1  0  0  0  0
 11 12  1  0  0  0  0
 11 13  1  6  0  0  0
 14 16  1  0  0  0  0
 14 18  1  0  0  0  0
 16  1  1  1  0  0  0
 16 11  1  0  0  0  0
 17 12  1  0  0  0  0
 18 15  1  1  0  0  0
 18 17  1  0  0  0  0
 20 19  1  0  0  0  0
 21 22  1  0  0  0  0
 21 20  1  0  0  0  0
 23 27  1  0  0  0  0
 24 25  1  0  0  0  0
 25 26  1  1  0  0  0
 27 24  1  0  0  0  0
 27 25  1  0  0  0  0
 28 23  1  6  0  0  0
 29 28  1  0  0  0  0
 30 29  1  0  0  0  0
 30 28  1  0  0  0  0
M  END
>  <MODEL>
7

>  <REMARK>
 VINA RESULT:      -5.8      2.616      6.188
  Name = 
  6 active torsions:
  status: ('A' for Active; 'I' for Inactive)
    1  A    between atoms: C_1  and  C_22
    2  A    between atoms: C_4  and  N_23
    3  A    between atoms: C_7  and  N_30
    4  A    between atoms: C_10  and  N_23
    5  A    between atoms: C_13  and  N_30
    6  A    between atoms: N_23  and  N_25
                            x       y       z     vdW  Elec       q    Type
                         _______ _______ _______ _____ _____    ______ ____

>  <TORSDO>
F 6

$$$$
=
 OpenBabel11052417073D

 30 34  0  0  1  0  0  0  0  0999 V2000
  192.4230  174.6660  142.4870 C   0  0  0  0  0  0  0  0  0  0  0  0
  191.0170  174.9100  142.6480 C   0  0  0  0  0  0  0  0  0  0  0  0
  192.8750  173.9300  141.3780 C   0  0  0  0  0  3  0  0  0  0  0  0
  189.8930  173.0850  139.4380 C   0  0  0  0  0  2  0  0  0  0  0  0
  190.6230  173.7180  140.5720 C   0  0  0  0  0  0  0  0  0  0  0  0
  192.2310  172.7270  139.3240 O   0  0  0  0  0  0  0  0  0  0  0  0
  191.9540  173.4700  140.4490 C   0  0  0  0  0  0  0  0  0  0  0  0
  190.1110  174.4350  141.6580 C   0  0  0  0  0  0  0  0  0  0  0  0
  190.8210  170.9430  138.5420 C   0  0  0  0  0  1  0  0  0  0  0  0
  191.0280  172.4430  138.6140 C   0  0  1  0  0  3  0  0  0  0  0  0
  194.6180  175.9560  142.7270 C   0  0  1  0  0  3  0  0  0  0  0  0
  195.5870  176.4700  143.7890 C   0  0  0  0  0  2  0  0  0  0  0  0
  195.3060  175.1830  141.7910 O   0  0  0  0  0  1  0  0  0  0  0  0
  194.0250  174.1610  144.4570 C   0  0  0  0  0  2  0  0  0  0  0  0
  194.5570  175.7280  146.3890 C   0  0  0  0  0  1  0  0  0  0  0  0
  193.5110  175.1530  143.4140 C   0  0  2  0  0  3  0  0  0  0  0  0
  196.1350  175.4030  144.5370 O   0  0  0  0  0  0  0  0  0  0  0  0
  195.1200  174.7970  145.3180 C   0  0  2  0  0  3  0  0  0  0  0  0
  188.0880  175.7940  141.0950 C   0  0  0  0  0  1  0  0  0  0  0  0
  188.6990  174.6590  141.7690 N   0  0  0  0  0  0  0  0  0  0  0  0
  187.8420  173.6120  142.3020 C   0  0  0  0  0  2  0  0  0  0  0  0
  188.5990  172.5010  142.6250 F   0  0  0  0  0  0  0  0  0  0  0  0
  190.5080  175.6970  143.7480 N   0  0  0  0  0  0  0  0  0  0  0  0
  190.3030  173.7820  145.0730 C   0  0  0  0  0  2  0  0  0  0  0  0
  189.3130  174.7480  145.5210 C   0  0  1  0  0  3  0  0  0  0  0  0
  189.2720  174.7650  147.0330 C   0  0  0  0  0  1  0  0  0  0  0  0
  190.6380  175.2180  145.0700 N   0  0  0  0  0  0  0  0  0  0  0  0
  190.0750  177.0800  143.5220 C   0  0  1  0  0  3  0  0  0  0  0  0
  190.4070  177.8690  144.6420 O   0  0  0  0  0  0  0  0  0  0  0  0
  191.2300  178.0100  143.5120 C   0  0  0  0  0  2  0  0  0  0  0  0
  1  2  1  0  0  0  0
  2 23  1  0  0  0  0
  3  1  2  0  0  0  0
  4  5  1  0  0  0  0
  5  8  1  0  0  0  0
  6  7  1  0  0  0  0
  7  5  2  0  0  0  0
  7  3  1  0  0  0  0
  8 20  1  0  0  0  0
  8  2  2  0  0  0  0
 10  9  1  1  0  0  0
 10  6  1  0  0  0  0
 10  4  1  0  0  0  0
 11 13  1  6  0  0  0
 11 16  1  0  0  0  0
 11 12  1  0  0  0  0
 12 17  1  0  0  0  0
 14 18  1  0  0  0  0
 16  1  1  6  0  0  0
 16 14  1  0  0  0  0
 17 18  1  0  0  0  0
 18 15  1  1  0  0  0
 19 20  1  0  0  0  0
 20 21  1  0  0  0  0
 21 22  1  0  0  0  0
 23 27  1  0  0  0  0
 24 25  1  0  0  0  0
 25 26  1  1  0  0  0
 27 24  1  0  0  0  0
 27 25  1  0  0  0  0
 28 23  1  1  0  0  0
 28 29  1  0  0  0  0
 30 28  1  0  0  0  0
 30 29  1  0  0  0  0
M  END
>  <MODEL>
8

>  <REMARK>
 VINA RESULT:      -5.7      3.279      6.036
  Name = 
  6 active torsions:
  status: ('A' for Active; 'I' for Inactive)
    1  A    between atoms: C_1  and  C_22
    2  A    between atoms: C_4  and  N_23
    3  A    between atoms: C_7  and  N_30
    4  A    between atoms: C_10  and  N_23
    5  A    between atoms: C_13  and  N_30
    6  A    between atoms: N_23  and  N_25
                            x       y       z     vdW  Elec       q    Type
                         _______ _______ _______ _____ _____    ______ ____

>  <TORSDO>
F 6

$$$$
=
 OpenBabel11052417073D

 30 34  0  0  1  0  0  0  0  0999 V2000
  189.9910  174.4080  142.0860 C   0  0  0  0  0  0  0  0  0  0  0  0
  190.4490  175.3050  143.1110 C   0  0  0  0  0  0  0  0  0  0  0  0
  188.8790  174.7620  141.3040 C   0  0  0  0  0  3  0  0  0  0  0  0
  187.8190  178.0580  142.4790 C   0  0  0  0  0  2  0  0  0  0  0  0
  188.6940  176.8540  142.4680 C   0  0  0  0  0  0  0  0  0  0  0  0
  187.1530  176.4660  140.8570 O   0  0  0  0  0  0  0  0  0  0  0  0
  188.2560  175.9810  141.5230 C   0  0  0  0  0  0  0  0  0  0  0  0
  189.7900  176.5550  143.2860 C   0  0  0  0  0  0  0  0  0  0  0  0
  185.4020  177.7110  141.9370 C   0  0  0  0  0  1  0  0  0  0  0  0
  186.8030  177.7530  141.3590 C   0  0  1  0  0  3  0  0  0  0  0  0
  191.3030  173.0390  140.3700 C   0  0  1  0  0  3  0  0  0  0  0  0
  191.9770  171.6810  140.1950 C   0  0  0  0  0  2  0  0  0  0  0  0
  190.3920  173.2540  139.3350 O   0  0  0  0  0  1  0  0  0  0  0  0
  189.8020  171.8260  142.0570 C   0  0  0  0  0  2  0  0  0  0  0  0
  191.6540  170.1860  142.6510 C   0  0  0  0  0  1  0  0  0  0  0  0
  190.6170  173.0790  141.7380 C   0  0  2  0  0  3  0  0  0  0  0  0
  191.0420  170.6280  140.3150 O   0  0  0  0  0  0  0  0  0  0  0  0
  190.5660  170.5630  141.6490 C   0  0  2  0  0  3  0  0  0  0  0  0
  191.0800  178.5990  143.9300 C   0  0  0  0  0  1  0  0  0  0  0  0
  190.2130  177.4870  144.2900 N   0  0  0  0  0  0  0  0  0  0  0  0
  189.5570  177.4980  145.5870 C   0  0  0  0  0  2  0  0  0  0  0  0
  188.7580  176.3770  145.7220 F   0  0  0  0  0  0  0  0  0  0  0  0
  191.6130  175.0050  143.9130 N   0  0  0  0  0  0  0  0  0  0  0  0
  192.9620  175.8500  142.2010 C   0  0  0  0  0  2  0  0  0  0  0  0
  193.6910  174.7800  142.8640 C   0  0  1  0  0  3  0  0  0  0  0  0
  195.1350  175.1930  143.0490 C   0  0  0  0  0  1  0  0  0  0  0  0
  192.8290  175.6760  143.6590 N   0  0  0  0  0  0  0  0  0  0  0  0
  191.4790  174.1910  145.1250 C   0  0  1  0  0  3  0  0  0  0  0  0
  192.7380  174.0510  145.7430 O   0  0  0  0  0  0  0  0  0  0  0  0
  191.8480  174.9640  146.3360 C   0  0  0  0  0  2  0  0  0  0  0  0
  1  2  1  0  0  0  0
  2  8  2  0  0  0  0
  2 23  1  0  0  0  0
  3  7  1  0  0  0  0
  3  1  2  0  0  0  0
  5  4  1  0  0  0  0
  5  8  1  0  0  0  0
  6 10  1  0  0  0  0
  6  7  1  0  0  0  0
  7  5  2  0  0  0  0
  8 20  1  0  0  0  0
 10  9  1  1  0  0  0
 10  4  1  0  0  0  0
 11 13  1  6  0  0  0
 11 16  1  0  0  0  0
 12 17  1  0  0  0  0
 12 11  1  0  0  0  0
 16 14  1  0  0  0  0
 16  1  1  6  0  0  0
 17 18  1  0  0  0  0
 18 14  1  0  0  0  0
 18 15  1  1  0  0  0
 19 20  1  0  0  0  0
 20 21  1  0  0  0  0
 21 22  1  0  0  0  0
 24 25  1  0  0  0  0
 24 27  1  0  0  0  0
 25 26  1  1  0  0  0
 25 27  1  0  0  0  0
 27 23  1  0  0  0  0
 28 23  1  6  0  0  0
 28 29  1  0  0  0  0
 28 30  1  0  0  0  0
 29 30  1  0  0  0  0
M  END
>  <MODEL>
9

>  <REMARK>
 VINA RESULT:      -5.7      2.977      5.228
  Name = 
  6 active torsions:
  status: ('A' for Active; 'I' for Inactive)
    1  A    between atoms: C_1  and  C_22
    2  A    between atoms: C_4  and  N_23
    3  A    between atoms: C_7  and  N_30
    4  A    between atoms: C_10  and  N_23
    5  A    between atoms: C_13  and  N_30
    6  A    between atoms: N_23  and  N_25
                            x       y       z     vdW  Elec       q    Type
                         _______ _______ _______ _____ _____    ______ ____

>  <TORSDO>
F 6

$$$$
