=
 OpenBabel11052417073D

 30 36  0  0  1  0  0  0  0  0999 V2000
  185.3390  177.6140  145.8940 C   0  0  0  0  0  0  0  0  0  0  0  0
  184.3880  178.5330  145.7430 C   0  0  0  0  0  3  0  0  0  0  0  0
  185.0380  176.3940  146.4900 O   0  0  0  0  0  1  0  0  0  0  0  0
  186.6340  178.5130  143.9590 C   0  0  2  0  0  3  0  0  0  0  0  0
  184.7290  179.8640  145.1390 C   0  0  0  0  0  2  0  0  0  0  0  0
  186.7250  177.9200  145.3910 C   0  0  2  0  0  3  0  0  0  0  0  0
  185.6910  179.7450  143.9400 C   0  0  0  0  0  2  0  0  0  0  0  0
  187.5980  176.7540  145.4700 N   0  0  2  0  0  0  0  0  0  0  0  0
  188.2450  176.7810  146.7940 C   0  0  2  0  0  3  0  0  0  0  0  0
  188.9810  177.2480  145.5960 C   0  0  1  0  0  3  0  0  0  0  0  0
  192.1190  175.8760  146.1060 N   0  0  0  0  0  0  0  0  0  0  0  0
  190.7290  175.4960  146.0280 C   0  0  1  0  0  0  0  0  0  0  0  0
  191.1810  177.1270  143.9690 S   0  0  0  0  0  0  0  0  0  0  0  0
  189.9370  176.2310  144.9610 C   0  0  2  0  0  3  0  0  0  0  0  0
  190.4450  174.0400  146.2810 C   0  0  0  0  0  2  0  0  0  0  0  0
  193.7740  177.1930  145.0610 N   0  0  0  0  0  1  0  0  0  0  0  0
  192.4540  176.6730  145.1520 C   0  0  0  0  0  0  0  0  0  0  0  0
  188.5550  175.3460  147.2330 C   0  0  0  0  0  2  0  0  0  0  0  0
  190.0580  175.0930  147.3230 C   0  0  2  0  0  3  0  0  0  0  0  0
  185.9780  178.1570  140.2290 S   0  0  0  0  0  0  0  0  0  0  0  0
  187.4640  177.2110  140.6960 C   0  0  1  0  0  3  0  0  0  0  0  0
  185.2940  177.9990  141.8630 C   0  0  0  0  0  0  0  0  0  0  0  0
  187.4730  176.9150  142.1870 C   0  0  2  0  0  3  0  0  0  0  0  0
  183.9900  177.7730  141.9930 C   0  0  0  0  0  2  0  0  0  0  0  0
  187.1040  175.8230  141.1980 C   0  0  2  0  0  3  0  0  0  0  0  0
  186.2300  177.4600  142.8960 C   0  0  1  0  0  3  0  0  0  0  0  0
  188.2950  174.9000  141.0190 C   0  0  0  0  0  2  0  0  0  0  0  0
  188.6420  174.2120  142.3320 C   0  0  0  0  0  2  0  0  0  0  0  0
  188.4940  172.7010  142.2250 C   0  0  0  0  0  2  0  0  0  0  0  0
  189.2670  172.0120  143.3330 C   0  0  0  0  0  1  0  0  0  0  0  0
  1  3  1  0  0  0  0
  2  1  2  0  0  0  0
  4  7  1  1  0  0  0
  4  6  1  0  0  0  0
  5  2  1  0  0  0  0
  6  1  1  6  0  0  0
  7  5  1  0  0  0  0
  8  6  1  1  0  0  0
  8 10  1  0  0  0  0
  8  9  1  0  0  0  0
  9 18  1  6  0  0  0
 10  9  1  0  0  0  0
 12 11  1  0  0  0  0
 12 15  1  0  0  0  0
 12 19  1  0  0  0  0
 13 14  1  0  0  0  0
 13 17  1  0  0  0  0
 14 10  1  0  0  0  0
 14 12  1  0  0  0  0
 15 19  1  0  0  0  0
 16 17  1  0  0  0  0
 17 11  2  0  0  0  0
 18 19  1  0  0  0  0
 20 21  1  0  0  0  0
 20 22  1  0  0  0  0
 21 25  1  0  0  0  0
 21 23  1  0  0  0  0
 22 24  2  0  0  0  0
 22 26  1  0  0  0  0
 23 26  1  0  0  0  0
 25 23  1  0  0  0  0
 26  4  1  0  0  0  0
 27 25  1  0  0  0  0
 27 28  1  0  0  0  0
 29 28  1  0  0  0  0
 29 30  1  0  0  0  0
M  END
>  <MODEL>
1

>  <REMARK>
 VINA RESULT:      -7.5      0.000      0.000
  Name = 
  5 active torsions:
  status: ('A' for Active; 'I' for Inactive)
    1  A    between atoms: N_1  and  C_22
    2  A    between atoms: C_7  and  C_15
    3  A    between atoms: C_15  and  C_16
    4  A    between atoms: C_16  and  C_25
    5  A    between atoms: C_19  and  C_29
                            x       y       z     vdW  Elec       q    Type
                         _______ _______ _______ _____ _____    ______ ____

>  <TORSDO>
F 5

$$$$
=
 OpenBabel11052417073D

 30 36  0  0  1  0  0  0  0  0999 V2000
  193.0150  174.1400  144.8210 C   0  0  0  0  0  0  0  0  0  0  0  0
  194.0140  174.6280  145.5540 C   0  0  0  0  0  3  0  0  0  0  0  0
  192.7460  172.7760  144.8350 O   0  0  0  0  0  1  0  0  0  0  0  0
  191.7950  176.3160  144.8790 C   0  0  2  0  0  3  0  0  0  0  0  0
  194.3270  176.0950  145.5010 C   0  0  0  0  0  2  0  0  0  0  0  0
  192.1860  175.0950  144.0040 C   0  0  2  0  0  3  0  0  0  0  0  0
  193.0600  176.9740  145.4890 C   0  0  0  0  0  2  0  0  0  0  0  0
  191.0330  174.4310  143.4050 N   0  0  2  0  0  0  0  0  0  0  0  0
  191.3000  174.3130  141.9610 C   0  0  2  0  0  3  0  0  0  0  0  0
  190.4140  175.3870  142.4680 C   0  0  1  0  0  3  0  0  0  0  0  0
  187.8430  175.3490  140.1500 N   0  0  0  0  0  0  0  0  0  0  0  0
  188.5500  174.4740  141.0530 C   0  0  1  0  0  0  0  0  0  0  0  0
  188.0080  176.6940  142.4240 S   0  0  0  0  0  0  0  0  0  0  0  0
  188.9090  175.1070  142.3870 C   0  0  2  0  0  3  0  0  0  0  0  0
  188.1240  173.0310  141.0160 C   0  0  0  0  0  2  0  0  0  0  0  0
  186.8520  177.4840  139.9830 N   0  0  0  0  0  1  0  0  0  0  0  0
  187.5280  176.4650  140.7090 C   0  0  0  0  0  0  0  0  0  0  0  0
  190.5780  173.0750  141.4140 C   0  0  0  0  0  2  0  0  0  0  0  0
  189.4750  173.4520  140.4290 C   0  0  2  0  0  3  0  0  0  0  0  0
  190.4020  177.5890  148.1820 S   0  0  0  0  0  0  0  0  0  0  0  0
  189.1240  177.6860  146.8850 C   0  0  1  0  0  3  0  0  0  0  0  0
  191.2220  176.2470  147.3530 C   0  0  0  0  0  0  0  0  0  0  0  0
  189.4530  176.7560  145.7290 C   0  0  2  0  0  3  0  0  0  0  0  0
  191.7090  175.2460  148.0810 C   0  0  0  0  0  2  0  0  0  0  0  0
  188.3840  176.3690  146.7350 C   0  0  2  0  0  3  0  0  0  0  0  0
  190.7450  175.9680  145.9640 C   0  0  1  0  0  3  0  0  0  0  0  0
  187.0180  176.6270  146.1240 C   0  0  0  0  0  2  0  0  0  0  0  0
  186.1170  177.3510  147.1150 C   0  0  0  0  0  2  0  0  0  0  0  0
  185.6000  178.6620  146.5400 C   0  0  0  0  0  2  0  0  0  0  0  0
  185.9910  178.7930  145.0810 C   0  0  0  0  0  1  0  0  0  0  0  0
  1  3  1  0  0  0  0
  1  2  2  0  0  0  0
  4  7  1  1  0  0  0
  4 26  1  0  0  0  0
  5  2  1  0  0  0  0
  6  1  1  1  0  0  0
  6  4  1  0  0  0  0
  7  5  1  0  0  0  0
  8  6  1  1  0  0  0
  9 18  1  6  0  0  0
  9 10  1  0  0  0  0
  9  8  1  0  0  0  0
 10  8  1  0  0  0  0
 11 17  2  0  0  0  0
 11 12  1  0  0  0  0
 12 14  1  0  0  0  0
 14 13  1  0  0  0  0
 14 10  1  0  0  0  0
 15 12  1  0  0  0  0
 16 17  1  0  0  0  0
 17 13  1  0  0  0  0
 19 15  1  0  0  0  0
 19 12  1  0  0  0  0
 19 18  1  0  0  0  0
 21 20  1  0  0  0  0
 22 24  2  0  0  0  0
 22 20  1  0  0  0  0
 23 26  1  0  0  0  0
 23 25  1  0  0  0  0
 23 21  1  0  0  0  0
 25 21  1  0  0  0  0
 26 22  1  0  0  0  0
 27 25  1  0  0  0  0
 27 28  1  0  0  0  0
 29 28  1  0  0  0  0
 30 29  1  0  0  0  0
M  END
>  <MODEL>
2

>  <REMARK>
 VINA RESULT:      -6.8      2.824      7.058
  Name = 
  5 active torsions:
  status: ('A' for Active; 'I' for Inactive)
    1  A    between atoms: N_1  and  C_22
    2  A    between atoms: C_7  and  C_15
    3  A    between atoms: C_15  and  C_16
    4  A    between atoms: C_16  and  C_25
    5  A    between atoms: C_19  and  C_29
                            x       y       z     vdW  Elec       q    Type
                         _______ _______ _______ _____ _____    ______ ____

>  <TORSDO>
F 5

$$$$
=
 OpenBabel11052417073D

 30 36  0  0  1  0  0  0  0  0999 V2000
  189.0370  176.2330  144.9580 C   0  0  0  0  0  0  0  0  0  0  0  0
  187.8680  176.7430  144.5750 C   0  0  0  0  0  3  0  0  0  0  0  0
  189.1110  175.4460  146.1010 O   0  0  0  0  0  1  0  0  0  0  0  0
  189.9170  176.2760  142.6220 C   0  0  2  0  0  3  0  0  0  0  0  0
  187.8020  177.6280  143.3640 C   0  0  0  0  0  2  0  0  0  0  0  0
  190.2550  176.5140  144.1190 C   0  0  2  0  0  3  0  0  0  0  0  0
  188.6810  177.1160  142.2050 C   0  0  0  0  0  2  0  0  0  0  0  0
  191.4100  175.7460  144.5700 N   0  0  2  0  0  0  0  0  0  0  0  0
  192.2240  176.6360  145.4170 C   0  0  2  0  0  3  0  0  0  0  0  0
  192.6120  176.3880  144.0090 C   0  0  1  0  0  3  0  0  0  0  0  0
  196.0430  175.9990  144.2720 N   0  0  0  0  0  0  0  0  0  0  0  0
  194.8110  175.4750  144.8110 C   0  0  1  0  0  0  0  0  0  0  0  0
  194.4840  175.6040  142.1690 S   0  0  0  0  0  0  0  0  0  0  0  0
  193.6950  175.3240  143.7920 C   0  0  2  0  0  3  0  0  0  0  0  0
  194.9710  174.4330  145.8840 C   0  0  0  0  0  2  0  0  0  0  0  0
  197.1010  176.6340  142.2610 N   0  0  0  0  0  1  0  0  0  0  0  0
  195.9990  176.1080  142.9900 C   0  0  0  0  0  0  0  0  0  0  0  0
  192.9720  175.7960  146.4590 C   0  0  0  0  0  2  0  0  0  0  0  0
  194.4830  175.8400  146.2420 C   0  0  2  0  0  3  0  0  0  0  0  0
  188.6540  173.9950  139.8520 S   0  0  0  0  0  0  0  0  0  0  0  0
  190.4560  173.8020  140.0490 C   0  0  1  0  0  3  0  0  0  0  0  0
  188.4640  174.4890  141.5500 C   0  0  0  0  0  0  0  0  0  0  0  0
  190.9070  174.2840  141.4190 C   0  0  2  0  0  3  0  0  0  0  0  0
  187.4180  174.0370  142.2350 C   0  0  0  0  0  2  0  0  0  0  0  0
  190.7920  172.7970  141.1360 C   0  0  2  0  0  3  0  0  0  0  0  0
  189.7380  174.7760  142.2770 C   0  0  1  0  0  3  0  0  0  0  0  0
  192.1800  172.2340  140.8890 C   0  0  0  0  0  2  0  0  0  0  0  0
  192.9250  172.0490  142.2030 C   0  0  0  0  0  2  0  0  0  0  0  0
  192.0550  171.3590  143.2430 C   0  0  0  0  0  2  0  0  0  0  0  0
  192.0320  172.1590  144.5320 C   0  0  0  0  0  1  0  0  0  0  0  0
  1  3  1  0  0  0  0
  2  1  2  0  0  0  0
  4  7  1  1  0  0  0
  4  6  1  0  0  0  0
  5  2  1  0  0  0  0
  6  1  1  1  0  0  0
  7  5  1  0  0  0  0
  8  6  1  6  0  0  0
  8  9  1  0  0  0  0
  9 18  1  1  0  0  0
 10  8  1  0  0  0  0
 10  9  1  0  0  0  0
 11 12  1  0  0  0  0
 12 15  1  0  0  0  0
 12 19  1  0  0  0  0
 13 17  1  0  0  0  0
 13 14  1  0  0  0  0
 14 10  1  0  0  0  0
 14 12  1  0  0  0  0
 15 19  1  0  0  0  0
 16 17  1  0  0  0  0
 17 11  2  0  0  0  0
 19 18  1  0  0  0  0
 20 21  1  0  0  0  0
 20 22  1  0  0  0  0
 21 25  1  0  0  0  0
 21 23  1  0  0  0  0
 22 24  2  0  0  0  0
 22 26  1  0  0  0  0
 23 26  1  0  0  0  0
 25 23  1  0  0  0  0
 26  4  1  0  0  0  0
 27 25  1  0  0  0  0
 27 28  1  0  0  0  0
 28 29  1  0  0  0  0
 29 30  1  0  0  0  0
M  END
>  <MODEL>
3

>  <REMARK>
 VINA RESULT:      -6.3      2.742      4.344
  Name = 
  5 active torsions:
  status: ('A' for Active; 'I' for Inactive)
    1  A    between atoms: N_1  and  C_22
    2  A    between atoms: C_7  and  C_15
    3  A    between atoms: C_15  and  C_16
    4  A    between atoms: C_16  and  C_25
    5  A    between atoms: C_19  and  C_29
                            x       y       z     vdW  Elec       q    Type
                         _______ _______ _______ _____ _____    ______ ____

>  <TORSDO>
F 5

$$$$
=
 OpenBabel11052417073D

 30 36  0  0  1  0  0  0  0  0999 V2000
  188.8080  175.8000  146.6940 C   0  0  0  0  0  0  0  0  0  0  0  0
  187.7730  176.5650  147.0340 C   0  0  0  0  0  3  0  0  0  0  0  0
  188.9560  174.5390  147.2610 O   0  0  0  0  0  1  0  0  0  0  0  0
  189.0140  176.9180  144.4720 C   0  0  2  0  0  3  0  0  0  0  0  0
  187.6430  177.9430  146.4510 C   0  0  0  0  0  2  0  0  0  0  0  0
  189.7890  176.3230  145.6790 C   0  0  2  0  0  3  0  0  0  0  0  0
  188.0020  177.9910  144.9520 C   0  0  0  0  0  2  0  0  0  0  0  0
  190.7550  175.3030  145.2870 N   0  0  2  0  0  0  0  0  0  0  0  0
  191.9240  175.4460  146.1720 C   0  0  2  0  0  3  0  0  0  0  0  0
  191.9580  176.0010  144.7990 C   0  0  1  0  0  3  0  0  0  0  0  0
  195.1400  175.1250  143.7510 N   0  0  0  0  0  0  0  0  0  0  0  0
  193.9370  174.5390  144.2910 C   0  0  1  0  0  0  0  0  0  0  0  0
  193.1640  176.1890  142.3470 S   0  0  0  0  0  0  0  0  0  0  0  0
  192.6500  175.1310  143.7430 C   0  0  2  0  0  3  0  0  0  0  0  0
  194.0080  173.0600  144.5620 C   0  0  0  0  0  2  0  0  0  0  0  0
  195.9310  176.6610  142.1440 N   0  0  0  0  0  1  0  0  0  0  0  0
  194.8860  175.9490  142.7950 C   0  0  0  0  0  0  0  0  0  0  0  0
  192.6000  174.0800  146.3410 C   0  0  0  0  0  2  0  0  0  0  0  0
  193.9970  174.0580  145.7250 C   0  0  2  0  0  3  0  0  0  0  0  0
  187.3160  176.4500  141.0990 S   0  0  0  0  0  0  0  0  0  0  0  0
  188.8850  175.5230  141.1450 C   0  0  1  0  0  3  0  0  0  0  0  0
  187.1330  176.3370  142.8650 C   0  0  0  0  0  0  0  0  0  0  0  0
  189.3260  175.2710  142.5780 C   0  0  2  0  0  3  0  0  0  0  0  0
  185.9250  176.1100  143.3710 C   0  0  0  0  0  2  0  0  0  0  0  0
  188.7010  174.1490  141.7670 C   0  0  2  0  0  3  0  0  0  0  0  0
  188.3330  175.8320  143.5990 C   0  0  1  0  0  3  0  0  0  0  0  0
  189.8020  173.2250  141.2770 C   0  0  0  0  0  2  0  0  0  0  0  0
  190.5920  172.6640  142.4510 C   0  0  0  0  0  2  0  0  0  0  0  0
  189.7470  171.7140  143.2870 C   0  0  0  0  0  2  0  0  0  0  0  0
  189.7190  172.1630  144.7350 C   0  0  0  0  0  1  0  0  0  0  0  0
  1  2  2  0  0  0  0
  1  3  1  0  0  0  0
  4  7  1  1  0  0  0
  4  6  1  0  0  0  0
  5  2  1  0  0  0  0
  6  1  1  1  0  0  0
  7  5  1  0  0  0  0
  8  6  1  1  0  0  0
  8  9  1  0  0  0  0
  9 18  1  6  0  0  0
 10  8  1  0  0  0  0
 10  9  1  0  0  0  0
 11 12  1  0  0  0  0
 12 15  1  0  0  0  0
 12 19  1  0  0  0  0
 13 17  1  0  0  0  0
 13 14  1  0  0  0  0
 14 12  1  0  0  0  0
 14 10  1  0  0  0  0
 15 19  1  0  0  0  0
 16 17  1  0  0  0  0
 17 11  2  0  0  0  0
 19 18  1  0  0  0  0
 20 21  1  0  0  0  0
 20 22  1  0  0  0  0
 21 25  1  0  0  0  0
 21 23  1  0  0  0  0
 22 24  2  0  0  0  0
 22 26  1  0  0  0  0
 23 26  1  0  0  0  0
 25 23  1  0  0  0  0
 26  4  1  0  0  0  0
 27 25  1  0  0  0  0
 27 28  1  0  0  0  0
 28 29  1  0  0  0  0
 29 30  1  0  0  0  0
M  END
>  <MODEL>
4

>  <REMARK>
 VINA RESULT:      -6.2      2.174      3.290
  Name = 
  5 active torsions:
  status: ('A' for Active; 'I' for Inactive)
    1  A    between atoms: N_1  and  C_22
    2  A    between atoms: C_7  and  C_15
    3  A    between atoms: C_15  and  C_16
    4  A    between atoms: C_16  and  C_25
    5  A    between atoms: C_19  and  C_29
                            x       y       z     vdW  Elec       q    Type
                         _______ _______ _______ _____ _____    ______ ____

>  <TORSDO>
F 5

$$$$
=
 OpenBabel11052417073D

 30 36  0  0  1  0  0  0  0  0999 V2000
  195.1420  175.5020  144.0290 C   0  0  0  0  0  0  0  0  0  0  0  0
  196.3130  175.0010  144.4160 C   0  0  0  0  0  3  0  0  0  0  0  0
  195.0740  176.3250  142.9110 O   0  0  0  0  0  1  0  0  0  0  0  0
  193.8900  173.6120  145.0740 C   0  0  2  0  0  3  0  0  0  0  0  0
  196.3860  174.1480  145.6490 C   0  0  0  0  0  2  0  0  0  0  0  0
  193.9090  175.1430  144.8140 C   0  0  2  0  0  3  0  0  0  0  0  0
  195.2050  173.1630  145.7630 C   0  0  0  0  0  2  0  0  0  0  0  0
  192.6950  175.6240  144.1630 N   0  0  2  0  0  0  0  0  0  0  0  0
  192.5140  177.0310  144.5600 C   0  0  2  0  0  3  0  0  0  0  0  0
  191.7310  175.9630  145.2250 C   0  0  1  0  0  3  0  0  0  0  0  0
  188.5860  177.3990  145.4200 N   0  0  0  0  0  0  0  0  0  0  0  0
  189.6160  177.0840  144.4600 C   0  0  1  0  0  0  0  0  0  0  0  0
  189.3160  174.9180  145.9830 S   0  0  0  0  0  0  0  0  0  0  0  0
  190.3070  175.7520  144.6970 C   0  0  2  0  0  3  0  0  0  0  0  0
  189.3370  177.5260  143.0490 C   0  0  0  0  0  2  0  0  0  0  0  0
  187.3960  176.5290  147.2610 N   0  0  0  0  0  1  0  0  0  0  0  0
  188.3550  176.4160  146.2180 C   0  0  0  0  0  0  0  0  0  0  0  0
  191.7800  177.7810  143.4430 C   0  0  0  0  0  2  0  0  0  0  0  0
  190.3960  178.2480  143.8880 C   0  0  2  0  0  3  0  0  0  0  0  0
  194.1050  170.0680  143.7090 S   0  0  0  0  0  0  0  0  0  0  0  0
  192.3610  170.5770  143.8570 C   0  0  1  0  0  3  0  0  0  0  0  0
  194.6390  171.7530  143.5130 C   0  0  0  0  0  0  0  0  0  0  0  0
  192.2400  172.0920  143.9070 C   0  0  2  0  0  3  0  0  0  0  0  0
  195.5960  172.0230  142.6300 C   0  0  0  0  0  2  0  0  0  0  0  0
  191.8990  171.3440  142.6300 C   0  0  2  0  0  3  0  0  0  0  0  0
  193.5990  172.7880  143.7940 C   0  0  1  0  0  3  0  0  0  0  0  0
  190.3900  171.2380  142.5100 C   0  0  0  0  0  2  0  0  0  0  0  0
  189.7110  172.3550  143.2890 C   0  0  0  0  0  2  0  0  0  0  0  0
  188.8190  173.1980  142.3900 C   0  0  0  0  0  2  0  0  0  0  0  0
  189.6590  174.0750  141.4810 C   0  0  0  0  0  1  0  0  0  0  0  0
  1  2  2  0  0  0  0
  2  5  1  0  0  0  0
  3  1  1  0  0  0  0
  4  7  1  6  0  0  0
  5  7  1  0  0  0  0
  6  1  1  6  0  0  0
  6  4  1  0  0  0  0
  8  9  1  0  0  0  0
  8  6  1  1  0  0  0
  8 10  1  0  0  0  0
  9 18  1  6  0  0  0
  9 10  1  0  0  0  0
 11 17  2  0  0  0  0
 12 14  1  0  0  0  0
 12 11  1  0  0  0  0
 13 17  1  0  0  0  0
 14 10  1  0  0  0  0
 14 13  1  0  0  0  0
 15 19  1  0  0  0  0
 15 12  1  0  0  0  0
 17 16  1  0  0  0  0
 18 19  1  0  0  0  0
 19 12  1  0  0  0  0
 20 21  1  0  0  0  0
 21 23  1  0  0  0  0
 22 20  1  0  0  0  0
 22 26  1  0  0  0  0
 24 22  2  0  0  0  0
 25 21  1  0  0  0  0
 25 23  1  0  0  0  0
 26 23  1  0  0  0  0
 26  4  1  0  0  0  0
 27 25  1  0  0  0  0
 27 28  1  0  0  0  0
 29 28  1  0  0  0  0
 30 29  1  0  0  0  0
M  END
>  <MODEL>
5

>  <REMARK>
 VINA RESULT:      -6.2      3.725      7.697
  Name = 
  5 active torsions:
  status: ('A' for Active; 'I' for Inactive)
    1  A    between atoms: N_1  and  C_22
    2  A    between atoms: C_7  and  C_15
    3  A    between atoms: C_15  and  C_16
    4  A    between atoms: C_16  and  C_25
    5  A    between atoms: C_19  and  C_29
                            x       y       z     vdW  Elec       q    Type
                         _______ _______ _______ _____ _____    ______ ____

>  <TORSDO>
F 5

$$$$
=
 OpenBabel11052417073D

 30 36  0  0  1  0  0  0  0  0999 V2000
  188.0930  177.8970  141.8290 C   0  0  0  0  0  0  0  0  0  0  0  0
  186.9600  178.2570  141.2290 C   0  0  0  0  0  3  0  0  0  0  0  0
  189.2400  178.6660  141.6650 O   0  0  0  0  0  1  0  0  0  0  0  0
  186.8570  176.6920  143.6310 C   0  0  2  0  0  3  0  0  0  0  0  0
  185.7370  177.3990  141.3740 C   0  0  0  0  0  2  0  0  0  0  0  0
  188.0920  176.6640  142.6920 C   0  0  2  0  0  3  0  0  0  0  0  0
  185.5530  176.8620  142.8080 C   0  0  0  0  0  2  0  0  0  0  0  0
  189.3520  176.5080  143.4120 N   0  0  2  0  0  0  0  0  0  0  0  0
  190.3970  176.2350  142.4110 C   0  0  2  0  0  3  0  0  0  0  0  0
  189.8120  175.1250  143.1980 C   0  0  1  0  0  3  0  0  0  0  0  0
  192.6150  173.2460  143.9740 N   0  0  0  0  0  0  0  0  0  0  0  0
  192.1020  174.5900  144.0830 C   0  0  1  0  0  0  0  0  0  0  0  0
  190.1350  172.9670  144.8550 S   0  0  0  0  0  0  0  0  0  0  0  0
  190.6230  174.6710  144.4180 C   0  0  2  0  0  3  0  0  0  0  0  0
  193.0490  175.5920  144.6860 C   0  0  0  0  0  2  0  0  0  0  0  0
  192.0340  170.9770  144.2620 N   0  0  0  0  0  1  0  0  0  0  0  0
  191.7410  172.3670  144.3240 C   0  0  0  0  0  0  0  0  0  0  0  0
  191.7400  176.7650  142.9260 C   0  0  0  0  0  2  0  0  0  0  0  0
  192.7330  175.6350  143.1880 C   0  0  2  0  0  3  0  0  0  0  0  0
  185.1880  177.8050  146.8640 S   0  0  0  0  0  0  0  0  0  0  0  0
  186.8570  177.1590  147.2110 C   0  0  1  0  0  3  0  0  0  0  0  0
  185.6510  178.2740  145.2120 C   0  0  0  0  0  0  0  0  0  0  0  0
  187.7180  177.1800  145.9590 C   0  0  2  0  0  3  0  0  0  0  0  0
  185.2030  179.4270  144.7230 C   0  0  0  0  0  2  0  0  0  0  0  0
  187.9160  178.2330  147.0350 C   0  0  2  0  0  3  0  0  0  0  0  0
  186.9760  177.7570  144.7500 C   0  0  1  0  0  3  0  0  0  0  0  0
  189.1390  177.8710  147.8570 C   0  0  0  0  0  2  0  0  0  0  0  0
  190.2200  177.2660  146.9730 C   0  0  0  0  0  2  0  0  0  0  0  0
  191.4050  176.7800  147.7950 C   0  0  0  0  0  2  0  0  0  0  0  0
  191.3190  175.2810  148.0130 C   0  0  0  0  0  1  0  0  0  0  0  0
  2  5  1  0  0  0  0
  2  1  2  0  0  0  0
  3  1  1  0  0  0  0
  4  7  1  6  0  0  0
  4 26  1  0  0  0  0
  5  7  1  0  0  0  0
  6  1  1  1  0  0  0
  6  4  1  0  0  0  0
  8  6  1  6  0  0  0
  9 18  1  1  0  0  0
  9 10  1  0  0  0  0
  9  8  1  0  0  0  0
 10  8  1  0  0  0  0
 10 14  1  0  0  0  0
 11 12  1  0  0  0  0
 11 17  2  0  0  0  0
 12 14  1  0  0  0  0
 12 15  1  0  0  0  0
 14 13  1  0  0  0  0
 16 17  1  0  0  0  0
 17 13  1  0  0  0  0
 18 19  1  0  0  0  0
 19 12  1  0  0  0  0
 19 15  1  0  0  0  0
 20 21  1  0  0  0  0
 22 20  1  0  0  0  0
 23 25  1  0  0  0  0
 23 21  1  0  0  0  0
 24 22  2  0  0  0  0
 25 21  1  0  0  0  0
 25 27  1  0  0  0  0
 26 22  1  0  0  0  0
 26 23  1  0  0  0  0
 28 29  1  0  0  0  0
 28 27  1  0  0  0  0
 29 30  1  0  0  0  0
M  END
>  <MODEL>
6

>  <REMARK>
 VINA RESULT:      -6.2      2.724      4.854
  Name = 
  5 active torsions:
  status: ('A' for Active; 'I' for Inactive)
    1  A    between atoms: N_1  and  C_22
    2  A    between atoms: C_7  and  C_15
    3  A    between atoms: C_15  and  C_16
    4  A    between atoms: C_16  and  C_25
    5  A    between atoms: C_19  and  C_29
                            x       y       z     vdW  Elec       q    Type
                         _______ _______ _______ _____ _____    ______ ____

>  <TORSDO>
F 5

$$$$
=
 OpenBabel11052417073D

 30 36  0  0  1  0  0  0  0  0999 V2000
  192.0840  177.2120  144.6130 C   0  0  0  0  0  0  0  0  0  0  0  0
  193.2600  177.1660  145.2340 C   0  0  0  0  0  3  0  0  0  0  0  0
  191.9400  177.9600  143.4500 O   0  0  0  0  0  1  0  0  0  0  0  0
  191.4120  174.9930  145.5380 C   0  0  2  0  0  3  0  0  0  0  0  0
  193.3970  176.3930  146.5130 C   0  0  0  0  0  2  0  0  0  0  0  0
  190.9340  176.4280  145.1880 C   0  0  2  0  0  3  0  0  0  0  0  0
  192.6450  175.0470  146.4780 C   0  0  0  0  0  2  0  0  0  0  0  0
  189.7750  176.4400  144.3010 N   0  0  2  0  0  0  0  0  0  0  0  0
  189.5940  177.8270  143.8380 C   0  0  2  0  0  3  0  0  0  0  0  0
  188.7490  177.2910  144.9310 C   0  0  1  0  0  3  0  0  0  0  0  0
  185.6260  178.5260  144.0900 N   0  0  0  0  0  0  0  0  0  0  0  0
  186.7110  177.7530  143.5360 C   0  0  1  0  0  0  0  0  0  0  0  0
  186.2700  176.7900  145.9820 S   0  0  0  0  0  0  0  0  0  0  0  0
  187.3600  176.7910  144.5170 C   0  0  2  0  0  3  0  0  0  0  0  0
  186.5340  177.3320  142.1020 C   0  0  0  0  0  2  0  0  0  0  0  0
  184.2990  178.7980  146.0220 N   0  0  0  0  0  1  0  0  0  0  0  0
  185.3240  178.1460  145.2830 C   0  0  0  0  0  0  0  0  0  0  0  0
  188.9500  177.8150  142.4470 C   0  0  0  0  0  2  0  0  0  0  0  0
  187.5480  178.4210  142.4670 C   0  0  2  0  0  3  0  0  0  0  0  0
  193.1100  171.7610  144.4690 S   0  0  0  0  0  0  0  0  0  0  0  0
  191.3050  171.6170  144.2620 C   0  0  1  0  0  3  0  0  0  0  0  0
  193.0510  173.5260  144.2660 C   0  0  0  0  0  0  0  0  0  0  0  0
  190.6560  172.9910  144.1910 C   0  0  2  0  0  3  0  0  0  0  0  0
  194.0050  174.1230  143.5570 C   0  0  0  0  0  2  0  0  0  0  0  0
  190.8530  172.1760  142.9240 C   0  0  2  0  0  3  0  0  0  0  0  0
  191.6810  174.1250  144.2830 C   0  0  1  0  0  3  0  0  0  0  0  0
  189.5290  171.5420  142.5370 C   0  0  0  0  0  2  0  0  0  0  0  0
  188.4340  172.5960  142.4540 C   0  0  0  0  0  2  0  0  0  0  0  0
  188.1980  173.0420  141.0190 C   0  0  0  0  0  2  0  0  0  0  0  0
  188.6050  174.4920  140.8390 C   0  0  0  0  0  1  0  0  0  0  0  0
  1  2  2  0  0  0  0
  2  5  1  0  0  0  0
  3  1  1  0  0  0  0
  4  7  1  6  0  0  0
  6  1  1  6  0  0  0
  6  4  1  0  0  0  0
  7  5  1  0  0  0  0
  8 10  1  0  0  0  0
  8  6  1  1  0  0  0
  9 18  1  6  0  0  0
  9  8  1  0  0  0  0
  9 10  1  0  0  0  0
 11 17  2  0  0  0  0
 12 11  1  0  0  0  0
 12 14  1  0  0  0  0
 14 10  1  0  0  0  0
 14 13  1  0  0  0  0
 15 19  1  0  0  0  0
 15 12  1  0  0  0  0
 17 13  1  0  0  0  0
 17 16  1  0  0  0  0
 18 19  1  0  0  0  0
 19 12  1  0  0  0  0
 21 20  1  0  0  0  0
 22 26  1  0  0  0  0
 22 20  1  0  0  0  0
 23 21  1  0  0  0  0
 23 26  1  0  0  0  0
 24 22  2  0  0  0  0
 25 23  1  0  0  0  0
 25 21  1  0  0  0  0
 26  4  1  0  0  0  0
 27 25  1  0  0  0  0
 28 27  1  0  0  0  0
 29 28  1  0  0  0  0
 30 29  1  0  0  0  0
M  END
>  <MODEL>
7

>  <REMARK>
 VINA RESULT:      -6.0      2.697      6.611
  Name = 
  5 active torsions:
  status: ('A' for Active; 'I' for Inactive)
    1  A    between atoms: N_1  and  C_22
    2  A    between atoms: C_7  and  C_15
    3  A    between atoms: C_15  and  C_16
    4  A    between atoms: C_16  and  C_25
    5  A    between atoms: C_19  and  C_29
                            x       y       z     vdW  Elec       q    Type
                         _______ _______ _______ _____ _____    ______ ____

>  <TORSDO>
F 5

$$$$
=
 OpenBabel11052417073D

 30 36  0  0  1  0  0  0  0  0999 V2000
  188.4360  176.7370  143.0820 C   0  0  0  0  0  0  0  0  0  0  0  0
  188.0220  177.4230  144.1440 C   0  0  0  0  0  3  0  0  0  0  0  0
  188.6050  177.3810  141.8610 O   0  0  0  0  0  1  0  0  0  0  0  0
  189.5890  175.0480  144.5130 C   0  0  2  0  0  3  0  0  0  0  0  0
  187.7990  176.7130  145.4480 C   0  0  0  0  0  2  0  0  0  0  0  0
  188.7280  175.2680  143.2400 C   0  0  2  0  0  3  0  0  0  0  0  0
  188.8930  175.6700  145.7520 C   0  0  0  0  0  2  0  0  0  0  0  0
  189.3350  174.7060  142.0380 N   0  0  2  0  0  0  0  0  0  0  0  0
  188.3090  173.8820  141.3750 C   0  0  2  0  0  3  0  0  0  0  0  0
  189.3590  173.2410  142.2020 C   0  0  1  0  0  3  0  0  0  0  0  0
  190.2120  170.4960  140.2720 N   0  0  0  0  0  0  0  0  0  0  0  0
  190.0990  171.9320  140.1890 C   0  0  1  0  0  0  0  0  0  0  0  0
  191.3740  171.4060  142.4690 S   0  0  0  0  0  0  0  0  0  0  0  0
  190.5570  172.6700  141.4350 C   0  0  2  0  0  3  0  0  0  0  0  0
  190.3900  172.5230  138.8360 C   0  0  0  0  0  2  0  0  0  0  0  0
  191.0060  168.7430  141.6370 N   0  0  0  0  0  1  0  0  0  0  0  0
  190.8160  170.1220  141.3460 C   0  0  0  0  0  0  0  0  0  0  0  0
  188.5710  173.8710  139.8640 C   0  0  0  0  0  2  0  0  0  0  0  0
  188.9530  172.4800  139.3660 C   0  0  2  0  0  3  0  0  0  0  0  0
  192.5010  176.4150  146.5440 S   0  0  0  0  0  0  0  0  0  0  0  0
  192.9280  174.7810  145.8590 C   0  0  1  0  0  3  0  0  0  0  0  0
  191.3540  176.7330  145.2220 C   0  0  0  0  0  0  0  0  0  0  0  0
  192.0390  174.4400  144.6740 C   0  0  2  0  0  3  0  0  0  0  0  0
  191.2990  177.9540  144.7000 C   0  0  0  0  0  2  0  0  0  0  0  0
  193.4690  174.8960  144.4440 C   0  0  2  0  0  3  0  0  0  0  0  0
  191.0430  175.5580  144.3510 C   0  0  1  0  0  3  0  0  0  0  0  0
  194.3280  173.6830  144.1350 C   0  0  0  0  0  2  0  0  0  0  0  0
  194.5320  172.8390  145.3850 C   0  0  0  0  0  2  0  0  0  0  0  0
  195.9830  172.4020  145.5290 C   0  0  0  0  0  2  0  0  0  0  0  0
  196.8150  173.5170  146.1340 C   0  0  0  0  0  1  0  0  0  0  0  0
  1  2  2  0  0  0  0
  2  5  1  0  0  0  0
  3  1  1  0  0  0  0
  4  7  1  1  0  0  0
  5  7  1  0  0  0  0
  6  1  1  6  0  0  0
  6  4  1  0  0  0  0
  8 10  1  0  0  0  0
  8  6  1  1  0  0  0
  9 18  1  6  0  0  0
  9  8  1  0  0  0  0
  9 10  1  0  0  0  0
 11 17  2  0  0  0  0
 12 11  1  0  0  0  0
 12 14  1  0  0  0  0
 14 10  1  0  0  0  0
 14 13  1  0  0  0  0
 15 19  1  0  0  0  0
 15 12  1  0  0  0  0
 17 16  1  0  0  0  0
 17 13  1  0  0  0  0
 19 18  1  0  0  0  0
 19 12  1  0  0  0  0
 21 20  1  0  0  0  0
 22 20  1  0  0  0  0
 23 21  1  0  0  0  0
 24 22  2  0  0  0  0
 25 23  1  0  0  0  0
 25 21  1  0  0  0  0
 26  4  1  0  0  0  0
 26 23  1  0  0  0  0
 26 22  1  0  0  0  0
 27 25  1  0  0  0  0
 27 28  1  0  0  0  0
 28 29  1  0  0  0  0
 29 30  1  0  0  0  0
M  END
>  <MODEL>
8

>  <REMARK>
 VINA RESULT:      -6.0      3.707      6.713
  Name = 
  5 active torsions:
  status: ('A' for Active; 'I' for Inactive)
    1  A    between atoms: N_1  and  C_22
    2  A    between atoms: C_7  and  C_15
    3  A    between atoms: C_15  and  C_16
    4  A    between atoms: C_16  and  C_25
    5  A    between atoms: C_19  and  C_29
                            x       y       z     vdW  Elec       q    Type
                         _______ _______ _______ _____ _____    ______ ____

>  <TORSDO>
F 5

$$$$
=
 OpenBabel11052417073D

 30 36  0  0  1  0  0  0  0  0999 V2000
  194.2220  172.7020  142.0810 C   0  0  0  0  0  0  0  0  0  0  0  0
  195.5410  172.8760  142.0780 C   0  0  0  0  0  3  0  0  0  0  0  0
  193.6890  171.4230  142.1950 O   0  0  0  0  0  1  0  0  0  0  0  0
  193.8340  175.0060  142.9620 C   0  0  2  0  0  3  0  0  0  0  0  0
  196.1100  174.2550  141.9100 C   0  0  0  0  0  2  0  0  0  0  0  0
  193.3340  173.9140  141.9770 C   0  0  2  0  0  3  0  0  0  0  0  0
  195.3320  175.3210  142.7070 C   0  0  0  0  0  2  0  0  0  0  0  0
  191.9290  173.5730  142.1720 N   0  0  2  0  0  0  0  0  0  0  0  0
  191.3200  173.4520  140.8360 C   0  0  2  0  0  3  0  0  0  0  0  0
  191.1280  174.6860  141.6330 C   0  0  1  0  0  3  0  0  0  0  0  0
  187.7730  175.3620  141.1050 N   0  0  0  0  0  0  0  0  0  0  0  0
  188.6450  174.3070  141.5610 C   0  0  1  0  0  0  0  0  0  0  0  0
  189.4600  176.5350  142.7740 S   0  0  0  0  0  0  0  0  0  0  0  0
  189.8110  174.7800  142.4120 C   0  0  2  0  0  3  0  0  0  0  0  0
  187.9610  173.0120  141.9070 C   0  0  0  0  0  2  0  0  0  0  0  0
  187.3590  177.6770  141.2910 N   0  0  0  0  0  1  0  0  0  0  0  0
  188.0770  176.4980  141.6300 C   0  0  0  0  0  0  0  0  0  0  0  0
  190.1630  172.4470  140.8990 C   0  0  0  0  0  2  0  0  0  0  0  0
  188.8160  173.1170  140.6400 C   0  0  2  0  0  3  0  0  0  0  0  0
  194.5240  176.2460  146.4920 S   0  0  0  0  0  0  0  0  0  0  0  0
  192.7420  176.3570  146.1260 C   0  0  1  0  0  3  0  0  0  0  0  0
  194.7360  174.9110  145.3350 C   0  0  0  0  0  0  0  0  0  0  0  0
  192.3650  175.4380  144.9750 C   0  0  2  0  0  3  0  0  0  0  0  0
  195.5390  173.9020  145.6610 C   0  0  0  0  0  2  0  0  0  0  0  0
  192.0350  175.0420  146.4030 C   0  0  2  0  0  3  0  0  0  0  0  0
  193.5640  174.6470  144.4450 C   0  0  1  0  0  3  0  0  0  0  0  0
  190.5620  175.3070  146.6580 C   0  0  0  0  0  2  0  0  0  0  0  0
  190.3490  176.7420  147.1220 C   0  0  0  0  0  2  0  0  0  0  0  0
  189.0420  177.3100  146.5890 C   0  0  0  0  0  2  0  0  0  0  0  0
  188.0110  176.2100  146.4300 C   0  0  0  0  0  1  0  0  0  0  0  0
  1  3  1  0  0  0  0
  2  1  2  0  0  0  0
  4  7  1  1  0  0  0
  4 26  1  0  0  0  0
  5  2  1  0  0  0  0
  5  7  1  0  0  0  0
  6  1  1  1  0  0  0
  6  4  1  0  0  0  0
  8  6  1  6  0  0  0
  9 18  1  1  0  0  0
  9 10  1  0  0  0  0
  9  8  1  0  0  0  0
 10  8  1  0  0  0  0
 10 14  1  0  0  0  0
 11 12  1  0  0  0  0
 11 17  2  0  0  0  0
 12 15  1  0  0  0  0
 12 14  1  0  0  0  0
 14 13  1  0  0  0  0
 16 17  1  0  0  0  0
 17 13  1  0  0  0  0
 19 18  1  0  0  0  0
 19 12  1  0  0  0  0
 19 15  1  0  0  0  0
 21 25  1  0  0  0  0
 21 20  1  0  0  0  0
 22 24  2  0  0  0  0
 22 20  1  0  0  0  0
 23 21  1  0  0  0  0
 23 25  1  0  0  0  0
 25 27  1  0  0  0  0
 26 23  1  0  0  0  0
 26 22  1  0  0  0  0
 27 28  1  0  0  0  0
 29 28  1  0  0  0  0
 30 29  1  0  0  0  0
M  END
>  <MODEL>
9

>  <REMARK>
 VINA RESULT:      -5.9      3.670      8.131
  Name = 
  5 active torsions:
  status: ('A' for Active; 'I' for Inactive)
    1  A    between atoms: N_1  and  C_22
    2  A    between atoms: C_7  and  C_15
    3  A    between atoms: C_15  and  C_16
    4  A    between atoms: C_16  and  C_25
    5  A    between atoms: C_19  and  C_29
                            x       y       z     vdW  Elec       q    Type
                         _______ _______ _______ _____ _____    ______ ____

>  <TORSDO>
F 5

$$$$
