=
 OpenBabel11052420243D

 34 38  0  0  1  0  0  0  0  0999 V2000
  194.8200  173.5240  144.0450 C   0  0  0  0  0  0  0  0  0  0  0  0
  197.4080  171.1580  145.1750 C   0  0  0  0  0  3  0  0  0  0  0  0
  197.5370  173.3230  144.4710 N   0  0  0  0  0  2  0  0  0  0  0  0
  192.8970  174.7510  143.1480 C   0  0  0  0  0  0  0  0  0  0  0  0
  193.4370  173.6440  143.8080 C   0  0  0  0  0  3  0  0  0  0  0  0
  195.1250  175.6980  142.9600 C   0  0  0  0  0  0  0  0  0  0  0  0
  195.9340  176.7800  142.5050 N   0  0  0  0  0  1  0  0  0  0  0  0
  193.7500  175.7710  142.7350 C   0  0  0  0  0  3  0  0  0  0  0  0
  197.0570  174.4530  143.9000 C   0  0  0  0  0  0  0  0  0  0  0  0
  195.6810  174.5710  143.6210 C   0  0  0  0  0  0  0  0  0  0  0  0
  197.8680  175.3720  143.6090 O   0  0  0  0  0  0  0  0  0  0  0  0
  196.8050  169.8040  145.3210 C   0  0  0  0  0  2  0  0  0  0  0  0
  195.7880  169.7430  146.4040 C   0  0  0  0  0  0  0  0  0  0  0  0
  194.7020  170.5100  146.3470 C   0  0  0  0  0  3  0  0  0  0  0  0
  196.7560  172.2780  144.8400 C   0  0  0  0  0  0  0  0  0  0  0  0
  194.4580  171.6070  145.3930 C   0  0  0  0  0  3  0  0  0  0  0  0
  195.3400  172.3980  144.7370 C   0  0  0  0  0  0  0  0  0  0  0  0
  195.9150  168.7110  147.4530 C   0  0  0  0  0  0  0  0  0  0  0  0
  194.8810  168.1840  147.9430 O   0  0  0  0  0  0  0  0  0  0  0  0
  197.2490  168.2630  147.9480 C   0  0  0  0  0  1  0  0  0  0  0  0
  191.5200  174.8960  142.9080 O   0  0  0  0  0  0  0  0  0  0  0  0
  189.3340  174.9260  145.9390 C   0  0  0  0  0  3  0  0  0  0  0  0
  189.6760  176.3110  143.5280 C   0  0  0  0  0  3  0  0  0  0  0  0
  186.6340  177.4440  146.1940 C   0  0  0  0  0  0  0  0  0  0  0  0
  187.4780  176.3750  146.5130 C   0  0  0  0  0  3  0  0  0  0  0  0
  188.4920  175.9930  145.6270 C   0  0  0  0  0  0  0  0  0  0  0  0
  187.8190  177.7600  144.0980 C   0  0  0  0  0  3  0  0  0  0  0  0
  188.6630  176.6920  144.4110 C   0  0  0  0  0  0  0  0  0  0  0  0
  186.8080  178.1360  144.9870 C   0  0  0  0  0  3  0  0  0  0  0  0
  190.5270  175.2440  143.8390 C   0  0  0  0  0  0  0  0  0  0  0  0
  190.3440  174.5520  145.0480 C   0  0  0  0  0  3  0  0  0  0  0  0
  185.5630  177.8420  147.1520 C   0  0  2  0  0  3  0  0  0  0  0  0
  184.3430  177.3320  146.7470 F   0  0  0  0  0  0  0  0  0  0  0  0
  185.4880  179.2320  147.2360 O   0  0  0  0  0  1  0  0  0  0  0  0
  1 17  1  0  0  0  0
  2 12  1  0  0  0  0
  3 15  1  0  0  0  0
  4  5  2  0  0  0  0
  5  1  1  0  0  0  0
  6 10  1  0  0  0  0
  7  6  1  0  0  0  0
  8  6  2  0  0  0  0
  8  4  1  0  0  0  0
  9  3  1  0  0  0  0
 10  9  1  0  0  0  0
 10  1  2  0  0  0  0
 11  9  2  0  0  0  0
 12 13  1  0  0  0  0
 13 18  1  0  0  0  0
 14 13  2  0  0  0  0
 15  2  2  0  0  0  0
 16 14  1  0  0  0  0
 17 15  1  0  0  0  0
 17 16  2  0  0  0  0
 18 19  2  0  0  0  0
 18 20  1  0  0  0  0
 21  4  1  0  0  0  0
 21 30  1  0  0  0  0
 23 30  2  0  0  0  0
 23 28  1  0  0  0  0
 24 25  1  0  0  0  0
 24 32  1  0  0  0  0
 26 22  1  0  0  0  0
 26 25  2  0  0  0  0
 27 28  2  0  0  0  0
 27 29  1  0  0  0  0
 28 26  1  0  0  0  0
 29 24  2  0  0  0  0
 30 31  1  0  0  0  0
 31 22  2  0  0  0  0
 32 33  1  6  0  0  0
 32 34  1  0  0  0  0
M  END
>  <MODEL>
1

>  <REMARK>
 VINA RESULT:      -8.6      0.000      0.000
  Name = 
  4 active torsions:
  status: ('A' for Active; 'I' for Inactive)
    1  A    between atoms: C_3  and  C_25
    2  A    between atoms: C_7  and  C_11
    3  A    between atoms: C_8  and  O_18
    4  A    between atoms: O_18  and  C_30
                            x       y       z     vdW  Elec       q    Type
                         _______ _______ _______ _____ _____    ______ ____

>  <TORSDO>
F 4

$$$$
=
 OpenBabel11052420243D

 34 38  0  0  1  0  0  0  0  0999 V2000
  192.3580  171.7220  143.8650 C   0  0  0  0  0  0  0  0  0  0  0  0
  193.7820  168.4790  144.8760 C   0  0  0  0  0  3  0  0  0  0  0  0
  192.4580  169.0690  143.1170 N   0  0  0  0  0  2  0  0  0  0  0  0
  191.4020  173.9640  143.6090 C   0  0  0  0  0  0  0  0  0  0  0  0
  192.2820  173.0780  144.2360 C   0  0  0  0  0  3  0  0  0  0  0  0
  190.6470  172.1610  142.1690 C   0  0  0  0  0  0  0  0  0  0  0  0
  189.7880  171.7550  141.1060 N   0  0  0  0  0  1  0  0  0  0  0  0
  190.5950  173.4950  142.5760 C   0  0  0  0  0  3  0  0  0  0  0  0
  191.6470  169.9030  142.4230 C   0  0  0  0  0  0  0  0  0  0  0  0
  191.5320  171.2540  142.8080 C   0  0  0  0  0  0  0  0  0  0  0  0
  190.9920  169.4370  141.4540 O   0  0  0  0  0  0  0  0  0  0  0  0
  194.4020  168.6140  146.2240 C   0  0  0  0  0  2  0  0  0  0  0  0
  195.5800  169.5210  146.2240 C   0  0  0  0  0  0  0  0  0  0  0  0
  195.4430  170.7960  145.8690 C   0  0  0  0  0  3  0  0  0  0  0  0
  193.2210  169.4640  144.1660 C   0  0  0  0  0  0  0  0  0  0  0  0
  194.2490  171.4090  145.2600 C   0  0  0  0  0  3  0  0  0  0  0  0
  193.2760  170.8470  144.5040 C   0  0  0  0  0  0  0  0  0  0  0  0
  196.8610  169.0380  146.7780 C   0  0  0  0  0  0  0  0  0  0  0  0
  197.9360  169.2550  146.1580 O   0  0  0  0  0  0  0  0  0  0  0  0
  196.9200  168.2970  148.0720 C   0  0  0  0  0  1  0  0  0  0  0  0
  191.3150  175.3230  143.9580 O   0  0  0  0  0  0  0  0  0  0  0  0
  188.5280  177.7580  143.4330 C   0  0  0  0  0  3  0  0  0  0  0  0
  189.4240  175.8990  145.3290 C   0  0  0  0  0  3  0  0  0  0  0  0
  185.9290  178.1160  146.0430 C   0  0  0  0  0  0  0  0  0  0  0  0
  186.6440  178.3060  144.8560 C   0  0  0  0  0  3  0  0  0  0  0  0
  187.8090  177.5700  144.6150 C   0  0  0  0  0  0  0  0  0  0  0  0
  187.5420  176.4460  146.7540 C   0  0  0  0  0  3  0  0  0  0  0  0
  188.2600  176.6330  145.5710 C   0  0  0  0  0  0  0  0  0  0  0  0
  186.3790  177.1850  146.9900 C   0  0  0  0  0  3  0  0  0  0  0  0
  190.1450  176.0790  144.1420 C   0  0  0  0  0  0  0  0  0  0  0  0
  189.6910  177.0180  143.2010 C   0  0  0  0  0  3  0  0  0  0  0  0
  184.6850  178.9040  146.2820 C   0  0  2  0  0  3  0  0  0  0  0  0
  183.9380  178.3270  147.2920 F   0  0  0  0  0  0  0  0  0  0  0  0
  183.9260  178.9680  145.1120 O   0  0  0  0  0  1  0  0  0  0  0  0
  1  5  1  0  0  0  0
  1 17  1  0  0  0  0
  2 12  1  0  0  0  0
  3 15  1  0  0  0  0
  4 21  1  0  0  0  0
  4  5  2  0  0  0  0
  6  8  2  0  0  0  0
  6 10  1  0  0  0  0
  7  6  1  0  0  0  0
  8  4  1  0  0  0  0
  9 10  1  0  0  0  0
  9  3  1  0  0  0  0
 10  1  2  0  0  0  0
 11  9  2  0  0  0  0
 13 12  1  0  0  0  0
 13 18  1  0  0  0  0
 14 13  2  0  0  0  0
 15 17  1  0  0  0  0
 15  2  2  0  0  0  0
 16 14  1  0  0  0  0
 17 16  2  0  0  0  0
 18 20  1  0  0  0  0
 19 18  2  0  0  0  0
 21 30  1  0  0  0  0
 22 26  1  0  0  0  0
 23 28  1  0  0  0  0
 24 32  1  0  0  0  0
 24 29  1  0  0  0  0
 25 24  2  0  0  0  0
 26 25  1  0  0  0  0
 26 28  2  0  0  0  0
 27 29  2  0  0  0  0
 28 27  1  0  0  0  0
 30 23  2  0  0  0  0
 31 22  2  0  0  0  0
 31 30  1  0  0  0  0
 32 34  1  6  0  0  0
 32 33  1  0  0  0  0
M  END
>  <MODEL>
2

>  <REMARK>
 VINA RESULT:      -8.5      2.842      3.770
  Name = 
  4 active torsions:
  status: ('A' for Active; 'I' for Inactive)
    1  A    between atoms: C_3  and  C_25
    2  A    between atoms: C_7  and  C_11
    3  A    between atoms: C_8  and  O_18
    4  A    between atoms: O_18  and  C_30
                            x       y       z     vdW  Elec       q    Type
                         _______ _______ _______ _____ _____    ______ ____

>  <TORSDO>
F 4

$$$$
=
 OpenBabel11052420243D

 34 38  0  0  1  0  0  0  0  0999 V2000
  190.4680  176.7760  144.9620 C   0  0  0  0  0  0  0  0  0  0  0  0
  193.8520  175.8220  146.0600 C   0  0  0  0  0  3  0  0  0  0  0  0
  191.7920  175.3450  146.9130 N   0  0  0  0  0  2  0  0  0  0  0  0
  188.4020  177.7680  144.0910 C   0  0  0  0  0  0  0  0  0  0  0  0
  189.7720  177.5130  143.9840 C   0  0  0  0  0  3  0  0  0  0  0  0
  188.3540  176.5160  146.1710 C   0  0  0  0  0  0  0  0  0  0  0  0
  187.5740  176.0340  147.2630 N   0  0  0  0  0  1  0  0  0  0  0  0
  187.7060  177.2610  145.1850 C   0  0  0  0  0  3  0  0  0  0  0  0
  190.4500  175.4950  147.0230 C   0  0  0  0  0  0  0  0  0  0  0  0
  189.7470  176.2620  146.0730 C   0  0  0  0  0  0  0  0  0  0  0  0
  189.8630  174.9560  147.9990 O   0  0  0  0  0  0  0  0  0  0  0  0
  194.8580  176.5780  145.2620 C   0  0  0  0  0  2  0  0  0  0  0  0
  194.8460  176.2040  143.8230 C   0  0  0  0  0  0  0  0  0  0  0  0
  193.7460  176.3810  143.0950 C   0  0  0  0  0  3  0  0  0  0  0  0
  192.5240  175.8670  145.8980 C   0  0  0  0  0  0  0  0  0  0  0  0
  192.4110  176.7410  143.6040 C   0  0  0  0  0  3  0  0  0  0  0  0
  191.8560  176.5130  144.8180 C   0  0  0  0  0  0  0  0  0  0  0  0
  196.1080  175.7930  143.1760 C   0  0  0  0  0  0  0  0  0  0  0  0
  197.1170  176.5460  143.2310 O   0  0  0  0  0  0  0  0  0  0  0  0
  196.2260  174.4920  142.4560 C   0  0  0  0  0  1  0  0  0  0  0  0
  187.6860  178.4930  143.1230 O   0  0  0  0  0  0  0  0  0  0  0  0
  184.0560  179.0270  143.8360 C   0  0  0  0  0  3  0  0  0  0  0  0
  185.7330  178.1950  141.7510 C   0  0  0  0  0  3  0  0  0  0  0  0
  181.5730  178.3310  141.1820 C   0  0  0  0  0  0  0  0  0  0  0  0
  182.1210  178.7030  142.4140 C   0  0  0  0  0  3  0  0  0  0  0  0
  183.5050  178.6590  142.6080 C   0  0  0  0  0  0  0  0  0  0  0  0
  183.7990  177.8690  140.3270 C   0  0  0  0  0  3  0  0  0  0  0  0
  184.3500  178.2390  141.5560 C   0  0  0  0  0  0  0  0  0  0  0  0
  182.4150  177.9150  140.1400 C   0  0  0  0  0  3  0  0  0  0  0  0
  186.2900  178.5690  142.9800 C   0  0  0  0  0  0  0  0  0  0  0  0
  185.4410  178.9790  144.0210 C   0  0  0  0  0  3  0  0  0  0  0  0
  180.0950  178.3900  140.9900 C   0  0  2  0  0  3  0  0  0  0  0  0
  179.7530  179.4980  140.2370 F   0  0  0  0  0  0  0  0  0  0  0  0
  179.4530  178.4440  142.2270 O   0  0  0  0  0  1  0  0  0  0  0  0
  1 10  1  0  0  0  0
  3  9  1  0  0  0  0
  4  8  2  0  0  0  0
  5  4  1  0  0  0  0
  5  1  2  0  0  0  0
  6  7  1  0  0  0  0
  8  6  1  0  0  0  0
  9 11  2  0  0  0  0
 10  6  2  0  0  0  0
 10  9  1  0  0  0  0
 12  2  1  0  0  0  0
 13 12  1  0  0  0  0
 14 16  1  0  0  0  0
 14 13  2  0  0  0  0
 15  2  2  0  0  0  0
 15  3  1  0  0  0  0
 16 17  2  0  0  0  0
 17  1  1  0  0  0  0
 17 15  1  0  0  0  0
 18 19  2  0  0  0  0
 18 13  1  0  0  0  0
 20 18  1  0  0  0  0
 21  4  1  0  0  0  0
 22 31  1  0  0  0  0
 23 30  1  0  0  0  0
 24 25  2  0  0  0  0
 25 26  1  0  0  0  0
 26 22  2  0  0  0  0
 27 28  1  0  0  0  0
 28 23  2  0  0  0  0
 28 26  1  0  0  0  0
 29 27  2  0  0  0  0
 29 24  1  0  0  0  0
 30 21  1  0  0  0  0
 30 31  2  0  0  0  0
 32 33  1  6  0  0  0
 32 24  1  0  0  0  0
 32 34  1  0  0  0  0
M  END
>  <MODEL>
3

>  <REMARK>
 VINA RESULT:      -8.4      4.302      6.939
  Name = 
  4 active torsions:
  status: ('A' for Active; 'I' for Inactive)
    1  A    between atoms: C_3  and  C_25
    2  A    between atoms: C_7  and  C_11
    3  A    between atoms: C_8  and  O_18
    4  A    between atoms: O_18  and  C_30
                            x       y       z     vdW  Elec       q    Type
                         _______ _______ _______ _____ _____    ______ ____

>  <TORSDO>
F 4

$$$$
=
 OpenBabel11052420243D

 34 38  0  0  1  0  0  0  0  0999 V2000
  190.6480  176.6930  144.7330 C   0  0  0  0  0  0  0  0  0  0  0  0
  193.7910  175.8620  146.4640 C   0  0  0  0  0  3  0  0  0  0  0  0
  191.6150  175.4270  146.9840 N   0  0  0  0  0  2  0  0  0  0  0  0
  188.7650  177.5930  143.4480 C   0  0  0  0  0  0  0  0  0  0  0  0
  190.1320  177.3460  143.5970 C   0  0  0  0  0  3  0  0  0  0  0  0
  188.3570  176.5000  145.5770 C   0  0  0  0  0  0  0  0  0  0  0  0
  187.4010  176.0910  146.5520 N   0  0  0  0  0  1  0  0  0  0  0  0
  187.8900  177.1610  144.4410 C   0  0  0  0  0  3  0  0  0  0  0  0
  190.2740  175.5690  146.8510 C   0  0  0  0  0  0  0  0  0  0  0  0
  189.7460  176.2550  145.7390 C   0  0  0  0  0  0  0  0  0  0  0  0
  189.5270  175.0980  147.7490 O   0  0  0  0  0  0  0  0  0  0  0  0
  194.9210  176.5680  145.7970 C   0  0  0  0  0  2  0  0  0  0  0  0
  195.1560  176.0880  144.4090 C   0  0  0  0  0  0  0  0  0  0  0  0
  194.1990  176.1970  143.4920 C   0  0  0  0  0  3  0  0  0  0  0  0
  192.5120  175.8800  146.0740 C   0  0  0  0  0  0  0  0  0  0  0  0
  192.7960  176.5780  143.7360 C   0  0  0  0  0  3  0  0  0  0  0  0
  192.0400  176.4360  144.8500 C   0  0  0  0  0  0  0  0  0  0  0  0
  196.5100  175.6440  144.0210 C   0  0  0  0  0  0  0  0  0  0  0  0
  197.0230  174.6330  144.5720 O   0  0  0  0  0  0  0  0  0  0  0  0
  197.2950  176.3630  142.9760 C   0  0  0  0  0  1  0  0  0  0  0  0
  188.2270  178.2350  142.3190 O   0  0  0  0  0  0  0  0  0  0  0  0
  185.1510  177.9290  140.2190 C   0  0  0  0  0  3  0  0  0  0  0  0
  185.9060  178.6110  142.8290 C   0  0  0  0  0  3  0  0  0  0  0  0
  181.8570  178.7010  141.7180 C   0  0  0  0  0  0  0  0  0  0  0  0
  182.8280  178.3280  140.7830 C   0  0  0  0  0  3  0  0  0  0  0  0
  184.1780  178.2980  141.1480 C   0  0  0  0  0  0  0  0  0  0  0  0
  183.5850  179.0130  143.3960 C   0  0  0  0  0  3  0  0  0  0  0  0
  184.5580  178.6420  142.4650 C   0  0  0  0  0  0  0  0  0  0  0  0
  182.2370  179.0410  143.0240 C   0  0  0  0  0  3  0  0  0  0  0  0
  186.8860  178.2360  141.9010 C   0  0  0  0  0  0  0  0  0  0  0  0
  186.4970  177.9020  140.5930 C   0  0  0  0  0  3  0  0  0  0  0  0
  180.4210  178.7220  141.3130 C   0  0  2  0  0  3  0  0  0  0  0  0
  179.7960  179.8460  141.8200 F   0  0  0  0  0  0  0  0  0  0  0  0
  179.7760  177.5750  141.7770 O   0  0  0  0  0  1  0  0  0  0  0  0
  1 17  1  0  0  0  0
  1 10  1  0  0  0  0
  4  5  1  0  0  0  0
  4  8  2  0  0  0  0
  5  1  2  0  0  0  0
  6 10  2  0  0  0  0
  6  7  1  0  0  0  0
  8  6  1  0  0  0  0
  9  3  1  0  0  0  0
  9 11  2  0  0  0  0
 10  9  1  0  0  0  0
 12  2  1  0  0  0  0
 13 12  1  0  0  0  0
 14 16  1  0  0  0  0
 14 13  2  0  0  0  0
 15  2  2  0  0  0  0
 15  3  1  0  0  0  0
 16 17  2  0  0  0  0
 17 15  1  0  0  0  0
 18 13  1  0  0  0  0
 18 19  2  0  0  0  0
 20 18  1  0  0  0  0
 21  4  1  0  0  0  0
 22 31  2  0  0  0  0
 22 26  1  0  0  0  0
 24 29  1  0  0  0  0
 25 26  1  0  0  0  0
 25 24  2  0  0  0  0
 26 28  2  0  0  0  0
 28 23  1  0  0  0  0
 28 27  1  0  0  0  0
 29 27  2  0  0  0  0
 30 21  1  0  0  0  0
 30 23  2  0  0  0  0
 31 30  1  0  0  0  0
 32 24  1  0  0  0  0
 32 34  1  1  0  0  0
 32 33  1  0  0  0  0
M  END
>  <MODEL>
4

>  <REMARK>
 VINA RESULT:      -8.2      4.229      6.706
  Name = 
  4 active torsions:
  status: ('A' for Active; 'I' for Inactive)
    1  A    between atoms: C_3  and  C_25
    2  A    between atoms: C_7  and  C_11
    3  A    between atoms: C_8  and  O_18
    4  A    between atoms: O_18  and  C_30
                            x       y       z     vdW  Elec       q    Type
                         _______ _______ _______ _____ _____    ______ ____

>  <TORSDO>
F 4

$$$$
=
 OpenBabel11052420243D

 34 38  0  0  1  0  0  0  0  0999 V2000
  194.0830  175.0260  142.4040 C   0  0  0  0  0  0  0  0  0  0  0  0
  196.2710  175.3040  139.4530 C   0  0  0  0  0  3  0  0  0  0  0  0
  196.4770  176.1160  141.5730 N   0  0  0  0  0  2  0  0  0  0  0  0
  192.3090  174.8320  144.0840 C   0  0  0  0  0  0  0  0  0  0  0  0
  192.8580  174.4900  142.8450 C   0  0  0  0  0  3  0  0  0  0  0  0
  194.2290  176.2540  144.5180 C   0  0  0  0  0  0  0  0  0  0  0  0
  194.8810  177.1470  145.4170 N   0  0  0  0  0  1  0  0  0  0  0  0
  193.0060  175.7090  144.9110 C   0  0  0  0  0  3  0  0  0  0  0  0
  196.0290  176.4170  142.8160 C   0  0  0  0  0  0  0  0  0  0  0  0
  194.7870  175.9190  143.2560 C   0  0  0  0  0  0  0  0  0  0  0  0
  196.7360  177.1610  143.5460 O   0  0  0  0  0  0  0  0  0  0  0  0
  195.5590  174.7620  138.2620 C   0  0  0  0  0  2  0  0  0  0  0  0
  195.3030  173.3010  138.3630 C   0  0  0  0  0  0  0  0  0  0  0  0
  194.5590  172.8190  139.3550 C   0  0  0  0  0  3  0  0  0  0  0  0
  195.8090  175.3130  140.7090 C   0  0  0  0  0  0  0  0  0  0  0  0
  194.0910  173.5650  140.5360 C   0  0  0  0  0  3  0  0  0  0  0  0
  194.6290  174.6460  141.1490 C   0  0  0  0  0  0  0  0  0  0  0  0
  195.7420  172.4160  137.2650 C   0  0  0  0  0  0  0  0  0  0  0  0
  194.9500  171.5540  136.7980 O   0  0  0  0  0  0  0  0  0  0  0  0
  197.1110  172.5190  136.6800 C   0  0  0  0  0  1  0  0  0  0  0  0
  191.0930  174.3030  144.5480 O   0  0  0  0  0  0  0  0  0  0  0  0
  188.5120  175.4730  146.9860 C   0  0  0  0  0  3  0  0  0  0  0  0
  189.3820  175.9860  144.3720 C   0  0  0  0  0  3  0  0  0  0  0  0
  186.1630  178.1510  145.9830 C   0  0  0  0  0  0  0  0  0  0  0  0
  186.8020  177.1740  146.7540 C   0  0  0  0  0  3  0  0  0  0  0  0
  187.8740  176.4500  146.2210 C   0  0  0  0  0  0  0  0  0  0  0  0
  187.6730  177.6870  144.1370 C   0  0  0  0  0  3  0  0  0  0  0  0
  188.3120  176.7090  144.9030 C   0  0  0  0  0  0  0  0  0  0  0  0
  186.6020  178.4070  144.6750 C   0  0  0  0  0  3  0  0  0  0  0  0
  190.0300  175.0080  145.1380 C   0  0  0  0  0  0  0  0  0  0  0  0
  189.5820  174.7550  146.4450 C   0  0  0  0  0  3  0  0  0  0  0  0
  185.0260  178.9180  146.5680 C   0  0  2  0  0  3  0  0  0  0  0  0
  184.5800  178.3080  147.7260 F   0  0  0  0  0  0  0  0  0  0  0  0
  183.9810  179.0030  145.6470 O   0  0  0  0  0  1  0  0  0  0  0  0
  1  5  2  0  0  0  0
  1 10  1  0  0  0  0
  2 15  2  0  0  0  0
  3  9  1  0  0  0  0
  4 21  1  0  0  0  0
  4  8  2  0  0  0  0
  5  4  1  0  0  0  0
  6  8  1  0  0  0  0
  6  7  1  0  0  0  0
  9 10  1  0  0  0  0
  9 11  2  0  0  0  0
 10  6  2  0  0  0  0
 12 13  1  0  0  0  0
 12  2  1  0  0  0  0
 13 14  2  0  0  0  0
 14 16  1  0  0  0  0
 15 17  1  0  0  0  0
 15  3  1  0  0  0  0
 16 17  2  0  0  0  0
 17  1  1  0  0  0  0
 18 13  1  0  0  0  0
 19 18  2  0  0  0  0
 20 18  1  0  0  0  0
 21 30  1  0  0  0  0
 23 28  2  0  0  0  0
 23 30  1  0  0  0  0
 24 32  1  0  0  0  0
 24 25  2  0  0  0  0
 26 25  1  0  0  0  0
 26 22  2  0  0  0  0
 27 29  2  0  0  0  0
 27 28  1  0  0  0  0
 28 26  1  0  0  0  0
 29 24  1  0  0  0  0
 30 31  2  0  0  0  0
 31 22  1  0  0  0  0
 32 34  1  6  0  0  0
 32 33  1  0  0  0  0
M  END
>  <MODEL>
5

>  <REMARK>
 VINA RESULT:      -8.2      3.701      4.884
  Name = 
  4 active torsions:
  status: ('A' for Active; 'I' for Inactive)
    1  A    between atoms: C_3  and  C_25
    2  A    between atoms: C_7  and  C_11
    3  A    between atoms: C_8  and  O_18
    4  A    between atoms: O_18  and  C_30
                            x       y       z     vdW  Elec       q    Type
                         _______ _______ _______ _____ _____    ______ ____

>  <TORSDO>
F 4

$$$$
=
 OpenBabel11052420243D

 34 38  0  0  1  0  0  0  0  0999 V2000
  186.7920  177.6630  143.8370 C   0  0  0  0  0  0  0  0  0  0  0  0
  188.3340  177.5720  147.1810 C   0  0  0  0  0  3  0  0  0  0  0  0
  186.1830  177.9260  146.5140 N   0  0  0  0  0  2  0  0  0  0  0  0
  186.1440  177.8730  141.4820 C   0  0  0  0  0  0  0  0  0  0  0  0
  187.0830  177.5470  142.4640 C   0  0  0  0  0  3  0  0  0  0  0  0
  184.5460  178.4230  143.2250 C   0  0  0  0  0  0  0  0  0  0  0  0
  183.2330  178.8750  143.5500 N   0  0  0  0  0  1  0  0  0  0  0  0
  184.8800  178.3040  141.8760 C   0  0  0  0  0  3  0  0  0  0  0  0
  185.2110  178.1780  145.6050 C   0  0  0  0  0  0  0  0  0  0  0  0
  185.4990  178.1030  144.2280 C   0  0  0  0  0  0  0  0  0  0  0  0
  184.0660  178.4980  146.0210 O   0  0  0  0  0  0  0  0  0  0  0  0
  189.8160  177.5090  147.0370 C   0  0  0  0  0  2  0  0  0  0  0  0
  190.2770  176.2420  146.4120 C   0  0  0  0  0  0  0  0  0  0  0  0
  189.8800  175.9180  145.1840 C   0  0  0  0  0  3  0  0  0  0  0  0
  187.4450  177.5580  146.1810 C   0  0  0  0  0  0  0  0  0  0  0  0
  188.8340  176.5970  144.3970 C   0  0  0  0  0  3  0  0  0  0  0  0
  187.7580  177.3050  144.8140 C   0  0  0  0  0  0  0  0  0  0  0  0
  191.3060  175.4340  147.0970 C   0  0  0  0  0  0  0  0  0  0  0  0
  191.2060  175.2060  148.3330 O   0  0  0  0  0  0  0  0  0  0  0  0
  192.4700  174.8650  146.3580 C   0  0  0  0  0  1  0  0  0  0  0  0
  186.4100  177.7560  140.1070 O   0  0  0  0  0  0  0  0  0  0  0  0
  187.3350  175.3110  137.4360 C   0  0  0  0  0  3  0  0  0  0  0  0
  187.6490  175.6960  140.1930 C   0  0  0  0  0  3  0  0  0  0  0  0
  189.2840  172.2990  138.3420 C   0  0  0  0  0  0  0  0  0  0  0  0
  188.5840  173.2390  137.5790 C   0  0  0  0  0  3  0  0  0  0  0  0
  188.0370  174.3710  138.1920 C   0  0  0  0  0  0  0  0  0  0  0  0
  188.8970  173.6240  140.3400 C   0  0  0  0  0  3  0  0  0  0  0  0
  188.1950  174.5650  139.5820 C   0  0  0  0  0  0  0  0  0  0  0  0
  189.4400  172.4940  139.7220 C   0  0  0  0  0  3  0  0  0  0  0  0
  186.9490  176.6450  139.4380 C   0  0  0  0  0  0  0  0  0  0  0  0
  186.7920  176.4400  138.0570 C   0  0  0  0  0  3  0  0  0  0  0  0
  189.8660  171.1000  137.6720 C   0  0  2  0  0  3  0  0  0  0  0  0
  189.3270  169.9430  138.2040 F   0  0  0  0  0  0  0  0  0  0  0  0
  191.2530  171.0900  137.8290 O   0  0  0  0  0  1  0  0  0  0  0  0
  1 10  1  0  0  0  0
  1 17  1  0  0  0  0
  4  8  2  0  0  0  0
  4  5  1  0  0  0  0
  5  1  2  0  0  0  0
  6  7  1  0  0  0  0
  6 10  2  0  0  0  0
  8  6  1  0  0  0  0
  9 11  2  0  0  0  0
  9  3  1  0  0  0  0
 10  9  1  0  0  0  0
 12  2  1  0  0  0  0
 13 12  1  0  0  0  0
 13 18  1  0  0  0  0
 14 13  2  0  0  0  0
 15  3  1  0  0  0  0
 15  2  2  0  0  0  0
 16 17  2  0  0  0  0
 16 14  1  0  0  0  0
 17 15  1  0  0  0  0
 18 19  2  0  0  0  0
 20 18  1  0  0  0  0
 21  4  1  0  0  0  0
 22 31  2  0  0  0  0
 22 26  1  0  0  0  0
 24 29  1  0  0  0  0
 25 26  1  0  0  0  0
 25 24  2  0  0  0  0
 26 28  2  0  0  0  0
 28 23  1  0  0  0  0
 28 27  1  0  0  0  0
 29 27  2  0  0  0  0
 30 21  1  0  0  0  0
 30 23  2  0  0  0  0
 31 30  1  0  0  0  0
 32 34  1  1  0  0  0
 32 33  1  0  0  0  0
 32 24  1  0  0  0  0
M  END
>  <MODEL>
6

>  <REMARK>
 VINA RESULT:      -8.1      5.525      9.581
  Name = 
  4 active torsions:
  status: ('A' for Active; 'I' for Inactive)
    1  A    between atoms: C_3  and  C_25
    2  A    between atoms: C_7  and  C_11
    3  A    between atoms: C_8  and  O_18
    4  A    between atoms: O_18  and  C_30
                            x       y       z     vdW  Elec       q    Type
                         _______ _______ _______ _____ _____    ______ ____

>  <TORSDO>
F 4

$$$$
=
 OpenBabel11052420243D

 34 38  0  0  1  0  0  0  0  0999 V2000
  189.6210  175.3570  145.1580 C   0  0  0  0  0  0  0  0  0  0  0  0
  187.3030  177.5430  147.0070 C   0  0  0  0  0  3  0  0  0  0  0  0
  189.5440  177.1820  147.2250 N   0  0  0  0  0  2  0  0  0  0  0  0
  190.8260  173.6460  143.8820 C   0  0  0  0  0  0  0  0  0  0  0  0
  189.6810  174.4120  144.1160 C   0  0  0  0  0  3  0  0  0  0  0  0
  191.9310  174.7740  145.7260 C   0  0  0  0  0  0  0  0  0  0  0  0
  193.1120  174.9140  146.5130 N   0  0  0  0  0  1  0  0  0  0  0  0
  191.9430  173.8410  144.6900 C   0  0  0  0  0  3  0  0  0  0  0  0
  190.7040  176.5240  146.9900 C   0  0  0  0  0  0  0  0  0  0  0  0
  190.7680  175.5490  145.9760 C   0  0  0  0  0  0  0  0  0  0  0  0
  191.7030  176.7910  147.7100 O   0  0  0  0  0  0  0  0  0  0  0  0
  185.9050  177.2380  146.5920 C   0  0  0  0  0  2  0  0  0  0  0  0
  185.6420  177.5840  145.1710 C   0  0  0  0  0  0  0  0  0  0  0  0
  186.3370  176.9970  144.1990 C   0  0  0  0  0  3  0  0  0  0  0  0
  188.4120  176.9880  146.5040 C   0  0  0  0  0  0  0  0  0  0  0  0
  187.5290  176.1470  144.3710 C   0  0  0  0  0  3  0  0  0  0  0  0
  188.4520  176.1380  145.3610 C   0  0  0  0  0  0  0  0  0  0  0  0
  184.4940  178.4530  144.8420 C   0  0  0  0  0  0  0  0  0  0  0  0
  183.8660  179.0410  145.7620 O   0  0  0  0  0  0  0  0  0  0  0  0
  184.0570  178.6660  143.4310 C   0  0  0  0  0  1  0  0  0  0  0  0
  190.9110  172.7040  142.8430 O   0  0  0  0  0  0  0  0  0  0  0  0
  191.9470  173.1910  139.2850 C   0  0  0  0  0  3  0  0  0  0  0  0
  189.6470  173.2910  140.8810 C   0  0  0  0  0  3  0  0  0  0  0  0
  189.3950  174.1170  136.7710 C   0  0  0  0  0  0  0  0  0  0  0  0
  190.6290  173.7900  137.3420 C   0  0  0  0  0  3  0  0  0  0  0  0
  190.7180  173.5150  138.7100 C   0  0  0  0  0  0  0  0  0  0  0  0
  188.3260  173.8910  138.9400 C   0  0  0  0  0  3  0  0  0  0  0  0
  189.5580  173.5650  139.5150 C   0  0  0  0  0  0  0  0  0  0  0  0
  188.2450  174.1660  137.5720 C   0  0  0  0  0  3  0  0  0  0  0  0
  190.8780  172.9590  141.4610 C   0  0  0  0  0  0  0  0  0  0  0  0
  192.0260  172.9180  140.6530 C   0  0  0  0  0  3  0  0  0  0  0  0
  189.3160  174.4020  135.3090 C   0  0  2  0  0  3  0  0  0  0  0  0
  190.5850  174.5580  134.7810 F   0  0  0  0  0  0  0  0  0  0  0  0
  188.5670  175.5580  135.0850 O   0  0  0  0  0  1  0  0  0  0  0  0
  1 17  1  0  0  0  0
  1 10  1  0  0  0  0
  4  5  1  0  0  0  0
  4  8  2  0  0  0  0
  5  1  2  0  0  0  0
  6 10  2  0  0  0  0
  6  7  1  0  0  0  0
  8  6  1  0  0  0  0
  9  3  1  0  0  0  0
  9 11  2  0  0  0  0
 10  9  1  0  0  0  0
 12  2  1  0  0  0  0
 13 12  1  0  0  0  0
 14 16  1  0  0  0  0
 14 13  2  0  0  0  0
 15  2  2  0  0  0  0
 15  3  1  0  0  0  0
 16 17  2  0  0  0  0
 17 15  1  0  0  0  0
 18 13  1  0  0  0  0
 18 19  2  0  0  0  0
 20 18  1  0  0  0  0
 21  4  1  0  0  0  0
 22 31  1  0  0  0  0
 23 30  1  0  0  0  0
 24 25  2  0  0  0  0
 24 29  1  0  0  0  0
 25 26  1  0  0  0  0
 26 22  2  0  0  0  0
 26 28  1  0  0  0  0
 27 28  1  0  0  0  0
 28 23  2  0  0  0  0
 29 27  2  0  0  0  0
 30 21  1  0  0  0  0
 31 30  2  0  0  0  0
 32 33  1  1  0  0  0
 32 24  1  0  0  0  0
 34 32  1  0  0  0  0
M  END
>  <MODEL>
7

>  <REMARK>
 VINA RESULT:      -8.0      4.784      9.395
  Name = 
  4 active torsions:
  status: ('A' for Active; 'I' for Inactive)
    1  A    between atoms: C_3  and  C_25
    2  A    between atoms: C_7  and  C_11
    3  A    between atoms: C_8  and  O_18
    4  A    between atoms: O_18  and  C_30
                            x       y       z     vdW  Elec       q    Type
                         _______ _______ _______ _____ _____    ______ ____

>  <TORSDO>
F 4

$$$$
=
 OpenBabel11052420243D

 34 38  0  0  1  0  0  0  0  0999 V2000
  192.5210  174.3350  141.8020 C   0  0  0  0  0  0  0  0  0  0  0  0
  192.6920  173.9940  138.1390 C   0  0  0  0  0  3  0  0  0  0  0  0
  194.1610  174.8640  139.6490 N   0  0  0  0  0  2  0  0  0  0  0  0
  191.9880  174.6020  144.1800 C   0  0  0  0  0  0  0  0  0  0  0  0
  191.6940  174.0870  142.9150 C   0  0  0  0  0  3  0  0  0  0  0  0
  193.9950  175.6230  143.2740 C   0  0  0  0  0  0  0  0  0  0  0  0
  195.1560  176.4140  143.5210 N   0  0  0  0  0  1  0  0  0  0  0  0
  193.1420  175.3630  144.3460 C   0  0  0  0  0  3  0  0  0  0  0  0
  194.5340  175.3190  140.8690 C   0  0  0  0  0  0  0  0  0  0  0  0
  193.6970  175.1110  141.9840 C   0  0  0  0  0  0  0  0  0  0  0  0
  195.6230  175.9430  140.9710 O   0  0  0  0  0  0  0  0  0  0  0  0
  191.3680  173.5430  137.6250 C   0  0  0  0  0  2  0  0  0  0  0  0
  191.0130  172.1730  138.0810 C   0  0  0  0  0  0  0  0  0  0  0  0
  190.8950  171.9100  139.3800 C   0  0  0  0  0  3  0  0  0  0  0  0
  193.0200  174.1680  139.4240 C   0  0  0  0  0  0  0  0  0  0  0  0
  191.2780  172.8010  140.4900 C   0  0  0  0  0  3  0  0  0  0  0  0
  192.2110  173.7820  140.5320 C   0  0  0  0  0  0  0  0  0  0  0  0
  190.6330  171.1570  137.0790 C   0  0  0  0  0  0  0  0  0  0  0  0
  191.0990  171.2220  135.9110 O   0  0  0  0  0  0  0  0  0  0  0  0
  189.7070  170.0370  137.4190 C   0  0  0  0  0  1  0  0  0  0  0  0
  191.1810  174.3600  145.3050 O   0  0  0  0  0  0  0  0  0  0  0  0
  188.2420  175.5840  147.2640 C   0  0  0  0  0  3  0  0  0  0  0  0
  189.4710  175.9670  144.7750 C   0  0  0  0  0  3  0  0  0  0  0  0
  185.9950  178.1100  145.7600 C   0  0  0  0  0  0  0  0  0  0  0  0
  186.5400  177.2050  146.6770 C   0  0  0  0  0  3  0  0  0  0  0  0
  187.6960  176.4890  146.3530 C   0  0  0  0  0  0  0  0  0  0  0  0
  187.7690  177.5880  144.1850 C   0  0  0  0  0  3  0  0  0  0  0  0
  188.3160  176.6830  145.0980 C   0  0  0  0  0  0  0  0  0  0  0  0
  186.6120  178.3000  144.5150 C   0  0  0  0  0  3  0  0  0  0  0  0
  190.0260  175.0620  145.6880 C   0  0  0  0  0  0  0  0  0  0  0  0
  189.3990  174.8720  146.9310 C   0  0  0  0  0  3  0  0  0  0  0  0
  184.7640  178.8700  146.1240 C   0  0  2  0  0  3  0  0  0  0  0  0
  184.1510  178.2950  147.2210 F   0  0  0  0  0  0  0  0  0  0  0  0
  183.8780  178.8910  145.0460 O   0  0  0  0  0  1  0  0  0  0  0  0
  1 10  2  0  0  0  0
  1  5  1  0  0  0  0
  2 15  2  0  0  0  0
  3  9  1  0  0  0  0
  4  8  1  0  0  0  0
  4 21  1  0  0  0  0
  5  4  2  0  0  0  0
  6  7  1  0  0  0  0
  6  8  2  0  0  0  0
  9 11  2  0  0  0  0
  9 10  1  0  0  0  0
 10  6  1  0  0  0  0
 12 13  1  0  0  0  0
 12  2  1  0  0  0  0
 13 14  2  0  0  0  0
 14 16  1  0  0  0  0
 15  3  1  0  0  0  0
 15 17  1  0  0  0  0
 16 17  2  0  0  0  0
 17  1  1  0  0  0  0
 18 20  1  0  0  0  0
 18 13  1  0  0  0  0
 19 18  2  0  0  0  0
 21 30  1  0  0  0  0
 23 28  2  0  0  0  0
 23 30  1  0  0  0  0
 24 32  1  0  0  0  0
 24 25  2  0  0  0  0
 26 25  1  0  0  0  0
 26 22  2  0  0  0  0
 27 29  2  0  0  0  0
 27 28  1  0  0  0  0
 28 26  1  0  0  0  0
 29 24  1  0  0  0  0
 30 31  2  0  0  0  0
 31 22  1  0  0  0  0
 32 34  1  6  0  0  0
 32 33  1  0  0  0  0
M  END
>  <MODEL>
8

>  <REMARK>
 VINA RESULT:      -8.0      3.779      5.609
  Name = 
  4 active torsions:
  status: ('A' for Active; 'I' for Inactive)
    1  A    between atoms: C_3  and  C_25
    2  A    between atoms: C_7  and  C_11
    3  A    between atoms: C_8  and  O_18
    4  A    between atoms: O_18  and  C_30
                            x       y       z     vdW  Elec       q    Type
                         _______ _______ _______ _____ _____    ______ ____

>  <TORSDO>
F 4

$$$$
=
 OpenBabel11052420243D

 34 38  0  0  1  0  0  0  0  0999 V2000
  187.7450  175.4920  141.8250 C   0  0  0  0  0  0  0  0  0  0  0  0
  185.9910  178.6640  142.4810 C   0  0  0  0  0  3  0  0  0  0  0  0
  186.3340  177.4940  140.5550 N   0  0  0  0  0  2  0  0  0  0  0  0
  189.1620  173.4960  141.7120 C   0  0  0  0  0  0  0  0  0  0  0  0
  188.4800  174.4660  142.4500 C   0  0  0  0  0  3  0  0  0  0  0  0
  188.3680  174.5260  139.6630 C   0  0  0  0  0  0  0  0  0  0  0  0
  188.3480  174.5020  138.2370 N   0  0  0  0  0  1  0  0  0  0  0  0
  189.0940  173.5340  140.3220 C   0  0  0  0  0  3  0  0  0  0  0  0
  186.9100  176.5310  139.7960 C   0  0  0  0  0  0  0  0  0  0  0  0
  187.6800  175.5210  140.4050 C   0  0  0  0  0  0  0  0  0  0  0  0
  186.7580  176.5790  138.5460 O   0  0  0  0  0  0  0  0  0  0  0  0
  186.2470  179.0840  143.8880 C   0  0  0  0  0  2  0  0  0  0  0  0
  185.6520  178.1520  144.8810 C   0  0  0  0  0  0  0  0  0  0  0  0
  186.0330  176.8770  144.9140 C   0  0  0  0  0  3  0  0  0  0  0  0
  186.4180  177.5330  141.9080 C   0  0  0  0  0  0  0  0  0  0  0  0
  186.8720  176.1910  143.9150 C   0  0  0  0  0  3  0  0  0  0  0  0
  187.0420  176.4540  142.5980 C   0  0  0  0  0  0  0  0  0  0  0  0
  184.7630  178.6890  145.9310 C   0  0  0  0  0  0  0  0  0  0  0  0
  183.5870  179.0350  145.6430 O   0  0  0  0  0  0  0  0  0  0  0  0
  185.2230  178.8290  147.3430 C   0  0  0  0  0  1  0  0  0  0  0  0
  189.8940  172.4590  142.3150 O   0  0  0  0  0  0  0  0  0  0  0  0
  193.5750  171.8140  142.3930 C   0  0  0  0  0  3  0  0  0  0  0  0
  191.6130  173.2180  143.8180 C   0  0  0  0  0  3  0  0  0  0  0  0
  195.6200  173.3450  145.0710 C   0  0  0  0  0  0  0  0  0  0  0  0
  195.2660  172.6020  143.9400 C   0  0  0  0  0  3  0  0  0  0  0  0
  193.9330  172.5560  143.5200 C   0  0  0  0  0  0  0  0  0  0  0  0
  193.3010  174.0060  145.3670 C   0  0  0  0  0  3  0  0  0  0  0  0
  192.9440  173.2640  144.2380 C   0  0  0  0  0  0  0  0  0  0  0  0
  194.6360  174.0470  145.7820 C   0  0  0  0  0  3  0  0  0  0  0  0
  191.2500  172.4800  142.6850 C   0  0  0  0  0  0  0  0  0  0  0  0
  192.2400  171.7750  141.9810 C   0  0  0  0  0  3  0  0  0  0  0  0
  197.0470  173.3880  145.5020 C   0  0  2  0  0  3  0  0  0  0  0  0
  197.1310  173.6160  146.8640 F   0  0  0  0  0  0  0  0  0  0  0  0
  197.7250  174.3950  144.8130 O   0  0  0  0  0  1  0  0  0  0  0  0
  1  5  1  0  0  0  0
  1 17  1  0  0  0  0
  2 12  1  0  0  0  0
  3 15  1  0  0  0  0
  4 21  1  0  0  0  0
  4  5  2  0  0  0  0
  6  8  2  0  0  0  0
  6 10  1  0  0  0  0
  7  6  1  0  0  0  0
  8  4  1  0  0  0  0
  9 10  1  0  0  0  0
  9  3  1  0  0  0  0
 10  1  2  0  0  0  0
 11  9  2  0  0  0  0
 12 13  1  0  0  0  0
 13 14  2  0  0  0  0
 13 18  1  0  0  0  0
 15  2  2  0  0  0  0
 15 17  1  0  0  0  0
 16 14  1  0  0  0  0
 17 16  2  0  0  0  0
 18 20  1  0  0  0  0
 19 18  2  0  0  0  0
 21 30  1  0  0  0  0
 22 26  1  0  0  0  0
 23 28  1  0  0  0  0
 24 32  1  0  0  0  0
 24 29  1  0  0  0  0
 25 24  2  0  0  0  0
 26 25  1  0  0  0  0
 26 28  2  0  0  0  0
 27 29  2  0  0  0  0
 28 27  1  0  0  0  0
 30 23  2  0  0  0  0
 31 22  2  0  0  0  0
 31 30  1  0  0  0  0
 32 34  1  6  0  0  0
 32 33  1  0  0  0  0
M  END
>  <MODEL>
9

>  <REMARK>
 VINA RESULT:      -8.0      4.362     10.148
  Name = 
  4 active torsions:
  status: ('A' for Active; 'I' for Inactive)
    1  A    between atoms: C_3  and  C_25
    2  A    between atoms: C_7  and  C_11
    3  A    between atoms: C_8  and  O_18
    4  A    between atoms: O_18  and  C_30
                            x       y       z     vdW  Elec       q    Type
                         _______ _______ _______ _____ _____    ______ ____

>  <TORSDO>
F 4

$$$$
