=
 OpenBabel11052421343D

 32 36  0  0  1  0  0  0  0  0999 V2000
  184.2630  178.3700  146.4810 N   0  0  0  0  0  0  0  0  0  0  0  0
  188.7630  176.2680  145.5400 C   0  0  0  0  0  0  0  0  0  0  0  0
  188.3890  174.1520  141.1790 C   0  0  0  0  0  3  0  0  0  0  0  0
  189.6860  173.6590  141.3200 C   0  0  0  0  0  3  0  0  0  0  0  0
  186.9390  177.5500  146.4880 C   0  0  0  0  0  0  0  0  0  0  0  0
  186.6910  176.5320  144.2990 C   0  0  0  0  0  3  0  0  0  0  0  0
  184.7930  177.9150  145.1920 C   0  0  0  0  0  0  0  0  0  0  0  0
  187.8210  174.9290  142.1900 C   0  0  0  0  0  3  0  0  0  0  0  0
  187.9900  176.0040  144.3880 C   0  0  0  0  0  0  0  0  0  0  0  0
  188.5460  175.2240  143.3580 C   0  0  0  0  0  0  0  0  0  0  0  0
  190.5910  175.0180  144.6670 C   0  0  0  0  0  0  0  0  0  0  0  0
  185.1020  178.6850  147.6000 C   0  0  0  0  0  3  0  0  0  0  0  0
  186.1620  177.3010  145.3400 C   0  0  0  0  0  0  0  0  0  0  0  0
  186.3800  178.3130  147.6120 C   0  0  0  0  0  3  0  0  0  0  0  0
  190.4210  173.9420  142.4740 C   0  0  0  0  0  3  0  0  0  0  0  0
  189.8640  174.7210  143.4990 C   0  0  0  0  0  0  0  0  0  0  0  0
  188.2340  177.0340  146.5810 C   0  0  0  0  0  3  0  0  0  0  0  0
  190.0220  175.7710  145.6460 N   0  0  0  0  0  0  0  0  0  0  0  0
  184.8620  179.0880  144.2260 C   0  0  0  0  0  2  0  0  0  0  0  0
  184.8800  178.5080  141.7760 C   0  0  0  0  0  0  0  0  0  0  0  0
  184.1730  178.7520  142.9900 N   0  0  0  0  0  2  0  0  0  0  0  0
  186.1370  178.5760  141.7390 O   0  0  0  0  0  0  0  0  0  0  0  0
  184.1250  178.1690  140.5410 C   0  0  0  0  0  1  0  0  0  0  0  0
  191.9750  174.4870  144.8850 C   0  0  0  0  0  2  0  0  0  0  0  0
  193.6500  175.0280  143.3180 C   0  0  2  0  0  3  0  0  0  0  0  0
  195.0520  174.4560  143.5700 C   0  0  0  0  0  2  0  0  0  0  0  0
  193.8490  175.6690  145.7000 C   0  0  1  0  0  3  0  0  0  0  0  0
  195.1710  176.3190  145.3050 C   0  0  0  0  0  2  0  0  0  0  0  0
  195.9480  175.4440  144.3200 C   0  0  0  0  0  2  0  0  0  0  0  0
  193.6880  176.1310  142.2750 C   0  0  0  0  0  1  0  0  0  0  0  0
  193.1970  176.4990  146.7000 N   0  0  0  0  0  1  0  0  0  0  0  0
  192.9620  175.5020  144.5350 N   0  0  0  0  0  0  0  0  0  0  0  0
  1 12  1  0  0  0  0
  2 18  1  0  0  0  0
  2 17  1  0  0  0  0
  3  4  2  0  0  0  0
  3  8  1  0  0  0  0
  4 15  1  0  0  0  0
  5 17  2  0  0  0  0
  5 14  1  0  0  0  0
  6  9  1  0  0  0  0
  6 13  2  0  0  0  0
  7 13  1  0  0  0  0
  7  1  2  0  0  0  0
  8 10  2  0  0  0  0
  9  2  2  0  0  0  0
 10 16  1  0  0  0  0
 10  9  1  0  0  0  0
 11 24  1  0  0  0  0
 11 18  2  0  0  0  0
 12 14  2  0  0  0  0
 13  5  1  0  0  0  0
 15 16  2  0  0  0  0
 16 11  1  0  0  0  0
 19  7  1  0  0  0  0
 20 21  1  0  0  0  0
 21 19  1  0  0  0  0
 22 20  2  0  0  0  0
 23 20  1  0  0  0  0
 25 30  1  6  0  0  0
 25 26  1  0  0  0  0
 25 32  1  0  0  0  0
 26 29  1  0  0  0  0
 27 31  1  1  0  0  0
 28 27  1  0  0  0  0
 29 28  1  0  0  0  0
 32 24  1  0  0  0  0
 32 27  1  0  0  0  0
M  END
>  <MODEL>
1

>  <REMARK>
 VINA RESULT:      -8.5      0.000      0.000
  Name = 
  4 active torsions:
  status: ('A' for Active; 'I' for Inactive)
    1  A    between atoms: N_10  and  C_24
    2  A    between atoms: C_12  and  C_24
    3  A    between atoms: C_16  and  C_27
    4  A    between atoms: C_27  and  N_32
                            x       y       z     vdW  Elec       q    Type
                         _______ _______ _______ _____ _____    ______ ____

>  <TORSDO>
F 4

$$$$
=
 OpenBabel11052421343D

 32 36  0  0  1  0  0  0  0  0999 V2000
  185.7270  178.6500  141.6310 N   0  0  0  0  0  0  0  0  0  0  0  0
  189.8660  176.2720  143.2970 C   0  0  0  0  0  0  0  0  0  0  0  0
  190.3340  177.4810  147.9820 C   0  0  0  0  0  3  0  0  0  0  0  0
  191.5280  176.7620  148.0360 C   0  0  0  0  0  3  0  0  0  0  0  0
  187.9780  177.0240  141.9760 C   0  0  0  0  0  0  0  0  0  0  0  0
  188.1430  177.6520  144.3140 C   0  0  0  0  0  3  0  0  0  0  0  0
  186.1230  178.3960  143.0190 C   0  0  0  0  0  0  0  0  0  0  0  0
  189.6090  177.5470  146.7910 C   0  0  0  0  0  3  0  0  0  0  0  0
  189.3540  176.9480  144.4270 C   0  0  0  0  0  0  0  0  0  0  0  0
  190.0700  176.8920  145.6360 C   0  0  0  0  0  0  0  0  0  0  0  0
  191.7460  175.5040  144.5370 C   0  0  0  0  0  0  0  0  0  0  0  0
  186.2320  177.8880  140.5260 C   0  0  0  0  0  3  0  0  0  0  0  0
  187.4550  177.6940  143.0980 C   0  0  0  0  0  0  0  0  0  0  0  0
  187.2940  177.1010  140.6780 C   0  0  0  0  0  3  0  0  0  0  0  0
  192.0010  176.1050  146.8980 C   0  0  0  0  0  3  0  0  0  0  0  0
  191.2840  176.1620  145.6930 C   0  0  0  0  0  0  0  0  0  0  0  0
  189.1780  176.3160  142.0810 C   0  0  0  0  0  3  0  0  0  0  0  0
  191.0320  175.5820  143.3830 N   0  0  0  0  0  0  0  0  0  0  0  0
  185.0600  177.5540  143.7070 C   0  0  0  0  0  2  0  0  0  0  0  0
  184.9130  177.6740  146.2180 C   0  0  0  0  0  0  0  0  0  0  0  0
  184.6220  178.2090  144.9290 N   0  0  0  0  0  2  0  0  0  0  0  0
  185.5670  176.6040  146.3370 O   0  0  0  0  0  0  0  0  0  0  0  0
  184.4400  178.3860  147.4340 C   0  0  0  0  0  1  0  0  0  0  0  0
  193.0380  174.7460  144.5300 C   0  0  0  0  0  2  0  0  0  0  0  0
  194.2710  174.4340  142.5460 C   0  0  2  0  0  3  0  0  0  0  0  0
  195.6220  173.7160  142.6710 C   0  0  0  0  0  2  0  0  0  0  0  0
  195.1740  175.7470  144.4410 C   0  0  1  0  0  3  0  0  0  0  0  0
  196.3990  175.9750  143.5600 C   0  0  0  0  0  2  0  0  0  0  0  0
  196.7860  174.7020  142.8050 C   0  0  0  0  0  2  0  0  0  0  0  0
  194.1390  175.1220  141.1980 C   0  0  0  0  0  1  0  0  0  0  0  0
  194.9070  176.9590  145.1970 N   0  0  0  0  0  1  0  0  0  0  0  0
  193.9920  175.3910  143.6360 N   0  0  0  0  0  0  0  0  0  0  0  0
  1  7  1  0  0  0  0
  2 18  1  0  0  0  0
  2  9  1  0  0  0  0
  3  4  1  0  0  0  0
  5 17  1  0  0  0  0
  5 13  1  0  0  0  0
  6  9  2  0  0  0  0
  7 13  2  0  0  0  0
  7 19  1  0  0  0  0
  8  3  2  0  0  0  0
  9 10  1  0  0  0  0
 10 16  2  0  0  0  0
 10  8  1  0  0  0  0
 11 16  1  0  0  0  0
 12 14  1  0  0  0  0
 12  1  2  0  0  0  0
 13  6  1  0  0  0  0
 14  5  2  0  0  0  0
 15  4  2  0  0  0  0
 16 15  1  0  0  0  0
 17  2  2  0  0  0  0
 18 11  2  0  0  0  0
 19 21  1  0  0  0  0
 20 22  2  0  0  0  0
 20 23  1  0  0  0  0
 21 20  1  0  0  0  0
 24 11  1  0  0  0  0
 25 30  1  6  0  0  0
 25 26  1  0  0  0  0
 25 32  1  0  0  0  0
 26 29  1  0  0  0  0
 27 31  1  6  0  0  0
 28 27  1  0  0  0  0
 29 28  1  0  0  0  0
 32 27  1  0  0  0  0
 32 24  1  0  0  0  0
M  END
>  <MODEL>
2

>  <REMARK>
 VINA RESULT:      -8.1      1.977      4.060
  Name = 
  4 active torsions:
  status: ('A' for Active; 'I' for Inactive)
    1  A    between atoms: N_10  and  C_24
    2  A    between atoms: C_12  and  C_24
    3  A    between atoms: C_16  and  C_27
    4  A    between atoms: C_27  and  N_32
                            x       y       z     vdW  Elec       q    Type
                         _______ _______ _______ _____ _____    ______ ____

>  <TORSDO>
F 4

$$$$
=
 OpenBabel11052421343D

 32 36  0  0  1  0  0  0  0  0999 V2000
  184.8510  177.8410  145.9640 N   0  0  0  0  0  0  0  0  0  0  0  0
  189.3730  176.2320  144.3770 C   0  0  0  0  0  0  0  0  0  0  0  0
  188.5900  173.8950  140.1860 C   0  0  0  0  0  3  0  0  0  0  0  0
  189.9430  173.5620  140.1330 C   0  0  0  0  0  3  0  0  0  0  0  0
  187.5760  177.3360  145.5680 C   0  0  0  0  0  0  0  0  0  0  0  0
  187.1180  176.2000  143.4740 C   0  0  0  0  0  3  0  0  0  0  0  0
  185.2270  177.3940  144.6200 C   0  0  0  0  0  0  0  0  0  0  0  0
  188.0950  174.6460  141.2540 C   0  0  0  0  0  3  0  0  0  0  0  0
  188.4690  175.8300  143.3690 C   0  0  0  0  0  0  0  0  0  0  0  0
  188.9500  175.0740  142.2840 C   0  0  0  0  0  0  0  0  0  0  0  0
  191.1820  175.1640  143.2580 C   0  0  0  0  0  0  0  0  0  0  0  0
  185.8090  178.3000  146.9270 C   0  0  0  0  0  3  0  0  0  0  0  0
  186.6660  176.9480  144.5650 C   0  0  0  0  0  0  0  0  0  0  0  0
  187.1080  178.0790  146.7460 C   0  0  0  0  0  3  0  0  0  0  0  0
  190.8070  173.9790  141.1480 C   0  0  0  0  0  3  0  0  0  0  0  0
  190.3250  174.7330  142.2280 C   0  0  0  0  0  0  0  0  0  0  0  0
  188.9220  176.9780  145.4680 C   0  0  0  0  0  3  0  0  0  0  0  0
  190.6840  175.8890  144.2960 N   0  0  0  0  0  0  0  0  0  0  0  0
  185.0040  178.5220  143.6250 C   0  0  0  0  0  2  0  0  0  0  0  0
  183.7170  178.2880  141.4730 C   0  0  0  0  0  0  0  0  0  0  0  0
  183.7630  178.3040  142.8980 N   0  0  0  0  0  2  0  0  0  0  0  0
  184.7640  178.4640  140.7940 O   0  0  0  0  0  0  0  0  0  0  0  0
  182.4220  178.0610  140.7810 C   0  0  0  0  0  1  0  0  0  0  0  0
  192.6370  174.8050  143.2680 C   0  0  0  0  0  2  0  0  0  0  0  0
  194.0420  175.2810  145.1000 C   0  0  2  0  0  3  0  0  0  0  0  0
  195.4830  174.7570  145.0280 C   0  0  0  0  0  2  0  0  0  0  0  0
  193.5180  172.9540  144.4390 C   0  0  1  0  0  3  0  0  0  0  0  0
  194.3840  172.5350  145.6230 C   0  0  0  0  0  2  0  0  0  0  0  0
  195.6370  173.4050  145.7310 C   0  0  0  0  0  2  0  0  0  0  0  0
  193.6890  175.7200  146.5110 C   0  0  0  0  0  1  0  0  0  0  0  0
  192.3920  172.0410  144.3340 N   0  0  0  0  0  1  0  0  0  0  0  0
  193.0280  174.3350  144.5920 N   0  0  0  0  0  0  0  0  0  0  0  0
  1 12  1  0  0  0  0
  2 17  1  0  0  0  0
  3  8  1  0  0  0  0
  4  3  2  0  0  0  0
  4 15  1  0  0  0  0
  5 14  1  0  0  0  0
  6 13  2  0  0  0  0
  7  1  2  0  0  0  0
  8 10  2  0  0  0  0
  9  6  1  0  0  0  0
  9  2  2  0  0  0  0
 10  9  1  0  0  0  0
 11 24  1  0  0  0  0
 11 18  2  0  0  0  0
 13  7  1  0  0  0  0
 13  5  1  0  0  0  0
 14 12  2  0  0  0  0
 15 16  2  0  0  0  0
 16 10  1  0  0  0  0
 16 11  1  0  0  0  0
 17  5  2  0  0  0  0
 18  2  1  0  0  0  0
 19  7  1  0  0  0  0
 20 21  1  0  0  0  0
 21 19  1  0  0  0  0
 22 20  2  0  0  0  0
 23 20  1  0  0  0  0
 24 32  1  0  0  0  0
 25 30  1  1  0  0  0
 26 25  1  0  0  0  0
 26 29  1  0  0  0  0
 27 31  1  1  0  0  0
 27 32  1  0  0  0  0
 27 28  1  0  0  0  0
 28 29  1  0  0  0  0
 32 25  1  0  0  0  0
M  END
>  <MODEL>
3

>  <REMARK>
 VINA RESULT:      -7.9      1.404      1.926
  Name = 
  4 active torsions:
  status: ('A' for Active; 'I' for Inactive)
    1  A    between atoms: N_10  and  C_24
    2  A    between atoms: C_12  and  C_24
    3  A    between atoms: C_16  and  C_27
    4  A    between atoms: C_27  and  N_32
                            x       y       z     vdW  Elec       q    Type
                         _______ _______ _______ _____ _____    ______ ____

>  <TORSDO>
F 4

$$$$
=
 OpenBabel11052421343D

 32 36  0  0  1  0  0  0  0  0999 V2000
  185.9050  178.4150  141.5050 N   0  0  0  0  0  0  0  0  0  0  0  0
  189.9730  176.0750  143.3850 C   0  0  0  0  0  0  0  0  0  0  0  0
  190.3750  177.5460  148.0010 C   0  0  0  0  0  3  0  0  0  0  0  0
  191.5560  176.8130  148.1190 C   0  0  0  0  0  3  0  0  0  0  0  0
  188.1230  176.7780  141.9860 C   0  0  0  0  0  0  0  0  0  0  0  0
  188.2550  177.5380  144.2870 C   0  0  0  0  0  3  0  0  0  0  0  0
  186.2710  178.2360  142.9130 C   0  0  0  0  0  0  0  0  0  0  0  0
  189.6730  177.5540  146.7940 C   0  0  0  0  0  3  0  0  0  0  0  0
  189.4520  176.8230  144.4640 C   0  0  0  0  0  0  0  0  0  0  0  0
  190.1450  176.8260  145.6880 C   0  0  0  0  0  0  0  0  0  0  0  0
  191.8170  175.3520  144.7040 C   0  0  0  0  0  0  0  0  0  0  0  0
  186.4180  177.5830  140.4560 C   0  0  0  0  0  3  0  0  0  0  0  0
  187.5900  177.5200  143.0580 C   0  0  0  0  0  0  0  0  0  0  0  0
  187.4640  176.7900  140.6740 C   0  0  0  0  0  3  0  0  0  0  0  0
  192.0390  176.0840  147.0300 C   0  0  0  0  0  3  0  0  0  0  0  0
  191.3450  176.0830  145.8100 C   0  0  0  0  0  0  0  0  0  0  0  0
  189.3090  176.0590  142.1560 C   0  0  0  0  0  3  0  0  0  0  0  0
  191.1260  175.3740  143.5330 N   0  0  0  0  0  0  0  0  0  0  0  0
  185.1830  177.4510  143.6280 C   0  0  0  0  0  2  0  0  0  0  0  0
  184.9450  177.7410  146.1180 C   0  0  0  0  0  0  0  0  0  0  0  0
  184.7140  178.1950  144.7860 N   0  0  0  0  0  2  0  0  0  0  0  0
  185.5700  176.6690  146.3320 O   0  0  0  0  0  0  0  0  0  0  0  0
  184.4430  178.5410  147.2660 C   0  0  0  0  0  1  0  0  0  0  0  0
  193.0970  174.5750  144.7650 C   0  0  0  0  0  2  0  0  0  0  0  0
  192.6880  172.2610  144.5860 C   0  0  2  0  0  3  0  0  0  0  0  0
  193.8630  171.3200  144.8810 C   0  0  0  0  0  2  0  0  0  0  0  0
  194.3820  173.3900  143.1780 C   0  0  1  0  0  3  0  0  0  0  0  0
  194.6180  172.0200  142.5500 C   0  0  0  0  0  2  0  0  0  0  0  0
  194.6090  170.9150  143.6070 C   0  0  0  0  0  2  0  0  0  0  0  0
  191.5570  171.5230  143.8910 C   0  0  0  0  0  1  0  0  0  0  0  0
  194.4880  174.4060  142.1430 N   0  0  0  0  0  1  0  0  0  0  0  0
  193.0560  173.4670  143.8180 N   0  0  0  0  0  0  0  0  0  0  0  0
  1  7  1  0  0  0  0
  2 18  1  0  0  0  0
  2  9  1  0  0  0  0
  3  4  1  0  0  0  0
  5 17  1  0  0  0  0
  5 13  1  0  0  0  0
  6  9  2  0  0  0  0
  7 13  2  0  0  0  0
  7 19  1  0  0  0  0
  8  3  2  0  0  0  0
  9 10  1  0  0  0  0
 10 16  2  0  0  0  0
 10  8  1  0  0  0  0
 11 24  1  0  0  0  0
 11 16  1  0  0  0  0
 12 14  1  0  0  0  0
 12  1  2  0  0  0  0
 13  6  1  0  0  0  0
 14  5  2  0  0  0  0
 15  4  2  0  0  0  0
 16 15  1  0  0  0  0
 17  2  2  0  0  0  0
 18 11  2  0  0  0  0
 19 21  1  0  0  0  0
 20 22  2  0  0  0  0
 20 23  1  0  0  0  0
 21 20  1  0  0  0  0
 25 30  1  6  0  0  0
 25 26  1  0  0  0  0
 27 31  1  6  0  0  0
 27 32  1  0  0  0  0
 28 27  1  0  0  0  0
 28 29  1  0  0  0  0
 29 26  1  0  0  0  0
 32 25  1  0  0  0  0
 32 24  1  0  0  0  0
M  END
>  <MODEL>
4

>  <REMARK>
 VINA RESULT:      -7.8      2.302      4.524
  Name = 
  4 active torsions:
  status: ('A' for Active; 'I' for Inactive)
    1  A    between atoms: N_10  and  C_24
    2  A    between atoms: C_12  and  C_24
    3  A    between atoms: C_16  and  C_27
    4  A    between atoms: C_27  and  N_32
                            x       y       z     vdW  Elec       q    Type
                         _______ _______ _______ _____ _____    ______ ____

>  <TORSDO>
F 4

$$$$
=
 OpenBabel11052421343D

 32 36  0  0  1  0  0  0  0  0999 V2000
  191.3680  170.2280  142.4020 N   0  0  0  0  0  0  0  0  0  0  0  0
  189.5240  174.7220  143.8050 C   0  0  0  0  0  0  0  0  0  0  0  0
  191.7180  175.8420  147.9970 C   0  0  0  0  0  3  0  0  0  0  0  0
  190.9390  176.9960  148.0820 C   0  0  0  0  0  3  0  0  0  0  0  0
  190.0910  172.7130  142.5750 C   0  0  0  0  0  0  0  0  0  0  0  0
  191.2350  173.2190  144.6540 C   0  0  0  0  0  3  0  0  0  0  0  0
  191.9240  171.1640  143.3840 C   0  0  0  0  0  0  0  0  0  0  0  0
  191.5700  174.9760  146.9120 C   0  0  0  0  0  3  0  0  0  0  0  0
  190.4760  174.3930  144.7960 C   0  0  0  0  0  0  0  0  0  0  0  0
  190.6390  175.2550  145.8960 C   0  0  0  0  0  0  0  0  0  0  0  0
  188.9180  176.7080  144.9670 C   0  0  0  0  0  0  0  0  0  0  0  0
  190.4510  170.6320  141.3770 C   0  0  0  0  0  3  0  0  0  0  0  0
  191.0480  172.3790  143.5520 C   0  0  0  0  0  0  0  0  0  0  0  0
  189.8470  171.8160  141.4380 C   0  0  0  0  0  3  0  0  0  0  0  0
  190.0090  177.2890  147.0820 C   0  0  0  0  0  3  0  0  0  0  0  0
  189.8490  176.4270  145.9850 C   0  0  0  0  0  0  0  0  0  0  0  0
  189.3360  173.8810  142.7060 C   0  0  0  0  0  3  0  0  0  0  0  0
  188.7810  175.8520  143.9200 N   0  0  0  0  0  0  0  0  0  0  0  0
  193.3160  171.5930  142.9480 C   0  0  0  0  0  2  0  0  0  0  0  0
  194.9730  172.3260  144.6980 C   0  0  0  0  0  0  0  0  0  0  0  0
  194.2780  171.2960  143.9970 N   0  0  0  0  0  2  0  0  0  0  0  0
  194.7690  173.5380  144.4250 O   0  0  0  0  0  0  0  0  0  0  0  0
  195.9460  171.9650  145.7620 C   0  0  0  0  0  1  0  0  0  0  0  0
  188.0330  177.9160  145.0260 C   0  0  0  0  0  2  0  0  0  0  0  0
  186.0220  178.2460  143.8410 C   0  0  2  0  0  3  0  0  0  0  0  0
  185.1520  179.4370  144.2620 C   0  0  0  0  0  2  0  0  0  0  0  0
  186.0350  177.8230  146.2800 C   0  0  1  0  0  3  0  0  0  0  0  0
  184.5140  177.9020  146.1940 C   0  0  0  0  0  2  0  0  0  0  0  0
  184.0670  179.0310  145.2640 C   0  0  0  0  0  2  0  0  0  0  0  0
  185.2460  177.2880  142.9530 C   0  0  0  0  0  1  0  0  0  0  0  0
  186.3980  176.7950  147.2420 N   0  0  0  0  0  1  0  0  0  0  0  0
  186.6330  177.5130  144.9690 N   0  0  0  0  0  0  0  0  0  0  0  0
  1  7  1  0  0  0  0
  2 18  1  0  0  0  0
  2  9  1  0  0  0  0
  3  4  1  0  0  0  0
  5 17  1  0  0  0  0
  5 13  1  0  0  0  0
  6  9  2  0  0  0  0
  7 13  2  0  0  0  0
  8  3  2  0  0  0  0
  9 10  1  0  0  0  0
 10 16  2  0  0  0  0
 10  8  1  0  0  0  0
 11 24  1  0  0  0  0
 11 16  1  0  0  0  0
 12 14  1  0  0  0  0
 12  1  2  0  0  0  0
 13  6  1  0  0  0  0
 14  5  2  0  0  0  0
 15  4  2  0  0  0  0
 16 15  1  0  0  0  0
 17  2  2  0  0  0  0
 18 11  2  0  0  0  0
 19  7  1  0  0  0  0
 19 21  1  0  0  0  0
 20 23  1  0  0  0  0
 21 20  1  0  0  0  0
 22 20  2  0  0  0  0
 25 30  1  1  0  0  0
 25 26  1  0  0  0  0
 25 32  1  0  0  0  0
 26 29  1  0  0  0  0
 27 31  1  1  0  0  0
 28 27  1  0  0  0  0
 29 28  1  0  0  0  0
 32 24  1  0  0  0  0
 32 27  1  0  0  0  0
M  END
>  <MODEL>
5

>  <REMARK>
 VINA RESULT:      -7.6      3.010      8.513
  Name = 
  4 active torsions:
  status: ('A' for Active; 'I' for Inactive)
    1  A    between atoms: N_10  and  C_24
    2  A    between atoms: C_12  and  C_24
    3  A    between atoms: C_16  and  C_27
    4  A    between atoms: C_27  and  N_32
                            x       y       z     vdW  Elec       q    Type
                         _______ _______ _______ _____ _____    ______ ____

>  <TORSDO>
F 4

$$$$
=
 OpenBabel11052421343D

 32 36  0  0  1  0  0  0  0  0999 V2000
  195.5730  175.5780  144.8230 N   0  0  0  0  0  0  0  0  0  0  0  0
  190.6330  176.4070  144.1390 C   0  0  0  0  0  0  0  0  0  0  0  0
  188.8730  172.4230  141.9780 C   0  0  0  0  0  3  0  0  0  0  0  0
  187.6240  173.0370  141.8920 C   0  0  0  0  0  3  0  0  0  0  0  0
  192.9510  176.5550  144.8310 C   0  0  0  0  0  0  0  0  0  0  0  0
  192.1340  174.5320  143.7700 C   0  0  0  0  0  3  0  0  0  0  0  0
  194.5260  174.5930  144.5370 C   0  0  0  0  0  0  0  0  0  0  0  0
  189.9470  173.1000  142.5600 C   0  0  0  0  0  3  0  0  0  0  0  0
  190.8550  175.1000  143.6510 C   0  0  0  0  0  0  0  0  0  0  0  0
  189.7840  174.4020  143.0630 C   0  0  0  0  0  0  0  0  0  0  0  0
  188.3480  176.3270  143.4800 C   0  0  0  0  0  0  0  0  0  0  0  0
  195.2960  176.8700  145.3780 C   0  0  0  0  0  3  0  0  0  0  0  0
  193.1810  175.2500  144.3550 C   0  0  0  0  0  0  0  0  0  0  0  0
  194.0520  177.3420  145.4010 C   0  0  0  0  0  3  0  0  0  0  0  0
  187.4430  174.3310  142.3870 C   0  0  0  0  0  3  0  0  0  0  0  0
  188.5130  175.0240  142.9730 C   0  0  0  0  0  0  0  0  0  0  0  0
  191.6800  177.1260  144.7210 C   0  0  0  0  0  3  0  0  0  0  0  0
  189.4050  176.9760  144.0370 N   0  0  0  0  0  0  0  0  0  0  0  0
  194.4510  173.5830  145.6710 C   0  0  0  0  0  2  0  0  0  0  0  0
  196.5520  172.1970  145.7630 C   0  0  0  0  0  0  0  0  0  0  0  0
  195.2100  172.3910  145.3230 N   0  0  0  0  0  2  0  0  0  0  0  0
  197.1270  173.0630  146.4750 O   0  0  0  0  0  0  0  0  0  0  0  0
  197.2810  170.9600  145.3790 C   0  0  0  0  0  1  0  0  0  0  0  0
  187.0370  177.0450  143.3820 C   0  0  0  0  0  2  0  0  0  0  0  0
  186.6440  176.8230  145.6960 C   0  0  2  0  0  3  0  0  0  0  0  0
  185.1940  176.5860  146.1370 C   0  0  0  0  0  2  0  0  0  0  0  0
  185.5910  178.6290  144.3700 C   0  0  1  0  0  3  0  0  0  0  0  0
  184.9640  179.0830  145.6840 C   0  0  0  0  0  2  0  0  0  0  0  0
  184.4870  177.8910  146.5150 C   0  0  0  0  0  2  0  0  0  0  0  0
  187.5170  177.2180  146.8750 C   0  0  0  0  0  1  0  0  0  0  0  0
  185.9440  179.8020  143.5880 N   0  0  0  0  0  1  0  0  0  0  0  0
  186.7910  177.8050  144.6020 N   0  0  0  0  0  0  0  0  0  0  0  0
  1 12  1  0  0  0  0
  2 17  1  0  0  0  0
  3  8  1  0  0  0  0
  4  3  2  0  0  0  0
  4 15  1  0  0  0  0
  5 14  1  0  0  0  0
  6 13  2  0  0  0  0
  7  1  2  0  0  0  0
  7 19  1  0  0  0  0
  8 10  2  0  0  0  0
  9  6  1  0  0  0  0
  9  2  2  0  0  0  0
 10  9  1  0  0  0  0
 11 18  2  0  0  0  0
 12 14  2  0  0  0  0
 13  7  1  0  0  0  0
 13  5  1  0  0  0  0
 15 16  2  0  0  0  0
 16 10  1  0  0  0  0
 16 11  1  0  0  0  0
 17  5  2  0  0  0  0
 18  2  1  0  0  0  0
 20 22  2  0  0  0  0
 21 19  1  0  0  0  0
 21 20  1  0  0  0  0
 23 20  1  0  0  0  0
 24 11  1  0  0  0  0
 24 32  1  0  0  0  0
 25 26  1  0  0  0  0
 25 30  1  1  0  0  0
 26 29  1  0  0  0  0
 27 31  1  6  0  0  0
 27 32  1  0  0  0  0
 27 28  1  0  0  0  0
 28 29  1  0  0  0  0
 32 25  1  0  0  0  0
M  END
>  <MODEL>
6

>  <REMARK>
 VINA RESULT:      -7.6      2.994      8.364
  Name = 
  4 active torsions:
  status: ('A' for Active; 'I' for Inactive)
    1  A    between atoms: N_10  and  C_24
    2  A    between atoms: C_12  and  C_24
    3  A    between atoms: C_16  and  C_27
    4  A    between atoms: C_27  and  N_32
                            x       y       z     vdW  Elec       q    Type
                         _______ _______ _______ _____ _____    ______ ____

>  <TORSDO>
F 4

$$$$
=
 OpenBabel11052421343D

 32 36  0  0  1  0  0  0  0  0999 V2000
  191.0250  171.0260  140.4180 N   0  0  0  0  0  0  0  0  0  0  0  0
  189.4200  175.0850  142.9700 C   0  0  0  0  0  0  0  0  0  0  0  0
  192.0630  175.2590  147.0470 C   0  0  0  0  0  3  0  0  0  0  0  0
  191.3180  176.3600  147.4680 C   0  0  0  0  0  3  0  0  0  0  0  0
  189.8180  173.4030  141.2720 C   0  0  0  0  0  0  0  0  0  0  0  0
  191.1840  173.4420  143.2770 C   0  0  0  0  0  3  0  0  0  0  0  0
  191.6980  171.7240  141.5170 C   0  0  0  0  0  0  0  0  0  0  0  0
  191.7870  174.6550  145.8180 C   0  0  0  0  0  3  0  0  0  0  0  0
  190.4650  174.5490  143.7560 C   0  0  0  0  0  0  0  0  0  0  0  0
  190.7590  175.1460  144.9950 C   0  0  0  0  0  0  0  0  0  0  0  0
  188.9750  176.7600  144.6010 C   0  0  0  0  0  0  0  0  0  0  0  0
  190.0120  171.6420  139.6110 C   0  0  0  0  0  3  0  0  0  0  0  0
  190.8670  172.8660  142.0430 C   0  0  0  0  0  0  0  0  0  0  0  0
  189.4390  172.7790  139.9970 C   0  0  0  0  0  3  0  0  0  0  0  0
  190.2940  176.8620  146.6620 C   0  0  0  0  0  3  0  0  0  0  0  0
  190.0030  176.2650  145.4260 C   0  0  0  0  0  0  0  0  0  0  0  0
  189.1020  174.5080  141.7380 C   0  0  0  0  0  3  0  0  0  0  0  0
  188.7130  176.1570  143.4110 N   0  0  0  0  0  0  0  0  0  0  0  0
  193.0440  172.2480  141.0410 C   0  0  0  0  0  2  0  0  0  0  0  0
  193.2240  174.0860  139.3290 C   0  0  0  0  0  0  0  0  0  0  0  0
  192.9310  172.7340  139.6750 N   0  0  0  0  0  2  0  0  0  0  0  0
  193.5940  174.9090  140.2090 O   0  0  0  0  0  0  0  0  0  0  0  0
  193.0920  174.5300  137.9170 C   0  0  0  0  0  1  0  0  0  0  0  0
  188.1230  177.9180  145.0200 C   0  0  0  0  0  2  0  0  0  0  0  0
  186.0320  178.3630  144.0270 C   0  0  2  0  0  3  0  0  0  0  0  0
  185.2080  179.5140  144.6210 C   0  0  0  0  0  2  0  0  0  0  0  0
  186.2250  177.7170  146.4090 C   0  0  1  0  0  3  0  0  0  0  0  0
  184.7020  177.8090  146.4470 C   0  0  0  0  0  2  0  0  0  0  0  0
  184.1990  179.0200  145.6610 C   0  0  0  0  0  2  0  0  0  0  0  0
  185.1810  177.4930  143.1180 C   0  0  0  0  0  1  0  0  0  0  0  0
  186.6490  176.6040  147.2420 N   0  0  0  0  0  1  0  0  0  0  0  0
  186.7180  177.5270  145.0340 N   0  0  0  0  0  0  0  0  0  0  0  0
  1  7  1  0  0  0  0
  2 18  1  0  0  0  0
  2  9  1  0  0  0  0
  3  4  1  0  0  0  0
  5 17  1  0  0  0  0
  5 13  1  0  0  0  0
  6  9  2  0  0  0  0
  7 13  2  0  0  0  0
  8  3  2  0  0  0  0
  9 10  1  0  0  0  0
 10 16  2  0  0  0  0
 10  8  1  0  0  0  0
 11 24  1  0  0  0  0
 11 16  1  0  0  0  0
 12 14  1  0  0  0  0
 12  1  2  0  0  0  0
 13  6  1  0  0  0  0
 14  5  2  0  0  0  0
 15  4  2  0  0  0  0
 16 15  1  0  0  0  0
 17  2  2  0  0  0  0
 18 11  2  0  0  0  0
 19  7  1  0  0  0  0
 20 21  1  0  0  0  0
 20 22  2  0  0  0  0
 21 19  1  0  0  0  0
 23 20  1  0  0  0  0
 24 32  1  0  0  0  0
 25 30  1  1  0  0  0
 25 26  1  0  0  0  0
 25 32  1  0  0  0  0
 26 29  1  0  0  0  0
 27 28  1  0  0  0  0
 27 31  1  1  0  0  0
 29 28  1  0  0  0  0
 32 27  1  0  0  0  0
M  END
>  <MODEL>
7

>  <REMARK>
 VINA RESULT:      -7.3      2.921      8.020
  Name = 
  4 active torsions:
  status: ('A' for Active; 'I' for Inactive)
    1  A    between atoms: N_10  and  C_24
    2  A    between atoms: C_12  and  C_24
    3  A    between atoms: C_16  and  C_27
    4  A    between atoms: C_27  and  N_32
                            x       y       z     vdW  Elec       q    Type
                         _______ _______ _______ _____ _____    ______ ____

>  <TORSDO>
F 4

$$$$
=
 OpenBabel11052421343D

 32 36  0  0  1  0  0  0  0  0999 V2000
  184.8400  178.5090  139.7760 N   0  0  0  0  0  0  0  0  0  0  0  0
  187.5850  176.9430  143.7220 C   0  0  0  0  0  0  0  0  0  0  0  0
  185.8600  179.3100  147.6030 C   0  0  0  0  0  3  0  0  0  0  0  0
  186.8510  178.7200  148.3880 C   0  0  0  0  0  3  0  0  0  0  0  0
  186.5800  177.1960  141.5320 C   0  0  0  0  0  0  0  0  0  0  0  0
  185.6600  178.3970  143.4300 C   0  0  0  0  0  3  0  0  0  0  0  0
  184.5240  178.6400  141.2020 C   0  0  0  0  0  0  0  0  0  0  0  0
  185.7830  179.0220  146.2390 C   0  0  0  0  0  3  0  0  0  0  0  0
  186.6380  177.8380  144.2690 C   0  0  0  0  0  0  0  0  0  0  0  0
  186.6990  178.1380  145.6420 C   0  0  0  0  0  0  0  0  0  0  0  0
  188.6200  176.6530  145.8450 C   0  0  0  0  0  0  0  0  0  0  0  0
  185.7650  177.5380  139.2700 C   0  0  0  0  0  3  0  0  0  0  0  0
  185.6260  178.0830  142.0680 C   0  0  0  0  0  0  0  0  0  0  0  0
  186.5890  176.8960  140.0950 C   0  0  0  0  0  3  0  0  0  0  0  0
  187.7690  177.8390  147.8110 C   0  0  0  0  0  3  0  0  0  0  0  0
  187.7050  177.5400  146.4420 C   0  0  0  0  0  0  0  0  0  0  0  0
  187.5520  176.6310  142.3610 C   0  0  0  0  0  3  0  0  0  0  0  0
  188.5370  176.3870  144.5140 N   0  0  0  0  0  0  0  0  0  0  0  0
  183.2220  177.9160  141.5050 C   0  0  0  0  0  2  0  0  0  0  0  0
  181.0670  179.2100  141.3470 C   0  0  0  0  0  0  0  0  0  0  0  0
  182.1380  178.5000  140.7300 N   0  0  0  0  0  2  0  0  0  0  0  0
  181.0280  179.3530  142.5980 O   0  0  0  0  0  0  0  0  0  0  0  0
  179.9850  179.7860  140.5070 C   0  0  0  0  0  1  0  0  0  0  0  0
  189.7240  176.0180  146.6350 C   0  0  0  0  0  2  0  0  0  0  0  0
  191.5550  176.1160  145.1530 C   0  0  2  0  0  3  0  0  0  0  0  0
  192.7090  175.1370  145.4060 C   0  0  0  0  0  2  0  0  0  0  0  0
  191.8250  176.5370  147.5770 C   0  0  1  0  0  3  0  0  0  0  0  0
  193.2980  176.7820  147.2620 C   0  0  0  0  0  2  0  0  0  0  0  0
  193.8240  175.7690  146.2440 C   0  0  0  0  0  2  0  0  0  0  0  0
  191.9670  177.2120  144.1860 C   0  0  0  0  0  1  0  0  0  0  0  0
  191.4050  177.4690  148.6110 N   0  0  0  0  0  1  0  0  0  0  0  0
  190.9830  176.7070  146.3800 N   0  0  0  0  0  0  0  0  0  0  0  0
  1  7  1  0  0  0  0
  2  9  1  0  0  0  0
  2 18  1  0  0  0  0
  3  4  1  0  0  0  0
  5 13  1  0  0  0  0
  5 17  1  0  0  0  0
  6  9  2  0  0  0  0
  7 19  1  0  0  0  0
  7 13  2  0  0  0  0
  8  3  2  0  0  0  0
  9 10  1  0  0  0  0
 10  8  1  0  0  0  0
 10 16  2  0  0  0  0
 11 16  1  0  0  0  0
 11 24  1  0  0  0  0
 12  1  2  0  0  0  0
 12 14  1  0  0  0  0
 13  6  1  0  0  0  0
 14  5  2  0  0  0  0
 15  4  2  0  0  0  0
 16 15  1  0  0  0  0
 17  2  2  0  0  0  0
 18 11  2  0  0  0  0
 20 22  2  0  0  0  0
 21 20  1  0  0  0  0
 21 19  1  0  0  0  0
 23 20  1  0  0  0  0
 25 30  1  6  0  0  0
 25 26  1  0  0  0  0
 25 32  1  0  0  0  0
 26 29  1  0  0  0  0
 27 31  1  1  0  0  0
 28 27  1  0  0  0  0
 29 28  1  0  0  0  0
 32 24  1  0  0  0  0
 32 27  1  0  0  0  0
M  END
>  <MODEL>
8

>  <REMARK>
 VINA RESULT:      -7.2      2.375      4.739
  Name = 
  4 active torsions:
  status: ('A' for Active; 'I' for Inactive)
    1  A    between atoms: N_10  and  C_24
    2  A    between atoms: C_12  and  C_24
    3  A    between atoms: C_16  and  C_27
    4  A    between atoms: C_27  and  N_32
                            x       y       z     vdW  Elec       q    Type
                         _______ _______ _______ _____ _____    ______ ____

>  <TORSDO>
F 4

$$$$
=
 OpenBabel11052421343D

 32 36  0  0  1  0  0  0  0  0999 V2000
  195.9310  173.2580  144.9600 N   0  0  0  0  0  0  0  0  0  0  0  0
  191.6150  175.8910  144.9140 C   0  0  0  0  0  0  0  0  0  0  0  0
  188.6510  173.5890  141.8240 C   0  0  0  0  0  3  0  0  0  0  0  0
  187.6980  174.5890  142.0130 C   0  0  0  0  0  3  0  0  0  0  0  0
  193.8140  175.0240  145.4460 C   0  0  0  0  0  0  0  0  0  0  0  0
  192.3800  173.8170  143.9050 C   0  0  0  0  0  3  0  0  0  0  0  0
  194.6160  172.8250  144.4780 C   0  0  0  0  0  0  0  0  0  0  0  0
  189.8740  173.6510  142.4960 C   0  0  0  0  0  3  0  0  0  0  0  0
  191.3840  174.7960  144.0520 C   0  0  0  0  0  0  0  0  0  0  0  0
  190.1570  174.7170  143.3670 C   0  0  0  0  0  0  0  0  0  0  0  0
  189.4690  176.7980  144.4310 C   0  0  0  0  0  0  0  0  0  0  0  0
  196.1020  174.3380  145.8860 C   0  0  0  0  0  3  0  0  0  0  0  0
  193.5910  173.9240  144.5950 C   0  0  0  0  0  0  0  0  0  0  0  0
  195.1010  175.1780  146.1380 C   0  0  0  0  0  3  0  0  0  0  0  0
  187.9620  175.6550  142.8750 C   0  0  0  0  0  3  0  0  0  0  0  0
  189.1870  175.7320  143.5570 C   0  0  0  0  0  0  0  0  0  0  0  0
  192.8260  175.9990  145.6020 C   0  0  0  0  0  3  0  0  0  0  0  0
  190.6660  176.8480  145.0740 N   0  0  0  0  0  0  0  0  0  0  0  0
  194.1560  171.6110  145.2700 C   0  0  0  0  0  2  0  0  0  0  0  0
  195.2670  169.6310  146.3610 C   0  0  0  0  0  0  0  0  0  0  0  0
  195.2930  170.9910  145.9320 N   0  0  0  0  0  2  0  0  0  0  0  0
  194.2450  168.9190  146.1760 O   0  0  0  0  0  0  0  0  0  0  0  0
  196.4580  169.0490  147.0330 C   0  0  0  0  0  1  0  0  0  0  0  0
  188.4940  177.9160  144.6450 C   0  0  0  0  0  2  0  0  0  0  0  0
  186.1780  178.3080  144.4530 C   0  0  2  0  0  3  0  0  0  0  0  0
  185.5370  179.2290  145.4990 C   0  0  0  0  0  2  0  0  0  0  0  0
  187.1500  177.2510  146.4690 C   0  0  1  0  0  3  0  0  0  0  0  0
  185.7170  177.1660  146.9860 C   0  0  0  0  0  2  0  0  0  0  0  0
  184.9350  178.4410  146.6660 C   0  0  0  0  0  2  0  0  0  0  0  0
  185.1200  177.5370  143.6810 C   0  0  0  0  0  1  0  0  0  0  0  0
  187.8670  176.0540  146.8760 N   0  0  0  0  0  1  0  0  0  0  0  0
  187.1860  177.3780  145.0010 N   0  0  0  0  0  0  0  0  0  0  0  0
  1 12  1  0  0  0  0
  2 18  1  0  0  0  0
  2 17  1  0  0  0  0
  3  4  2  0  0  0  0
  3  8  1  0  0  0  0
  4 15  1  0  0  0  0
  5 17  2  0  0  0  0
  5 14  1  0  0  0  0
  6  9  1  0  0  0  0
  6 13  2  0  0  0  0
  7 13  1  0  0  0  0
  7  1  2  0  0  0  0
  7 19  1  0  0  0  0
  8 10  2  0  0  0  0
  9  2  2  0  0  0  0
 10 16  1  0  0  0  0
 10  9  1  0  0  0  0
 11 24  1  0  0  0  0
 11 18  2  0  0  0  0
 12 14  2  0  0  0  0
 13  5  1  0  0  0  0
 15 16  2  0  0  0  0
 16 11  1  0  0  0  0
 19 21  1  0  0  0  0
 20 23  1  0  0  0  0
 21 20  1  0  0  0  0
 22 20  2  0  0  0  0
 24 32  1  0  0  0  0
 25 30  1  1  0  0  0
 25 32  1  0  0  0  0
 25 26  1  0  0  0  0
 26 29  1  0  0  0  0
 27 31  1  6  0  0  0
 27 28  1  0  0  0  0
 29 28  1  0  0  0  0
 32 27  1  0  0  0  0
M  END
>  <MODEL>
9

>  <REMARK>
 VINA RESULT:      -7.2      3.363      8.634
  Name = 
  4 active torsions:
  status: ('A' for Active; 'I' for Inactive)
    1  A    between atoms: N_10  and  C_24
    2  A    between atoms: C_12  and  C_24
    3  A    between atoms: C_16  and  C_27
    4  A    between atoms: C_27  and  N_32
                            x       y       z     vdW  Elec       q    Type
                         _______ _______ _______ _____ _____    ______ ____

>  <TORSDO>
F 4

$$$$
