=
 OpenBabel11052417073D

 30 33  0  0  1  0  0  0  0  0999 V2000
  191.5240  175.5600  143.4110 C   0  0  0  0  0  0  0  0  0  0  0  0
  190.6840  174.4570  144.0440 C   0  0  1  0  0  3  0  0  0  0  0  0
  190.9340  176.6220  142.8500 C   0  0  0  0  0  3  0  0  0  0  0  0
  187.4670  176.1230  144.0360 O   0  0  0  0  0  0  0  0  0  0  0  0
  188.7130  176.0050  143.8990 C   0  0  0  0  0  0  0  0  0  0  0  0
  188.9460  177.7710  142.1390 C   0  0  0  0  0  3  0  0  0  0  0  0
  189.4780  176.8240  142.9200 C   0  0  0  0  0  0  0  0  0  0  0  0
  189.4560  175.0300  144.7710 C   0  0  2  0  0  3  0  0  0  0  0  0
  193.5940  174.1580  143.6720 C   0  0  0  0  0  0  0  0  0  0  0  0
  194.0500  173.6890  145.0270 C   0  0  0  0  0  2  0  0  0  0  0  0
  193.6150  173.3770  142.7310 O   0  0  0  0  0  0  0  0  0  0  0  0
  193.5970  176.5820  144.4450 C   0  0  0  0  0  2  0  0  0  0  0  0
  194.2650  177.0960  146.7770 C   0  0  0  0  0  1  0  0  0  0  0  0
  193.0250  175.5410  143.4730 C   0  0  2  0  0  3  0  0  0  0  0  0
  194.6500  174.8270  145.8480 C   0  0  0  0  0  2  0  0  0  0  0  0
  193.7140  176.0260  145.8610 C   0  0  2  0  0  3  0  0  0  0  0  0
  189.4160  174.9940  147.3620 C   0  0  0  0  0  2  0  0  0  0  0  0
  190.7280  174.8720  146.8530 O   0  0  0  0  0  0  0  0  0  0  0  0
  190.1330  177.0130  146.1960 O   0  0  0  0  0  1  0  0  0  0  0  0
  189.8280  175.6540  146.1130 C   0  0  1  0  0  0  0  0  0  0  0  0
  189.1760  172.5620  143.5560 O   0  0  0  0  0  0  0  0  0  0  0  0
  190.3490  171.0070  142.1670 C   0  0  0  0  0  1  0  0  0  0  0  0
  190.2260  173.3540  143.0680 C   0  0  2  0  0  0  0  0  0  0  0  0
  190.4190  171.9120  143.3860 C   0  0  1  0  0  3  0  0  0  0  0  0
  187.6690  173.6050  141.7930 O   0  0  0  0  0  0  0  0  0  0  0  0
  188.6940  173.8650  141.1110 C   0  0  0  0  0  0  0  0  0  0  0  0
  188.5420  174.3190  139.7030 C   0  0  0  0  0  1  0  0  0  0  0  0
  190.0000  173.7330  141.6750 N   0  0  0  0  0  2  0  0  0  0  0  0
  186.8740  177.5630  140.8120 C   0  0  0  0  0  1  0  0  0  0  0  0
  187.4970  178.1310  142.0740 C   0  0  0  0  0  2  0  0  0  0  0  0
  2  1  1  6  0  0  0
  2  8  1  0  0  0  0
  3  7  1  0  0  0  0
  3  1  2  0  0  0  0
  5  4  2  0  0  0  0
  6  7  2  0  0  0  0
  7  5  1  0  0  0  0
  8  5  1  6  0  0  0
  8 20  1  0  0  0  0
  9 10  1  0  0  0  0
 10 15  1  0  0  0  0
 11  9  2  0  0  0  0
 12 16  1  0  0  0  0
 14  1  1  1  0  0  0
 14  9  1  0  0  0  0
 14 12  1  0  0  0  0
 15 16  1  0  0  0  0
 16 13  1  1  0  0  0
 18 17  1  0  0  0  0
 20 19  1  1  0  0  0
 20 18  1  0  0  0  0
 20 17  1  0  0  0  0
 23 28  1  6  0  0  0
 23 24  1  0  0  0  0
 23 21  1  0  0  0  0
 23  2  1  0  0  0  0
 24 22  1  6  0  0  0
 24 21  1  0  0  0  0
 26 28  1  0  0  0  0
 26 25  2  0  0  0  0
 27 26  1  0  0  0  0
 29 30  1  0  0  0  0
 30  6  1  0  0  0  0
M  END
>  <MODEL>
1

>  <REMARK>
 VINA RESULT:      -6.6      0.000      0.000
  Name = 
  5 active torsions:
  status: ('A' for Active; 'I' for Inactive)
    1  A    between atoms: C_1  and  C_22
    2  A    between atoms: C_4  and  C_23
    3  A    between atoms: C_9  and  C_21
    4  A    between atoms: C_13  and  C_30
    5  A    between atoms: C_23  and  N_25
                            x       y       z     vdW  Elec       q    Type
                         _______ _______ _______ _____ _____    ______ ____

>  <TORSDO>
F 5

$$$$
=
 OpenBabel11052417073D

 30 33  0  0  1  0  0  0  0  0999 V2000
  189.8540  176.6250  143.3050 C   0  0  0  0  0  0  0  0  0  0  0  0
  189.5670  175.2700  143.9400 C   0  0  1  0  0  3  0  0  0  0  0  0
  191.0340  176.8620  142.7190 C   0  0  0  0  0  3  0  0  0  0  0  0
  192.4080  173.4300  142.6480 O   0  0  0  0  0  0  0  0  0  0  0  0
  191.6120  174.3980  142.7740 C   0  0  0  0  0  0  0  0  0  0  0  0
  193.2760  176.1760  142.1910 C   0  0  0  0  0  3  0  0  0  0  0  0
  192.0460  175.8060  142.5660 C   0  0  0  0  0  0  0  0  0  0  0  0
  190.1740  174.1210  143.1160 C   0  0  2  0  0  3  0  0  0  0  0  0
  187.6780  177.4950  144.2150 C   0  0  0  0  0  0  0  0  0  0  0  0
  186.3640  176.9060  143.7820 C   0  0  0  0  0  2  0  0  0  0  0  0
  187.8610  177.7430  145.3980 O   0  0  0  0  0  0  0  0  0  0  0  0
  188.3250  177.9720  141.8010 C   0  0  0  0  0  2  0  0  0  0  0  0
  186.7420  177.3630  139.9920 C   0  0  0  0  0  1  0  0  0  0  0  0
  188.8060  177.6990  143.2330 C   0  0  2  0  0  3  0  0  0  0  0  0
  185.9970  177.3190  142.3590 C   0  0  0  0  0  2  0  0  0  0  0  0
  187.1630  177.0640  141.4140 C   0  0  2  0  0  3  0  0  0  0  0  0
  188.5000  172.6220  141.8260 C   0  0  0  0  0  2  0  0  0  0  0  0
  187.9680  173.9060  142.0840 O   0  0  0  0  0  0  0  0  0  0  0  0
  189.7170  174.3700  140.6360 O   0  0  0  0  0  1  0  0  0  0  0  0
  189.3510  173.8220  141.8660 C   0  0  1  0  0  0  0  0  0  0  0  0
  190.2250  173.8110  145.8220 O   0  0  0  0  0  0  0  0  0  0  0  0
  189.5280  174.8540  147.8600 C   0  0  0  0  0  1  0  0  0  0  0  0
  190.0230  175.1360  145.4080 C   0  0  2  0  0  0  0  0  0  0  0  0
  189.1500  174.4980  146.4320 C   0  0  1  0  0  3  0  0  0  0  0  0
  192.7290  174.3230  145.8950 O   0  0  0  0  0  0  0  0  0  0  0  0
  192.4420  175.5370  146.0610 C   0  0  0  0  0  0  0  0  0  0  0  0
  193.5060  176.4940  146.4630 C   0  0  0  0  0  1  0  0  0  0  0  0
  191.1060  176.0040  145.8630 N   0  0  0  0  0  2  0  0  0  0  0  0
  195.3630  175.2930  143.1720 C   0  0  0  0  0  1  0  0  0  0  0  0
  194.4320  175.2540  141.9740 C   0  0  0  0  0  2  0  0  0  0  0  0
  2  1  1  6  0  0  0
  2 23  1  0  0  0  0
  3  1  2  0  0  0  0
  4  5  2  0  0  0  0
  6  7  2  0  0  0  0
  7  3  1  0  0  0  0
  7  5  1  0  0  0  0
  8  5  1  6  0  0  0
  8  2  1  0  0  0  0
  9 11  2  0  0  0  0
 10  9  1  0  0  0  0
 12 14  1  0  0  0  0
 14  1  1  6  0  0  0
 14  9  1  0  0  0  0
 15 10  1  0  0  0  0
 16 13  1  6  0  0  0
 16 12  1  0  0  0  0
 16 15  1  0  0  0  0
 17 20  1  0  0  0  0
 17 18  1  0  0  0  0
 20 19  1  6  0  0  0
 20 18  1  0  0  0  0
 20  8  1  0  0  0  0
 21 24  1  0  0  0  0
 23 21  1  0  0  0  0
 23 28  1  1  0  0  0
 23 24  1  0  0  0  0
 24 22  1  1  0  0  0
 25 26  2  0  0  0  0
 26 27  1  0  0  0  0
 28 26  1  0  0  0  0
 30  6  1  0  0  0  0
 30 29  1  0  0  0  0
M  END
>  <MODEL>
2

>  <REMARK>
 VINA RESULT:      -6.3      1.774      6.091
  Name = 
  5 active torsions:
  status: ('A' for Active; 'I' for Inactive)
    1  A    between atoms: C_1  and  C_22
    2  A    between atoms: C_4  and  C_23
    3  A    between atoms: C_9  and  C_21
    4  A    between atoms: C_13  and  C_30
    5  A    between atoms: C_23  and  N_25
                            x       y       z     vdW  Elec       q    Type
                         _______ _______ _______ _____ _____    ______ ____

>  <TORSDO>
F 5

$$$$
=
 OpenBabel11052417073D

 30 33  0  0  1  0  0  0  0  0999 V2000
  190.0870  173.9360  143.9100 C   0  0  0  0  0  0  0  0  0  0  0  0
  190.6070  175.0040  142.9550 C   0  0  1  0  0  3  0  0  0  0  0  0
  189.8660  174.2290  145.1970 C   0  0  0  0  0  3  0  0  0  0  0  0
  190.1770  177.9110  145.0730 O   0  0  0  0  0  0  0  0  0  0  0  0
  190.0730  176.7070  144.7210 C   0  0  0  0  0  0  0  0  0  0  0  0
  190.0010  175.7660  147.0400 C   0  0  0  0  0  3  0  0  0  0  0  0
  190.0050  175.5990  145.7120 C   0  0  0  0  0  0  0  0  0  0  0  0
  189.9870  176.3790  143.2550 C   0  0  2  0  0  3  0  0  0  0  0  0
  190.9220  171.6910  143.1470 C   0  0  0  0  0  0  0  0  0  0  0  0
  191.4220  171.4830  141.7430 C   0  0  0  0  0  2  0  0  0  0  0  0
  191.5460  171.2080  144.0810 O   0  0  0  0  0  0  0  0  0  0  0  0
  188.6980  172.5770  142.2860 C   0  0  0  0  0  2  0  0  0  0  0  0
  188.3240  172.7040  139.8380 C   0  0  0  0  0  1  0  0  0  0  0  0
  189.7210  172.5600  143.4300 C   0  0  2  0  0  3  0  0  0  0  0  0
  190.2800  171.4640  140.7310 C   0  0  0  0  0  2  0  0  0  0  0  0
  189.3770  172.6740  140.9240 C   0  0  2  0  0  3  0  0  0  0  0  0
  188.2300  177.4160  141.6570 C   0  0  0  0  0  2  0  0  0  0  0  0
  188.4040  176.0340  141.4240 O   0  0  0  0  0  0  0  0  0  0  0  0
  187.4890  176.0710  143.5530 O   0  0  0  0  0  1  0  0  0  0  0  0
  188.5520  176.4800  142.7460 C   0  0  1  0  0  0  0  0  0  0  0  0
  192.5930  176.3490  142.3630 O   0  0  0  0  0  0  0  0  0  0  0  0
  194.3570  174.8530  141.7500 C   0  0  0  0  0  1  0  0  0  0  0  0
  192.1430  175.1390  142.9130 C   0  0  2  0  0  0  0  0  0  0  0  0
  192.8790  175.1810  141.6190 C   0  0  1  0  0  3  0  0  0  0  0  0
  193.3560  177.0100  144.7160 O   0  0  0  0  0  0  0  0  0  0  0  0
  193.4440  175.7860  144.9930 C   0  0  0  0  0  0  0  0  0  0  0  0
  194.1310  175.3650  146.2430 C   0  0  0  0  0  1  0  0  0  0  0  0
  192.8860  174.7980  144.1240 N   0  0  0  0  0  2  0  0  0  0  0  0
  191.4700  177.1720  148.4410 C   0  0  0  0  0  1  0  0  0  0  0  0
  190.1210  177.0740  147.7520 C   0  0  0  0  0  2  0  0  0  0  0  0
  1  3  2  0  0  0  0
  2  8  1  0  0  0  0
  2  1  1  1  0  0  0
  3  7  1  0  0  0  0
  5  4  2  0  0  0  0
  5  7  1  0  0  0  0
  6 30  1  0  0  0  0
  7  6  2  0  0  0  0
  8  5  1  1  0  0  0
  9 14  1  0  0  0  0
  9 11  2  0  0  0  0
 10  9  1  0  0  0  0
 12 14  1  0  0  0  0
 14  1  1  6  0  0  0
 15 16  1  0  0  0  0
 15 10  1  0  0  0  0
 16 13  1  6  0  0  0
 16 12  1  0  0  0  0
 17 20  1  0  0  0  0
 18 17  1  0  0  0  0
 18 20  1  0  0  0  0
 20  8  1  0  0  0  0
 20 19  1  1  0  0  0
 21 23  1  0  0  0  0
 23  2  1  0  0  0  0
 23 28  1  1  0  0  0
 24 22  1  1  0  0  0
 24 21  1  0  0  0  0
 24 23  1  0  0  0  0
 25 26  2  0  0  0  0
 26 27  1  0  0  0  0
 28 26  1  0  0  0  0
 30 29  1  0  0  0  0
M  END
>  <MODEL>
3

>  <REMARK>
 VINA RESULT:      -6.1      1.850      5.464
  Name = 
  5 active torsions:
  status: ('A' for Active; 'I' for Inactive)
    1  A    between atoms: C_1  and  C_22
    2  A    between atoms: C_4  and  C_23
    3  A    between atoms: C_9  and  C_21
    4  A    between atoms: C_13  and  C_30
    5  A    between atoms: C_23  and  N_25
                            x       y       z     vdW  Elec       q    Type
                         _______ _______ _______ _____ _____    ______ ____

>  <TORSDO>
F 5

$$$$
=
 OpenBabel11052417073D

 30 33  0  0  1  0  0  0  0  0999 V2000
  190.6020  176.5270  143.3660 C   0  0  0  0  0  0  0  0  0  0  0  0
  189.9860  175.2070  143.8150 C   0  0  1  0  0  3  0  0  0  0  0  0
  189.8220  177.5760  143.0800 C   0  0  0  0  0  3  0  0  0  0  0  0
  186.5890  176.3350  144.3790 O   0  0  0  0  0  0  0  0  0  0  0  0
  187.8200  176.4370  144.1330 C   0  0  0  0  0  0  0  0  0  0  0  0
  187.6370  178.5250  142.7630 C   0  0  0  0  0  3  0  0  0  0  0  0
  188.3670  177.5360  143.2920 C   0  0  0  0  0  0  0  0  0  0  0  0
  188.7700  175.4350  144.7300 C   0  0  2  0  0  3  0  0  0  0  0  0
  192.8320  175.5240  142.7810 C   0  0  0  0  0  0  0  0  0  0  0  0
  193.5140  174.5520  143.7040 C   0  0  0  0  0  2  0  0  0  0  0  0
  192.8150  175.2960  141.5790 O   0  0  0  0  0  0  0  0  0  0  0  0
  192.6680  177.2590  144.6340 C   0  0  0  0  0  2  0  0  0  0  0  0
  193.5790  176.7110  146.8740 C   0  0  0  0  0  1  0  0  0  0  0  0
  192.0910  176.7250  143.3170 C   0  0  2  0  0  3  0  0  0  0  0  0
  194.0870  175.2460  144.9360 C   0  0  0  0  0  2  0  0  0  0  0  0
  193.0330  176.1280  145.5900 C   0  0  2  0  0  3  0  0  0  0  0  0
  188.9410  174.9160  147.2630 C   0  0  0  0  0  2  0  0  0  0  0  0
  190.2140  175.0340  146.6610 O   0  0  0  0  0  0  0  0  0  0  0  0
  189.3660  177.1820  146.4670 O   0  0  0  0  0  1  0  0  0  0  0  0
  189.1870  175.8370  146.1420 C   0  0  1  0  0  0  0  0  0  0  0  0
  189.3040  174.9130  141.4590 O   0  0  0  0  0  0  0  0  0  0  0  0
  187.8520  173.0150  141.3290 C   0  0  0  0  0  1  0  0  0  0  0  0
  189.5850  174.2580  142.6680 C   0  0  2  0  0  0  0  0  0  0  0  0
  188.2110  174.2790  142.0930 C   0  0  1  0  0  3  0  0  0  0  0  0
  190.1470  172.2270  144.6120 O   0  0  0  0  0  0  0  0  0  0  0  0
  190.6270  172.0840  143.4580 C   0  0  0  0  0  0  0  0  0  0  0  0
  191.4260  170.8700  143.1410 C   0  0  0  0  0  1  0  0  0  0  0  0
  190.4100  173.0730  142.4490 N   0  0  0  0  0  2  0  0  0  0  0  0
  185.8060  179.7000  143.9310 C   0  0  0  0  0  1  0  0  0  0  0  0
  186.1530  178.6660  142.8760 C   0  0  0  0  0  2  0  0  0  0  0  0
  2  1  1  6  0  0  0
  2  8  1  0  0  0  0
  3  7  1  0  0  0  0
  3  1  2  0  0  0  0
  5  4  2  0  0  0  0
  6 30  1  0  0  0  0
  6  7  2  0  0  0  0
  7  5  1  0  0  0  0
  8  5  1  6  0  0  0
  8 20  1  0  0  0  0
  9 14  1  0  0  0  0
  9 10  1  0  0  0  0
 10 15  1  0  0  0  0
 11  9  2  0  0  0  0
 12 16  1  0  0  0  0
 14  1  1  1  0  0  0
 14 12  1  0  0  0  0
 15 16  1  0  0  0  0
 16 13  1  1  0  0  0
 18 17  1  0  0  0  0
 20 19  1  1  0  0  0
 20 18  1  0  0  0  0
 20 17  1  0  0  0  0
 21 24  1  0  0  0  0
 21 23  1  0  0  0  0
 23 28  1  6  0  0  0
 23  2  1  0  0  0  0
 24 22  1  6  0  0  0
 24 23  1  0  0  0  0
 26 25  2  0  0  0  0
 27 26  1  0  0  0  0
 28 26  1  0  0  0  0
 30 29  1  0  0  0  0
M  END
>  <MODEL>
4

>  <REMARK>
 VINA RESULT:      -5.9      1.244      2.206
  Name = 
  5 active torsions:
  status: ('A' for Active; 'I' for Inactive)
    1  A    between atoms: C_1  and  C_22
    2  A    between atoms: C_4  and  C_23
    3  A    between atoms: C_9  and  C_21
    4  A    between atoms: C_13  and  C_30
    5  A    between atoms: C_23  and  N_25
                            x       y       z     vdW  Elec       q    Type
                         _______ _______ _______ _____ _____    ______ ____

>  <TORSDO>
F 5

$$$$
=
 OpenBabel11052417073D

 30 33  0  0  1  0  0  0  0  0999 V2000
  189.9970  174.6930  145.4130 C   0  0  0  0  0  0  0  0  0  0  0  0
  190.5290  175.6690  144.3700 C   0  0  1  0  0  3  0  0  0  0  0  0
  190.1820  173.3760  145.2650 C   0  0  0  0  0  3  0  0  0  0  0  0
  192.6060  173.3870  142.4720 O   0  0  0  0  0  0  0  0  0  0  0  0
  191.8680  173.7710  143.4180 C   0  0  0  0  0  0  0  0  0  0  0  0
  190.9320  171.5100  143.9480 C   0  0  0  0  0  3  0  0  0  0  0  0
  190.9920  172.8290  144.1650 C   0  0  0  0  0  0  0  0  0  0  0  0
  191.8940  175.2200  143.8220 C   0  0  2  0  0  3  0  0  0  0  0  0
  188.3150  176.2580  146.4350 C   0  0  0  0  0  0  0  0  0  0  0  0
  188.6470  177.7060  146.6750 C   0  0  0  0  0  2  0  0  0  0  0  0
  187.2250  175.9650  145.9640 O   0  0  0  0  0  0  0  0  0  0  0  0
  190.3370  175.5110  147.7850 C   0  0  0  0  0  2  0  0  0  0  0  0
  191.8030  177.2330  148.8040 C   0  0  0  0  0  1  0  0  0  0  0  0
  189.3350  175.1720  146.6740 C   0  0  2  0  0  3  0  0  0  0  0  0
  189.6050  177.8810  147.8500 C   0  0  0  0  0  2  0  0  0  0  0  0
  190.8060  176.9590  147.6990 C   0  0  2  0  0  3  0  0  0  0  0  0
  194.1530  176.3510  144.3980 C   0  0  0  0  0  2  0  0  0  0  0  0
  193.0960  176.8490  145.1920 O   0  0  0  0  0  0  0  0  0  0  0  0
  193.2480  174.6440  145.8860 O   0  0  0  0  0  1  0  0  0  0  0  0
  193.0240  175.5020  144.8080 C   0  0  1  0  0  0  0  0  0  0  0  0
  190.2210  176.3310  142.0100 O   0  0  0  0  0  0  0  0  0  0  0  0
  188.1290  177.4760  141.8180 C   0  0  0  0  0  1  0  0  0  0  0  0
  189.5730  175.9360  143.1900 C   0  0  2  0  0  0  0  0  0  0  0  0
  189.4040  177.3050  142.6280 C   0  0  1  0  0  3  0  0  0  0  0  0
  189.6300  173.9900  141.0840 O   0  0  0  0  0  0  0  0  0  0  0  0
  188.6430  173.9820  141.8650 C   0  0  0  0  0  0  0  0  0  0  0  0
  187.5790  172.9580  141.6900 C   0  0  0  0  0  1  0  0  0  0  0  0
  188.5370  174.9420  142.9180 N   0  0  0  0  0  2  0  0  0  0  0  0
  190.7570  170.4170  141.7420 C   0  0  0  0  0  1  0  0  0  0  0  0
  191.6830  170.7680  142.8910 C   0  0  0  0  0  2  0  0  0  0  0  0
  2  1  1  1  0  0  0
  3  1  2  0  0  0  0
  4  5  2  0  0  0  0
  5  7  1  0  0  0  0
  6  7  2  0  0  0  0
  7  3  1  0  0  0  0
  8  5  1  1  0  0  0
  8  2  1  0  0  0  0
  8 20  1  0  0  0  0
  9 14  1  0  0  0  0
  9 10  1  0  0  0  0
 10 15  1  0  0  0  0
 11  9  2  0  0  0  0
 14  1  1  6  0  0  0
 14 12  1  0  0  0  0
 16 12  1  0  0  0  0
 16 15  1  0  0  0  0
 16 13  1  1  0  0  0
 17 20  1  0  0  0  0
 17 18  1  0  0  0  0
 20 18  1  0  0  0  0
 20 19  1  1  0  0  0
 21 24  1  0  0  0  0
 21 23  1  0  0  0  0
 23 28  1  6  0  0  0
 23  2  1  0  0  0  0
 24 22  1  6  0  0  0
 24 23  1  0  0  0  0
 25 26  2  0  0  0  0
 26 28  1  0  0  0  0
 27 26  1  0  0  0  0
 29 30  1  0  0  0  0
 30  6  1  0  0  0  0
M  END
>  <MODEL>
5

>  <REMARK>
 VINA RESULT:      -5.9      1.807      4.954
  Name = 
  5 active torsions:
  status: ('A' for Active; 'I' for Inactive)
    1  A    between atoms: C_1  and  C_22
    2  A    between atoms: C_4  and  C_23
    3  A    between atoms: C_9  and  C_21
    4  A    between atoms: C_13  and  C_30
    5  A    between atoms: C_23  and  N_25
                            x       y       z     vdW  Elec       q    Type
                         _______ _______ _______ _____ _____    ______ ____

>  <TORSDO>
F 5

$$$$
=
 OpenBabel11052417073D

 30 33  0  0  1  0  0  0  0  0999 V2000
  191.0510  173.0880  143.9680 C   0  0  0  0  0  0  0  0  0  0  0  0
  191.2930  174.0660  142.8250 C   0  0  1  0  0  3  0  0  0  0  0  0
  190.2860  173.4390  145.0090 C   0  0  0  0  0  3  0  0  0  0  0  0
  188.8270  176.5730  143.6950 O   0  0  0  0  0  0  0  0  0  0  0  0
  189.4390  175.4740  143.7630 C   0  0  0  0  0  0  0  0  0  0  0  0
  189.0250  175.1000  146.2040 C   0  0  0  0  0  3  0  0  0  0  0  0
  189.5670  174.7220  145.0410 C   0  0  0  0  0  0  0  0  0  0  0  0
  190.0330  174.8900  142.5110 C   0  0  2  0  0  3  0  0  0  0  0  0
  193.0810  171.6060  144.0290 C   0  0  0  0  0  0  0  0  0  0  0  0
  193.9370  171.4100  142.8090 C   0  0  0  0  0  2  0  0  0  0  0  0
  193.6170  171.7830  145.1140 O   0  0  0  0  0  0  0  0  0  0  0  0
  191.0040  170.8610  142.7630 C   0  0  0  0  0  2  0  0  0  0  0  0
  191.2220  170.2040  140.3820 C   0  0  0  0  0  1  0  0  0  0  0  0
  191.5770  171.6810  143.9270 C   0  0  2  0  0  3  0  0  0  0  0  0
  193.2530  170.5240  141.7720 C   0  0  0  0  0  2  0  0  0  0  0  0
  191.8400  171.0170  141.4980 C   0  0  2  0  0  3  0  0  0  0  0  0
  188.5670  174.5410  140.4030 C   0  0  0  0  0  2  0  0  0  0  0  0
  189.5220  173.5110  140.5580 O   0  0  0  0  0  0  0  0  0  0  0  0
  188.1480  173.2000  142.3980 O   0  0  0  0  0  1  0  0  0  0  0  0
  189.0030  174.0790  141.7310 C   0  0  1  0  0  0  0  0  0  0  0  0
  192.3440  176.2590  142.3880 O   0  0  0  0  0  0  0  0  0  0  0  0
  194.7180  175.9590  142.3490 C   0  0  0  0  0  1  0  0  0  0  0  0
  192.4840  175.0230  143.0360 C   0  0  2  0  0  0  0  0  0  0  0  0
  193.3700  175.4140  141.9050 C   0  0  1  0  0  3  0  0  0  0  0  0
  192.0070  177.2920  144.7230 O   0  0  0  0  0  0  0  0  0  0  0  0
  192.6840  176.3410  145.1950 C   0  0  0  0  0  0  0  0  0  0  0  0
  193.1720  176.4150  146.5970 C   0  0  0  0  0  1  0  0  0  0  0  0
  192.9830  175.1930  144.3990 N   0  0  0  0  0  2  0  0  0  0  0  0
  189.1710  177.4480  146.9530 C   0  0  0  0  0  1  0  0  0  0  0  0
  188.2520  176.3580  146.4340 C   0  0  0  0  0  2  0  0  0  0  0  0
  1  3  2  0  0  0  0
  2 23  1  0  0  0  0
  2  1  1  1  0  0  0
  3  7  1  0  0  0  0
  4  5  2  0  0  0  0
  5  7  1  0  0  0  0
  6 30  1  0  0  0  0
  7  6  2  0  0  0  0
  8  2  1  0  0  0  0
  8  5  1  1  0  0  0
  9 11  2  0  0  0  0
 10  9  1  0  0  0  0
 12 14  1  0  0  0  0
 14  1  1  6  0  0  0
 14  9  1  0  0  0  0
 15 10  1  0  0  0  0
 16 13  1  6  0  0  0
 16 15  1  0  0  0  0
 16 12  1  0  0  0  0
 17 18  1  0  0  0  0
 17 20  1  0  0  0  0
 18 20  1  0  0  0  0
 20 19  1  1  0  0  0
 20  8  1  0  0  0  0
 21 23  1  0  0  0  0
 23 28  1  1  0  0  0
 24 22  1  1  0  0  0
 24 21  1  0  0  0  0
 24 23  1  0  0  0  0
 25 26  2  0  0  0  0
 26 27  1  0  0  0  0
 28 26  1  0  0  0  0
 30 29  1  0  0  0  0
M  END
>  <MODEL>
6

>  <REMARK>
 VINA RESULT:      -5.7      2.012      5.217
  Name = 
  5 active torsions:
  status: ('A' for Active; 'I' for Inactive)
    1  A    between atoms: C_1  and  C_22
    2  A    between atoms: C_4  and  C_23
    3  A    between atoms: C_9  and  C_21
    4  A    between atoms: C_13  and  C_30
    5  A    between atoms: C_23  and  N_25
                            x       y       z     vdW  Elec       q    Type
                         _______ _______ _______ _____ _____    ______ ____

>  <TORSDO>
F 5

$$$$
=
 OpenBabel11052417073D

 30 33  0  0  1  0  0  0  0  0999 V2000
  192.6350  173.7720  144.0900 C   0  0  0  0  0  0  0  0  0  0  0  0
  193.5320  174.9080  143.6130 C   0  0  1  0  0  3  0  0  0  0  0  0
  193.1480  172.7510  144.7870 C   0  0  0  0  0  3  0  0  0  0  0  0
  196.5150  174.1010  145.5040 O   0  0  0  0  0  0  0  0  0  0  0  0
  195.3110  174.0170  145.1440 C   0  0  0  0  0  0  0  0  0  0  0  0
  195.0460  171.5890  145.6930 C   0  0  0  0  0  3  0  0  0  0  0  0
  194.5550  172.7380  145.2140 C   0  0  0  0  0  0  0  0  0  0  0  0
  194.6060  175.2540  144.6580 C   0  0  2  0  0  3  0  0  0  0  0  0
  190.6800  175.0140  143.1120 C   0  0  0  0  0  0  0  0  0  0  0  0
  190.0800  176.1990  143.8180 C   0  0  0  0  0  2  0  0  0  0  0  0
  190.8610  175.0670  141.9040 O   0  0  0  0  0  0  0  0  0  0  0  0
  190.3540  173.5510  145.1670 C   0  0  0  0  0  2  0  0  0  0  0  0
  189.3190  174.5390  147.1920 C   0  0  0  0  0  1  0  0  0  0  0  0
  191.1470  173.8000  143.8780 C   0  0  2  0  0  3  0  0  0  0  0  0
  189.2720  175.7800  145.0430 C   0  0  0  0  0  2  0  0  0  0  0  0
  190.0870  174.8460  145.9250 C   0  0  2  0  0  3  0  0  0  0  0  0
  194.5380  177.4180  146.0820 C   0  0  0  0  0  2  0  0  0  0  0  0
  193.3210  177.1960  145.4010 O   0  0  0  0  0  0  0  0  0  0  0  0
  193.3990  175.4140  146.8800 O   0  0  0  0  0  1  0  0  0  0  0  0
  194.0320  176.0620  145.8180 C   0  0  1  0  0  0  0  0  0  0  0  0
  195.4540  175.3000  142.1110 O   0  0  0  0  0  0  0  0  0  0  0  0
  194.6550  175.3020  139.8550 C   0  0  0  0  0  1  0  0  0  0  0  0
  194.2110  174.6640  142.2500 C   0  0  2  0  0  0  0  0  0  0  0  0
  194.4140  175.7750  141.2790 C   0  0  1  0  0  3  0  0  0  0  0  0
  196.5060  172.9460  142.3000 O   0  0  0  0  0  0  0  0  0  0  0  0
  195.4340  172.4810  141.8340 C   0  0  0  0  0  0  0  0  0  0  0  0
  195.3900  171.0690  141.3670 C   0  0  0  0  0  1  0  0  0  0  0  0
  194.2600  173.2910  141.7530 N   0  0  0  0  0  2  0  0  0  0  0  0
  197.2700  170.6810  145.1180 C   0  0  0  0  0  1  0  0  0  0  0  0
  196.4420  171.3780  146.1830 C   0  0  0  0  0  2  0  0  0  0  0  0
  1  3  2  0  0  0  0
  2  1  1  1  0  0  0
  2  8  1  0  0  0  0
  3  7  1  0  0  0  0
  5  7  1  0  0  0  0
  5  4  2  0  0  0  0
  6 30  1  0  0  0  0
  7  6  2  0  0  0  0
  8  5  1  1  0  0  0
  8 20  1  0  0  0  0
  9 10  1  0  0  0  0
  9 14  1  0  0  0  0
 10 15  1  0  0  0  0
 11  9  2  0  0  0  0
 12 16  1  0  0  0  0
 14  1  1  1  0  0  0
 14 12  1  0  0  0  0
 15 16  1  0  0  0  0
 16 13  1  1  0  0  0
 18 20  1  0  0  0  0
 18 17  1  0  0  0  0
 20 17  1  0  0  0  0
 20 19  1  1  0  0  0
 21 23  1  0  0  0  0
 23 28  1  6  0  0  0
 23  2  1  0  0  0  0
 24 22  1  6  0  0  0
 24 21  1  0  0  0  0
 24 23  1  0  0  0  0
 26 25  2  0  0  0  0
 27 26  1  0  0  0  0
 28 26  1  0  0  0  0
 29 30  1  0  0  0  0
M  END
>  <MODEL>
7

>  <REMARK>
 VINA RESULT:      -5.6      2.497      6.403
  Name = 
  5 active torsions:
  status: ('A' for Active; 'I' for Inactive)
    1  A    between atoms: C_1  and  C_22
    2  A    between atoms: C_4  and  C_23
    3  A    between atoms: C_9  and  C_21
    4  A    between atoms: C_13  and  C_30
    5  A    between atoms: C_23  and  N_25
                            x       y       z     vdW  Elec       q    Type
                         _______ _______ _______ _____ _____    ______ ____

>  <TORSDO>
F 5

$$$$
=
 OpenBabel11052417073D

 30 33  0  0  1  0  0  0  0  0999 V2000
  193.4200  175.8150  143.9420 C   0  0  0  0  0  0  0  0  0  0  0  0
  193.7250  174.3860  144.3720 C   0  0  1  0  0  3  0  0  0  0  0  0
  193.5380  176.1760  142.6590 C   0  0  0  0  0  3  0  0  0  0  0  0
  193.9460  172.8480  141.0990 O   0  0  0  0  0  0  0  0  0  0  0  0
  193.7120  173.7540  141.9420 C   0  0  0  0  0  0  0  0  0  0  0  0
  194.1860  175.6690  140.4010 C   0  0  0  0  0  3  0  0  0  0  0  0
  193.8520  175.1970  141.6070 C   0  0  0  0  0  0  0  0  0  0  0  0
  193.2510  173.3670  143.3210 C   0  0  2  0  0  3  0  0  0  0  0  0
  193.0420  176.4130  146.3550 C   0  0  0  0  0  0  0  0  0  0  0  0
  191.8810  175.8450  147.1230 C   0  0  0  0  0  2  0  0  0  0  0  0
  194.1430  176.4640  146.8850 O   0  0  0  0  0  0  0  0  0  0  0  0
  191.4840  177.3250  144.5620 C   0  0  0  0  0  2  0  0  0  0  0  0
  189.0420  176.9610  144.7970 C   0  0  0  0  0  1  0  0  0  0  0  0
  192.8950  176.8350  144.9130 C   0  0  2  0  0  3  0  0  0  0  0  0
  190.5580  176.4770  146.7020 C   0  0  0  0  0  2  0  0  0  0  0  0
  190.4090  176.4430  145.1880 C   0  0  2  0  0  3  0  0  0  0  0  0
  191.1870  171.9210  143.9240 C   0  0  0  0  0  2  0  0  0  0  0  0
  191.2280  173.1190  144.6710 O   0  0  0  0  0  0  0  0  0  0  0  0
  190.9070  173.8870  142.5090 O   0  0  0  0  0  1  0  0  0  0  0  0
  191.7390  173.1650  143.3650 C   0  0  1  0  0  0  0  0  0  0  0  0
  195.6350  172.8190  144.3810 O   0  0  0  0  0  0  0  0  0  0  0  0
  197.0080  173.3200  146.2760 C   0  0  0  0  0  1  0  0  0  0  0  0
  195.2050  174.1140  144.7080 C   0  0  2  0  0  0  0  0  0  0  0  0
  195.5910  173.1320  145.7590 C   0  0  1  0  0  3  0  0  0  0  0  0
  196.9520  173.9260  142.4420 O   0  0  0  0  0  0  0  0  0  0  0  0
  197.0090  174.9700  143.1420 C   0  0  0  0  0  0  0  0  0  0  0  0
  197.9390  176.0630  142.7540 C   0  0  0  0  0  1  0  0  0  0  0  0
  196.1870  175.1170  144.3010 N   0  0  0  0  0  2  0  0  0  0  0  0
  196.0280  174.8460  138.9780 C   0  0  0  0  0  1  0  0  0  0  0  0
  194.5280  174.8390  139.2060 C   0  0  0  0  0  2  0  0  0  0  0  0
  2  1  1  6  0  0  0
  2 23  1  0  0  0  0
  3  1  2  0  0  0  0
  4  5  2  0  0  0  0
  6  7  2  0  0  0  0
  7  5  1  0  0  0  0
  7  3  1  0  0  0  0
  8  5  1  6  0  0  0
  8 20  1  0  0  0  0
  8  2  1  0  0  0  0
  9 11  2  0  0  0  0
  9 10  1  0  0  0  0
 12 14  1  0  0  0  0
 12 16  1  0  0  0  0
 14  1  1  6  0  0  0
 14  9  1  0  0  0  0
 15 10  1  0  0  0  0
 16 13  1  1  0  0  0
 16 15  1  0  0  0  0
 17 18  1  0  0  0  0
 20 19  1  6  0  0  0
 20 17  1  0  0  0  0
 20 18  1  0  0  0  0
 21 23  1  0  0  0  0
 21 24  1  0  0  0  0
 23 28  1  6  0  0  0
 23 24  1  0  0  0  0
 24 22  1  6  0  0  0
 25 26  2  0  0  0  0
 26 28  1  0  0  0  0
 27 26  1  0  0  0  0
 29 30  1  0  0  0  0
 30  6  1  0  0  0  0
M  END
>  <MODEL>
8

>  <REMARK>
 VINA RESULT:      -5.6      2.779      5.874
  Name = 
  5 active torsions:
  status: ('A' for Active; 'I' for Inactive)
    1  A    between atoms: C_1  and  C_22
    2  A    between atoms: C_4  and  C_23
    3  A    between atoms: C_9  and  C_21
    4  A    between atoms: C_13  and  C_30
    5  A    between atoms: C_23  and  N_25
                            x       y       z     vdW  Elec       q    Type
                         _______ _______ _______ _____ _____    ______ ____

>  <TORSDO>
F 5

$$$$
=
 OpenBabel11052417073D

 30 33  0  0  1  0  0  0  0  0999 V2000
  188.9080  175.2270  143.2980 C   0  0  0  0  0  0  0  0  0  0  0  0
  189.4030  176.1450  144.4080 C   0  0  1  0  0  3  0  0  0  0  0  0
  187.7410  175.4710  142.6870 C   0  0  0  0  0  3  0  0  0  0  0  0
  187.0370  178.8570  143.9950 O   0  0  0  0  0  0  0  0  0  0  0  0
  187.6300  177.7820  143.7160 C   0  0  0  0  0  0  0  0  0  0  0  0
  185.7020  176.7310  142.5120 C   0  0  0  0  0  3  0  0  0  0  0  0
  186.9550  176.6790  142.9800 C   0  0  0  0  0  0  0  0  0  0  0  0
  189.0710  177.6180  144.1130 C   0  0  2  0  0  3  0  0  0  0  0  0
  189.3530  172.7540  143.3900 C   0  0  0  0  0  0  0  0  0  0  0  0
  190.1420  172.1490  144.5190 C   0  0  0  0  0  2  0  0  0  0  0  0
  188.3360  172.1960  143.0040 O   0  0  0  0  0  0  0  0  0  0  0  0
  191.2470  174.3660  142.8540 C   0  0  0  0  0  2  0  0  0  0  0  0
  193.3190  174.2760  144.2130 C   0  0  0  0  0  1  0  0  0  0  0  0
  189.7400  174.0840  142.7900 C   0  0  2  0  0  3  0  0  0  0  0  0
  191.6290  172.4680  144.4060 C   0  0  0  0  0  2  0  0  0  0  0  0
  191.8400  173.9610  144.2000 C   0  0  2  0  0  3  0  0  0  0  0  0
  191.2150  178.9370  143.4980 C   0  0  0  0  0  2  0  0  0  0  0  0
  191.2700  177.6000  143.0440 O   0  0  0  0  0  0  0  0  0  0  0  0
  189.5430  178.4870  141.7800 O   0  0  0  0  0  1  0  0  0  0  0  0
  190.0090  178.2130  143.0660 C   0  0  1  0  0  0  0  0  0  0  0  0
  189.6210  176.3840  146.8580 O   0  0  0  0  0  0  0  0  0  0  0  0
  188.9210  174.3350  147.8770 C   0  0  0  0  0  1  0  0  0  0  0  0
  188.8930  175.7850  145.8190 C   0  0  2  0  0  0  0  0  0  0  0  0
  189.7220  174.9780  146.7560 C   0  0  1  0  0  3  0  0  0  0  0  0
  187.5590  177.8700  147.2650 O   0  0  0  0  0  0  0  0  0  0  0  0
  186.8520  176.9540  146.7700 C   0  0  0  0  0  0  0  0  0  0  0  0
  185.3740  177.0060  146.9210 C   0  0  0  0  0  1  0  0  0  0  0  0
  187.4550  175.8700  146.0610 N   0  0  0  0  0  2  0  0  0  0  0  0
  184.1250  178.2460  141.3660 C   0  0  0  0  0  1  0  0  0  0  0  0
  184.7530  177.8700  142.6960 C   0  0  0  0  0  2  0  0  0  0  0  0
  2  1  1  6  0  0  0
  2 23  1  0  0  0  0
  3  7  1  0  0  0  0
  3  1  2  0  0  0  0
  5  4  2  0  0  0  0
  6 30  1  0  0  0  0
  6  7  2  0  0  0  0
  7  5  1  0  0  0  0
  8  5  1  6  0  0  0
  8  2  1  0  0  0  0
  9 10  1  0  0  0  0
 11  9  2  0  0  0  0
 12 16  1  0  0  0  0
 14 12  1  0  0  0  0
 14  1  1  1  0  0  0
 14  9  1  0  0  0  0
 15 10  1  0  0  0  0
 16 13  1  6  0  0  0
 16 15  1  0  0  0  0
 18 20  1  0  0  0  0
 18 17  1  0  0  0  0
 20 19  1  6  0  0  0
 20 17  1  0  0  0  0
 20  8  1  0  0  0  0
 23 28  1  1  0  0  0
 23 24  1  0  0  0  0
 23 21  1  0  0  0  0
 24 21  1  0  0  0  0
 24 22  1  1  0  0  0
 26 27  1  0  0  0  0
 26 25  2  0  0  0  0
 28 26  1  0  0  0  0
 29 30  1  0  0  0  0
M  END
>  <MODEL>
9

>  <REMARK>
 VINA RESULT:      -5.6      2.317      4.501
  Name = 
  5 active torsions:
  status: ('A' for Active; 'I' for Inactive)
    1  A    between atoms: C_1  and  C_22
    2  A    between atoms: C_4  and  C_23
    3  A    between atoms: C_9  and  C_21
    4  A    between atoms: C_13  and  C_30
    5  A    between atoms: C_23  and  N_25
                            x       y       z     vdW  Elec       q    Type
                         _______ _______ _______ _____ _____    ______ ____

>  <TORSDO>
F 5

$$$$
