=
 OpenBabel11052421253D

 32 38  0  0  1  0  0  0  0  0999 V2000
  192.6730  175.5840  147.2470 C   0  0  0  0  0  3  0  0  0  0  0  0
  188.2770  176.4420  144.3690 C   0  0  0  0  0  0  0  0  0  0  0  0
  185.3320  178.1750  147.8580 C   0  0  0  0  0  3  0  0  0  0  0  0
  184.4170  178.5800  146.8880 C   0  0  0  0  0  3  0  0  0  0  0  0
  187.5660  176.6320  141.9120 C   0  0  0  0  0  0  0  0  0  0  0  0
  186.5300  177.1140  141.0030 C   0  0  0  0  0  0  0  0  0  0  0  0
  190.2950  175.0750  145.0690 C   0  0  2  0  0  3  0  0  0  0  0  0
  188.9440  176.1750  146.8180 C   0  0  0  0  0  2  0  0  0  0  0  0
  184.5270  178.1090  140.4250 C   0  0  0  0  0  0  0  0  0  0  0  0
  191.1990  175.3060  147.3990 C   0  0  0  0  0  2  0  0  0  0  0  0
  186.5170  177.5460  147.4780 C   0  0  0  0  0  3  0  0  0  0  0  0
  188.0070  176.6840  145.7410 C   0  0  0  0  0  0  0  0  0  0  0  0
  186.8080  177.3140  146.1220 C   0  0  0  0  0  0  0  0  0  0  0  0
  186.1360  177.5000  143.7810 C   0  0  0  0  0  0  0  0  0  0  0  0
  185.2000  177.6770  139.1620 C   0  0  0  0  0  2  0  0  0  0  0  0
  192.7310  175.6500  144.7220 C   0  0  0  0  0  2  0  0  0  0  0  0
  190.3600  175.9600  146.3130 C   0  0  1  0  0  3  0  0  0  0  0  0
  186.4800  177.0490  139.6750 C   0  0  0  0  0  3  0  0  0  0  0  0
  191.6640  174.5700  144.6020 C   0  0  0  0  0  2  0  0  0  0  0  0
  193.3680  175.6990  146.0940 C   0  0  0  0  0  0  0  0  0  0  0  0
  184.6880  178.3570  145.5370 C   0  0  0  0  0  3  0  0  0  0  0  0
  185.8770  177.7260  145.1400 C   0  0  0  0  0  0  0  0  0  0  0  0
  185.1650  177.9350  142.7990 N   0  0  0  0  0  0  0  0  0  0  0  0
  189.6100  175.8540  143.9550 C   0  0  0  0  0  2  0  0  0  0  0  0
  188.5880  176.0530  141.4540 O   0  0  0  0  0  0  0  0  0  0  0  0
  183.4120  178.6890  140.5030 O   0  0  0  0  0  0  0  0  0  0  0  0
  187.3440  176.8520  143.3800 C   0  0  0  0  0  0  0  0  0  0  0  0
  185.3680  177.7490  141.5330 C   0  0  0  0  0  0  0  0  0  0  0  0
  195.5530  174.5560  145.6920 C   0  0  0  0  0  0  0  0  0  0  0  0
  194.8660  175.8400  146.1750 C   0  0  1  0  0  3  0  0  0  0  0  0
  195.8920  173.3940  145.8410 O   0  0  0  0  0  0  0  0  0  0  0  0
  195.4660  175.8380  144.8730 C   0  0  0  0  0  2  0  0  0  0  0  0
  1 10  1  0  0  0  0
  2 12  1  0  0  0  0
  4  3  1  0  0  0  0
  5 27  1  0  0  0  0
  6 28  1  0  0  0  0
  6  5  1  0  0  0  0
  7 24  1  6  0  0  0
  7 17  1  0  0  0  0
  9 26  2  0  0  0  0
  9 28  1  0  0  0  0
 11  3  2  0  0  0  0
 12 13  2  0  0  0  0
 12  8  1  0  0  0  0
 13 11  1  0  0  0  0
 14 22  2  0  0  0  0
 15 18  1  0  0  0  0
 15  9  1  0  0  0  0
 16 20  1  0  0  0  0
 17  8  1  1  0  0  0
 17 10  1  0  0  0  0
 18  6  2  0  0  0  0
 19 16  1  0  0  0  0
 19  7  1  0  0  0  0
 20  1  2  0  0  0  0
 21  4  2  0  0  0  0
 22 21  1  0  0  0  0
 22 13  1  0  0  0  0
 23 14  1  0  0  0  0
 24  2  1  0  0  0  0
 25  5  2  0  0  0  0
 27 14  1  0  0  0  0
 27  2  2  0  0  0  0
 28 23  2  0  0  0  0
 29 31  2  0  0  0  0
 29 30  1  0  0  0  0
 30 20  1  6  0  0  0
 32 29  1  0  0  0  0
 32 30  1  0  0  0  0
M  END
>  <MODEL>
1

>  <REMARK>
 VINA RESULT:     -10.0      0.000      0.000
  Name = 
  1 active torsions:
  status: ('A' for Active; 'I' for Inactive)
    1  A    between atoms: C_10  and  C_24
                            x       y       z     vdW  Elec       q    Type
                         _______ _______ _______ _____ _____    ______ ____

>  <TORSDO>
F 1

$$$$
=
 OpenBabel11052421253D

 32 38  0  0  1  0  0  0  0  0999 V2000
  191.2620  172.5570  139.6440 C   0  0  0  0  0  3  0  0  0  0  0  0
  188.6950  175.1440  143.5250 C   0  0  0  0  0  0  0  0  0  0  0  0
  192.2080  175.2390  146.9170 C   0  0  0  0  0  3  0  0  0  0  0  0
  191.4670  176.1560  147.6620 C   0  0  0  0  0  3  0  0  0  0  0  0
  186.5940  176.5780  143.8490 C   0  0  0  0  0  0  0  0  0  0  0  0
  185.9290  177.5420  144.7210 C   0  0  0  0  0  0  0  0  0  0  0  0
  188.8550  173.4150  141.6770 C   0  0  2  0  0  3  0  0  0  0  0  0
  190.7470  173.6510  143.2470 C   0  0  0  0  0  2  0  0  0  0  0  0
  185.6900  178.8870  146.5840 C   0  0  0  0  0  0  0  0  0  0  0  0
  191.0800  172.3890  141.1320 C   0  0  0  0  0  2  0  0  0  0  0  0
  191.7090  174.7610  145.7050 C   0  0  0  0  0  3  0  0  0  0  0  0
  189.9630  174.7110  143.9940 C   0  0  0  0  0  0  0  0  0  0  0  0
  190.4620  175.1910  145.2190 C   0  0  0  0  0  0  0  0  0  0  0  0
  188.4620  176.5610  145.5220 C   0  0  0  0  0  0  0  0  0  0  0  0
  184.4690  179.0610  145.7390 C   0  0  0  0  0  2  0  0  0  0  0  0
  189.1310  173.8400  139.2010 C   0  0  0  0  0  2  0  0  0  0  0  0
  190.3730  173.5700  141.7770 C   0  0  1  0  0  3  0  0  0  0  0  0
  184.7490  178.1380  144.5700 C   0  0  0  0  0  3  0  0  0  0  0  0
  188.3650  173.0680  140.2670 C   0  0  0  0  0  2  0  0  0  0  0  0
  190.4100  173.1490  138.7790 C   0  0  0  0  0  0  0  0  0  0  0  0
  190.2270  176.5940  147.1950 C   0  0  0  0  0  3  0  0  0  0  0  0
  189.7130  176.1200  145.9770 C   0  0  0  0  0  0  0  0  0  0  0  0
  187.7200  177.5150  146.3190 N   0  0  0  0  0  0  0  0  0  0  0  0
  188.2040  174.7020  142.1620 C   0  0  0  0  0  2  0  0  0  0  0  0
  186.0320  176.1970  142.7870 O   0  0  0  0  0  0  0  0  0  0  0  0
  185.9140  179.4630  147.6810 O   0  0  0  0  0  0  0  0  0  0  0  0
  187.9380  176.0740  144.2850 C   0  0  0  0  0  0  0  0  0  0  0  0
  186.5630  177.9510  145.9310 C   0  0  0  0  0  0  0  0  0  0  0  0
  189.9210  171.9620  136.6360 C   0  0  0  0  0  0  0  0  0  0  0  0
  190.7260  173.0820  137.3080 C   0  0  1  0  0  3  0  0  0  0  0  0
  189.7010  170.7860  136.3990 O   0  0  0  0  0  0  0  0  0  0  0  0
  189.5930  173.4450  136.5080 C   0  0  0  0  0  2  0  0  0  0  0  0
  1 10  1  0  0  0  0
  2 12  2  0  0  0  0
  2 27  1  0  0  0  0
  3  4  1  0  0  0  0
  5 27  1  0  0  0  0
  5  6  1  0  0  0  0
  6 28  1  0  0  0  0
  7 19  1  6  0  0  0
  7 17  1  0  0  0  0
  7 24  1  0  0  0  0
  8 12  1  0  0  0  0
  9 26  2  0  0  0  0
 11  3  2  0  0  0  0
 12 13  1  0  0  0  0
 13 11  1  0  0  0  0
 13 22  2  0  0  0  0
 14 22  1  0  0  0  0
 14 23  1  0  0  0  0
 15  9  1  0  0  0  0
 16 19  1  0  0  0  0
 17 10  1  1  0  0  0
 17  8  1  0  0  0  0
 18  6  2  0  0  0  0
 18 15  1  0  0  0  0
 20 16  1  0  0  0  0
 20  1  2  0  0  0  0
 21  4  2  0  0  0  0
 22 21  1  0  0  0  0
 24  2  1  0  0  0  0
 25  5  2  0  0  0  0
 27 14  2  0  0  0  0
 28 23  2  0  0  0  0
 28  9  1  0  0  0  0
 29 30  1  0  0  0  0
 30 20  1  1  0  0  0
 31 29  2  0  0  0  0
 32 29  1  0  0  0  0
 32 30  1  0  0  0  0
M  END
>  <MODEL>
2

>  <REMARK>
 VINA RESULT:      -9.4      3.583      6.354
  Name = 
  1 active torsions:
  status: ('A' for Active; 'I' for Inactive)
    1  A    between atoms: C_10  and  C_24
                            x       y       z     vdW  Elec       q    Type
                         _______ _______ _______ _____ _____    ______ ____

>  <TORSDO>
F 1

$$$$
=
 OpenBabel11052421253D

 32 38  0  0  1  0  0  0  0  0999 V2000
  187.7380  176.7750  146.8290 C   0  0  0  0  0  3  0  0  0  0  0  0
  189.6730  174.3750  142.4880 C   0  0  0  0  0  0  0  0  0  0  0  0
  193.1050  171.5780  144.5520 C   0  0  0  0  0  3  0  0  0  0  0  0
  193.2560  170.8770  143.3570 C   0  0  0  0  0  3  0  0  0  0  0  0
  189.0370  173.9820  140.0350 C   0  0  0  0  0  0  0  0  0  0  0  0
  189.2890  173.1630  138.8530 C   0  0  0  0  0  0  0  0  0  0  0  0
  188.8310  176.3900  143.7760 C   0  0  2  0  0  3  0  0  0  0  0  0
  190.3690  174.8220  144.9030 C   0  0  0  0  0  2  0  0  0  0  0  0
  190.3060  171.4950  137.6200 C   0  0  0  0  0  0  0  0  0  0  0  0
  189.1050  176.4690  146.2700 C   0  0  0  0  0  2  0  0  0  0  0  0
  192.1790  172.6180  144.6380 C   0  0  0  0  0  3  0  0  0  0  0  0
  190.4520  174.0190  143.6210 C   0  0  0  0  0  0  0  0  0  0  0  0
  191.3890  172.9730  143.5300 C   0  0  0  0  0  0  0  0  0  0  0  0
  190.7770  172.5970  141.1960 C   0  0  0  0  0  0  0  0  0  0  0  0
  189.3160  172.1780  136.7300 C   0  0  0  0  0  2  0  0  0  0  0  0
  186.4880  176.7910  144.6340 C   0  0  0  0  0  2  0  0  0  0  0  0
  189.0550  175.5690  145.0460 C   0  0  1  0  0  3  0  0  0  0  0  0
  188.7320  173.2340  137.6470 C   0  0  0  0  0  3  0  0  0  0  0  0
  187.6720  177.3870  143.8860 C   0  0  0  0  0  2  0  0  0  0  0  0
  186.5940  176.9570  146.1350 C   0  0  0  0  0  0  0  0  0  0  0  0
  192.4800  171.2150  142.2470 C   0  0  0  0  0  3  0  0  0  0  0  0
  191.5450  172.2600  142.3190 C   0  0  0  0  0  0  0  0  0  0  0  0
  190.9570  171.8470  139.9700 N   0  0  0  0  0  0  0  0  0  0  0  0
  188.5990  175.4340  142.6160 C   0  0  0  0  0  2  0  0  0  0  0  0
  188.1920  174.9160  139.9870 O   0  0  0  0  0  0  0  0  0  0  0  0
  191.0500  170.5340  137.2910 O   0  0  0  0  0  0  0  0  0  0  0  0
  189.8290  173.6640  141.2690 C   0  0  0  0  0  0  0  0  0  0  0  0
  190.2630  172.1230  138.9110 C   0  0  0  0  0  0  0  0  0  0  0  0
  185.4650  178.8780  147.2650 C   0  0  0  0  0  0  0  0  0  0  0  0
  185.3650  177.3940  146.8880 C   0  0  1  0  0  3  0  0  0  0  0  0
  185.9120  179.7910  147.9400 O   0  0  0  0  0  0  0  0  0  0  0  0
  184.5950  178.3410  146.1350 C   0  0  0  0  0  2  0  0  0  0  0  0
  2 24  1  0  0  0  0
  2 12  1  0  0  0  0
  3 11  2  0  0  0  0
  4  3  1  0  0  0  0
  5 27  1  0  0  0  0
  6 28  1  0  0  0  0
  6  5  1  0  0  0  0
  7 24  1  6  0  0  0
  7 19  1  0  0  0  0
  7 17  1  0  0  0  0
  9 28  1  0  0  0  0
 10  1  1  0  0  0  0
 12  8  1  0  0  0  0
 13 12  2  0  0  0  0
 13 11  1  0  0  0  0
 14 27  1  0  0  0  0
 14 22  2  0  0  0  0
 15  9  1  0  0  0  0
 15 18  1  0  0  0  0
 16 20  1  0  0  0  0
 17  8  1  6  0  0  0
 17 10  1  0  0  0  0
 18  6  2  0  0  0  0
 19 16  1  0  0  0  0
 20  1  2  0  0  0  0
 21 22  1  0  0  0  0
 21  4  2  0  0  0  0
 22 13  1  0  0  0  0
 23 14  1  0  0  0  0
 25  5  2  0  0  0  0
 26  9  2  0  0  0  0
 27  2  2  0  0  0  0
 28 23  2  0  0  0  0
 29 31  2  0  0  0  0
 30 20  1  6  0  0  0
 30 29  1  0  0  0  0
 32 30  1  0  0  0  0
 32 29  1  0  0  0  0
M  END
>  <MODEL>
3

>  <REMARK>
 VINA RESULT:      -8.5      3.944      7.505
  Name = 
  1 active torsions:
  status: ('A' for Active; 'I' for Inactive)
    1  A    between atoms: C_10  and  C_24
                            x       y       z     vdW  Elec       q    Type
                         _______ _______ _______ _____ _____    ______ ____

>  <TORSDO>
F 1

$$$$
=
 OpenBabel11052421253D

 32 38  0  0  1  0  0  0  0  0999 V2000
  182.4570  178.9580  143.1100 C   0  0  0  0  0  3  0  0  0  0  0  0
  187.0860  176.4030  142.4790 C   0  0  0  0  0  0  0  0  0  0  0  0
  188.4810  176.0600  147.1470 C   0  0  0  0  0  3  0  0  0  0  0  0
  189.4840  175.1620  146.7840 C   0  0  0  0  0  3  0  0  0  0  0  0
  188.3400  175.0630  140.6890 C   0  0  0  0  0  0  0  0  0  0  0  0
  189.4210  174.1100  140.4490 C   0  0  0  0  0  0  0  0  0  0  0  0
  185.3700  178.1660  141.8650 C   0  0  2  0  0  3  0  0  0  0  0  0
  185.8940  177.8030  144.2500 C   0  0  0  0  0  2  0  0  0  0  0  0
  191.1860  172.7340  141.0210 C   0  0  0  0  0  0  0  0  0  0  0  0
  183.8620  179.0980  143.6420 C   0  0  0  0  0  2  0  0  0  0  0  0
  187.6350  176.5900  146.1740 C   0  0  0  0  0  3  0  0  0  0  0  0
  186.9190  176.7640  143.8420 C   0  0  0  0  0  0  0  0  0  0  0  0
  187.7770  176.2310  144.8210 C   0  0  0  0  0  0  0  0  0  0  0  0
  188.9660  174.9510  143.1150 C   0  0  0  0  0  0  0  0  0  0  0  0
  190.9970  172.6380  139.5410 C   0  0  0  0  0  2  0  0  0  0  0  0
  183.0450  177.7890  140.9490 C   0  0  0  0  0  2  0  0  0  0  0  0
  184.7610  177.9370  143.2480 C   0  0  1  0  0  3  0  0  0  0  0  0
  189.8300  173.5750  139.3020 C   0  0  0  0  0  3  0  0  0  0  0  0
  184.3440  178.5700  140.8010 C   0  0  0  0  0  2  0  0  0  0  0  0
  182.0810  178.4270  141.9260 C   0  0  0  0  0  0  0  0  0  0  0  0
  189.6400  174.7940  145.4470 C   0  0  0  0  0  3  0  0  0  0  0  0
  188.7950  175.3210  144.4570 C   0  0  0  0  0  0  0  0  0  0  0  0
  190.0160  174.0140  142.7720 N   0  0  0  0  0  0  0  0  0  0  0  0
  186.1010  176.9000  141.4420 C   0  0  0  0  0  2  0  0  0  0  0  0
  187.6550  175.4960  139.7240 O   0  0  0  0  0  0  0  0  0  0  0  0
  192.0570  172.1220  141.6930 O   0  0  0  0  0  0  0  0  0  0  0  0
  188.1090  175.4910  142.1080 C   0  0  0  0  0  0  0  0  0  0  0  0
  190.2040  173.6430  141.5450 C   0  0  0  0  0  0  0  0  0  0  0  0
  180.3980  179.7020  140.5900 C   0  0  0  0  0  0  0  0  0  0  0  0
  180.6290  178.5140  141.5350 C   0  0  1  0  0  3  0  0  0  0  0  0
  180.2840  180.8960  140.3690 O   0  0  0  0  0  0  0  0  0  0  0  0
  180.4440  178.2470  140.1380 C   0  0  0  0  0  2  0  0  0  0  0  0
  1 10  1  0  0  0  0
  2 12  1  0  0  0  0
  4  3  1  0  0  0  0
  5 27  1  0  0  0  0
  6  5  1  0  0  0  0
  6 28  1  0  0  0  0
  7 19  1  6  0  0  0
  7 17  1  0  0  0  0
  9 28  1  0  0  0  0
  9 26  2  0  0  0  0
 11  3  2  0  0  0  0
 12  8  1  0  0  0  0
 12 13  2  0  0  0  0
 13 11  1  0  0  0  0
 14 22  2  0  0  0  0
 15  9  1  0  0  0  0
 16 20  1  0  0  0  0
 17 10  1  1  0  0  0
 17  8  1  0  0  0  0
 18 15  1  0  0  0  0
 18  6  2  0  0  0  0
 19 16  1  0  0  0  0
 20  1  2  0  0  0  0
 21  4  2  0  0  0  0
 22 13  1  0  0  0  0
 22 21  1  0  0  0  0
 23 14  1  0  0  0  0
 24  7  1  0  0  0  0
 24  2  1  0  0  0  0
 25  5  2  0  0  0  0
 27  2  2  0  0  0  0
 27 14  1  0  0  0  0
 28 23  2  0  0  0  0
 29 30  1  0  0  0  0
 30 20  1  6  0  0  0
 31 29  2  0  0  0  0
 32 29  1  0  0  0  0
 32 30  1  0  0  0  0
M  END
>  <MODEL>
4

>  <REMARK>
 VINA RESULT:      -8.5      2.956      8.496
  Name = 
  1 active torsions:
  status: ('A' for Active; 'I' for Inactive)
    1  A    between atoms: C_10  and  C_24
                            x       y       z     vdW  Elec       q    Type
                         _______ _______ _______ _____ _____    ______ ____

>  <TORSDO>
F 1

$$$$
=
 OpenBabel11052421253D

 32 38  0  0  1  0  0  0  0  0999 V2000
  185.9290  176.6110  143.0270 C   0  0  0  0  0  3  0  0  0  0  0  0
  191.0680  175.2860  142.5980 C   0  0  0  0  0  0  0  0  0  0  0  0
  190.8270  172.2840  138.7520 C   0  0  0  0  0  3  0  0  0  0  0  0
  192.2170  172.3030  138.6470 C   0  0  0  0  0  3  0  0  0  0  0  0
  193.3580  176.0800  143.4330 C   0  0  0  0  0  0  0  0  0  0  0  0
  194.8000  176.0180  143.2050 C   0  0  0  0  0  0  0  0  0  0  0  0
  188.9450  175.7260  143.9130 C   0  0  2  0  0  3  0  0  0  0  0  0
  188.7940  174.4250  141.8200 C   0  0  0  0  0  2  0  0  0  0  0  0
  196.7420  175.3450  142.1500 C   0  0  0  0  0  0  0  0  0  0  0  0
  186.7150  175.3390  142.8290 C   0  0  0  0  0  2  0  0  0  0  0  0
  190.1940  173.0200  139.7540 C   0  0  0  0  0  3  0  0  0  0  0  0
  190.2990  174.5310  141.6740 C   0  0  0  0  0  0  0  0  0  0  0  0
  190.9400  173.7860  140.6670 C   0  0  0  0  0  0  0  0  0  0  0  0
  193.1210  174.5490  141.4600 C   0  0  0  0  0  0  0  0  0  0  0  0
  197.1280  176.2440  143.2820 C   0  0  0  0  0  2  0  0  0  0  0  0
  187.7430  177.9320  144.1880 C   0  0  0  0  0  2  0  0  0  0  0  0
  188.1940  175.5900  142.5880 C   0  0  1  0  0  3  0  0  0  0  0  0
  195.7830  176.6060  143.8810 C   0  0  0  0  0  3  0  0  0  0  0  0
  188.2830  176.6970  144.8960 C   0  0  0  0  0  2  0  0  0  0  0  0
  186.3420  177.7370  143.6490 C   0  0  0  0  0  0  0  0  0  0  0  0
  192.9740  173.0570  139.5460 C   0  0  0  0  0  3  0  0  0  0  0  0
  192.3500  173.8010  140.5590 C   0  0  0  0  0  0  0  0  0  0  0  0
  194.5620  174.5470  141.3230 N   0  0  0  0  0  0  0  0  0  0  0  0
  190.3720  176.1630  143.6170 C   0  0  0  0  0  2  0  0  0  0  0  0
  192.9000  176.7600  144.3900 O   0  0  0  0  0  0  0  0  0  0  0  0
  197.5370  174.7860  141.3510 O   0  0  0  0  0  0  0  0  0  0  0  0
  192.4840  175.3020  142.4950 C   0  0  0  0  0  0  0  0  0  0  0  0
  195.3100  175.2290  142.1320 C   0  0  0  0  0  0  0  0  0  0  0  0
  184.7150  178.7440  145.2550 C   0  0  0  0  0  0  0  0  0  0  0  0
  185.3420  178.8440  143.8580 C   0  0  1  0  0  3  0  0  0  0  0  0
  183.9580  178.2310  146.0620 O   0  0  0  0  0  0  0  0  0  0  0  0
  185.7780  179.7640  144.8670 C   0  0  0  0  0  2  0  0  0  0  0  0
  1 20  2  0  0  0  0
  2 24  1  0  0  0  0
  3 11  1  0  0  0  0
  4  3  2  0  0  0  0
  4 21  1  0  0  0  0
  5 25  2  0  0  0  0
  6  5  1  0  0  0  0
  6 18  2  0  0  0  0
  7 24  1  6  0  0  0
  7 19  1  0  0  0  0
  9 15  1  0  0  0  0
 10  1  1  0  0  0  0
 11 13  2  0  0  0  0
 12  8  1  0  0  0  0
 12  2  2  0  0  0  0
 13 12  1  0  0  0  0
 14 27  2  0  0  0  0
 15 18  1  0  0  0  0
 16 19  1  0  0  0  0
 17  8  1  1  0  0  0
 17 10  1  0  0  0  0
 17  7  1  0  0  0  0
 20 16  1  0  0  0  0
 21 22  2  0  0  0  0
 22 13  1  0  0  0  0
 22 14  1  0  0  0  0
 23 14  1  0  0  0  0
 23 28  2  0  0  0  0
 26  9  2  0  0  0  0
 27  2  1  0  0  0  0
 27  5  1  0  0  0  0
 28  9  1  0  0  0  0
 28  6  1  0  0  0  0
 29 31  2  0  0  0  0
 30 20  1  1  0  0  0
 30 32  1  0  0  0  0
 30 29  1  0  0  0  0
 32 29  1  0  0  0  0
M  END
>  <MODEL>
5

>  <REMARK>
 VINA RESULT:      -8.3      3.668      8.972
  Name = 
  1 active torsions:
  status: ('A' for Active; 'I' for Inactive)
    1  A    between atoms: C_10  and  C_24
                            x       y       z     vdW  Elec       q    Type
                         _______ _______ _______ _____ _____    ______ ____

>  <TORSDO>
F 1

$$$$
=
 OpenBabel11052421253D

 32 38  0  0  1  0  0  0  0  0999 V2000
  193.8330  174.3770  143.9000 C   0  0  0  0  0  3  0  0  0  0  0  0
  188.7310  175.7890  143.3290 C   0  0  0  0  0  0  0  0  0  0  0  0
  187.4420  176.1390  148.0270 C   0  0  0  0  0  3  0  0  0  0  0  0
  186.2520  176.7640  147.6570 C   0  0  0  0  0  3  0  0  0  0  0  0
  187.1510  176.6880  141.5200 C   0  0  0  0  0  0  0  0  0  0  0  0
  185.8770  177.3580  141.2740 C   0  0  0  0  0  0  0  0  0  0  0  0
  190.7790  174.4130  142.7450 C   0  0  2  0  0  3  0  0  0  0  0  0
  190.2620  174.8160  145.1250 C   0  0  0  0  0  2  0  0  0  0  0  0
  183.8670  178.3440  141.8420 C   0  0  0  0  0  0  0  0  0  0  0  0
  192.5130  173.9660  144.5030 C   0  0  0  0  0  2  0  0  0  0  0  0
  188.3550  175.7430  147.0500 C   0  0  0  0  0  3  0  0  0  0  0  0
  189.0180  175.5710  144.7020 C   0  0  0  0  0  0  0  0  0  0  0  0
  188.0930  175.9660  145.6860 C   0  0  0  0  0  0  0  0  0  0  0  0
  186.5930  176.8280  143.9620 C   0  0  0  0  0  0  0  0  0  0  0  0
  183.9820  178.3750  140.3510 C   0  0  0  0  0  2  0  0  0  0  0  0
  192.9300  175.2330  141.7010 C   0  0  0  0  0  2  0  0  0  0  0  0
  191.3640  174.8680  144.0820 C   0  0  1  0  0  3  0  0  0  0  0  0
  185.3220  177.7070  140.1160 C   0  0  0  0  0  3  0  0  0  0  0  0
  191.8360  174.1740  141.6610 C   0  0  0  0  0  2  0  0  0  0  0  0
  194.0430  174.8940  142.6690 C   0  0  0  0  0  0  0  0  0  0  0  0
  185.9760  176.9930  146.3080 C   0  0  0  0  0  3  0  0  0  0  0  0
  186.8850  176.6000  145.3140 C   0  0  0  0  0  0  0  0  0  0  0  0
  185.3490  177.4810  143.6120 N   0  0  0  0  0  0  0  0  0  0  0  0
  189.7690  175.4520  142.2800 C   0  0  0  0  0  2  0  0  0  0  0  0
  187.8850  176.3520  140.5530 O   0  0  0  0  0  0  0  0  0  0  0  0
  182.9020  178.7920  142.5150 O   0  0  0  0  0  0  0  0  0  0  0  0
  187.5180  176.4220  142.9510 C   0  0  0  0  0  0  0  0  0  0  0  0
  185.0440  177.7140  142.3740 C   0  0  0  0  0  0  0  0  0  0  0  0
  196.2060  176.0290  143.1910 C   0  0  0  0  0  0  0  0  0  0  0  0
  195.4640  175.1050  142.2160 C   0  0  1  0  0  3  0  0  0  0  0  0
  196.4450  177.1280  143.6630 O   0  0  0  0  0  0  0  0  0  0  0  0
  196.3990  174.5190  143.1310 C   0  0  0  0  0  2  0  0  0  0  0  0
  1 10  1  0  0  0  0
  2 12  1  0  0  0  0
  4  3  1  0  0  0  0
  5 27  1  0  0  0  0
  6  5  1  0  0  0  0
  6 28  1  0  0  0  0
  7 19  1  6  0  0  0
  7 17  1  0  0  0  0
  9 28  1  0  0  0  0
  9 26  2  0  0  0  0
 11  3  2  0  0  0  0
 12  8  1  0  0  0  0
 12 13  2  0  0  0  0
 13 11  1  0  0  0  0
 14 22  2  0  0  0  0
 15  9  1  0  0  0  0
 16 20  1  0  0  0  0
 17 10  1  1  0  0  0
 17  8  1  0  0  0  0
 18 15  1  0  0  0  0
 18  6  2  0  0  0  0
 19 16  1  0  0  0  0
 20  1  2  0  0  0  0
 21  4  2  0  0  0  0
 22 13  1  0  0  0  0
 22 21  1  0  0  0  0
 23 14  1  0  0  0  0
 24  7  1  0  0  0  0
 24  2  1  0  0  0  0
 25  5  2  0  0  0  0
 27  2  2  0  0  0  0
 27 14  1  0  0  0  0
 28 23  2  0  0  0  0
 29 31  2  0  0  0  0
 30 20  1  1  0  0  0
 30 32  1  0  0  0  0
 30 29  1  0  0  0  0
 32 29  1  0  0  0  0
M  END
>  <MODEL>
6

>  <REMARK>
 VINA RESULT:      -8.2      1.745      2.403
  Name = 
  1 active torsions:
  status: ('A' for Active; 'I' for Inactive)
    1  A    between atoms: C_10  and  C_24
                            x       y       z     vdW  Elec       q    Type
                         _______ _______ _______ _____ _____    ______ ____

>  <TORSDO>
F 1

$$$$
=
 OpenBabel11052421253D

 32 38  0  0  1  0  0  0  0  0999 V2000
  187.0430  178.4170  144.0640 C   0  0  0  0  0  3  0  0  0  0  0  0
  190.4760  174.3980  143.4210 C   0  0  0  0  0  0  0  0  0  0  0  0
  194.1680  176.0180  146.1770 C   0  0  0  0  0  3  0  0  0  0  0  0
  194.7740  174.7640  146.1060 C   0  0  0  0  0  3  0  0  0  0  0  0
  190.5000  171.9740  142.5830 C   0  0  0  0  0  0  0  0  0  0  0  0
  191.2360  170.7130  142.5980 C   0  0  0  0  0  0  0  0  0  0  0  0
  188.7760  176.0810  142.5790 C   0  0  2  0  0  3  0  0  0  0  0  0
  190.4970  176.8340  144.1820 C   0  0  0  0  0  2  0  0  0  0  0  0
  192.9700  169.2890  143.1460 C   0  0  0  0  0  0  0  0  0  0  0  0
  188.5150  178.2760  143.7670 C   0  0  0  0  0  2  0  0  0  0  0  0
  192.9510  176.2410  145.5330 C   0  0  0  0  0  3  0  0  0  0  0  0
  191.0910  175.4400  144.1620 C   0  0  0  0  0  0  0  0  0  0  0  0
  192.3210  175.2140  144.8070 C   0  0  0  0  0  0  0  0  0  0  0  0
  192.3380  172.9040  144.0140 C   0  0  0  0  0  0  0  0  0  0  0  0
  192.0040  168.5220  142.3000 C   0  0  0  0  0  2  0  0  0  0  0  0
  186.3130  176.1820  143.1380 C   0  0  0  0  0  2  0  0  0  0  0  0
  189.0080  176.8430  143.8840 C   0  0  1  0  0  3  0  0  0  0  0  0
  190.9340  169.5570  142.0130 C   0  0  0  0  0  3  0  0  0  0  0  0
  187.3540  176.2260  142.0270 C   0  0  0  0  0  2  0  0  0  0  0  0
  186.0620  177.5370  143.7650 C   0  0  0  0  0  0  0  0  0  0  0  0
  194.1630  173.7340  145.3900 C   0  0  0  0  0  3  0  0  0  0  0  0
  192.9390  173.9440  144.7370 C   0  0  0  0  0  0  0  0  0  0  0  0
  192.9930  171.6140  143.9610 N   0  0  0  0  0  0  0  0  0  0  0  0
  189.1070  174.6140  142.8100 C   0  0  0  0  0  2  0  0  0  0  0  0
  189.4180  172.0660  141.9420 O   0  0  0  0  0  0  0  0  0  0  0  0
  194.0400  168.8380  143.6320 O   0  0  0  0  0  0  0  0  0  0  0  0
  191.0940  173.1220  143.3440 C   0  0  0  0  0  0  0  0  0  0  0  0
  192.4690  170.6260  143.3080 C   0  0  0  0  0  0  0  0  0  0  0  0
  184.4420  178.2900  145.5100 C   0  0  0  0  0  0  0  0  0  0  0  0
  184.6360  177.9420  144.0280 C   0  0  1  0  0  3  0  0  0  0  0  0
  184.3190  177.9790  146.6830 O   0  0  0  0  0  0  0  0  0  0  0  0
  184.5410  179.3250  144.3960 C   0  0  0  0  0  2  0  0  0  0  0  0
  2 12  1  0  0  0  0
  4  3  1  0  0  0  0
  5  6  1  0  0  0  0
  5 27  1  0  0  0  0
  6 28  1  0  0  0  0
  7 19  1  1  0  0  0
  7 24  1  0  0  0  0
  7 17  1  0  0  0  0
  9 28  1  0  0  0  0
  9 26  2  0  0  0  0
 10  1  1  0  0  0  0
 11  3  2  0  0  0  0
 12  8  1  0  0  0  0
 12 13  2  0  0  0  0
 13 11  1  0  0  0  0
 14 22  2  0  0  0  0
 15  9  1  0  0  0  0
 16 20  1  0  0  0  0
 17 10  1  6  0  0  0
 17  8  1  0  0  0  0
 18 15  1  0  0  0  0
 18  6  2  0  0  0  0
 19 16  1  0  0  0  0
 20  1  2  0  0  0  0
 21  4  2  0  0  0  0
 22 13  1  0  0  0  0
 22 21  1  0  0  0  0
 23 14  1  0  0  0  0
 24  2  1  0  0  0  0
 25  5  2  0  0  0  0
 27  2  2  0  0  0  0
 27 14  1  0  0  0  0
 28 23  2  0  0  0  0
 29 31  2  0  0  0  0
 30 20  1  1  0  0  0
 30 32  1  0  0  0  0
 30 29  1  0  0  0  0
 32 29  1  0  0  0  0
M  END
>  <MODEL>
7

>  <REMARK>
 VINA RESULT:      -8.2      3.455      8.438
  Name = 
  1 active torsions:
  status: ('A' for Active; 'I' for Inactive)
    1  A    between atoms: C_10  and  C_24
                            x       y       z     vdW  Elec       q    Type
                         _______ _______ _______ _____ _____    ______ ____

>  <TORSDO>
F 1

$$$$
=
 OpenBabel11052421253D

 32 38  0  0  1  0  0  0  0  0999 V2000
  188.3460  177.5410  146.8150 C   0  0  0  0  0  3  0  0  0  0  0  0
  190.3320  174.3140  143.0740 C   0  0  0  0  0  0  0  0  0  0  0  0
  194.1760  172.5160  145.4920 C   0  0  0  0  0  3  0  0  0  0  0  0
  194.3490  171.5490  144.5030 C   0  0  0  0  0  3  0  0  0  0  0  0
  189.6240  173.2370  140.8580 C   0  0  0  0  0  0  0  0  0  0  0  0
  189.9120  172.1710  139.9030 C   0  0  0  0  0  0  0  0  0  0  0  0
  189.3200  176.4950  143.8780 C   0  0  2  0  0  3  0  0  0  0  0  0
  191.0910  175.4390  145.2360 C   0  0  0  0  0  2  0  0  0  0  0  0
  191.0570  170.3550  139.0500 C   0  0  0  0  0  0  0  0  0  0  0  0
  189.7100  177.2430  146.2420 C   0  0  0  0  0  2  0  0  0  0  0  0
  193.1380  173.4410  145.3880 C   0  0  0  0  0  3  0  0  0  0  0  0
  191.2050  174.3450  144.1940 C   0  0  0  0  0  0  0  0  0  0  0  0
  192.2550  173.4140  144.2940 C   0  0  0  0  0  0  0  0  0  0  0  0
  191.5740  172.3860  142.1850 C   0  0  0  0  0  0  0  0  0  0  0  0
  189.9490  170.6780  138.1000 C   0  0  0  0  0  2  0  0  0  0  0  0
  186.9920  176.8590  144.7940 C   0  0  0  0  0  2  0  0  0  0  0  0
  189.7050  176.0570  145.2920 C   0  0  1  0  0  3  0  0  0  0  0  0
  189.2890  171.8690  138.7660 C   0  0  0  0  0  3  0  0  0  0  0  0
  188.0570  177.3610  143.8270 C   0  0  0  0  0  2  0  0  0  0  0  0
  187.1540  177.4180  146.1910 C   0  0  0  0  0  0  0  0  0  0  0  0
  193.4830  171.5070  143.4090 C   0  0  0  0  0  3  0  0  0  0  0  0
  192.4330  172.4320  143.2920 C   0  0  0  0  0  0  0  0  0  0  0  0
  191.7800  171.3680  141.1770 N   0  0  0  0  0  0  0  0  0  0  0  0
  189.1450  175.2530  143.0180 C   0  0  0  0  0  2  0  0  0  0  0  0
  188.6700  174.0340  140.6450 O   0  0  0  0  0  0  0  0  0  0  0  0
  191.8940  169.4240  138.9140 O   0  0  0  0  0  0  0  0  0  0  0  0
  190.5090  173.3320  142.0640 C   0  0  0  0  0  0  0  0  0  0  0  0
  191.0050  171.2870  140.1410 C   0  0  0  0  0  0  0  0  0  0  0  0
  184.9470  178.5550  145.9150 C   0  0  0  0  0  0  0  0  0  0  0  0
  185.9210  177.9050  146.9070 C   0  0  1  0  0  3  0  0  0  0  0  0
  184.5990  179.4720  145.1910 O   0  0  0  0  0  0  0  0  0  0  0  0
  184.7580  177.1660  146.5130 C   0  0  0  0  0  2  0  0  0  0  0  0
  2 12  1  0  0  0  0
  4  3  1  0  0  0  0
  5 27  1  0  0  0  0
  6 28  1  0  0  0  0
  6  5  1  0  0  0  0
  7 24  1  6  0  0  0
  7 17  1  0  0  0  0
  9 28  1  0  0  0  0
 10  1  1  0  0  0  0
 11  3  2  0  0  0  0
 12 13  2  0  0  0  0
 12  8  1  0  0  0  0
 13 11  1  0  0  0  0
 14 22  2  0  0  0  0
 15 18  1  0  0  0  0
 15  9  1  0  0  0  0
 16 20  1  0  0  0  0
 17  8  1  6  0  0  0
 17 10  1  0  0  0  0
 18  6  2  0  0  0  0
 19  7  1  0  0  0  0
 19 16  1  0  0  0  0
 20  1  2  0  0  0  0
 21  4  2  0  0  0  0
 22 21  1  0  0  0  0
 22 13  1  0  0  0  0
 23 14  1  0  0  0  0
 24  2  1  0  0  0  0
 25  5  2  0  0  0  0
 26  9  2  0  0  0  0
 27 14  1  0  0  0  0
 27  2  2  0  0  0  0
 28 23  2  0  0  0  0
 29 32  1  0  0  0  0
 29 30  1  0  0  0  0
 30 20  1  6  0  0  0
 31 29  2  0  0  0  0
 32 30  1  0  0  0  0
M  END
>  <MODEL>
8

>  <REMARK>
 VINA RESULT:      -8.1      3.871      7.774
  Name = 
  1 active torsions:
  status: ('A' for Active; 'I' for Inactive)
    1  A    between atoms: C_10  and  C_24
                            x       y       z     vdW  Elec       q    Type
                         _______ _______ _______ _____ _____    ______ ____

>  <TORSDO>
F 1

$$$$
=
 OpenBabel11052421253D

 32 38  0  0  1  0  0  0  0  0999 V2000
  188.5580  177.3650  147.1300 C   0  0  0  0  0  3  0  0  0  0  0  0
  191.5850  175.0250  143.4280 C   0  0  0  0  0  0  0  0  0  0  0  0
  195.7580  174.5900  145.9290 C   0  0  0  0  0  3  0  0  0  0  0  0
  196.2650  173.7460  144.9420 C   0  0  0  0  0  3  0  0  0  0  0  0
  191.3240  173.7950  141.1930 C   0  0  0  0  0  0  0  0  0  0  0  0
  191.9710  172.8960  140.2430 C   0  0  0  0  0  0  0  0  0  0  0  0
  189.8860  176.7340  144.2140 C   0  0  2  0  0  3  0  0  0  0  0  0
  191.8800  176.3170  145.6100 C   0  0  0  0  0  2  0  0  0  0  0  0
  193.6750  171.5750  139.4120 C   0  0  0  0  0  0  0  0  0  0  0  0
  189.9540  177.5460  146.5880 C   0  0  0  0  0  2  0  0  0  0  0  0
  194.4730  175.1160  145.8030 C   0  0  0  0  0  3  0  0  0  0  0  0
  192.3740  175.3340  144.5670 C   0  0  0  0  0  0  0  0  0  0  0  0
  193.6720  174.8060  144.6890 C   0  0  0  0  0  0  0  0  0  0  0  0
  193.4180  173.6310  142.5630 C   0  0  0  0  0  0  0  0  0  0  0  0
  192.5420  171.5190  138.4380 C   0  0  0  0  0  2  0  0  0  0  0  0
  187.5520  176.2910  145.0770 C   0  0  0  0  0  2  0  0  0  0  0  0
  190.3660  176.4360  145.6350 C   0  0  1  0  0  3  0  0  0  0  0  0
  191.5090  172.4150  139.0910 C   0  0  0  0  0  3  0  0  0  0  0  0
  188.4070  177.1290  144.1360 C   0  0  0  0  0  2  0  0  0  0  0  0
  187.4890  176.8580  146.4790 C   0  0  0  0  0  0  0  0  0  0  0  0
  195.4850  173.4280  143.8290 C   0  0  0  0  0  3  0  0  0  0  0  0
  194.1900  173.9510  143.6890 C   0  0  0  0  0  0  0  0  0  0  0  0
  193.9740  172.7500  141.5570 N   0  0  0  0  0  0  0  0  0  0  0  0
  190.1550  175.5140  143.3470 C   0  0  0  0  0  2  0  0  0  0  0  0
  190.1640  174.2300  140.9610 O   0  0  0  0  0  0  0  0  0  0  0  0
  194.7770  170.9790  139.2930 O   0  0  0  0  0  0  0  0  0  0  0  0
  192.1020  174.1680  142.4200 C   0  0  0  0  0  0  0  0  0  0  0  0
  193.2920  172.4260  140.5040 C   0  0  0  0  0  0  0  0  0  0  0  0
  185.5720  178.3190  147.1350 C   0  0  0  0  0  0  0  0  0  0  0  0
  186.1500  176.8980  147.1670 C   0  0  1  0  0  3  0  0  0  0  0  0
  185.5360  179.4770  147.5180 O   0  0  0  0  0  0  0  0  0  0  0  0
  185.0910  177.1810  146.2430 C   0  0  0  0  0  2  0  0  0  0  0  0
  2 12  1  0  0  0  0
  4  3  1  0  0  0  0
  5 27  1  0  0  0  0
  6 28  1  0  0  0  0
  6  5  1  0  0  0  0
  7 24  1  6  0  0  0
  7 17  1  0  0  0  0
  9 28  1  0  0  0  0
 10  1  1  0  0  0  0
 11  3  2  0  0  0  0
 12 13  2  0  0  0  0
 12  8  1  0  0  0  0
 13 11  1  0  0  0  0
 14 22  2  0  0  0  0
 15 18  1  0  0  0  0
 15  9  1  0  0  0  0
 16 20  1  0  0  0  0
 17  8  1  6  0  0  0
 17 10  1  0  0  0  0
 18  6  2  0  0  0  0
 19  7  1  0  0  0  0
 19 16  1  0  0  0  0
 20  1  2  0  0  0  0
 21  4  2  0  0  0  0
 22 21  1  0  0  0  0
 22 13  1  0  0  0  0
 23 14  1  0  0  0  0
 24  2  1  0  0  0  0
 25  5  2  0  0  0  0
 26  9  2  0  0  0  0
 27 14  1  0  0  0  0
 27  2  2  0  0  0  0
 28 23  2  0  0  0  0
 29 30  1  0  0  0  0
 29 31  2  0  0  0  0
 30 20  1  6  0  0  0
 32 29  1  0  0  0  0
 32 30  1  0  0  0  0
M  END
>  <MODEL>
9

>  <REMARK>
 VINA RESULT:      -7.9      3.717      8.088
  Name = 
  1 active torsions:
  status: ('A' for Active; 'I' for Inactive)
    1  A    between atoms: C_10  and  C_24
                            x       y       z     vdW  Elec       q    Type
                         _______ _______ _______ _____ _____    ______ ____

>  <TORSDO>
F 1

$$$$
