=
 OpenBabel11052417223D

 30 33  0  0  1  0  0  0  0  0999 V2000
  187.8650  176.1690  144.1690 C   0  0  2  0  0  3  0  0  0  0  0  0
  185.2560  176.7810  146.6310 C   0  0  0  0  0  2  0  0  0  0  0  0
  186.6670  178.8530  142.7320 C   0  0  0  0  0  2  0  0  0  0  0  0
  188.7610  176.8480  143.1040 C   0  0  1  0  0  3  0  0  0  0  0  0
  190.8470  172.5490  141.7090 C   0  0  0  0  0  2  0  0  0  0  0  0
  187.8950  175.5190  141.1110 C   0  0  0  0  0  2  0  0  0  0  0  0
  186.3880  178.1000  140.5100 O   0  0  0  0  0  1  0  0  0  0  0  0
  190.1580  176.2630  142.8260 C   0  0  2  0  0  3  0  0  0  0  0  0
  184.7680  178.2030  146.8920 C   0  0  0  0  0  2  0  0  0  0  0  0
  189.1200  174.6510  141.2540 C   0  0  0  0  0  0  0  0  0  0  0  0
  190.3430  172.7470  140.4140 O   0  0  0  0  0  0  0  0  0  0  0  0
  185.5390  176.5320  145.1580 C   0  0  0  0  0  2  0  0  0  0  0  0
  186.7970  178.6110  144.2540 C   0  0  2  0  0  3  0  0  0  0  0  0
  185.8150  179.2660  146.5480 C   0  0  0  0  0  2  0  0  0  0  0  0
  186.8760  177.1610  144.7970 C   0  0  2  0  0  3  0  0  0  0  0  0
  185.6320  176.7660  142.1710 O   0  0  0  0  0  1  0  0  0  0  0  0
  186.6590  177.6380  141.7970 C   0  0  0  0  0  0  0  0  0  0  0  0
  188.0210  176.9120  141.7610 C   0  0  1  0  0  3  0  0  0  0  0  0
  189.1550  173.3890  140.5800 N   0  0  0  0  0  2  0  0  0  0  0  0
  191.2240  173.9100  142.3090 C   0  0  0  0  0  2  0  0  0  0  0  0
  185.8790  179.5610  145.0460 C   0  0  2  0  0  3  0  0  0  0  0  0
  184.5950  179.6170  144.4910 O   0  0  0  0  0  1  0  0  0  0  0  0
  190.1020  174.9150  142.1410 C   0  0  0  0  0  0  0  0  0  0  0  0
  191.0900  176.3610  143.9930 C   0  0  0  0  0  3  0  0  0  0  0  0
  192.2990  176.8900  143.8620 C   0  0  0  0  0  3  0  0  0  0  0  0
  193.1740  176.9600  144.9980 C   0  0  0  0  0  0  0  0  0  0  0  0
  193.9080  177.0190  145.9510 C   0  0  0  0  0  3  0  0  0  0  0  0
  188.6170  175.4740  145.2970 C   0  0  0  0  0  2  0  0  0  0  0  0
  189.9770  175.9340  147.3090 C   0  0  0  0  0  1  0  0  0  0  0  0
  188.8320  176.4320  146.4520 C   0  0  0  0  0  2  0  0  0  0  0  0
  1 15  1  0  0  0  0
  1 28  1  1  0  0  0
  2  9  1  0  0  0  0
  3 13  1  0  0  0  0
  4  1  1  0  0  0  0
  5 20  1  0  0  0  0
  6 10  1  0  0  0  0
  6 18  1  0  0  0  0
  7 17  1  0  0  0  0
  8  4  1  0  0  0  0
  8 24  1  0  0  0  0
 10 23  2  0  0  0  0
 11 19  1  0  0  0  0
 11  5  1  0  0  0  0
 12  2  1  0  0  0  0
 13 15  1  0  0  0  0
 13 21  1  0  0  0  0
 14  9  1  0  0  0  0
 15 12  1  0  0  0  0
 17 16  1  0  0  0  0
 17  3  1  0  0  0  0
 18 17  1  0  0  0  0
 18  4  1  0  0  0  0
 19 10  1  0  0  0  0
 21 14  1  0  0  0  0
 22 21  1  0  0  0  0
 23 20  1  0  0  0  0
 23  8  1  0  0  0  0
 25 24  2  0  0  0  0
 25 26  1  0  0  0  0
 26 27  3  0  0  0  0
 28 30  1  0  0  0  0
 30 29  1  0  0  0  0
M  END
>  <MODEL>
1

>  <REMARK>
 VINA RESULT:      -8.1      0.000      0.000
  Name = 
  4 active torsions:
  status: ('A' for Active; 'I' for Inactive)
    1  A    between atoms: C_1  and  C_5
    2  A    between atoms: C_5  and  C_12
    3  A    between atoms: C_6  and  C_13
    4  A    between atoms: C_9  and  C_21
                            x       y       z     vdW  Elec       q    Type
                         _______ _______ _______ _____ _____    ______ ____

>  <TORSDO>
F 4

$$$$
=
 OpenBabel11052417223D

 30 33  0  0  1  0  0  0  0  0999 V2000
  192.5450  175.0700  144.2760 C   0  0  2  0  0  3  0  0  0  0  0  0
  196.0690  175.5140  143.4850 C   0  0  0  0  0  2  0  0  0  0  0  0
  193.4540  172.0260  145.0590 C   0  0  0  0  0  2  0  0  0  0  0  0
  191.5510  174.2440  145.1300 C   0  0  1  0  0  3  0  0  0  0  0  0
  187.5650  176.5070  143.1900 C   0  0  0  0  0  2  0  0  0  0  0  0
  190.2570  173.2450  143.1770 C   0  0  0  0  0  2  0  0  0  0  0  0
  191.8690  170.7490  143.8590 O   0  0  0  0  0  1  0  0  0  0  0  0
  190.2420  174.9070  145.5960 C   0  0  2  0  0  3  0  0  0  0  0  0
  197.1280  174.6960  144.2190 C   0  0  0  0  0  2  0  0  0  0  0  0
  189.2180  174.3120  143.4180 C   0  0  0  0  0  0  0  0  0  0  0  0
  187.1160  175.2660  142.7120 O   0  0  0  0  0  0  0  0  0  0  0  0
  194.8220  174.6990  143.1820 C   0  0  0  0  0  2  0  0  0  0  0  0
  194.2710  173.3160  145.3040 C   0  0  2  0  0  3  0  0  0  0  0  0
  196.6670  174.2270  145.6010 C   0  0  0  0  0  2  0  0  0  0  0  0
  193.9890  174.5780  144.4480 C   0  0  2  0  0  3  0  0  0  0  0  0
  192.8990  172.4380  142.7660 O   0  0  0  0  0  1  0  0  0  0  0  0
  192.3530  172.0490  143.9920 C   0  0  0  0  0  0  0  0  0  0  0  0
  191.1670  172.9560  144.3870 C   0  0  1  0  0  3  0  0  0  0  0  0
  188.2430  174.5670  142.4030 N   0  0  0  0  0  2  0  0  0  0  0  0
  188.2700  176.2960  144.5370 C   0  0  0  0  0  2  0  0  0  0  0  0
  195.7600  172.9940  145.5290 C   0  0  2  0  0  3  0  0  0  0  0  0
  196.2360  172.0760  144.5850 O   0  0  0  0  0  1  0  0  0  0  0  0
  189.2820  175.1700  144.4570 C   0  0  0  0  0  0  0  0  0  0  0  0
  190.4530  176.0460  146.5440 C   0  0  0  0  0  3  0  0  0  0  0  0
  191.1570  175.8890  147.6570 C   0  0  0  0  0  3  0  0  0  0  0  0
  191.3320  176.9980  148.5520 C   0  0  0  0  0  0  0  0  0  0  0  0
  191.4790  177.9280  149.3030 C   0  0  0  0  0  3  0  0  0  0  0  0
  192.5240  176.5710  144.5340 C   0  0  0  0  0  2  0  0  0  0  0  0
  191.1350  178.4590  143.7500 C   0  0  0  0  0  1  0  0  0  0  0  0
  192.0120  177.3060  143.3100 C   0  0  0  0  0  2  0  0  0  0  0  0
  1 15  1  0  0  0  0
  1 28  1  1  0  0  0
  1  4  1  0  0  0  0
  2  9  1  0  0  0  0
  3 13  1  0  0  0  0
  4  8  1  0  0  0  0
  5 20  1  0  0  0  0
  6 10  1  0  0  0  0
  6 18  1  0  0  0  0
  7 17  1  0  0  0  0
  8 24  1  0  0  0  0
  9 14  1  0  0  0  0
 10 23  2  0  0  0  0
 11  5  1  0  0  0  0
 12  2  1  0  0  0  0
 12 15  1  0  0  0  0
 13 21  1  0  0  0  0
 15 13  1  0  0  0  0
 16 17  1  0  0  0  0
 17 18  1  0  0  0  0
 17  3  1  0  0  0  0
 18  4  1  0  0  0  0
 19 11  1  0  0  0  0
 19 10  1  0  0  0  0
 21 14  1  0  0  0  0
 22 21  1  0  0  0  0
 23 20  1  0  0  0  0
 23  8  1  0  0  0  0
 24 25  2  0  0  0  0
 25 26  1  0  0  0  0
 26 27  3  0  0  0  0
 30 29  1  0  0  0  0
 30 28  1  0  0  0  0
M  END
>  <MODEL>
2

>  <REMARK>
 VINA RESULT:      -7.2      2.962      7.413
  Name = 
  4 active torsions:
  status: ('A' for Active; 'I' for Inactive)
    1  A    between atoms: C_1  and  C_5
    2  A    between atoms: C_5  and  C_12
    3  A    between atoms: C_6  and  C_13
    4  A    between atoms: C_9  and  C_21
                            x       y       z     vdW  Elec       q    Type
                         _______ _______ _______ _____ _____    ______ ____

>  <TORSDO>
F 4

$$$$
=
 OpenBabel11052417223D

 30 33  0  0  1  0  0  0  0  0999 V2000
  189.6480  176.4520  143.5450 C   0  0  2  0  0  3  0  0  0  0  0  0
  193.1020  176.8120  144.6340 C   0  0  0  0  0  2  0  0  0  0  0  0
  190.2790  173.2470  143.7340 C   0  0  0  0  0  2  0  0  0  0  0  0
  188.4260  175.5010  143.5630 C   0  0  1  0  0  3  0  0  0  0  0  0
  185.6600  178.5460  140.7590 C   0  0  0  0  0  2  0  0  0  0  0  0
  188.2500  175.2130  141.0380 C   0  0  0  0  0  2  0  0  0  0  0  0
  189.5150  172.5020  141.6260 O   0  0  0  0  0  1  0  0  0  0  0  0
  187.0120  176.1090  143.5440 C   0  0  2  0  0  3  0  0  0  0  0  0
  193.7480  175.7340  145.4990 C   0  0  0  0  0  2  0  0  0  0  0  0
  187.1540  176.2490  141.0730 C   0  0  0  0  0  0  0  0  0  0  0  0
  185.5630  177.5350  139.7900 O   0  0  0  0  0  0  0  0  0  0  0  0
  192.1910  176.2230  143.5680 C   0  0  0  0  0  2  0  0  0  0  0  0
  190.8070  174.3410  144.6910 C   0  0  2  0  0  3  0  0  0  0  0  0
  192.7290  174.9290  146.3090 C   0  0  0  0  0  2  0  0  0  0  0  0
  190.8750  175.8150  144.2110 C   0  0  2  0  0  3  0  0  0  0  0  0
  190.8260  174.3430  141.6750 O   0  0  0  0  0  1  0  0  0  0  0  0
  189.8000  173.6660  142.3390 C   0  0  0  0  0  0  0  0  0  0  0  0
  188.5110  174.5170  142.3880 C   0  0  1  0  0  3  0  0  0  0  0  0
  186.7460  176.8630  139.8460 N   0  0  0  0  0  2  0  0  0  0  0  0
  185.6730  177.9010  142.1520 C   0  0  0  0  0  2  0  0  0  0  0  0
  192.0390  173.8470  145.4720 C   0  0  2  0  0  3  0  0  0  0  0  0
  192.9550  173.2020  144.6320 O   0  0  0  0  0  1  0  0  0  0  0  0
  186.6740  176.7650  142.2230 C   0  0  0  0  0  0  0  0  0  0  0  0
  186.6870  176.9070  144.7680 C   0  0  0  0  0  3  0  0  0  0  0  0
  185.5660  176.6990  145.4450 C   0  0  0  0  0  3  0  0  0  0  0  0
  185.2790  177.4880  146.6080 C   0  0  0  0  0  0  0  0  0  0  0  0
  185.0380  178.1510  147.5850 C   0  0  0  0  0  3  0  0  0  0  0  0
  189.4160  177.8140  144.1880 C   0  0  0  0  0  2  0  0  0  0  0  0
  189.1390  177.5000  146.6240 C   0  0  0  0  0  1  0  0  0  0  0  0
  190.1150  177.8840  145.5320 C   0  0  0  0  0  2  0  0  0  0  0  0
  1  4  1  0  0  0  0
  1 28  1  1  0  0  0
  1 15  1  0  0  0  0
  2  9  1  0  0  0  0
  3 13  1  0  0  0  0
  5 20  1  0  0  0  0
  6 10  1  0  0  0  0
  6 18  1  0  0  0  0
  7 17  1  0  0  0  0
  8  4  1  0  0  0  0
  8 24  1  0  0  0  0
  9 14  1  0  0  0  0
 10 23  2  0  0  0  0
 11 19  1  0  0  0  0
 11  5  1  0  0  0  0
 12 15  1  0  0  0  0
 12  2  1  0  0  0  0
 13 21  1  0  0  0  0
 15 13  1  0  0  0  0
 16 17  1  0  0  0  0
 17 18  1  0  0  0  0
 17  3  1  0  0  0  0
 18  4  1  0  0  0  0
 19 10  1  0  0  0  0
 20 23  1  0  0  0  0
 21 14  1  0  0  0  0
 22 21  1  0  0  0  0
 23  8  1  0  0  0  0
 24 25  2  0  0  0  0
 25 26  1  0  0  0  0
 26 27  3  0  0  0  0
 28 30  1  0  0  0  0
 30 29  1  0  0  0  0
M  END
>  <MODEL>
3

>  <REMARK>
 VINA RESULT:      -7.2      1.826      6.056
  Name = 
  4 active torsions:
  status: ('A' for Active; 'I' for Inactive)
    1  A    between atoms: C_1  and  C_5
    2  A    between atoms: C_5  and  C_12
    3  A    between atoms: C_6  and  C_13
    4  A    between atoms: C_9  and  C_21
                            x       y       z     vdW  Elec       q    Type
                         _______ _______ _______ _____ _____    ______ ____

>  <TORSDO>
F 4

$$$$
=
 OpenBabel11052417223D

 30 33  0  0  1  0  0  0  0  0999 V2000
  193.0790  174.1200  144.6720 C   0  0  2  0  0  3  0  0  0  0  0  0
  189.5030  174.7330  144.9490 C   0  0  0  0  0  2  0  0  0  0  0  0
  193.3090  176.4320  146.9750 C   0  0  0  0  0  2  0  0  0  0  0  0
  194.4250  174.2130  145.4330 C   0  0  1  0  0  3  0  0  0  0  0  0
  197.0710  172.6440  141.5190 C   0  0  0  0  0  2  0  0  0  0  0  0
  195.5470  175.8430  143.8300 C   0  0  0  0  0  2  0  0  0  0  0  0
  194.9370  177.8620  146.0310 O   0  0  0  0  0  1  0  0  0  0  0  0
  195.5360  173.2000  145.1040 C   0  0  2  0  0  3  0  0  0  0  0  0
  188.9090  175.2200  146.2670 C   0  0  0  0  0  2  0  0  0  0  0  0
  196.2390  174.6490  143.2200 C   0  0  0  0  0  0  0  0  0  0  0  0
  197.7700  173.8610  141.5290 O   0  0  0  0  0  0  0  0  0  0  0  0
  190.8530  175.3690  144.6570 C   0  0  0  0  0  2  0  0  0  0  0  0
  192.2050  175.3540  146.8680 C   0  0  2  0  0  3  0  0  0  0  0  0
  189.7540  174.8300  147.4820 C   0  0  0  0  0  2  0  0  0  0  0  0
  191.9160  174.6840  145.5000 C   0  0  2  0  0  3  0  0  0  0  0  0
  193.2480  177.1700  144.6970 O   0  0  0  0  0  1  0  0  0  0  0  0
  194.1170  176.7780  145.7190 C   0  0  0  0  0  0  0  0  0  0  0  0
  195.0260  175.6160  145.2620 C   0  0  1  0  0  3  0  0  0  0  0  0
  196.8710  174.7940  141.9450 N   0  0  0  0  0  2  0  0  0  0  0  0
  196.7440  172.2480  142.9660 C   0  0  0  0  0  2  0  0  0  0  0  0
  190.9590  175.7560  147.6790 C   0  0  2  0  0  3  0  0  0  0  0  0
  190.6070  177.0920  147.4530 O   0  0  0  0  0  1  0  0  0  0  0  0
  196.1260  173.4040  143.7270 C   0  0  0  0  0  0  0  0  0  0  0  0
  195.1810  171.7890  145.4570 C   0  0  0  0  0  3  0  0  0  0  0  0
  196.0020  171.0350  146.1760 C   0  0  0  0  0  3  0  0  0  0  0  0
  195.6380  169.6830  146.4890 C   0  0  0  0  0  0  0  0  0  0  0  0
  195.3330  168.5470  146.7510 C   0  0  0  0  0  3  0  0  0  0  0  0
  192.6940  172.7200  144.2110 C   0  0  0  0  0  2  0  0  0  0  0  0
  192.8110  174.0250  142.1150 C   0  0  0  0  0  1  0  0  0  0  0  0
  192.7620  172.6280  142.6990 C   0  0  0  0  0  2  0  0  0  0  0  0
  1 28  1  1  0  0  0
  1  4  1  0  0  0  0
  1 15  1  0  0  0  0
  2  9  1  0  0  0  0
  5 11  1  0  0  0  0
  5 20  1  0  0  0  0
  6 18  1  0  0  0  0
  8  4  1  0  0  0  0
  8 24  1  0  0  0  0
  9 14  1  0  0  0  0
 10 23  2  0  0  0  0
 10  6  1  0  0  0  0
 11 19  1  0  0  0  0
 12  2  1  0  0  0  0
 12 15  1  0  0  0  0
 13  3  1  0  0  0  0
 13 21  1  0  0  0  0
 14 21  1  0  0  0  0
 15 13  1  0  0  0  0
 16 17  1  0  0  0  0
 17  7  1  0  0  0  0
 17  3  1  0  0  0  0
 18  4  1  0  0  0  0
 18 17  1  0  0  0  0
 19 10  1  0  0  0  0
 20 23  1  0  0  0  0
 22 21  1  0  0  0  0
 23  8  1  0  0  0  0
 24 25  2  0  0  0  0
 25 26  1  0  0  0  0
 26 27  3  0  0  0  0
 29 30  1  0  0  0  0
 30 28  1  0  0  0  0
M  END
>  <MODEL>
4

>  <REMARK>
 VINA RESULT:      -7.0      4.738      7.017
  Name = 
  4 active torsions:
  status: ('A' for Active; 'I' for Inactive)
    1  A    between atoms: C_1  and  C_5
    2  A    between atoms: C_5  and  C_12
    3  A    between atoms: C_6  and  C_13
    4  A    between atoms: C_9  and  C_21
                            x       y       z     vdW  Elec       q    Type
                         _______ _______ _______ _____ _____    ______ ____

>  <TORSDO>
F 4

$$$$
=
 OpenBabel11052417223D

 30 33  0  0  1  0  0  0  0  0999 V2000
  188.9420  175.3780  144.6770 C   0  0  2  0  0  3  0  0  0  0  0  0
  190.4270  172.0820  144.2620 C   0  0  0  0  0  2  0  0  0  0  0  0
  191.8370  176.1440  145.9950 C   0  0  0  0  0  2  0  0  0  0  0  0
  189.2670  176.8860  144.8160 C   0  0  1  0  0  3  0  0  0  0  0  0
  184.4920  178.1470  145.4430 C   0  0  0  0  0  2  0  0  0  0  0  0
  188.2500  177.1860  147.1310 C   0  0  0  0  0  2  0  0  0  0  0  0
  191.1670  177.1660  148.0170 O   0  0  0  0  0  1  0  0  0  0  0  0
  188.2520  177.9160  144.2890 C   0  0  2  0  0  3  0  0  0  0  0  0
  191.9360  171.9390  144.0860 C   0  0  0  0  0  2  0  0  0  0  0  0
  187.0320  177.7480  146.4410 C   0  0  0  0  0  0  0  0  0  0  0  0
  184.8150  178.6660  146.7070 O   0  0  0  0  0  0  0  0  0  0  0  0
  190.0670  173.1640  145.2680 C   0  0  0  0  0  2  0  0  0  0  0  0
  191.6000  175.1990  144.7920 C   0  0  2  0  0  3  0  0  0  0  0  0
  192.5900  173.1950  143.5050 C   0  0  0  0  0  2  0  0  0  0  0  0
  190.2160  174.5250  144.6070 C   0  0  2  0  0  3  0  0  0  0  0  0
  190.1910  175.2050  147.4590 O   0  0  0  0  0  1  0  0  0  0  0  0
  190.6710  176.4150  146.9520 C   0  0  0  0  0  0  0  0  0  0  0  0
  189.5390  177.2290  146.2870 C   0  0  1  0  0  3  0  0  0  0  0  0
  185.8140  177.8720  147.1810 N   0  0  0  0  0  2  0  0  0  0  0  0
  185.6690  178.3950  144.4890 C   0  0  0  0  0  2  0  0  0  0  0  0
  192.8150  174.2810  144.5620 C   0  0  2  0  0  3  0  0  0  0  0  0
  193.2740  173.7250  145.7620 O   0  0  0  0  0  1  0  0  0  0  0  0
  186.9820  177.9590  145.1090 C   0  0  0  0  0  0  0  0  0  0  0  0
  188.0660  177.8680  142.8050 C   0  0  0  0  0  3  0  0  0  0  0  0
  186.8750  177.6330  142.2700 C   0  0  0  0  0  3  0  0  0  0  0  0
  186.7320  177.5830  140.8430 C   0  0  0  0  0  0  0  0  0  0  0  0
  186.6120  177.5410  139.6450 C   0  0  0  0  0  3  0  0  0  0  0  0
  188.0650  175.0140  143.4860 C   0  0  0  0  0  2  0  0  0  0  0  0
  188.2480  173.5240  141.5220 C   0  0  0  0  0  1  0  0  0  0  0  0
  188.9260  174.6350  142.2970 C   0  0  0  0  0  2  0  0  0  0  0  0
  1 28  1  6  0  0  0
  1  4  1  0  0  0  0
  2 12  1  0  0  0  0
  3 17  1  0  0  0  0
  4 18  1  0  0  0  0
  5 11  1  0  0  0  0
  8  4  1  0  0  0  0
  8 23  1  0  0  0  0
  9  2  1  0  0  0  0
 10  6  1  0  0  0  0
 10 19  1  0  0  0  0
 11 19  1  0  0  0  0
 13  3  1  0  0  0  0
 14  9  1  0  0  0  0
 14 21  1  0  0  0  0
 15  1  1  0  0  0  0
 15 13  1  0  0  0  0
 15 12  1  0  0  0  0
 17 16  1  0  0  0  0
 17  7  1  0  0  0  0
 18 17  1  0  0  0  0
 18  6  1  0  0  0  0
 20 23  1  0  0  0  0
 20  5  1  0  0  0  0
 21 13  1  0  0  0  0
 21 22  1  0  0  0  0
 23 10  2  0  0  0  0
 24  8  1  0  0  0  0
 25 24  2  0  0  0  0
 26 25  1  0  0  0  0
 27 26  3  0  0  0  0
 29 30  1  0  0  0  0
 30 28  1  0  0  0  0
M  END
>  <MODEL>
5

>  <REMARK>
 VINA RESULT:      -7.0      3.179      6.996
  Name = 
  4 active torsions:
  status: ('A' for Active; 'I' for Inactive)
    1  A    between atoms: C_1  and  C_5
    2  A    between atoms: C_5  and  C_12
    3  A    between atoms: C_6  and  C_13
    4  A    between atoms: C_9  and  C_21
                            x       y       z     vdW  Elec       q    Type
                         _______ _______ _______ _____ _____    ______ ____

>  <TORSDO>
F 4

$$$$
=
 OpenBabel11052417223D

 30 33  0  0  1  0  0  0  0  0999 V2000
  191.0600  175.9950  144.0960 C   0  0  2  0  0  3  0  0  0  0  0  0
  194.4230  176.0410  142.7080 C   0  0  0  0  0  2  0  0  0  0  0  0
  191.4810  172.7500  144.1240 C   0  0  0  0  0  2  0  0  0  0  0  0
  190.0810  175.1720  144.9700 C   0  0  1  0  0  3  0  0  0  0  0  0
  186.3410  178.3900  144.3050 C   0  0  0  0  0  2  0  0  0  0  0  0
  188.3140  174.8240  143.1690 C   0  0  0  0  0  2  0  0  0  0  0  0
  189.5040  172.0200  143.0560 O   0  0  0  0  0  1  0  0  0  0  0  0
  189.0200  175.9190  145.7990 C   0  0  2  0  0  3  0  0  0  0  0  0
  195.4110  174.9310  143.0570 C   0  0  0  0  0  2  0  0  0  0  0  0
  187.5550  175.9650  143.8000 C   0  0  0  0  0  0  0  0  0  0  0  0
  185.5890  177.3630  143.7120 O   0  0  0  0  0  0  0  0  0  0  0  0
  193.0100  175.5130  142.5200 C   0  0  0  0  0  2  0  0  0  0  0  0
  192.5610  173.8160  144.4270 C   0  0  2  0  0  3  0  0  0  0  0  0
  195.1030  174.2580  144.3970 C   0  0  0  0  0  2  0  0  0  0  0  0
  192.3900  175.2590  143.8850 C   0  0  2  0  0  3  0  0  0  0  0  0
  190.6450  173.7210  142.1000 O   0  0  0  0  0  1  0  0  0  0  0  0
  190.2450  173.1710  143.3210 C   0  0  0  0  0  0  0  0  0  0  0  0
  189.3380  174.1480  144.1010 C   0  0  1  0  0  3  0  0  0  0  0  0
  186.4920  176.5790  143.0630 N   0  0  0  0  0  2  0  0  0  0  0  0
  187.2050  177.7900  145.4230 C   0  0  0  0  0  2  0  0  0  0  0  0
  193.9760  173.2250  144.2880 C   0  0  2  0  0  3  0  0  0  0  0  0
  194.1040  172.4650  143.1190 O   0  0  0  0  0  1  0  0  0  0  0  0
  187.9530  176.5630  144.9420 C   0  0  0  0  0  0  0  0  0  0  0  0
  189.6000  176.7830  146.8740 C   0  0  0  0  0  3  0  0  0  0  0  0
  190.5970  176.3540  147.6370 C   0  0  0  0  0  3  0  0  0  0  0  0
  191.1240  177.2030  148.6660 C   0  0  0  0  0  0  0  0  0  0  0  0
  191.5660  177.9160  149.5310 C   0  0  0  0  0  3  0  0  0  0  0  0
  191.3720  177.3920  144.6170 C   0  0  0  0  0  2  0  0  0  0  0  0
  190.0820  177.9610  142.5860 C   0  0  0  0  0  1  0  0  0  0  0  0
  191.1910  178.4150  143.5130 C   0  0  0  0  0  2  0  0  0  0  0  0
  1 28  1  1  0  0  0
  1  4  1  0  0  0  0
  2  9  1  0  0  0  0
  3 13  1  0  0  0  0
  4  8  1  0  0  0  0
  5 20  1  0  0  0  0
  6 10  1  0  0  0  0
  6 18  1  0  0  0  0
  7 17  1  0  0  0  0
  8 24  1  0  0  0  0
  9 14  1  0  0  0  0
 10 23  2  0  0  0  0
 11  5  1  0  0  0  0
 12  2  1  0  0  0  0
 12 15  1  0  0  0  0
 15  1  1  0  0  0  0
 15 13  1  0  0  0  0
 16 17  1  0  0  0  0
 17 18  1  0  0  0  0
 17  3  1  0  0  0  0
 18  4  1  0  0  0  0
 19 11  1  0  0  0  0
 19 10  1  0  0  0  0
 21 14  1  0  0  0  0
 21 13  1  0  0  0  0
 22 21  1  0  0  0  0
 23 20  1  0  0  0  0
 23  8  1  0  0  0  0
 24 25  2  0  0  0  0
 25 26  1  0  0  0  0
 26 27  3  0  0  0  0
 29 30  1  0  0  0  0
 30 28  1  0  0  0  0
M  END
>  <MODEL>
6

>  <REMARK>
 VINA RESULT:      -7.0      2.316      6.633
  Name = 
  4 active torsions:
  status: ('A' for Active; 'I' for Inactive)
    1  A    between atoms: C_1  and  C_5
    2  A    between atoms: C_5  and  C_12
    3  A    between atoms: C_6  and  C_13
    4  A    between atoms: C_9  and  C_21
                            x       y       z     vdW  Elec       q    Type
                         _______ _______ _______ _____ _____    ______ ____

>  <TORSDO>
F 4

$$$$
=
 OpenBabel11052417223D

 30 33  0  0  1  0  0  0  0  0999 V2000
  193.2770  174.3410  144.2080 C   0  0  2  0  0  3  0  0  0  0  0  0
  196.8400  174.8290  143.6500 C   0  0  0  0  0  2  0  0  0  0  0  0
  194.2040  171.4230  145.3630 C   0  0  0  0  0  2  0  0  0  0  0  0
  192.2410  173.5690  145.0620 C   0  0  1  0  0  3  0  0  0  0  0  0
  188.3630  175.4880  142.6000 C   0  0  0  0  0  2  0  0  0  0  0  0
  191.1360  172.3370  143.1260 C   0  0  0  0  0  2  0  0  0  0  0  0
  192.7560  169.9790  144.1800 O   0  0  0  0  0  1  0  0  0  0  0  0
  190.8820  174.2290  145.3550 C   0  0  2  0  0  3  0  0  0  0  0  0
  197.8580  174.1250  144.5430 C   0  0  0  0  0  2  0  0  0  0  0  0
  190.0530  173.3860  143.1760 C   0  0  0  0  0  0  0  0  0  0  0  0
  187.9890  174.1900  142.2170 O   0  0  0  0  0  0  0  0  0  0  0  0
  195.6440  173.9440  143.3360 C   0  0  0  0  0  2  0  0  0  0  0  0
  194.9630  172.7600  145.5390 C   0  0  2  0  0  3  0  0  0  0  0  0
  197.3010  173.7790  145.9260 C   0  0  0  0  0  2  0  0  0  0  0  0
  194.7160  173.9200  144.5400 C   0  0  2  0  0  3  0  0  0  0  0  0
  193.8230  171.5870  143.0040 O   0  0  0  0  0  1  0  0  0  0  0  0
  193.1920  171.3020  144.2180 C   0  0  0  0  0  0  0  0  0  0  0  0
  191.9540  172.2020  144.4260 C   0  0  1  0  0  3  0  0  0  0  0  0
  189.1550  173.5040  142.0680 N   0  0  0  0  0  2  0  0  0  0  0  0
  188.9640  175.4350  144.0120 C   0  0  0  0  0  2  0  0  0  0  0  0
  196.4370  172.5140  145.9090 C   0  0  2  0  0  3  0  0  0  0  0  0
  197.0120  171.5250  145.1030 O   0  0  0  0  0  1  0  0  0  0  0  0
  190.0090  174.3430  144.1250 C   0  0  0  0  0  0  0  0  0  0  0  0
  190.9850  175.4620  146.1970 C   0  0  0  0  0  3  0  0  0  0  0  0
  191.3490  175.3950  147.4700 C   0  0  0  0  0  3  0  0  0  0  0  0
  191.4280  176.5950  148.2530 C   0  0  0  0  0  0  0  0  0  0  0  0
  191.4940  177.6020  148.9110 C   0  0  0  0  0  3  0  0  0  0  0  0
  193.1950  175.8590  144.3090 C   0  0  0  0  0  2  0  0  0  0  0  0
  192.8230  175.4050  141.9080 C   0  0  0  0  0  1  0  0  0  0  0  0
  192.6990  176.4450  143.0020 C   0  0  0  0  0  2  0  0  0  0  0  0
  1 28  1  1  0  0  0
  1 15  1  0  0  0  0
  1  4  1  0  0  0  0
  2  9  1  0  0  0  0
  3 13  1  0  0  0  0
  4  8  1  0  0  0  0
  5 20  1  0  0  0  0
  6 10  1  0  0  0  0
  6 18  1  0  0  0  0
  7 17  1  0  0  0  0
  8 24  1  0  0  0  0
  9 14  1  0  0  0  0
 10 23  2  0  0  0  0
 11  5  1  0  0  0  0
 12  2  1  0  0  0  0
 12 15  1  0  0  0  0
 13 21  1  0  0  0  0
 15 13  1  0  0  0  0
 16 17  1  0  0  0  0
 17 18  1  0  0  0  0
 17  3  1  0  0  0  0
 18  4  1  0  0  0  0
 19 11  1  0  0  0  0
 19 10  1  0  0  0  0
 20 23  1  0  0  0  0
 21 14  1  0  0  0  0
 22 21  1  0  0  0  0
 23  8  1  0  0  0  0
 24 25  2  0  0  0  0
 25 26  1  0  0  0  0
 26 27  3  0  0  0  0
 29 30  1  0  0  0  0
 30 28  1  0  0  0  0
M  END
>  <MODEL>
7

>  <REMARK>
 VINA RESULT:      -6.8      3.541      8.000
  Name = 
  4 active torsions:
  status: ('A' for Active; 'I' for Inactive)
    1  A    between atoms: C_1  and  C_5
    2  A    between atoms: C_5  and  C_12
    3  A    between atoms: C_6  and  C_13
    4  A    between atoms: C_9  and  C_21
                            x       y       z     vdW  Elec       q    Type
                         _______ _______ _______ _____ _____    ______ ____

>  <TORSDO>
F 4

$$$$
=
 OpenBabel11052417223D

 30 33  0  0  1  0  0  0  0  0999 V2000
  189.0010  175.6540  144.2110 C   0  0  2  0  0  3  0  0  0  0  0  0
  185.9910  176.9960  145.7560 C   0  0  0  0  0  2  0  0  0  0  0  0
  187.8040  177.0210  141.4900 C   0  0  0  0  0  2  0  0  0  0  0  0
  189.9880  175.8390  143.0320 C   0  0  1  0  0  3  0  0  0  0  0  0
  192.6500  171.8160  144.2630 C   0  0  0  0  0  2  0  0  0  0  0  0
  189.5710  173.5700  141.9520 C   0  0  0  0  0  2  0  0  0  0  0  0
  187.9480  175.2200  139.9680 O   0  0  0  0  0  1  0  0  0  0  0  0
  191.4580  175.4240  143.2230 C   0  0  2  0  0  3  0  0  0  0  0  0
  185.3410  178.2580  145.1960 C   0  0  0  0  0  2  0  0  0  0  0  0
  190.8320  173.0990  142.6330 C   0  0  0  0  0  0  0  0  0  0  0  0
  192.3410  171.2530  143.0150 O   0  0  0  0  0  0  0  0  0  0  0  0
  186.5250  176.0890  144.6580 C   0  0  0  0  0  2  0  0  0  0  0  0
  187.7150  177.6020  142.9210 C   0  0  2  0  0  3  0  0  0  0  0  0
  186.3270  179.1550  144.4450 C   0  0  0  0  0  2  0  0  0  0  0  0
  187.8390  176.6550  144.1430 C   0  0  2  0  0  3  0  0  0  0  0  0
  187.0650  174.8020  142.0070 O   0  0  0  0  0  1  0  0  0  0  0  0
  188.0540  175.5180  141.3260 C   0  0  0  0  0  0  0  0  0  0  0  0
  189.4660  175.0990  141.7920 C   0  0  1  0  0  3  0  0  0  0  0  0
  191.0870  171.6930  142.7180 N   0  0  0  0  0  2  0  0  0  0  0  0
  192.8020  173.3350  144.0990 C   0  0  0  0  0  2  0  0  0  0  0  0
  186.6000  178.6600  143.0200 C   0  0  2  0  0  3  0  0  0  0  0  0
  185.4200  178.2240  142.4060 O   0  0  0  0  0  1  0  0  0  0  0  0
  191.6340  173.9260  143.3350 C   0  0  0  0  0  0  0  0  0  0  0  0
  192.1820  176.2420  144.2460 C   0  0  0  0  0  3  0  0  0  0  0  0
  193.5000  176.3810  144.2050 C   0  0  0  0  0  3  0  0  0  0  0  0
  194.1660  177.1640  145.2070 C   0  0  0  0  0  0  0  0  0  0  0  0
  194.7260  177.8210  146.0470 C   0  0  0  0  0  3  0  0  0  0  0  0
  189.6250  175.7500  145.5970 C   0  0  0  0  0  2  0  0  0  0  0  0
  188.9580  174.5330  147.6430 C   0  0  0  0  0  1  0  0  0  0  0  0
  189.6010  174.3960  146.2780 C   0  0  0  0  0  2  0  0  0  0  0  0
  1 28  1  1  0  0  0
  3 13  1  0  0  0  0
  4  8  1  0  0  0  0
  4  1  1  0  0  0  0
  6 10  1  0  0  0  0
  7 17  1  0  0  0  0
  8 23  1  0  0  0  0
  8 24  1  0  0  0  0
  9  2  1  0  0  0  0
 10 19  1  0  0  0  0
 10 23  2  0  0  0  0
 11  5  1  0  0  0  0
 12  2  1  0  0  0  0
 13 21  1  0  0  0  0
 13 15  1  0  0  0  0
 14  9  1  0  0  0  0
 15  1  1  0  0  0  0
 15 12  1  0  0  0  0
 17  3  1  0  0  0  0
 17 18  1  0  0  0  0
 17 16  1  0  0  0  0
 18  6  1  0  0  0  0
 18  4  1  0  0  0  0
 19 11  1  0  0  0  0
 20  5  1  0  0  0  0
 21 14  1  0  0  0  0
 22 21  1  0  0  0  0
 23 20  1  0  0  0  0
 25 24  2  0  0  0  0
 25 26  1  0  0  0  0
 26 27  3  0  0  0  0
 28 30  1  0  0  0  0
 30 29  1  0  0  0  0
M  END
>  <MODEL>
8

>  <REMARK>
 VINA RESULT:      -6.8      1.686      2.195
  Name = 
  4 active torsions:
  status: ('A' for Active; 'I' for Inactive)
    1  A    between atoms: C_1  and  C_5
    2  A    between atoms: C_5  and  C_12
    3  A    between atoms: C_6  and  C_13
    4  A    between atoms: C_9  and  C_21
                            x       y       z     vdW  Elec       q    Type
                         _______ _______ _______ _____ _____    ______ ____

>  <TORSDO>
F 4

$$$$
=
 OpenBabel11052417223D

 30 33  0  0  1  0  0  0  0  0999 V2000
  191.8710  174.0310  145.1280 C   0  0  2  0  0  3  0  0  0  0  0  0
  189.4890  176.1650  146.8640 C   0  0  0  0  0  2  0  0  0  0  0  0
  189.7460  174.2530  142.6500 C   0  0  0  0  0  2  0  0  0  0  0  0
  192.3890  173.6190  143.7280 C   0  0  1  0  0  3  0  0  0  0  0  0
  195.5420  170.2400  145.5780 C   0  0  0  0  0  2  0  0  0  0  0  0
  191.7650  171.1560  143.9070 C   0  0  0  0  0  2  0  0  0  0  0  0
  189.4730  171.9770  142.0730 O   0  0  0  0  0  1  0  0  0  0  0  0
  193.8580  173.1860  143.5770 C   0  0  2  0  0  3  0  0  0  0  0  0
  188.6140  177.1360  146.0750 C   0  0  0  0  0  2  0  0  0  0  0  0
  193.2080  170.8940  144.2630 C   0  0  0  0  0  0  0  0  0  0  0  0
  194.8620  169.2420  144.8630 O   0  0  0  0  0  0  0  0  0  0  0  0
  189.6720  174.8400  146.1410 C   0  0  0  0  0  2  0  0  0  0  0  0
  190.1130  175.3790  143.6440 C   0  0  2  0  0  3  0  0  0  0  0  0
  189.2340  177.5450  144.7370 C   0  0  0  0  0  2  0  0  0  0  0  0
  190.6990  175.0170  145.0340 C   0  0  2  0  0  3  0  0  0  0  0  0
  189.3580  172.5260  144.2630 O   0  0  0  0  0  1  0  0  0  0  0  0
  190.0140  172.8000  143.0600 C   0  0  0  0  0  0  0  0  0  0  0  0
  191.5220  172.4840  143.1630 C   0  0  1  0  0  3  0  0  0  0  0  0
  193.5590  169.6330  144.8410 N   0  0  0  0  0  2  0  0  0  0  0  0
  195.5400  171.5330  144.7510 C   0  0  0  0  0  2  0  0  0  0  0  0
  189.0370  176.4820  143.6510 C   0  0  2  0  0  3  0  0  0  0  0  0
  187.7470  175.9420  143.7060 O   0  0  0  0  0  1  0  0  0  0  0  0
  194.1500  171.8600  144.2430 C   0  0  0  0  0  0  0  0  0  0  0  0
  194.8370  174.2840  143.8580 C   0  0  0  0  0  3  0  0  0  0  0  0
  195.0660  175.2420  142.9700 C   0  0  0  0  0  3  0  0  0  0  0  0
  196.0170  176.2740  143.2640 C   0  0  0  0  0  0  0  0  0  0  0  0
  196.8170  177.1410  143.5120 C   0  0  0  0  0  3  0  0  0  0  0  0
  192.9210  174.6350  146.0520 C   0  0  0  0  0  2  0  0  0  0  0  0
  194.1910  176.7040  146.5150 C   0  0  0  0  0  1  0  0  0  0  0  0
  192.9000  176.1470  145.9520 C   0  0  0  0  0  2  0  0  0  0  0  0
  1 28  1  1  0  0  0
  3 17  1  0  0  0  0
  3 13  1  0  0  0  0
  4  1  1  0  0  0  0
  6 10  1  0  0  0  0
  7 17  1  0  0  0  0
  8  4  1  0  0  0  0
  8 24  1  0  0  0  0
  8 23  1  0  0  0  0
  9  2  1  0  0  0  0
 10 19  1  0  0  0  0
 11  5  1  0  0  0  0
 12  2  1  0  0  0  0
 13 21  1  0  0  0  0
 13 15  1  0  0  0  0
 14  9  1  0  0  0  0
 15  1  1  0  0  0  0
 15 12  1  0  0  0  0
 17 18  1  0  0  0  0
 17 16  1  0  0  0  0
 18  4  1  0  0  0  0
 18  6  1  0  0  0  0
 19 11  1  0  0  0  0
 20  5  1  0  0  0  0
 21 22  1  0  0  0  0
 21 14  1  0  0  0  0
 23 10  2  0  0  0  0
 23 20  1  0  0  0  0
 25 26  1  0  0  0  0
 25 24  2  0  0  0  0
 26 27  3  0  0  0  0
 30 28  1  0  0  0  0
 30 29  1  0  0  0  0
M  END
>  <MODEL>
9

>  <REMARK>
 VINA RESULT:      -6.7      3.353      5.215
  Name = 
  4 active torsions:
  status: ('A' for Active; 'I' for Inactive)
    1  A    between atoms: C_1  and  C_5
    2  A    between atoms: C_5  and  C_12
    3  A    between atoms: C_6  and  C_13
    4  A    between atoms: C_9  and  C_21
                            x       y       z     vdW  Elec       q    Type
                         _______ _______ _______ _____ _____    ______ ____

>  <TORSDO>
F 4

$$$$
