=
 OpenBabel11052421053D

 43 47  0  0  1  0  0  0  0  0999 V2000
  185.4350  178.3440  144.2960 C   0  0  0  0  0  0  0  0  0  0  0  0
  188.9250  174.7980  143.7480 C   0  0  0  0  0  0  0  0  0  0  0  0
  190.6740  174.9570  145.9400 C   0  0  0  0  0  0  0  0  0  0  0  0
  186.7640  176.5390  143.5150 C   0  0  0  0  0  0  0  0  0  0  0  0
  186.2580  178.4990  145.4130 C   0  0  0  0  0  3  0  0  0  0  0  0
  184.1500  179.3280  144.0910 S   0  0  0  0  0  0  0  0  0  0  0  0
  187.6240  176.6560  144.6280 C   0  0  0  0  0  0  0  0  0  0  0  0
  185.7010  177.3770  143.3780 N   0  0  0  0  0  2  0  0  0  0  0  0
  187.3560  177.6520  145.5770 C   0  0  0  0  0  3  0  0  0  0  0  0
  189.5990  175.8480  145.8380 C   0  0  0  0  0  3  0  0  0  0  0  0
  188.7180  175.7780  144.7510 C   0  0  0  0  0  0  0  0  0  0  0  0
  188.0710  174.7190  142.6900 N   0  0  0  0  0  0  0  0  0  0  0  0
  190.0100  173.9090  143.8410 C   0  0  0  0  0  0  0  0  0  0  0  0
  190.8710  173.9970  144.9460 C   0  0  0  0  0  3  0  0  0  0  0  0
  187.0090  175.5580  142.5550 C   0  0  0  0  0  3  0  0  0  0  0  0
  191.6280  175.0180  147.0910 C   0  0  2  0  0  3  0  0  0  0  0  0
  191.3370  176.2250  147.9690 C   0  0  0  0  0  1  0  0  0  0  0  0
  193.0710  175.0270  146.5930 C   0  0  0  0  0  2  0  0  0  0  0  0
  193.5600  176.4150  146.3200 C   0  0  0  0  0  0  0  0  0  0  0  0
  194.1720  177.0260  147.1840 O   0  0  0  0  0  0  0  0  0  0  0  0
  193.4180  176.9930  144.9370 C   0  0  0  0  0  2  0  0  0  0  0  0
  193.5180  176.0190  143.8380 N   0  0  0  0  0  0  0  0  0  0  0  0
  195.1550  175.8420  143.2700 S   0  0  0  0  0  0  0  0  0  0  0  0
  195.1930  175.8260  141.7650 O   0  0  0  0  0  0  0  0  0  0  0  0
  196.0000  176.9790  143.7790 O   0  0  0  0  0  0  0  0  0  0  0  0
  195.8070  174.3010  143.8820 C   0  0  1  0  0  3  0  0  0  0  0  0
  195.3010  171.9610  144.4780 C   0  0  0  0  0  2  0  0  0  0  0  0
  196.8020  173.2150  145.9170 C   0  0  0  0  0  3  0  0  0  0  0  0
  196.2170  172.1060  145.5990 N   0  0  0  0  0  0  0  0  0  0  0  0
  196.5090  174.5180  145.2200 C   0  0  0  0  0  2  0  0  0  0  0  0
  194.6850  173.2930  144.0630 C   0  0  0  0  0  2  0  0  0  0  0  0
  192.6540  176.3880  142.7210 C   0  0  0  0  0  2  0  0  0  0  0  0
  190.5120  177.4090  142.4450 O   0  0  0  0  0  1  0  0  0  0  0  0
  191.7240  177.5180  143.1290 C   0  0  0  0  0  2  0  0  0  0  0  0
  190.1810  172.9410  142.8340 O   0  0  0  0  0  0  0  0  0  0  0  0
  193.2040  171.8090  141.0350 C   0  0  0  0  0  3  0  0  0  0  0  0
  193.2490  172.6940  139.9470 C   0  0  0  0  0  0  0  0  0  0  0  0
  191.2400  173.7750  140.7690 C   0  0  0  0  0  3  0  0  0  0  0  0
  192.1820  171.9090  141.9830 C   0  0  0  0  0  3  0  0  0  0  0  0
  191.1960  172.8950  141.8630 C   0  0  0  0  0  0  0  0  0  0  0  0
  192.2620  173.6760  139.8210 C   0  0  0  0  0  3  0  0  0  0  0  0
  194.2570  172.6200  138.9820 O   0  0  0  0  0  0  0  0  0  0  0  0
  195.1280  173.7060  138.6960 C   0  0  0  0  0  1  0  0  0  0  0  0
  1  5  1  0  0  0  0
  2 13  2  0  0  0  0
  2 11  1  0  0  0  0
  3 16  1  0  0  0  0
  4  7  2  0  0  0  0
  5  9  2  0  0  0  0
  6  1  2  0  0  0  0
  7 11  1  0  0  0  0
  7  9  1  0  0  0  0
  8  4  1  0  0  0  0
  8  1  1  0  0  0  0
 10  3  1  0  0  0  0
 11 10  2  0  0  0  0
 12  2  1  0  0  0  0
 13 14  1  0  0  0  0
 14  3  2  0  0  0  0
 15 12  2  0  0  0  0
 15  4  1  0  0  0  0
 16 17  1  6  0  0  0
 18 16  1  0  0  0  0
 19 18  1  0  0  0  0
 19 20  2  0  0  0  0
 21 19  1  0  0  0  0
 22 21  1  0  0  0  0
 23 25  2  0  0  0  0
 23 22  1  0  0  0  0
 24 23  2  0  0  0  0
 26 23  1  1  0  0  0
 26 31  1  0  0  0  0
 26 30  1  0  0  0  0
 27 29  1  0  0  0  0
 29 28  2  0  0  0  0
 30 28  1  0  0  0  0
 31 27  1  0  0  0  0
 32 34  1  0  0  0  0
 32 22  1  0  0  0  0
 33 34  1  0  0  0  0
 35 13  1  0  0  0  0
 36 39  1  0  0  0  0
 37 36  2  0  0  0  0
 38 40  1  0  0  0  0
 40 39  2  0  0  0  0
 40 35  1  0  0  0  0
 41 37  1  0  0  0  0
 41 38  2  0  0  0  0
 42 37  1  0  0  0  0
 43 42  1  0  0  0  0
M  END
>  <MODEL>
1

>  <REMARK>
 VINA RESULT:      -6.7      0.000      0.000
  Name = 
  12 active torsions:
  status: ('A' for Active; 'I' for Inactive)
    1  A    between atoms: O_1  and  C_34
    2  A    between atoms: O_1  and  C_35
    3  A    between atoms: C_2  and  C_6
    4  A    between atoms: C_2  and  C_13
    5  A    between atoms: C_3  and  N_4
    6  A    between atoms: C_3  and  C_12
    7  A    between atoms: N_4  and  S_14
    8  A    between atoms: N_4  and  C_15
    9  A    between atoms: C_6  and  C_12
   10  A    between atoms: C_11  and  S_14
   11  A    between atoms: C_15  and  C_42
   12  A    between atoms: C_19  and  O_25
                            x       y       z     vdW  Elec       q    Type
                         _______ _______ _______ _____ _____    ______ ____

>  <TORSDO>
F 12

$$$$
=
 OpenBabel11052421053D

 43 47  0  0  1  0  0  0  0  0999 V2000
  185.4340  177.8410  145.8900 C   0  0  0  0  0  0  0  0  0  0  0  0
  189.0840  175.5700  143.3250 C   0  0  0  0  0  0  0  0  0  0  0  0
  191.3210  175.3520  145.0090 C   0  0  0  0  0  0  0  0  0  0  0  0
  186.7300  176.7580  144.2220 C   0  0  0  0  0  0  0  0  0  0  0  0
  186.5000  177.7830  146.7900 C   0  0  0  0  0  3  0  0  0  0  0  0
  184.0240  178.5240  146.3440 S   0  0  0  0  0  0  0  0  0  0  0  0
  187.8350  176.6740  145.0960 C   0  0  0  0  0  0  0  0  0  0  0  0
  185.5690  177.3330  144.6360 N   0  0  0  0  0  2  0  0  0  0  0  0
  187.7030  177.1980  146.3900 C   0  0  0  0  0  3  0  0  0  0  0  0
  190.1500  175.9610  145.4770 C   0  0  0  0  0  3  0  0  0  0  0  0
  189.0260  176.0740  144.6480 C   0  0  0  0  0  0  0  0  0  0  0  0
  187.9950  175.6700  142.5130 N   0  0  0  0  0  0  0  0  0  0  0  0
  190.2610  174.9680  142.8470 C   0  0  0  0  0  0  0  0  0  0  0  0
  191.3680  174.8610  143.7030 C   0  0  0  0  0  3  0  0  0  0  0  0
  186.8350  176.2460  142.9290 C   0  0  0  0  0  3  0  0  0  0  0  0
  192.5320  175.2260  145.8770 C   0  0  2  0  0  3  0  0  0  0  0  0
  192.1380  175.1260  147.3430 C   0  0  0  0  0  1  0  0  0  0  0  0
  193.4900  176.3900  145.6360 C   0  0  0  0  0  2  0  0  0  0  0  0
  194.8650  175.9180  145.2810 C   0  0  0  0  0  0  0  0  0  0  0  0
  195.5040  175.2470  146.0770 O   0  0  0  0  0  0  0  0  0  0  0  0
  195.3940  176.1550  143.8910 C   0  0  0  0  0  2  0  0  0  0  0  0
  194.7800  175.3310  142.8380 N   0  0  0  0  0  0  0  0  0  0  0  0
  195.5000  173.7470  142.7460 S   0  0  0  0  0  0  0  0  0  0  0  0
  195.4320  173.2170  141.3390 O   0  0  0  0  0  0  0  0  0  0  0  0
  196.9380  173.8120  143.1860 O   0  0  0  0  0  0  0  0  0  0  0  0
  194.6020  172.6490  143.8230 C   0  0  1  0  0  3  0  0  0  0  0  0
  194.7570  171.0040  145.6560 C   0  0  0  0  0  2  0  0  0  0  0  0
  193.2080  170.5590  143.8410 C   0  0  0  0  0  3  0  0  0  0  0  0
  193.7090  170.2470  144.9910 N   0  0  0  0  0  0  0  0  0  0  0  0
  193.7400  171.6930  143.0030 C   0  0  0  0  0  2  0  0  0  0  0  0
  195.5690  171.8440  144.6750 C   0  0  0  0  0  2  0  0  0  0  0  0
  194.8680  175.9810  141.5350 C   0  0  0  0  0  2  0  0  0  0  0  0
  197.0050  176.1700  140.4850 O   0  0  0  0  0  1  0  0  0  0  0  0
  196.1650  176.7660  141.4270 C   0  0  0  0  0  2  0  0  0  0  0  0
  190.2800  174.4670  141.5320 O   0  0  0  0  0  0  0  0  0  0  0  0
  192.0550  171.7950  139.6970 C   0  0  0  0  0  3  0  0  0  0  0  0
  191.4970  170.6340  140.2550 C   0  0  0  0  0  0  0  0  0  0  0  0
  190.1020  172.0120  141.6800 C   0  0  0  0  0  3  0  0  0  0  0  0
  191.6360  173.0550  140.1310 C   0  0  0  0  0  3  0  0  0  0  0  0
  190.6530  173.1770  141.1200 C   0  0  0  0  0  0  0  0  0  0  0  0
  190.5200  170.7510  141.2470 C   0  0  0  0  0  3  0  0  0  0  0  0
  191.8950  169.3580  139.8440 O   0  0  0  0  0  0  0  0  0  0  0  0
  192.4310  169.1000  138.5530 C   0  0  0  0  0  1  0  0  0  0  0  0
  1  6  2  0  0  0  0
  1  5  1  0  0  0  0
  2 11  1  0  0  0  0
  3 10  1  0  0  0  0
  3 16  1  0  0  0  0
  4  8  1  0  0  0  0
  4  7  2  0  0  0  0
  7  9  1  0  0  0  0
  8  1  1  0  0  0  0
  9  5  2  0  0  0  0
 11  7  1  0  0  0  0
 11 10  2  0  0  0  0
 12 15  2  0  0  0  0
 12  2  1  0  0  0  0
 13  2  2  0  0  0  0
 13 14  1  0  0  0  0
 14  3  2  0  0  0  0
 15  4  1  0  0  0  0
 16 17  1  1  0  0  0
 18 16  1  0  0  0  0
 19 18  1  0  0  0  0
 19 20  2  0  0  0  0
 21 19  1  0  0  0  0
 22 21  1  0  0  0  0
 23 22  1  0  0  0  0
 23 25  2  0  0  0  0
 24 23  2  0  0  0  0
 26 23  1  6  0  0  0
 26 31  1  0  0  0  0
 28 29  2  0  0  0  0
 29 27  1  0  0  0  0
 30 26  1  0  0  0  0
 30 28  1  0  0  0  0
 31 27  1  0  0  0  0
 32 22  1  0  0  0  0
 33 34  1  0  0  0  0
 34 32  1  0  0  0  0
 35 13  1  0  0  0  0
 36 39  2  0  0  0  0
 36 37  1  0  0  0  0
 37 41  2  0  0  0  0
 39 40  1  0  0  0  0
 40 35  1  0  0  0  0
 40 38  2  0  0  0  0
 41 38  1  0  0  0  0
 42 37  1  0  0  0  0
 43 42  1  0  0  0  0
M  END
>  <MODEL>
2

>  <REMARK>
 VINA RESULT:      -6.3      1.915      2.638
  Name = 
  12 active torsions:
  status: ('A' for Active; 'I' for Inactive)
    1  A    between atoms: O_1  and  C_34
    2  A    between atoms: O_1  and  C_35
    3  A    between atoms: C_2  and  C_6
    4  A    between atoms: C_2  and  C_13
    5  A    between atoms: C_3  and  N_4
    6  A    between atoms: C_3  and  C_12
    7  A    between atoms: N_4  and  S_14
    8  A    between atoms: N_4  and  C_15
    9  A    between atoms: C_6  and  C_12
   10  A    between atoms: C_11  and  S_14
   11  A    between atoms: C_15  and  C_42
   12  A    between atoms: C_19  and  O_25
                            x       y       z     vdW  Elec       q    Type
                         _______ _______ _______ _____ _____    ______ ____

>  <TORSDO>
F 12

$$$$
=
 OpenBabel11052421053D

 43 47  0  0  1  0  0  0  0  0999 V2000
  185.5080  177.9330  145.5790 C   0  0  0  0  0  0  0  0  0  0  0  0
  188.7940  175.4780  142.7100 C   0  0  0  0  0  0  0  0  0  0  0  0
  191.2280  175.3380  144.1030 C   0  0  0  0  0  0  0  0  0  0  0  0
  186.5760  176.7400  143.8270 C   0  0  0  0  0  0  0  0  0  0  0  0
  186.6800  177.9180  146.3370 C   0  0  0  0  0  3  0  0  0  0  0  0
  184.1680  178.6550  146.1670 S   0  0  0  0  0  0  0  0  0  0  0  0
  187.7840  176.6980  144.5560 C   0  0  0  0  0  0  0  0  0  0  0  0
  185.4790  177.3500  144.3510 N   0  0  0  0  0  2  0  0  0  0  0  0
  187.8200  177.2980  145.8230 C   0  0  0  0  0  3  0  0  0  0  0  0
  190.1280  175.9860  144.6810 C   0  0  0  0  0  3  0  0  0  0  0  0
  188.9070  176.0600  143.9960 C   0  0  0  0  0  0  0  0  0  0  0  0
  187.6100  175.5400  142.0390 N   0  0  0  0  0  0  0  0  0  0  0  0
  189.8980  174.8370  142.1220 C   0  0  0  0  0  0  0  0  0  0  0  0
  191.1060  174.7700  142.8340 C   0  0  0  0  0  3  0  0  0  0  0  0
  186.5140  176.1510  142.5640 C   0  0  0  0  0  3  0  0  0  0  0  0
  192.5400  175.2520  144.8160 C   0  0  2  0  0  3  0  0  0  0  0  0
  192.3330  175.1140  146.3160 C   0  0  0  0  0  1  0  0  0  0  0  0
  193.4120  176.4600  144.4830 C   0  0  0  0  0  2  0  0  0  0  0  0
  194.5830  176.5770  145.4090 C   0  0  0  0  0  0  0  0  0  0  0  0
  194.6070  177.4610  146.2520 O   0  0  0  0  0  0  0  0  0  0  0  0
  195.6540  175.5180  145.3870 C   0  0  0  0  0  2  0  0  0  0  0  0
  196.0610  175.0670  144.0460 N   0  0  0  0  0  0  0  0  0  0  0  0
  196.7240  173.4570  144.0740 S   0  0  0  0  0  0  0  0  0  0  0  0
  197.8130  173.3160  143.0450 O   0  0  0  0  0  0  0  0  0  0  0  0
  197.2850  173.1560  145.4380 O   0  0  0  0  0  0  0  0  0  0  0  0
  195.4230  172.2980  143.7030 C   0  0  1  0  0  3  0  0  0  0  0  0
  193.4330  171.8340  142.3180 C   0  0  0  0  0  2  0  0  0  0  0  0
  193.3710  171.2150  144.6650 C   0  0  0  0  0  3  0  0  0  0  0  0
  192.8280  171.2250  143.4920 N   0  0  0  0  0  0  0  0  0  0  0  0
  194.6550  171.9400  144.9720 C   0  0  0  0  0  2  0  0  0  0  0  0
  194.4610  172.8980  142.6900 C   0  0  0  0  0  2  0  0  0  0  0  0
  197.0300  175.9810  143.4510 C   0  0  0  0  0  2  0  0  0  0  0  0
  196.5360  175.8020  141.1210 O   0  0  0  0  0  1  0  0  0  0  0  0
  196.4350  176.6510  142.2240 C   0  0  0  0  0  2  0  0  0  0  0  0
  189.7480  174.2590  140.8480 O   0  0  0  0  0  0  0  0  0  0  0  0
  191.9260  172.0090  138.8850 C   0  0  0  0  0  3  0  0  0  0  0  0
  191.5920  170.7490  139.4040 C   0  0  0  0  0  0  0  0  0  0  0  0
  190.0060  171.8070  140.9010 C   0  0  0  0  0  3  0  0  0  0  0  0
  191.3010  173.1600  139.3740 C   0  0  0  0  0  3  0  0  0  0  0  0
  190.3320  173.0700  140.3800 C   0  0  0  0  0  0  0  0  0  0  0  0
  190.6300  170.6560  140.4130 C   0  0  0  0  0  3  0  0  0  0  0  0
  192.1990  169.5790  138.9370 O   0  0  0  0  0  0  0  0  0  0  0  0
  191.4950  168.3530  138.7970 C   0  0  0  0  0  1  0  0  0  0  0  0
  1  6  2  0  0  0  0
  1  5  1  0  0  0  0
  2 11  1  0  0  0  0
  3 10  1  0  0  0  0
  3 16  1  0  0  0  0
  4  8  1  0  0  0  0
  4  7  2  0  0  0  0
  7  9  1  0  0  0  0
  8  1  1  0  0  0  0
  9  5  2  0  0  0  0
 11  7  1  0  0  0  0
 11 10  2  0  0  0  0
 12 15  2  0  0  0  0
 12  2  1  0  0  0  0
 13  2  2  0  0  0  0
 13 14  1  0  0  0  0
 14  3  2  0  0  0  0
 15  4  1  0  0  0  0
 16 17  1  1  0  0  0
 18 16  1  0  0  0  0
 18 19  1  0  0  0  0
 19 20  2  0  0  0  0
 21 19  1  0  0  0  0
 22 23  1  0  0  0  0
 22 21  1  0  0  0  0
 23 25  2  0  0  0  0
 24 23  2  0  0  0  0
 26 23  1  1  0  0  0
 26 30  1  0  0  0  0
 27 31  1  0  0  0  0
 27 29  1  0  0  0  0
 28 30  1  0  0  0  0
 29 28  2  0  0  0  0
 31 26  1  0  0  0  0
 32 22  1  0  0  0  0
 33 34  1  0  0  0  0
 34 32  1  0  0  0  0
 35 13  1  0  0  0  0
 36 39  2  0  0  0  0
 36 37  1  0  0  0  0
 37 41  2  0  0  0  0
 39 40  1  0  0  0  0
 40 35  1  0  0  0  0
 40 38  2  0  0  0  0
 41 38  1  0  0  0  0
 42 37  1  0  0  0  0
 43 42  1  0  0  0  0
M  END
>  <MODEL>
3

>  <REMARK>
 VINA RESULT:      -6.2      2.081      2.866
  Name = 
  12 active torsions:
  status: ('A' for Active; 'I' for Inactive)
    1  A    between atoms: O_1  and  C_34
    2  A    between atoms: O_1  and  C_35
    3  A    between atoms: C_2  and  C_6
    4  A    between atoms: C_2  and  C_13
    5  A    between atoms: C_3  and  N_4
    6  A    between atoms: C_3  and  C_12
    7  A    between atoms: N_4  and  S_14
    8  A    between atoms: N_4  and  C_15
    9  A    between atoms: C_6  and  C_12
   10  A    between atoms: C_11  and  S_14
   11  A    between atoms: C_15  and  C_42
   12  A    between atoms: C_19  and  O_25
                            x       y       z     vdW  Elec       q    Type
                         _______ _______ _______ _____ _____    ______ ____

>  <TORSDO>
F 12

$$$$
=
 OpenBabel11052421053D

 43 47  0  0  1  0  0  0  0  0999 V2000
  185.3150  178.0240  144.6680 C   0  0  0  0  0  0  0  0  0  0  0  0
  189.3910  175.1180  144.6730 C   0  0  0  0  0  0  0  0  0  0  0  0
  189.8580  174.2740  142.0350 C   0  0  0  0  0  0  0  0  0  0  0  0
  187.2380  176.7760  145.2840 C   0  0  0  0  0  0  0  0  0  0  0  0
  185.4670  177.6450  143.3320 C   0  0  0  0  0  3  0  0  0  0  0  0
  184.0760  178.9930  145.1020 S   0  0  0  0  0  0  0  0  0  0  0  0
  187.4340  176.3670  143.9470 C   0  0  0  0  0  0  0  0  0  0  0  0
  186.1940  177.5860  145.6080 N   0  0  0  0  0  2  0  0  0  0  0  0
  186.5300  176.8140  142.9730 C   0  0  0  0  0  3  0  0  0  0  0  0
  188.7630  175.1000  142.3220 C   0  0  0  0  0  3  0  0  0  0  0  0
  188.5210  175.5300  143.6330 C   0  0  0  0  0  0  0  0  0  0  0  0
  189.1670  175.5350  145.9500 N   0  0  0  0  0  0  0  0  0  0  0  0
  190.4840  174.2790  144.3920 C   0  0  0  0  0  0  0  0  0  0  0  0
  190.7070  173.8710  143.0680 C   0  0  0  0  0  3  0  0  0  0  0  0
  188.1220  176.3450  146.2720 C   0  0  0  0  0  3  0  0  0  0  0  0
  190.1300  173.8000  140.6430 C   0  0  2  0  0  3  0  0  0  0  0  0
  188.8860  173.9220  139.7770 C   0  0  0  0  0  1  0  0  0  0  0  0
  190.6610  172.3700  140.6560 C   0  0  0  0  0  2  0  0  0  0  0  0
  191.2090  171.9630  139.3240 C   0  0  0  0  0  0  0  0  0  0  0  0
  190.7860  170.9590  138.7710 O   0  0  0  0  0  0  0  0  0  0  0  0
  192.1750  172.8730  138.6110 C   0  0  0  0  0  2  0  0  0  0  0  0
  193.4680  173.0680  139.2870 N   0  0  0  0  0  0  0  0  0  0  0  0
  194.3140  174.4660  138.6850 S   0  0  0  0  0  0  0  0  0  0  0  0
  195.6160  174.0610  138.0470 O   0  0  0  0  0  0  0  0  0  0  0  0
  193.4640  175.1830  137.6710 O   0  0  0  0  0  0  0  0  0  0  0  0
  194.6540  175.5590  140.0500 C   0  0  1  0  0  3  0  0  0  0  0  0
  196.3830  176.4730  141.5550 C   0  0  0  0  0  2  0  0  0  0  0  0
  194.2240  175.8930  142.5020 C   0  0  0  0  0  3  0  0  0  0  0  0
  195.4060  176.4020  142.6300 N   0  0  0  0  0  0  0  0  0  0  0  0
  193.7650  175.2100  141.2400 C   0  0  0  0  0  2  0  0  0  0  0  0
  196.1120  175.4420  140.4640 C   0  0  0  0  0  2  0  0  0  0  0  0
  194.3190  171.8900  139.1540 C   0  0  0  0  0  2  0  0  0  0  0  0
  194.0680  171.7270  141.5240 O   0  0  0  0  0  1  0  0  0  0  0  0
  194.9840  171.5710  140.4820 C   0  0  0  0  0  2  0  0  0  0  0  0
  191.3340  173.8980  145.4460 O   0  0  0  0  0  0  0  0  0  0  0  0
  194.9130  173.1200  144.9510 C   0  0  0  0  0  3  0  0  0  0  0  0
  195.5400  174.2360  145.5260 C   0  0  0  0  0  0  0  0  0  0  0  0
  193.3630  175.1540  146.0700 C   0  0  0  0  0  3  0  0  0  0  0  0
  193.5190  173.0250  144.9380 C   0  0  0  0  0  3  0  0  0  0  0  0
  192.7310  174.0350  145.5010 C   0  0  0  0  0  0  0  0  0  0  0  0
  194.7570  175.2510  146.0840 C   0  0  0  0  0  3  0  0  0  0  0  0
  196.9320  174.3620  145.5550 O   0  0  0  0  0  0  0  0  0  0  0  0
  197.7520  174.0650  144.4330 C   0  0  0  0  0  1  0  0  0  0  0  0
  1  6  2  0  0  0  0
  1  8  1  0  0  0  0
  2 12  1  0  0  0  0
  3 10  2  0  0  0  0
  3 14  1  0  0  0  0
  4  8  1  0  0  0  0
  4 15  1  0  0  0  0
  5  1  1  0  0  0  0
  7  4  2  0  0  0  0
  9  5  2  0  0  0  0
  9  7  1  0  0  0  0
 10 11  1  0  0  0  0
 11  7  1  0  0  0  0
 11  2  2  0  0  0  0
 12 15  2  0  0  0  0
 13  2  1  0  0  0  0
 13 35  1  0  0  0  0
 14 13  2  0  0  0  0
 16 17  1  6  0  0  0
 16 18  1  0  0  0  0
 16  3  1  0  0  0  0
 19 18  1  0  0  0  0
 20 19  2  0  0  0  0
 21 22  1  0  0  0  0
 21 19  1  0  0  0  0
 23 22  1  0  0  0  0
 24 23  2  0  0  0  0
 25 23  2  0  0  0  0
 26 23  1  6  0  0  0
 26 31  1  0  0  0  0
 26 30  1  0  0  0  0
 27 29  1  0  0  0  0
 28 29  2  0  0  0  0
 30 28  1  0  0  0  0
 31 27  1  0  0  0  0
 32 22  1  0  0  0  0
 32 34  1  0  0  0  0
 34 33  1  0  0  0  0
 35 40  1  0  0  0  0
 36 37  1  0  0  0  0
 37 42  1  0  0  0  0
 37 41  2  0  0  0  0
 38 41  1  0  0  0  0
 39 36  2  0  0  0  0
 39 40  1  0  0  0  0
 40 38  2  0  0  0  0
 43 42  1  0  0  0  0
M  END
>  <MODEL>
4

>  <REMARK>
 VINA RESULT:      -6.1      2.318      5.242
  Name = 
  12 active torsions:
  status: ('A' for Active; 'I' for Inactive)
    1  A    between atoms: O_1  and  C_34
    2  A    between atoms: O_1  and  C_35
    3  A    between atoms: C_2  and  C_6
    4  A    between atoms: C_2  and  C_13
    5  A    between atoms: C_3  and  N_4
    6  A    between atoms: C_3  and  C_12
    7  A    between atoms: N_4  and  S_14
    8  A    between atoms: N_4  and  C_15
    9  A    between atoms: C_6  and  C_12
   10  A    between atoms: C_11  and  S_14
   11  A    between atoms: C_15  and  C_42
   12  A    between atoms: C_19  and  O_25
                            x       y       z     vdW  Elec       q    Type
                         _______ _______ _______ _____ _____    ______ ____

>  <TORSDO>
F 12

$$$$
=
 OpenBabel11052421053D

 43 47  0  0  1  0  0  0  0  0999 V2000
  186.4260  177.6650  146.4650 C   0  0  0  0  0  0  0  0  0  0  0  0
  190.9660  176.0440  145.1170 C   0  0  0  0  0  0  0  0  0  0  0  0
  190.7410  174.8350  142.5920 C   0  0  0  0  0  0  0  0  0  0  0  0
  188.7400  177.1420  146.3800 C   0  0  0  0  0  0  0  0  0  0  0  0
  186.2220  177.0770  145.2150 C   0  0  0  0  0  3  0  0  0  0  0  0
  185.1680  178.3290  147.2650 S   0  0  0  0  0  0  0  0  0  0  0  0
  188.5840  176.5370  145.1150 C   0  0  0  0  0  0  0  0  0  0  0  0
  187.6680  177.6860  147.0170 N   0  0  0  0  0  2  0  0  0  0  0  0
  187.3050  176.5110  144.5400 C   0  0  0  0  0  3  0  0  0  0  0  0
  189.6060  175.3730  143.2130 C   0  0  0  0  0  3  0  0  0  0  0  0
  189.7060  175.9810  144.4720 C   0  0  0  0  0  0  0  0  0  0  0  0
  191.0730  176.6370  146.3380 N   0  0  0  0  0  0  0  0  0  0  0  0
  192.1050  175.4940  144.5030 C   0  0  0  0  0  0  0  0  0  0  0  0
  191.9770  174.9000  143.2380 C   0  0  0  0  0  3  0  0  0  0  0  0
  190.0010  177.1800  146.9740 C   0  0  0  0  0  3  0  0  0  0  0  0
  190.6550  174.1780  141.2510 C   0  0  2  0  0  3  0  0  0  0  0  0
  189.2050  173.9430  140.8570 C   0  0  0  0  0  1  0  0  0  0  0  0
  191.4530  172.8770  141.2380 C   0  0  0  0  0  2  0  0  0  0  0  0
  192.5000  172.8740  140.1690 C   0  0  0  0  0  0  0  0  0  0  0  0
  192.5270  173.7710  139.3390 O   0  0  0  0  0  0  0  0  0  0  0  0
  193.5980  171.8440  140.2100 C   0  0  0  0  0  2  0  0  0  0  0  0
  194.4160  171.8480  141.4340 N   0  0  0  0  0  0  0  0  0  0  0  0
  195.9750  172.5800  141.1730 S   0  0  0  0  0  0  0  0  0  0  0  0
  197.0760  171.6370  141.5800 O   0  0  0  0  0  0  0  0  0  0  0  0
  196.1370  172.9390  139.7210 O   0  0  0  0  0  0  0  0  0  0  0  0
  196.0840  174.0580  142.1620 C   0  0  1  0  0  3  0  0  0  0  0  0
  195.3490  176.3980  142.4280 C   0  0  0  0  0  2  0  0  0  0  0  0
  197.6690  175.8620  142.9000 C   0  0  0  0  0  3  0  0  0  0  0  0
  196.6940  176.7110  142.8820 N   0  0  0  0  0  0  0  0  0  0  0  0
  197.5430  174.4680  142.3410 C   0  0  0  0  0  2  0  0  0  0  0  0
  195.3230  175.1920  141.4950 C   0  0  0  0  0  2  0  0  0  0  0  0
  194.5940  170.4980  141.9580 C   0  0  0  0  0  2  0  0  0  0  0  0
  192.7060  169.9370  143.3080 O   0  0  0  0  0  1  0  0  0  0  0  0
  193.2560  169.7840  142.0350 C   0  0  0  0  0  2  0  0  0  0  0  0
  193.3420  175.5840  145.1660 O   0  0  0  0  0  0  0  0  0  0  0  0
  194.7550  172.1710  145.2840 C   0  0  0  0  0  3  0  0  0  0  0  0
  196.0610  172.4070  145.7410 C   0  0  0  0  0  0  0  0  0  0  0  0
  195.5770  174.7810  145.8320 C   0  0  0  0  0  3  0  0  0  0  0  0
  193.8680  173.2360  145.1040 C   0  0  0  0  0  3  0  0  0  0  0  0
  194.2670  174.5480  145.3810 C   0  0  0  0  0  0  0  0  0  0  0  0
  196.4650  173.7180  146.0130 C   0  0  0  0  0  3  0  0  0  0  0  0
  196.9720  171.3650  145.9310 O   0  0  0  0  0  0  0  0  0  0  0  0
  197.5700  170.6620  144.8500 C   0  0  0  0  0  1  0  0  0  0  0  0
  1  8  1  0  0  0  0
  1  6  2  0  0  0  0
  2 12  1  0  0  0  0
  3 10  2  0  0  0  0
  3 14  1  0  0  0  0
  4 15  1  0  0  0  0
  4  8  1  0  0  0  0
  5  1  1  0  0  0  0
  7  4  2  0  0  0  0
  9  7  1  0  0  0  0
  9  5  2  0  0  0  0
 10 11  1  0  0  0  0
 11  7  1  0  0  0  0
 11  2  2  0  0  0  0
 12 15  2  0  0  0  0
 13  2  1  0  0  0  0
 13 35  1  0  0  0  0
 14 13  2  0  0  0  0
 16 17  1  1  0  0  0
 16  3  1  0  0  0  0
 18 16  1  0  0  0  0
 19 21  1  0  0  0  0
 19 18  1  0  0  0  0
 20 19  2  0  0  0  0
 21 22  1  0  0  0  0
 22 32  1  0  0  0  0
 23 22  1  0  0  0  0
 23 24  2  0  0  0  0
 25 23  2  0  0  0  0
 26 23  1  6  0  0  0
 26 30  1  0  0  0  0
 27 29  1  0  0  0  0
 29 28  2  0  0  0  0
 30 28  1  0  0  0  0
 31 26  1  0  0  0  0
 31 27  1  0  0  0  0
 32 34  1  0  0  0  0
 34 33  1  0  0  0  0
 35 40  1  0  0  0  0
 36 37  1  0  0  0  0
 37 42  1  0  0  0  0
 37 41  2  0  0  0  0
 38 41  1  0  0  0  0
 39 36  2  0  0  0  0
 39 40  1  0  0  0  0
 40 38  2  0  0  0  0
 43 42  1  0  0  0  0
M  END
>  <MODEL>
5

>  <REMARK>
 VINA RESULT:      -6.0      2.453      5.155
  Name = 
  12 active torsions:
  status: ('A' for Active; 'I' for Inactive)
    1  A    between atoms: O_1  and  C_34
    2  A    between atoms: O_1  and  C_35
    3  A    between atoms: C_2  and  C_6
    4  A    between atoms: C_2  and  C_13
    5  A    between atoms: C_3  and  N_4
    6  A    between atoms: C_3  and  C_12
    7  A    between atoms: N_4  and  S_14
    8  A    between atoms: N_4  and  C_15
    9  A    between atoms: C_6  and  C_12
   10  A    between atoms: C_11  and  S_14
   11  A    between atoms: C_15  and  C_42
   12  A    between atoms: C_19  and  O_25
                            x       y       z     vdW  Elec       q    Type
                         _______ _______ _______ _____ _____    ______ ____

>  <TORSDO>
F 12

$$$$
=
 OpenBabel11052421053D

 43 47  0  0  1  0  0  0  0  0999 V2000
  186.0380  178.7560  144.0750 C   0  0  0  0  0  0  0  0  0  0  0  0
  188.1650  175.2930  141.1530 C   0  0  0  0  0  0  0  0  0  0  0  0
  189.6380  173.5560  142.7970 C   0  0  0  0  0  0  0  0  0  0  0  0
  186.7520  177.4340  142.2370 C   0  0  0  0  0  0  0  0  0  0  0  0
  186.7500  177.9480  144.9640 C   0  0  0  0  0  3  0  0  0  0  0  0
  185.1870  180.0290  144.6370 S   0  0  0  0  0  0  0  0  0  0  0  0
  187.4860  176.5880  143.0960 C   0  0  0  0  0  0  0  0  0  0  0  0
  186.0530  178.4850  142.7420 N   0  0  0  0  0  2  0  0  0  0  0  0
  187.4760  176.8620  144.4710 C   0  0  0  0  0  3  0  0  0  0  0  0
  188.9410  174.6320  143.3620 C   0  0  0  0  0  3  0  0  0  0  0  0
  188.2010  175.5040  142.5530 C   0  0  0  0  0  0  0  0  0  0  0  0
  187.4440  176.1320  140.3590 N   0  0  0  0  0  0  0  0  0  0  0  0
  188.8720  174.2210  140.5790 C   0  0  0  0  0  0  0  0  0  0  0  0
  189.5970  173.3580  141.4150 C   0  0  0  0  0  3  0  0  0  0  0  0
  186.7460  177.1830  140.8650 C   0  0  0  0  0  3  0  0  0  0  0  0
  190.4370  172.6170  143.6430 C   0  0  2  0  0  3  0  0  0  0  0  0
  189.6920  172.2760  144.9240 C   0  0  0  0  0  1  0  0  0  0  0  0
  191.8150  173.2020  143.9400 C   0  0  0  0  0  2  0  0  0  0  0  0
  192.8420  172.7430  142.9520 C   0  0  0  0  0  0  0  0  0  0  0  0
  192.6580  171.7190  142.3130 O   0  0  0  0  0  0  0  0  0  0  0  0
  194.0270  173.6240  142.6520 C   0  0  0  0  0  2  0  0  0  0  0  0
  194.6120  174.3060  143.8180 N   0  0  0  0  0  0  0  0  0  0  0  0
  194.5400  176.0390  143.6630 S   0  0  0  0  0  0  0  0  0  0  0  0
  195.8930  176.6480  143.9170 O   0  0  0  0  0  0  0  0  0  0  0  0
  194.0770  176.4120  142.2810 O   0  0  0  0  0  0  0  0  0  0  0  0
  193.3860  176.6720  144.8630 C   0  0  1  0  0  3  0  0  0  0  0  0
  192.4090  176.3820  147.1110 C   0  0  0  0  0  2  0  0  0  0  0  0
  190.9360  177.0260  145.2920 C   0  0  0  0  0  3  0  0  0  0  0  0
  191.1320  176.7900  146.5490 N   0  0  0  0  0  0  0  0  0  0  0  0
  191.9950  176.7920  144.2460 C   0  0  0  0  0  2  0  0  0  0  0  0
  193.3200  175.7450  146.0660 C   0  0  0  0  0  2  0  0  0  0  0  0
  195.9950  173.8940  144.0360 C   0  0  0  0  0  2  0  0  0  0  0  0
  195.0790  172.5210  145.7620 O   0  0  0  0  0  1  0  0  0  0  0  0
  196.1630  173.3400  145.4410 C   0  0  0  0  0  2  0  0  0  0  0  0
  188.8050  174.0330  139.1870 O   0  0  0  0  0  0  0  0  0  0  0  0
  191.8690  173.0390  137.3750 C   0  0  0  0  0  3  0  0  0  0  0  0
  191.5050  171.7930  136.8410 C   0  0  0  0  0  0  0  0  0  0  0  0
  189.3170  172.0180  137.8600 C   0  0  0  0  0  3  0  0  0  0  0  0
  190.9590  173.7670  138.1460 C   0  0  0  0  0  3  0  0  0  0  0  0
  189.6750  173.2680  138.3900 C   0  0  0  0  0  0  0  0  0  0  0  0
  190.2250  171.2890  137.0880 C   0  0  0  0  0  3  0  0  0  0  0  0
  192.3920  171.0390  136.0660 O   0  0  0  0  0  0  0  0  0  0  0  0
  192.0190  170.4500  134.8280 C   0  0  0  0  0  1  0  0  0  0  0  0
  1  6  2  0  0  0  0
  1  5  1  0  0  0  0
  2 11  1  0  0  0  0
  3 10  1  0  0  0  0
  3 16  1  0  0  0  0
  4  8  1  0  0  0  0
  4  7  2  0  0  0  0
  7  9  1  0  0  0  0
  8  1  1  0  0  0  0
  9  5  2  0  0  0  0
 11  7  1  0  0  0  0
 11 10  2  0  0  0  0
 12 15  2  0  0  0  0
 12  2  1  0  0  0  0
 13  2  2  0  0  0  0
 13 14  1  0  0  0  0
 14  3  2  0  0  0  0
 15  4  1  0  0  0  0
 16 18  1  0  0  0  0
 16 17  1  1  0  0  0
 19 18  1  0  0  0  0
 20 19  2  0  0  0  0
 21 19  1  0  0  0  0
 21 22  1  0  0  0  0
 22 32  1  0  0  0  0
 23 22  1  0  0  0  0
 23 24  2  0  0  0  0
 25 23  2  0  0  0  0
 26 23  1  6  0  0  0
 26 31  1  0  0  0  0
 28 29  2  0  0  0  0
 29 27  1  0  0  0  0
 30 26  1  0  0  0  0
 30 28  1  0  0  0  0
 31 27  1  0  0  0  0
 32 34  1  0  0  0  0
 34 33  1  0  0  0  0
 35 13  1  0  0  0  0
 36 39  1  0  0  0  0
 37 41  1  0  0  0  0
 37 36  2  0  0  0  0
 38 40  1  0  0  0  0
 39 40  2  0  0  0  0
 40 35  1  0  0  0  0
 41 38  2  0  0  0  0
 42 37  1  0  0  0  0
 43 42  1  0  0  0  0
M  END
>  <MODEL>
6

>  <REMARK>
 VINA RESULT:      -6.0      2.355      4.095
  Name = 
  12 active torsions:
  status: ('A' for Active; 'I' for Inactive)
    1  A    between atoms: O_1  and  C_34
    2  A    between atoms: O_1  and  C_35
    3  A    between atoms: C_2  and  C_6
    4  A    between atoms: C_2  and  C_13
    5  A    between atoms: C_3  and  N_4
    6  A    between atoms: C_3  and  C_12
    7  A    between atoms: N_4  and  S_14
    8  A    between atoms: N_4  and  C_15
    9  A    between atoms: C_6  and  C_12
   10  A    between atoms: C_11  and  S_14
   11  A    between atoms: C_15  and  C_42
   12  A    between atoms: C_19  and  O_25
                            x       y       z     vdW  Elec       q    Type
                         _______ _______ _______ _____ _____    ______ ____

>  <TORSDO>
F 12

$$$$
=
 OpenBabel11052421053D

 43 47  0  0  1  0  0  0  0  0999 V2000
  185.4790  178.0970  144.0700 C   0  0  0  0  0  0  0  0  0  0  0  0
  189.2700  174.9780  143.0940 C   0  0  0  0  0  0  0  0  0  0  0  0
  191.3050  175.4730  144.9650 C   0  0  0  0  0  0  0  0  0  0  0  0
  186.8920  176.4260  143.1500 C   0  0  0  0  0  0  0  0  0  0  0  0
  186.4400  178.4150  145.0320 C   0  0  0  0  0  3  0  0  0  0  0  0
  184.0610  178.9040  144.0400 S   0  0  0  0  0  0  0  0  0  0  0  0
  187.8930  176.7100  144.1040 C   0  0  0  0  0  0  0  0  0  0  0  0
  185.7210  177.1190  143.1570 N   0  0  0  0  0  2  0  0  0  0  0  0
  187.6500  177.7190  145.0470 C   0  0  0  0  0  3  0  0  0  0  0  0
  190.1200  176.2200  145.0060 C   0  0  0  0  0  3  0  0  0  0  0  0
  189.0970  175.9810  144.0800 C   0  0  0  0  0  0  0  0  0  0  0  0
  188.2790  174.7340  142.1930 N   0  0  0  0  0  0  0  0  0  0  0  0
  190.4620  174.2340  143.0420 C   0  0  0  0  0  0  0  0  0  0  0  0
  191.4670  174.4890  143.9880 C   0  0  0  0  0  3  0  0  0  0  0  0
  187.1090  175.4290  142.2010 C   0  0  0  0  0  3  0  0  0  0  0  0
  192.4110  175.7160  145.9430 C   0  0  2  0  0  3  0  0  0  0  0  0
  191.8790  176.3720  147.2070 C   0  0  0  0  0  1  0  0  0  0  0  0
  193.5170  176.5520  145.3050 C   0  0  0  0  0  2  0  0  0  0  0  0
  194.8600  175.9050  145.4470 C   0  0  0  0  0  0  0  0  0  0  0  0
  195.1670  175.3630  146.4980 O   0  0  0  0  0  0  0  0  0  0  0  0
  195.7640  175.8040  144.2470 C   0  0  0  0  0  2  0  0  0  0  0  0
  195.7060  174.5230  143.5240 N   0  0  0  0  0  0  0  0  0  0  0  0
  197.0990  173.5280  143.8470 S   0  0  0  0  0  0  0  0  0  0  0  0
  197.9350  173.3720  142.6050 O   0  0  0  0  0  0  0  0  0  0  0  0
  197.9320  174.1500  144.9350 O   0  0  0  0  0  0  0  0  0  0  0  0
  196.5410  171.9210  144.3760 C   0  0  1  0  0  3  0  0  0  0  0  0
  194.9100  170.6710  145.7420 C   0  0  0  0  0  2  0  0  0  0  0  0
  197.2150  169.9100  145.7230 C   0  0  0  0  0  3  0  0  0  0  0  0
  195.9840  169.7520  146.0850 N   0  0  0  0  0  0  0  0  0  0  0  0
  197.6960  171.1360  144.9910 C   0  0  0  0  0  2  0  0  0  0  0  0
  195.4310  172.0640  145.4050 C   0  0  0  0  0  2  0  0  0  0  0  0
  195.5790  174.7300  142.0850 C   0  0  0  0  0  2  0  0  0  0  0  0
  196.8400  176.4210  140.9640 O   0  0  0  0  0  1  0  0  0  0  0  0
  195.7100  176.2070  141.7550 C   0  0  0  0  0  2  0  0  0  0  0  0
  190.5970  173.2380  142.0570 O   0  0  0  0  0  0  0  0  0  0  0  0
  192.7850  173.9330  139.1610 C   0  0  0  0  0  3  0  0  0  0  0  0
  191.9110  173.7470  138.0790 C   0  0  0  0  0  0  0  0  0  0  0  0
  190.1280  173.2210  139.6360 C   0  0  0  0  0  3  0  0  0  0  0  0
  192.3300  173.7630  140.4720 C   0  0  0  0  0  3  0  0  0  0  0  0
  190.9980  173.4130  140.7220 C   0  0  0  0  0  0  0  0  0  0  0  0
  190.5820  173.3900  138.3250 C   0  0  0  0  0  3  0  0  0  0  0  0
  192.3350  173.9070  136.7570 O   0  0  0  0  0  0  0  0  0  0  0  0
  192.6350  175.1780  136.1970 C   0  0  0  0  0  1  0  0  0  0  0  0
  1  5  1  0  0  0  0
  2 11  1  0  0  0  0
  3 10  1  0  0  0  0
  3 16  1  0  0  0  0
  4  8  1  0  0  0  0
  4  7  2  0  0  0  0
  5  9  2  0  0  0  0
  6  1  2  0  0  0  0
  7  9  1  0  0  0  0
  8  1  1  0  0  0  0
 11  7  1  0  0  0  0
 11 10  2  0  0  0  0
 12 15  2  0  0  0  0
 12  2  1  0  0  0  0
 13  2  2  0  0  0  0
 13 14  1  0  0  0  0
 14  3  2  0  0  0  0
 15  4  1  0  0  0  0
 16 17  1  1  0  0  0
 18 19  1  0  0  0  0
 18 16  1  0  0  0  0
 19 20  2  0  0  0  0
 21 19  1  0  0  0  0
 22 23  1  0  0  0  0
 22 21  1  0  0  0  0
 23 25  2  0  0  0  0
 24 23  2  0  0  0  0
 26 23  1  1  0  0  0
 26 30  1  0  0  0  0
 26 31  1  0  0  0  0
 27 29  1  0  0  0  0
 28 29  2  0  0  0  0
 30 28  1  0  0  0  0
 31 27  1  0  0  0  0
 32 22  1  0  0  0  0
 33 34  1  0  0  0  0
 34 32  1  0  0  0  0
 35 13  1  0  0  0  0
 36 39  1  0  0  0  0
 37 41  1  0  0  0  0
 37 36  2  0  0  0  0
 38 40  1  0  0  0  0
 39 40  2  0  0  0  0
 40 35  1  0  0  0  0
 41 38  2  0  0  0  0
 42 37  1  0  0  0  0
 43 42  1  0  0  0  0
M  END
>  <MODEL>
7

>  <REMARK>
 VINA RESULT:      -5.9      1.835      2.400
  Name = 
  12 active torsions:
  status: ('A' for Active; 'I' for Inactive)
    1  A    between atoms: O_1  and  C_34
    2  A    between atoms: O_1  and  C_35
    3  A    between atoms: C_2  and  C_6
    4  A    between atoms: C_2  and  C_13
    5  A    between atoms: C_3  and  N_4
    6  A    between atoms: C_3  and  C_12
    7  A    between atoms: N_4  and  S_14
    8  A    between atoms: N_4  and  C_15
    9  A    between atoms: C_6  and  C_12
   10  A    between atoms: C_11  and  S_14
   11  A    between atoms: C_15  and  C_42
   12  A    between atoms: C_19  and  O_25
                            x       y       z     vdW  Elec       q    Type
                         _______ _______ _______ _____ _____    ______ ____

>  <TORSDO>
F 12

$$$$
=
 OpenBabel11052421053D

 43 47  0  0  1  0  0  0  0  0999 V2000
  185.4670  177.8130  146.0740 C   0  0  0  0  0  0  0  0  0  0  0  0
  189.0180  175.6200  143.3090 C   0  0  0  0  0  0  0  0  0  0  0  0
  191.3460  175.4430  144.8700 C   0  0  0  0  0  0  0  0  0  0  0  0
  186.6920  176.7590  144.3350 C   0  0  0  0  0  0  0  0  0  0  0  0
  186.5810  177.7730  146.9150 C   0  0  0  0  0  3  0  0  0  0  0  0
  184.0700  178.4660  146.6050 S   0  0  0  0  0  0  0  0  0  0  0  0
  187.8440  176.6950  145.1490 C   0  0  0  0  0  0  0  0  0  0  0  0
  185.5440  177.3100  144.8130 N   0  0  0  0  0  2  0  0  0  0  0  0
  187.7710  177.2130  146.4500 C   0  0  0  0  0  3  0  0  0  0  0  0
  190.1900  176.0280  145.4030 C   0  0  0  0  0  3  0  0  0  0  0  0
  189.0210  176.1200  144.6350 C   0  0  0  0  0  0  0  0  0  0  0  0
  187.8850  175.7000  142.5580 N   0  0  0  0  0  0  0  0  0  0  0  0
  190.1790  175.0420  142.7670 C   0  0  0  0  0  0  0  0  0  0  0  0
  191.3320  174.9560  143.5620 C   0  0  0  0  0  3  0  0  0  0  0  0
  186.7380  176.2520  143.0370 C   0  0  0  0  0  3  0  0  0  0  0  0
  192.6050  175.3390  145.6710 C   0  0  2  0  0  3  0  0  0  0  0  0
  192.2950  175.2920  147.1590 C   0  0  0  0  0  1  0  0  0  0  0  0
  193.5510  176.4880  145.3360 C   0  0  0  0  0  2  0  0  0  0  0  0
  194.8360  176.0000  144.7440 C   0  0  0  0  0  0  0  0  0  0  0  0
  195.6280  176.7980  144.2650 O   0  0  0  0  0  0  0  0  0  0  0  0
  195.2060  174.5450  144.8710 C   0  0  0  0  0  2  0  0  0  0  0  0
  196.2360  174.0760  143.9290 N   0  0  0  0  0  0  0  0  0  0  0  0
  195.5590  173.1020  142.6540 S   0  0  0  0  0  0  0  0  0  0  0  0
  196.2750  171.7810  142.5630 O   0  0  0  0  0  0  0  0  0  0  0  0
  194.0970  172.8600  142.9150 O   0  0  0  0  0  0  0  0  0  0  0  0
  195.7480  173.9710  141.1110 C   0  0  1  0  0  3  0  0  0  0  0  0
  196.2650  173.7780  138.7060 C   0  0  0  0  0  2  0  0  0  0  0  0
  197.1760  175.6660  139.9290 C   0  0  0  0  0  3  0  0  0  0  0  0
  196.9880  175.0340  138.8160 N   0  0  0  0  0  0  0  0  0  0  0  0
  196.7570  175.1060  141.2630 C   0  0  0  0  0  2  0  0  0  0  0  0
  196.2270  173.0180  140.0280 C   0  0  0  0  0  2  0  0  0  0  0  0
  197.2790  173.3210  144.6170 C   0  0  0  0  0  2  0  0  0  0  0  0
  196.7700  171.5490  146.1340 O   0  0  0  0  0  1  0  0  0  0  0  0
  196.8160  172.9380  146.0120 C   0  0  0  0  0  2  0  0  0  0  0  0
  190.1380  174.5460  141.4510 O   0  0  0  0  0  0  0  0  0  0  0  0
  190.8710  170.9890  140.7640 C   0  0  0  0  0  3  0  0  0  0  0  0
  192.0200  171.0740  139.9630 C   0  0  0  0  0  0  0  0  0  0  0  0
  191.9430  173.4900  140.1440 C   0  0  0  0  0  3  0  0  0  0  0  0
  190.2640  172.1500  141.2500 C   0  0  0  0  0  3  0  0  0  0  0  0
  190.7960  173.4090  140.9510 C   0  0  0  0  0  0  0  0  0  0  0  0
  192.5510  172.3300  139.6570 C   0  0  0  0  0  3  0  0  0  0  0  0
  192.6490  169.9320  139.4600 O   0  0  0  0  0  0  0  0  0  0  0  0
  192.1980  169.2570  138.2940 C   0  0  0  0  0  1  0  0  0  0  0  0
  1  6  2  0  0  0  0
  1  5  1  0  0  0  0
  2 11  1  0  0  0  0
  3 10  1  0  0  0  0
  3 16  1  0  0  0  0
  4  8  1  0  0  0  0
  4  7  2  0  0  0  0
  7  9  1  0  0  0  0
  8  1  1  0  0  0  0
  9  5  2  0  0  0  0
 11  7  1  0  0  0  0
 11 10  2  0  0  0  0
 12 15  2  0  0  0  0
 12  2  1  0  0  0  0
 13  2  2  0  0  0  0
 13 14  1  0  0  0  0
 14  3  2  0  0  0  0
 15  4  1  0  0  0  0
 16 17  1  1  0  0  0
 18 16  1  0  0  0  0
 19 21  1  0  0  0  0
 19 18  1  0  0  0  0
 20 19  2  0  0  0  0
 22 32  1  0  0  0  0
 22 21  1  0  0  0  0
 23 25  2  0  0  0  0
 23 22  1  0  0  0  0
 24 23  2  0  0  0  0
 26 30  1  0  0  0  0
 26 23  1  1  0  0  0
 27 29  1  0  0  0  0
 27 31  1  0  0  0  0
 28 30  1  0  0  0  0
 29 28  2  0  0  0  0
 31 26  1  0  0  0  0
 32 34  1  0  0  0  0
 34 33  1  0  0  0  0
 35 13  1  0  0  0  0
 36 39  1  0  0  0  0
 37 36  2  0  0  0  0
 38 40  1  0  0  0  0
 40 39  2  0  0  0  0
 40 35  1  0  0  0  0
 41 37  1  0  0  0  0
 41 38  2  0  0  0  0
 42 37  1  0  0  0  0
 43 42  1  0  0  0  0
M  END
>  <MODEL>
8

>  <REMARK>
 VINA RESULT:      -5.9      2.266      3.533
  Name = 
  12 active torsions:
  status: ('A' for Active; 'I' for Inactive)
    1  A    between atoms: O_1  and  C_34
    2  A    between atoms: O_1  and  C_35
    3  A    between atoms: C_2  and  C_6
    4  A    between atoms: C_2  and  C_13
    5  A    between atoms: C_3  and  N_4
    6  A    between atoms: C_3  and  C_12
    7  A    between atoms: N_4  and  S_14
    8  A    between atoms: N_4  and  C_15
    9  A    between atoms: C_6  and  C_12
   10  A    between atoms: C_11  and  S_14
   11  A    between atoms: C_15  and  C_42
   12  A    between atoms: C_19  and  O_25
                            x       y       z     vdW  Elec       q    Type
                         _______ _______ _______ _____ _____    ______ ____

>  <TORSDO>
F 12

$$$$
=
 OpenBabel11052421053D

 43 47  0  0  1  0  0  0  0  0999 V2000
  185.5440  178.2500  143.7600 C   0  0  0  0  0  0  0  0  0  0  0  0
  187.8600  175.2140  140.5240 C   0  0  0  0  0  0  0  0  0  0  0  0
  188.8860  173.0320  141.9630 C   0  0  0  0  0  0  0  0  0  0  0  0
  186.4560  177.2440  141.8120 C   0  0  0  0  0  0  0  0  0  0  0  0
  186.0260  177.2070  144.5540 C   0  0  0  0  0  3  0  0  0  0  0  0
  184.7120  179.4750  144.4450 S   0  0  0  0  0  0  0  0  0  0  0  0
  186.9620  176.1680  142.5730 C   0  0  0  0  0  0  0  0  0  0  0  0
  185.7660  178.2480  142.4180 N   0  0  0  0  0  2  0  0  0  0  0  0
  186.7370  176.1650  143.9570 C   0  0  0  0  0  3  0  0  0  0  0  0
  188.1910  174.0460  142.6330 C   0  0  0  0  0  3  0  0  0  0  0  0
  187.6720  175.1390  141.9260 C   0  0  0  0  0  0  0  0  0  0  0  0
  187.3550  176.2690  139.8270 N   0  0  0  0  0  0  0  0  0  0  0  0
  188.5680  174.2030  139.8490 C   0  0  0  0  0  0  0  0  0  0  0  0
  189.0690  173.1160  140.5820 C   0  0  0  0  0  3  0  0  0  0  0  0
  186.6660  177.2720  140.4340 C   0  0  0  0  0  3  0  0  0  0  0  0
  189.4510  171.8590  142.7010 C   0  0  2  0  0  3  0  0  0  0  0  0
  189.3070  172.0460  144.2030 C   0  0  0  0  0  1  0  0  0  0  0  0
  190.9070  171.6270  142.3060 C   0  0  0  0  0  2  0  0  0  0  0  0
  191.8580  172.1950  143.3140 C   0  0  0  0  0  0  0  0  0  0  0  0
  192.2050  171.5210  144.2710 O   0  0  0  0  0  0  0  0  0  0  0  0
  192.4880  173.5400  143.0620 C   0  0  0  0  0  2  0  0  0  0  0  0
  192.5240  174.4420  144.2250 N   0  0  0  0  0  0  0  0  0  0  0  0
  191.6620  175.9260  143.9250 S   0  0  0  0  0  0  0  0  0  0  0  0
  192.5230  177.1130  144.2610 O   0  0  0  0  0  0  0  0  0  0  0  0
  191.2540  175.9990  142.4790 O   0  0  0  0  0  0  0  0  0  0  0  0
  190.2060  175.9570  144.9520 C   0  0  1  0  0  3  0  0  0  0  0  0
  188.9030  177.2360  146.6120 C   0  0  0  0  0  2  0  0  0  0  0  0
  189.1200  174.8380  146.9210 C   0  0  0  0  0  3  0  0  0  0  0  0
  188.6190  175.9750  147.2780 N   0  0  0  0  0  0  0  0  0  0  0  0
  190.1530  174.7110  145.8310 C   0  0  0  0  0  2  0  0  0  0  0  0
  190.2160  177.1930  145.8370 C   0  0  0  0  0  2  0  0  0  0  0  0
  193.8960  174.7470  144.6180 C   0  0  0  0  0  2  0  0  0  0  0  0
  195.4980  175.5210  143.0250 O   0  0  0  0  0  1  0  0  0  0  0  0
  194.8560  174.3770  143.5010 C   0  0  0  0  0  2  0  0  0  0  0  0
  188.7270  174.3030  138.4550 O   0  0  0  0  0  0  0  0  0  0  0  0
  189.7390  171.6280  136.1140 C   0  0  0  0  0  3  0  0  0  0  0  0
  191.1060  171.8910  135.9380 C   0  0  0  0  0  0  0  0  0  0  0  0
  190.9170  173.7760  137.4510 C   0  0  0  0  0  3  0  0  0  0  0  0
  188.9690  172.4360  136.9550 C   0  0  0  0  0  3  0  0  0  0  0  0
  189.5500  173.5120  137.6350 C   0  0  0  0  0  0  0  0  0  0  0  0
  191.6890  172.9690  136.6110 C   0  0  0  0  0  3  0  0  0  0  0  0
  191.9030  171.1020  135.1030 O   0  0  0  0  0  0  0  0  0  0  0  0
  192.5890  169.9470  135.5650 C   0  0  0  0  0  1  0  0  0  0  0  0
  1  6  2  0  0  0  0
  1  5  1  0  0  0  0
  2 11  1  0  0  0  0
  3 10  1  0  0  0  0
  3 16  1  0  0  0  0
  4  8  1  0  0  0  0
  4  7  2  0  0  0  0
  7  9  1  0  0  0  0
  8  1  1  0  0  0  0
  9  5  2  0  0  0  0
 11  7  1  0  0  0  0
 11 10  2  0  0  0  0
 12 15  2  0  0  0  0
 12  2  1  0  0  0  0
 13  2  2  0  0  0  0
 13 14  1  0  0  0  0
 14  3  2  0  0  0  0
 15  4  1  0  0  0  0
 16 17  1  1  0  0  0
 18 16  1  0  0  0  0
 18 19  1  0  0  0  0
 19 20  2  0  0  0  0
 21 19  1  0  0  0  0
 21 22  1  0  0  0  0
 22 32  1  0  0  0  0
 23 22  1  0  0  0  0
 23 24  2  0  0  0  0
 25 23  2  0  0  0  0
 26 23  1  1  0  0  0
 26 30  1  0  0  0  0
 26 31  1  0  0  0  0
 27 29  1  0  0  0  0
 28 29  2  0  0  0  0
 30 28  1  0  0  0  0
 31 27  1  0  0  0  0
 33 34  1  0  0  0  0
 34 32  1  0  0  0  0
 35 13  1  0  0  0  0
 36 39  1  0  0  0  0
 37 36  2  0  0  0  0
 37 41  1  0  0  0  0
 38 40  1  0  0  0  0
 39 40  2  0  0  0  0
 40 35  1  0  0  0  0
 41 38  2  0  0  0  0
 42 43  1  0  0  0  0
 42 37  1  0  0  0  0
M  END
>  <MODEL>
9

>  <REMARK>
 VINA RESULT:      -5.9      2.690      4.780
  Name = 
  12 active torsions:
  status: ('A' for Active; 'I' for Inactive)
    1  A    between atoms: O_1  and  C_34
    2  A    between atoms: O_1  and  C_35
    3  A    between atoms: C_2  and  C_6
    4  A    between atoms: C_2  and  C_13
    5  A    between atoms: C_3  and  N_4
    6  A    between atoms: C_3  and  C_12
    7  A    between atoms: N_4  and  S_14
    8  A    between atoms: N_4  and  C_15
    9  A    between atoms: C_6  and  C_12
   10  A    between atoms: C_11  and  S_14
   11  A    between atoms: C_15  and  C_42
   12  A    between atoms: C_19  and  O_25
                            x       y       z     vdW  Elec       q    Type
                         _______ _______ _______ _____ _____    ______ ____

>  <TORSDO>
F 12

$$$$
