=
 OpenBabel11052418203D

 27 31  0  0  1  0  0  0  0  0999 V2000
  186.7140  176.6010  143.7380 C   0  0  0  0  0  2  0  0  0  0  0  0
  189.1500  177.3350  143.6910 C   0  0  0  0  0  0  0  0  0  0  0  0
  188.5190  175.9990  145.8110 C   0  0  0  0  0  2  0  0  0  0  0  0
  193.1270  176.9430  144.9020 N   0  0  0  0  0  2  0  0  0  0  0  0
  193.6860  174.8880  145.9650 N   0  0  0  0  0  1  0  0  0  0  0  0
  190.1480  177.8860  142.9270 N   0  0  0  0  0  0  0  0  0  0  0  0
  191.5220  175.9450  146.4020 C   0  0  1  0  0  3  0  0  0  0  0  0
  185.4680  176.9890  147.8790 C   0  0  0  0  0  2  0  0  0  0  0  0
  191.1320  176.6620  147.6830 C   0  0  0  0  0  1  0  0  0  0  0  0
  185.1080  178.4690  147.7150 C   0  0  0  0  0  2  0  0  0  0  0  0
  190.8680  176.5930  145.2270 C   0  0  0  0  0  0  0  0  0  0  0  0
  187.7770  177.4850  143.2460 N   0  0  0  0  0  0  0  0  0  0  0  0
  193.0270  176.1700  146.1400 C   0  0  2  0  0  3  0  0  0  0  0  0
  191.8160  177.1440  144.4230 C   0  0  0  0  0  0  0  0  0  0  0  0
  186.2710  176.9520  145.1600 C   0  0  2  0  0  3  0  0  0  0  0  0
  189.5070  176.6550  144.8960 C   0  0  0  0  0  0  0  0  0  0  0  0
  186.9450  176.6750  147.6190 C   0  0  0  0  0  2  0  0  0  0  0  0
  191.4670  177.8050  143.2560 C   0  0  0  0  0  3  0  0  0  0  0  0
  185.4000  178.2200  145.1760 C   0  0  0  0  0  2  0  0  0  0  0  0
  185.5980  179.1050  146.4110 C   0  0  0  0  0  2  0  0  0  0  0  0
  187.4190  176.9740  146.1890 C   0  0  1  0  0  3  0  0  0  0  0  0
  185.4710  177.7660  140.1620 O   0  0  0  0  0  0  0  0  0  0  0  0
  187.5290  178.3440  142.0740 C   0  0  0  0  0  3  0  0  0  0  0  0
  186.1350  178.9800  142.1260 C   0  0  0  0  0  2  0  0  0  0  0  0
  185.1020  178.0520  141.4870 C   0  0  0  0  0  2  0  0  0  0  0  0
  186.5770  176.9030  140.2370 C   0  0  0  0  0  2  0  0  0  0  0  0
  187.8100  177.6740  140.7170 C   0  0  0  0  0  2  0  0  0  0  0  0
  2 16  1  0  0  0  0
  4 13  1  0  0  0  0
  6 18  1  0  0  0  0
  6  2  2  0  0  0  0
  7  9  1  1  0  0  0
 10  8  1  0  0  0  0
 11  7  1  0  0  0  0
 12  2  1  0  0  0  0
 12  1  1  0  0  0  0
 13  5  1  6  0  0  0
 13  7  1  0  0  0  0
 14  4  1  0  0  0  0
 14 11  1  0  0  0  0
 15  1  1  6  0  0  0
 15 19  1  0  0  0  0
 15 21  1  0  0  0  0
 16 11  2  0  0  0  0
 16  3  1  0  0  0  0
 17  8  1  0  0  0  0
 18 14  2  0  0  0  0
 19 20  1  0  0  0  0
 20 10  1  0  0  0  0
 21  3  1  6  0  0  0
 21 17  1  0  0  0  0
 22 26  1  0  0  0  0
 22 25  1  0  0  0  0
 23 24  1  0  0  0  0
 23 12  1  0  0  0  0
 25 24  1  0  0  0  0
 26 27  1  0  0  0  0
 27 23  1  0  0  0  0
M  END
>  <MODEL>
1

>  <REMARK>
 VINA RESULT:      -8.5      0.000      0.000
  Name = 
  1 active torsions:
  status: ('A' for Active; 'I' for Inactive)
    1  A    between atoms: C_9  and  N_15
                            x       y       z     vdW  Elec       q    Type
                         _______ _______ _______ _____ _____    ______ ____

>  <TORSDO>
F 1

$$$$
=
 OpenBabel11052418203D

 27 31  0  0  1  0  0  0  0  0999 V2000
  188.8200  177.3940  144.9860 C   0  0  0  0  0  2  0  0  0  0  0  0
  188.4040  175.9650  142.9220 C   0  0  0  0  0  0  0  0  0  0  0  0
  187.1650  178.2320  142.8700 C   0  0  0  0  0  2  0  0  0  0  0  0
  187.3110  175.5330  138.9150 N   0  0  0  0  0  2  0  0  0  0  0  0
  187.2790  177.5360  137.6300 N   0  0  0  0  0  1  0  0  0  0  0  0
  188.7810  174.8390  142.2350 N   0  0  0  0  0  0  0  0  0  0  0  0
  186.5150  177.5590  139.9550 C   0  0  1  0  0  3  0  0  0  0  0  0
  185.0270  179.3310  145.8350 C   0  0  0  0  0  2  0  0  0  0  0  0
  185.0690  177.6620  140.4090 C   0  0  0  0  0  1  0  0  0  0  0  0
  184.5140  178.1430  146.6550 C   0  0  0  0  0  2  0  0  0  0  0  0
  187.2950  176.7080  140.9030 C   0  0  0  0  0  0  0  0  0  0  0  0
  188.7990  176.0910  144.3120 N   0  0  0  0  0  0  0  0  0  0  0  0
  186.5700  176.7620  138.6340 C   0  0  2  0  0  3  0  0  0  0  0  0
  187.7090  175.5800  140.2670 C   0  0  0  0  0  0  0  0  0  0  0  0
  187.4180  177.8820  145.3600 C   0  0  2  0  0  3  0  0  0  0  0  0
  187.6280  176.9530  142.2420 C   0  0  0  0  0  0  0  0  0  0  0  0
  185.3290  178.9930  144.3710 C   0  0  0  0  0  2  0  0  0  0  0  0
  188.4610  174.6220  140.9290 C   0  0  0  0  0  3  0  0  0  0  0  0
  186.8680  177.1180  146.5760 C   0  0  0  0  0  2  0  0  0  0  0  0
  185.3560  176.8690  146.5330 C   0  0  0  0  0  2  0  0  0  0  0  0
  186.4380  177.9490  144.1730 C   0  0  1  0  0  3  0  0  0  0  0  0
  191.4890  175.2320  146.9450 O   0  0  0  0  0  0  0  0  0  0  0  0
  189.4590  174.9320  144.9420 C   0  0  0  0  0  3  0  0  0  0  0  0
  189.1680  174.8660  146.4460 C   0  0  0  0  0  2  0  0  0  0  0  0
  190.1920  175.6930  147.2230 C   0  0  0  0  0  2  0  0  0  0  0  0
  191.7800  175.6360  145.6310 C   0  0  0  0  0  2  0  0  0  0  0  0
  190.9630  174.8070  144.6370 C   0  0  0  0  0  2  0  0  0  0  0  0
  2 12  1  0  0  0  0
  4 14  1  0  0  0  0
  6  2  2  0  0  0  0
  7  9  1  1  0  0  0
  7 11  1  0  0  0  0
  8 10  1  0  0  0  0
 11 16  2  0  0  0  0
 12 23  1  0  0  0  0
 12  1  1  0  0  0  0
 13  5  1  6  0  0  0
 13  4  1  0  0  0  0
 13  7  1  0  0  0  0
 14 11  1  0  0  0  0
 14 18  2  0  0  0  0
 15  1  1  6  0  0  0
 15 19  1  0  0  0  0
 16  3  1  0  0  0  0
 16  2  1  0  0  0  0
 17  8  1  0  0  0  0
 18  6  1  0  0  0  0
 20 19  1  0  0  0  0
 20 10  1  0  0  0  0
 21  3  1  6  0  0  0
 21 17  1  0  0  0  0
 21 15  1  0  0  0  0
 22 25  1  0  0  0  0
 23 24  1  0  0  0  0
 24 25  1  0  0  0  0
 26 22  1  0  0  0  0
 27 23  1  0  0  0  0
 27 26  1  0  0  0  0
M  END
>  <MODEL>
2

>  <REMARK>
 VINA RESULT:      -7.9      2.732      5.941
  Name = 
  1 active torsions:
  status: ('A' for Active; 'I' for Inactive)
    1  A    between atoms: C_9  and  N_15
                            x       y       z     vdW  Elec       q    Type
                         _______ _______ _______ _____ _____    ______ ____

>  <TORSDO>
F 1

$$$$
=
 OpenBabel11052418203D

 27 31  0  0  1  0  0  0  0  0999 V2000
  191.4880  176.8260  143.8340 C   0  0  0  0  0  2  0  0  0  0  0  0
  189.0890  176.3330  143.1440 C   0  0  0  0  0  0  0  0  0  0  0  0
  189.2690  177.8740  145.2100 C   0  0  0  0  0  2  0  0  0  0  0  0
  185.0210  177.2710  143.0810 N   0  0  0  0  0  2  0  0  0  0  0  0
  184.4630  179.4950  143.7190 N   0  0  0  0  0  1  0  0  0  0  0  0
  188.2830  175.7850  142.1780 N   0  0  0  0  0  0  0  0  0  0  0  0
  186.2560  178.3000  144.8790 C   0  0  1  0  0  3  0  0  0  0  0  0
  191.4560  176.8790  148.1750 C   0  0  0  0  0  2  0  0  0  0  0  0
  186.1710  177.7270  146.2840 C   0  0  0  0  0  1  0  0  0  0  0  0
  191.6480  175.3630  148.2750 C   0  0  0  0  0  2  0  0  0  0  0  0
  187.1230  177.4390  144.0210 C   0  0  0  0  0  0  0  0  0  0  0  0
  190.4990  175.9910  143.1420 N   0  0  0  0  0  0  0  0  0  0  0  0
  184.8700  178.1900  144.2080 C   0  0  2  0  0  3  0  0  0  0  0  0
  186.3750  176.8800  143.0320 C   0  0  0  0  0  0  0  0  0  0  0  0
  191.4620  176.6280  145.3510 C   0  0  2  0  0  3  0  0  0  0  0  0
  188.5010  177.2010  144.1140 C   0  0  0  0  0  0  0  0  0  0  0  0
  190.1670  177.2980  147.4600 C   0  0  0  0  0  2  0  0  0  0  0  0
  186.9470  176.0370  142.0930 C   0  0  0  0  0  3  0  0  0  0  0  0
  192.1180  175.2940  145.7510 C   0  0  0  0  0  2  0  0  0  0  0  0
  191.4650  174.6070  146.9550 C   0  0  0  0  0  2  0  0  0  0  0  0
  190.0800  176.8560  145.9920 C   0  0  1  0  0  3  0  0  0  0  0  0
  192.7810  172.8830  142.9330 O   0  0  0  0  0  0  0  0  0  0  0  0
  190.9510  174.9620  142.1880 C   0  0  0  0  0  3  0  0  0  0  0  0
  190.4990  173.5610  142.6140 C   0  0  0  0  0  2  0  0  0  0  0  0
  191.5240  172.9340  143.5580 C   0  0  0  0  0  2  0  0  0  0  0  0
  193.2530  174.2060  142.8850 C   0  0  0  0  0  2  0  0  0  0  0  0
  192.4540  175.0100  141.8560 C   0  0  0  0  0  2  0  0  0  0  0  0
  2 16  1  0  0  0  0
  4 13  1  0  0  0  0
  6  2  2  0  0  0  0
  7  9  1  1  0  0  0
  8 10  1  0  0  0  0
 11 16  2  0  0  0  0
 11  7  1  0  0  0  0
 12  2  1  0  0  0  0
 12  1  1  0  0  0  0
 13  5  1  6  0  0  0
 13  7  1  0  0  0  0
 14  4  1  0  0  0  0
 14 11  1  0  0  0  0
 15  1  1  6  0  0  0
 15 19  1  0  0  0  0
 15 21  1  0  0  0  0
 16  3  1  0  0  0  0
 17  8  1  0  0  0  0
 18  6  1  0  0  0  0
 18 14  2  0  0  0  0
 19 20  1  0  0  0  0
 20 10  1  0  0  0  0
 21  3  1  6  0  0  0
 21 17  1  0  0  0  0
 22 25  1  0  0  0  0
 23 24  1  0  0  0  0
 23 12  1  0  0  0  0
 24 25  1  0  0  0  0
 26 22  1  0  0  0  0
 27 23  1  0  0  0  0
 27 26  1  0  0  0  0
M  END
>  <MODEL>
3

>  <REMARK>
 VINA RESULT:      -7.7      2.744      6.084
  Name = 
  1 active torsions:
  status: ('A' for Active; 'I' for Inactive)
    1  A    between atoms: C_9  and  N_15
                            x       y       z     vdW  Elec       q    Type
                         _______ _______ _______ _____ _____    ______ ____

>  <TORSDO>
F 1

$$$$
=
 OpenBabel11052418203D

 27 31  0  0  1  0  0  0  0  0999 V2000
  188.2360  177.0870  142.5610 C   0  0  0  0  0  2  0  0  0  0  0  0
  189.1980  176.8490  144.9050 C   0  0  0  0  0  0  0  0  0  0  0  0
  190.8620  176.1960  143.0380 C   0  0  0  0  0  2  0  0  0  0  0  0
  192.4290  176.6420  147.5430 N   0  0  0  0  0  2  0  0  0  0  0  0
  194.5240  177.3580  146.6700 N   0  0  0  0  0  1  0  0  0  0  0  0
  189.0030  177.1120  146.2370 N   0  0  0  0  0  0  0  0  0  0  0  0
  192.9710  176.1030  145.2540 C   0  0  1  0  0  3  0  0  0  0  0  0
  189.8310  173.7350  140.3090 C   0  0  0  0  0  2  0  0  0  0  0  0
  193.1340  174.6530  144.8340 C   0  0  0  0  0  1  0  0  0  0  0  0
  188.7130  172.7920  140.7660 C   0  0  0  0  0  2  0  0  0  0  0  0
  191.5250  176.4320  145.4290 C   0  0  0  0  0  0  0  0  0  0  0  0
  188.0590  176.9290  144.0100 N   0  0  0  0  0  0  0  0  0  0  0  0
  193.5490  176.2820  146.6750 C   0  0  2  0  0  3  0  0  0  0  0  0
  191.2750  176.7180  146.7350 C   0  0  0  0  0  0  0  0  0  0  0  0
  188.6550  175.7830  141.8780 C   0  0  2  0  0  3  0  0  0  0  0  0
  190.5100  176.4930  144.4640 C   0  0  0  0  0  0  0  0  0  0  0  0
  190.6910  174.2820  141.4540 C   0  0  0  0  0  2  0  0  0  0  0  0
  190.0030  177.0610  147.1610 C   0  0  0  0  0  3  0  0  0  0  0  0
  187.4700  174.8090  141.7590 C   0  0  0  0  0  2  0  0  0  0  0  0
  187.8500  173.3320  141.9110 C   0  0  0  0  0  2  0  0  0  0  0  0
  189.9270  175.1440  142.4700 C   0  0  1  0  0  3  0  0  0  0  0  0
  184.6980  178.6950  143.3100 O   0  0  0  0  0  0  0  0  0  0  0  0
  186.7320  177.1490  144.6130 C   0  0  0  0  0  3  0  0  0  0  0  0
  185.6180  176.5240  143.7650 C   0  0  0  0  0  2  0  0  0  0  0  0
  185.1410  177.5100  142.7000 C   0  0  0  0  0  2  0  0  0  0  0  0
  185.8480  179.3560  143.7730 C   0  0  0  0  0  2  0  0  0  0  0  0
  186.4280  178.6130  144.9790 C   0  0  0  0  0  2  0  0  0  0  0  0
  1 12  1  0  0  0  0
  2  6  1  0  0  0  0
  3 16  1  0  0  0  0
  6 18  2  0  0  0  0
  7  9  1  1  0  0  0
  7 11  1  0  0  0  0
  7 13  1  0  0  0  0
  8 10  1  0  0  0  0
  8 17  1  0  0  0  0
 10 20  1  0  0  0  0
 11 14  2  0  0  0  0
 12 23  1  0  0  0  0
 12  2  1  0  0  0  0
 13  5  1  6  0  0  0
 13  4  1  0  0  0  0
 14 18  1  0  0  0  0
 14  4  1  0  0  0  0
 15 19  1  1  0  0  0
 15 21  1  0  0  0  0
 15  1  1  0  0  0  0
 16  2  2  0  0  0  0
 16 11  1  0  0  0  0
 19 20  1  0  0  0  0
 21 17  1  6  0  0  0
 21  3  1  0  0  0  0
 22 26  1  0  0  0  0
 23 27  1  0  0  0  0
 24 23  1  0  0  0  0
 25 22  1  0  0  0  0
 25 24  1  0  0  0  0
 26 27  1  0  0  0  0
M  END
>  <MODEL>
4

>  <REMARK>
 VINA RESULT:      -7.6      2.361      4.429
  Name = 
  1 active torsions:
  status: ('A' for Active; 'I' for Inactive)
    1  A    between atoms: C_9  and  N_15
                            x       y       z     vdW  Elec       q    Type
                         _______ _______ _______ _____ _____    ______ ____

>  <TORSDO>
F 1

$$$$
=
 OpenBabel11052418203D

 27 31  0  0  1  0  0  0  0  0999 V2000
  187.3490  178.4910  145.2260 C   0  0  0  0  0  2  0  0  0  0  0  0
  188.9000  176.7220  146.1980 C   0  0  0  0  0  0  0  0  0  0  0  0
  189.8720  177.9160  144.1220 C   0  0  0  0  0  2  0  0  0  0  0  0
  192.6940  175.0660  146.7430 N   0  0  0  0  0  2  0  0  0  0  0  0
  194.5280  176.4730  146.1710 N   0  0  0  0  0  1  0  0  0  0  0  0
  189.1230  175.8740  147.2530 N   0  0  0  0  0  0  0  0  0  0  0  0
  192.4950  176.4940  144.8080 C   0  0  1  0  0  3  0  0  0  0  0  0
  187.8160  178.2000  140.9190 C   0  0  0  0  0  2  0  0  0  0  0  0
  192.3530  175.8830  143.4250 C   0  0  0  0  0  1  0  0  0  0  0  0
  186.7670  177.0900  140.8000 C   0  0  0  0  0  2  0  0  0  0  0  0
  191.2100  176.3800  145.5590 C   0  0  0  0  0  0  0  0  0  0  0  0
  187.5730  177.2840  146.0320 N   0  0  0  0  0  0  0  0  0  0  0  0
  193.4700  175.6320  145.6400 C   0  0  2  0  0  3  0  0  0  0  0  0
  191.3770  175.5590  146.6300 C   0  0  0  0  0  0  0  0  0  0  0  0
  187.3940  178.2060  143.7230 C   0  0  2  0  0  3  0  0  0  0  0  0
  189.9790  176.9990  145.3020 C   0  0  0  0  0  0  0  0  0  0  0  0
  189.0260  177.8230  141.7820 C   0  0  0  0  0  2  0  0  0  0  0  0
  190.3300  175.2910  147.4960 C   0  0  0  0  0  3  0  0  0  0  0  0
  186.1140  177.4970  143.2500 C   0  0  0  0  0  2  0  0  0  0  0  0
  186.3370  176.4710  142.1340 C   0  0  0  0  0  2  0  0  0  0  0  0
  188.6930  177.5230  143.2510 C   0  0  1  0  0  3  0  0  0  0  0  0
  184.1320  178.3160  147.4500 O   0  0  0  0  0  0  0  0  0  0  0  0
  186.5080  176.7960  146.9280 C   0  0  0  0  0  3  0  0  0  0  0  0
  185.1920  176.5790  146.1720 C   0  0  0  0  0  2  0  0  0  0  0  0
  184.3770  177.8720  146.1390 C   0  0  0  0  0  2  0  0  0  0  0  0
  185.3580  178.7990  147.9390 C   0  0  0  0  0  2  0  0  0  0  0  0
  186.3110  177.6320  148.2050 C   0  0  0  0  0  2  0  0  0  0  0  0
  1 12  1  0  0  0  0
  2  6  1  0  0  0  0
  3 16  1  0  0  0  0
  6 18  2  0  0  0  0
  7  9  1  6  0  0  0
  7 11  1  0  0  0  0
  7 13  1  0  0  0  0
  8 17  1  0  0  0  0
 10  8  1  0  0  0  0
 10 20  1  0  0  0  0
 11 14  2  0  0  0  0
 12  2  1  0  0  0  0
 12 23  1  0  0  0  0
 13  5  1  1  0  0  0
 13  4  1  0  0  0  0
 14  4  1  0  0  0  0
 14 18  1  0  0  0  0
 15 19  1  1  0  0  0
 15  1  1  0  0  0  0
 16 11  1  0  0  0  0
 16  2  2  0  0  0  0
 20 19  1  0  0  0  0
 21 17  1  6  0  0  0
 21 15  1  0  0  0  0
 21  3  1  0  0  0  0
 22 26  1  0  0  0  0
 23 27  1  0  0  0  0
 24 23  1  0  0  0  0
 25 24  1  0  0  0  0
 25 22  1  0  0  0  0
 26 27  1  0  0  0  0
M  END
>  <MODEL>
5

>  <REMARK>
 VINA RESULT:      -7.6      2.098      4.577
  Name = 
  1 active torsions:
  status: ('A' for Active; 'I' for Inactive)
    1  A    between atoms: C_9  and  N_15
                            x       y       z     vdW  Elec       q    Type
                         _______ _______ _______ _____ _____    ______ ____

>  <TORSDO>
F 1

$$$$
=
 OpenBabel11052418203D

 27 31  0  0  1  0  0  0  0  0999 V2000
  188.8880  175.2990  146.0650 C   0  0  0  0  0  2  0  0  0  0  0  0
  188.3930  175.8630  143.6330 C   0  0  0  0  0  0  0  0  0  0  0  0
  189.9770  173.8410  143.9190 C   0  0  0  0  0  2  0  0  0  0  0  0
  188.1550  174.8170  139.5970 N   0  0  0  0  0  2  0  0  0  0  0  0
  188.1950  172.4830  139.1300 N   0  0  0  0  0  1  0  0  0  0  0  0
  187.6200  176.6130  142.7830 N   0  0  0  0  0  0  0  0  0  0  0  0
  189.5980  173.4000  140.9130 C   0  0  1  0  0  3  0  0  0  0  0  0
  193.0620  174.1080  146.1500 C   0  0  0  0  0  2  0  0  0  0  0  0
  191.1050  173.5810  140.8470 C   0  0  0  0  0  1  0  0  0  0  0  0
  193.5540  175.5510  146.2950 C   0  0  0  0  0  2  0  0  0  0  0  0
  188.9820  174.4890  141.7280 C   0  0  0  0  0  0  0  0  0  0  0  0
  188.4570  176.2470  145.0300 N   0  0  0  0  0  0  0  0  0  0  0  0
  189.0030  173.6290  139.5070 C   0  0  2  0  0  3  0  0  0  0  0  0
  188.1880  175.2590  140.9360 C   0  0  0  0  0  0  0  0  0  0  0  0
  190.4040  175.0920  146.0730 C   0  0  2  0  0  3  0  0  0  0  0  0
  189.1110  174.7480  143.0990 C   0  0  0  0  0  0  0  0  0  0  0  0
  192.2840  173.8410  144.8560 C   0  0  0  0  0  2  0  0  0  0  0  0
  187.4940  176.3400  141.4550 C   0  0  0  0  0  3  0  0  0  0  0  0
  191.1290  176.2980  146.6940 C   0  0  0  0  0  2  0  0  0  0  0  0
  192.4830  176.6190  146.0510 C   0  0  0  0  0  2  0  0  0  0  0  0
  190.9860  174.6490  144.7160 C   0  0  1  0  0  3  0  0  0  0  0  0
  185.3380  177.5550  146.8930 O   0  0  0  0  0  0  0  0  0  0  0  0
  187.8000  177.5070  145.4220 C   0  0  0  0  0  3  0  0  0  0  0  0
  187.7370  177.6600  146.9460 C   0  0  0  0  0  2  0  0  0  0  0  0
  186.4760  176.9950  147.4970 C   0  0  0  0  0  2  0  0  0  0  0  0
  185.3190  177.0810  145.5700 C   0  0  0  0  0  2  0  0  0  0  0  0
  186.4310  177.7500  144.7590 C   0  0  0  0  0  2  0  0  0  0  0  0
  2 12  1  0  0  0  0
  4 14  1  0  0  0  0
  6  2  2  0  0  0  0
  7  9  1  6  0  0  0
  7 11  1  0  0  0  0
  8 10  1  0  0  0  0
 11 16  2  0  0  0  0
 12 23  1  0  0  0  0
 12  1  1  0  0  0  0
 13  5  1  1  0  0  0
 13  4  1  0  0  0  0
 13  7  1  0  0  0  0
 14 18  2  0  0  0  0
 14 11  1  0  0  0  0
 15  1  1  6  0  0  0
 15 19  1  0  0  0  0
 16  2  1  0  0  0  0
 16  3  1  0  0  0  0
 17  8  1  0  0  0  0
 18  6  1  0  0  0  0
 20 10  1  0  0  0  0
 20 19  1  0  0  0  0
 21  3  1  1  0  0  0
 21 17  1  0  0  0  0
 21 15  1  0  0  0  0
 22 25  1  0  0  0  0
 23 24  1  0  0  0  0
 24 25  1  0  0  0  0
 26 22  1  0  0  0  0
 27 23  1  0  0  0  0
 27 26  1  0  0  0  0
M  END
>  <MODEL>
6

>  <REMARK>
 VINA RESULT:      -7.5      2.982      5.838
  Name = 
  1 active torsions:
  status: ('A' for Active; 'I' for Inactive)
    1  A    between atoms: C_9  and  N_15
                            x       y       z     vdW  Elec       q    Type
                         _______ _______ _______ _____ _____    ______ ____

>  <TORSDO>
F 1

$$$$
=
 OpenBabel11052418203D

 27 31  0  0  1  0  0  0  0  0999 V2000
  187.9080  178.3160  144.8620 C   0  0  0  0  0  2  0  0  0  0  0  0
  188.6200  175.9170  145.3220 C   0  0  0  0  0  0  0  0  0  0  0  0
  189.0650  176.6740  142.8920 C   0  0  0  0  0  2  0  0  0  0  0  0
  190.9070  172.5340  144.4450 N   0  0  0  0  0  2  0  0  0  0  0  0
  192.7490  172.8830  142.9790 N   0  0  0  0  0  1  0  0  0  0  0  0
  188.8190  174.9640  146.2890 N   0  0  0  0  0  0  0  0  0  0  0  0
  190.6400  174.0660  142.6000 C   0  0  1  0  0  3  0  0  0  0  0  0
  186.2860  178.2900  140.8350 C   0  0  0  0  0  2  0  0  0  0  0  0
  189.6410  173.7590  141.4980 C   0  0  0  0  0  1  0  0  0  0  0  0
  184.8910  177.8770  141.3130 C   0  0  0  0  0  2  0  0  0  0  0  0
  189.9290  174.5320  143.8270 C   0  0  0  0  0  0  0  0  0  0  0  0
  187.8230  177.0820  145.6530 N   0  0  0  0  0  0  0  0  0  0  0  0
  191.3050  172.7480  143.0550 C   0  0  2  0  0  3  0  0  0  0  0  0
  190.1050  173.6290  144.8290 C   0  0  0  0  0  0  0  0  0  0  0  0
  187.1620  178.2090  143.5300 C   0  0  2  0  0  3  0  0  0  0  0  0
  189.1940  175.7080  144.0290 C   0  0  0  0  0  0  0  0  0  0  0  0
  187.3830  177.2680  141.1540 C   0  0  0  0  0  2  0  0  0  0  0  0
  189.5470  173.8320  146.0810 C   0  0  0  0  0  3  0  0  0  0  0  0
  185.6390  178.2920  143.7350 C   0  0  0  0  0  2  0  0  0  0  0  0
  184.8260  177.4190  142.7740 C   0  0  0  0  0  2  0  0  0  0  0  0
  187.6070  177.0220  142.6540 C   0  0  1  0  0  3  0  0  0  0  0  0
  184.7520  178.5930  147.4400 O   0  0  0  0  0  0  0  0  0  0  0  0
  187.1560  177.1010  146.9670 C   0  0  0  0  0  3  0  0  0  0  0  0
  185.7560  176.4790  146.8980 C   0  0  0  0  0  2  0  0  0  0  0  0
  184.7210  177.5370  146.5150 C   0  0  0  0  0  2  0  0  0  0  0  0
  185.9410  179.3000  147.1950 C   0  0  0  0  0  2  0  0  0  0  0  0
  187.1440  178.4760  147.6610 C   0  0  0  0  0  2  0  0  0  0  0  0
  1 12  1  0  0  0  0
  2 12  1  0  0  0  0
  2  6  1  0  0  0  0
  3 16  1  0  0  0  0
  4 14  1  0  0  0  0
  7  9  1  6  0  0  0
  7 13  1  0  0  0  0
  7 11  1  0  0  0  0
  8 17  1  0  0  0  0
  8 10  1  0  0  0  0
 10 20  1  0  0  0  0
 11 16  1  0  0  0  0
 11 14  2  0  0  0  0
 12 23  1  0  0  0  0
 13  5  1  1  0  0  0
 13  4  1  0  0  0  0
 14 18  1  0  0  0  0
 15 19  1  1  0  0  0
 15  1  1  0  0  0  0
 16  2  2  0  0  0  0
 18  6  2  0  0  0  0
 20 19  1  0  0  0  0
 21 17  1  6  0  0  0
 21  3  1  0  0  0  0
 21 15  1  0  0  0  0
 23 27  1  0  0  0  0
 24 23  1  0  0  0  0
 25 24  1  0  0  0  0
 25 22  1  0  0  0  0
 26 22  1  0  0  0  0
 26 27  1  0  0  0  0
M  END
>  <MODEL>
7

>  <REMARK>
 VINA RESULT:      -7.4      2.751      4.869
  Name = 
  1 active torsions:
  status: ('A' for Active; 'I' for Inactive)
    1  A    between atoms: C_9  and  N_15
                            x       y       z     vdW  Elec       q    Type
                         _______ _______ _______ _____ _____    ______ ____

>  <TORSDO>
F 1

$$$$
=
 OpenBabel11052418203D

 27 31  0  0  1  0  0  0  0  0999 V2000
  189.5040  176.8030  144.1350 C   0  0  0  0  0  2  0  0  0  0  0  0
  189.7010  174.2830  143.8430 C   0  0  0  0  0  0  0  0  0  0  0  0
  189.1450  175.5320  141.6500 C   0  0  0  0  0  2  0  0  0  0  0  0
  190.3560  170.9000  141.4830 N   0  0  0  0  0  2  0  0  0  0  0  0
  191.3260  171.3030  139.3470 N   0  0  0  0  0  1  0  0  0  0  0  0
  190.0720  173.1030  144.4380 N   0  0  0  0  0  0  0  0  0  0  0  0
  189.6700  172.8590  140.2530 C   0  0  1  0  0  3  0  0  0  0  0  0
  186.2530  178.0200  141.5260 C   0  0  0  0  0  2  0  0  0  0  0  0
  188.2320  172.9940  139.7800 C   0  0  0  0  0  1  0  0  0  0  0  0
  185.1870  177.7270  142.5860 C   0  0  0  0  0  2  0  0  0  0  0  0
  189.7570  173.1180  141.7210 C   0  0  0  0  0  0  0  0  0  0  0  0
  189.4810  175.4430  144.6850 N   0  0  0  0  0  0  0  0  0  0  0  0
  190.1030  171.3830  140.1260 C   0  0  2  0  0  3  0  0  0  0  0  0
  190.1390  171.9810  142.3630 C   0  0  0  0  0  0  0  0  0  0  0  0
  188.2260  177.1440  143.3650 C   0  0  2  0  0  3  0  0  0  0  0  0
  189.5330  174.3090  142.4240 C   0  0  0  0  0  0  0  0  0  0  0  0
  187.0670  176.7910  141.1050 C   0  0  0  0  0  2  0  0  0  0  0  0
  190.3000  171.9570  143.7390 C   0  0  0  0  0  3  0  0  0  0  0  0
  187.0530  177.4140  144.3230 C   0  0  0  0  0  2  0  0  0  0  0  0
  185.6920  176.9420  143.8010 C   0  0  0  0  0  2  0  0  0  0  0  0
  187.8890  176.1530  142.2340 C   0  0  1  0  0  3  0  0  0  0  0  0
  190.7740  177.1390  147.9040 O   0  0  0  0  0  0  0  0  0  0  0  0
  189.5310  175.2450  146.1450 C   0  0  0  0  0  3  0  0  0  0  0  0
  188.7510  176.3360  146.8890 C   0  0  0  0  0  2  0  0  0  0  0  0
  189.6500  177.5410  147.1640 C   0  0  0  0  0  2  0  0  0  0  0  0
  191.5880  176.4090  147.0220 C   0  0  0  0  0  2  0  0  0  0  0  0
  190.9470  175.0530  146.7190 C   0  0  0  0  0  2  0  0  0  0  0  0
  1 12  1  0  0  0  0
  2  6  1  0  0  0  0
  2 12  1  0  0  0  0
  3 21  1  0  0  0  0
  3 16  1  0  0  0  0
  4 14  1  0  0  0  0
  7  9  1  1  0  0  0
  7 11  1  0  0  0  0
  8 10  1  0  0  0  0
 10 20  1  0  0  0  0
 11 14  2  0  0  0  0
 11 16  1  0  0  0  0
 12 23  1  0  0  0  0
 13  5  1  6  0  0  0
 13  7  1  0  0  0  0
 13  4  1  0  0  0  0
 14 18  1  0  0  0  0
 15  1  1  1  0  0  0
 15 19  1  0  0  0  0
 16  2  2  0  0  0  0
 17  8  1  0  0  0  0
 18  6  2  0  0  0  0
 20 19  1  0  0  0  0
 21 17  1  6  0  0  0
 21 15  1  0  0  0  0
 23 27  1  0  0  0  0
 23 24  1  0  0  0  0
 24 25  1  0  0  0  0
 25 22  1  0  0  0  0
 26 22  1  0  0  0  0
 27 26  1  0  0  0  0
M  END
>  <MODEL>
8

>  <REMARK>
 VINA RESULT:      -7.2      3.975      6.026
  Name = 
  1 active torsions:
  status: ('A' for Active; 'I' for Inactive)
    1  A    between atoms: C_9  and  N_15
                            x       y       z     vdW  Elec       q    Type
                         _______ _______ _______ _____ _____    ______ ____

>  <TORSDO>
F 1

$$$$
=
 OpenBabel11052418203D

 27 31  0  0  1  0  0  0  0  0999 V2000
  190.5760  176.6760  143.7930 C   0  0  0  0  0  2  0  0  0  0  0  0
  192.7780  175.9580  144.8470 C   0  0  0  0  0  0  0  0  0  0  0  0
  192.6680  175.5270  142.3020 C   0  0  0  0  0  2  0  0  0  0  0  0
  196.8470  175.0530  144.5950 N   0  0  0  0  0  2  0  0  0  0  0  0
  197.9410  175.7590  142.6020 N   0  0  0  0  0  1  0  0  0  0  0  0
  193.5510  175.9950  145.9800 N   0  0  0  0  0  0  0  0  0  0  0  0
  195.6550  174.8910  142.5030 C   0  0  1  0  0  3  0  0  0  0  0  0
  189.6980  173.6690  140.7860 C   0  0  0  0  0  2  0  0  0  0  0  0
  195.2500  173.5290  141.9650 C   0  0  0  0  0  1  0  0  0  0  0  0
  189.0120  172.7450  141.7960 C   0  0  0  0  0  2  0  0  0  0  0  0
  194.7610  175.2870  143.6320 C   0  0  0  0  0  0  0  0  0  0  0  0
  191.3680  176.2780  144.9630 N   0  0  0  0  0  0  0  0  0  0  0  0
  197.0410  174.7720  143.1730 C   0  0  2  0  0  3  0  0  0  0  0  0
  195.4820  175.3550  144.7830 C   0  0  0  0  0  0  0  0  0  0  0  0
  190.2130  175.4870  142.9000 C   0  0  2  0  0  3  0  0  0  0  0  0
  193.3940  175.5920  143.6110 C   0  0  0  0  0  0  0  0  0  0  0  0
  191.1750  173.9420  141.0940 C   0  0  0  0  0  2  0  0  0  0  0  0
  194.8830  175.7090  145.9820 C   0  0  0  0  0  3  0  0  0  0  0  0
  189.0950  174.6390  143.5290 C   0  0  0  0  0  2  0  0  0  0  0  0
  189.2190  173.1350  143.2630 C   0  0  0  0  0  2  0  0  0  0  0  0
  191.4260  174.6630  142.4260 C   0  0  1  0  0  3  0  0  0  0  0  0
  188.2670  175.4520  147.1110 O   0  0  0  0  0  0  0  0  0  0  0  0
  190.8230  176.4840  146.3170 C   0  0  0  0  0  3  0  0  0  0  0  0
  190.6500  175.1550  147.0630 C   0  0  0  0  0  2  0  0  0  0  0  0
  189.2820  174.5470  146.7580 C   0  0  0  0  0  2  0  0  0  0  0  0
  188.3070  176.4820  146.1570 C   0  0  0  0  0  2  0  0  0  0  0  0
  189.5500  177.3480  146.3730 C   0  0  0  0  0  2  0  0  0  0  0  0
  1 12  1  0  0  0  0
  2 12  1  0  0  0  0
  2  6  1  0  0  0  0
  3 21  1  0  0  0  0
  3 16  1  0  0  0  0
  4 14  1  0  0  0  0
  6 18  2  0  0  0  0
  7  9  1  1  0  0  0
  7 13  1  0  0  0  0
  7 11  1  0  0  0  0
  8 17  1  0  0  0  0
  8 10  1  0  0  0  0
 10 20  1  0  0  0  0
 11 14  2  0  0  0  0
 12 23  1  0  0  0  0
 13  5  1  6  0  0  0
 13  4  1  0  0  0  0
 14 18  1  0  0  0  0
 15 19  1  1  0  0  0
 15  1  1  0  0  0  0
 16 11  1  0  0  0  0
 16  2  2  0  0  0  0
 20 19  1  0  0  0  0
 21 17  1  6  0  0  0
 21 15  1  0  0  0  0
 23 27  1  0  0  0  0
 23 24  1  0  0  0  0
 25 24  1  0  0  0  0
 25 22  1  0  0  0  0
 26 27  1  0  0  0  0
 26 22  1  0  0  0  0
M  END
>  <MODEL>
9

>  <REMARK>
 VINA RESULT:      -7.1      3.520      6.111
  Name = 
  1 active torsions:
  status: ('A' for Active; 'I' for Inactive)
    1  A    between atoms: C_9  and  N_15
                            x       y       z     vdW  Elec       q    Type
                         _______ _______ _______ _____ _____    ______ ____

>  <TORSDO>
F 1

$$$$
