=
 OpenBabel11052419023D

 34 38  0  0  1  0  0  0  0  0999 V2000
  190.6530  173.5900  141.1200 C   0  0  0  0  0  0  0  0  0  0  0  0
  188.4720  174.6350  141.4330 C   0  0  0  0  0  0  0  0  0  0  0  0
  190.0950  174.3890  143.3370 C   0  0  0  0  0  0  0  0  0  0  0  0
  189.4820  174.7740  145.6530 C   0  0  2  0  0  3  0  0  0  0  0  0
  190.3890  173.4560  139.7560 C   0  0  0  0  0  3  0  0  0  0  0  0
  188.2310  174.4850  140.0640 C   0  0  0  0  0  3  0  0  0  0  0  0
  189.3730  176.6510  143.9710 C   0  0  0  0  0  2  0  0  0  0  0  0
  189.7230  174.2290  141.9790 C   0  0  0  0  0  0  0  0  0  0  0  0
  188.3890  177.3910  144.8630 C   0  0  0  0  0  2  0  0  0  0  0  0
  188.6000  175.5890  146.6010 C   0  0  0  0  0  2  0  0  0  0  0  0
  189.1880  173.9170  139.2250 C   0  0  0  0  0  3  0  0  0  0  0  0
  191.2960  173.8130  143.7940 C   0  0  0  0  0  0  0  0  0  0  0  0
  191.8040  173.0760  141.6220 N   0  0  0  0  0  0  0  0  0  0  0  0
  187.1020  175.1850  142.3900 Cl  0  0  0  0  0  0  0  0  0  0  0  0
  190.8850  174.8280  146.0490 N   0  0  0  0  0  2  0  0  0  0  0  0
  191.6420  173.8280  145.2770 C   0  0  2  0  0  3  0  0  0  0  0  0
  188.7090  177.0890  146.3230 C   0  0  2  0  0  3  0  0  0  0  0  0
  189.3680  175.2120  144.2590 N   0  0  0  0  0  0  0  0  0  0  0  0
  192.1030  173.1630  142.9170 N   0  0  0  0  0  0  0  0  0  0  0  0
  195.3520  173.1200  145.7290 C   0  0  0  0  0  0  0  0  0  0  0  0
  195.8460  174.4080  145.9580 C   0  0  0  0  0  3  0  0  0  0  0  0
  193.1090  174.0180  145.5080 C   0  0  0  0  0  0  0  0  0  0  0  0
  194.9730  175.5000  145.9620 C   0  0  0  0  0  3  0  0  0  0  0  0
  193.9870  172.9240  145.5050 C   0  0  0  0  0  3  0  0  0  0  0  0
  193.6070  175.3050  145.7370 C   0  0  0  0  0  3  0  0  0  0  0  0
  196.1970  172.0610  145.7260 F   0  0  0  0  0  0  0  0  0  0  0  0
  187.8780  177.8750  147.2370 N   0  0  0  0  0  2  0  0  0  0  0  0
  186.5220  177.3300  147.3080 C   0  0  0  0  0  2  0  0  0  0  0  0
  186.0360  179.6660  147.5050 F   0  0  0  0  0  0  0  0  0  0  0  0
  185.4820  178.4410  147.1740 C   0  0  1  0  0  3  0  0  0  0  0  0
  185.5060  179.5480  144.9250 C   0  0  0  0  0  1  0  0  0  0  0  0
  184.8280  178.5000  145.7900 C   0  0  0  0  0  0  0  0  0  0  0  0
  183.4810  178.7970  145.9000 F   0  0  0  0  0  0  0  0  0  0  0  0
  184.9630  177.2700  145.1750 F   0  0  0  0  0  0  0  0  0  0  0  0
  1 13  2  0  0  0  0
  1  8  1  0  0  0  0
  2  8  1  0  0  0  0
  2 14  1  0  0  0  0
  3 12  1  0  0  0  0
  3 18  1  0  0  0  0
  4 15  1  0  0  0  0
  4 10  1  1  0  0  0
  5  1  1  0  0  0  0
  6  2  2  0  0  0  0
  7 18  1  0  0  0  0
  7  9  1  0  0  0  0
  8  3  2  0  0  0  0
  9 17  1  0  0  0  0
 11  5  2  0  0  0  0
 11  6  1  0  0  0  0
 12 16  1  0  0  0  0
 13 19  1  0  0  0  0
 16 22  1  6  0  0  0
 16 15  1  0  0  0  0
 17 10  1  0  0  0  0
 17 27  1  1  0  0  0
 18  4  1  0  0  0  0
 19 12  2  0  0  0  0
 20 21  1  0  0  0  0
 21 23  2  0  0  0  0
 22 25  2  0  0  0  0
 24 22  1  0  0  0  0
 24 20  2  0  0  0  0
 25 23  1  0  0  0  0
 26 20  1  0  0  0  0
 27 28  1  0  0  0  0
 30 28  1  0  0  0  0
 30 29  1  6  0  0  0
 31 32  1  0  0  0  0
 32 33  1  0  0  0  0
 32 30  1  0  0  0  0
 34 32  1  0  0  0  0
M  END
>  <MODEL>
1

>  <REMARK>
 VINA RESULT:      -8.6      0.000      0.000
  Name = 
  5 active torsions:
  status: ('A' for Active; 'I' for Inactive)
    1  A    between atoms: N_3  and  C_13
    2  A    between atoms: N_3  and  C_29
    3  A    between atoms: C_12  and  C_28
    4  A    between atoms: C_13  and  C_33
    5  A    between atoms: C_20  and  C_33
                            x       y       z     vdW  Elec       q    Type
                         _______ _______ _______ _____ _____    ______ ____

>  <TORSDO>
F 5

$$$$
=
 OpenBabel11052419023D

 34 38  0  0  1  0  0  0  0  0999 V2000
  190.6370  173.6330  140.8710 C   0  0  0  0  0  0  0  0  0  0  0  0
  188.4450  174.6100  141.3020 C   0  0  0  0  0  0  0  0  0  0  0  0
  190.1620  174.3840  143.1240 C   0  0  0  0  0  0  0  0  0  0  0  0
  189.6490  174.7180  145.4710 C   0  0  2  0  0  3  0  0  0  0  0  0
  190.3130  173.5110  139.5180 C   0  0  0  0  0  3  0  0  0  0  0  0
  188.1440  174.4720  139.9430 C   0  0  0  0  0  3  0  0  0  0  0  0
  189.4070  176.6140  143.8250 C   0  0  0  0  0  2  0  0  0  0  0  0
  189.7310  174.2330  141.7820 C   0  0  0  0  0  0  0  0  0  0  0  0
  188.4460  177.3130  144.7750 C   0  0  0  0  0  2  0  0  0  0  0  0
  188.7900  175.4930  146.4720 C   0  0  0  0  0  2  0  0  0  0  0  0
  189.0750  173.9440  139.0520 C   0  0  0  0  0  3  0  0  0  0  0  0
  191.4000  173.8370  143.5140 C   0  0  0  0  0  0  0  0  0  0  0  0
  191.8250  173.1460  141.3100 N   0  0  0  0  0  0  0  0  0  0  0  0
  187.1070  175.1050  142.3310 Cl  0  0  0  0  0  0  0  0  0  0  0  0
  191.0670  174.8070  145.8020 N   0  0  0  0  0  2  0  0  0  0  0  0
  191.8150  173.8410  144.9800 C   0  0  2  0  0  3  0  0  0  0  0  0
  188.8440  176.9990  146.2120 C   0  0  2  0  0  3  0  0  0  0  0  0
  189.4570  175.1720  144.0910 N   0  0  0  0  0  0  0  0  0  0  0  0
  192.1820  173.2230  142.5900 N   0  0  0  0  0  0  0  0  0  0  0  0
  195.2210  175.5320  145.0780 C   0  0  0  0  0  0  0  0  0  0  0  0
  196.0420  174.4610  145.4450 C   0  0  0  0  0  3  0  0  0  0  0  0
  193.2850  174.0700  145.1440 C   0  0  0  0  0  0  0  0  0  0  0  0
  195.4860  173.1970  145.6610 C   0  0  0  0  0  3  0  0  0  0  0  0
  193.8450  175.3380  144.9270 C   0  0  0  0  0  3  0  0  0  0  0  0
  194.1100  173.0020  145.5110 C   0  0  0  0  0  3  0  0  0  0  0  0
  195.7590  176.7570  144.8670 F   0  0  0  0  0  0  0  0  0  0  0  0
  188.0350  177.7480  147.1770 N   0  0  0  0  0  2  0  0  0  0  0  0
  186.6520  177.2710  147.1790 C   0  0  0  0  0  2  0  0  0  0  0  0
  186.2770  179.5580  147.7750 F   0  0  0  0  0  0  0  0  0  0  0  0
  185.6710  178.4420  147.2240 C   0  0  1  0  0  3  0  0  0  0  0  0
  185.0670  177.5530  144.9600 C   0  0  0  0  0  1  0  0  0  0  0  0
  185.0580  178.7750  145.8610 C   0  0  0  0  0  0  0  0  0  0  0  0
  185.7590  179.8000  145.2490 F   0  0  0  0  0  0  0  0  0  0  0  0
  183.7490  179.1770  146.0410 F   0  0  0  0  0  0  0  0  0  0  0  0
  1 13  2  0  0  0  0
  1  8  1  0  0  0  0
  2  8  1  0  0  0  0
  2 14  1  0  0  0  0
  3 12  1  0  0  0  0
  3 18  1  0  0  0  0
  4 15  1  0  0  0  0
  4 10  1  1  0  0  0
  5  1  1  0  0  0  0
  6  2  2  0  0  0  0
  7 18  1  0  0  0  0
  7  9  1  0  0  0  0
  8  3  2  0  0  0  0
  9 17  1  0  0  0  0
 11  5  2  0  0  0  0
 11  6  1  0  0  0  0
 12 16  1  0  0  0  0
 13 19  1  0  0  0  0
 16 22  1  6  0  0  0
 16 15  1  0  0  0  0
 17 10  1  0  0  0  0
 17 27  1  1  0  0  0
 18  4  1  0  0  0  0
 19 12  2  0  0  0  0
 20 21  1  0  0  0  0
 21 23  2  0  0  0  0
 22 25  2  0  0  0  0
 24 20  2  0  0  0  0
 24 22  1  0  0  0  0
 25 23  1  0  0  0  0
 26 20  1  0  0  0  0
 27 28  1  0  0  0  0
 28 30  1  0  0  0  0
 30 29  1  6  0  0  0
 31 32  1  0  0  0  0
 32 34  1  0  0  0  0
 32 30  1  0  0  0  0
 33 32  1  0  0  0  0
M  END
>  <MODEL>
2

>  <REMARK>
 VINA RESULT:      -8.3      1.004      1.386
  Name = 
  5 active torsions:
  status: ('A' for Active; 'I' for Inactive)
    1  A    between atoms: N_3  and  C_13
    2  A    between atoms: N_3  and  C_29
    3  A    between atoms: C_12  and  C_28
    4  A    between atoms: C_13  and  C_33
    5  A    between atoms: C_20  and  C_33
                            x       y       z     vdW  Elec       q    Type
                         _______ _______ _______ _____ _____    ______ ____

>  <TORSDO>
F 5

$$$$
=
 OpenBabel11052419023D

 34 38  0  0  1  0  0  0  0  0999 V2000
  188.4830  174.5690  140.3550 C   0  0  0  0  0  0  0  0  0  0  0  0
  190.7010  173.7070  140.8860 C   0  0  0  0  0  0  0  0  0  0  0  0
  189.6190  175.4950  142.2830 C   0  0  0  0  0  0  0  0  0  0  0  0
  190.8220  176.7660  143.9640 C   0  0  2  0  0  3  0  0  0  0  0  0
  188.3810  173.6520  139.3080 C   0  0  0  0  0  3  0  0  0  0  0  0
  190.5750  172.8010  139.8280 C   0  0  0  0  0  3  0  0  0  0  0  0
  190.5490  174.2690  144.1980 C   0  0  0  0  0  2  0  0  0  0  0  0
  189.6220  174.5820  141.1990 C   0  0  0  0  0  0  0  0  0  0  0  0
  191.7520  174.2260  145.1280 C   0  0  0  0  0  2  0  0  0  0  0  0
  191.9430  176.7290  145.0040 C   0  0  0  0  0  2  0  0  0  0  0  0
  189.4180  172.7590  139.0540 C   0  0  0  0  0  3  0  0  0  0  0  0
  188.5590  176.4150  142.4040 C   0  0  0  0  0  0  0  0  0  0  0  0
  187.4860  175.4700  140.5410 N   0  0  0  0  0  0  0  0  0  0  0  0
  192.2880  173.7770  141.6420 Cl  0  0  0  0  0  0  0  0  0  0  0  0
  189.5710  177.2450  144.5430 N   0  0  0  0  0  2  0  0  0  0  0  0
  188.6100  177.5120  143.4590 C   0  0  2  0  0  3  0  0  0  0  0  0
  191.8110  175.5210  145.9320 C   0  0  2  0  0  3  0  0  0  0  0  0
  190.5840  175.4600  143.3420 N   0  0  0  0  0  0  0  0  0  0  0  0
  187.5340  176.3770  141.5150 N   0  0  0  0  0  0  0  0  0  0  0  0
  185.4270  177.2020  145.5190 C   0  0  0  0  0  0  0  0  0  0  0  0
  184.7220  178.3340  145.0970 C   0  0  0  0  0  3  0  0  0  0  0  0
  187.2590  177.7910  144.0410 C   0  0  0  0  0  0  0  0  0  0  0  0
  185.2840  179.1930  144.1480 C   0  0  0  0  0  3  0  0  0  0  0  0
  186.6920  176.9300  144.9930 C   0  0  0  0  0  3  0  0  0  0  0  0
  186.5500  178.9210  143.6220 C   0  0  0  0  0  3  0  0  0  0  0  0
  184.8820  176.3690  146.4380 F   0  0  0  0  0  0  0  0  0  0  0  0
  192.8730  175.4880  146.9390 N   0  0  0  0  0  2  0  0  0  0  0  0
  194.0220  176.2850  146.5110 C   0  0  0  0  0  2  0  0  0  0  0  0
  194.7870  174.0550  146.0980 F   0  0  0  0  0  0  0  0  0  0  0  0
  195.1420  175.3880  145.9850 C   0  0  1  0  0  3  0  0  0  0  0  0
  196.8590  175.0090  144.2000 C   0  0  0  0  0  1  0  0  0  0  0  0
  195.5620  175.7160  144.5490 C   0  0  0  0  0  0  0  0  0  0  0  0
  195.7270  177.0810  144.3900 F   0  0  0  0  0  0  0  0  0  0  0  0
  194.5790  175.2820  143.6810 F   0  0  0  0  0  0  0  0  0  0  0  0
  1 13  2  0  0  0  0
  1  8  1  0  0  0  0
  2  8  1  0  0  0  0
  2 14  1  0  0  0  0
  3 12  1  0  0  0  0
  3 18  1  0  0  0  0
  4 15  1  0  0  0  0
  4 10  1  1  0  0  0
  5  1  1  0  0  0  0
  6  2  2  0  0  0  0
  7  9  1  0  0  0  0
  8  3  2  0  0  0  0
  9 17  1  0  0  0  0
 10 17  1  0  0  0  0
 11  5  2  0  0  0  0
 11  6  1  0  0  0  0
 12 16  1  0  0  0  0
 13 19  1  0  0  0  0
 16 22  1  1  0  0  0
 16 15  1  0  0  0  0
 17 27  1  1  0  0  0
 18  4  1  0  0  0  0
 18  7  1  0  0  0  0
 19 12  2  0  0  0  0
 20 26  1  0  0  0  0
 21 20  1  0  0  0  0
 22 24  1  0  0  0  0
 23 21  2  0  0  0  0
 24 20  2  0  0  0  0
 25 22  2  0  0  0  0
 25 23  1  0  0  0  0
 28 27  1  0  0  0  0
 30 29  1  6  0  0  0
 30 28  1  0  0  0  0
 31 32  1  0  0  0  0
 32 30  1  0  0  0  0
 33 32  1  0  0  0  0
 34 32  1  0  0  0  0
M  END
>  <MODEL>
3

>  <REMARK>
 VINA RESULT:      -8.2      2.211      7.212
  Name = 
  5 active torsions:
  status: ('A' for Active; 'I' for Inactive)
    1  A    between atoms: N_3  and  C_13
    2  A    between atoms: N_3  and  C_29
    3  A    between atoms: C_12  and  C_28
    4  A    between atoms: C_13  and  C_33
    5  A    between atoms: C_20  and  C_33
                            x       y       z     vdW  Elec       q    Type
                         _______ _______ _______ _____ _____    ______ ____

>  <TORSDO>
F 5

$$$$
=
 OpenBabel11052419023D

 34 38  0  0  1  0  0  0  0  0999 V2000
  193.4530  174.8960  143.9690 C   0  0  0  0  0  0  0  0  0  0  0  0
  192.9680  175.9870  146.0950 C   0  0  0  0  0  0  0  0  0  0  0  0
  191.2030  175.7190  144.3260 C   0  0  0  0  0  0  0  0  0  0  0  0
  189.0620  176.8570  144.4120 C   0  0  2  0  0  3  0  0  0  0  0  0
  194.7480  174.6210  144.4100 C   0  0  0  0  0  3  0  0  0  0  0  0
  194.2720  175.7030  146.5100 C   0  0  0  0  0  3  0  0  0  0  0  0
  189.7010  175.1940  146.1980 C   0  0  0  0  0  2  0  0  0  0  0  0
  192.5190  175.5380  144.8210 C   0  0  0  0  0  0  0  0  0  0  0  0
  188.6970  175.8300  147.1470 C   0  0  0  0  0  2  0  0  0  0  0  0
  187.9630  177.4000  145.3270 C   0  0  0  0  0  2  0  0  0  0  0  0
  195.1530  175.0090  145.6830 C   0  0  0  0  0  3  0  0  0  0  0  0
  190.9160  175.3670  142.9920 C   0  0  0  0  0  0  0  0  0  0  0  0
  193.1030  174.5630  142.7010 N   0  0  0  0  0  0  0  0  0  0  0  0
  192.0420  177.0360  147.1620 Cl  0  0  0  0  0  0  0  0  0  0  0  0
  188.5160  175.9760  143.3850 N   0  0  0  0  0  2  0  0  0  0  0  0
  189.5590  175.6990  142.3840 C   0  0  2  0  0  3  0  0  0  0  0  0
  187.5100  176.3530  146.3460 C   0  0  2  0  0  3  0  0  0  0  0  0
  190.1050  176.1350  145.1470 N   0  0  0  0  0  0  0  0  0  0  0  0
  191.8870  174.8120  142.2220 N   0  0  0  0  0  0  0  0  0  0  0  0
  188.2270  173.9300  139.2900 C   0  0  0  0  0  0  0  0  0  0  0  0
  188.2010  172.6030  139.7300 C   0  0  0  0  0  3  0  0  0  0  0  0
  189.0890  174.6290  141.4480 C   0  0  0  0  0  0  0  0  0  0  0  0
  188.6180  172.2890  141.0270 C   0  0  0  0  0  3  0  0  0  0  0  0
  188.6690  174.9420  140.1470 C   0  0  0  0  0  3  0  0  0  0  0  0
  189.0610  173.3000  141.8840 C   0  0  0  0  0  3  0  0  0  0  0  0
  187.8220  174.2360  138.0340 F   0  0  0  0  0  0  0  0  0  0  0  0
  186.4470  176.8620  147.2150 N   0  0  0  0  0  2  0  0  0  0  0  0
  185.1640  176.8820  146.5130 C   0  0  0  0  0  2  0  0  0  0  0  0
  185.5600  179.2140  146.8810 F   0  0  0  0  0  0  0  0  0  0  0  0
  184.6960  178.3170  146.2760 C   0  0  1  0  0  3  0  0  0  0  0  0
  185.4470  179.7820  144.3860 C   0  0  0  0  0  1  0  0  0  0  0  0
  184.5090  178.6600  144.7950 C   0  0  0  0  0  0  0  0  0  0  0  0
  183.2030  179.0400  144.5440 F   0  0  0  0  0  0  0  0  0  0  0  0
  184.8020  177.5450  144.0330 F   0  0  0  0  0  0  0  0  0  0  0  0
  1  5  2  0  0  0  0
  1  8  1  0  0  0  0
  2  6  1  0  0  0  0
  2 14  1  0  0  0  0
  3  8  1  0  0  0  0
  3 18  1  0  0  0  0
  4 18  1  0  0  0  0
  4 10  1  1  0  0  0
  5 11  1  0  0  0  0
  7  9  1  0  0  0  0
  8  2  2  0  0  0  0
 10 17  1  0  0  0  0
 11  6  2  0  0  0  0
 12  3  2  0  0  0  0
 13  1  1  0  0  0  0
 15  4  1  0  0  0  0
 16 22  1  1  0  0  0
 16 12  1  0  0  0  0
 16 15  1  0  0  0  0
 17  9  1  0  0  0  0
 17 27  1  1  0  0  0
 18  7  1  0  0  0  0
 19 13  2  0  0  0  0
 19 12  1  0  0  0  0
 20 21  2  0  0  0  0
 20 24  1  0  0  0  0
 21 23  1  0  0  0  0
 22 25  1  0  0  0  0
 23 25  2  0  0  0  0
 24 22  2  0  0  0  0
 26 20  1  0  0  0  0
 28 27  1  0  0  0  0
 30 28  1  0  0  0  0
 30 29  1  6  0  0  0
 31 32  1  0  0  0  0
 32 30  1  0  0  0  0
 33 32  1  0  0  0  0
 34 32  1  0  0  0  0
M  END
>  <MODEL>
4

>  <REMARK>
 VINA RESULT:      -7.9      2.684      5.299
  Name = 
  5 active torsions:
  status: ('A' for Active; 'I' for Inactive)
    1  A    between atoms: N_3  and  C_13
    2  A    between atoms: N_3  and  C_29
    3  A    between atoms: C_12  and  C_28
    4  A    between atoms: C_13  and  C_33
    5  A    between atoms: C_20  and  C_33
                            x       y       z     vdW  Elec       q    Type
                         _______ _______ _______ _____ _____    ______ ____

>  <TORSDO>
F 5

$$$$
=
 OpenBabel11052419023D

 34 38  0  0  1  0  0  0  0  0999 V2000
  194.1220  174.0560  143.8440 C   0  0  0  0  0  0  0  0  0  0  0  0
  194.0650  175.4360  145.8530 C   0  0  0  0  0  0  0  0  0  0  0  0
  192.1380  175.3880  144.2390 C   0  0  0  0  0  0  0  0  0  0  0  0
  190.3050  176.9750  144.3230 C   0  0  2  0  0  3  0  0  0  0  0  0
  195.3620  173.5460  144.2330 C   0  0  0  0  0  3  0  0  0  0  0  0
  195.3090  174.9140  146.2170 C   0  0  0  0  0  3  0  0  0  0  0  0
  190.7250  175.4020  146.2490 C   0  0  0  0  0  2  0  0  0  0  0  0
  193.4230  174.9720  144.6700 C   0  0  0  0  0  0  0  0  0  0  0  0
  189.9660  176.3370  147.1770 C   0  0  0  0  0  2  0  0  0  0  0  0
  189.4300  177.8380  145.2340 C   0  0  0  0  0  2  0  0  0  0  0  0
  195.9480  173.9620  145.4250 C   0  0  0  0  0  3  0  0  0  0  0  0
  191.6690  174.9760  142.9760 C   0  0  0  0  0  0  0  0  0  0  0  0
  193.6020  173.6820  142.6480 N   0  0  0  0  0  0  0  0  0  0  0  0
  193.4790  176.7670  146.8440 Cl  0  0  0  0  0  0  0  0  0  0  0  0
  189.4980  176.1380  143.4420 N   0  0  0  0  0  2  0  0  0  0  0  0
  190.3680  175.5370  142.4180 C   0  0  2  0  0  3  0  0  0  0  0  0
  188.8530  177.0250  146.3940 C   0  0  2  0  0  3  0  0  0  0  0  0
  191.2290  176.1180  145.0720 N   0  0  0  0  0  0  0  0  0  0  0  0
  192.4300  174.1450  142.2180 N   0  0  0  0  0  0  0  0  0  0  0  0
  187.7880  172.9060  141.4730 C   0  0  0  0  0  0  0  0  0  0  0  0
  188.2010  172.5770  140.1780 C   0  0  0  0  0  3  0  0  0  0  0  0
  189.6020  174.5080  141.6460 C   0  0  0  0  0  0  0  0  0  0  0  0
  189.3130  173.2120  139.6180 C   0  0  0  0  0  3  0  0  0  0  0  0
  188.4860  173.8680  142.2070 C   0  0  0  0  0  3  0  0  0  0  0  0
  190.0120  174.1760  140.3500 C   0  0  0  0  0  3  0  0  0  0  0  0
  186.7110  172.2900  142.0180 F   0  0  0  0  0  0  0  0  0  0  0  0
  188.0020  177.8420  147.2620 N   0  0  0  0  0  2  0  0  0  0  0  0
  186.6470  177.2950  147.3290 C   0  0  0  0  0  2  0  0  0  0  0  0
  186.1850  179.6320  147.5610 F   0  0  0  0  0  0  0  0  0  0  0  0
  185.6050  178.4100  147.2650 C   0  0  1  0  0  3  0  0  0  0  0  0
  185.5650  179.4240  144.9730 C   0  0  0  0  0  1  0  0  0  0  0  0
  184.8620  178.4740  145.9270 C   0  0  0  0  0  0  0  0  0  0  0  0
  183.5570  178.8940  146.1140 F   0  0  0  0  0  0  0  0  0  0  0  0
  184.8470  177.2150  145.3590 F   0  0  0  0  0  0  0  0  0  0  0  0
  1  5  2  0  0  0  0
  1  8  1  0  0  0  0
  2  6  1  0  0  0  0
  2 14  1  0  0  0  0
  3  8  1  0  0  0  0
  3 18  1  0  0  0  0
  4 18  1  0  0  0  0
  4 10  1  1  0  0  0
  5 11  1  0  0  0  0
  7  9  1  0  0  0  0
  8  2  2  0  0  0  0
 10 17  1  0  0  0  0
 11  6  2  0  0  0  0
 12  3  2  0  0  0  0
 13  1  1  0  0  0  0
 15  4  1  0  0  0  0
 16 22  1  1  0  0  0
 16 12  1  0  0  0  0
 16 15  1  0  0  0  0
 17  9  1  0  0  0  0
 17 27  1  1  0  0  0
 18  7  1  0  0  0  0
 19 13  2  0  0  0  0
 19 12  1  0  0  0  0
 20 26  1  0  0  0  0
 20 24  1  0  0  0  0
 21 20  2  0  0  0  0
 22 24  2  0  0  0  0
 23 21  1  0  0  0  0
 23 25  2  0  0  0  0
 25 22  1  0  0  0  0
 27 28  1  0  0  0  0
 30 28  1  0  0  0  0
 30 29  1  6  0  0  0
 31 32  1  0  0  0  0
 32 33  1  0  0  0  0
 32 30  1  0  0  0  0
 34 32  1  0  0  0  0
M  END
>  <MODEL>
5

>  <REMARK>
 VINA RESULT:      -7.7      2.458      5.180
  Name = 
  5 active torsions:
  status: ('A' for Active; 'I' for Inactive)
    1  A    between atoms: N_3  and  C_13
    2  A    between atoms: N_3  and  C_29
    3  A    between atoms: C_12  and  C_28
    4  A    between atoms: C_13  and  C_33
    5  A    between atoms: C_20  and  C_33
                            x       y       z     vdW  Elec       q    Type
                         _______ _______ _______ _____ _____    ______ ____

>  <TORSDO>
F 5

$$$$
=
 OpenBabel11052419023D

 34 38  0  0  1  0  0  0  0  0999 V2000
  186.1930  177.6410  142.8030 C   0  0  0  0  0  0  0  0  0  0  0  0
  186.7990  178.2290  145.0910 C   0  0  0  0  0  0  0  0  0  0  0  0
  187.9080  176.3200  143.8890 C   0  0  0  0  0  0  0  0  0  0  0  0
  189.3210  174.6970  145.0090 C   0  0  2  0  0  3  0  0  0  0  0  0
  185.3150  178.7260  142.7610 C   0  0  0  0  0  3  0  0  0  0  0  0
  185.9100  179.3060  145.0230 C   0  0  0  0  0  3  0  0  0  0  0  0
  189.9750  177.1330  144.9410 C   0  0  0  0  0  2  0  0  0  0  0  0
  186.9910  177.4000  143.9500 C   0  0  0  0  0  0  0  0  0  0  0  0
  190.8650  176.9260  146.1560 C   0  0  0  0  0  2  0  0  0  0  0  0
  190.3220  174.4730  146.1440 C   0  0  0  0  0  2  0  0  0  0  0  0
  185.1850  179.5670  143.8620 C   0  0  0  0  0  3  0  0  0  0  0  0
  187.9040  175.4770  142.7600 C   0  0  0  0  0  0  0  0  0  0  0  0
  186.2540  176.8010  141.7400 N   0  0  0  0  0  0  0  0  0  0  0  0
  187.4890  177.9120  146.6780 Cl  0  0  0  0  0  0  0  0  0  0  0  0
  189.8470  174.2260  143.7320 N   0  0  0  0  0  2  0  0  0  0  0  0
  188.7610  174.2180  142.7380 C   0  0  2  0  0  3  0  0  0  0  0  0
  191.4410  175.5150  146.1220 C   0  0  2  0  0  3  0  0  0  0  0  0
  188.9320  176.1040  144.8680 N   0  0  0  0  0  0  0  0  0  0  0  0
  187.0620  175.7430  141.7290 N   0  0  0  0  0  0  0  0  0  0  0  0
  189.0330  173.3530  139.0430 C   0  0  0  0  0  0  0  0  0  0  0  0
  190.4150  173.4420  138.8470 C   0  0  0  0  0  3  0  0  0  0  0  0
  189.3250  173.9510  141.3770 C   0  0  0  0  0  0  0  0  0  0  0  0
  191.2510  173.7840  139.9140 C   0  0  0  0  0  3  0  0  0  0  0  0
  188.4880  173.6060  140.3050 C   0  0  0  0  0  3  0  0  0  0  0  0
  190.7060  174.0380  141.1760 C   0  0  0  0  0  3  0  0  0  0  0  0
  188.2230  173.0210  138.0100 F   0  0  0  0  0  0  0  0  0  0  0  0
  192.4100  175.2960  147.1980 N   0  0  0  0  0  2  0  0  0  0  0  0
  193.4870  176.2860  147.1390 C   0  0  0  0  0  2  0  0  0  0  0  0
  194.3880  174.5080  145.8130 F   0  0  0  0  0  0  0  0  0  0  0  0
  194.6090  175.8150  146.2150 C   0  0  1  0  0  3  0  0  0  0  0  0
  195.9250  176.1770  144.1130 C   0  0  0  0  0  1  0  0  0  0  0  0
  194.8230  176.7250  145.0030 C   0  0  0  0  0  0  0  0  0  0  0  0
  195.1570  178.0060  145.4090 F   0  0  0  0  0  0  0  0  0  0  0  0
  193.6540  176.7810  144.2690 F   0  0  0  0  0  0  0  0  0  0  0  0
  1  8  1  0  0  0  0
  2 14  1  0  0  0  0
  3  8  1  0  0  0  0
  3 18  1  0  0  0  0
  4 10  1  1  0  0  0
  5  1  2  0  0  0  0
  5 11  1  0  0  0  0
  6  2  1  0  0  0  0
  7  9  1  0  0  0  0
  8  2  2  0  0  0  0
 11  6  2  0  0  0  0
 12  3  2  0  0  0  0
 13  1  1  0  0  0  0
 15  4  1  0  0  0  0
 16 22  1  6  0  0  0
 16 12  1  0  0  0  0
 16 15  1  0  0  0  0
 17 10  1  0  0  0  0
 17  9  1  0  0  0  0
 17 27  1  1  0  0  0
 18  7  1  0  0  0  0
 18  4  1  0  0  0  0
 19 13  2  0  0  0  0
 19 12  1  0  0  0  0
 20 24  1  0  0  0  0
 21 20  2  0  0  0  0
 21 23  1  0  0  0  0
 23 25  2  0  0  0  0
 24 22  2  0  0  0  0
 25 22  1  0  0  0  0
 26 20  1  0  0  0  0
 28 27  1  0  0  0  0
 30 29  1  6  0  0  0
 30 28  1  0  0  0  0
 31 32  1  0  0  0  0
 32 33  1  0  0  0  0
 32 30  1  0  0  0  0
 34 32  1  0  0  0  0
M  END
>  <MODEL>
6

>  <REMARK>
 VINA RESULT:      -7.6      3.428      6.900
  Name = 
  5 active torsions:
  status: ('A' for Active; 'I' for Inactive)
    1  A    between atoms: N_3  and  C_13
    2  A    between atoms: N_3  and  C_29
    3  A    between atoms: C_12  and  C_28
    4  A    between atoms: C_13  and  C_33
    5  A    between atoms: C_20  and  C_33
                            x       y       z     vdW  Elec       q    Type
                         _______ _______ _______ _____ _____    ______ ____

>  <TORSDO>
F 5

$$$$
=
 OpenBabel11052419023D

 34 38  0  0  1  0  0  0  0  0999 V2000
  194.4630  173.9470  143.8110 C   0  0  0  0  0  0  0  0  0  0  0  0
  194.4190  175.3940  145.7730 C   0  0  0  0  0  0  0  0  0  0  0  0
  192.4710  175.2710  144.1900 C   0  0  0  0  0  0  0  0  0  0  0  0
  190.6210  176.8410  144.2460 C   0  0  2  0  0  3  0  0  0  0  0  0
  195.7140  173.4640  144.2000 C   0  0  0  0  0  3  0  0  0  0  0  0
  195.6740  174.8970  146.1380 C   0  0  0  0  0  3  0  0  0  0  0  0
  191.0860  175.3370  146.2180 C   0  0  0  0  0  2  0  0  0  0  0  0
  193.7660  174.8830  144.6160 C   0  0  0  0  0  0  0  0  0  0  0  0
  190.3280  176.2950  147.1240 C   0  0  0  0  0  2  0  0  0  0  0  0
  189.7490  177.7240  145.1400 C   0  0  0  0  0  2  0  0  0  0  0  0
  196.3120  173.9260  145.3690 C   0  0  0  0  0  3  0  0  0  0  0  0
  191.9890  174.8110  142.9480 C   0  0  0  0  0  0  0  0  0  0  0  0
  193.9310  173.5280  142.6360 N   0  0  0  0  0  0  0  0  0  0  0  0
  193.8320  176.7510  146.7280 Cl  0  0  0  0  0  0  0  0  0  0  0  0
  189.8110  175.9660  143.4050 N   0  0  0  0  0  2  0  0  0  0  0  0
  190.6740  175.3390  142.3900 C   0  0  2  0  0  3  0  0  0  0  0  0
  189.1980  176.9450  146.3350 C   0  0  2  0  0  3  0  0  0  0  0  0
  191.5650  176.0190  145.0100 N   0  0  0  0  0  0  0  0  0  0  0  0
  192.7480  173.9630  142.2080 N   0  0  0  0  0  0  0  0  0  0  0  0
  189.5660  172.8700  139.7160 C   0  0  0  0  0  0  0  0  0  0  0  0
  188.4450  172.2980  140.3260 C   0  0  0  0  0  3  0  0  0  0  0  0
  189.9090  174.2770  141.6630 C   0  0  0  0  0  0  0  0  0  0  0  0
  188.0570  172.7150  141.6030 C   0  0  0  0  0  3  0  0  0  0  0  0
  190.2970  173.8580  140.3810 C   0  0  0  0  0  3  0  0  0  0  0  0
  188.7880  173.7020  142.2700 C   0  0  0  0  0  3  0  0  0  0  0  0
  189.9420  172.4680  138.4780 F   0  0  0  0  0  0  0  0  0  0  0  0
  188.3500  177.7820  147.1860 N   0  0  0  0  0  2  0  0  0  0  0  0
  187.0080  177.2110  147.3080 C   0  0  0  0  0  2  0  0  0  0  0  0
  185.2670  176.4250  145.8660 F   0  0  0  0  0  0  0  0  0  0  0  0
  186.2040  177.4330  146.0280 C   0  0  1  0  0  3  0  0  0  0  0  0
  184.0360  178.6640  145.7720 C   0  0  0  0  0  1  0  0  0  0  0  0
  185.5360  178.8090  145.9590 C   0  0  0  0  0  0  0  0  0  0  0  0
  186.0580  179.5510  144.9140 F   0  0  0  0  0  0  0  0  0  0  0  0
  185.7670  179.4830  147.1420 F   0  0  0  0  0  0  0  0  0  0  0  0
  1  5  2  0  0  0  0
  1  8  1  0  0  0  0
  2  6  1  0  0  0  0
  2 14  1  0  0  0  0
  3  8  1  0  0  0  0
  3 18  1  0  0  0  0
  4 18  1  0  0  0  0
  4 10  1  1  0  0  0
  5 11  1  0  0  0  0
  7  9  1  0  0  0  0
  8  2  2  0  0  0  0
 10 17  1  0  0  0  0
 11  6  2  0  0  0  0
 12  3  2  0  0  0  0
 13  1  1  0  0  0  0
 15  4  1  0  0  0  0
 16 22  1  1  0  0  0
 16 12  1  0  0  0  0
 16 15  1  0  0  0  0
 17  9  1  0  0  0  0
 17 27  1  1  0  0  0
 18  7  1  0  0  0  0
 19 13  2  0  0  0  0
 19 12  1  0  0  0  0
 20 21  2  0  0  0  0
 20 24  1  0  0  0  0
 21 23  1  0  0  0  0
 22 25  1  0  0  0  0
 23 25  2  0  0  0  0
 24 22  2  0  0  0  0
 26 20  1  0  0  0  0
 27 28  1  0  0  0  0
 30 29  1  1  0  0  0
 30 28  1  0  0  0  0
 31 32  1  0  0  0  0
 32 30  1  0  0  0  0
 32 34  1  0  0  0  0
 33 32  1  0  0  0  0
M  END
>  <MODEL>
7

>  <REMARK>
 VINA RESULT:      -7.5      2.539      5.272
  Name = 
  5 active torsions:
  status: ('A' for Active; 'I' for Inactive)
    1  A    between atoms: N_3  and  C_13
    2  A    between atoms: N_3  and  C_29
    3  A    between atoms: C_12  and  C_28
    4  A    between atoms: C_13  and  C_33
    5  A    between atoms: C_20  and  C_33
                            x       y       z     vdW  Elec       q    Type
                         _______ _______ _______ _____ _____    ______ ____

>  <TORSDO>
F 5

$$$$
=
 OpenBabel11052419023D

 34 38  0  0  1  0  0  0  0  0999 V2000
  190.7270  176.2850  146.4690 C   0  0  0  0  0  0  0  0  0  0  0  0
  191.8340  174.6790  145.0050 C   0  0  0  0  0  0  0  0  0  0  0  0
  189.4920  175.4700  144.5510 C   0  0  0  0  0  0  0  0  0  0  0  0
  188.0370  174.4200  142.9180 C   0  0  2  0  0  3  0  0  0  0  0  0
  191.8920  176.3900  147.2300 C   0  0  0  0  0  3  0  0  0  0  0  0
  192.9870  174.7990  145.7870 C   0  0  0  0  0  3  0  0  0  0  0  0
  190.1880  175.5200  142.1960 C   0  0  0  0  0  2  0  0  0  0  0  0
  190.6890  175.4680  145.3100 C   0  0  0  0  0  0  0  0  0  0  0  0
  190.1870  174.6850  140.9240 C   0  0  0  0  0  2  0  0  0  0  0  0
  187.9750  173.6870  141.5770 C   0  0  0  0  0  2  0  0  0  0  0  0
  193.0250  175.6610  146.8820 C   0  0  0  0  0  3  0  0  0  0  0  0
  188.3720  176.1760  145.0340 C   0  0  0  0  0  0  0  0  0  0  0  0
  189.6170  176.9570  146.8660 N   0  0  0  0  0  0  0  0  0  0  0  0
  191.8720  173.4130  143.7850 Cl  0  0  0  0  0  0  0  0  0  0  0  0
  187.1280  175.5610  142.9460 N   0  0  0  0  0  2  0  0  0  0  0  0
  187.0280  176.0630  144.3270 C   0  0  2  0  0  3  0  0  0  0  0  0
  188.7470  174.4360  140.4900 C   0  0  2  0  0  3  0  0  0  0  0  0
  189.3880  174.8840  143.2470 N   0  0  0  0  0  0  0  0  0  0  0  0
  188.4740  176.8850  146.1870 N   0  0  0  0  0  0  0  0  0  0  0  0
  184.5260  178.7850  145.2210 C   0  0  0  0  0  0  0  0  0  0  0  0
  184.8920  179.7930  144.3230 C   0  0  0  0  0  3  0  0  0  0  0  0
  186.2800  177.3600  144.3390 C   0  0  0  0  0  0  0  0  0  0  0  0
  185.9500  179.5850  143.4340 C   0  0  0  0  0  3  0  0  0  0  0  0
  185.2170  177.5710  145.2290 C   0  0  0  0  0  3  0  0  0  0  0  0
  186.6430  178.3700  143.4420 C   0  0  0  0  0  3  0  0  0  0  0  0
  183.4990  178.9860  146.0820 F   0  0  0  0  0  0  0  0  0  0  0  0
  188.6790  173.7470  139.1990 N   0  0  0  0  0  2  0  0  0  0  0  0
  188.5160  172.3050  139.3870 C   0  0  0  0  0  2  0  0  0  0  0  0
  190.4970  172.3290  138.0420 F   0  0  0  0  0  0  0  0  0  0  0  0
  189.7610  171.5510  138.9200 C   0  0  1  0  0  3  0  0  0  0  0  0
  191.0290  169.6030  139.8590 C   0  0  0  0  0  1  0  0  0  0  0  0
  190.6400  171.0560  140.0720 C   0  0  0  0  0  0  0  0  0  0  0  0
  189.9760  171.1800  141.2800 F   0  0  0  0  0  0  0  0  0  0  0  0
  191.7930  171.8150  140.1180 F   0  0  0  0  0  0  0  0  0  0  0  0
  1 13  1  0  0  0  0
  1  5  2  0  0  0  0
  2  8  2  0  0  0  0
  2  6  1  0  0  0  0
  3 12  2  0  0  0  0
  3  8  1  0  0  0  0
  4 10  1  6  0  0  0
  4 15  1  0  0  0  0
  4 18  1  0  0  0  0
  6 11  2  0  0  0  0
  7 18  1  0  0  0  0
  8  1  1  0  0  0  0
  9  7  1  0  0  0  0
 11  5  1  0  0  0  0
 12 19  1  0  0  0  0
 14  2  1  0  0  0  0
 15 16  1  0  0  0  0
 16 22  1  6  0  0  0
 16 12  1  0  0  0  0
 17 27  1  6  0  0  0
 17  9  1  0  0  0  0
 17 10  1  0  0  0  0
 18  3  1  0  0  0  0
 19 13  2  0  0  0  0
 20 24  1  0  0  0  0
 20 26  1  0  0  0  0
 21 20  2  0  0  0  0
 22 24  2  0  0  0  0
 23 25  2  0  0  0  0
 23 21  1  0  0  0  0
 25 22  1  0  0  0  0
 27 28  1  0  0  0  0
 30 29  1  6  0  0  0
 30 28  1  0  0  0  0
 30 32  1  0  0  0  0
 31 32  1  0  0  0  0
 32 34  1  0  0  0  0
 32 33  1  0  0  0  0
M  END
>  <MODEL>
8

>  <REMARK>
 VINA RESULT:      -7.4      3.137      8.358
  Name = 
  5 active torsions:
  status: ('A' for Active; 'I' for Inactive)
    1  A    between atoms: N_3  and  C_13
    2  A    between atoms: N_3  and  C_29
    3  A    between atoms: C_12  and  C_28
    4  A    between atoms: C_13  and  C_33
    5  A    between atoms: C_20  and  C_33
                            x       y       z     vdW  Elec       q    Type
                         _______ _______ _______ _____ _____    ______ ____

>  <TORSDO>
F 5

$$$$
=
 OpenBabel11052419023D

 34 38  0  0  1  0  0  0  0  0999 V2000
  187.1270  177.9570  142.5170 C   0  0  0  0  0  0  0  0  0  0  0  0
  186.9380  176.7460  140.4090 C   0  0  0  0  0  0  0  0  0  0  0  0
  188.6890  176.1510  142.1110 C   0  0  0  0  0  0  0  0  0  0  0  0
  190.5400  174.6550  141.6350 C   0  0  2  0  0  3  0  0  0  0  0  0
  186.0050  178.7140  142.1790 C   0  0  0  0  0  3  0  0  0  0  0  0
  185.8190  177.5220  140.0920 C   0  0  0  0  0  3  0  0  0  0  0  0
  188.1610  173.8220  141.5330 C   0  0  0  0  0  2  0  0  0  0  0  0
  187.5870  176.9220  141.6640 C   0  0  0  0  0  0  0  0  0  0  0  0
  188.6020  172.6780  140.6330 C   0  0  0  0  0  2  0  0  0  0  0  0
  190.9910  173.4270  140.8430 C   0  0  0  0  0  2  0  0  0  0  0  0
  185.3420  178.4880  140.9760 C   0  0  0  0  0  3  0  0  0  0  0  0
  189.3440  176.5140  143.3050 C   0  0  0  0  0  0  0  0  0  0  0  0
  187.7920  178.2400  143.6650 N   0  0  0  0  0  0  0  0  0  0  0  0
  187.5360  175.7130  139.1170 Cl  0  0  0  0  0  0  0  0  0  0  0  0
  190.8320  174.5110  143.0570 N   0  0  0  0  0  2  0  0  0  0  0  0
  190.6260  175.8080  143.7240 C   0  0  2  0  0  3  0  0  0  0  0  0
  190.0180  172.2600  141.0110 C   0  0  2  0  0  3  0  0  0  0  0  0
  189.1100  174.9390  141.4730 N   0  0  0  0  0  0  0  0  0  0  0  0
  188.8760  177.5600  144.0330 N   0  0  0  0  0  0  0  0  0  0  0  0
  189.7550  174.8550  147.3030 C   0  0  0  0  0  0  0  0  0  0  0  0
  190.8800  175.3250  147.9870 C   0  0  0  0  0  3  0  0  0  0  0  0
  190.7060  175.6290  145.2090 C   0  0  0  0  0  0  0  0  0  0  0  0
  191.9160  175.9460  147.2840 C   0  0  0  0  0  3  0  0  0  0  0  0
  189.6660  175.0070  145.9160 C   0  0  0  0  0  3  0  0  0  0  0  0
  191.8290  176.0970  145.8980 C   0  0  0  0  0  3  0  0  0  0  0  0
  188.7490  174.2540  147.9830 F   0  0  0  0  0  0  0  0  0  0  0  0
  190.4530  171.0760  140.2670 N   0  0  0  0  0  2  0  0  0  0  0  0
  191.1110  171.4580  139.0170 C   0  0  0  0  0  2  0  0  0  0  0  0
  189.2010  170.2680  138.2020 F   0  0  0  0  0  0  0  0  0  0  0  0
  190.2530  171.0790  137.8110 C   0  0  1  0  0  3  0  0  0  0  0  0
  190.6930  173.4620  137.1720 C   0  0  0  0  0  1  0  0  0  0  0  0
  189.7410  172.2890  137.0240 C   0  0  0  0  0  0  0  0  0  0  0  0
  188.4830  172.6600  137.4660 F   0  0  0  0  0  0  0  0  0  0  0  0
  189.6620  171.9560  135.6860 F   0  0  0  0  0  0  0  0  0  0  0  0
  1 13  1  0  0  0  0
  2  8  1  0  0  0  0
  3 12  2  0  0  0  0
  4 10  1  6  0  0  0
  4 15  1  0  0  0  0
  5  1  1  0  0  0  0
  6  2  2  0  0  0  0
  6 11  1  0  0  0  0
  8  3  1  0  0  0  0
  8  1  2  0  0  0  0
  9 17  1  0  0  0  0
  9  7  1  0  0  0  0
 10 17  1  0  0  0  0
 11  5  2  0  0  0  0
 12 16  1  0  0  0  0
 12 19  1  0  0  0  0
 13 19  2  0  0  0  0
 14  2  1  0  0  0  0
 15 16  1  0  0  0  0
 16 22  1  1  0  0  0
 17 27  1  6  0  0  0
 18  7  1  0  0  0  0
 18  4  1  0  0  0  0
 18  3  1  0  0  0  0
 20 26  1  0  0  0  0
 20 21  1  0  0  0  0
 22 25  2  0  0  0  0
 22 24  1  0  0  0  0
 23 21  2  0  0  0  0
 24 20  2  0  0  0  0
 25 23  1  0  0  0  0
 28 27  1  0  0  0  0
 30 29  1  1  0  0  0
 30 28  1  0  0  0  0
 32 31  1  0  0  0  0
 32 33  1  0  0  0  0
 32 30  1  0  0  0  0
 34 32  1  0  0  0  0
M  END
>  <MODEL>
9

>  <REMARK>
 VINA RESULT:      -7.4      4.008      7.179
  Name = 
  5 active torsions:
  status: ('A' for Active; 'I' for Inactive)
    1  A    between atoms: N_3  and  C_13
    2  A    between atoms: N_3  and  C_29
    3  A    between atoms: C_12  and  C_28
    4  A    between atoms: C_13  and  C_33
    5  A    between atoms: C_20  and  C_33
                            x       y       z     vdW  Elec       q    Type
                         _______ _______ _______ _____ _____    ______ ____

>  <TORSDO>
F 5

$$$$
