=
 OpenBabel11052420033D

 37 40  0  0  1  0  0  0  0  0999 V2000
  189.6250  174.4780  143.9480 C   0  0  1  0  0  3  0  0  0  0  0  0
  192.8750  176.1740  143.8130 O   0  0  0  0  0  0  0  0  0  0  0  0
  189.8940  173.3920  142.8950 C   0  0  1  0  0  3  0  0  0  0  0  0
  193.9900  175.4350  140.8680 C   0  0  0  0  0  2  0  0  0  0  0  0
  191.6000  176.3180  145.8750 C   0  0  1  0  0  3  0  0  0  0  0  0
  189.5360  174.3560  147.7260 O   0  0  0  0  0  1  0  0  0  0  0  0
  193.1190  174.7160  141.9030 C   0  0  1  0  0  3  0  0  0  0  0  0
  195.3550  175.2210  141.1250 O   0  0  0  0  0  0  0  0  0  0  0  0
  189.7700  173.9410  145.3830 C   0  0  0  0  0  2  0  0  0  0  0  0
  193.1010  173.2140  141.6810 C   0  0  0  0  0  2  0  0  0  0  0  0
  191.6720  172.6820  141.7400 C   0  0  2  0  0  3  0  0  0  0  0  0
  195.0670  175.2100  143.4970 C   0  0  0  0  0  2  0  0  0  0  0  0
  195.6470  175.9440  142.2910 C   0  0  0  0  0  2  0  0  0  0  0  0
  191.1600  172.7930  143.0410 O   0  0  0  0  0  0  0  0  0  0  0  0
  189.4070  174.9550  146.4740 C   0  0  2  0  0  3  0  0  0  0  0  0
  193.5530  175.0440  143.3420 C   0  0  1  0  0  3  0  0  0  0  0  0
  191.7870  175.6420  144.5090 C   0  0  1  0  0  3  0  0  0  0  0  0
  190.1660  176.2990  146.4610 C   0  0  2  0  0  3  0  0  0  0  0  0
  190.5200  175.6870  143.6590 C   0  0  0  0  0  2  0  0  0  0  0  0
  193.9160  176.7520  146.8110 C   0  0  0  0  0  1  0  0  0  0  0  0
  192.6620  175.8970  146.8900 C   0  0  0  0  0  2  0  0  0  0  0  0
  187.7960  172.8110  141.8590 C   0  0  0  0  0  1  0  0  0  0  0  0
  188.8130  172.4030  142.8210 N   0  0  0  0  0  2  0  0  0  0  0  0
  191.6500  171.2220  141.3120 C   0  0  0  0  0  2  0  0  0  0  0  0
  190.8370  171.0360  140.0410 C   0  0  0  0  0  2  0  0  0  0  0  0
  190.4440  172.2760  139.5330 O   0  0  0  0  0  1  0  0  0  0  0  0
  189.3800  177.2780  145.8470 O   0  0  0  0  0  0  0  0  0  0  0  0
  188.1940  177.3090  146.5900 C   0  0  0  0  0  2  0  0  0  0  0  0
  187.1110  177.0970  144.3420 C   0  0  0  0  0  2  0  0  0  0  0  0
  184.6300  178.4700  146.1260 C   0  0  0  0  0  2  0  0  0  0  0  0
  184.3140  178.5120  144.7080 N   0  0  0  0  0  2  0  0  0  0  0  0
  185.2770  180.5220  144.0310 O   0  0  0  0  0  0  0  0  0  0  0  0
  185.8670  178.6080  142.7370 C   0  0  0  0  0  2  0  0  0  0  0  0
  185.1070  179.2930  143.8200 C   0  0  0  0  0  0  0  0  0  0  0  0
  185.6980  177.4140  146.4000 C   0  0  0  0  0  2  0  0  0  0  0  0
  187.2330  178.1550  143.2500 C   0  0  0  0  0  2  0  0  0  0  0  0
  187.0240  177.7480  145.7200 C   0  0  1  0  0  3  0  0  0  0  0  0
  1 19  1  6  0  0  0
  1  9  1  0  0  0  0
  2 17  1  0  0  0  0
  3 23  1  1  0  0  0
  3 14  1  0  0  0  0
  3  1  1  0  0  0  0
  4  8  1  0  0  0  0
  5 18  1  0  0  0  0
  5 21  1  1  0  0  0
  7  4  1  6  0  0  0
  7 16  1  0  0  0  0
  8 13  1  0  0  0  0
  9 15  1  0  0  0  0
 10 11  1  0  0  0  0
 10  7  1  0  0  0  0
 11 24  1  1  0  0  0
 11 14  1  0  0  0  0
 13 12  1  0  0  0  0
 15  6  1  1  0  0  0
 16 12  1  6  0  0  0
 16  2  1  0  0  0  0
 17 19  1  6  0  0  0
 17  5  1  0  0  0  0
 18 27  1  6  0  0  0
 18 15  1  0  0  0  0
 20 21  1  0  0  0  0
 22 23  1  0  0  0  0
 25 24  1  0  0  0  0
 26 25  1  0  0  0  0
 27 28  1  0  0  0  0
 29 37  1  0  0  0  0
 30 35  1  0  0  0  0
 31 30  1  0  0  0  0
 33 36  1  0  0  0  0
 33 34  1  0  0  0  0
 34 32  2  0  0  0  0
 34 31  1  0  0  0  0
 36 29  1  0  0  0  0
 37 35  1  0  0  0  0
 37 28  1  1  0  0  0
M  END
>  <MODEL>
1

>  <REMARK>
 VINA RESULT:      -7.8      0.000      0.000
  Name = 
  7 active torsions:
  status: ('A' for Active; 'I' for Inactive)
    1  A    between atoms: C_3  and  C_32
    2  A    between atoms: C_5  and  N_23
    3  A    between atoms: C_10  and  C_14
    4  A    between atoms: C_21  and  C_32
    5  A    between atoms: C_27  and  O_33
    6  A    between atoms: C_27  and  C_37
    7  A    between atoms: O_33  and  C_34
                            x       y       z     vdW  Elec       q    Type
                         _______ _______ _______ _____ _____    ______ ____

>  <TORSDO>
F 7

$$$$
=
 OpenBabel11052420033D

 37 40  0  0  1  0  0  0  0  0999 V2000
  189.8270  174.5000  144.0740 C   0  0  1  0  0  3  0  0  0  0  0  0
  192.8730  176.4820  144.5760 O   0  0  0  0  0  0  0  0  0  0  0  0
  190.4100  173.4210  143.1490 C   0  0  1  0  0  3  0  0  0  0  0  0
  194.6630  175.7870  141.9730 C   0  0  0  0  0  2  0  0  0  0  0  0
  191.1710  176.5520  146.3070 C   0  0  1  0  0  3  0  0  0  0  0  0
  188.9260  174.4490  147.7450 O   0  0  0  0  0  1  0  0  0  0  0  0
  193.6500  175.0130  142.8240 C   0  0  1  0  0  3  0  0  0  0  0  0
  195.9520  175.7030  142.5270 O   0  0  0  0  0  0  0  0  0  0  0  0
  189.7000  174.0080  145.5280 C   0  0  0  0  0  2  0  0  0  0  0  0
  193.8080  173.5110  142.6640 C   0  0  0  0  0  2  0  0  0  0  0  0
  192.4510  172.8530  142.4340 C   0  0  2  0  0  3  0  0  0  0  0  0
  195.1550  175.7150  144.7800 C   0  0  0  0  0  2  0  0  0  0  0  0
  195.9200  176.4740  143.6990 C   0  0  0  0  0  2  0  0  0  0  0  0
  191.6590  172.9430  143.5880 O   0  0  0  0  0  0  0  0  0  0  0  0
  189.0230  175.0080  146.4720 C   0  0  2  0  0  3  0  0  0  0  0  0
  193.7300  175.4090  144.3080 C   0  0  1  0  0  3  0  0  0  0  0  0
  191.7080  175.8680  145.0410 C   0  0  1  0  0  3  0  0  0  0  0  0
  189.6510  176.4140  146.5700 C   0  0  2  0  0  3  0  0  0  0  0  0
  190.6580  175.7800  143.9370 C   0  0  0  0  0  2  0  0  0  0  0  0
  191.6050  177.0810  148.7480 C   0  0  0  0  0  1  0  0  0  0  0  0
  192.0170  176.2500  147.5430 C   0  0  0  0  0  2  0  0  0  0  0  0
  188.3720  172.7930  142.0250 C   0  0  0  0  0  1  0  0  0  0  0  0
  189.4590  172.3370  142.8820 N   0  0  0  0  0  2  0  0  0  0  0  0
  192.6460  171.3880  142.0700 C   0  0  0  0  0  2  0  0  0  0  0  0
  192.0910  171.0890  140.6870 C   0  0  0  0  0  2  0  0  0  0  0  0
  191.0460  170.1680  140.7740 O   0  0  0  0  0  1  0  0  0  0  0  0
  188.9380  177.3050  145.7620 O   0  0  0  0  0  0  0  0  0  0  0  0
  187.6020  176.9000  145.8650 C   0  0  0  0  0  2  0  0  0  0  0  0
  185.9530  178.7690  145.6280 C   0  0  0  0  0  2  0  0  0  0  0  0
  186.8240  178.2670  142.4320 C   0  0  0  0  0  2  0  0  0  0  0  0
  185.6580  179.1320  142.5070 N   0  0  0  0  0  2  0  0  0  0  0  0
  183.8950  177.6080  142.5280 O   0  0  0  0  0  0  0  0  0  0  0  0
  183.8710  179.2380  144.2680 C   0  0  0  0  0  2  0  0  0  0  0  0
  184.4290  178.6330  143.0270 C   0  0  0  0  0  0  0  0  0  0  0  0
  187.5680  178.2650  143.7650 C   0  0  0  0  0  2  0  0  0  0  0  0
  184.4490  178.5480  145.5020 C   0  0  0  0  0  2  0  0  0  0  0  0
  186.7250  177.6750  144.8920 C   0  0  1  0  0  3  0  0  0  0  0  0
  1 19  1  1  0  0  0
  1  9  1  0  0  0  0
  2 17  1  0  0  0  0
  3 23  1  1  0  0  0
  3 14  1  0  0  0  0
  3  1  1  0  0  0  0
  4  8  1  0  0  0  0
  5 18  1  0  0  0  0
  5 21  1  1  0  0  0
  7  4  1  6  0  0  0
  7 16  1  0  0  0  0
  8 13  1  0  0  0  0
  9 15  1  0  0  0  0
 10  7  1  0  0  0  0
 11 24  1  1  0  0  0
 11 10  1  0  0  0  0
 11 14  1  0  0  0  0
 13 12  1  0  0  0  0
 15 18  1  0  0  0  0
 15  6  1  1  0  0  0
 16  2  1  0  0  0  0
 16 12  1  6  0  0  0
 17 19  1  6  0  0  0
 17  5  1  0  0  0  0
 18 27  1  6  0  0  0
 21 20  1  0  0  0  0
 22 23  1  0  0  0  0
 25 26  1  0  0  0  0
 25 24  1  0  0  0  0
 27 28  1  0  0  0  0
 30 31  1  0  0  0  0
 30 35  1  0  0  0  0
 31 34  1  0  0  0  0
 32 34  2  0  0  0  0
 33 36  1  0  0  0  0
 34 33  1  0  0  0  0
 35 37  1  0  0  0  0
 36 29  1  0  0  0  0
 37 29  1  0  0  0  0
 37 28  1  1  0  0  0
M  END
>  <MODEL>
2

>  <REMARK>
 VINA RESULT:      -7.5      1.277      1.772
  Name = 
  7 active torsions:
  status: ('A' for Active; 'I' for Inactive)
    1  A    between atoms: C_3  and  C_32
    2  A    between atoms: C_5  and  N_23
    3  A    between atoms: C_10  and  C_14
    4  A    between atoms: C_21  and  C_32
    5  A    between atoms: C_27  and  O_33
    6  A    between atoms: C_27  and  C_37
    7  A    between atoms: O_33  and  C_34
                            x       y       z     vdW  Elec       q    Type
                         _______ _______ _______ _____ _____    ______ ____

>  <TORSDO>
F 7

$$$$
=
 OpenBabel11052420033D

 37 40  0  0  1  0  0  0  0  0999 V2000
  190.3120  174.8360  142.7250 C   0  0  1  0  0  3  0  0  0  0  0  0
  193.4470  176.4310  143.7710 O   0  0  0  0  0  0  0  0  0  0  0  0
  190.8190  174.1670  141.4390 C   0  0  1  0  0  3  0  0  0  0  0  0
  195.1060  176.7170  141.0080 C   0  0  0  0  0  2  0  0  0  0  0  0
  191.8180  175.8880  145.4890 C   0  0  1  0  0  3  0  0  0  0  0  0
  189.5560  173.4450  146.1580 O   0  0  0  0  0  1  0  0  0  0  0  0
  194.1000  175.7020  141.5630 C   0  0  1  0  0  3  0  0  0  0  0  0
  196.4120  176.4080  141.4260 O   0  0  0  0  0  0  0  0  0  0  0  0
  190.2250  173.8440  143.8990 C   0  0  0  0  0  2  0  0  0  0  0  0
  194.1960  174.3650  140.8510 C   0  0  0  0  0  2  0  0  0  0  0  0
  192.8080  173.8650  140.4630 C   0  0  2  0  0  3  0  0  0  0  0  0
  195.7050  175.6000  143.5610 C   0  0  0  0  0  2  0  0  0  0  0  0
  196.4540  176.6900  142.8000 C   0  0  0  0  0  2  0  0  0  0  0  0
  192.0660  173.5360  141.6070 O   0  0  0  0  0  0  0  0  0  0  0  0
  189.6240  174.4340  145.1790 C   0  0  2  0  0  3  0  0  0  0  0  0
  194.2530  175.5180  143.0820 C   0  0  1  0  0  3  0  0  0  0  0  0
  192.2800  175.7120  144.0340 C   0  0  1  0  0  3  0  0  0  0  0  0
  190.3050  175.6920  145.7580 C   0  0  2  0  0  3  0  0  0  0  0  0
  191.1840  176.0590  143.0290 C   0  0  0  0  0  2  0  0  0  0  0  0
  193.2160  173.8180  145.9190 C   0  0  0  0  0  1  0  0  0  0  0  0
  192.7010  175.1330  146.4810 C   0  0  0  0  0  2  0  0  0  0  0  0
  188.9550  174.0070  139.9180 C   0  0  0  0  0  1  0  0  0  0  0  0
  189.8190  173.2770  140.8390 N   0  0  0  0  0  2  0  0  0  0  0  0
  192.9340  172.6360  139.5740 C   0  0  0  0  0  2  0  0  0  0  0  0
  192.3240  172.8860  138.2040 C   0  0  0  0  0  2  0  0  0  0  0  0
  192.2610  171.6950  137.4790 O   0  0  0  0  0  1  0  0  0  0  0  0
  189.5940  176.8320  145.3730 O   0  0  0  0  0  0  0  0  0  0  0  0
  188.4160  176.7970  146.1280 C   0  0  0  0  0  2  0  0  0  0  0  0
  187.3520  176.9090  143.8630 C   0  0  0  0  0  2  0  0  0  0  0  0
  184.8330  177.9490  145.8120 C   0  0  0  0  0  2  0  0  0  0  0  0
  184.5250  178.2000  144.4140 N   0  0  0  0  0  2  0  0  0  0  0  0
  185.4540  180.3080  144.0590 O   0  0  0  0  0  0  0  0  0  0  0  0
  186.0900  178.6230  142.4950 C   0  0  0  0  0  2  0  0  0  0  0  0
  185.3090  179.1210  143.6620 C   0  0  0  0  0  0  0  0  0  0  0  0
  185.9200  176.8830  145.9320 C   0  0  0  0  0  2  0  0  0  0  0  0
  187.4600  178.1230  142.9460 C   0  0  0  0  0  2  0  0  0  0  0  0
  187.2430  177.3410  145.3240 C   0  0  1  0  0  3  0  0  0  0  0  0
  1 19  1  1  0  0  0
  1  9  1  0  0  0  0
  2 17  1  0  0  0  0
  3 23  1  1  0  0  0
  3 14  1  0  0  0  0
  3  1  1  0  0  0  0
  4  8  1  0  0  0  0
  4  7  1  0  0  0  0
  5 18  1  0  0  0  0
  5 21  1  1  0  0  0
  7 10  1  6  0  0  0
  7 16  1  0  0  0  0
  8 13  1  0  0  0  0
  9 15  1  0  0  0  0
 11 24  1  6  0  0  0
 11 10  1  0  0  0  0
 11 14  1  0  0  0  0
 13 12  1  0  0  0  0
 15 18  1  0  0  0  0
 15  6  1  1  0  0  0
 16 12  1  1  0  0  0
 16  2  1  0  0  0  0
 17 19  1  6  0  0  0
 17  5  1  0  0  0  0
 18 27  1  6  0  0  0
 20 21  1  0  0  0  0
 22 23  1  0  0  0  0
 25 24  1  0  0  0  0
 26 25  1  0  0  0  0
 27 28  1  0  0  0  0
 29 37  1  0  0  0  0
 30 35  1  0  0  0  0
 31 30  1  0  0  0  0
 33 36  1  0  0  0  0
 33 34  1  0  0  0  0
 34 32  2  0  0  0  0
 34 31  1  0  0  0  0
 36 29  1  0  0  0  0
 37 35  1  0  0  0  0
 37 28  1  1  0  0  0
M  END
>  <MODEL>
3

>  <REMARK>
 VINA RESULT:      -7.4      1.383      1.538
  Name = 
  7 active torsions:
  status: ('A' for Active; 'I' for Inactive)
    1  A    between atoms: C_3  and  C_32
    2  A    between atoms: C_5  and  N_23
    3  A    between atoms: C_10  and  C_14
    4  A    between atoms: C_21  and  C_32
    5  A    between atoms: C_27  and  O_33
    6  A    between atoms: C_27  and  C_37
    7  A    between atoms: O_33  and  C_34
                            x       y       z     vdW  Elec       q    Type
                         _______ _______ _______ _____ _____    ______ ____

>  <TORSDO>
F 7

$$$$
=
 OpenBabel11052420033D

 37 40  0  0  1  0  0  0  0  0999 V2000
  190.6950  174.4030  144.1220 C   0  0  1  0  0  3  0  0  0  0  0  0
  193.5280  176.5240  143.1530 O   0  0  0  0  0  0  0  0  0  0  0  0
  191.0250  173.1790  143.2550 C   0  0  1  0  0  3  0  0  0  0  0  0
  194.3730  175.3740  140.2500 C   0  0  0  0  0  2  0  0  0  0  0  0
  192.5250  176.8920  145.3340 C   0  0  1  0  0  3  0  0  0  0  0  0
  191.1180  175.0570  147.8220 O   0  0  0  0  0  1  0  0  0  0  0  0
  193.7910  174.7580  141.5270 C   0  0  1  0  0  3  0  0  0  0  0  0
  195.7750  175.4360  140.3150 O   0  0  0  0  0  0  0  0  0  0  0  0
  191.1220  174.2060  145.5880 C   0  0  0  0  0  2  0  0  0  0  0  0
  194.0250  173.2590  141.5880 C   0  0  0  0  0  2  0  0  0  0  0  0
  192.7400  172.5330  141.9740 C   0  0  2  0  0  3  0  0  0  0  0  0
  195.8020  175.8730  142.6640 C   0  0  0  0  0  2  0  0  0  0  0  0
  196.0750  176.4220  141.2670 C   0  0  0  0  0  2  0  0  0  0  0  0
  192.3880  172.8290  143.2990 O   0  0  0  0  0  0  0  0  0  0  0  0
  190.7200  175.3550  146.5200 C   0  0  2  0  0  3  0  0  0  0  0  0
  194.3380  175.4420  142.7910 C   0  0  1  0  0  3  0  0  0  0  0  0
  192.6570  175.9840  144.1010 C   0  0  1  0  0  3  0  0  0  0  0  0
  191.2070  176.7690  146.1390 C   0  0  2  0  0  3  0  0  0  0  0  0
  191.3050  175.6520  143.4760 C   0  0  0  0  0  2  0  0  0  0  0  0
  194.3920  175.4780  146.3050 C   0  0  0  0  0  1  0  0  0  0  0  0
  193.7680  176.8620  146.2210 C   0  0  0  0  0  2  0  0  0  0  0  0
  188.9300  172.1020  142.7380 C   0  0  0  0  0  1  0  0  0  0  0  0
  190.1460  172.0380  143.5390 N   0  0  0  0  0  2  0  0  0  0  0  0
  192.9350  171.0310  141.8280 C   0  0  0  0  0  2  0  0  0  0  0  0
  193.5520  170.4350  143.0830 C   0  0  0  0  0  2  0  0  0  0  0  0
  192.6620  169.5420  143.6810 O   0  0  0  0  0  1  0  0  0  0  0  0
  190.1800  177.4630  145.4940 O   0  0  0  0  0  0  0  0  0  0  0  0
  189.0260  177.1710  146.2300 C   0  0  0  0  0  2  0  0  0  0  0  0
  187.9270  176.9760  143.9880 C   0  0  0  0  0  2  0  0  0  0  0  0
  185.3090  177.7630  145.9240 C   0  0  0  0  0  2  0  0  0  0  0  0
  184.9480  177.8730  144.5210 N   0  0  0  0  0  2  0  0  0  0  0  0
  185.5510  180.0650  144.0110 O   0  0  0  0  0  0  0  0  0  0  0  0
  186.4070  178.3920  142.5430 C   0  0  0  0  0  2  0  0  0  0  0  0
  185.5780  178.8470  143.6940 C   0  0  0  0  0  0  0  0  0  0  0  0
  186.5420  176.8780  146.0870 C   0  0  0  0  0  2  0  0  0  0  0  0
  187.8430  178.1290  142.9930 C   0  0  0  0  0  2  0  0  0  0  0  0
  187.7750  177.4830  145.4210 C   0  0  1  0  0  3  0  0  0  0  0  0
  1 19  1  6  0  0  0
  1  9  1  0  0  0  0
  2 17  1  0  0  0  0
  3 14  1  0  0  0  0
  3 23  1  1  0  0  0
  3  1  1  0  0  0  0
  4  8  1  0  0  0  0
  5 18  1  0  0  0  0
  5 21  1  1  0  0  0
  7  4  1  6  0  0  0
  7 10  1  0  0  0  0
  7 16  1  0  0  0  0
  8 13  1  0  0  0  0
  9 15  1  0  0  0  0
 10 11  1  0  0  0  0
 11 24  1  1  0  0  0
 11 14  1  0  0  0  0
 13 12  1  0  0  0  0
 15  6  1  1  0  0  0
 16 12  1  6  0  0  0
 16  2  1  0  0  0  0
 17 19  1  6  0  0  0
 17  5  1  0  0  0  0
 18 27  1  6  0  0  0
 18 15  1  0  0  0  0
 21 20  1  0  0  0  0
 22 23  1  0  0  0  0
 24 25  1  0  0  0  0
 25 26  1  0  0  0  0
 27 28  1  0  0  0  0
 29 37  1  0  0  0  0
 30 35  1  0  0  0  0
 31 30  1  0  0  0  0
 33 36  1  0  0  0  0
 33 34  1  0  0  0  0
 34 32  2  0  0  0  0
 34 31  1  0  0  0  0
 36 29  1  0  0  0  0
 37 35  1  0  0  0  0
 37 28  1  1  0  0  0
M  END
>  <MODEL>
4

>  <REMARK>
 VINA RESULT:      -7.3      1.320      1.566
  Name = 
  7 active torsions:
  status: ('A' for Active; 'I' for Inactive)
    1  A    between atoms: C_3  and  C_32
    2  A    between atoms: C_5  and  N_23
    3  A    between atoms: C_10  and  C_14
    4  A    between atoms: C_21  and  C_32
    5  A    between atoms: C_27  and  O_33
    6  A    between atoms: C_27  and  C_37
    7  A    between atoms: O_33  and  C_34
                            x       y       z     vdW  Elec       q    Type
                         _______ _______ _______ _____ _____    ______ ____

>  <TORSDO>
F 7

$$$$
=
 OpenBabel11052420033D

 37 40  0  0  1  0  0  0  0  0999 V2000
  192.2900  176.3140  145.1160 C   0  0  1  0  0  3  0  0  0  0  0  0
  190.5470  173.3370  143.8660 O   0  0  0  0  0  0  0  0  0  0  0  0
  193.7340  175.8240  144.9300 C   0  0  1  0  0  3  0  0  0  0  0  0
  192.7070  170.9660  144.2880 C   0  0  0  0  0  2  0  0  0  0  0  0
  189.4030  175.4740  143.7120 C   0  0  1  0  0  3  0  0  0  0  0  0
  190.1740  178.7280  143.1180 O   0  0  0  0  0  1  0  0  0  0  0  0
  192.7950  172.4600  143.9590 C   0  0  1  0  0  3  0  0  0  0  0  0
  192.5270  170.2050  143.1200 O   0  0  0  0  0  0  0  0  0  0  0  0
  191.8490  177.2590  143.9820 C   0  0  0  0  0  2  0  0  0  0  0  0
  194.1230  172.8190  143.3140 C   0  0  0  0  0  2  0  0  0  0  0  0
  194.7190  174.0590  143.9740 C   0  0  2  0  0  3  0  0  0  0  0  0
  191.1800  171.8680  142.0560 C   0  0  0  0  0  2  0  0  0  0  0  0
  191.2230  170.4760  142.6800 C   0  0  0  0  0  2  0  0  0  0  0  0
  193.9400  175.1900  143.6900 O   0  0  0  0  0  0  0  0  0  0  0  0
  190.4540  177.8630  144.1740 C   0  0  2  0  0  3  0  0  0  0  0  0
  191.6240  172.9210  143.0750 C   0  0  1  0  0  3  0  0  0  0  0  0
  190.7180  174.7200  143.9590 C   0  0  1  0  0  3  0  0  0  0  0  0
  189.2830  176.8750  144.3610 C   0  0  2  0  0  3  0  0  0  0  0  0
  191.3680  175.1020  145.2870 C   0  0  0  0  0  2  0  0  0  0  0  0
  187.8490  174.4910  141.9680 C   0  0  0  0  0  1  0  0  0  0  0  0
  188.9860  175.4620  142.2430 C   0  0  0  0  0  2  0  0  0  0  0  0
  194.5430  177.4450  146.5210 C   0  0  0  0  0  1  0  0  0  0  0  0
  194.7210  176.8770  145.1900 N   0  0  0  0  0  2  0  0  0  0  0  0
  196.1350  174.2820  143.4630 C   0  0  0  0  0  2  0  0  0  0  0  0
  196.1530  175.2800  142.3170 C   0  0  0  0  0  2  0  0  0  0  0  0
  196.9620  176.3710  142.6390 O   0  0  0  0  0  1  0  0  0  0  0  0
  188.9810  176.7550  145.7210 O   0  0  0  0  0  0  0  0  0  0  0  0
  187.7530  176.0850  145.7620 C   0  0  0  0  0  2  0  0  0  0  0  0
  185.7210  176.4750  144.3510 C   0  0  0  0  0  2  0  0  0  0  0  0
  185.2720  178.7490  146.7700 C   0  0  0  0  0  2  0  0  0  0  0  0
  184.3430  178.9850  145.6780 N   0  0  0  0  0  2  0  0  0  0  0  0
  185.5680  180.3680  144.2580 O   0  0  0  0  0  0  0  0  0  0  0  0
  184.5920  178.4470  143.2370 C   0  0  0  0  0  2  0  0  0  0  0  0
  184.8290  179.3580  144.3920 C   0  0  0  0  0  0  0  0  0  0  0  0
  185.7920  177.3140  146.7220 C   0  0  0  0  0  2  0  0  0  0  0  0
  185.7060  177.4070  143.1430 C   0  0  0  0  0  2  0  0  0  0  0  0
  186.6060  177.0400  145.4600 C   0  0  1  0  0  3  0  0  0  0  0  0
  1  9  1  6  0  0  0
  1 19  1  0  0  0  0
  2 17  1  0  0  0  0
  3  1  1  0  0  0  0
  3 23  1  6  0  0  0
  5 21  1  6  0  0  0
  5 17  1  0  0  0  0
  5 18  1  0  0  0  0
  7 10  1  6  0  0  0
  7  4  1  0  0  0  0
  8  4  1  0  0  0  0
  9 15  1  0  0  0  0
 10 11  1  0  0  0  0
 11 24  1  6  0  0  0
 12 13  1  0  0  0  0
 13  8  1  0  0  0  0
 14 11  1  0  0  0  0
 14  3  1  0  0  0  0
 15  6  1  6  0  0  0
 15 18  1  0  0  0  0
 16 12  1  6  0  0  0
 16  2  1  0  0  0  0
 16  7  1  0  0  0  0
 17 19  1  1  0  0  0
 18 27  1  1  0  0  0
 20 21  1  0  0  0  0
 23 22  1  0  0  0  0
 25 26  1  0  0  0  0
 25 24  1  0  0  0  0
 27 28  1  0  0  0  0
 29 37  1  0  0  0  0
 31 30  1  0  0  0  0
 32 34  2  0  0  0  0
 33 34  1  0  0  0  0
 34 31  1  0  0  0  0
 35 30  1  0  0  0  0
 36 33  1  0  0  0  0
 36 29  1  0  0  0  0
 37 28  1  1  0  0  0
 37 35  1  0  0  0  0
M  END
>  <MODEL>
5

>  <REMARK>
 VINA RESULT:      -7.2      2.138      4.540
  Name = 
  7 active torsions:
  status: ('A' for Active; 'I' for Inactive)
    1  A    between atoms: C_3  and  C_32
    2  A    between atoms: C_5  and  N_23
    3  A    between atoms: C_10  and  C_14
    4  A    between atoms: C_21  and  C_32
    5  A    between atoms: C_27  and  O_33
    6  A    between atoms: C_27  and  C_37
    7  A    between atoms: O_33  and  C_34
                            x       y       z     vdW  Elec       q    Type
                         _______ _______ _______ _____ _____    ______ ____

>  <TORSDO>
F 7

$$$$
=
 OpenBabel11052420033D

 37 40  0  0  1  0  0  0  0  0999 V2000
  190.2020  175.1460  142.9740 C   0  0  1  0  0  3  0  0  0  0  0  0
  193.3850  176.6470  144.0130 O   0  0  0  0  0  0  0  0  0  0  0  0
  190.6960  174.4230  141.7120 C   0  0  1  0  0  3  0  0  0  0  0  0
  195.0820  176.7940  141.2640 C   0  0  0  0  0  2  0  0  0  0  0  0
  191.7180  176.2120  145.7260 C   0  0  1  0  0  3  0  0  0  0  0  0
  189.3560  173.8770  146.4340 O   0  0  0  0  0  1  0  0  0  0  0  0
  194.0320  175.8350  141.8330 C   0  0  1  0  0  3  0  0  0  0  0  0
  196.3710  176.4480  141.7050 O   0  0  0  0  0  0  0  0  0  0  0  0
  190.0640  174.1890  144.1720 C   0  0  0  0  0  2  0  0  0  0  0  0
  194.0840  174.4760  141.1580 C   0  0  0  0  0  2  0  0  0  0  0  0
  192.6810  174.0190  140.7670 C   0  0  2  0  0  3  0  0  0  0  0  0
  195.6110  175.7240  143.8520 C   0  0  0  0  0  2  0  0  0  0  0  0
  196.4090  176.7640  143.0710 C   0  0  0  0  0  2  0  0  0  0  0  0
  191.9160  173.7500  141.9100 O   0  0  0  0  0  0  0  0  0  0  0  0
  189.4720  174.8360  145.4290 C   0  0  2  0  0  3  0  0  0  0  0  0
  194.1620  175.6850  143.3580 C   0  0  1  0  0  3  0  0  0  0  0  0
  192.1870  175.9800  144.2820 C   0  0  1  0  0  3  0  0  0  0  0  0
  190.1960  176.0820  145.9830 C   0  0  2  0  0  3  0  0  0  0  0  0
  191.1170  176.3420  143.2560 C   0  0  0  0  0  2  0  0  0  0  0  0
  193.0750  174.1260  146.2080 C   0  0  0  0  0  1  0  0  0  0  0  0
  192.5600  175.4510  146.7480 C   0  0  0  0  0  2  0  0  0  0  0  0
  188.4860  174.3250  140.7510 C   0  0  0  0  0  1  0  0  0  0  0  0
  189.6680  173.5570  141.1240 N   0  0  0  0  0  2  0  0  0  0  0  0
  192.7700  172.7630  139.9120 C   0  0  0  0  0  2  0  0  0  0  0  0
  192.8600  171.5170  140.7780 C   0  0  0  0  0  2  0  0  0  0  0  0
  193.3540  170.4460  140.0320 O   0  0  0  0  0  1  0  0  0  0  0  0
  189.5330  177.2380  145.5600 O   0  0  0  0  0  0  0  0  0  0  0  0
  188.1860  177.0170  145.8670 C   0  0  0  0  0  2  0  0  0  0  0  0
  186.5450  178.8840  145.5640 C   0  0  0  0  0  2  0  0  0  0  0  0
  187.2960  178.1620  142.3800 C   0  0  0  0  0  2  0  0  0  0  0  0
  186.1410  179.0410  142.4380 N   0  0  0  0  0  2  0  0  0  0  0  0
  184.3670  177.5410  142.6240 O   0  0  0  0  0  0  0  0  0  0  0  0
  184.4190  179.2830  144.2500 C   0  0  0  0  0  2  0  0  0  0  0  0
  184.9270  178.5920  143.0330 C   0  0  0  0  0  0  0  0  0  0  0  0
  188.0880  178.2400  143.6830 C   0  0  0  0  0  2  0  0  0  0  0  0
  185.0350  178.6710  145.5060 C   0  0  0  0  0  2  0  0  0  0  0  0
  187.2810  177.7350  144.8760 C   0  0  1  0  0  3  0  0  0  0  0  0
  1 19  1  1  0  0  0
  1  9  1  0  0  0  0
  2 17  1  0  0  0  0
  3 23  1  1  0  0  0
  3 14  1  0  0  0  0
  3  1  1  0  0  0  0
  4  8  1  0  0  0  0
  4  7  1  0  0  0  0
  5 18  1  0  0  0  0
  5 21  1  1  0  0  0
  7 10  1  6  0  0  0
  7 16  1  0  0  0  0
  8 13  1  0  0  0  0
  9 15  1  0  0  0  0
 11 24  1  6  0  0  0
 11 10  1  0  0  0  0
 11 14  1  0  0  0  0
 13 12  1  0  0  0  0
 15 18  1  0  0  0  0
 15  6  1  1  0  0  0
 16 12  1  6  0  0  0
 16  2  1  0  0  0  0
 17 19  1  6  0  0  0
 17  5  1  0  0  0  0
 18 27  1  6  0  0  0
 20 21  1  0  0  0  0
 22 23  1  0  0  0  0
 24 25  1  0  0  0  0
 26 25  1  0  0  0  0
 27 28  1  0  0  0  0
 30 31  1  0  0  0  0
 30 35  1  0  0  0  0
 31 34  1  0  0  0  0
 32 34  2  0  0  0  0
 33 36  1  0  0  0  0
 34 33  1  0  0  0  0
 35 37  1  0  0  0  0
 36 29  1  0  0  0  0
 37 29  1  0  0  0  0
 37 28  1  1  0  0  0
M  END
>  <MODEL>
6

>  <REMARK>
 VINA RESULT:      -7.2      1.501      2.015
  Name = 
  7 active torsions:
  status: ('A' for Active; 'I' for Inactive)
    1  A    between atoms: C_3  and  C_32
    2  A    between atoms: C_5  and  N_23
    3  A    between atoms: C_10  and  C_14
    4  A    between atoms: C_21  and  C_32
    5  A    between atoms: C_27  and  O_33
    6  A    between atoms: C_27  and  C_37
    7  A    between atoms: O_33  and  C_34
                            x       y       z     vdW  Elec       q    Type
                         _______ _______ _______ _____ _____    ______ ____

>  <TORSDO>
F 7

$$$$
=
 OpenBabel11052420033D

 37 40  0  0  1  0  0  0  0  0999 V2000
  190.2330  175.1260  144.8220 C   0  0  1  0  0  3  0  0  0  0  0  0
  188.4500  176.4350  141.8940 O   0  0  0  0  0  0  0  0  0  0  0  0
  189.3680  175.7680  145.9170 C   0  0  1  0  0  3  0  0  0  0  0  0
  186.9940  179.0930  143.0240 C   0  0  0  0  0  2  0  0  0  0  0  0
  189.6770  174.3530  141.6440 C   0  0  1  0  0  3  0  0  0  0  0  0
  190.3930  171.5920  143.4880 O   0  0  0  0  0  1  0  0  0  0  0  0
  187.3670  177.7320  143.6190 C   0  0  1  0  0  3  0  0  0  0  0  0
  185.7480  179.0340  142.3760 O   0  0  0  0  0  0  0  0  0  0  0  0
  189.8740  173.6460  144.5940 C   0  0  0  0  0  2  0  0  0  0  0  0
  186.5460  177.4130  144.8560 C   0  0  0  0  0  2  0  0  0  0  0  0
  187.4470  176.9120  145.9820 C   0  0  2  0  0  3  0  0  0  0  0  0
  186.0790  176.7950  141.6090 C   0  0  0  0  0  2  0  0  0  0  0  0
  185.9510  178.2640  141.2200 C   0  0  0  0  0  2  0  0  0  0  0  0
  187.9880  175.6590  145.6570 O   0  0  0  0  0  0  0  0  0  0  0  0
  190.7790  172.9280  143.5880 C   0  0  2  0  0  3  0  0  0  0  0  0
  187.2440  176.6020  142.5840 C   0  0  1  0  0  3  0  0  0  0  0  0
  189.0930  175.4110  142.5930 C   0  0  1  0  0  3  0  0  0  0  0  0
  190.8850  173.5440  142.1770 C   0  0  2  0  0  3  0  0  0  0  0  0
  190.1400  175.9750  143.5500 C   0  0  0  0  0  2  0  0  0  0  0  0
  187.5420  173.0390  142.0190 C   0  0  0  0  0  1  0  0  0  0  0  0
  188.6010  173.4690  141.0160 C   0  0  0  0  0  2  0  0  0  0  0  0
  191.0520  175.7530  147.6420 C   0  0  0  0  0  1  0  0  0  0  0  0
  189.7220  175.2950  147.2600 N   0  0  0  0  0  2  0  0  0  0  0  0
  186.6450  176.7960  147.2690 C   0  0  0  0  0  2  0  0  0  0  0  0
  186.2080  178.1640  147.7670 C   0  0  0  0  0  2  0  0  0  0  0  0
  184.8250  178.3050  147.6410 O   0  0  0  0  0  1  0  0  0  0  0  0
  192.0550  174.3030  142.0820 O   0  0  0  0  0  0  0  0  0  0  0  0
  193.0890  173.4190  142.4070 C   0  0  0  0  0  2  0  0  0  0  0  0
  193.7780  174.8370  144.3520 C   0  0  0  0  0  2  0  0  0  0  0  0
  196.7610  173.8780  143.1660 C   0  0  0  0  0  2  0  0  0  0  0  0
  196.9250  174.9430  144.1410 N   0  0  0  0  0  2  0  0  0  0  0  0
  196.7410  176.8630  142.8330 O   0  0  0  0  0  0  0  0  0  0  0  0
  195.3380  176.7880  144.7590 C   0  0  0  0  0  2  0  0  0  0  0  0
  196.4060  176.2430  143.8770 C   0  0  0  0  0  0  0  0  0  0  0  0
  195.4030  173.2020  143.3440 C   0  0  0  0  0  2  0  0  0  0  0  0
  193.9620  176.3490  144.2640 C   0  0  0  0  0  2  0  0  0  0  0  0
  194.2460  174.1580  143.0670 C   0  0  1  0  0  3  0  0  0  0  0  0
  1 19  1  6  0  0  0
  1  3  1  0  0  0  0
  2 16  1  0  0  0  0
  2 17  1  0  0  0  0
  3 23  1  1  0  0  0
  5 21  1  1  0  0  0
  5 18  1  0  0  0  0
  5 17  1  0  0  0  0
  7  4  1  6  0  0  0
  7 10  1  0  0  0  0
  8  4  1  0  0  0  0
  9  1  1  0  0  0  0
 10 11  1  0  0  0  0
 11 24  1  1  0  0  0
 13 12  1  0  0  0  0
 13  8  1  0  0  0  0
 14  3  1  0  0  0  0
 14 11  1  0  0  0  0
 15  6  1  6  0  0  0
 15  9  1  0  0  0  0
 16 12  1  6  0  0  0
 16  7  1  0  0  0  0
 17 19  1  6  0  0  0
 18 27  1  1  0  0  0
 18 15  1  0  0  0  0
 21 20  1  0  0  0  0
 23 22  1  0  0  0  0
 24 25  1  0  0  0  0
 26 25  1  0  0  0  0
 27 28  1  0  0  0  0
 30 35  1  0  0  0  0
 30 31  1  0  0  0  0
 32 34  2  0  0  0  0
 34 31  1  0  0  0  0
 34 33  1  0  0  0  0
 36 29  1  0  0  0  0
 36 33  1  0  0  0  0
 37 28  1  1  0  0  0
 37 35  1  0  0  0  0
 37 29  1  0  0  0  0
M  END
>  <MODEL>
7

>  <REMARK>
 VINA RESULT:      -7.0      2.425      8.098
  Name = 
  7 active torsions:
  status: ('A' for Active; 'I' for Inactive)
    1  A    between atoms: C_3  and  C_32
    2  A    between atoms: C_5  and  N_23
    3  A    between atoms: C_10  and  C_14
    4  A    between atoms: C_21  and  C_32
    5  A    between atoms: C_27  and  O_33
    6  A    between atoms: C_27  and  C_37
    7  A    between atoms: O_33  and  C_34
                            x       y       z     vdW  Elec       q    Type
                         _______ _______ _______ _____ _____    ______ ____

>  <TORSDO>
F 7

$$$$
=
 OpenBabel11052420033D

 37 40  0  0  1  0  0  0  0  0999 V2000
  191.0370  174.4030  141.3550 C   0  0  1  0  0  3  0  0  0  0  0  0
  191.9550  175.7280  144.6510 O   0  0  0  0  0  0  0  0  0  0  0  0
  192.4460  174.0560  140.8520 C   0  0  1  0  0  3  0  0  0  0  0  0
  195.0280  176.6610  144.2590 C   0  0  0  0  0  2  0  0  0  0  0  0
  189.7320  174.7890  144.3810 C   0  0  1  0  0  3  0  0  0  0  0  0
  188.2390  172.2440  142.6990 O   0  0  0  0  0  1  0  0  0  0  0  0
  194.1580  175.5390  143.6810 C   0  0  1  0  0  3  0  0  0  0  0  0
  195.6020  176.2720  145.4810 O   0  0  0  0  0  0  0  0  0  0  0  0
  190.2850  173.1630  141.8720 C   0  0  0  0  0  2  0  0  0  0  0  0
  194.9990  174.4060  143.1210 C   0  0  0  0  0  2  0  0  0  0  0  0
  194.4980  174.0020  141.7370 C   0  0  2  0  0  3  0  0  0  0  0  0
  193.7020  174.9830  146.1430 C   0  0  0  0  0  2  0  0  0  0  0  0
  194.5480  176.2250  146.4060 C   0  0  0  0  0  2  0  0  0  0  0  0
  193.2300  173.4100  141.8270 O   0  0  0  0  0  0  0  0  0  0  0  0
  188.8340  173.4350  142.2860 C   0  0  2  0  0  3  0  0  0  0  0  0
  193.1520  175.0060  144.7140 C   0  0  1  0  0  3  0  0  0  0  0  0
  191.1470  174.9600  143.8100 C   0  0  1  0  0  3  0  0  0  0  0  0
  188.6030  174.5270  143.3520 C   0  0  2  0  0  3  0  0  0  0  0  0
  191.1390  175.5260  142.3920 C   0  0  0  0  0  2  0  0  0  0  0  0
  189.3650  174.5320  146.8760 C   0  0  0  0  0  1  0  0  0  0  0  0
  189.6890  173.8280  145.5670 C   0  0  0  0  0  2  0  0  0  0  0  0
  192.9120  174.1580  138.4880 C   0  0  0  0  0  1  0  0  0  0  0  0
  192.4230  173.3250  139.5800 N   0  0  0  0  0  2  0  0  0  0  0  0
  195.4710  173.0160  141.1070 C   0  0  0  0  0  2  0  0  0  0  0  0
  196.4170  173.7180  140.1460 C   0  0  0  0  0  2  0  0  0  0  0  0
  197.5540  174.1580  140.8230 O   0  0  0  0  0  1  0  0  0  0  0  0
  188.2290  175.7210  142.7300 O   0  0  0  0  0  0  0  0  0  0  0  0
  186.8340  175.7600  142.8290 C   0  0  0  0  0  2  0  0  0  0  0  0
  186.8240  176.8190  145.0980 C   0  0  0  0  0  2  0  0  0  0  0  0
  185.9420  179.4140  143.1720 C   0  0  0  0  0  2  0  0  0  0  0  0
  185.7300  179.7330  144.5740 N   0  0  0  0  0  2  0  0  0  0  0  0
  183.5670  178.9540  144.9520 O   0  0  0  0  0  0  0  0  0  0  0  0
  185.2200  178.1940  146.4920 C   0  0  0  0  0  2  0  0  0  0  0  0
  184.7650  179.0130  145.3340 C   0  0  0  0  0  0  0  0  0  0  0  0
  186.9270  178.2550  143.0350 C   0  0  0  0  0  2  0  0  0  0  0  0
  185.6170  176.7930  146.0300 C   0  0  0  0  0  2  0  0  0  0  0  0
  186.3830  176.9650  143.6430 C   0  0  1  0  0  3  0  0  0  0  0  0
  1  9  1  1  0  0  0
  1 19  1  0  0  0  0
  2 16  1  0  0  0  0
  3 23  1  6  0  0  0
  3  1  1  0  0  0  0
  3 14  1  0  0  0  0
  4  8  1  0  0  0  0
  5 21  1  1  0  0  0
  7 10  1  1  0  0  0
  7  4  1  0  0  0  0
  7 16  1  0  0  0  0
  8 13  1  0  0  0  0
  9 15  1  0  0  0  0
 11 24  1  1  0  0  0
 11 14  1  0  0  0  0
 11 10  1  0  0  0  0
 12 13  1  0  0  0  0
 15  6  1  1  0  0  0
 15 18  1  0  0  0  0
 16 12  1  1  0  0  0
 17 19  1  6  0  0  0
 17  5  1  0  0  0  0
 17  2  1  0  0  0  0
 18 27  1  6  0  0  0
 18  5  1  0  0  0  0
 21 20  1  0  0  0  0
 22 23  1  0  0  0  0
 25 26  1  0  0  0  0
 25 24  1  0  0  0  0
 27 28  1  0  0  0  0
 29 36  1  0  0  0  0
 30 31  1  0  0  0  0
 31 34  1  0  0  0  0
 32 34  2  0  0  0  0
 34 33  1  0  0  0  0
 35 30  1  0  0  0  0
 35 37  1  0  0  0  0
 36 33  1  0  0  0  0
 37 28  1  6  0  0  0
 37 29  1  0  0  0  0
M  END
>  <MODEL>
8

>  <REMARK>
 VINA RESULT:      -6.9      1.989      3.758
  Name = 
  7 active torsions:
  status: ('A' for Active; 'I' for Inactive)
    1  A    between atoms: C_3  and  C_32
    2  A    between atoms: C_5  and  N_23
    3  A    between atoms: C_10  and  C_14
    4  A    between atoms: C_21  and  C_32
    5  A    between atoms: C_27  and  O_33
    6  A    between atoms: C_27  and  C_37
    7  A    between atoms: O_33  and  C_34
                            x       y       z     vdW  Elec       q    Type
                         _______ _______ _______ _____ _____    ______ ____

>  <TORSDO>
F 7

$$$$
=
 OpenBabel11052420033D

 37 40  0  0  1  0  0  0  0  0999 V2000
  190.7520  174.5060  142.2860 C   0  0  1  0  0  3  0  0  0  0  0  0
  193.6110  176.2860  143.7430 O   0  0  0  0  0  0  0  0  0  0  0  0
  191.4610  173.9060  141.0630 C   0  0  1  0  0  3  0  0  0  0  0  0
  195.5750  176.7540  141.2150 C   0  0  0  0  0  2  0  0  0  0  0  0
  191.8250  175.5880  145.2340 C   0  0  1  0  0  3  0  0  0  0  0  0
  189.6780  172.9800  145.5740 O   0  0  0  0  0  1  0  0  0  0  0  0
  194.5830  175.6590  141.6220 C   0  0  1  0  0  3  0  0  0  0  0  0
  196.8380  176.5260  141.7880 O   0  0  0  0  0  0  0  0  0  0  0  0
  190.5920  173.4800  143.4240 C   0  0  0  0  0  2  0  0  0  0  0  0
  194.8620  174.3500  140.9060 C   0  0  0  0  0  2  0  0  0  0  0  0
  193.5720  173.7650  140.3390 C   0  0  2  0  0  3  0  0  0  0  0  0
  195.9320  175.6170  143.8040 C   0  0  0  0  0  2  0  0  0  0  0  0
  196.6890  176.7750  143.1610 C   0  0  0  0  0  2  0  0  0  0  0  0
  192.7190  173.3580  141.3750 O   0  0  0  0  0  0  0  0  0  0  0  0
  189.7950  173.9950  144.6280 C   0  0  2  0  0  3  0  0  0  0  0  0
  194.5590  175.4480  143.1450 C   0  0  1  0  0  3  0  0  0  0  0  0
  192.4750  175.4810  143.8460 C   0  0  1  0  0  3  0  0  0  0  0  0
  190.3090  175.2820  145.3080 C   0  0  2  0  0  3  0  0  0  0  0  0
  191.4900  175.7780  142.7170 C   0  0  0  0  0  2  0  0  0  0  0  0
  193.2910  173.6010  145.8050 C   0  0  0  0  0  1  0  0  0  0  0  0
  192.6300  174.8710  146.3160 C   0  0  0  0  0  2  0  0  0  0  0  0
  190.1850  173.5290  139.0520 C   0  0  0  0  0  1  0  0  0  0  0  0
  190.6090  172.9640  140.3280 N   0  0  0  0  0  2  0  0  0  0  0  0
  193.8950  172.5710  139.4530 C   0  0  0  0  0  2  0  0  0  0  0  0
  194.2190  173.0130  138.0350 C   0  0  0  0  0  2  0  0  0  0  0  0
  193.3760  174.0570  137.6500 O   0  0  0  0  0  1  0  0  0  0  0  0
  189.5710  176.3800  144.8560 O   0  0  0  0  0  0  0  0  0  0  0  0
  188.2490  175.9260  144.7880 C   0  0  0  0  0  2  0  0  0  0  0  0
  186.9730  177.9180  145.6110 C   0  0  0  0  0  2  0  0  0  0  0  0
  186.8700  178.4100  142.2990 C   0  0  0  0  0  2  0  0  0  0  0  0
  185.9470  179.3080  142.9700 N   0  0  0  0  0  2  0  0  0  0  0  0
  183.9990  178.0360  143.0950 O   0  0  0  0  0  0  0  0  0  0  0  0
  184.7340  179.0010  145.1480 C   0  0  0  0  0  2  0  0  0  0  0  0
  184.8250  178.7860  143.6770 C   0  0  0  0  0  0  0  0  0  0  0  0
  187.9230  177.9010  143.2810 C   0  0  0  0  0  2  0  0  0  0  0  0
  185.4750  177.8940  145.8950 C   0  0  0  0  0  2  0  0  0  0  0  0
  187.3090  177.0570  144.3940 C   0  0  1  0  0  3  0  0  0  0  0  0
  1 19  1  1  0  0  0
  1  9  1  0  0  0  0
  2 17  1  0  0  0  0
  3 23  1  1  0  0  0
  3 14  1  0  0  0  0
  3  1  1  0  0  0  0
  4  7  1  0  0  0  0
  4  8  1  0  0  0  0
  5 18  1  0  0  0  0
  5 21  1  1  0  0  0
  7 10  1  6  0  0  0
  7 16  1  0  0  0  0
  8 13  1  0  0  0  0
  9 15  1  0  0  0  0
 11 24  1  6  0  0  0
 11 10  1  0  0  0  0
 11 14  1  0  0  0  0
 13 12  1  0  0  0  0
 15 18  1  0  0  0  0
 15  6  1  1  0  0  0
 16  2  1  0  0  0  0
 16 12  1  1  0  0  0
 17 19  1  6  0  0  0
 17  5  1  0  0  0  0
 18 27  1  6  0  0  0
 20 21  1  0  0  0  0
 22 23  1  0  0  0  0
 25 24  1  0  0  0  0
 26 25  1  0  0  0  0
 28 27  1  0  0  0  0
 29 36  1  0  0  0  0
 30 31  1  0  0  0  0
 30 35  1  0  0  0  0
 31 34  1  0  0  0  0
 32 34  2  0  0  0  0
 33 36  1  0  0  0  0
 34 33  1  0  0  0  0
 35 37  1  0  0  0  0
 37 28  1  1  0  0  0
 37 29  1  0  0  0  0
M  END
>  <MODEL>
9

>  <REMARK>
 VINA RESULT:      -6.9      1.827      2.477
  Name = 
  7 active torsions:
  status: ('A' for Active; 'I' for Inactive)
    1  A    between atoms: C_3  and  C_32
    2  A    between atoms: C_5  and  N_23
    3  A    between atoms: C_10  and  C_14
    4  A    between atoms: C_21  and  C_32
    5  A    between atoms: C_27  and  O_33
    6  A    between atoms: C_27  and  C_37
    7  A    between atoms: O_33  and  C_34
                            x       y       z     vdW  Elec       q    Type
                         _______ _______ _______ _____ _____    ______ ____

>  <TORSDO>
F 7

$$$$
