=
 OpenBabel11052418043D

 28 31  0  0  1  0  0  0  0  0999 V2000
  190.7940  173.5770  144.7610 C   0  0  2  0  0  3  0  0  0  0  0  0
  189.6930  171.5910  141.2580 O   0  0  0  0  0  0  0  0  0  0  0  0
  187.9150  175.6970  143.5100 C   0  0  0  0  0  0  0  0  0  0  0  0
  189.2550  173.3600  142.7300 N   0  0  0  0  0  0  0  0  0  0  0  0
  189.0080  175.1550  144.2640 N   0  0  0  0  0  0  0  0  0  0  0  0
  191.1080  171.6670  143.1680 C   0  0  0  0  0  2  0  0  0  0  0  0
  188.0170  173.7040  142.0220 C   0  0  0  0  0  2  0  0  0  0  0  0
  189.9990  172.2020  142.3170 C   0  0  0  0  0  0  0  0  0  0  0  0
  187.4710  175.0440  142.4280 C   0  0  0  0  0  3  0  0  0  0  0  0
  191.8010  172.7970  143.9170 C   0  0  0  0  0  2  0  0  0  0  0  0
  189.6580  174.0890  143.9070 C   0  0  0  0  0  0  0  0  0  0  0  0
  186.8830  177.1670  145.1540 C   0  0  0  0  0  3  0  0  0  0  0  0
  186.2190  178.9420  142.7580 C   0  0  0  0  0  3  0  0  0  0  0  0
  185.0140  178.7290  144.9230 C   0  0  0  0  0  0  0  0  0  0  0  0
  187.3410  177.0120  143.9020 C   0  0  0  0  0  0  0  0  0  0  0  0
  188.6130  178.3450  141.7320 S   0  0  0  0  0  1  0  0  0  0  0  0
  185.0210  179.0050  143.6190 C   0  0  0  0  0  3  0  0  0  0  0  0
  187.2660  178.1160  142.8950 C   0  0  0  0  0  0  0  0  0  0  0  0
  183.8480  178.8060  145.6070 F   0  0  0  0  0  0  0  0  0  0  0  0
  186.2720  178.4270  145.6670 C   0  0  0  0  0  2  0  0  0  0  0  0
  191.4760  174.6710  145.5370 C   0  0  0  0  0  0  0  0  0  0  0  0
  192.6120  175.3110  145.0170 C   0  0  0  0  0  3  0  0  0  0  0  0
  191.5540  176.1480  147.4650 C   0  0  0  0  0  0  0  0  0  0  0  0
  193.2180  176.3550  145.7200 C   0  0  0  0  0  3  0  0  0  0  0  0
  189.8060  174.4910  147.2890 O   0  0  0  0  0  1  0  0  0  0  0  0
  190.9430  175.0990  146.7640 C   0  0  0  0  0  0  0  0  0  0  0  0
  191.0460  176.5660  148.6510 F   0  0  0  0  0  0  0  0  0  0  0  0
  192.6890  176.7730  146.9430 C   0  0  0  0  0  3  0  0  0  0  0  0
  1 21  1  6  0  0  0
  2  8  2  0  0  0  0
  3 15  1  0  0  0  0
  3  5  1  0  0  0  0
  4 11  1  0  0  0  0
  6 10  1  0  0  0  0
  7  9  1  0  0  0  0
  7  4  1  0  0  0  0
  8  4  1  0  0  0  0
  8  6  1  0  0  0  0
  9  3  2  0  0  0  0
 10  1  1  0  0  0  0
 11  5  2  0  0  0  0
 11  1  1  0  0  0  0
 12 20  1  0  0  0  0
 13 18  2  0  0  0  0
 13 17  1  0  0  0  0
 14 19  1  0  0  0  0
 14 20  1  0  0  0  0
 15 12  2  0  0  0  0
 16 18  1  0  0  0  0
 17 14  2  0  0  0  0
 18 15  1  0  0  0  0
 21 26  1  0  0  0  0
 22 21  2  0  0  0  0
 22 24  1  0  0  0  0
 23 27  1  0  0  0  0
 24 28  2  0  0  0  0
 26 25  1  0  0  0  0
 26 23  2  0  0  0  0
 28 23  1  0  0  0  0
M  END
>  <MODEL>
1

>  <REMARK>
 VINA RESULT:      -7.8      0.000      0.000
  Name = 
  2 active torsions:
  status: ('A' for Active; 'I' for Inactive)
    1  A    between atoms: C_1  and  C_2
    2  A    between atoms: C_10  and  C_13
                            x       y       z     vdW  Elec       q    Type
                         _______ _______ _______ _____ _____    ______ ____

>  <TORSDO>
F 2

$$$$
=
 OpenBabel11052418043D

 28 31  0  0  1  0  0  0  0  0999 V2000
  187.4760  177.7970  146.6680 C   0  0  2  0  0  3  0  0  0  0  0  0
  183.5290  178.6850  145.6390 O   0  0  0  0  0  0  0  0  0  0  0  0
  187.3460  176.7650  143.0260 C   0  0  0  0  0  0  0  0  0  0  0  0
  185.6140  177.8990  144.9170 N   0  0  0  0  0  0  0  0  0  0  0  0
  187.7570  177.0340  144.3730 N   0  0  0  0  0  0  0  0  0  0  0  0
  185.2290  178.7100  147.3020 C   0  0  0  0  0  2  0  0  0  0  0  0
  185.1730  177.8720  143.5190 C   0  0  0  0  0  2  0  0  0  0  0  0
  184.7280  178.4190  145.9220 C   0  0  0  0  0  0  0  0  0  0  0  0
  186.1160  177.1160  142.6280 C   0  0  0  0  0  3  0  0  0  0  0  0
  186.3370  177.7380  147.6850 C   0  0  0  0  0  2  0  0  0  0  0  0
  186.9640  177.5350  145.2710 C   0  0  0  0  0  0  0  0  0  0  0  0
  187.7480  175.3390  141.0940 C   0  0  0  0  0  3  0  0  0  0  0  0
  190.5600  175.0210  142.2470 C   0  0  0  0  0  3  0  0  0  0  0  0
  189.2710  173.4430  140.8190 C   0  0  0  0  0  0  0  0  0  0  0  0
  188.2690  176.0360  142.1150 C   0  0  0  0  0  0  0  0  0  0  0  0
  190.5010  177.6020  142.9340 S   0  0  0  0  0  1  0  0  0  0  0  0
  190.2040  173.6800  141.7430 C   0  0  0  0  0  3  0  0  0  0  0  0
  189.7430  176.0780  142.3680 C   0  0  0  0  0  0  0  0  0  0  0  0
  189.0210  172.1650  140.4480 F   0  0  0  0  0  0  0  0  0  0  0  0
  188.5610  174.5540  140.1200 C   0  0  0  0  0  2  0  0  0  0  0  0
  188.5950  176.8690  147.0590 C   0  0  0  0  0  0  0  0  0  0  0  0
  188.4910  175.4890  146.8230 C   0  0  0  0  0  3  0  0  0  0  0  0
  190.8350  176.5280  147.9370 C   0  0  0  0  0  0  0  0  0  0  0  0
  189.5480  174.6360  147.1490 C   0  0  0  0  0  3  0  0  0  0  0  0
  189.9080  178.7550  147.8380 O   0  0  0  0  0  1  0  0  0  0  0  0
  189.7770  177.3880  147.6130 C   0  0  0  0  0  0  0  0  0  0  0  0
  191.9780  177.0220  148.4730 F   0  0  0  0  0  0  0  0  0  0  0  0
  190.7190  175.1550  147.7060 C   0  0  0  0  0  3  0  0  0  0  0  0
  1 21  1  1  0  0  0
  1 10  1  0  0  0  0
  2  8  2  0  0  0  0
  3  5  1  0  0  0  0
  4 11  1  0  0  0  0
  4  8  1  0  0  0  0
  5 11  2  0  0  0  0
  6 10  1  0  0  0  0
  7  4  1  0  0  0  0
  8  6  1  0  0  0  0
  9  3  2  0  0  0  0
  9  7  1  0  0  0  0
 11  1  1  0  0  0  0
 12 15  2  0  0  0  0
 13 18  2  0  0  0  0
 14 17  2  0  0  0  0
 15 18  1  0  0  0  0
 15  3  1  0  0  0  0
 17 13  1  0  0  0  0
 18 16  1  0  0  0  0
 19 14  1  0  0  0  0
 20 14  1  0  0  0  0
 20 12  1  0  0  0  0
 21 26  1  0  0  0  0
 22 21  2  0  0  0  0
 22 24  1  0  0  0  0
 23 27  1  0  0  0  0
 24 28  2  0  0  0  0
 26 25  1  0  0  0  0
 26 23  2  0  0  0  0
 28 23  1  0  0  0  0
M  END
>  <MODEL>
2

>  <REMARK>
 VINA RESULT:      -7.7      3.276      5.747
  Name = 
  2 active torsions:
  status: ('A' for Active; 'I' for Inactive)
    1  A    between atoms: C_1  and  C_2
    2  A    between atoms: C_10  and  C_13
                            x       y       z     vdW  Elec       q    Type
                         _______ _______ _______ _____ _____    ______ ____

>  <TORSDO>
F 2

$$$$
=
 OpenBabel11052418043D

 28 31  0  0  1  0  0  0  0  0999 V2000
  188.3880  177.4340  144.5660 C   0  0  2  0  0  3  0  0  0  0  0  0
  185.2970  178.2780  141.8890 O   0  0  0  0  0  0  0  0  0  0  0  0
  189.1020  175.0240  141.7320 C   0  0  0  0  0  0  0  0  0  0  0  0
  187.2310  177.0270  142.3210 N   0  0  0  0  0  0  0  0  0  0  0  0
  189.1430  175.7710  142.9550 N   0  0  0  0  0  0  0  0  0  0  0  0
  186.3660  178.7820  143.9540 C   0  0  0  0  0  2  0  0  0  0  0  0
  187.2400  176.4820  140.9600 C   0  0  0  0  0  2  0  0  0  0  0  0
  186.2470  178.0130  142.6760 C   0  0  0  0  0  0  0  0  0  0  0  0
  188.1820  175.3220  140.8060 C   0  0  0  0  0  3  0  0  0  0  0  0
  187.0210  177.9300  145.0320 C   0  0  0  0  0  2  0  0  0  0  0  0
  188.2720  176.6850  143.2590 C   0  0  0  0  0  0  0  0  0  0  0  0
  189.6400  172.8380  140.8030 C   0  0  0  0  0  3  0  0  0  0  0  0
  191.9620  172.8600  142.7880 C   0  0  0  0  0  3  0  0  0  0  0  0
  190.7460  170.9130  141.8320 C   0  0  0  0  0  0  0  0  0  0  0  0
  190.0390  173.8830  141.5440 C   0  0  0  0  0  0  0  0  0  0  0  0
  192.2920  175.4620  142.2760 S   0  0  0  0  0  1  0  0  0  0  0  0
  191.4600  171.4720  142.8090 C   0  0  0  0  0  3  0  0  0  0  0  0
  191.3840  173.9160  142.1970 C   0  0  0  0  0  0  0  0  0  0  0  0
  190.3250  169.6340  141.9720 F   0  0  0  0  0  0  0  0  0  0  0  0
  190.4760  171.6290  140.5510 C   0  0  0  0  0  2  0  0  0  0  0  0
  189.0620  176.6230  145.6410 C   0  0  0  0  0  0  0  0  0  0  0  0
  188.3220  175.7230  146.4230 C   0  0  0  0  0  3  0  0  0  0  0  0
  191.0830  175.9350  146.8010 C   0  0  0  0  0  0  0  0  0  0  0  0
  188.9560  174.9420  147.3920 C   0  0  0  0  0  3  0  0  0  0  0  0
  191.2060  177.5950  145.0520 O   0  0  0  0  0  1  0  0  0  0  0  0
  190.4500  176.7220  145.8290 C   0  0  0  0  0  0  0  0  0  0  0  0
  192.4220  176.0260  146.9900 F   0  0  0  0  0  0  0  0  0  0  0  0
  190.3360  175.0480  147.5800 C   0  0  0  0  0  3  0  0  0  0  0  0
  1 10  1  0  0  0  0
  1 21  1  1  0  0  0
  2  8  2  0  0  0  0
  3  5  1  0  0  0  0
  4  8  1  0  0  0  0
  4 11  1  0  0  0  0
  5 11  2  0  0  0  0
  6 10  1  0  0  0  0
  7  4  1  0  0  0  0
  8  6  1  0  0  0  0
  9  7  1  0  0  0  0
  9  3  2  0  0  0  0
 11  1  1  0  0  0  0
 12 15  2  0  0  0  0
 13 17  1  0  0  0  0
 14 19  1  0  0  0  0
 14 17  2  0  0  0  0
 15  3  1  0  0  0  0
 15 18  1  0  0  0  0
 18 16  1  0  0  0  0
 18 13  2  0  0  0  0
 20 12  1  0  0  0  0
 20 14  1  0  0  0  0
 21 26  2  0  0  0  0
 21 22  1  0  0  0  0
 22 24  2  0  0  0  0
 23 27  1  0  0  0  0
 23 28  2  0  0  0  0
 24 28  1  0  0  0  0
 25 26  1  0  0  0  0
 26 23  1  0  0  0  0
M  END
>  <MODEL>
3

>  <REMARK>
 VINA RESULT:      -7.7      3.099      6.032
  Name = 
  2 active torsions:
  status: ('A' for Active; 'I' for Inactive)
    1  A    between atoms: C_1  and  C_2
    2  A    between atoms: C_10  and  C_13
                            x       y       z     vdW  Elec       q    Type
                         _______ _______ _______ _____ _____    ______ ____

>  <TORSDO>
F 2

$$$$
=
 OpenBabel11052418043D

 28 31  0  0  1  0  0  0  0  0999 V2000
  189.3380  174.7980  144.9850 C   0  0  2  0  0  3  0  0  0  0  0  0
  189.6380  178.0660  147.5670 O   0  0  0  0  0  0  0  0  0  0  0  0
  192.9970  174.7150  145.9600 C   0  0  0  0  0  0  0  0  0  0  0  0
  190.7310  176.2550  146.5600 N   0  0  0  0  0  0  0  0  0  0  0  0
  191.7130  174.4420  145.3840 N   0  0  0  0  0  0  0  0  0  0  0  0
  188.2500  176.7070  146.1930 C   0  0  0  0  0  2  0  0  0  0  0  0
  191.9360  176.4730  147.3670 C   0  0  0  0  0  2  0  0  0  0  0  0
  189.5700  177.0670  146.8000 C   0  0  0  0  0  0  0  0  0  0  0  0
  193.1200  175.6980  146.8620 C   0  0  0  0  0  3  0  0  0  0  0  0
  188.4490  176.0330  144.8420 C   0  0  0  0  0  2  0  0  0  0  0  0
  190.6570  175.1570  145.6280 C   0  0  0  0  0  0  0  0  0  0  0  0
  194.1100  172.6090  145.4560 C   0  0  0  0  0  3  0  0  0  0  0  0
  196.6690  174.2780  145.4140 C   0  0  0  0  0  3  0  0  0  0  0  0
  196.3880  171.8670  145.9580 C   0  0  0  0  0  0  0  0  0  0  0  0
  194.1830  173.9490  145.4940 C   0  0  0  0  0  0  0  0  0  0  0  0
  195.3000  176.2320  144.2110 S   0  0  0  0  0  1  0  0  0  0  0  0
  197.0510  173.0170  146.0810 C   0  0  0  0  0  3  0  0  0  0  0  0
  195.4280  174.6800  145.1020 C   0  0  0  0  0  0  0  0  0  0  0  0
  196.8250  170.7780  146.6330 F   0  0  0  0  0  0  0  0  0  0  0  0
  195.2320  171.7260  145.0250 C   0  0  0  0  0  2  0  0  0  0  0  0
  189.5070  174.1020  143.6620 C   0  0  0  0  0  0  0  0  0  0  0  0
  189.6510  174.8440  142.4790 C   0  0  0  0  0  3  0  0  0  0  0  0
  189.7800  172.0540  142.3830 C   0  0  0  0  0  0  0  0  0  0  0  0
  189.8500  174.1950  141.2580 C   0  0  0  0  0  3  0  0  0  0  0  0
  189.4580  171.9450  144.7730 O   0  0  0  0  0  1  0  0  0  0  0  0
  189.5790  172.7000  143.6100 C   0  0  0  0  0  0  0  0  0  0  0  0
  189.8500  170.7010  142.3250 F   0  0  0  0  0  0  0  0  0  0  0  0
  189.9150  172.8010  141.2110 C   0  0  0  0  0  3  0  0  0  0  0  0
  1 21  1  6  0  0  0
  1 11  1  0  0  0  0
  3  9  2  0  0  0  0
  4  8  1  0  0  0  0
  4  7  1  0  0  0  0
  5 11  2  0  0  0  0
  5  3  1  0  0  0  0
  6  8  1  0  0  0  0
  8  2  2  0  0  0  0
  9  7  1  0  0  0  0
 10  1  1  0  0  0  0
 10  6  1  0  0  0  0
 11  4  1  0  0  0  0
 12 15  2  0  0  0  0
 13 17  1  0  0  0  0
 14 17  2  0  0  0  0
 14 19  1  0  0  0  0
 15  3  1  0  0  0  0
 16 18  1  0  0  0  0
 18 13  2  0  0  0  0
 18 15  1  0  0  0  0
 20 12  1  0  0  0  0
 20 14  1  0  0  0  0
 22 21  2  0  0  0  0
 23 26  2  0  0  0  0
 24 22  1  0  0  0  0
 26 21  1  0  0  0  0
 26 25  1  0  0  0  0
 27 23  1  0  0  0  0
 28 24  2  0  0  0  0
 28 23  1  0  0  0  0
M  END
>  <MODEL>
4

>  <REMARK>
 VINA RESULT:      -7.7      3.756      7.951
  Name = 
  2 active torsions:
  status: ('A' for Active; 'I' for Inactive)
    1  A    between atoms: C_1  and  C_2
    2  A    between atoms: C_10  and  C_13
                            x       y       z     vdW  Elec       q    Type
                         _______ _______ _______ _____ _____    ______ ____

>  <TORSDO>
F 2

$$$$
=
 OpenBabel11052418043D

 28 31  0  0  1  0  0  0  0  0999 V2000
  190.4800  173.6430  145.0090 C   0  0  2  0  0  3  0  0  0  0  0  0
  189.7290  171.7790  141.3500 O   0  0  0  0  0  0  0  0  0  0  0  0
  187.7640  175.8340  143.5350 C   0  0  0  0  0  0  0  0  0  0  0  0
  189.1570  173.5070  142.8240 N   0  0  0  0  0  0  0  0  0  0  0  0
  188.7680  175.2570  144.3800 N   0  0  0  0  0  0  0  0  0  0  0  0
  190.9410  171.7790  143.3970 C   0  0  0  0  0  2  0  0  0  0  0  0
  188.0010  173.8870  142.0040 C   0  0  0  0  0  2  0  0  0  0  0  0
  189.9300  172.3530  142.4540 C   0  0  0  0  0  0  0  0  0  0  0  0
  187.4280  175.2200  142.3940 C   0  0  0  0  0  3  0  0  0  0  0  0
  191.5620  172.8780  144.2480 C   0  0  0  0  0  2  0  0  0  0  0  0
  189.4430  174.1940  144.0590 C   0  0  0  0  0  0  0  0  0  0  0  0
  186.7570  177.3290  145.1730 C   0  0  0  0  0  3  0  0  0  0  0  0
  185.9270  178.9940  142.7500 C   0  0  0  0  0  3  0  0  0  0  0  0
  184.8270  178.8210  144.9740 C   0  0  0  0  0  0  0  0  0  0  0  0
  187.1640  177.1430  143.9080 C   0  0  0  0  0  0  0  0  0  0  0  0
  188.2920  178.4380  141.6380 S   0  0  0  0  0  1  0  0  0  0  0  0
  184.7680  179.0500  143.6620 C   0  0  0  0  0  3  0  0  0  0  0  0
  187.0070  178.2080  142.8680 C   0  0  0  0  0  0  0  0  0  0  0  0
  183.6910  178.8840  145.7070 F   0  0  0  0  0  0  0  0  0  0  0  0
  186.1270  178.5860  145.6700 C   0  0  0  0  0  2  0  0  0  0  0  0
  191.0870  174.7050  145.8850 C   0  0  0  0  0  0  0  0  0  0  0  0
  190.6070  174.9160  147.1870 C   0  0  0  0  0  3  0  0  0  0  0  0
  192.7730  176.4160  146.2550 C   0  0  0  0  0  0  0  0  0  0  0  0
  191.2000  175.8740  148.0130 C   0  0  0  0  0  3  0  0  0  0  0  0
  192.6850  175.2510  144.1420 O   0  0  0  0  0  1  0  0  0  0  0  0
  192.1810  175.4570  145.4230 C   0  0  0  0  0  0  0  0  0  0  0  0
  193.8280  177.1450  145.8150 F   0  0  0  0  0  0  0  0  0  0  0  0
  192.2830  176.6230  147.5460 C   0  0  0  0  0  3  0  0  0  0  0  0
  1 21  1  6  0  0  0
  2  8  2  0  0  0  0
  3 15  1  0  0  0  0
  3  5  1  0  0  0  0
  4 11  1  0  0  0  0
  6 10  1  0  0  0  0
  7  9  1  0  0  0  0
  7  4  1  0  0  0  0
  8  4  1  0  0  0  0
  8  6  1  0  0  0  0
  9  3  2  0  0  0  0
 10  1  1  0  0  0  0
 11  5  2  0  0  0  0
 11  1  1  0  0  0  0
 12 20  1  0  0  0  0
 13 18  2  0  0  0  0
 13 17  1  0  0  0  0
 14 20  1  0  0  0  0
 14 19  1  0  0  0  0
 15 12  2  0  0  0  0
 16 18  1  0  0  0  0
 17 14  2  0  0  0  0
 18 15  1  0  0  0  0
 21 22  1  0  0  0  0
 22 24  2  0  0  0  0
 23 28  2  0  0  0  0
 25 26  1  0  0  0  0
 26 21  2  0  0  0  0
 26 23  1  0  0  0  0
 27 23  1  0  0  0  0
 28 24  1  0  0  0  0
M  END
>  <MODEL>
5

>  <REMARK>
 VINA RESULT:      -7.4      1.177      1.489
  Name = 
  2 active torsions:
  status: ('A' for Active; 'I' for Inactive)
    1  A    between atoms: C_1  and  C_2
    2  A    between atoms: C_10  and  C_13
                            x       y       z     vdW  Elec       q    Type
                         _______ _______ _______ _____ _____    ______ ____

>  <TORSDO>
F 2

$$$$
=
 OpenBabel11052418043D

 28 31  0  0  1  0  0  0  0  0999 V2000
  186.7510  177.8310  143.7710 C   0  0  2  0  0  3  0  0  0  0  0  0
  187.0670  176.3530  139.8790 O   0  0  0  0  0  0  0  0  0  0  0  0
  190.0080  175.9020  143.9080 C   0  0  0  0  0  0  0  0  0  0  0  0
  188.0500  176.5200  141.9990 N   0  0  0  0  0  0  0  0  0  0  0  0
  188.8590  176.7000  144.2230 N   0  0  0  0  0  0  0  0  0  0  0  0
  185.8420  177.6650  141.4400 C   0  0  0  0  0  2  0  0  0  0  0  0
  189.2890  175.8950  141.5260 C   0  0  0  0  0  2  0  0  0  0  0  0
  187.0000  176.7970  141.0570 C   0  0  0  0  0  0  0  0  0  0  0  0
  190.1950  175.4820  142.6500 C   0  0  0  0  0  3  0  0  0  0  0  0
  185.5230  177.5080  142.9210 C   0  0  0  0  0  2  0  0  0  0  0  0
  187.9280  176.9760  143.3610 C   0  0  0  0  0  0  0  0  0  0  0  0
  191.3050  176.4160  145.9040 C   0  0  0  0  0  3  0  0  0  0  0  0
  192.7110  173.7600  145.3500 C   0  0  0  0  0  3  0  0  0  0  0  0
  193.5880  175.7780  146.5120 C   0  0  0  0  0  0  0  0  0  0  0  0
  190.9350  175.4970  144.9990 C   0  0  0  0  0  0  0  0  0  0  0  0
  190.3530  172.7350  144.6240 S   0  0  0  0  0  1  0  0  0  0  0  0
  193.7850  174.6710  145.7930 C   0  0  0  0  0  3  0  0  0  0  0  0
  191.4470  174.0920  145.0490 C   0  0  0  0  0  0  0  0  0  0  0  0
  194.6520  176.5450  146.8450 F   0  0  0  0  0  0  0  0  0  0  0  0
  192.2390  176.1420  147.0340 C   0  0  0  0  0  2  0  0  0  0  0  0
  186.4340  177.7180  145.2380 C   0  0  0  0  0  0  0  0  0  0  0  0
  186.6780  176.5200  145.9290 C   0  0  0  0  0  3  0  0  0  0  0  0
  185.6900  178.7380  147.3140 C   0  0  0  0  0  0  0  0  0  0  0  0
  186.4220  176.4310  147.2990 C   0  0  0  0  0  3  0  0  0  0  0  0
  185.7130  180.0340  145.2770 O   0  0  0  0  0  1  0  0  0  0  0  0
  185.9440  178.8320  145.9380 C   0  0  0  0  0  0  0  0  0  0  0  0
  185.2160  179.8090  147.9960 F   0  0  0  0  0  0  0  0  0  0  0  0
  185.9290  177.5400  147.9910 C   0  0  0  0  0  3  0  0  0  0  0  0
  1 21  1  1  0  0  0
  2  8  2  0  0  0  0
  3  5  1  0  0  0  0
  3 15  1  0  0  0  0
  4 11  1  0  0  0  0
  6 10  1  0  0  0  0
  7  4  1  0  0  0  0
  7  9  1  0  0  0  0
  8  6  1  0  0  0  0
  8  4  1  0  0  0  0
  9  3  2  0  0  0  0
 10  1  1  0  0  0  0
 11  1  1  0  0  0  0
 11  5  2  0  0  0  0
 12 20  1  0  0  0  0
 13 17  1  0  0  0  0
 14 19  1  0  0  0  0
 14 20  1  0  0  0  0
 15 18  1  0  0  0  0
 15 12  2  0  0  0  0
 16 18  1  0  0  0  0
 17 14  2  0  0  0  0
 18 13  2  0  0  0  0
 21 22  2  0  0  0  0
 21 26  1  0  0  0  0
 22 24  1  0  0  0  0
 23 28  1  0  0  0  0
 23 27  1  0  0  0  0
 24 28  2  0  0  0  0
 25 26  1  0  0  0  0
 26 23  2  0  0  0  0
M  END
>  <MODEL>
6

>  <REMARK>
 VINA RESULT:      -7.4      2.828      6.446
  Name = 
  2 active torsions:
  status: ('A' for Active; 'I' for Inactive)
    1  A    between atoms: C_1  and  C_2
    2  A    between atoms: C_10  and  C_13
                            x       y       z     vdW  Elec       q    Type
                         _______ _______ _______ _____ _____    ______ ____

>  <TORSDO>
F 2

$$$$
=
 OpenBabel11052418043D

 28 31  0  0  1  0  0  0  0  0999 V2000
  190.6050  174.3120  143.5440 C   0  0  2  0  0  3  0  0  0  0  0  0
  189.0310  174.1090  139.6820 O   0  0  0  0  0  0  0  0  0  0  0  0
  187.5160  176.4860  143.8230 C   0  0  0  0  0  0  0  0  0  0  0  0
  188.7780  174.9290  141.8630 N   0  0  0  0  0  0  0  0  0  0  0  0
  188.7240  175.7600  144.0850 N   0  0  0  0  0  0  0  0  0  0  0  0
  190.7200  173.4140  141.2060 C   0  0  0  0  0  2  0  0  0  0  0  0
  187.4380  175.4440  141.5640 C   0  0  0  0  0  2  0  0  0  0  0  0
  189.4800  174.1770  140.8580 C   0  0  0  0  0  0  0  0  0  0  0  0
  186.9270  176.3770  142.6240 C   0  0  0  0  0  3  0  0  0  0  0  0
  191.4900  174.1210  142.3130 C   0  0  0  0  0  2  0  0  0  0  0  0
  189.3390  175.0540  143.1850 C   0  0  0  0  0  0  0  0  0  0  0  0
  187.5560  177.4160  146.0730 C   0  0  0  0  0  3  0  0  0  0  0  0
  184.7750  178.4830  145.3960 C   0  0  0  0  0  3  0  0  0  0  0  0
  185.7200  177.8920  147.6190 C   0  0  0  0  0  0  0  0  0  0  0  0
  186.9750  177.4010  144.8640 C   0  0  0  0  0  0  0  0  0  0  0  0
  185.6470  179.0080  142.9250 S   0  0  0  0  0  1  0  0  0  0  0  0
  184.6780  178.0400  146.8000 C   0  0  0  0  0  3  0  0  0  0  0  0
  185.7910  178.2600  144.5490 C   0  0  0  0  0  0  0  0  0  0  0  0
  185.5080  177.4620  148.8850 F   0  0  0  0  0  0  0  0  0  0  0  0
  187.1020  178.2740  147.2050 C   0  0  0  0  0  2  0  0  0  0  0  0
  191.3700  174.9740  144.6580 C   0  0  0  0  0  0  0  0  0  0  0  0
  192.3760  175.9100  144.3730 C   0  0  0  0  0  3  0  0  0  0  0  0
  191.7240  175.3500  147.0330 C   0  0  0  0  0  0  0  0  0  0  0  0
  193.0560  176.5550  145.4100 C   0  0  0  0  0  3  0  0  0  0  0  0
  190.0330  173.7890  146.3010 O   0  0  0  0  0  1  0  0  0  0  0  0
  191.0410  174.7000  145.9960 C   0  0  0  0  0  0  0  0  0  0  0  0
  191.4130  175.0890  148.3260 F   0  0  0  0  0  0  0  0  0  0  0  0
  192.7290  176.2740  146.7390 C   0  0  0  0  0  3  0  0  0  0  0  0
  1 21  1  1  0  0  0
  2  8  2  0  0  0  0
  3  5  1  0  0  0  0
  3 15  1  0  0  0  0
  4 11  1  0  0  0  0
  6 10  1  0  0  0  0
  7  4  1  0  0  0  0
  7  9  1  0  0  0  0
  8  6  1  0  0  0  0
  8  4  1  0  0  0  0
  9  3  2  0  0  0  0
 10  1  1  0  0  0  0
 11  1  1  0  0  0  0
 11  5  2  0  0  0  0
 12 20  1  0  0  0  0
 13 17  1  0  0  0  0
 14 19  1  0  0  0  0
 15 12  2  0  0  0  0
 16 18  1  0  0  0  0
 17 14  2  0  0  0  0
 18 15  1  0  0  0  0
 18 13  2  0  0  0  0
 20 14  1  0  0  0  0
 21 26  1  0  0  0  0
 22 21  2  0  0  0  0
 22 24  1  0  0  0  0
 23 27  1  0  0  0  0
 24 28  2  0  0  0  0
 26 25  1  0  0  0  0
 26 23  2  0  0  0  0
 28 23  1  0  0  0  0
M  END
>  <MODEL>
7

>  <REMARK>
 VINA RESULT:      -7.3      1.693      2.020
  Name = 
  2 active torsions:
  status: ('A' for Active; 'I' for Inactive)
    1  A    between atoms: C_1  and  C_2
    2  A    between atoms: C_10  and  C_13
                            x       y       z     vdW  Elec       q    Type
                         _______ _______ _______ _____ _____    ______ ____

>  <TORSDO>
F 2

$$$$
=
 OpenBabel11052418043D

 28 31  0  0  1  0  0  0  0  0999 V2000
  189.5040  177.1490  144.7990 C   0  0  2  0  0  3  0  0  0  0  0  0
  185.4150  176.8930  143.9910 O   0  0  0  0  0  0  0  0  0  0  0  0
  189.3650  174.3510  142.2490 C   0  0  0  0  0  0  0  0  0  0  0  0
  187.5650  176.0960  143.5040 N   0  0  0  0  0  0  0  0  0  0  0  0
  189.7920  175.3340  143.2010 N   0  0  0  0  0  0  0  0  0  0  0  0
  187.1700  177.9870  145.1670 C   0  0  0  0  0  2  0  0  0  0  0  0
  187.0630  175.2880  142.3880 C   0  0  0  0  0  2  0  0  0  0  0  0
  186.6550  176.9580  144.2090 C   0  0  0  0  0  0  0  0  0  0  0  0
  188.0750  174.2930  141.8930 C   0  0  0  0  0  3  0  0  0  0  0  0
  188.4440  177.4990  145.8420 C   0  0  0  0  0  2  0  0  0  0  0  0
  188.9720  176.1340  143.8130 C   0  0  0  0  0  0  0  0  0  0  0  0
  190.9920  173.6450  140.5810 C   0  0  0  0  0  3  0  0  0  0  0  0
  190.7370  170.8930  141.8830 C   0  0  0  0  0  3  0  0  0  0  0  0
  191.3370  171.4590  139.5370 C   0  0  0  0  0  0  0  0  0  0  0  0
  190.3500  173.3670  141.7260 C   0  0  0  0  0  0  0  0  0  0  0  0
  190.6070  172.1010  144.2630 S   0  0  0  0  0  1  0  0  0  0  0  0
  190.8210  170.6200  140.4350 C   0  0  0  0  0  3  0  0  0  0  0  0
  190.5850  172.0900  142.4690 C   0  0  0  0  0  0  0  0  0  0  0  0
  191.3440  171.1050  138.2300 F   0  0  0  0  0  0  0  0  0  0  0  0
  191.9900  172.7380  139.9440 C   0  0  0  0  0  2  0  0  0  0  0  0
  190.7810  176.7040  145.4580 C   0  0  0  0  0  0  0  0  0  0  0  0
  190.7480  175.8580  146.5770 C   0  0  0  0  0  3  0  0  0  0  0  0
  193.2100  176.6380  145.5080 C   0  0  0  0  0  0  0  0  0  0  0  0
  191.9360  175.4120  147.1610 C   0  0  0  0  0  3  0  0  0  0  0  0
  192.0760  177.9110  143.7980 O   0  0  0  0  0  1  0  0  0  0  0  0
  192.0200  177.0880  144.9190 C   0  0  0  0  0  0  0  0  0  0  0  0
  194.4090  177.0050  144.9950 F   0  0  0  0  0  0  0  0  0  0  0  0
  193.1660  175.8020  146.6270 C   0  0  0  0  0  3  0  0  0  0  0  0
  1 21  1  1  0  0  0
  1 10  1  0  0  0  0
  2  8  2  0  0  0  0
  3  5  1  0  0  0  0
  4 11  1  0  0  0  0
  4  8  1  0  0  0  0
  5 11  2  0  0  0  0
  6 10  1  0  0  0  0
  7  4  1  0  0  0  0
  8  6  1  0  0  0  0
  9  3  2  0  0  0  0
  9  7  1  0  0  0  0
 11  1  1  0  0  0  0
 12 15  2  0  0  0  0
 13 18  2  0  0  0  0
 14 20  1  0  0  0  0
 14 17  2  0  0  0  0
 15  3  1  0  0  0  0
 15 18  1  0  0  0  0
 17 13  1  0  0  0  0
 18 16  1  0  0  0  0
 19 14  1  0  0  0  0
 20 12  1  0  0  0  0
 21 22  1  0  0  0  0
 22 24  2  0  0  0  0
 23 28  2  0  0  0  0
 25 26  1  0  0  0  0
 26 21  2  0  0  0  0
 26 23  1  0  0  0  0
 27 23  1  0  0  0  0
 28 24  1  0  0  0  0
M  END
>  <MODEL>
8

>  <REMARK>
 VINA RESULT:      -7.2      3.506      6.209
  Name = 
  2 active torsions:
  status: ('A' for Active; 'I' for Inactive)
    1  A    between atoms: C_1  and  C_2
    2  A    between atoms: C_10  and  C_13
                            x       y       z     vdW  Elec       q    Type
                         _______ _______ _______ _____ _____    ______ ____

>  <TORSDO>
F 2

$$$$
=
 OpenBabel11052418043D

 28 31  0  0  1  0  0  0  0  0999 V2000
  191.9690  173.0700  142.2240 C   0  0  2  0  0  3  0  0  0  0  0  0
  189.3140  171.8090  139.2600 O   0  0  0  0  0  0  0  0  0  0  0  0
  188.8010  174.9320  143.1420 C   0  0  0  0  0  0  0  0  0  0  0  0
  189.6270  173.0900  141.1960 N   0  0  0  0  0  0  0  0  0  0  0  0
  190.1360  174.4120  143.1010 N   0  0  0  0  0  0  0  0  0  0  0  0
  191.4910  171.6630  140.2050 C   0  0  0  0  0  2  0  0  0  0  0  0
  188.1930  173.3860  141.2890 C   0  0  0  0  0  2  0  0  0  0  0  0
  190.0930  172.1960  140.1720 C   0  0  0  0  0  0  0  0  0  0  0  0
  187.8920  174.4880  142.2650 C   0  0  0  0  0  3  0  0  0  0  0  0
  192.4380  172.6830  140.8220 C   0  0  0  0  0  2  0  0  0  0  0  0
  190.5470  173.5780  142.1940 C   0  0  0  0  0  0  0  0  0  0  0  0
  188.6500  175.7740  145.4220 C   0  0  0  0  0  3  0  0  0  0  0  0
  186.9280  177.9870  144.2090 C   0  0  0  0  0  3  0  0  0  0  0  0
  186.8790  177.0610  146.5170 C   0  0  0  0  0  0  0  0  0  0  0  0
  188.4680  176.0090  144.1130 C   0  0  0  0  0  0  0  0  0  0  0  0
  188.5660  178.0170  142.0980 S   0  0  0  0  0  1  0  0  0  0  0  0
  186.2730  177.6580  145.4900 C   0  0  0  0  0  3  0  0  0  0  0  0
  187.9230  177.3100  143.6160 C   0  0  0  0  0  0  0  0  0  0  0  0
  186.1680  176.7940  147.6380 F   0  0  0  0  0  0  0  0  0  0  0  0
  188.3410  176.7610  146.4960 C   0  0  0  0  0  2  0  0  0  0  0  0
  192.9210  174.0480  142.8580 C   0  0  0  0  0  0  0  0  0  0  0  0
  193.4550  175.1100  142.1110 C   0  0  0  0  0  3  0  0  0  0  0  0
  194.0900  174.8730  144.8220 C   0  0  0  0  0  0  0  0  0  0  0  0
  194.3050  176.0410  142.7130 C   0  0  0  0  0  3  0  0  0  0  0  0
  192.7050  172.9020  144.9870 O   0  0  0  0  0  1  0  0  0  0  0  0
  193.2380  173.9360  144.2220 C   0  0  0  0  0  0  0  0  0  0  0  0
  194.4010  174.7710  146.1380 F   0  0  0  0  0  0  0  0  0  0  0  0
  194.6220  175.9220  144.0680 C   0  0  0  0  0  3  0  0  0  0  0  0
  1 21  1  6  0  0  0
  2  8  2  0  0  0  0
  3 15  1  0  0  0  0
  4  7  1  0  0  0  0
  4 11  1  0  0  0  0
  5  3  1  0  0  0  0
  6 10  1  0  0  0  0
  7  9  1  0  0  0  0
  8  6  1  0  0  0  0
  8  4  1  0  0  0  0
  9  3  2  0  0  0  0
 10  1  1  0  0  0  0
 11  1  1  0  0  0  0
 11  5  2  0  0  0  0
 12 20  1  0  0  0  0
 13 17  1  0  0  0  0
 14 19  1  0  0  0  0
 15 12  2  0  0  0  0
 16 18  1  0  0  0  0
 17 14  2  0  0  0  0
 18 15  1  0  0  0  0
 18 13  2  0  0  0  0
 20 14  1  0  0  0  0
 21 26  1  0  0  0  0
 22 24  1  0  0  0  0
 22 21  2  0  0  0  0
 23 27  1  0  0  0  0
 24 28  2  0  0  0  0
 26 23  2  0  0  0  0
 26 25  1  0  0  0  0
 28 23  1  0  0  0  0
M  END
>  <MODEL>
9

>  <REMARK>
 VINA RESULT:      -7.1      2.197      2.706
  Name = 
  2 active torsions:
  status: ('A' for Active; 'I' for Inactive)
    1  A    between atoms: C_1  and  C_2
    2  A    between atoms: C_10  and  C_13
                            x       y       z     vdW  Elec       q    Type
                         _______ _______ _______ _____ _____    ______ ____

>  <TORSDO>
F 2

$$$$
