=
 OpenBabel11052418233D

 27 31  0  0  1  0  0  0  0  0999 V2000
  190.2780  177.8870  143.5750 C   0  0  0  0  0  2  0  0  0  0  0  0
  188.2980  176.3090  143.7440 C   0  0  1  0  0  0  0  0  0  0  0  0
  188.5680  174.9270  145.8350 C   0  0  0  0  0  2  0  0  0  0  0  0
  184.8690  177.3200  146.1760 C   0  0  0  0  0  3  0  0  0  0  0  0
  185.7630  178.8810  147.8640 C   0  0  0  0  0  3  0  0  0  0  0  0
  186.9090  176.2050  143.3200 N   0  0  0  0  0  0  0  0  0  0  0  0
  187.8260  177.9040  146.8970 N   0  0  0  0  0  0  0  0  0  0  0  0
  189.3420  175.6230  142.8790 C   0  0  2  0  0  3  0  0  0  0  0  0
  192.3230  174.3670  145.9220 C   0  0  0  0  0  2  0  0  0  0  0  0
  187.0840  178.8060  147.7210 C   0  0  0  0  0  3  0  0  0  0  0  0
  192.9910  175.4290  145.0610 C   0  0  0  0  0  2  0  0  0  0  0  0
  187.4570  177.1400  145.9150 C   0  0  0  0  0  0  0  0  0  0  0  0
  189.1720  177.1500  142.8140 C   0  0  2  0  0  3  0  0  0  0  0  0
  184.7720  178.0830  147.2170 N   0  0  0  0  0  2  0  0  0  0  0  0
  186.0700  177.0540  145.3830 C   0  0  0  0  0  0  0  0  0  0  0  0
  191.6670  177.3530  143.2290 C   0  0  0  0  0  2  0  0  0  0  0  0
  188.5350  176.3350  145.2530 C   0  0  2  0  0  3  0  0  0  0  0  0
  190.8970  174.1230  145.4540 C   0  0  0  0  0  2  0  0  0  0  0  0
  185.8670  176.5870  144.1840 N   0  0  0  0  0  0  0  0  0  0  0  0
  192.3450  176.7880  145.3000 C   0  0  0  0  0  2  0  0  0  0  0  0
  192.5960  177.6660  144.2340 O   0  0  0  0  0  0  0  0  0  0  0  0
  189.9190  174.6720  146.4790 C   0  0  0  0  0  2  0  0  0  0  0  0
  188.4560  172.7630  140.8630 C   0  0  0  0  0  2  0  0  0  0  0  0
  188.7650  174.9870  141.6220 C   0  0  2  0  0  3  0  0  0  0  0  0
  188.0760  173.6890  141.9770 C   0  0  0  0  0  2  0  0  0  0  0  0
  189.3340  173.6070  139.9710 C   0  0  0  0  0  2  0  0  0  0  0  0
  189.7940  174.7050  140.7120 O   0  0  0  0  0  0  0  0  0  0  0  0
  2  6  1  6  0  0  0
  2 17  1  0  0  0  0
  3 22  1  0  0  0  0
  4 14  1  0  0  0  0
  6 19  2  0  0  0  0
  7 10  1  0  0  0  0
  8 24  1  6  0  0  0
  8  2  1  0  0  0  0
 10  5  2  0  0  0  0
 11 20  1  0  0  0  0
 11  9  1  0  0  0  0
 12  7  2  0  0  0  0
 13  8  1  0  0  0  0
 13  1  1  1  0  0  0
 13  2  1  0  0  0  0
 14  5  1  0  0  0  0
 15 12  1  0  0  0  0
 15  4  2  0  0  0  0
 16  1  1  0  0  0  0
 16 21  1  0  0  0  0
 17  3  1  1  0  0  0
 17 12  1  0  0  0  0
 18  9  1  0  0  0  0
 18 22  1  0  0  0  0
 19 15  1  0  0  0  0
 21 20  1  0  0  0  0
 23 25  1  0  0  0  0
 24 25  1  1  0  0  0
 26 27  1  0  0  0  0
 26 23  1  0  0  0  0
 27 24  1  0  0  0  0
M  END
>  <MODEL>
1

>  <REMARK>
 VINA RESULT:      -7.0      0.000      0.000
  Name = 
  1 active torsions:
  status: ('A' for Active; 'I' for Inactive)
    1  A    between atoms: C_9  and  C_11
                            x       y       z     vdW  Elec       q    Type
                         _______ _______ _______ _____ _____    ______ ____

>  <TORSDO>
F 1

$$$$
=
 OpenBabel11052418233D

 27 31  0  0  1  0  0  0  0  0999 V2000
  189.8670  177.1520  143.1890 C   0  0  0  0  0  2  0  0  0  0  0  0
  191.5510  175.2760  142.9030 C   0  0  1  0  0  0  0  0  0  0  0  0
  190.6320  173.2150  144.0250 C   0  0  0  0  0  2  0  0  0  0  0  0
  191.1230  172.3910  139.7120 C   0  0  0  0  0  3  0  0  0  0  0  0
  188.7090  172.4060  139.2010 C   0  0  0  0  0  3  0  0  0  0  0  0
  192.6170  174.8540  142.0050 N   0  0  0  0  0  2  0  0  0  0  0  0
  188.8030  173.6010  141.3710 N   0  0  0  0  0  0  0  0  0  0  0  0
  191.9560  176.0520  144.1450 C   0  0  2  0  0  3  0  0  0  0  0  0
  188.9070  174.6860  147.0710 C   0  0  0  0  0  2  0  0  0  0  0  0
  188.1630  173.1090  140.1910 C   0  0  0  0  0  3  0  0  0  0  0  0
  188.6400  176.1610  146.8110 C   0  0  0  0  0  2  0  0  0  0  0  0
  190.0570  173.7380  141.6730 C   0  0  0  0  0  0  0  0  0  0  0  0
  191.3350  176.7880  142.9460 C   0  0  2  0  0  3  0  0  0  0  0  0
  190.0680  171.9860  139.0800 N   0  0  0  0  0  0  0  0  0  0  0  0
  191.1880  173.4040  140.7650 C   0  0  0  0  0  0  0  0  0  0  0  0
  189.6550  177.8020  144.5550 C   0  0  0  0  0  2  0  0  0  0  0  0
  190.3600  174.3260  143.0180 C   0  0  2  0  0  3  0  0  0  0  0  0
  190.0910  174.2070  146.2470 C   0  0  0  0  0  2  0  0  0  0  0  0
  192.3620  173.9250  140.9790 N   0  0  0  0  0  0  0  0  0  0  0  0
  188.1350  176.3650  145.3880 C   0  0  0  0  0  2  0  0  0  0  0  0
  188.3170  177.6920  144.9680 O   0  0  0  0  0  0  0  0  0  0  0  0
  189.6090  173.2790  145.1460 C   0  0  0  0  0  2  0  0  0  0  0  0
  195.2030  175.7520  145.6900 C   0  0  0  0  0  2  0  0  0  0  0  0
  193.4470  176.3490  144.2150 C   0  0  2  0  0  3  0  0  0  0  0  0
  194.1800  175.1520  144.7760 C   0  0  0  0  0  2  0  0  0  0  0  0
  194.9650  177.2380  145.5790 C   0  0  0  0  0  2  0  0  0  0  0  0
  193.6780  177.4430  145.0620 O   0  0  0  0  0  0  0  0  0  0  0  0
  1 16  1  0  0  0  0
  2  6  1  6  0  0  0
  2 13  1  0  0  0  0
  2 17  1  0  0  0  0
  2  8  1  0  0  0  0
  3 22  1  0  0  0  0
  4 15  1  0  0  0  0
  5 10  2  0  0  0  0
  7 12  2  0  0  0  0
  8 24  1  6  0  0  0
 10  7  1  0  0  0  0
 11  9  1  0  0  0  0
 12 17  1  0  0  0  0
 13  1  1  1  0  0  0
 13  8  1  0  0  0  0
 14  5  1  0  0  0  0
 14  4  2  0  0  0  0
 15 19  2  0  0  0  0
 15 12  1  0  0  0  0
 16 21  1  0  0  0  0
 17  3  1  1  0  0  0
 18  9  1  0  0  0  0
 19  6  1  0  0  0  0
 20 11  1  0  0  0  0
 21 20  1  0  0  0  0
 22 18  1  0  0  0  0
 24 25  1  1  0  0  0
 24 27  1  0  0  0  0
 25 23  1  0  0  0  0
 26 23  1  0  0  0  0
 27 26  1  0  0  0  0
M  END
>  <MODEL>
2

>  <REMARK>
 VINA RESULT:      -7.0      3.134      6.388
  Name = 
  1 active torsions:
  status: ('A' for Active; 'I' for Inactive)
    1  A    between atoms: C_9  and  C_11
                            x       y       z     vdW  Elec       q    Type
                         _______ _______ _______ _____ _____    ______ ____

>  <TORSDO>
F 1

$$$$
=
 OpenBabel11052418233D

 27 31  0  0  1  0  0  0  0  0999 V2000
  189.4750  173.6010  145.8740 C   0  0  0  0  0  2  0  0  0  0  0  0
  189.9740  176.0790  146.0880 C   0  0  1  0  0  0  0  0  0  0  0  0
  189.1270  177.2350  144.0140 C   0  0  0  0  0  2  0  0  0  0  0  0
  186.9560  178.8250  147.5180 C   0  0  0  0  0  3  0  0  0  0  0  0
  184.8210  177.7070  146.9880 C   0  0  0  0  0  3  0  0  0  0  0  0
  190.1810  177.0970  147.1090 N   0  0  0  0  0  0  0  0  0  0  0  0
  186.4510  176.4030  145.6520 N   0  0  0  0  0  0  0  0  0  0  0  0
  191.2110  175.4250  145.4970 C   0  0  2  0  0  3  0  0  0  0  0  0
  189.9040  174.6740  141.3200 C   0  0  0  0  0  2  0  0  0  0  0  0
  185.1630  176.6890  146.2030 C   0  0  0  0  0  3  0  0  0  0  0  0
  190.0770  173.3140  141.9790 C   0  0  0  0  0  2  0  0  0  0  0  0
  187.6300  176.8540  145.9500 C   0  0  0  0  0  0  0  0  0  0  0  0
  190.3590  174.6670  146.5280 C   0  0  2  0  0  3  0  0  0  0  0  0
  185.6640  178.7510  147.4760 N   0  0  0  0  0  2  0  0  0  0  0  0
  187.9150  177.8290  147.0380 C   0  0  0  0  0  0  0  0  0  0  0  0
  190.2550  172.7360  144.8860 C   0  0  0  0  0  2  0  0  0  0  0  0
  188.7780  176.2970  145.1620 C   0  0  2  0  0  3  0  0  0  0  0  0
  190.2220  175.7870  142.3050 C   0  0  0  0  0  2  0  0  0  0  0  0
  189.1200  177.9230  147.5210 N   0  0  0  0  0  0  0  0  0  0  0  0
  189.0100  173.1040  143.0460 C   0  0  0  0  0  2  0  0  0  0  0  0
  189.3950  172.1150  143.9650 O   0  0  0  0  0  0  0  0  0  0  0  0
  188.9450  176.5130  142.6900 C   0  0  0  0  0  2  0  0  0  0  0  0
  194.6090  176.6300  145.3340 C   0  0  0  0  0  2  0  0  0  0  0  0
  192.5100  175.8880  146.1440 C   0  0  2  0  0  3  0  0  0  0  0  0
  193.1490  176.9610  145.2920 C   0  0  0  0  0  2  0  0  0  0  0  0
  194.6790  175.3950  146.2000 C   0  0  0  0  0  2  0  0  0  0  0  0
  193.4040  174.8140  146.2440 O   0  0  0  0  0  0  0  0  0  0  0  0
  2 13  1  0  0  0  0
  2  6  1  1  0  0  0
  5 14  1  0  0  0  0
  6 19  2  0  0  0  0
  7 12  2  0  0  0  0
  7 10  1  0  0  0  0
  8  2  1  0  0  0  0
  8 24  1  1  0  0  0
  8 13  1  0  0  0  0
  9 11  1  0  0  0  0
  9 18  1  0  0  0  0
 10  5  2  0  0  0  0
 11 20  1  0  0  0  0
 12 15  1  0  0  0  0
 13  1  1  6  0  0  0
 14  4  1  0  0  0  0
 15  4  2  0  0  0  0
 15 19  1  0  0  0  0
 16  1  1  0  0  0  0
 17  3  1  6  0  0  0
 17 12  1  0  0  0  0
 17  2  1  0  0  0  0
 18 22  1  0  0  0  0
 20 21  1  0  0  0  0
 21 16  1  0  0  0  0
 22  3  1  0  0  0  0
 23 26  1  0  0  0  0
 24 25  1  6  0  0  0
 24 27  1  0  0  0  0
 25 23  1  0  0  0  0
 26 27  1  0  0  0  0
M  END
>  <MODEL>
3

>  <REMARK>
 VINA RESULT:      -6.9      1.682      4.740
  Name = 
  1 active torsions:
  status: ('A' for Active; 'I' for Inactive)
    1  A    between atoms: C_9  and  C_11
                            x       y       z     vdW  Elec       q    Type
                         _______ _______ _______ _____ _____    ______ ____

>  <TORSDO>
F 1

$$$$
=
 OpenBabel11052418233D

 27 31  0  0  1  0  0  0  0  0999 V2000
  189.5870  176.8630  142.2320 C   0  0  0  0  0  2  0  0  0  0  0  0
  190.8080  176.3640  144.3990 C   0  0  1  0  0  0  0  0  0  0  0  0
  191.5780  173.9650  144.3350 C   0  0  0  0  0  2  0  0  0  0  0  0
  195.1210  176.5910  144.6060 C   0  0  0  0  0  3  0  0  0  0  0  0
  195.8590  176.2170  142.2820 C   0  0  0  0  0  3  0  0  0  0  0  0
  191.5630  177.0440  145.4420 N   0  0  0  0  0  2  0  0  0  0  0  0
  193.4860  175.5060  142.2080 N   0  0  0  0  0  0  0  0  0  0  0  0
  189.3300  176.1250  144.6560 C   0  0  2  0  0  3  0  0  0  0  0  0
  188.6850  172.2630  142.5580 C   0  0  0  0  0  2  0  0  0  0  0  0
  194.7630  175.8150  141.6440 C   0  0  0  0  0  3  0  0  0  0  0  0
  187.8980  173.3180  141.7940 C   0  0  0  0  0  2  0  0  0  0  0  0
  192.9770  175.7680  143.3720 C   0  0  0  0  0  0  0  0  0  0  0  0
  189.7730  177.2470  143.7030 C   0  0  2  0  0  3  0  0  0  0  0  0
  196.0160  176.4460  143.6820 N   0  0  0  0  0  0  0  0  0  0  0  0
  193.6670  176.5320  144.4460 C   0  0  0  0  0  0  0  0  0  0  0  0
  188.2060  176.2650  141.9650 C   0  0  0  0  0  2  0  0  0  0  0  0
  191.5710  175.3040  143.6070 C   0  0  2  0  0  3  0  0  0  0  0  0
  189.4080  172.8920  143.7390 C   0  0  0  0  0  2  0  0  0  0  0  0
  192.9690  177.0810  145.3990 N   0  0  0  0  0  0  0  0  0  0  0  0
  188.8480  174.2870  141.1010 C   0  0  0  0  0  2  0  0  0  0  0  0
  188.2040  175.4960  140.7900 O   0  0  0  0  0  0  0  0  0  0  0  0
  190.9040  172.9110  143.4740 C   0  0  0  0  0  2  0  0  0  0  0  0
  187.0880  176.2190  147.4820 C   0  0  0  0  0  2  0  0  0  0  0  0
  188.8360  176.7250  145.9650 C   0  0  2  0  0  3  0  0  0  0  0  0
  188.3180  175.6280  146.8660 C   0  0  0  0  0  2  0  0  0  0  0  0
  187.0050  177.6000  146.8780 C   0  0  0  0  0  2  0  0  0  0  0  0
  187.7880  177.6220  145.7150 O   0  0  0  0  0  0  0  0  0  0  0  0
  2  8  1  0  0  0  0
  2  6  1  1  0  0  0
  5 14  1  0  0  0  0
  7 12  2  0  0  0  0
  8 24  1  1  0  0  0
  9 18  1  0  0  0  0
 10  7  1  0  0  0  0
 10  5  2  0  0  0  0
 11  9  1  0  0  0  0
 12 17  1  0  0  0  0
 12 15  1  0  0  0  0
 13  1  1  6  0  0  0
 13  2  1  0  0  0  0
 13  8  1  0  0  0  0
 14  4  2  0  0  0  0
 15  4  1  0  0  0  0
 15 19  2  0  0  0  0
 16  1  1  0  0  0  0
 17  3  1  1  0  0  0
 17  2  1  0  0  0  0
 19  6  1  0  0  0  0
 20 11  1  0  0  0  0
 21 20  1  0  0  0  0
 21 16  1  0  0  0  0
 22 18  1  0  0  0  0
 22  3  1  0  0  0  0
 24 25  1  1  0  0  0
 25 23  1  0  0  0  0
 26 23  1  0  0  0  0
 27 24  1  0  0  0  0
 27 26  1  0  0  0  0
M  END
>  <MODEL>
4

>  <REMARK>
 VINA RESULT:      -6.9      3.200      6.559
  Name = 
  1 active torsions:
  status: ('A' for Active; 'I' for Inactive)
    1  A    between atoms: C_9  and  C_11
                            x       y       z     vdW  Elec       q    Type
                         _______ _______ _______ _____ _____    ______ ____

>  <TORSDO>
F 1

$$$$
=
 OpenBabel11052418233D

 27 31  0  0  1  0  0  0  0  0999 V2000
  190.5520  177.2830  143.3880 C   0  0  0  0  0  2  0  0  0  0  0  0
  188.4800  175.8240  143.2710 C   0  0  1  0  0  0  0  0  0  0  0  0
  187.5930  175.5270  145.6120 C   0  0  0  0  0  2  0  0  0  0  0  0
  184.5360  177.5930  143.1810 C   0  0  0  0  0  3  0  0  0  0  0  0
  184.8330  179.7910  144.2630 C   0  0  0  0  0  3  0  0  0  0  0  0
  187.4170  175.4590  142.3450 N   0  0  0  0  0  0  0  0  0  0  0  0
  186.9320  178.6150  144.8590 N   0  0  0  0  0  0  0  0  0  0  0  0
  189.6760  174.8920  143.3590 C   0  0  2  0  0  3  0  0  0  0  0  0
  190.7960  175.2940  147.6380 C   0  0  0  0  0  2  0  0  0  0  0  0
  186.0540  179.7410  144.7890 C   0  0  0  0  0  3  0  0  0  0  0  0
  191.9290  175.9050  146.8260 C   0  0  0  0  0  2  0  0  0  0  0  0
  186.9150  177.4750  144.2400 C   0  0  0  0  0  0  0  0  0  0  0  0
  189.7900  176.2200  142.5920 C   0  0  2  0  0  3  0  0  0  0  0  0
  184.1140  178.7300  143.6340 N   0  0  0  0  0  2  0  0  0  0  0  0
  185.9050  177.0790  143.2220 C   0  0  0  0  0  0  0  0  0  0  0  0
  191.8520  176.7380  143.9770 C   0  0  0  0  0  2  0  0  0  0  0  0
  188.0350  176.5290  144.5520 C   0  0  2  0  0  3  0  0  0  0  0  0
  189.6990  174.7820  146.7180 C   0  0  0  0  0  2  0  0  0  0  0  0
  186.1760  176.1180  142.3840 N   0  0  0  0  0  0  0  0  0  0  0  0
  191.4620  177.1880  146.1490 C   0  0  0  0  0  2  0  0  0  0  0  0
  192.2850  177.5190  145.0610 O   0  0  0  0  0  0  0  0  0  0  0  0
  188.4700  175.6660  146.8440 C   0  0  0  0  0  2  0  0  0  0  0  0
  190.0670  171.4090  142.4970 C   0  0  0  0  0  2  0  0  0  0  0  0
  189.6150  173.7320  142.3740 C   0  0  2  0  0  3  0  0  0  0  0  0
  189.1980  172.4720  143.0970 C   0  0  0  0  0  2  0  0  0  0  0  0
  190.9090  172.1530  141.4890 C   0  0  0  0  0  2  0  0  0  0  0  0
  190.8790  173.5180  141.8080 O   0  0  0  0  0  0  0  0  0  0  0  0
  1 16  1  0  0  0  0
  2  6  1  6  0  0  0
  2  8  1  0  0  0  0
  2 17  1  0  0  0  0
  3 22  1  0  0  0  0
  4 15  2  0  0  0  0
  4 14  1  0  0  0  0
  5 10  2  0  0  0  0
  6 19  2  0  0  0  0
  8 24  1  6  0  0  0
 10  7  1  0  0  0  0
 11  9  1  0  0  0  0
 12 17  1  0  0  0  0
 12  7  2  0  0  0  0
 13  2  1  0  0  0  0
 13  8  1  0  0  0  0
 13  1  1  1  0  0  0
 14  5  1  0  0  0  0
 15 12  1  0  0  0  0
 16 21  1  0  0  0  0
 17  3  1  1  0  0  0
 18 22  1  0  0  0  0
 18  9  1  0  0  0  0
 19 15  1  0  0  0  0
 20 11  1  0  0  0  0
 21 20  1  0  0  0  0
 23 25  1  0  0  0  0
 24 25  1  1  0  0  0
 26 27  1  0  0  0  0
 26 23  1  0  0  0  0
 27 24  1  0  0  0  0
M  END
>  <MODEL>
5

>  <REMARK>
 VINA RESULT:      -6.5      1.863      2.085
  Name = 
  1 active torsions:
  status: ('A' for Active; 'I' for Inactive)
    1  A    between atoms: C_9  and  C_11
                            x       y       z     vdW  Elec       q    Type
                         _______ _______ _______ _____ _____    ______ ____

>  <TORSDO>
F 1

$$$$
=
 OpenBabel11052418233D

 27 31  0  0  1  0  0  0  0  0999 V2000
  191.1110  173.7800  145.2030 C   0  0  0  0  0  2  0  0  0  0  0  0
  191.5640  174.6110  142.8490 C   0  0  1  0  0  0  0  0  0  0  0  0
  191.2980  177.1180  142.8340 C   0  0  0  0  0  2  0  0  0  0  0  0
  195.4650  176.1220  141.7540 C   0  0  0  0  0  3  0  0  0  0  0  0
  196.4410  176.8830  143.8880 C   0  0  0  0  0  3  0  0  0  0  0  0
  192.3030  174.2370  141.6520 N   0  0  0  0  0  0  0  0  0  0  0  0
  194.0500  176.5860  144.4710 N   0  0  0  0  0  0  0  0  0  0  0  0
  190.0970  174.2250  142.9100 C   0  0  2  0  0  3  0  0  0  0  0  0
  188.3870  177.6090  145.2230 C   0  0  0  0  0  2  0  0  0  0  0  0
  195.4280  176.8450  144.7500 C   0  0  0  0  0  3  0  0  0  0  0  0
  188.2630  176.3700  146.0970 C   0  0  0  0  0  2  0  0  0  0  0  0
  193.4670  176.0800  143.4290 C   0  0  0  0  0  0  0  0  0  0  0  0
  191.1360  173.4260  143.7140 C   0  0  2  0  0  3  0  0  0  0  0  0
  196.3910  176.6620  142.4780 N   0  0  0  0  0  2  0  0  0  0  0  0
  194.1750  175.6020  142.2100 C   0  0  0  0  0  0  0  0  0  0  0  0
  189.6910  173.7880  145.7680 C   0  0  0  0  0  2  0  0  0  0  0  0
  191.9770  175.9290  143.5030 C   0  0  2  0  0  3  0  0  0  0  0  0
  189.0480  177.2610  143.8990 C   0  0  0  0  0  2  0  0  0  0  0  0
  193.5810  174.7700  141.4040 N   0  0  0  0  0  0  0  0  0  0  0  0
  189.6410  175.9000  146.5470 C   0  0  0  0  0  2  0  0  0  0  0  0
  189.6160  174.5530  146.9430 O   0  0  0  0  0  0  0  0  0  0  0  0
  190.4440  177.8570  143.8500 C   0  0  0  0  0  2  0  0  0  0  0  0
  188.2080  173.8120  139.8630 C   0  0  0  0  0  2  0  0  0  0  0  0
  189.6340  173.4080  141.7110 C   0  0  2  0  0  3  0  0  0  0  0  0
  189.4590  174.3140  140.5140 C   0  0  0  0  0  2  0  0  0  0  0  0
  187.7710  172.6670  140.7450 C   0  0  0  0  0  2  0  0  0  0  0  0
  188.4010  172.8040  141.9900 O   0  0  0  0  0  0  0  0  0  0  0  0
  1 16  1  0  0  0  0
  2  6  1  6  0  0  0
  2  8  1  0  0  0  0
  2 17  1  0  0  0  0
  2 13  1  0  0  0  0
  3 22  1  0  0  0  0
  4 15  2  0  0  0  0
  4 14  1  0  0  0  0
  5 10  2  0  0  0  0
  7 10  1  0  0  0  0
  8 24  1  6  0  0  0
  8 13  1  0  0  0  0
  9 11  1  0  0  0  0
 11 20  1  0  0  0  0
 12 17  1  0  0  0  0
 12  7  2  0  0  0  0
 13  1  1  1  0  0  0
 14  5  1  0  0  0  0
 15 12  1  0  0  0  0
 16 21  1  0  0  0  0
 17  3  1  6  0  0  0
 18  9  1  0  0  0  0
 19  6  2  0  0  0  0
 19 15  1  0  0  0  0
 20 21  1  0  0  0  0
 22 18  1  0  0  0  0
 23 25  1  0  0  0  0
 23 26  1  0  0  0  0
 24 25  1  6  0  0  0
 24 27  1  0  0  0  0
 26 27  1  0  0  0  0
M  END
>  <MODEL>
6

>  <REMARK>
 VINA RESULT:      -6.2      3.531      6.201
  Name = 
  1 active torsions:
  status: ('A' for Active; 'I' for Inactive)
    1  A    between atoms: C_9  and  C_11
                            x       y       z     vdW  Elec       q    Type
                         _______ _______ _______ _____ _____    ______ ____

>  <TORSDO>
F 1

$$$$
=
 OpenBabel11052418233D

 27 31  0  0  1  0  0  0  0  0999 V2000
  190.1630  174.0570  146.2440 C   0  0  0  0  0  2  0  0  0  0  0  0
  189.9980  174.0410  143.7120 C   0  0  1  0  0  0  0  0  0  0  0  0
  192.3100  174.3860  142.7700 C   0  0  0  0  0  2  0  0  0  0  0  0
  190.8160  170.4360  141.4690 C   0  0  0  0  0  3  0  0  0  0  0  0
  192.3080  169.1340  142.9400 C   0  0  0  0  0  3  0  0  0  0  0  0
  189.1610  173.5070  142.6470 N   0  0  0  0  0  2  0  0  0  0  0  0
  192.3510  171.3780  143.9910 N   0  0  0  0  0  0  0  0  0  0  0  0
  189.7210  175.4630  144.1670 C   0  0  2  0  0  3  0  0  0  0  0  0
  193.7990  176.8580  145.2380 C   0  0  0  0  0  2  0  0  0  0  0  0
  192.6460  169.9820  143.9080 C   0  0  0  0  0  3  0  0  0  0  0  0
  193.0010  176.7910  146.5320 C   0  0  0  0  0  2  0  0  0  0  0  0
  191.5030  172.1150  143.3420 C   0  0  0  0  0  0  0  0  0  0  0  0
  189.2580  174.2770  145.0280 C   0  0  2  0  0  3  0  0  0  0  0  0
  191.5600  169.4170  141.7580 N   0  0  0  0  0  0  0  0  0  0  0  0
  190.5630  171.6110  142.3040 C   0  0  0  0  0  0  0  0  0  0  0  0
  190.4420  175.3590  146.9940 C   0  0  0  0  0  2  0  0  0  0  0  0
  191.4490  173.5640  143.7220 C   0  0  2  0  0  3  0  0  0  0  0  0
  192.9400  176.4230  144.0610 C   0  0  0  0  0  2  0  0  0  0  0  0
  189.5060  172.3080  141.9980 N   0  0  0  0  0  0  0  0  0  0  0  0
  192.6910  175.3420  146.8880 C   0  0  0  0  0  2  0  0  0  0  0  0
  191.6060  175.2560  147.7740 O   0  0  0  0  0  0  0  0  0  0  0  0
  193.4170  175.0760  143.5480 C   0  0  0  0  0  2  0  0  0  0  0  0
  188.1220  178.1580  142.3760 C   0  0  0  0  0  2  0  0  0  0  0  0
  188.5210  176.0980  143.4770 C   0  0  2  0  0  3  0  0  0  0  0  0
  188.9890  176.9380  142.3110 C   0  0  0  0  0  2  0  0  0  0  0  0
  187.2380  177.9140  143.5750 C   0  0  0  0  0  2  0  0  0  0  0  0
  187.8380  176.9310  144.3750 O   0  0  0  0  0  0  0  0  0  0  0  0
  1 16  1  0  0  0  0
  2  6  1  6  0  0  0
  2 17  1  0  0  0  0
  2  8  1  0  0  0  0
  2 13  1  0  0  0  0
  3 22  1  0  0  0  0
  4 14  2  0  0  0  0
  4 15  1  0  0  0  0
  5 10  2  0  0  0  0
  8 24  1  6  0  0  0
  8 13  1  0  0  0  0
  9 11  1  0  0  0  0
 10  7  1  0  0  0  0
 11 20  1  0  0  0  0
 12 17  1  0  0  0  0
 12  7  2  0  0  0  0
 13  1  1  1  0  0  0
 14  5  1  0  0  0  0
 15 12  1  0  0  0  0
 16 21  1  0  0  0  0
 17  3  1  6  0  0  0
 18  9  1  0  0  0  0
 19 15  2  0  0  0  0
 19  6  1  0  0  0  0
 20 21  1  0  0  0  0
 22 18  1  0  0  0  0
 23 26  1  0  0  0  0
 24 25  1  6  0  0  0
 24 27  1  0  0  0  0
 25 23  1  0  0  0  0
 26 27  1  0  0  0  0
M  END
>  <MODEL>
7

>  <REMARK>
 VINA RESULT:      -6.2      3.446      6.240
  Name = 
  1 active torsions:
  status: ('A' for Active; 'I' for Inactive)
    1  A    between atoms: C_9  and  C_11
                            x       y       z     vdW  Elec       q    Type
                         _______ _______ _______ _____ _____    ______ ____

>  <TORSDO>
F 1

$$$$
=
 OpenBabel11052418233D

 27 31  0  0  1  0  0  0  0  0999 V2000
  192.5950  174.4030  141.7190 C   0  0  0  0  0  2  0  0  0  0  0  0
  192.0950  173.9640  144.1670 C   0  0  1  0  0  0  0  0  0  0  0  0
  192.9780  175.9060  145.5110 C   0  0  0  0  0  2  0  0  0  0  0  0
  188.5980  175.6750  146.0480 C   0  0  0  0  0  3  0  0  0  0  0  0
  188.0970  177.6740  144.6920 C   0  0  0  0  0  3  0  0  0  0  0  0
  191.1530  173.2370  145.0060 N   0  0  0  0  0  0  0  0  0  0  0  0
  190.3880  177.0860  143.9500 N   0  0  0  0  0  0  0  0  0  0  0  0
  193.4160  173.2830  143.8530 C   0  0  2  0  0  3  0  0  0  0  0  0
  196.1750  176.7580  143.6470 C   0  0  0  0  0  2  0  0  0  0  0  0
  189.1610  177.8180  143.9060 C   0  0  0  0  0  3  0  0  0  0  0  0
  196.0840  176.1820  142.2420 C   0  0  0  0  0  2  0  0  0  0  0  0
  190.7010  175.9730  144.5370 C   0  0  0  0  0  0  0  0  0  0  0  0
  192.3100  173.3440  142.7870 C   0  0  2  0  0  3  0  0  0  0  0  0
  187.9270  176.7440  145.7610 N   0  0  0  0  0  2  0  0  0  0  0  0
  189.7600  175.1420  145.3360 C   0  0  0  0  0  0  0  0  0  0  0  0
  194.0270  174.3170  141.1920 C   0  0  0  0  0  2  0  0  0  0  0  0
  192.1040  175.4830  144.3360 C   0  0  2  0  0  3  0  0  0  0  0  0
  195.2990  175.9640  144.6040 C   0  0  0  0  0  2  0  0  0  0  0  0
  190.0300  173.8860  145.5480 N   0  0  0  0  0  0  0  0  0  0  0  0
  194.6950  176.4160  141.6630 C   0  0  0  0  0  2  0  0  0  0  0  0
  194.4270  175.5300  140.6070 O   0  0  0  0  0  0  0  0  0  0  0  0
  194.1010  176.8010  145.0170 C   0  0  0  0  0  2  0  0  0  0  0  0
  195.0940  170.7070  145.7430 C   0  0  0  0  0  2  0  0  0  0  0  0
  193.5170  171.8700  144.4100 C   0  0  2  0  0  3  0  0  0  0  0  0
  194.1920  171.9020  145.7630 C   0  0  0  0  0  2  0  0  0  0  0  0
  194.8630  170.0980  144.3810 C   0  0  0  0  0  2  0  0  0  0  0  0
  194.2870  171.0710  143.5530 O   0  0  0  0  0  0  0  0  0  0  0  0
  2 17  1  0  0  0  0
  2  6  1  1  0  0  0
  5 14  1  0  0  0  0
  6 19  2  0  0  0  0
  7 12  2  0  0  0  0
  8  2  1  0  0  0  0
  8 24  1  1  0  0  0
  9 18  1  0  0  0  0
 10  7  1  0  0  0  0
 10  5  2  0  0  0  0
 11  9  1  0  0  0  0
 12 15  1  0  0  0  0
 13  1  1  6  0  0  0
 13  8  1  0  0  0  0
 13  2  1  0  0  0  0
 14  4  1  0  0  0  0
 15 19  1  0  0  0  0
 15  4  2  0  0  0  0
 16  1  1  0  0  0  0
 17 12  1  0  0  0  0
 17  3  1  1  0  0  0
 18 22  1  0  0  0  0
 20 11  1  0  0  0  0
 21 16  1  0  0  0  0
 21 20  1  0  0  0  0
 22  3  1  0  0  0  0
 23 25  1  0  0  0  0
 24 25  1  1  0  0  0
 26 23  1  0  0  0  0
 27 26  1  0  0  0  0
 27 24  1  0  0  0  0
M  END
>  <MODEL>
8

>  <REMARK>
 VINA RESULT:      -6.2      3.383      5.146
  Name = 
  1 active torsions:
  status: ('A' for Active; 'I' for Inactive)
    1  A    between atoms: C_9  and  C_11
                            x       y       z     vdW  Elec       q    Type
                         _______ _______ _______ _____ _____    ______ ____

>  <TORSDO>
F 1

$$$$
=
 OpenBabel11052418233D

 27 31  0  0  1  0  0  0  0  0999 V2000
  189.7350  173.9370  144.1730 C   0  0  0  0  0  2  0  0  0  0  0  0
  189.2560  176.2800  145.0190 C   0  0  1  0  0  0  0  0  0  0  0  0
  190.4950  177.9150  143.5540 C   0  0  0  0  0  2  0  0  0  0  0  0
  186.1590  178.6920  143.2060 C   0  0  0  0  0  3  0  0  0  0  0  0
  185.9490  177.7900  140.9190 C   0  0  0  0  0  3  0  0  0  0  0  0
  188.2360  177.0220  145.7470 N   0  0  0  0  0  2  0  0  0  0  0  0
  188.0840  176.7940  141.6920 N   0  0  0  0  0  0  0  0  0  0  0  0
  190.4330  175.7510  145.8190 C   0  0  2  0  0  3  0  0  0  0  0  0
  193.7210  176.0420  142.8470 C   0  0  0  0  0  2  0  0  0  0  0  0
  186.9940  176.9770  140.7850 C   0  0  0  0  0  3  0  0  0  0  0  0
  193.4870  174.5600  143.1030 C   0  0  0  0  0  2  0  0  0  0  0  0
  188.2280  177.1290  142.9370 C   0  0  0  0  0  0  0  0  0  0  0  0
  189.3160  174.7950  145.3710 C   0  0  2  0  0  3  0  0  0  0  0  0
  185.6650  178.6660  142.0100 N   0  0  0  0  0  0  0  0  0  0  0  0
  187.1900  177.8120  143.7560 C   0  0  0  0  0  0  0  0  0  0  0  0
  191.1130  173.3080  144.3720 C   0  0  0  0  0  2  0  0  0  0  0  0
  189.5220  176.7420  143.5870 C   0  0  2  0  0  3  0  0  0  0  0  0
  192.7600  176.8820  143.6730 C   0  0  0  0  0  2  0  0  0  0  0  0
  187.2550  177.7570  145.0560 N   0  0  0  0  0  0  0  0  0  0  0  0
  192.1360  174.1340  142.5430 C   0  0  0  0  0  2  0  0  0  0  0  0
  191.6880  172.9460  143.1430 O   0  0  0  0  0  0  0  0  0  0  0  0
  191.7330  177.5310  142.7620 C   0  0  0  0  0  2  0  0  0  0  0  0
  191.3360  177.5220  148.8310 C   0  0  0  0  0  2  0  0  0  0  0  0
  190.3180  176.0130  147.3140 C   0  0  2  0  0  3  0  0  0  0  0  0
  190.4990  177.4880  147.5890 C   0  0  0  0  0  2  0  0  0  0  0  0
  191.5660  176.0670  149.1560 C   0  0  0  0  0  2  0  0  0  0  0  0
  191.3180  175.3100  148.0020 O   0  0  0  0  0  0  0  0  0  0  0  0
  1 16  1  0  0  0  0
  2 13  1  0  0  0  0
  2  6  1  1  0  0  0
  2  8  1  0  0  0  0
  4 15  1  0  0  0  0
  5 14  1  0  0  0  0
  7 12  2  0  0  0  0
  8 24  1  1  0  0  0
  9 11  1  0  0  0  0
  9 18  1  0  0  0  0
 10  5  2  0  0  0  0
 10  7  1  0  0  0  0
 12 17  1  0  0  0  0
 12 15  1  0  0  0  0
 13  1  1  6  0  0  0
 13  8  1  0  0  0  0
 14  4  2  0  0  0  0
 15 19  2  0  0  0  0
 17  3  1  1  0  0  0
 17  2  1  0  0  0  0
 19  6  1  0  0  0  0
 20 11  1  0  0  0  0
 20 21  1  0  0  0  0
 21 16  1  0  0  0  0
 22  3  1  0  0  0  0
 22 18  1  0  0  0  0
 23 26  1  0  0  0  0
 24 25  1  6  0  0  0
 24 27  1  0  0  0  0
 25 23  1  0  0  0  0
 27 26  1  0  0  0  0
M  END
>  <MODEL>
9

>  <REMARK>
 VINA RESULT:      -6.1      2.537      5.119
  Name = 
  1 active torsions:
  status: ('A' for Active; 'I' for Inactive)
    1  A    between atoms: C_9  and  C_11
                            x       y       z     vdW  Elec       q    Type
                         _______ _______ _______ _____ _____    ______ ____

>  <TORSDO>
F 1

$$$$
