=
 OpenBabel11052418203D

 27 31  0  0  1  0  0  0  0  0999 V2000
  188.9170  176.1670  146.3220 O   0  0  0  0  0  0  0  0  0  0  0  0
  188.8120  176.2760  143.9650 C   0  0  0  0  0  0  0  0  0  0  0  0
  191.2910  175.8290  144.2690 N   0  0  0  0  0  2  0  0  0  0  0  0
  188.6590  173.8460  140.0840 C   0  0  0  0  0  3  0  0  0  0  0  0
  190.9070  172.8560  139.6120 C   0  0  0  0  0  1  0  0  0  0  0  0
  187.8430  175.9330  143.0810 N   0  0  0  0  0  0  0  0  0  0  0  0
  190.6260  174.3180  141.6430 C   0  0  0  0  0  0  0  0  0  0  0  0
  193.9460  176.0020  146.1580 C   0  0  0  0  0  2  0  0  0  0  0  0
  192.0770  174.1670  141.9780 C   0  0  0  0  0  1  0  0  0  0  0  0
  193.0930  174.7760  146.5070 C   0  0  0  0  0  2  0  0  0  0  0  0
  189.8030  175.0410  142.4150 C   0  0  0  0  0  0  0  0  0  0  0  0
  188.5490  176.9910  145.2540 C   0  0  1  0  0  3  0  0  0  0  0  0
  190.0700  173.6760  140.4730 N   0  0  0  0  0  0  0  0  0  0  0  0
  187.8640  174.6550  141.0820 C   0  0  0  0  0  3  0  0  0  0  0  0
  189.8510  176.9150  147.0390 C   0  0  0  0  0  2  0  0  0  0  0  0
  190.0360  175.7450  143.5800 C   0  0  0  0  0  0  0  0  0  0  0  0
  193.2350  176.9540  145.1730 C   0  0  0  0  0  2  0  0  0  0  0  0
  188.4650  175.1940  142.1410 C   0  0  0  0  0  0  0  0  0  0  0  0
  191.7480  175.1710  147.1370 C   0  0  0  0  0  2  0  0  0  0  0  0
  191.2800  176.5480  146.6550 C   0  0  1  0  0  3  0  0  0  0  0  0
  191.7010  176.8690  145.2130 C   0  0  2  0  0  3  0  0  0  0  0  0
  184.4750  178.2910  145.7180 C   0  0  0  0  0  3  0  0  0  0  0  0
  187.1260  177.4460  145.3940 C   0  0  0  0  0  0  0  0  0  0  0  0
  186.2520  176.7210  146.2120 C   0  0  0  0  0  3  0  0  0  0  0  0
  184.9280  177.1410  146.3720 C   0  0  0  0  0  3  0  0  0  0  0  0
  185.3450  179.0220  144.9050 C   0  0  0  0  0  3  0  0  0  0  0  0
  186.6690  178.6020  144.7440 C   0  0  0  0  0  3  0  0  0  0  0  0
  1 15  1  0  0  0  0
  2 12  1  0  0  0  0
  3 21  1  0  0  0  0
  4 13  1  0  0  0  0
  4 14  2  0  0  0  0
  5 13  1  0  0  0  0
  6  2  1  0  0  0  0
  7  9  1  0  0  0  0
  7 11  2  0  0  0  0
  8 10  1  0  0  0  0
 10 19  1  0  0  0  0
 11 16  1  0  0  0  0
 12 23  1  1  0  0  0
 12  1  1  0  0  0  0
 13  7  1  0  0  0  0
 14 18  1  0  0  0  0
 16  2  2  0  0  0  0
 16  3  1  0  0  0  0
 17  8  1  0  0  0  0
 18 11  1  0  0  0  0
 18  6  2  0  0  0  0
 20 15  1  6  0  0  0
 20 19  1  0  0  0  0
 21 17  1  1  0  0  0
 21 20  1  0  0  0  0
 22 25  1  0  0  0  0
 23 24  1  0  0  0  0
 24 25  2  0  0  0  0
 26 22  2  0  0  0  0
 27 26  1  0  0  0  0
 27 23  2  0  0  0  0
M  END
>  <MODEL>
1

>  <REMARK>
 VINA RESULT:      -8.7      0.000      0.000
  Name = 
  1 active torsions:
  status: ('A' for Active; 'I' for Inactive)
    1  A    between atoms: C_9  and  C_15
                            x       y       z     vdW  Elec       q    Type
                         _______ _______ _______ _____ _____    ______ ____

>  <TORSDO>
F 1

$$$$
=
 OpenBabel11052418203D

 27 31  0  0  1  0  0  0  0  0999 V2000
  190.8230  174.7720  142.6560 O   0  0  0  0  0  0  0  0  0  0  0  0
  188.5210  175.2750  142.4900 C   0  0  0  0  0  0  0  0  0  0  0  0
  188.9020  175.7820  144.9470 N   0  0  0  0  0  2  0  0  0  0  0  0
  185.4140  178.6170  142.0890 C   0  0  0  0  0  3  0  0  0  0  0  0
  185.1910  179.8360  144.2610 C   0  0  0  0  0  1  0  0  0  0  0  0
  187.7690  175.7740  141.4790 N   0  0  0  0  0  0  0  0  0  0  0  0
  186.7710  177.8800  144.1220 C   0  0  0  0  0  0  0  0  0  0  0  0
  190.6470  175.2910  147.6600 C   0  0  0  0  0  2  0  0  0  0  0  0
  187.1160  178.0310  145.5710 C   0  0  0  0  0  1  0  0  0  0  0  0
  191.3160  176.3270  146.7480 C   0  0  0  0  0  2  0  0  0  0  0  0
  187.3370  176.9310  143.3650 C   0  0  0  0  0  0  0  0  0  0  0  0
  189.5810  174.2330  142.3060 C   0  0  1  0  0  3  0  0  0  0  0  0
  185.8170  178.7690  143.4980 N   0  0  0  0  0  0  0  0  0  0  0  0
  186.1750  177.5280  141.3700 C   0  0  0  0  0  3  0  0  0  0  0  0
  191.3080  173.9230  143.6520 C   0  0  0  0  0  2  0  0  0  0  0  0
  188.2740  175.9640  143.6710 C   0  0  0  0  0  0  0  0  0  0  0  0
  189.4560  174.5860  146.9770 C   0  0  0  0  0  2  0  0  0  0  0  0
  187.0490  176.7700  142.0300 C   0  0  0  0  0  0  0  0  0  0  0  0
  191.8360  175.6980  145.4460 C   0  0  0  0  0  2  0  0  0  0  0  0
  191.0160  174.4670  145.0450 C   0  0  1  0  0  3  0  0  0  0  0  0
  189.5350  174.5610  145.4430 C   0  0  2  0  0  3  0  0  0  0  0  0
  189.7310  172.5860  138.3350 C   0  0  0  0  0  3  0  0  0  0  0  0
  189.6140  173.6680  140.9160 C   0  0  0  0  0  0  0  0  0  0  0  0
  190.7820  173.7910  140.1550 C   0  0  0  0  0  3  0  0  0  0  0  0
  190.8400  173.2520  138.8660 C   0  0  0  0  0  3  0  0  0  0  0  0
  188.5650  172.4550  139.0940 C   0  0  0  0  0  3  0  0  0  0  0  0
  188.5060  172.9940  140.3820 C   0  0  0  0  0  3  0  0  0  0  0  0
  1 15  1  0  0  0  0
  2 16  2  0  0  0  0
  3 21  1  0  0  0  0
  4 13  1  0  0  0  0
  6 18  2  0  0  0  0
  6  2  1  0  0  0  0
  7  9  1  0  0  0  0
 10  8  1  0  0  0  0
 11 16  1  0  0  0  0
 11  7  2  0  0  0  0
 12 23  1  6  0  0  0
 12  2  1  0  0  0  0
 12  1  1  0  0  0  0
 13  7  1  0  0  0  0
 13  5  1  0  0  0  0
 14 18  1  0  0  0  0
 14  4  2  0  0  0  0
 16  3  1  0  0  0  0
 17  8  1  0  0  0  0
 18 11  1  0  0  0  0
 19 10  1  0  0  0  0
 20 15  1  6  0  0  0
 20 21  1  0  0  0  0
 20 19  1  0  0  0  0
 21 17  1  1  0  0  0
 22 25  2  0  0  0  0
 22 26  1  0  0  0  0
 24 23  2  0  0  0  0
 25 24  1  0  0  0  0
 26 27  2  0  0  0  0
 27 23  1  0  0  0  0
M  END
>  <MODEL>
2

>  <REMARK>
 VINA RESULT:      -7.6      1.937      5.809
  Name = 
  1 active torsions:
  status: ('A' for Active; 'I' for Inactive)
    1  A    between atoms: C_9  and  C_15
                            x       y       z     vdW  Elec       q    Type
                         _______ _______ _______ _____ _____    ______ ____

>  <TORSDO>
F 1

$$$$
=
 OpenBabel11052418203D

 27 31  0  0  1  0  0  0  0  0999 V2000
  186.8770  176.4160  144.4580 O   0  0  0  0  0  0  0  0  0  0  0  0
  188.1290  175.7530  142.5680 C   0  0  0  0  0  0  0  0  0  0  0  0
  189.8300  175.3060  144.3970 N   0  0  0  0  0  2  0  0  0  0  0  0
  189.5930  172.1990  140.0770 C   0  0  0  0  0  3  0  0  0  0  0  0
  191.4140  170.9960  141.3000 C   0  0  0  0  0  1  0  0  0  0  0  0
  187.7680  175.1900  141.3900 N   0  0  0  0  0  0  0  0  0  0  0  0
  190.4050  173.0540  142.3410 C   0  0  0  0  0  0  0  0  0  0  0  0
  190.9370  175.9530  147.3980 C   0  0  0  0  0  2  0  0  0  0  0  0
  191.3400  172.9470  143.5060 C   0  0  0  0  0  1  0  0  0  0  0  0
  189.7740  174.9530  147.4360 C   0  0  0  0  0  2  0  0  0  0  0  0
  189.4900  174.0310  142.2680 C   0  0  0  0  0  0  0  0  0  0  0  0
  187.3720  176.8630  143.2290 C   0  0  1  0  0  3  0  0  0  0  0  0
  190.4620  172.0930  141.2630 N   0  0  0  0  0  0  0  0  0  0  0  0
  188.5950  173.3290  140.1730 C   0  0  0  0  0  3  0  0  0  0  0  0
  187.3990  177.3090  145.3950 C   0  0  0  0  0  2  0  0  0  0  0  0
  189.1940  175.0640  143.1350 C   0  0  0  0  0  0  0  0  0  0  0  0
  191.1430  176.5640  145.9950 C   0  0  0  0  0  2  0  0  0  0  0  0
  188.6120  174.1540  141.2180 C   0  0  0  0  0  0  0  0  0  0  0  0
  188.4450  175.6000  147.0160 C   0  0  0  0  0  2  0  0  0  0  0  0
  188.6640  176.7650  146.0460 C   0  0  1  0  0  3  0  0  0  0  0  0
  189.8780  176.5740  145.1230 C   0  0  2  0  0  3  0  0  0  0  0  0
  184.2190  178.3940  140.7350 C   0  0  0  0  0  3  0  0  0  0  0  0
  186.2670  177.4110  142.3740 C   0  0  0  0  0  0  0  0  0  0  0  0
  186.5280  177.7290  141.0370 C   0  0  0  0  0  3  0  0  0  0  0  0
  185.5070  178.2210  140.2190 C   0  0  0  0  0  3  0  0  0  0  0  0
  183.9510  178.0730  142.0680 C   0  0  0  0  0  3  0  0  0  0  0  0
  184.9720  177.5820  142.8870 C   0  0  0  0  0  3  0  0  0  0  0  0
  1 15  1  0  0  0  0
  2 16  2  0  0  0  0
  2 12  1  0  0  0  0
  3 21  1  0  0  0  0
  4 14  2  0  0  0  0
  4 13  1  0  0  0  0
  6  2  1  0  0  0  0
  7  9  1  0  0  0  0
  8 10  1  0  0  0  0
 11  7  2  0  0  0  0
 11 16  1  0  0  0  0
 12 23  1  6  0  0  0
 12  1  1  0  0  0  0
 13  5  1  0  0  0  0
 13  7  1  0  0  0  0
 14 18  1  0  0  0  0
 16  3  1  0  0  0  0
 17  8  1  0  0  0  0
 18  6  2  0  0  0  0
 18 11  1  0  0  0  0
 19 10  1  0  0  0  0
 20 15  1  6  0  0  0
 20 19  1  0  0  0  0
 21 17  1  1  0  0  0
 21 20  1  0  0  0  0
 22 26  1  0  0  0  0
 23 27  1  0  0  0  0
 24 23  2  0  0  0  0
 25 22  2  0  0  0  0
 25 24  1  0  0  0  0
 26 27  2  0  0  0  0
M  END
>  <MODEL>
3

>  <REMARK>
 VINA RESULT:      -7.6      2.148      2.905
  Name = 
  1 active torsions:
  status: ('A' for Active; 'I' for Inactive)
    1  A    between atoms: C_9  and  C_15
                            x       y       z     vdW  Elec       q    Type
                         _______ _______ _______ _____ _____    ______ ____

>  <TORSDO>
F 1

$$$$
=
 OpenBabel11052418203D

 27 31  0  0  1  0  0  0  0  0999 V2000
  188.0600  176.2830  143.0560 O   0  0  0  0  0  0  0  0  0  0  0  0
  189.3970  175.8240  144.9480 C   0  0  0  0  0  0  0  0  0  0  0  0
  190.2550  174.0360  143.3650 N   0  0  0  0  0  2  0  0  0  0  0  0
  193.5210  176.3670  146.8690 C   0  0  0  0  0  3  0  0  0  0  0  0
  195.1870  174.8850  145.7360 C   0  0  0  0  0  1  0  0  0  0  0  0
  189.9120  176.6240  145.9140 N   0  0  0  0  0  0  0  0  0  0  0  0
  192.7850  174.8070  144.9860 C   0  0  0  0  0  0  0  0  0  0  0  0
  189.7350  172.1190  140.7760 C   0  0  0  0  0  2  0  0  0  0  0  0
  193.1110  173.7380  143.9900 C   0  0  0  0  0  1  0  0  0  0  0  0
  190.1750  173.5250  140.3490 C   0  0  0  0  0  2  0  0  0  0  0  0
  191.5430  175.2930  145.1070 C   0  0  0  0  0  0  0  0  0  0  0  0
  188.0050  175.9530  144.4130 C   0  0  1  0  0  3  0  0  0  0  0  0
  193.8150  175.3520  145.8410 N   0  0  0  0  0  0  0  0  0  0  0  0
  192.0840  176.8340  146.8440 C   0  0  0  0  0  3  0  0  0  0  0  0
  187.3400  175.2730  142.4170 C   0  0  0  0  0  2  0  0  0  0  0  0
  190.3770  174.9860  144.4320 C   0  0  0  0  0  0  0  0  0  0  0  0
  189.4360  172.0290  142.2880 C   0  0  0  0  0  2  0  0  0  0  0  0
  191.2110  176.2800  146.0050 C   0  0  0  0  0  0  0  0  0  0  0  0
  189.1090  174.5850  140.6720 C   0  0  0  0  0  2  0  0  0  0  0  0
  188.2590  174.1810  141.8810 C   0  0  1  0  0  3  0  0  0  0  0  0
  189.0310  173.3650  142.9290 C   0  0  2  0  0  3  0  0  0  0  0  0
  185.5850  178.8030  146.5390 C   0  0  0  0  0  3  0  0  0  0  0  0
  187.1720  176.9440  145.1720 C   0  0  0  0  0  0  0  0  0  0  0  0
  186.8740  178.1790  144.5860 C   0  0  0  0  0  3  0  0  0  0  0  0
  186.0820  179.1080  145.2690 C   0  0  0  0  0  3  0  0  0  0  0  0
  185.8750  177.5700  147.1270 C   0  0  0  0  0  3  0  0  0  0  0  0
  186.6670  176.6400  146.4450 C   0  0  0  0  0  3  0  0  0  0  0  0
  1 12  1  0  0  0  0
  2  6  1  0  0  0  0
  3 16  1  0  0  0  0
  5 13  1  0  0  0  0
  6 18  2  0  0  0  0
  7 11  2  0  0  0  0
  7 13  1  0  0  0  0
  8 17  1  0  0  0  0
  9  7  1  0  0  0  0
 10 19  1  0  0  0  0
 10  8  1  0  0  0  0
 11 18  1  0  0  0  0
 12  2  1  0  0  0  0
 12 23  1  1  0  0  0
 13  4  1  0  0  0  0
 14  4  2  0  0  0  0
 15  1  1  0  0  0  0
 16  2  2  0  0  0  0
 16 11  1  0  0  0  0
 18 14  1  0  0  0  0
 20 19  1  6  0  0  0
 20 15  1  0  0  0  0
 20 21  1  0  0  0  0
 21 17  1  6  0  0  0
 21  3  1  0  0  0  0
 22 26  1  0  0  0  0
 23 27  1  0  0  0  0
 24 23  2  0  0  0  0
 24 25  1  0  0  0  0
 25 22  2  0  0  0  0
 27 26  2  0  0  0  0
M  END
>  <MODEL>
4

>  <REMARK>
 VINA RESULT:      -7.6      1.661      4.920
  Name = 
  1 active torsions:
  status: ('A' for Active; 'I' for Inactive)
    1  A    between atoms: C_9  and  C_15
                            x       y       z     vdW  Elec       q    Type
                         _______ _______ _______ _____ _____    ______ ____

>  <TORSDO>
F 1

$$$$
=
 OpenBabel11052418203D

 27 31  0  0  1  0  0  0  0  0999 V2000
  188.3370  176.0610  142.9660 O   0  0  0  0  0  0  0  0  0  0  0  0
  189.7730  175.6660  144.7990 C   0  0  0  0  0  0  0  0  0  0  0  0
  190.6140  173.8880  143.1960 N   0  0  0  0  0  2  0  0  0  0  0  0
  193.9610  176.3600  146.5220 C   0  0  0  0  0  3  0  0  0  0  0  0
  195.6200  174.9180  145.3280 C   0  0  0  0  0  1  0  0  0  0  0  0
  190.3060  176.4930  145.7320 N   0  0  0  0  0  0  0  0  0  0  0  0
  193.1900  174.7560  144.6900 C   0  0  0  0  0  0  0  0  0  0  0  0
  190.0370  171.9260  140.6530 C   0  0  0  0  0  2  0  0  0  0  0  0
  193.5030  173.6860  143.6910 C   0  0  0  0  0  1  0  0  0  0  0  0
  190.4120  173.3400  140.1920 C   0  0  0  0  0  2  0  0  0  0  0  0
  191.9390  175.2040  144.8640 C   0  0  0  0  0  0  0  0  0  0  0  0
  188.3540  175.7440  144.3280 C   0  0  1  0  0  3  0  0  0  0  0  0
  194.2400  175.3430  145.4920 N   0  0  0  0  0  0  0  0  0  0  0  0
  192.5110  176.7810  146.5590 C   0  0  0  0  0  3  0  0  0  0  0  0
  187.6210  175.0220  142.3710 C   0  0  0  0  0  2  0  0  0  0  0  0
  190.7550  174.8530  144.2470 C   0  0  0  0  0  0  0  0  0  0  0  0
  189.8110  171.8440  142.1780 C   0  0  0  0  0  2  0  0  0  0  0  0
  191.6180  176.1900  145.7660 C   0  0  0  0  0  0  0  0  0  0  0  0
  189.3290  174.3690  140.5530 C   0  0  0  0  0  2  0  0  0  0  0  0
  188.5480  173.9530  141.8040 C   0  0  1  0  0  3  0  0  0  0  0  0
  189.3930  173.1740  142.8240 C   0  0  2  0  0  3  0  0  0  0  0  0
  186.0230  178.5330  146.6270 C   0  0  0  0  0  3  0  0  0  0  0  0
  187.5260  176.7180  145.1150 C   0  0  0  0  0  0  0  0  0  0  0  0
  187.2540  176.4540  146.4610 C   0  0  0  0  0  3  0  0  0  0  0  0
  186.5020  177.3600  147.2170 C   0  0  0  0  0  3  0  0  0  0  0  0
  186.2970  178.8050  145.2850 C   0  0  0  0  0  3  0  0  0  0  0  0
  187.0480  177.9000  144.5290 C   0  0  0  0  0  3  0  0  0  0  0  0
  1 12  1  0  0  0  0
  2  6  1  0  0  0  0
  3 16  1  0  0  0  0
  4 14  2  0  0  0  0
  5 13  1  0  0  0  0
  6 18  2  0  0  0  0
  7 11  2  0  0  0  0
  7 13  1  0  0  0  0
  8 17  1  0  0  0  0
  9  7  1  0  0  0  0
 10 19  1  0  0  0  0
 10  8  1  0  0  0  0
 11 18  1  0  0  0  0
 12  2  1  0  0  0  0
 12 23  1  1  0  0  0
 13  4  1  0  0  0  0
 15  1  1  0  0  0  0
 16  2  2  0  0  0  0
 16 11  1  0  0  0  0
 18 14  1  0  0  0  0
 20 19  1  6  0  0  0
 20 15  1  0  0  0  0
 20 21  1  0  0  0  0
 21 17  1  6  0  0  0
 21  3  1  0  0  0  0
 22 25  1  0  0  0  0
 23 24  1  0  0  0  0
 24 25  2  0  0  0  0
 26 22  2  0  0  0  0
 27 23  2  0  0  0  0
 27 26  1  0  0  0  0
M  END
>  <MODEL>
5

>  <REMARK>
 VINA RESULT:      -7.4      1.714      4.868
  Name = 
  1 active torsions:
  status: ('A' for Active; 'I' for Inactive)
    1  A    between atoms: C_9  and  C_15
                            x       y       z     vdW  Elec       q    Type
                         _______ _______ _______ _____ _____    ______ ____

>  <TORSDO>
F 1

$$$$
=
 OpenBabel11052418203D

 27 31  0  0  1  0  0  0  0  0999 V2000
  189.5530  177.4910  145.3660 O   0  0  0  0  0  0  0  0  0  0  0  0
  188.3410  176.5930  143.5480 C   0  0  0  0  0  0  0  0  0  0  0  0
  186.4200  177.2750  145.0580 N   0  0  0  0  0  2  0  0  0  0  0  0
  185.9570  177.5700  139.7590 C   0  0  0  0  0  3  0  0  0  0  0  0
  183.7150  178.4870  140.3800 C   0  0  0  0  0  1  0  0  0  0  0  0
  188.5920  176.5570  142.2160 N   0  0  0  0  0  0  0  0  0  0  0  0
  185.2840  177.7740  142.2140 C   0  0  0  0  0  0  0  0  0  0  0  0
  185.3250  177.9150  148.0640 C   0  0  0  0  0  2  0  0  0  0  0  0
  184.2620  178.1220  143.2510 C   0  0  0  0  0  1  0  0  0  0  0  0
  186.0420  179.1290  147.4630 C   0  0  0  0  0  2  0  0  0  0  0  0
  186.4910  177.3000  142.5540 C   0  0  0  0  0  0  0  0  0  0  0  0
  189.3760  176.3360  144.5980 C   0  0  1  0  0  3  0  0  0  0  0  0
  184.9950  177.9510  140.8090 N   0  0  0  0  0  0  0  0  0  0  0  0
  187.2790  177.0920  140.3140 C   0  0  0  0  0  3  0  0  0  0  0  0
  189.2950  177.0880  146.6760 C   0  0  0  0  0  2  0  0  0  0  0  0
  187.0500  177.0430  143.7910 C   0  0  0  0  0  0  0  0  0  0  0  0
  185.4930  176.6450  147.2030 C   0  0  0  0  0  2  0  0  0  0  0  0
  187.4550  176.9780  141.6290 C   0  0  0  0  0  0  0  0  0  0  0  0
  187.5500  178.8830  147.2950 C   0  0  0  0  0  2  0  0  0  0  0  0
  187.8600  177.3960  147.0870 C   0  0  1  0  0  3  0  0  0  0  0  0
  186.7570  176.6390  146.3310 C   0  0  2  0  0  3  0  0  0  0  0  0
  193.1520  175.0130  143.0200 C   0  0  0  0  0  3  0  0  0  0  0  0
  190.6830  175.8630  144.0330 C   0  0  0  0  0  0  0  0  0  0  0  0
  191.6970  176.7940  143.7790 C   0  0  0  0  0  3  0  0  0  0  0  0
  192.9290  176.3700  143.2720 C   0  0  0  0  0  3  0  0  0  0  0  0
  192.1460  174.0790  143.2770 C   0  0  0  0  0  3  0  0  0  0  0  0
  190.9140  174.5010  143.7840 C   0  0  0  0  0  3  0  0  0  0  0  0
  1 15  1  0  0  0  0
  2 16  2  0  0  0  0
  2 12  1  0  0  0  0
  3 21  1  0  0  0  0
  4 14  2  0  0  0  0
  4 13  1  0  0  0  0
  5 13  1  0  0  0  0
  6  2  1  0  0  0  0
  7 11  2  0  0  0  0
  7  9  1  0  0  0  0
 10  8  1  0  0  0  0
 11 16  1  0  0  0  0
 12 23  1  6  0  0  0
 12  1  1  0  0  0  0
 13  7  1  0  0  0  0
 14 18  1  0  0  0  0
 16  3  1  0  0  0  0
 17  8  1  0  0  0  0
 18  6  2  0  0  0  0
 18 11  1  0  0  0  0
 19 10  1  0  0  0  0
 20 15  1  6  0  0  0
 20 19  1  0  0  0  0
 21 20  1  0  0  0  0
 21 17  1  1  0  0  0
 22 25  2  0  0  0  0
 22 26  1  0  0  0  0
 24 23  2  0  0  0  0
 25 24  1  0  0  0  0
 26 27  2  0  0  0  0
 27 23  1  0  0  0  0
M  END
>  <MODEL>
6

>  <REMARK>
 VINA RESULT:      -7.1      2.285      5.946
  Name = 
  1 active torsions:
  status: ('A' for Active; 'I' for Inactive)
    1  A    between atoms: C_9  and  C_15
                            x       y       z     vdW  Elec       q    Type
                         _______ _______ _______ _____ _____    ______ ____

>  <TORSDO>
F 1

$$$$
=
 OpenBabel11052418203D

 27 31  0  0  1  0  0  0  0  0999 V2000
  190.6880  177.2220  143.3480 O   0  0  0  0  0  0  0  0  0  0  0  0
  190.7660  174.8720  143.1130 C   0  0  0  0  0  0  0  0  0  0  0  0
  188.5000  175.3380  142.0730 N   0  0  0  0  0  2  0  0  0  0  0  0
  191.5810  171.3980  140.2400 C   0  0  0  0  0  3  0  0  0  0  0  0
  189.6850  171.1700  138.6240 C   0  0  0  0  0  1  0  0  0  0  0  0
  191.7940  174.0120  142.9090 N   0  0  0  0  0  0  0  0  0  0  0  0
  189.5560  172.9440  140.4060 C   0  0  0  0  0  0  0  0  0  0  0  0
  185.8910  177.2820  141.8210 C   0  0  0  0  0  2  0  0  0  0  0  0
  188.1980  173.3550  139.9250 C   0  0  0  0  0  1  0  0  0  0  0  0
  187.0430  177.7780  140.9370 C   0  0  0  0  0  2  0  0  0  0  0  0
  190.1500  173.5660  141.4330 C   0  0  0  0  0  0  0  0  0  0  0  0
  190.8220  176.0280  144.0630 C   0  0  1  0  0  3  0  0  0  0  0  0
  190.2670  171.8630  139.7610 N   0  0  0  0  0  0  0  0  0  0  0  0
  192.1250  172.2310  141.3770 C   0  0  0  0  0  3  0  0  0  0  0  0
  189.5840  177.8540  143.9200 C   0  0  0  0  0  2  0  0  0  0  0  0
  189.7320  174.6200  142.2210 C   0  0  0  0  0  0  0  0  0  0  0  0
  186.3210  176.1370  142.7630 C   0  0  0  0  0  2  0  0  0  0  0  0
  191.3980  173.2200  141.8940 C   0  0  0  0  0  0  0  0  0  0  0  0
  188.2290  178.2880  141.7700 C   0  0  0  0  0  2  0  0  0  0  0  0
  188.3090  177.5860  143.1300 C   0  0  1  0  0  3  0  0  0  0  0  0
  187.8210  176.1290  143.0980 C   0  0  2  0  0  3  0  0  0  0  0  0
  194.3970  176.1300  146.4540 C   0  0  0  0  0  3  0  0  0  0  0  0
  192.0690  176.0420  144.8990 C   0  0  0  0  0  0  0  0  0  0  0  0
  193.1710  176.7910  144.4720 C   0  0  0  0  0  3  0  0  0  0  0  0
  194.3340  176.8340  145.2470 C   0  0  0  0  0  3  0  0  0  0  0  0
  193.2970  175.3860  146.8880 C   0  0  0  0  0  3  0  0  0  0  0  0
  192.1340  175.3420  146.1130 C   0  0  0  0  0  3  0  0  0  0  0  0
  1 15  1  0  0  0  0
  1 12  1  0  0  0  0
  2 12  1  0  0  0  0
  3 16  1  0  0  0  0
  3 21  1  0  0  0  0
  4 14  2  0  0  0  0
  5 13  1  0  0  0  0
  6  2  1  0  0  0  0
  7 11  2  0  0  0  0
  8 17  1  0  0  0  0
  9  7  1  0  0  0  0
 10 19  1  0  0  0  0
 10  8  1  0  0  0  0
 11 18  1  0  0  0  0
 11 16  1  0  0  0  0
 12 23  1  6  0  0  0
 13  4  1  0  0  0  0
 13  7  1  0  0  0  0
 14 18  1  0  0  0  0
 16  2  2  0  0  0  0
 18  6  2  0  0  0  0
 20 19  1  6  0  0  0
 20 15  1  0  0  0  0
 21 17  1  6  0  0  0
 21 20  1  0  0  0  0
 22 26  1  0  0  0  0
 23 27  1  0  0  0  0
 24 23  2  0  0  0  0
 24 25  1  0  0  0  0
 25 22  2  0  0  0  0
 27 26  2  0  0  0  0
M  END
>  <MODEL>
7

>  <REMARK>
 VINA RESULT:      -6.9      2.161      5.659
  Name = 
  1 active torsions:
  status: ('A' for Active; 'I' for Inactive)
    1  A    between atoms: C_9  and  C_15
                            x       y       z     vdW  Elec       q    Type
                         _______ _______ _______ _____ _____    ______ ____

>  <TORSDO>
F 1

$$$$
=
 OpenBabel11052418203D

 27 31  0  0  1  0  0  0  0  0999 V2000
  192.9520  176.5510  144.7290 O   0  0  0  0  0  0  0  0  0  0  0  0
  192.6040  174.7310  143.2640 C   0  0  0  0  0  0  0  0  0  0  0  0
  190.3130  174.8640  144.3450 N   0  0  0  0  0  2  0  0  0  0  0  0
  190.8400  173.4140  139.2460 C   0  0  0  0  0  3  0  0  0  0  0  0
  188.3440  173.3510  139.3940 C   0  0  0  0  0  1  0  0  0  0  0  0
  193.1090  174.4400  142.0390 N   0  0  0  0  0  0  0  0  0  0  0  0
  189.6670  173.9730  141.4440 C   0  0  0  0  0  0  0  0  0  0  0  0
  188.4750  175.7560  146.8890 C   0  0  0  0  0  2  0  0  0  0  0  0
  188.4070  174.0970  142.2440 C   0  0  0  0  0  1  0  0  0  0  0  0
  188.7370  176.9390  145.9490 C   0  0  0  0  0  2  0  0  0  0  0  0
  190.8670  174.2130  141.9900 C   0  0  0  0  0  0  0  0  0  0  0  0
  193.4210  175.2770  144.3940 C   0  0  1  0  0  3  0  0  0  0  0  0
  189.6180  173.5970  140.0490 N   0  0  0  0  0  0  0  0  0  0  0  0
  192.1010  173.7640  140.0010 C   0  0  0  0  0  3  0  0  0  0  0  0
  192.6250  176.4620  146.0830 C   0  0  0  0  0  2  0  0  0  0  0  0
  191.2220  174.5960  143.2690 C   0  0  0  0  0  0  0  0  0  0  0  0
  189.3170  174.5150  146.5230 C   0  0  0  0  0  2  0  0  0  0  0  0
  192.0420  174.1160  141.2840 C   0  0  0  0  0  0  0  0  0  0  0  0
  190.2140  177.3650  145.9570 C   0  0  0  0  0  2  0  0  0  0  0  0
  191.1400  176.1890  146.2860 C   0  0  1  0  0  3  0  0  0  0  0  0
  190.6190  174.8370  145.7740 C   0  0  2  0  0  3  0  0  0  0  0  0
  197.6310  175.3140  143.5130 C   0  0  0  0  0  3  0  0  0  0  0  0
  194.8920  175.3090  144.0950 C   0  0  0  0  0  0  0  0  0  0  0  0
  195.6830  174.2060  144.4310 C   0  0  0  0  0  3  0  0  0  0  0  0
  197.0510  174.2080  144.1420 C   0  0  0  0  0  3  0  0  0  0  0  0
  196.8440  176.4160  143.1690 C   0  0  0  0  0  3  0  0  0  0  0  0
  195.4760  176.4140  143.4580 C   0  0  0  0  0  3  0  0  0  0  0  0
  1 15  1  0  0  0  0
  2 16  2  0  0  0  0
  2 12  1  0  0  0  0
  3 21  1  0  0  0  0
  4 14  2  0  0  0  0
  4 13  1  0  0  0  0
  5 13  1  0  0  0  0
  6  2  1  0  0  0  0
  7 11  2  0  0  0  0
  7  9  1  0  0  0  0
 10 19  1  0  0  0  0
 10  8  1  0  0  0  0
 11 16  1  0  0  0  0
 12 23  1  6  0  0  0
 12  1  1  0  0  0  0
 13  7  1  0  0  0  0
 14 18  1  0  0  0  0
 15 20  1  0  0  0  0
 16  3  1  0  0  0  0
 17  8  1  0  0  0  0
 18 11  1  0  0  0  0
 18  6  2  0  0  0  0
 20 19  1  6  0  0  0
 21 20  1  0  0  0  0
 21 17  1  1  0  0  0
 22 25  1  0  0  0  0
 23 24  1  0  0  0  0
 25 24  2  0  0  0  0
 26 27  1  0  0  0  0
 26 22  2  0  0  0  0
 27 23  2  0  0  0  0
M  END
>  <MODEL>
8

>  <REMARK>
 VINA RESULT:      -6.9      2.288      6.094
  Name = 
  1 active torsions:
  status: ('A' for Active; 'I' for Inactive)
    1  A    between atoms: C_9  and  C_15
                            x       y       z     vdW  Elec       q    Type
                         _______ _______ _______ _____ _____    ______ ____

>  <TORSDO>
F 1

$$$$
=
 OpenBabel11052418203D

 27 31  0  0  1  0  0  0  0  0999 V2000
  192.4400  174.8420  145.7260 O   0  0  0  0  0  0  0  0  0  0  0  0
  191.5170  175.2580  143.5920 C   0  0  0  0  0  0  0  0  0  0  0  0
  193.9750  175.0960  142.9800 N   0  0  0  0  0  2  0  0  0  0  0  0
  190.2120  173.3830  139.6200 C   0  0  0  0  0  3  0  0  0  0  0  0
  192.2250  172.7630  138.2710 C   0  0  0  0  0  1  0  0  0  0  0  0
  190.3310  174.9180  143.0310 N   0  0  0  0  0  0  0  0  0  0  0  0
  192.5560  173.8860  140.5010 C   0  0  0  0  0  0  0  0  0  0  0  0
  197.0990  175.3480  143.8880 C   0  0  0  0  0  2  0  0  0  0  0  0
  194.0400  173.8770  140.3070 C   0  0  0  0  0  1  0  0  0  0  0  0
  196.5120  173.9860  144.2820 C   0  0  0  0  0  2  0  0  0  0  0  0
  192.0000  174.3840  141.6140 C   0  0  0  0  0  0  0  0  0  0  0  0
  191.6650  175.7500  144.9980 C   0  0  1  0  0  3  0  0  0  0  0  0
  191.6790  173.3430  139.4870 N   0  0  0  0  0  0  0  0  0  0  0  0
  189.7540  173.9380  140.9490 C   0  0  0  0  0  3  0  0  0  0  0  0
  193.5060  175.5980  146.2130 C   0  0  0  0  0  2  0  0  0  0  0  0
  192.5690  174.9460  142.7400 C   0  0  0  0  0  0  0  0  0  0  0  0
  196.0220  176.3260  143.3720 C   0  0  0  0  0  2  0  0  0  0  0  0
  190.6420  174.4000  141.8270 C   0  0  0  0  0  0  0  0  0  0  0  0
  195.4430  174.1150  145.3780 C   0  0  0  0  0  2  0  0  0  0  0  0
  194.7360  175.4740  145.3220 C   0  0  1  0  0  3  0  0  0  0  0  0
  194.6080  176.0400  143.8990 C   0  0  2  0  0  3  0  0  0  0  0  0
  187.8690  176.4690  146.8880 C   0  0  0  0  0  3  0  0  0  0  0  0
  190.3490  175.9960  145.6760 C   0  0  0  0  0  0  0  0  0  0  0  0
  189.6430  177.1710  145.3970 C   0  0  0  0  0  3  0  0  0  0  0  0
  188.4050  177.4080  146.0030 C   0  0  0  0  0  3  0  0  0  0  0  0
  188.5670  175.2910  147.1660 C   0  0  0  0  0  3  0  0  0  0  0  0
  189.8040  175.0530  146.5610 C   0  0  0  0  0  3  0  0  0  0  0  0
  1 15  1  0  0  0  0
  2 12  1  0  0  0  0
  3 21  1  0  0  0  0
  4 14  2  0  0  0  0
  5 13  1  0  0  0  0
  6  2  1  0  0  0  0
  7 11  2  0  0  0  0
  8 10  1  0  0  0  0
  9  7  1  0  0  0  0
 10 19  1  0  0  0  0
 11 18  1  0  0  0  0
 11 16  1  0  0  0  0
 12 23  1  1  0  0  0
 12  1  1  0  0  0  0
 13  4  1  0  0  0  0
 13  7  1  0  0  0  0
 14 18  1  0  0  0  0
 16  3  1  0  0  0  0
 16  2  2  0  0  0  0
 17  8  1  0  0  0  0
 18  6  2  0  0  0  0
 20 19  1  6  0  0  0
 20 15  1  0  0  0  0
 21 17  1  6  0  0  0
 21 20  1  0  0  0  0
 22 26  1  0  0  0  0
 23 27  1  0  0  0  0
 24 23  2  0  0  0  0
 24 25  1  0  0  0  0
 25 22  2  0  0  0  0
 27 26  2  0  0  0  0
M  END
>  <MODEL>
9

>  <REMARK>
 VINA RESULT:      -6.8      2.110      3.379
  Name = 
  1 active torsions:
  status: ('A' for Active; 'I' for Inactive)
    1  A    between atoms: C_9  and  C_15
                            x       y       z     vdW  Elec       q    Type
                         _______ _______ _______ _____ _____    ______ ____

>  <TORSDO>
F 1

$$$$
