=
 OpenBabel11052419343D

 55 60  0  0  1  0  0  0  0  0999 V2000
  190.3340  173.0250  139.5960 C   0  0  1  0  0  3  0  0  0  0  0  0
  190.9830  173.4910  138.2970 C   0  0  0  0  0  2  0  0  0  0  0  0
  192.1670  172.7100  137.9830 N   0  0  0  0  0  2  0  0  0  0  0  0
  193.8660  173.1800  136.0120 O   0  0  0  0  0  0  0  0  0  0  0  0
  193.3810  173.7590  137.3150 S   0  0  0  0  0  0  0  0  0  0  0  0
  192.7580  175.1010  137.0460 O   0  0  0  0  0  0  0  0  0  0  0  0
  196.1500  173.3640  141.6080 O   0  0  0  0  0  1  0  0  0  0  0  0
  194.7710  173.9780  138.4320 C   0  0  1  0  0  0  0  0  0  0  0  0
  195.7650  173.0240  138.1190 O   0  0  0  0  0  0  0  0  0  0  0  0
  196.4210  172.6920  139.3250 C   0  0  2  0  0  3  0  0  0  0  0  0
  195.7650  171.4980  140.0040 C   0  0  1  0  0  0  0  0  0  0  0  0
  195.4540  172.9100  140.4820 C   0  0  1  0  0  0  0  0  0  0  0  0
  195.3070  175.2630  138.2660 O   0  0  0  0  0  1  0  0  0  0  0  0
  194.7640  170.8440  139.2610 O   0  0  0  0  0  1  0  0  0  0  0  0
  194.3320  173.7310  139.8780 C   0  0  1  0  0  3  0  0  0  0  0  0
  193.9640  174.9810  140.6450 C   0  0  0  0  0  0  0  0  0  0  0  0
  192.8160  175.1140  141.1500 O   0  0  0  0  0  1  0  0  0  0  0  0
  194.9460  175.9300  140.8980 O   0  0  0  0  0  0  0  0  0  0  0  0
  196.6580  170.7460  140.8030 O   0  0  0  0  0  0  0  0  0  0  0  0
  197.3710  169.8610  139.9880 C   0  0  0  0  0  1  0  0  0  0  0  0
  188.8000  173.1300  139.4890 C   0  0  0  0  0  2  0  0  0  0  0  0
  188.3290  174.5040  139.6350 N   0  0  0  0  0  2  0  0  0  0  0  0
  187.5260  176.9240  140.7980 O   0  0  0  0  0  0  0  0  0  0  0  0
  187.3650  176.0060  142.9390 N   0  0  0  0  0  2  0  0  0  0  0  0
  188.0810  174.6630  141.0020 N   0  0  0  0  0  2  0  0  0  0  0  0
  187.6630  175.9210  141.5450 C   0  0  0  0  0  0  0  0  0  0  0  0
  187.7190  177.1600  143.7540 C   0  0  2  0  0  3  0  0  0  0  0  0
  190.2760  176.2210  146.3940 N   0  0  0  0  0  0  0  0  0  0  0  0
  192.7210  176.9300  143.9250 O   0  0  0  0  0  0  0  0  0  0  0  0
  189.0850  176.4800  145.7810 C   0  0  0  0  0  3  0  0  0  0  0  0
  190.2500  177.1170  143.7400 C   0  0  0  0  0  0  0  0  0  0  0  0
  191.4320  176.3880  145.7010 C   0  0  0  0  0  0  0  0  0  0  0  0
  190.2690  177.5460  142.4500 F   0  0  0  0  0  0  0  0  0  0  0  0
  192.8170  176.2050  146.1900 C   0  0  0  0  0  2  0  0  0  0  0  0
  193.6570  176.5560  144.9390 C   0  0  1  0  0  3  0  0  0  0  0  0
  189.0400  176.9300  144.4360 C   0  0  0  0  0  0  0  0  0  0  0  0
  191.4360  176.8260  144.4120 C   0  0  0  0  0  0  0  0  0  0  0  0
  194.4760  175.3550  144.4770 C   0  0  0  0  0  2  0  0  0  0  0  0
  195.9120  175.7260  144.3230 C   0  0  0  0  0  0  0  0  0  0  0  0
  196.2230  176.8540  143.8610 O   0  0  0  0  0  0  0  0  0  0  0  0
  196.9340  174.7990  144.6780 N   0  0  0  0  0  1  0  0  0  0  0  0
  186.4000  178.8850  144.9740 C   0  0  0  0  0  3  0  0  0  0  0  0
  185.4670  179.2630  145.9450 C   0  0  0  0  0  3  0  0  0  0  0  0
  185.9370  176.5500  145.4490 C   0  0  0  0  0  3  0  0  0  0  0  0
  185.0050  176.9330  146.4220 C   0  0  0  0  0  3  0  0  0  0  0  0
  184.7780  178.2900  146.6780 C   0  0  0  0  0  3  0  0  0  0  0  0
  186.6410  177.5290  144.7240 C   0  0  0  0  0  0  0  0  0  0  0  0
  190.8160  171.6070  139.9130 C   0  0  0  0  0  2  0  0  0  0  0  0
  191.8070  171.5550  141.0760 C   0  0  0  0  0  2  0  0  0  0  0  0
  189.8350  172.7160  144.6820 C   0  0  0  0  0  3  0  0  0  0  0  0
  191.1310  171.9220  142.3590 C   0  0  0  0  0  0  0  0  0  0  0  0
  189.8360  171.5560  142.5900 N   0  0  0  0  0  0  0  0  0  0  0  0
  191.1650  173.0770  144.4720 C   0  0  0  0  0  3  0  0  0  0  0  0
  189.1820  171.9310  143.7200 C   0  0  0  0  0  3  0  0  0  0  0  0
  191.8210  172.6770  143.3100 C   0  0  0  0  0  3  0  0  0  0  0  0
  1  2  1  6  0  0  0
  1 48  1  0  0  0  0
  3  2  1  0  0  0  0
  4  5  2  0  0  0  0
  5  3  1  0  0  0  0
  5  8  1  0  0  0  0
  6  5  2  0  0  0  0
  8 13  1  6  0  0  0
  8 15  1  0  0  0  0
  9  8  1  0  0  0  0
 10  9  1  6  0  0  0
 10 11  1  0  0  0  0
 10 12  1  0  0  0  0
 11 14  1  6  0  0  0
 11 12  1  0  0  0  0
 11 19  1  0  0  0  0
 12  7  1  1  0  0  0
 15 12  1  0  0  0  0
 15 16  1  1  0  0  0
 16 18  2  0  0  0  0
 16 17  1  0  0  0  0
 20 19  1  0  0  0  0
 21  1  1  0  0  0  0
 21 22  1  0  0  0  0
 22 25  1  0  0  0  0
 23 26  2  0  0  0  0
 25 26  1  0  0  0  0
 26 24  1  0  0  0  0
 27 24  1  1  0  0  0
 27 36  1  0  0  0  0
 27 47  1  0  0  0  0
 29 37  1  0  0  0  0
 29 35  1  0  0  0  0
 30 28  1  0  0  0  0
 31 37  2  0  0  0  0
 31 36  1  0  0  0  0
 32 34  1  0  0  0  0
 32 28  2  0  0  0  0
 33 31  1  0  0  0  0
 35 38  1  6  0  0  0
 35 34  1  0  0  0  0
 36 30  2  0  0  0  0
 37 32  1  0  0  0  0
 39 38  1  0  0  0  0
 39 41  1  0  0  0  0
 40 39  2  0  0  0  0
 42 43  1  0  0  0  0
 43 46  2  0  0  0  0
 44 45  2  0  0  0  0
 45 46  1  0  0  0  0
 47 42  2  0  0  0  0
 47 44  1  0  0  0  0
 48 49  1  0  0  0  0
 49 51  1  0  0  0  0
 51 52  2  0  0  0  0
 51 55  1  0  0  0  0
 52 54  1  0  0  0  0
 53 50  1  0  0  0  0
 54 50  2  0  0  0  0
 55 53  2  0  0  0  0
M  END
>  <MODEL>
1

>  <REMARK>
 VINA RESULT:      -6.6      0.000      0.000
  Name = 
  17 active torsions:
  status: ('A' for Active; 'I' for Inactive)
    1  A    between atoms: C_1  and  C_53
    2  A    between atoms: N_4  and  C_35
    3  A    between atoms: N_4  and  N_37
    4  A    between atoms: C_6  and  S_20
    5  A    between atoms: C_8  and  N_22
    6  A    between atoms: C_8  and  C_43
    7  A    between atoms: C_10  and  C_32
    8  A    between atoms: O_11  and  C_29
    9  A    between atoms: N_19  and  C_45
   10  A    between atoms: S_20  and  N_22
   11  A    between atoms: C_26  and  C_45
   12  A    between atoms: C_27  and  C_51
   13  A    between atoms: C_32  and  C_48
   14  A    between atoms: C_35  and  C_43
   15  A    between atoms: C_43  and  C_54
   16  A    between atoms: C_45  and  C_49
   17  A    between atoms: C_51  and  C_54
                            x       y       z     vdW  Elec       q    Type
                         _______ _______ _______ _____ _____    ______ ____

>  <TORSDO>
F 17

$$$$
=
 OpenBabel11052419343D

 55 60  0  0  1  0  0  0  0  0999 V2000
  189.2710  172.7190  139.2450 C   0  0  1  0  0  3  0  0  0  0  0  0
  190.6670  172.2860  139.6790 C   0  0  0  0  0  2  0  0  0  0  0  0
  191.3370  173.3290  140.4370 N   0  0  0  0  0  2  0  0  0  0  0  0
  192.1630  173.1830  142.9450 O   0  0  0  0  0  0  0  0  0  0  0  0
  192.4200  172.5960  141.5810 S   0  0  0  0  0  0  0  0  0  0  0  0
  192.1370  171.1190  141.6290 O   0  0  0  0  0  0  0  0  0  0  0  0
  197.2950  174.1020  142.0470 O   0  0  0  0  0  1  0  0  0  0  0  0
  194.1420  172.8430  141.1330 C   0  0  1  0  0  0  0  0  0  0  0  0
  194.8540  171.6470  141.3750 O   0  0  0  0  0  0  0  0  0  0  0  0
  196.1680  172.0110  141.7460 C   0  0  2  0  0  3  0  0  0  0  0  0
  196.2980  172.1650  143.2540 C   0  0  1  0  0  0  0  0  0  0  0  0
  196.1320  173.3970  142.3750 C   0  0  1  0  0  0  0  0  0  0  0  0
  194.2300  173.1550  139.7690 O   0  0  0  0  0  1  0  0  0  0  0  0
  195.1790  171.7680  144.0100 O   0  0  0  0  0  1  0  0  0  0  0  0
  194.7640  173.9370  142.0040 C   0  0  1  0  0  3  0  0  0  0  0  0
  194.7640  175.3140  141.3780 C   0  0  0  0  0  0  0  0  0  0  0  0
  194.0150  176.2260  141.8240 O   0  0  0  0  0  1  0  0  0  0  0  0
  195.6930  175.6040  140.3860 O   0  0  0  0  0  0  0  0  0  0  0  0
  197.6040  171.9070  143.7350 O   0  0  0  0  0  0  0  0  0  0  0  0
  197.5210  171.3420  145.0120 C   0  0  0  0  0  1  0  0  0  0  0  0
  188.4520  173.1700  140.4700 C   0  0  0  0  0  2  0  0  0  0  0  0
  188.2580  174.6170  140.5030 N   0  0  0  0  0  2  0  0  0  0  0  0
  188.1310  177.1800  141.6290 O   0  0  0  0  0  0  0  0  0  0  0  0
  187.0360  176.4350  143.5530 N   0  0  0  0  0  2  0  0  0  0  0  0
  187.7110  174.8840  141.7610 N   0  0  0  0  0  2  0  0  0  0  0  0
  187.6620  176.2160  142.2890 C   0  0  0  0  0  0  0  0  0  0  0  0
  187.5510  177.3770  144.5370 C   0  0  2  0  0  3  0  0  0  0  0  0
  189.4890  175.2320  146.9940 N   0  0  0  0  0  0  0  0  0  0  0  0
  192.4050  176.5650  145.4780 O   0  0  0  0  0  0  0  0  0  0  0  0
  188.4550  175.8320  146.3350 C   0  0  0  0  0  3  0  0  0  0  0  0
  190.0300  177.0720  144.9520 C   0  0  0  0  0  0  0  0  0  0  0  0
  190.7660  175.5270  146.6380 C   0  0  0  0  0  0  0  0  0  0  0  0
  190.3230  177.9570  143.9620 F   0  0  0  0  0  0  0  0  0  0  0  0
  192.0170  175.0230  147.2490 C   0  0  0  0  0  2  0  0  0  0  0  0
  193.1040  175.7350  146.4080 C   0  0  1  0  0  3  0  0  0  0  0  0
  188.6990  176.7640  145.2920 C   0  0  0  0  0  0  0  0  0  0  0  0
  191.0450  176.4220  145.6500 C   0  0  0  0  0  0  0  0  0  0  0  0
  193.9640  174.7210  145.6600 C   0  0  0  0  0  2  0  0  0  0  0  0
  195.3310  175.2660  145.4210 C   0  0  0  0  0  0  0  0  0  0  0  0
  196.3420  174.6030  145.7710 O   0  0  0  0  0  0  0  0  0  0  0  0
  195.4980  176.5460  144.8170 N   0  0  0  0  0  1  0  0  0  0  0  0
  186.8490  178.3140  146.7360 C   0  0  0  0  0  3  0  0  0  0  0  0
  185.8660  178.7090  147.6490 C   0  0  0  0  0  3  0  0  0  0  0  0
  185.1270  177.8690  145.0840 C   0  0  0  0  0  3  0  0  0  0  0  0
  184.1450  178.2630  146.0030 C   0  0  0  0  0  3  0  0  0  0  0  0
  184.5150  178.6730  147.2890 C   0  0  0  0  0  3  0  0  0  0  0  0
  186.4850  177.8900  145.4530 C   0  0  0  0  0  0  0  0  0  0  0  0
  189.3960  173.8070  138.1760 C   0  0  0  0  0  2  0  0  0  0  0  0
  190.2650  173.3870  136.9900 C   0  0  0  0  0  2  0  0  0  0  0  0
  192.9490  176.4770  135.7710 C   0  0  0  0  0  3  0  0  0  0  0  0
  191.1860  174.4970  136.5950 C   0  0  0  0  0  0  0  0  0  0  0  0
  190.8280  175.3820  135.6180 N   0  0  0  0  0  0  0  0  0  0  0  0
  193.3200  175.5970  136.7870 C   0  0  0  0  0  3  0  0  0  0  0  0
  191.6730  176.3590  135.1990 C   0  0  0  0  0  3  0  0  0  0  0  0
  192.4360  174.6060  137.2080 C   0  0  0  0  0  3  0  0  0  0  0  0
  1 48  1  6  0  0  0
  1  2  1  0  0  0  0
  1 21  1  0  0  0  0
  2  3  1  0  0  0  0
  3  5  1  0  0  0  0
  5  6  2  0  0  0  0
  5  4  2  0  0  0  0
  8 13  1  6  0  0  0
  8  9  1  0  0  0  0
  8  5  1  0  0  0  0
  8 15  1  0  0  0  0
 10  9  1  1  0  0  0
 10 12  1  0  0  0  0
 10 11  1  0  0  0  0
 11 19  1  0  0  0  0
 11 14  1  1  0  0  0
 12  7  1  6  0  0  0
 12 11  1  0  0  0  0
 15 16  1  6  0  0  0
 15 12  1  0  0  0  0
 16 17  1  0  0  0  0
 18 16  2  0  0  0  0
 19 20  1  0  0  0  0
 21 22  1  0  0  0  0
 22 25  1  0  0  0  0
 23 26  2  0  0  0  0
 25 26  1  0  0  0  0
 26 24  1  0  0  0  0
 27 24  1  6  0  0  0
 27 36  1  0  0  0  0
 27 47  1  0  0  0  0
 29 37  1  0  0  0  0
 29 35  1  0  0  0  0
 30 28  2  0  0  0  0
 31 36  2  0  0  0  0
 31 37  1  0  0  0  0
 32 28  1  0  0  0  0
 32 34  1  0  0  0  0
 33 31  1  0  0  0  0
 35 38  1  6  0  0  0
 35 34  1  0  0  0  0
 36 30  1  0  0  0  0
 37 32  2  0  0  0  0
 39 38  1  0  0  0  0
 39 40  2  0  0  0  0
 41 39  1  0  0  0  0
 42 43  1  0  0  0  0
 44 47  1  0  0  0  0
 44 45  2  0  0  0  0
 45 46  1  0  0  0  0
 46 43  2  0  0  0  0
 47 42  2  0  0  0  0
 49 48  1  0  0  0  0
 50 53  1  0  0  0  0
 51 49  1  0  0  0  0
 51 55  1  0  0  0  0
 52 51  2  0  0  0  0
 53 55  2  0  0  0  0
 54 52  1  0  0  0  0
 54 50  2  0  0  0  0
M  END
>  <MODEL>
2

>  <REMARK>
 VINA RESULT:      -6.4      2.112      3.702
  Name = 
  17 active torsions:
  status: ('A' for Active; 'I' for Inactive)
    1  A    between atoms: C_1  and  C_53
    2  A    between atoms: N_4  and  C_35
    3  A    between atoms: N_4  and  N_37
    4  A    between atoms: C_6  and  S_20
    5  A    between atoms: C_8  and  N_22
    6  A    between atoms: C_8  and  C_43
    7  A    between atoms: C_10  and  C_32
    8  A    between atoms: O_11  and  C_29
    9  A    between atoms: N_19  and  C_45
   10  A    between atoms: S_20  and  N_22
   11  A    between atoms: C_26  and  C_45
   12  A    between atoms: C_27  and  C_51
   13  A    between atoms: C_32  and  C_48
   14  A    between atoms: C_35  and  C_43
   15  A    between atoms: C_43  and  C_54
   16  A    between atoms: C_45  and  C_49
   17  A    between atoms: C_51  and  C_54
                            x       y       z     vdW  Elec       q    Type
                         _______ _______ _______ _____ _____    ______ ____

>  <TORSDO>
F 17

$$$$
=
 OpenBabel11052419343D

 55 60  0  0  1  0  0  0  0  0999 V2000
  188.7220  177.1160  143.0770 C   0  0  1  0  0  3  0  0  0  0  0  0
  188.4140  175.9200  142.1840 C   0  0  0  0  0  2  0  0  0  0  0  0
  188.5910  174.6650  142.8930 N   0  0  0  0  0  2  0  0  0  0  0  0
  188.2710  172.1320  142.2020 O   0  0  0  0  0  0  0  0  0  0  0  0
  188.9350  173.4050  141.7470 S   0  0  0  0  0  0  0  0  0  0  0  0
  188.3600  173.8020  140.4140 O   0  0  0  0  0  0  0  0  0  0  0  0
  193.2730  171.3930  139.9050 O   0  0  0  0  0  1  0  0  0  0  0  0
  190.7000  173.1300  141.5580 C   0  0  1  0  0  0  0  0  0  0  0  0
  191.2380  174.1500  140.7390 O   0  0  0  0  0  0  0  0  0  0  0  0
  192.3100  173.5830  140.0150 C   0  0  2  0  0  3  0  0  0  0  0  0
  191.8450  173.0240  138.6780 C   0  0  1  0  0  0  0  0  0  0  0  0
  192.0590  172.0890  139.8600 C   0  0  1  0  0  0  0  0  0  0  0  0
  191.3200  173.1840  142.8140 O   0  0  0  0  0  1  0  0  0  0  0  0
  190.5120  173.3070  138.3260 O   0  0  0  0  0  1  0  0  0  0  0  0
  190.9560  171.7930  140.8580 C   0  0  1  0  0  3  0  0  0  0  0  0
  191.2280  170.6360  141.7940 C   0  0  0  0  0  0  0  0  0  0  0  0
  190.6430  169.5290  141.6380 O   0  0  0  0  0  0  0  0  0  0  0  0
  192.2260  170.7640  142.7520 O   0  0  0  0  0  1  0  0  0  0  0  0
  192.8540  173.0260  137.6870 O   0  0  0  0  0  0  0  0  0  0  0  0
  193.3790  174.3180  137.5670 C   0  0  0  0  0  1  0  0  0  0  0  0
  190.1800  177.5700  142.8720 C   0  0  0  0  0  2  0  0  0  0  0  0
  190.9480  177.5410  144.1130 N   0  0  0  0  0  2  0  0  0  0  0  0
  193.1600  176.9560  145.7320 O   0  0  0  0  0  0  0  0  0  0  0  0
  193.3290  174.7610  144.9520 N   0  0  0  0  0  2  0  0  0  0  0  0
  191.6100  176.3090  144.1060 N   0  0  0  0  0  2  0  0  0  0  0  0
  192.7320  176.0580  144.9610 C   0  0  0  0  0  0  0  0  0  0  0  0
  194.7670  174.5510  145.0470 C   0  0  2  0  0  3  0  0  0  0  0  0
  197.0190  176.3790  142.6030 N   0  0  0  0  0  0  0  0  0  0  0  0
  195.8000  174.1120  140.1640 O   0  0  0  0  0  0  0  0  0  0  0  0
  196.3680  176.0310  143.7510 C   0  0  0  0  0  3  0  0  0  0  0  0
  195.1850  174.2630  142.5670 C   0  0  0  0  0  0  0  0  0  0  0  0
  196.7780  175.6830  141.4630 C   0  0  0  0  0  0  0  0  0  0  0  0
  194.3030  173.2290  142.5200 F   0  0  0  0  0  0  0  0  0  0  0  0
  197.3420  175.9240  140.1160 C   0  0  0  0  0  2  0  0  0  0  0  0
  196.6700  174.8130  139.2730 C   0  0  1  0  0  3  0  0  0  0  0  0
  195.4370  174.9600  143.7640 C   0  0  0  0  0  0  0  0  0  0  0  0
  195.8860  174.6550  141.4280 C   0  0  0  0  0  0  0  0  0  0  0  0
  197.7130  173.8590  138.7000 C   0  0  0  0  0  2  0  0  0  0  0  0
  197.7390  173.9410  137.2120 C   0  0  0  0  0  0  0  0  0  0  0  0
  197.8450  172.8910  136.5260 O   0  0  0  0  0  0  0  0  0  0  0  0
  197.6650  175.2060  136.5620 N   0  0  0  0  0  1  0  0  0  0  0  0
  196.4650  172.8300  145.6480 C   0  0  0  0  0  3  0  0  0  0  0  0
  196.8350  171.5110  145.9270 C   0  0  0  0  0  3  0  0  0  0  0  0
  194.1390  172.1440  145.5290 C   0  0  0  0  0  3  0  0  0  0  0  0
  194.5160  170.8240  145.8070 C   0  0  0  0  0  3  0  0  0  0  0  0
  195.8650  170.5060  145.9940 C   0  0  0  0  0  3  0  0  0  0  0  0
  195.1180  173.1520  145.4450 C   0  0  0  0  0  0  0  0  0  0  0  0
  187.7050  178.2250  142.7950 C   0  0  0  0  0  2  0  0  0  0  0  0
  186.2560  177.7730  142.9800 C   0  0  0  0  0  2  0  0  0  0  0  0
  184.8230  178.6630  146.9040 C   0  0  0  0  0  3  0  0  0  0  0  0
  185.7660  178.1290  144.3470 C   0  0  0  0  0  0  0  0  0  0  0  0
  186.6080  178.0800  145.4210 N   0  0  0  0  0  0  0  0  0  0  0  0
  183.9560  178.7420  145.8140 C   0  0  0  0  0  3  0  0  0  0  0  0
  186.1700  178.3380  146.6810 C   0  0  0  0  0  3  0  0  0  0  0  0
  184.4260  178.4800  144.5290 C   0  0  0  0  0  3  0  0  0  0  0  0
  1  2  1  6  0  0  0
  2  3  1  0  0  0  0
  5  4  2  0  0  0  0
  5  3  1  0  0  0  0
  6  5  2  0  0  0  0
  8  5  1  0  0  0  0
  8 13  1  1  0  0  0
  9  8  1  0  0  0  0
 10  9  1  1  0  0  0
 11 14  1  6  0  0  0
 11 12  1  0  0  0  0
 11 10  1  0  0  0  0
 12  7  1  6  0  0  0
 12 10  1  0  0  0  0
 12 15  1  0  0  0  0
 15  8  1  0  0  0  0
 15 16  1  1  0  0  0
 16 18  1  0  0  0  0
 17 16  2  0  0  0  0
 19 11  1  0  0  0  0
 20 19  1  0  0  0  0
 21  1  1  0  0  0  0
 21 22  1  0  0  0  0
 24 26  1  0  0  0  0
 25 22  1  0  0  0  0
 25 26  1  0  0  0  0
 26 23  2  0  0  0  0
 27 24  1  6  0  0  0
 27 47  1  0  0  0  0
 28 30  1  0  0  0  0
 29 37  1  0  0  0  0
 30 36  2  0  0  0  0
 31 36  1  0  0  0  0
 32 28  2  0  0  0  0
 33 31  1  0  0  0  0
 34 32  1  0  0  0  0
 35 38  1  1  0  0  0
 35 34  1  0  0  0  0
 35 29  1  0  0  0  0
 36 27  1  0  0  0  0
 37 32  1  0  0  0  0
 37 31  2  0  0  0  0
 39 38  1  0  0  0  0
 40 39  2  0  0  0  0
 41 39  1  0  0  0  0
 42 43  1  0  0  0  0
 43 46  2  0  0  0  0
 44 45  2  0  0  0  0
 45 46  1  0  0  0  0
 47 44  1  0  0  0  0
 47 42  2  0  0  0  0
 48 49  1  0  0  0  0
 48  1  1  0  0  0  0
 49 51  1  0  0  0  0
 51 55  2  0  0  0  0
 51 52  1  0  0  0  0
 52 54  2  0  0  0  0
 53 50  2  0  0  0  0
 54 50  1  0  0  0  0
 55 53  1  0  0  0  0
M  END
>  <MODEL>
3

>  <REMARK>
 VINA RESULT:      -6.4      2.885      7.357
  Name = 
  17 active torsions:
  status: ('A' for Active; 'I' for Inactive)
    1  A    between atoms: C_1  and  C_53
    2  A    between atoms: N_4  and  C_35
    3  A    between atoms: N_4  and  N_37
    4  A    between atoms: C_6  and  S_20
    5  A    between atoms: C_8  and  N_22
    6  A    between atoms: C_8  and  C_43
    7  A    between atoms: C_10  and  C_32
    8  A    between atoms: O_11  and  C_29
    9  A    between atoms: N_19  and  C_45
   10  A    between atoms: S_20  and  N_22
   11  A    between atoms: C_26  and  C_45
   12  A    between atoms: C_27  and  C_51
   13  A    between atoms: C_32  and  C_48
   14  A    between atoms: C_35  and  C_43
   15  A    between atoms: C_43  and  C_54
   16  A    between atoms: C_45  and  C_49
   17  A    between atoms: C_51  and  C_54
                            x       y       z     vdW  Elec       q    Type
                         _______ _______ _______ _____ _____    ______ ____

>  <TORSDO>
F 17

$$$$
=
 OpenBabel11052419343D

 55 60  0  0  1  0  0  0  0  0999 V2000
  189.3430  172.4280  140.3010 C   0  0  1  0  0  3  0  0  0  0  0  0
  190.4610  171.6290  140.9620 C   0  0  0  0  0  2  0  0  0  0  0  0
  191.2450  172.4550  141.8640 N   0  0  0  0  0  2  0  0  0  0  0  0
  191.9600  171.7960  144.3230 O   0  0  0  0  0  0  0  0  0  0  0  0
  192.2090  171.4300  142.8840 S   0  0  0  0  0  0  0  0  0  0  0  0
  191.7820  170.0040  142.6670 O   0  0  0  0  0  0  0  0  0  0  0  0
  196.9510  173.3680  142.9750 O   0  0  0  0  0  1  0  0  0  0  0  0
  193.9610  171.5730  142.5180 C   0  0  1  0  0  0  0  0  0  0  0  0
  194.6790  170.6990  143.3650 O   0  0  0  0  0  0  0  0  0  0  0  0
  195.9310  171.3010  143.6240 C   0  0  2  0  0  3  0  0  0  0  0  0
  195.8850  172.1630  144.8770 C   0  0  1  0  0  0  0  0  0  0  0  0
  195.7800  172.8110  143.5030 C   0  0  1  0  0  0  0  0  0  0  0  0
  194.1940  171.2050  141.1850 O   0  0  0  0  0  1  0  0  0  0  0  0
  194.7010  172.0830  145.6330 O   0  0  0  0  0  1  0  0  0  0  0  0
  194.4480  172.9970  142.8040 C   0  0  1  0  0  3  0  0  0  0  0  0
  194.4750  173.9060  141.5960 C   0  0  0  0  0  0  0  0  0  0  0  0
  195.1810  173.6210  140.5900 O   0  0  0  0  0  0  0  0  0  0  0  0
  193.6140  174.9950  141.5520 O   0  0  0  0  0  1  0  0  0  0  0  0
  197.1350  172.2720  145.5300 O   0  0  0  0  0  0  0  0  0  0  0  0
  197.1080  173.3690  146.3970 C   0  0  0  0  0  1  0  0  0  0  0  0
  189.5850  173.9380  140.4940 C   0  0  0  0  0  2  0  0  0  0  0  0
  188.3730  174.7230  140.2810 N   0  0  0  0  0  2  0  0  0  0  0  0
  188.2410  177.2040  141.5760 O   0  0  0  0  0  0  0  0  0  0  0  0
  187.1470  176.3300  143.4450 N   0  0  0  0  0  2  0  0  0  0  0  0
  187.8250  174.9050  141.5540 N   0  0  0  0  0  2  0  0  0  0  0  0
  187.7740  176.1980  142.1700 C   0  0  0  0  0  0  0  0  0  0  0  0
  187.6600  177.2040  144.4910 C   0  0  2  0  0  3  0  0  0  0  0  0
  189.8970  174.7250  146.2910 N   0  0  0  0  0  0  0  0  0  0  0  0
  192.5130  177.0530  145.7280 O   0  0  0  0  0  0  0  0  0  0  0  0
  188.7920  175.3130  145.7490 C   0  0  0  0  0  3  0  0  0  0  0  0
  190.1170  177.2510  145.0990 C   0  0  0  0  0  0  0  0  0  0  0  0
  191.0910  175.3680  146.2310 C   0  0  0  0  0  0  0  0  0  0  0  0
  190.2550  178.4750  144.5240 F   0  0  0  0  0  0  0  0  0  0  0  0
  192.3890  174.9270  146.7900 C   0  0  0  0  0  2  0  0  0  0  0  0
  193.3300  176.0910  146.3980 C   0  0  1  0  0  3  0  0  0  0  0  0
  188.8740  176.5900  145.1330 C   0  0  0  0  0  0  0  0  0  0  0  0
  191.2140  176.5980  145.6590 C   0  0  0  0  0  0  0  0  0  0  0  0
  194.4370  175.6060  145.4670 C   0  0  0  0  0  2  0  0  0  0  0  0
  195.2320  176.7570  144.9510 C   0  0  0  0  0  0  0  0  0  0  0  0
  195.2190  177.8550  145.5650 O   0  0  0  0  0  0  0  0  0  0  0  0
  195.9910  176.6250  143.7530 N   0  0  0  0  0  1  0  0  0  0  0  0
  185.3030  177.7830  145.0550 C   0  0  0  0  0  3  0  0  0  0  0  0
  184.3240  178.2190  145.9530 C   0  0  0  0  0  3  0  0  0  0  0  0
  186.9390  177.7890  146.8490 C   0  0  0  0  0  3  0  0  0  0  0  0
  185.9550  178.2280  147.7440 C   0  0  0  0  0  3  0  0  0  0  0  0
  184.6500  178.4530  147.2930 C   0  0  0  0  0  3  0  0  0  0  0  0
  186.6140  177.5690  145.4970 C   0  0  0  0  0  0  0  0  0  0  0  0
  189.2440  172.0220  138.8290 C   0  0  0  0  0  2  0  0  0  0  0  0
  190.3530  172.6220  137.9640 C   0  0  0  0  0  2  0  0  0  0  0  0
  192.2300  169.7010  135.4770 C   0  0  0  0  0  3  0  0  0  0  0  0
  190.9880  171.5660  137.1170 C   0  0  0  0  0  0  0  0  0  0  0  0
  192.1880  171.0190  137.4730 N   0  0  0  0  0  0  0  0  0  0  0  0
  190.9930  170.2320  135.1120 C   0  0  0  0  0  3  0  0  0  0  0  0
  192.8130  170.1040  136.6880 C   0  0  0  0  0  3  0  0  0  0  0  0
  190.3640  171.1640  135.9340 C   0  0  0  0  0  3  0  0  0  0  0  0
  1 48  1  6  0  0  0
  1 21  1  0  0  0  0
  1  2  1  0  0  0  0
  2  3  1  0  0  0  0
  3  5  1  0  0  0  0
  5  4  2  0  0  0  0
  6  5  2  0  0  0  0
  8 13  1  6  0  0  0
  8 15  1  0  0  0  0
  8  5  1  0  0  0  0
  8  9  1  0  0  0  0
 10  9  1  1  0  0  0
 10 11  1  0  0  0  0
 11 19  1  0  0  0  0
 11 14  1  1  0  0  0
 12  7  1  6  0  0  0
 12 10  1  0  0  0  0
 12 11  1  0  0  0  0
 15 16  1  6  0  0  0
 15 12  1  0  0  0  0
 17 16  2  0  0  0  0
 18 16  1  0  0  0  0
 19 20  1  0  0  0  0
 22 21  1  0  0  0  0
 22 25  1  0  0  0  0
 23 26  2  0  0  0  0
 25 26  1  0  0  0  0
 26 24  1  0  0  0  0
 27 24  1  6  0  0  0
 27 36  1  0  0  0  0
 27 47  1  0  0  0  0
 29 35  1  0  0  0  0
 30 28  2  0  0  0  0
 31 36  2  0  0  0  0
 31 37  1  0  0  0  0
 32 28  1  0  0  0  0
 32 34  1  0  0  0  0
 33 31  1  0  0  0  0
 35 38  1  6  0  0  0
 35 34  1  0  0  0  0
 36 30  1  0  0  0  0
 37 29  1  0  0  0  0
 37 32  2  0  0  0  0
 39 38  1  0  0  0  0
 39 40  2  0  0  0  0
 41 39  1  0  0  0  0
 42 47  2  0  0  0  0
 42 43  1  0  0  0  0
 43 46  2  0  0  0  0
 44 45  2  0  0  0  0
 46 45  1  0  0  0  0
 47 44  1  0  0  0  0
 49 48  1  0  0  0  0
 50 54  1  0  0  0  0
 51 52  1  0  0  0  0
 51 49  1  0  0  0  0
 53 50  2  0  0  0  0
 53 55  1  0  0  0  0
 54 52  2  0  0  0  0
 55 51  2  0  0  0  0
M  END
>  <MODEL>
4

>  <REMARK>
 VINA RESULT:      -6.4      2.475      4.124
  Name = 
  17 active torsions:
  status: ('A' for Active; 'I' for Inactive)
    1  A    between atoms: C_1  and  C_53
    2  A    between atoms: N_4  and  C_35
    3  A    between atoms: N_4  and  N_37
    4  A    between atoms: C_6  and  S_20
    5  A    between atoms: C_8  and  N_22
    6  A    between atoms: C_8  and  C_43
    7  A    between atoms: C_10  and  C_32
    8  A    between atoms: O_11  and  C_29
    9  A    between atoms: N_19  and  C_45
   10  A    between atoms: S_20  and  N_22
   11  A    between atoms: C_26  and  C_45
   12  A    between atoms: C_27  and  C_51
   13  A    between atoms: C_32  and  C_48
   14  A    between atoms: C_35  and  C_43
   15  A    between atoms: C_43  and  C_54
   16  A    between atoms: C_45  and  C_49
   17  A    between atoms: C_51  and  C_54
                            x       y       z     vdW  Elec       q    Type
                         _______ _______ _______ _____ _____    ______ ____

>  <TORSDO>
F 17

$$$$
=
 OpenBabel11052419343D

 55 60  0  0  1  0  0  0  0  0999 V2000
  189.9800  172.2400  139.3720 C   0  0  1  0  0  3  0  0  0  0  0  0
  191.4360  171.8730  139.1120 C   0  0  0  0  0  2  0  0  0  0  0  0
  192.3420  172.8770  139.6440 N   0  0  0  0  0  2  0  0  0  0  0  0
  194.1540  170.9810  139.3020 O   0  0  0  0  0  0  0  0  0  0  0  0
  193.7730  172.0940  140.2430 S   0  0  0  0  0  0  0  0  0  0  0  0
  194.8900  173.1020  140.2780 O   0  0  0  0  0  0  0  0  0  0  0  0
  193.6450  172.0040  145.3640 O   0  0  0  0  0  1  0  0  0  0  0  0
  193.5370  171.4320  141.8960 C   0  0  1  0  0  0  0  0  0  0  0  0
  192.1590  171.4680  142.2110 O   0  0  0  0  0  0  0  0  0  0  0  0
  192.0540  171.6810  143.6030 C   0  0  2  0  0  3  0  0  0  0  0  0
  191.9680  173.1640  143.9330 C   0  0  1  0  0  0  0  0  0  0  0  0
  193.2930  172.4290  144.0770 C   0  0  1  0  0  0  0  0  0  0  0  0
  193.9770  170.1020  141.9360 O   0  0  0  0  0  1  0  0  0  0  0  0
  191.8400  174.0310  142.8320 O   0  0  0  0  0  1  0  0  0  0  0  0
  194.2680  172.3010  142.9230 C   0  0  1  0  0  3  0  0  0  0  0  0
  195.6470  171.8040  143.2970 C   0  0  0  0  0  0  0  0  0  0  0  0
  196.6510  172.5630  143.2120 O   0  0  0  0  0  0  0  0  0  0  0  0
  195.7790  170.5400  143.8580 O   0  0  0  0  0  1  0  0  0  0  0  0
  191.2650  173.4330  145.1310 O   0  0  0  0  0  0  0  0  0  0  0  0
  189.8990  173.2160  144.9210 C   0  0  0  0  0  1  0  0  0  0  0  0
  189.8950  173.6130  140.0660 C   0  0  0  0  0  2  0  0  0  0  0  0
  188.5360  174.1460  140.0720 N   0  0  0  0  0  2  0  0  0  0  0  0
  187.6650  176.6460  140.9920 O   0  0  0  0  0  0  0  0  0  0  0  0
  187.4790  175.9250  143.2060 N   0  0  0  0  0  2  0  0  0  0  0  0
  188.2570  174.4240  141.4130 N   0  0  0  0  0  2  0  0  0  0  0  0
  187.8060  175.7190  141.8310 C   0  0  0  0  0  0  0  0  0  0  0  0
  187.7950  177.1550  143.9180 C   0  0  2  0  0  3  0  0  0  0  0  0
  190.3030  176.4310  146.6700 N   0  0  0  0  0  0  0  0  0  0  0  0
  192.7940  177.1690  144.2560 O   0  0  0  0  0  0  0  0  0  0  0  0
  189.1220  176.6120  146.0100 C   0  0  0  0  0  3  0  0  0  0  0  0
  190.3250  177.2320  143.9850 C   0  0  0  0  0  0  0  0  0  0  0  0
  191.4720  176.6290  146.0090 C   0  0  0  0  0  0  0  0  0  0  0  0
  190.3660  177.6170  142.6820 F   0  0  0  0  0  0  0  0  0  0  0  0
  192.8470  176.5280  146.5470 C   0  0  0  0  0  2  0  0  0  0  0  0
  193.7110  176.8760  145.3110 C   0  0  1  0  0  3  0  0  0  0  0  0
  189.1010  177.0120  144.6490 C   0  0  0  0  0  0  0  0  0  0  0  0
  191.4990  177.0220  144.7050 C   0  0  0  0  0  0  0  0  0  0  0  0
  194.6000  175.7000  144.9200 C   0  0  0  0  0  2  0  0  0  0  0  0
  195.2860  175.9670  143.6240 C   0  0  0  0  0  0  0  0  0  0  0  0
  194.7070  175.6970  142.5390 O   0  0  0  0  0  0  0  0  0  0  0  0
  196.6030  176.5090  143.6070 N   0  0  0  0  0  1  0  0  0  0  0  0
  186.0250  176.6290  145.5900 C   0  0  0  0  0  3  0  0  0  0  0  0
  184.9250  176.9910  146.3730 C   0  0  0  0  0  3  0  0  0  0  0  0
  186.2450  178.9300  144.8480 C   0  0  0  0  0  3  0  0  0  0  0  0
  185.1410  179.2870  145.6330 C   0  0  0  0  0  3  0  0  0  0  0  0
  184.4740  178.3150  146.3870 C   0  0  0  0  0  3  0  0  0  0  0  0
  186.6880  177.5950  144.8230 C   0  0  0  0  0  0  0  0  0  0  0  0
  189.2080  172.1880  138.0520 C   0  0  0  0  0  2  0  0  0  0  0  0
  190.1140  171.9990  136.8340 C   0  0  0  0  0  2  0  0  0  0  0  0
  190.3780  175.6530  134.6390 C   0  0  0  0  0  3  0  0  0  0  0  0
  190.1840  173.2580  136.0300 C   0  0  0  0  0  0  0  0  0  0  0  0
  191.2450  173.4960  135.2040 N   0  0  0  0  0  0  0  0  0  0  0  0
  189.2760  175.4140  135.4600 C   0  0  0  0  0  3  0  0  0  0  0  0
  191.3610  174.6600  134.5130 C   0  0  0  0  0  3  0  0  0  0  0  0
  189.1710  174.2120  136.1550 C   0  0  0  0  0  3  0  0  0  0  0  0
  1 48  1  6  0  0  0
  1 21  1  0  0  0  0
  2  1  1  0  0  0  0
  2  3  1  0  0  0  0
  3  5  1  0  0  0  0
  4  5  2  0  0  0  0
  5  6  2  0  0  0  0
  5  8  1  0  0  0  0
  8 13  1  1  0  0  0
  8  9  1  0  0  0  0
  8 15  1  0  0  0  0
 10  9  1  6  0  0  0
 10 11  1  0  0  0  0
 10 12  1  0  0  0  0
 11 14  1  6  0  0  0
 11 12  1  0  0  0  0
 11 19  1  0  0  0  0
 12  7  1  1  0  0  0
 15 16  1  1  0  0  0
 15 12  1  0  0  0  0
 16 18  1  0  0  0  0
 17 16  2  0  0  0  0
 20 19  1  0  0  0  0
 21 22  1  0  0  0  0
 22 25  1  0  0  0  0
 23 26  2  0  0  0  0
 25 26  1  0  0  0  0
 26 24  1  0  0  0  0
 27 24  1  1  0  0  0
 27 36  1  0  0  0  0
 27 47  1  0  0  0  0
 29 37  1  0  0  0  0
 29 35  1  0  0  0  0
 30 28  1  0  0  0  0
 31 36  1  0  0  0  0
 31 37  2  0  0  0  0
 32 34  1  0  0  0  0
 32 28  2  0  0  0  0
 33 31  1  0  0  0  0
 35 38  1  6  0  0  0
 35 34  1  0  0  0  0
 36 30  2  0  0  0  0
 37 32  1  0  0  0  0
 39 38  1  0  0  0  0
 40 39  2  0  0  0  0
 41 39  1  0  0  0  0
 42 43  1  0  0  0  0
 43 46  2  0  0  0  0
 44 45  2  0  0  0  0
 45 46  1  0  0  0  0
 47 44  1  0  0  0  0
 47 42  2  0  0  0  0
 49 48  1  0  0  0  0
 50 53  1  0  0  0  0
 51 55  1  0  0  0  0
 51 49  1  0  0  0  0
 52 51  2  0  0  0  0
 53 55  2  0  0  0  0
 54 50  2  0  0  0  0
 54 52  1  0  0  0  0
M  END
>  <MODEL>
5

>  <REMARK>
 VINA RESULT:      -6.3      1.983      4.387
  Name = 
  17 active torsions:
  status: ('A' for Active; 'I' for Inactive)
    1  A    between atoms: C_1  and  C_53
    2  A    between atoms: N_4  and  C_35
    3  A    between atoms: N_4  and  N_37
    4  A    between atoms: C_6  and  S_20
    5  A    between atoms: C_8  and  N_22
    6  A    between atoms: C_8  and  C_43
    7  A    between atoms: C_10  and  C_32
    8  A    between atoms: O_11  and  C_29
    9  A    between atoms: N_19  and  C_45
   10  A    between atoms: S_20  and  N_22
   11  A    between atoms: C_26  and  C_45
   12  A    between atoms: C_27  and  C_51
   13  A    between atoms: C_32  and  C_48
   14  A    between atoms: C_35  and  C_43
   15  A    between atoms: C_43  and  C_54
   16  A    between atoms: C_45  and  C_49
   17  A    between atoms: C_51  and  C_54
                            x       y       z     vdW  Elec       q    Type
                         _______ _______ _______ _____ _____    ______ ____

>  <TORSDO>
F 17

$$$$
=
 OpenBabel11052419343D

 55 60  0  0  1  0  0  0  0  0999 V2000
  190.2460  172.0800  140.6010 C   0  0  1  0  0  3  0  0  0  0  0  0
  190.9140  171.2460  141.6880 C   0  0  0  0  0  2  0  0  0  0  0  0
  192.1780  171.8280  142.1050 N   0  0  0  0  0  2  0  0  0  0  0  0
  191.4660  172.1000  144.6370 O   0  0  0  0  0  0  0  0  0  0  0  0
  192.4800  171.4090  143.7640 S   0  0  0  0  0  0  0  0  0  0  0  0
  192.3160  169.9210  143.9180 O   0  0  0  0  0  0  0  0  0  0  0  0
  197.5840  171.1850  144.1430 O   0  0  0  0  0  1  0  0  0  0  0  0
  194.1370  171.8660  144.2840 C   0  0  1  0  0  0  0  0  0  0  0  0
  194.5940  172.9300  143.4730 O   0  0  0  0  0  0  0  0  0  0  0  0
  195.9930  172.7860  143.3430 C   0  0  2  0  0  3  0  0  0  0  0  0
  196.3550  171.9570  142.1190 C   0  0  1  0  0  0  0  0  0  0  0  0
  196.3480  171.3140  143.4990 C   0  0  1  0  0  0  0  0  0  0  0  0
  194.1090  172.2930  145.6190 O   0  0  0  0  0  1  0  0  0  0  0  0
  195.2880  171.6310  141.2610 O   0  0  0  0  0  1  0  0  0  0  0  0
  195.0970  170.6900  144.0860 C   0  0  1  0  0  3  0  0  0  0  0  0
  195.3180  169.8450  145.3210 C   0  0  0  0  0  0  0  0  0  0  0  0
  194.7970  168.7010  145.4220 O   0  0  0  0  0  0  0  0  0  0  0  0
  196.2070  170.2900  146.2920 O   0  0  0  0  0  1  0  0  0  0  0  0
  197.6230  172.2760  141.5800 O   0  0  0  0  0  0  0  0  0  0  0  0
  197.7340  171.7170  140.3020 C   0  0  0  0  0  1  0  0  0  0  0  0
  189.9010  173.4800  141.1440 C   0  0  0  0  0  2  0  0  0  0  0  0
  188.5410  173.8860  140.8020 N   0  0  0  0  0  2  0  0  0  0  0  0
  188.4140  176.5400  141.6910 O   0  0  0  0  0  0  0  0  0  0  0  0
  187.2490  175.9830  143.6370 N   0  0  0  0  0  2  0  0  0  0  0  0
  187.9580  174.2710  142.0130 N   0  0  0  0  0  2  0  0  0  0  0  0
  187.9110  175.6450  142.4180 C   0  0  0  0  0  0  0  0  0  0  0  0
  187.7450  177.0020  144.5500 C   0  0  2  0  0  3  0  0  0  0  0  0
  190.1670  174.9360  146.6120 N   0  0  0  0  0  0  0  0  0  0  0  0
  192.6720  177.1610  145.4500 O   0  0  0  0  0  0  0  0  0  0  0  0
  189.0120  175.3960  146.0510 C   0  0  0  0  0  3  0  0  0  0  0  0
  190.2350  177.2000  144.9650 C   0  0  0  0  0  0  0  0  0  0  0  0
  191.3360  175.5760  146.3520 C   0  0  0  0  0  0  0  0  0  0  0  0
  190.2990  178.2990  144.1670 F   0  0  0  0  0  0  0  0  0  0  0  0
  192.6800  175.2670  146.8900 C   0  0  0  0  0  2  0  0  0  0  0  0
  193.5590  176.3530  146.2260 C   0  0  1  0  0  3  0  0  0  0  0  0
  189.0160  176.5370  145.2070 C   0  0  0  0  0  0  0  0  0  0  0  0
  191.3850  176.6800  145.5560 C   0  0  0  0  0  0  0  0  0  0  0  0
  194.6160  175.7220  145.3250 C   0  0  0  0  0  2  0  0  0  0  0  0
  195.4170  176.7750  144.6370 C   0  0  0  0  0  0  0  0  0  0  0  0
  195.5780  177.8980  145.1820 O   0  0  0  0  0  0  0  0  0  0  0  0
  195.9830  176.5220  143.3540 N   0  0  0  0  0  1  0  0  0  0  0  0
  185.4560  176.8180  145.5160 C   0  0  0  0  0  3  0  0  0  0  0  0
  184.4430  177.2590  146.3720 C   0  0  0  0  0  3  0  0  0  0  0  0
  186.9600  178.4770  146.4550 C   0  0  0  0  0  3  0  0  0  0  0  0
  185.9400  178.9160  147.3100 C   0  0  0  0  0  3  0  0  0  0  0  0
  184.6780  178.3130  147.2600 C   0  0  0  0  0  3  0  0  0  0  0  0
  186.7170  177.4260  145.5500 C   0  0  0  0  0  0  0  0  0  0  0  0
  191.1590  172.1230  139.3730 C   0  0  0  0  0  2  0  0  0  0  0  0
  191.4450  173.5450  138.8870 C   0  0  0  0  0  2  0  0  0  0  0  0
  195.5230  174.6700  139.4740 C   0  0  0  0  0  3  0  0  0  0  0  0
  192.8800  173.8980  139.1140 C   0  0  0  0  0  0  0  0  0  0  0  0
  193.2640  174.5500  140.2510 N   0  0  0  0  0  0  0  0  0  0  0  0
  195.1520  173.9830  138.3180 C   0  0  0  0  0  3  0  0  0  0  0  0
  194.5510  174.9360  140.4500 C   0  0  0  0  0  3  0  0  0  0  0  0
  193.8290  173.5890  138.1360 C   0  0  0  0  0  3  0  0  0  0  0  0
  1 48  1  6  0  0  0
  1 21  1  0  0  0  0
  1  2  1  0  0  0  0
  2  3  1  0  0  0  0
  3  5  1  0  0  0  0
  5  6  2  0  0  0  0
  5  8  1  0  0  0  0
  5  4  2  0  0  0  0
  8 13  1  1  0  0  0
  9  8  1  0  0  0  0
 10  9  1  6  0  0  0
 10 12  1  0  0  0  0
 11 14  1  6  0  0  0
 11 10  1  0  0  0  0
 11 12  1  0  0  0  0
 12 15  1  0  0  0  0
 12  7  1  1  0  0  0
 15  8  1  0  0  0  0
 15 16  1  1  0  0  0
 16 17  2  0  0  0  0
 16 18  1  0  0  0  0
 19 11  1  0  0  0  0
 20 19  1  0  0  0  0
 22 21  1  0  0  0  0
 22 25  1  0  0  0  0
 23 26  2  0  0  0  0
 25 26  1  0  0  0  0
 26 24  1  0  0  0  0
 27 24  1  1  0  0  0
 27 36  1  0  0  0  0
 27 47  1  0  0  0  0
 29 37  1  0  0  0  0
 29 35  1  0  0  0  0
 30 28  2  0  0  0  0
 31 36  2  0  0  0  0
 31 37  1  0  0  0  0
 32 28  1  0  0  0  0
 32 34  1  0  0  0  0
 33 31  1  0  0  0  0
 35 38  1  6  0  0  0
 35 34  1  0  0  0  0
 36 30  1  0  0  0  0
 37 32  2  0  0  0  0
 39 40  2  0  0  0  0
 39 38  1  0  0  0  0
 41 39  1  0  0  0  0
 42 47  2  0  0  0  0
 42 43  1  0  0  0  0
 43 46  2  0  0  0  0
 44 45  2  0  0  0  0
 46 45  1  0  0  0  0
 47 44  1  0  0  0  0
 49 51  1  0  0  0  0
 49 48  1  0  0  0  0
 50 54  1  0  0  0  0
 51 52  1  0  0  0  0
 52 54  2  0  0  0  0
 53 50  2  0  0  0  0
 55 53  1  0  0  0  0
 55 51  2  0  0  0  0
M  END
>  <MODEL>
6

>  <REMARK>
 VINA RESULT:      -6.2      2.508      4.154
  Name = 
  17 active torsions:
  status: ('A' for Active; 'I' for Inactive)
    1  A    between atoms: C_1  and  C_53
    2  A    between atoms: N_4  and  C_35
    3  A    between atoms: N_4  and  N_37
    4  A    between atoms: C_6  and  S_20
    5  A    between atoms: C_8  and  N_22
    6  A    between atoms: C_8  and  C_43
    7  A    between atoms: C_10  and  C_32
    8  A    between atoms: O_11  and  C_29
    9  A    between atoms: N_19  and  C_45
   10  A    between atoms: S_20  and  N_22
   11  A    between atoms: C_26  and  C_45
   12  A    between atoms: C_27  and  C_51
   13  A    between atoms: C_32  and  C_48
   14  A    between atoms: C_35  and  C_43
   15  A    between atoms: C_43  and  C_54
   16  A    between atoms: C_45  and  C_49
   17  A    between atoms: C_51  and  C_54
                            x       y       z     vdW  Elec       q    Type
                         _______ _______ _______ _____ _____    ______ ____

>  <TORSDO>
F 17

$$$$
=
 OpenBabel11052419343D

 55 60  0  0  1  0  0  0  0  0999 V2000
  195.6970  175.9830  144.1750 C   0  0  1  0  0  3  0  0  0  0  0  0
  196.3450  175.7330  142.8180 C   0  0  0  0  0  2  0  0  0  0  0  0
  195.3920  175.1940  141.8630 N   0  0  0  0  0  2  0  0  0  0  0  0
  197.4800  173.7520  141.1210 O   0  0  0  0  0  0  0  0  0  0  0  0
  195.9820  173.6750  141.2630 S   0  0  0  0  0  0  0  0  0  0  0  0
  195.6460  172.6020  142.2630 O   0  0  0  0  0  0  0  0  0  0  0  0
  193.6090  174.3480  136.7720 O   0  0  0  0  0  1  0  0  0  0  0  0
  195.2470  173.2440  139.6820 C   0  0  1  0  0  0  0  0  0  0  0  0
  196.2740  173.1080  138.7200 O   0  0  0  0  0  0  0  0  0  0  0  0
  195.7400  173.5120  137.4770 C   0  0  2  0  0  3  0  0  0  0  0  0
  195.9700  174.9950  137.2280 C   0  0  1  0  0  0  0  0  0  0  0  0
  194.6170  174.5100  137.7290 C   0  0  1  0  0  0  0  0  0  0  0  0
  194.5700  172.0220  139.7970 O   0  0  0  0  0  1  0  0  0  0  0  0
  196.7940  175.6530  138.1600 O   0  0  0  0  0  1  0  0  0  0  0  0
  194.3160  174.3630  139.2080 C   0  0  1  0  0  3  0  0  0  0  0  0
  192.8580  174.1550  139.5510 C   0  0  0  0  0  0  0  0  0  0  0  0
  192.0630  173.6490  138.7120 O   0  0  0  0  0  0  0  0  0  0  0  0
  192.4270  174.4080  140.8470 O   0  0  0  0  0  1  0  0  0  0  0  0
  196.0500  175.3290  135.8550 O   0  0  0  0  0  0  0  0  0  0  0  0
  196.9330  176.4010  135.6920 C   0  0  0  0  0  1  0  0  0  0  0  0
  194.1840  176.2260  144.0030 C   0  0  0  0  0  2  0  0  0  0  0  0
  193.6550  177.1460  145.0060 N   0  0  0  0  0  2  0  0  0  0  0  0
  191.4120  176.1800  146.3800 O   0  0  0  0  0  0  0  0  0  0  0  0
  189.9010  177.2280  144.9410 N   0  0  0  0  0  2  0  0  0  0  0  0
  192.3370  177.3980  144.6130 N   0  0  0  0  0  2  0  0  0  0  0  0
  191.2240  176.8870  145.3570 C   0  0  0  0  0  0  0  0  0  0  0  0
  188.7920  176.2870  144.9820 C   0  0  2  0  0  3  0  0  0  0  0  0
  188.5410  175.0220  141.4140 N   0  0  0  0  0  0  0  0  0  0  0  0
  189.8460  171.9710  142.6650 O   0  0  0  0  0  0  0  0  0  0  0  0
  188.4510  175.8310  142.5090 C   0  0  0  0  0  3  0  0  0  0  0  0
  189.3240  174.0500  143.9220 C   0  0  0  0  0  0  0  0  0  0  0  0
  189.0240  173.7610  141.5560 C   0  0  0  0  0  0  0  0  0  0  0  0
  189.7140  173.5520  145.1260 F   0  0  0  0  0  0  0  0  0  0  0  0
  189.1620  172.7200  140.5120 C   0  0  0  0  0  2  0  0  0  0  0  0
  189.7520  171.5310  141.3090 C   0  0  1  0  0  3  0  0  0  0  0  0
  188.8450  175.3680  143.7920 C   0  0  0  0  0  0  0  0  0  0  0  0
  189.4040  173.2720  142.7680 C   0  0  0  0  0  0  0  0  0  0  0  0
  191.1340  171.1560  140.7830 C   0  0  0  0  0  2  0  0  0  0  0  0
  191.8700  170.3310  141.7830 C   0  0  0  0  0  0  0  0  0  0  0  0
  192.8310  170.8310  142.4240 O   0  0  0  0  0  0  0  0  0  0  0  0
  191.5040  168.9720  142.0010 N   0  0  0  0  0  1  0  0  0  0  0  0
  187.2800  178.2000  144.4700 C   0  0  0  0  0  3  0  0  0  0  0  0
  186.0880  178.9080  144.6480 C   0  0  0  0  0  3  0  0  0  0  0  0
  186.4440  176.4430  145.9230 C   0  0  0  0  0  3  0  0  0  0  0  0
  185.2520  177.1570  146.0990 C   0  0  0  0  0  3  0  0  0  0  0  0
  185.0790  178.3950  145.4690 C   0  0  0  0  0  3  0  0  0  0  0  0
  187.4660  176.9680  145.1080 C   0  0  0  0  0  0  0  0  0  0  0  0
  196.0110  174.8080  145.1030 C   0  0  0  0  0  2  0  0  0  0  0  0
  194.7860  173.9510  145.4230 C   0  0  0  0  0  2  0  0  0  0  0  0
  195.9460  169.8770  145.9690 C   0  0  0  0  0  3  0  0  0  0  0  0
  195.1860  172.5300  145.6600 C   0  0  0  0  0  0  0  0  0  0  0  0
  196.4970  172.2020  145.8600 N   0  0  0  0  0  0  0  0  0  0  0  0
  194.6000  170.1980  145.7910 C   0  0  0  0  0  3  0  0  0  0  0  0
  196.8920  170.9120  146.0150 C   0  0  0  0  0  3  0  0  0  0  0  0
  194.2140  171.5270  145.6410 C   0  0  0  0  0  3  0  0  0  0  0  0
  1  2  1  6  0  0  0
  1 48  1  0  0  0  0
  3  2  1  0  0  0  0
  4  5  2  0  0  0  0
  5  3  1  0  0  0  0
  5  6  2  0  0  0  0
  8 13  1  1  0  0  0
  8  5  1  0  0  0  0
  9  8  1  0  0  0  0
 10 12  1  0  0  0  0
 10  9  1  1  0  0  0
 11 10  1  0  0  0  0
 11 12  1  0  0  0  0
 11 14  1  1  0  0  0
 12  7  1  6  0  0  0
 12 15  1  0  0  0  0
 15 16  1  6  0  0  0
 15  8  1  0  0  0  0
 16 18  1  0  0  0  0
 17 16  2  0  0  0  0
 19 11  1  0  0  0  0
 20 19  1  0  0  0  0
 21  1  1  0  0  0  0
 21 22  1  0  0  0  0
 24 26  1  0  0  0  0
 25 22  1  0  0  0  0
 25 26  1  0  0  0  0
 26 23  2  0  0  0  0
 27 24  1  6  0  0  0
 27 47  1  0  0  0  0
 28 32  2  0  0  0  0
 28 30  1  0  0  0  0
 29 37  1  0  0  0  0
 30 36  2  0  0  0  0
 31 33  1  0  0  0  0
 32 37  1  0  0  0  0
 34 35  1  0  0  0  0
 34 32  1  0  0  0  0
 35 38  1  6  0  0  0
 35 29  1  0  0  0  0
 36 31  1  0  0  0  0
 36 27  1  0  0  0  0
 37 31  2  0  0  0  0
 38 39  1  0  0  0  0
 39 41  1  0  0  0  0
 39 40  2  0  0  0  0
 42 43  2  0  0  0  0
 42 47  1  0  0  0  0
 43 46  1  0  0  0  0
 44 45  1  0  0  0  0
 46 45  2  0  0  0  0
 47 44  2  0  0  0  0
 48 49  1  0  0  0  0
 49 51  1  0  0  0  0
 50 54  1  0  0  0  0
 51 52  1  0  0  0  0
 52 54  2  0  0  0  0
 53 50  2  0  0  0  0
 55 51  2  0  0  0  0
 55 53  1  0  0  0  0
M  END
>  <MODEL>
7

>  <REMARK>
 VINA RESULT:      -6.2      2.455      5.329
  Name = 
  17 active torsions:
  status: ('A' for Active; 'I' for Inactive)
    1  A    between atoms: C_1  and  C_53
    2  A    between atoms: N_4  and  C_35
    3  A    between atoms: N_4  and  N_37
    4  A    between atoms: C_6  and  S_20
    5  A    between atoms: C_8  and  N_22
    6  A    between atoms: C_8  and  C_43
    7  A    between atoms: C_10  and  C_32
    8  A    between atoms: O_11  and  C_29
    9  A    between atoms: N_19  and  C_45
   10  A    between atoms: S_20  and  N_22
   11  A    between atoms: C_26  and  C_45
   12  A    between atoms: C_27  and  C_51
   13  A    between atoms: C_32  and  C_48
   14  A    between atoms: C_35  and  C_43
   15  A    between atoms: C_43  and  C_54
   16  A    between atoms: C_45  and  C_49
   17  A    between atoms: C_51  and  C_54
                            x       y       z     vdW  Elec       q    Type
                         _______ _______ _______ _____ _____    ______ ____

>  <TORSDO>
F 17

$$$$
=
 OpenBabel11052419343D

 55 60  0  0  1  0  0  0  0  0999 V2000
  187.7590  177.3230  141.6700 C   0  0  1  0  0  3  0  0  0  0  0  0
  188.9770  177.9820  142.3070 C   0  0  0  0  0  2  0  0  0  0  0  0
  189.3510  177.3250  143.5470 N   0  0  0  0  0  2  0  0  0  0  0  0
  191.6510  176.7450  142.3800 O   0  0  0  0  0  0  0  0  0  0  0  0
  191.0830  177.2780  143.6690 S   0  0  0  0  0  0  0  0  0  0  0  0
  191.5860  178.6810  143.8750 O   0  0  0  0  0  0  0  0  0  0  0  0
  193.2750  173.3270  146.0860 O   0  0  0  0  0  1  0  0  0  0  0  0
  191.6350  176.2570  145.0400 C   0  0  1  0  0  0  0  0  0  0  0  0
  192.8430  176.7860  145.5480 O   0  0  0  0  0  0  0  0  0  0  0  0
  193.6090  175.6980  146.0240 C   0  0  2  0  0  3  0  0  0  0  0  0
  194.5300  175.1510  144.9430 C   0  0  1  0  0  0  0  0  0  0  0  0
  193.2140  174.4480  145.2490 C   0  0  1  0  0  0  0  0  0  0  0  0
  190.6690  176.2760  146.0560 O   0  0  0  0  0  1  0  0  0  0  0  0
  194.5880  175.8970  143.7520 O   0  0  0  0  0  1  0  0  0  0  0  0
  191.9210  174.8320  144.5580 C   0  0  1  0  0  3  0  0  0  0  0  0
  190.7750  173.8630  144.7490 C   0  0  0  0  0  0  0  0  0  0  0  0
  189.5960  174.2810  144.9080 O   0  0  0  0  0  1  0  0  0  0  0  0
  191.0170  172.5010  144.6210 O   0  0  0  0  0  0  0  0  0  0  0  0
  195.7010  174.5450  145.4570 O   0  0  0  0  0  0  0  0  0  0  0  0
  196.7660  174.7890  144.5830 C   0  0  0  0  0  1  0  0  0  0  0  0
  187.7190  175.8250  142.0270 C   0  0  0  0  0  2  0  0  0  0  0  0
  188.1850  174.9820  140.9290 N   0  0  0  0  0  2  0  0  0  0  0  0
  190.1300  173.8210  139.2790 O   0  0  0  0  0  0  0  0  0  0  0  0
  191.4920  173.2100  141.0750 N   0  0  0  0  0  2  0  0  0  0  0  0
  189.3370  174.3540  141.4120 N   0  0  0  0  0  2  0  0  0  0  0  0
  190.3060  173.7840  140.5240 C   0  0  0  0  0  0  0  0  0  0  0  0
  192.0990  171.9940  140.5510 C   0  0  2  0  0  3  0  0  0  0  0  0
  192.0020  168.8620  142.6890 N   0  0  0  0  0  0  0  0  0  0  0  0
  194.4390  170.4620  144.7080 O   0  0  0  0  0  0  0  0  0  0  0  0
  191.7230  169.7670  141.7060 C   0  0  0  0  0  3  0  0  0  0  0  0
  193.3120  171.3380  142.6750 C   0  0  0  0  0  0  0  0  0  0  0  0
  192.9220  169.1720  143.6380 C   0  0  0  0  0  0  0  0  0  0  0  0
  193.9650  172.5310  142.6910 F   0  0  0  0  0  0  0  0  0  0  0  0
  193.3340  168.3560  144.8020 C   0  0  0  0  0  2  0  0  0  0  0  0
  194.3880  169.2620  145.4830 C   0  0  1  0  0  3  0  0  0  0  0  0
  192.3750  171.0270  141.6700 C   0  0  0  0  0  0  0  0  0  0  0  0
  193.5640  170.3730  143.6470 C   0  0  0  0  0  0  0  0  0  0  0  0
  195.7570  168.5900  145.4980 C   0  0  0  0  0  2  0  0  0  0  0  0
  196.8030  169.5380  145.9760 C   0  0  0  0  0  0  0  0  0  0  0  0
  196.7790  169.9550  147.1630 O   0  0  0  0  0  0  0  0  0  0  0  0
  197.8200  169.9920  145.0870 N   0  0  0  0  0  1  0  0  0  0  0  0
  193.9690  171.1940  139.1120 C   0  0  0  0  0  3  0  0  0  0  0  0
  195.1640  171.4040  138.4180 C   0  0  0  0  0  3  0  0  0  0  0  0
  193.8730  173.5610  139.6460 C   0  0  0  0  0  3  0  0  0  0  0  0
  195.0720  173.7650  138.9510 C   0  0  0  0  0  3  0  0  0  0  0  0
  195.7230  172.6840  138.3470 C   0  0  0  0  0  3  0  0  0  0  0  0
  193.3190  172.2700  139.7310 C   0  0  0  0  0  0  0  0  0  0  0  0
  186.4990  178.0750  142.1060 C   0  0  0  0  0  2  0  0  0  0  0  0
  185.4690  177.1750  142.7910 C   0  0  0  0  0  2  0  0  0  0  0  0
  185.1440  177.9690  146.9740 C   0  0  0  0  0  3  0  0  0  0  0  0
  185.3880  177.4860  144.2510 C   0  0  0  0  0  0  0  0  0  0  0  0
  186.1870  176.8330  145.1450 N   0  0  0  0  0  0  0  0  0  0  0  0
  184.3370  178.6620  146.0710 C   0  0  0  0  0  3  0  0  0  0  0  0
  186.0870  177.0540  146.4820 C   0  0  0  0  0  3  0  0  0  0  0  0
  184.4600  178.4270  144.7040 C   0  0  0  0  0  3  0  0  0  0  0  0
  1 21  1  1  0  0  0
  1 48  1  0  0  0  0
  1  2  1  0  0  0  0
  2  3  1  0  0  0  0
  3  5  1  0  0  0  0
  4  5  2  0  0  0  0
  5  6  2  0  0  0  0
  5  8  1  0  0  0  0
  8  9  1  0  0  0  0
  8 13  1  1  0  0  0
 10  9  1  6  0  0  0
 11 14  1  6  0  0  0
 11 12  1  0  0  0  0
 11 19  1  0  0  0  0
 11 10  1  0  0  0  0
 12 10  1  0  0  0  0
 12  7  1  1  0  0  0
 15 16  1  1  0  0  0
 15  8  1  0  0  0  0
 15 12  1  0  0  0  0
 16 17  1  0  0  0  0
 18 16  2  0  0  0  0
 20 19  1  0  0  0  0
 22 25  1  0  0  0  0
 22 21  1  0  0  0  0
 23 26  2  0  0  0  0
 26 24  1  0  0  0  0
 26 25  1  0  0  0  0
 27 24  1  1  0  0  0
 27 36  1  0  0  0  0
 28 32  1  0  0  0  0
 29 35  1  0  0  0  0
 30 28  2  0  0  0  0
 31 33  1  0  0  0  0
 31 37  1  0  0  0  0
 32 37  2  0  0  0  0
 32 34  1  0  0  0  0
 34 35  1  0  0  0  0
 35 38  1  6  0  0  0
 36 30  1  0  0  0  0
 36 31  2  0  0  0  0
 37 29  1  0  0  0  0
 38 39  1  0  0  0  0
 39 40  2  0  0  0  0
 41 39  1  0  0  0  0
 42 47  1  0  0  0  0
 43 42  2  0  0  0  0
 44 47  2  0  0  0  0
 45 44  1  0  0  0  0
 46 43  1  0  0  0  0
 46 45  2  0  0  0  0
 47 27  1  0  0  0  0
 48 49  1  0  0  0  0
 49 51  1  0  0  0  0
 51 55  2  0  0  0  0
 51 52  1  0  0  0  0
 52 54  2  0  0  0  0
 53 50  2  0  0  0  0
 54 50  1  0  0  0  0
 55 53  1  0  0  0  0
M  END
>  <MODEL>
8

>  <REMARK>
 VINA RESULT:      -6.1      3.060      7.707
  Name = 
  17 active torsions:
  status: ('A' for Active; 'I' for Inactive)
    1  A    between atoms: C_1  and  C_53
    2  A    between atoms: N_4  and  C_35
    3  A    between atoms: N_4  and  N_37
    4  A    between atoms: C_6  and  S_20
    5  A    between atoms: C_8  and  N_22
    6  A    between atoms: C_8  and  C_43
    7  A    between atoms: C_10  and  C_32
    8  A    between atoms: O_11  and  C_29
    9  A    between atoms: N_19  and  C_45
   10  A    between atoms: S_20  and  N_22
   11  A    between atoms: C_26  and  C_45
   12  A    between atoms: C_27  and  C_51
   13  A    between atoms: C_32  and  C_48
   14  A    between atoms: C_35  and  C_43
   15  A    between atoms: C_43  and  C_54
   16  A    between atoms: C_45  and  C_49
   17  A    between atoms: C_51  and  C_54
                            x       y       z     vdW  Elec       q    Type
                         _______ _______ _______ _____ _____    ______ ____

>  <TORSDO>
F 17

$$$$
=
 OpenBabel11052419343D

 55 60  0  0  1  0  0  0  0  0999 V2000
  187.5870  177.2730  142.0160 C   0  0  1  0  0  3  0  0  0  0  0  0
  188.9330  177.9830  142.0940 C   0  0  0  0  0  2  0  0  0  0  0  0
  189.9540  177.1270  142.6730 N   0  0  0  0  0  2  0  0  0  0  0  0
  191.3560  179.0160  143.8810 O   0  0  0  0  0  0  0  0  0  0  0  0
  190.4940  177.8170  144.1740 S   0  0  0  0  0  0  0  0  0  0  0  0
  189.2880  178.2670  144.9530 O   0  0  0  0  0  0  0  0  0  0  0  0
  193.0880  173.5450  145.3040 O   0  0  0  0  0  1  0  0  0  0  0  0
  191.4170  176.6360  145.1640 C   0  0  1  0  0  0  0  0  0  0  0  0
  192.7640  177.0570  145.2390 O   0  0  0  0  0  0  0  0  0  0  0  0
  193.5620  175.8930  145.3160 C   0  0  2  0  0  3  0  0  0  0  0  0
  193.9900  175.4200  143.9340 C   0  0  1  0  0  0  0  0  0  0  0  0
  192.8200  174.7470  144.6390 C   0  0  1  0  0  0  0  0  0  0  0  0
  190.8830  176.5920  146.4600 O   0  0  0  0  0  1  0  0  0  0  0  0
  193.6770  176.2820  142.8670 O   0  0  0  0  0  1  0  0  0  0  0  0
  191.3990  175.2580  144.4990 C   0  0  1  0  0  3  0  0  0  0  0  0
  190.3260  174.3250  145.0140 C   0  0  0  0  0  0  0  0  0  0  0  0
  189.5470  174.6860  145.9380 O   0  0  0  0  0  1  0  0  0  0  0  0
  190.1220  173.1100  144.3710 O   0  0  0  0  0  0  0  0  0  0  0  0
  195.2160  174.7140  143.9370 O   0  0  0  0  0  0  0  0  0  0  0  0
  196.0040  175.1650  145.0010 C   0  0  0  0  0  1  0  0  0  0  0  0
  187.6560  175.9210  142.7530 C   0  0  0  0  0  2  0  0  0  0  0  0
  187.3940  174.7930  141.8640 N   0  0  0  0  0  2  0  0  0  0  0  0
  187.8230  172.2980  140.6620 O   0  0  0  0  0  0  0  0  0  0  0  0
  190.1250  172.6330  140.4580 N   0  0  0  0  0  2  0  0  0  0  0  0
  188.6550  174.3180  141.4910 N   0  0  0  0  0  2  0  0  0  0  0  0
  188.8200  173.0370  140.8710 C   0  0  0  0  0  0  0  0  0  0  0  0
  190.6100  171.2660  140.5920 C   0  0  2  0  0  3  0  0  0  0  0  0
  193.9520  172.3010  142.0570 N   0  0  0  0  0  0  0  0  0  0  0  0
  193.7070  169.3770  144.0480 O   0  0  0  0  0  0  0  0  0  0  0  0
  192.8250  172.2890  141.2880 C   0  0  0  0  0  3  0  0  0  0  0  0
  192.1170  170.2020  142.3260 C   0  0  0  0  0  0  0  0  0  0  0  0
  194.1600  171.3020  142.9520 C   0  0  0  0  0  0  0  0  0  0  0  0
  191.2420  169.1730  142.4810 F   0  0  0  0  0  0  0  0  0  0  0  0
  195.3260  171.1090  143.8420 C   0  0  0  0  0  2  0  0  0  0  0  0
  194.9590  169.8030  144.5880 C   0  0  1  0  0  3  0  0  0  0  0  0
  191.8740  171.2410  141.4060 C   0  0  0  0  0  0  0  0  0  0  0  0
  193.2790  170.2720  143.0920 C   0  0  0  0  0  0  0  0  0  0  0  0
  194.8250  170.0520  146.0870 C   0  0  0  0  0  2  0  0  0  0  0  0
  194.9110  168.7690  146.8420 C   0  0  0  0  0  0  0  0  0  0  0  0
  193.8590  168.1720  147.1880 O   0  0  0  0  0  0  0  0  0  0  0  0
  196.1810  168.2270  147.1930 N   0  0  0  0  0  1  0  0  0  0  0  0
  192.0510  170.1390  138.9020 C   0  0  0  0  0  3  0  0  0  0  0  0
  192.2590  169.5850  137.6350 C   0  0  0  0  0  3  0  0  0  0  0  0
  189.7060  170.4650  138.3650 C   0  0  0  0  0  3  0  0  0  0  0  0
  189.9200  169.9100  137.0970 C   0  0  0  0  0  3  0  0  0  0  0  0
  191.1990  169.4800  136.7280 C   0  0  0  0  0  3  0  0  0  0  0  0
  190.7760  170.5840  139.2710 C   0  0  0  0  0  0  0  0  0  0  0  0
  186.5010  178.1990  142.5680 C   0  0  0  0  0  2  0  0  0  0  0  0
  185.4770  177.4710  143.4410 C   0  0  0  0  0  2  0  0  0  0  0  0
  186.1940  178.0570  147.6100 C   0  0  0  0  0  3  0  0  0  0  0  0
  185.7700  177.6940  144.8900 C   0  0  0  0  0  0  0  0  0  0  0  0
  186.3730  176.7200  145.6340 N   0  0  0  0  0  0  0  0  0  0  0  0
  185.5990  179.0700  146.8590 C   0  0  0  0  0  3  0  0  0  0  0  0
  186.5920  176.8750  146.9660 C   0  0  0  0  0  3  0  0  0  0  0  0
  185.3890  178.8950  145.4930 C   0  0  0  0  0  3  0  0  0  0  0  0
  1  2  1  1  0  0  0
  1 48  1  0  0  0  0
  1 21  1  0  0  0  0
  2  3  1  0  0  0  0
  3  5  1  0  0  0  0
  4  5  2  0  0  0  0
  5  6  2  0  0  0  0
  5  8  1  0  0  0  0
  8  9  1  0  0  0  0
  8 13  1  1  0  0  0
 10  9  1  6  0  0  0
 11 14  1  6  0  0  0
 11 19  1  0  0  0  0
 11 12  1  0  0  0  0
 11 10  1  0  0  0  0
 12  7  1  1  0  0  0
 12 10  1  0  0  0  0
 15 12  1  0  0  0  0
 15 16  1  1  0  0  0
 15  8  1  0  0  0  0
 16 17  1  0  0  0  0
 18 16  2  0  0  0  0
 19 20  1  0  0  0  0
 22 21  1  0  0  0  0
 23 26  2  0  0  0  0
 24 26  1  0  0  0  0
 25 22  1  0  0  0  0
 26 25  1  0  0  0  0
 27 24  1  6  0  0  0
 27 36  1  0  0  0  0
 28 32  1  0  0  0  0
 29 35  1  0  0  0  0
 30 36  1  0  0  0  0
 30 28  2  0  0  0  0
 31 33  1  0  0  0  0
 31 37  1  0  0  0  0
 32 37  2  0  0  0  0
 32 34  1  0  0  0  0
 34 35  1  0  0  0  0
 35 38  1  1  0  0  0
 36 31  2  0  0  0  0
 37 29  1  0  0  0  0
 38 39  1  0  0  0  0
 39 40  2  0  0  0  0
 39 41  1  0  0  0  0
 42 47  1  0  0  0  0
 43 42  2  0  0  0  0
 44 47  2  0  0  0  0
 45 44  1  0  0  0  0
 46 45  2  0  0  0  0
 46 43  1  0  0  0  0
 47 27  1  0  0  0  0
 48 49  1  0  0  0  0
 49 51  1  0  0  0  0
 51 55  2  0  0  0  0
 51 52  1  0  0  0  0
 52 54  2  0  0  0  0
 53 50  2  0  0  0  0
 54 50  1  0  0  0  0
 55 53  1  0  0  0  0
M  END
>  <MODEL>
9

>  <REMARK>
 VINA RESULT:      -6.1      3.381      7.777
  Name = 
  17 active torsions:
  status: ('A' for Active; 'I' for Inactive)
    1  A    between atoms: C_1  and  C_53
    2  A    between atoms: N_4  and  C_35
    3  A    between atoms: N_4  and  N_37
    4  A    between atoms: C_6  and  S_20
    5  A    between atoms: C_8  and  N_22
    6  A    between atoms: C_8  and  C_43
    7  A    between atoms: C_10  and  C_32
    8  A    between atoms: O_11  and  C_29
    9  A    between atoms: N_19  and  C_45
   10  A    between atoms: S_20  and  N_22
   11  A    between atoms: C_26  and  C_45
   12  A    between atoms: C_27  and  C_51
   13  A    between atoms: C_32  and  C_48
   14  A    between atoms: C_35  and  C_43
   15  A    between atoms: C_43  and  C_54
   16  A    between atoms: C_45  and  C_49
   17  A    between atoms: C_51  and  C_54
                            x       y       z     vdW  Elec       q    Type
                         _______ _______ _______ _____ _____    ______ ____

>  <TORSDO>
F 17

$$$$
