=
 OpenBabel11052419173D

 32 37  0  0  1  0  0  0  0  0999 V2000
  186.7840  176.4800  143.2000 C   0  0  0  0  0  0  0  0  0  0  0  0
  187.8080  176.5900  145.4620 C   0  0  2  0  0  3  0  0  0  0  0  0
  185.7590  176.8110  142.3040 C   0  0  0  0  0  3  0  0  0  0  0  0
  186.7840  177.0510  144.4820 C   0  0  0  0  0  0  0  0  0  0  0  0
  187.9630  177.5060  146.6430 C   0  0  0  0  0  0  0  0  0  0  0  0
  192.2750  174.9000  146.2980 C   0  0  0  0  0  3  0  0  0  0  0  0
  189.1360  176.4060  144.7370 C   0  0  2  0  0  3  0  0  0  0  0  0
  191.1450  176.2820  147.9420 C   0  0  0  0  0  3  0  0  0  0  0  0
  190.1300  176.5520  147.0210 C   0  0  0  0  0  0  0  0  0  0  0  0
  185.7980  177.9700  144.8670 C   0  0  0  0  0  0  0  0  0  0  0  0
  189.0320  177.4150  147.3850 N   0  0  0  0  0  0  0  0  0  0  0  0
  185.8600  178.5970  146.1610 N   0  0  0  0  0  0  0  0  0  0  0  0
  184.7810  178.2980  143.9640 C   0  0  0  0  0  3  0  0  0  0  0  0
  188.9600  175.4880  143.6050 N   0  0  0  0  0  0  0  0  0  0  0  0
  187.8990  175.5570  142.8400 C   0  0  0  0  0  0  0  0  0  0  0  0
  190.1870  175.9850  145.7260 C   0  0  0  0  0  0  0  0  0  0  0  0
  186.8460  178.4100  146.9980 C   0  0  0  0  0  0  0  0  0  0  0  0
  184.7580  177.7140  142.6910 C   0  0  0  0  0  3  0  0  0  0  0  0
  192.2120  175.4520  147.5830 C   0  0  0  0  0  3  0  0  0  0  0  0
  191.2700  175.1740  145.3660 C   0  0  0  0  0  3  0  0  0  0  0  0
  189.4610  172.7190  141.7160 C   0  0  1  0  0  3  0  0  0  0  0  0
  189.4840  172.8120  138.0350 O   0  0  0  0  0  0  0  0  0  0  0  0
  189.8610  171.5420  142.5830 C   0  0  0  0  0  1  0  0  0  0  0  0
  188.2860  174.3660  139.3700 C   0  0  0  0  0  2  0  0  0  0  0  0
  187.7700  174.6410  141.6620 C   0  0  1  0  0  3  0  0  0  0  0  0
  189.5610  172.3420  140.3060 N   0  0  0  0  0  2  0  0  0  0  0  0
  188.6380  175.0980  140.5760 N   0  0  0  0  0  2  0  0  0  0  0  0
  188.0530  173.1920  142.0890 C   0  0  1  0  0  3  0  0  0  0  0  0
  187.0770  172.3360  141.5710 O   0  0  0  0  0  1  0  0  0  0  0  0
  189.1600  173.1610  139.1990 C   0  0  0  0  0  0  0  0  0  0  0  0
  186.8600  179.0940  148.2520 N   0  0  0  0  0  2  0  0  0  0  0  0
  186.2910  180.1960  148.3940 O   0  0  0  0  0  1  0  0  0  0  0  0
  1  4  1  0  0  0  0
  2  4  1  6  0  0  0
  2  5  1  0  0  0  0
  3 18  1  0  0  0  0
  3  1  2  0  0  0  0
  4 10  2  0  0  0  0
  5 17  1  0  0  0  0
  5 11  2  0  0  0  0
  6 19  1  0  0  0  0
  7 14  1  6  0  0  0
  7  2  1  0  0  0  0
  7 16  1  0  0  0  0
  9 11  1  0  0  0  0
  9  8  1  0  0  0  0
 10 12  1  0  0  0  0
 12 17  2  0  0  0  0
 13 10  1  0  0  0  0
 15  1  1  0  0  0  0
 15 14  2  0  0  0  0
 16  9  2  0  0  0  0
 17 31  1  0  0  0  0
 18 13  2  0  0  0  0
 19  8  2  0  0  0  0
 20 16  1  0  0  0  0
 20  6  2  0  0  0  0
 21 28  1  0  0  0  0
 21 23  1  1  0  0  0
 22 30  2  0  0  0  0
 24 27  1  0  0  0  0
 25 28  1  0  0  0  0
 25 15  1  1  0  0  0
 26 21  1  0  0  0  0
 27 25  1  0  0  0  0
 28 29  1  6  0  0  0
 30 24  1  0  0  0  0
 30 26  1  0  0  0  0
 31 32  1  0  0  0  0
M  END
>  <MODEL>
1

>  <REMARK>
 VINA RESULT:      -8.2      0.000      0.000
  Name = 
  2 active torsions:
  status: ('A' for Active; 'I' for Inactive)
    1  A    between atoms: N_13  and  C_29
    2  A    between atoms: C_16  and  C_27
                            x       y       z     vdW  Elec       q    Type
                         _______ _______ _______ _____ _____    ______ ____

>  <TORSDO>
F 2

$$$$
=
 OpenBabel11052419173D

 32 37  0  0  1  0  0  0  0  0999 V2000
  189.3230  175.1890  145.0020 C   0  0  0  0  0  0  0  0  0  0  0  0
  187.5340  176.7650  144.3000 C   0  0  2  0  0  3  0  0  0  0  0  0
  190.0260  174.5030  146.0020 C   0  0  0  0  0  3  0  0  0  0  0  0
  188.1920  175.9410  145.3540 C   0  0  0  0  0  0  0  0  0  0  0  0
  186.1510  177.2190  144.6700 C   0  0  0  0  0  0  0  0  0  0  0  0
  186.3860  177.3640  139.6270 C   0  0  0  0  0  3  0  0  0  0  0  0
  187.5190  175.9760  142.9960 C   0  0  2  0  0  3  0  0  0  0  0  0
  184.9490  178.2340  141.3780 C   0  0  0  0  0  3  0  0  0  0  0  0
  185.7050  177.5570  142.3390 C   0  0  0  0  0  0  0  0  0  0  0  0
  187.7360  175.9900  146.6780 C   0  0  0  0  0  0  0  0  0  0  0  0
  185.3470  177.6430  143.7340 N   0  0  0  0  0  0  0  0  0  0  0  0
  186.5320  176.7100  147.0030 N   0  0  0  0  0  0  0  0  0  0  0  0
  188.4410  175.2990  147.6690 C   0  0  0  0  0  3  0  0  0  0  0  0
  188.8850  175.5680  142.6470 N   0  0  0  0  0  0  0  0  0  0  0  0
  189.7140  175.1350  143.5640 C   0  0  0  0  0  0  0  0  0  0  0  0
  186.8170  176.7800  141.9380 C   0  0  0  0  0  0  0  0  0  0  0  0
  185.7780  177.2800  146.1000 C   0  0  0  0  0  0  0  0  0  0  0  0
  189.5860  174.5640  147.3320 C   0  0  0  0  0  3  0  0  0  0  0  0
  185.2930  178.1430  140.0250 C   0  0  0  0  0  3  0  0  0  0  0  0
  187.1410  176.6740  140.5800 C   0  0  0  0  0  3  0  0  0  0  0  0
  192.9090  176.3600  143.8050 C   0  0  1  0  0  3  0  0  0  0  0  0
  194.7840  175.2460  140.8380 O   0  0  0  0  0  0  0  0  0  0  0  0
  193.4900  177.0430  145.0270 C   0  0  0  0  0  1  0  0  0  0  0  0
  192.6040  174.4710  141.3680 C   0  0  0  0  0  2  0  0  0  0  0  0
  191.0850  174.6780  143.1710 C   0  0  1  0  0  3  0  0  0  0  0  0
  193.9840  176.0320  142.8700 N   0  0  0  0  0  2  0  0  0  0  0  0
  191.4040  175.1550  141.8250 N   0  0  0  0  0  2  0  0  0  0  0  0
  192.1110  175.1210  144.2260 C   0  0  1  0  0  3  0  0  0  0  0  0
  192.9600  174.0590  144.5520 O   0  0  0  0  0  1  0  0  0  0  0  0
  193.8280  175.2860  141.6560 C   0  0  0  0  0  0  0  0  0  0  0  0
  184.5760  177.9460  146.4910 N   0  0  0  0  0  2  0  0  0  0  0  0
  184.5170  178.6070  147.5480 O   0  0  0  0  0  1  0  0  0  0  0  0
  1  4  2  0  0  0  0
  1  3  1  0  0  0  0
  2  5  1  1  0  0  0
  2  4  1  0  0  0  0
  3 18  2  0  0  0  0
  4 10  1  0  0  0  0
  5 17  1  0  0  0  0
  6 19  2  0  0  0  0
  6 20  1  0  0  0  0
  7 16  1  6  0  0  0
  7  2  1  0  0  0  0
  8  9  2  0  0  0  0
  9 11  1  0  0  0  0
 10 12  1  0  0  0  0
 10 13  2  0  0  0  0
 11  5  2  0  0  0  0
 14  7  1  0  0  0  0
 14 15  2  0  0  0  0
 15  1  1  0  0  0  0
 16  9  1  0  0  0  0
 17 31  1  0  0  0  0
 17 12  2  0  0  0  0
 18 13  1  0  0  0  0
 19  8  1  0  0  0  0
 20 16  2  0  0  0  0
 21 28  1  0  0  0  0
 21 23  1  1  0  0  0
 22 30  2  0  0  0  0
 24 30  1  0  0  0  0
 24 27  1  0  0  0  0
 25 15  1  1  0  0  0
 25 28  1  0  0  0  0
 26 21  1  0  0  0  0
 27 25  1  0  0  0  0
 28 29  1  6  0  0  0
 30 26  1  0  0  0  0
 31 32  1  0  0  0  0
M  END
>  <MODEL>
2

>  <REMARK>
 VINA RESULT:      -8.1      2.771      5.385
  Name = 
  2 active torsions:
  status: ('A' for Active; 'I' for Inactive)
    1  A    between atoms: N_13  and  C_29
    2  A    between atoms: C_16  and  C_27
                            x       y       z     vdW  Elec       q    Type
                         _______ _______ _______ _____ _____    ______ ____

>  <TORSDO>
F 2

$$$$
=
 OpenBabel11052419173D

 32 37  0  0  1  0  0  0  0  0999 V2000
  189.5260  175.4940  144.8370 C   0  0  0  0  0  0  0  0  0  0  0  0
  187.5200  176.8700  144.3240 C   0  0  2  0  0  3  0  0  0  0  0  0
  190.3600  174.8440  145.7550 C   0  0  0  0  0  3  0  0  0  0  0  0
  188.3290  176.0730  145.2890 C   0  0  0  0  0  0  0  0  0  0  0  0
  186.1130  177.1200  144.7850 C   0  0  0  0  0  0  0  0  0  0  0  0
  186.0640  177.6070  139.7580 C   0  0  0  0  0  3  0  0  0  0  0  0
  187.5350  176.1680  142.9710 C   0  0  2  0  0  3  0  0  0  0  0  0
  184.6220  178.1760  141.6260 C   0  0  0  0  0  3  0  0  0  0  0  0
  185.5060  177.5430  142.5040 C   0  0  0  0  0  0  0  0  0  0  0  0
  187.9410  175.9810  146.6320 C   0  0  0  0  0  0  0  0  0  0  0  0
  185.2140  177.4950  143.9160 N   0  0  0  0  0  0  0  0  0  0  0  0
  186.6750  176.5190  147.0580 N   0  0  0  0  0  0  0  0  0  0  0  0
  188.7780  175.3250  147.5410 C   0  0  0  0  0  3  0  0  0  0  0  0
  188.9210  175.9600  142.5350 N   0  0  0  0  0  0  0  0  0  0  0  0
  189.8450  175.5800  143.3830 C   0  0  0  0  0  0  0  0  0  0  0  0
  186.6840  176.9400  142.0020 C   0  0  0  0  0  0  0  0  0  0  0  0
  185.8100  177.0430  146.2300 C   0  0  0  0  0  0  0  0  0  0  0  0
  189.9860  174.7650  147.1040 C   0  0  0  0  0  3  0  0  0  0  0  0
  184.9050  178.2140  140.2560 C   0  0  0  0  0  3  0  0  0  0  0  0
  186.9470  176.9610  140.6270 C   0  0  0  0  0  3  0  0  0  0  0  0
  192.1700  173.0780  143.6950 C   0  0  1  0  0  3  0  0  0  0  0  0
  195.5110  174.6270  143.7390 O   0  0  0  0  0  0  0  0  0  0  0  0
  191.8720  171.5960  143.6020 C   0  0  0  0  0  1  0  0  0  0  0  0
  193.5230  175.8310  143.2560 C   0  0  0  0  0  2  0  0  0  0  0  0
  191.2390  175.3270  142.8990 C   0  0  1  0  0  3  0  0  0  0  0  0
  193.6150  173.2910  143.6330 N   0  0  0  0  0  2  0  0  0  0  0  0
  192.2060  175.8360  143.8730 N   0  0  0  0  0  2  0  0  0  0  0  0
  191.4260  173.8340  142.5890 C   0  0  1  0  0  3  0  0  0  0  0  0
  192.0580  173.6720  141.3520 O   0  0  0  0  0  1  0  0  0  0  0  0
  194.2640  174.5700  143.5830 C   0  0  0  0  0  0  0  0  0  0  0  0
  184.5560  177.5260  146.7190 N   0  0  0  0  0  2  0  0  0  0  0  0
  184.4890  178.5530  147.4240 O   0  0  0  0  0  1  0  0  0  0  0  0
  1  4  2  0  0  0  0
  1  3  1  0  0  0  0
  2  5  1  1  0  0  0
  2  4  1  0  0  0  0
  3 18  2  0  0  0  0
  4 10  1  0  0  0  0
  5 17  1  0  0  0  0
  6 19  2  0  0  0  0
  6 20  1  0  0  0  0
  7 16  1  6  0  0  0
  7  2  1  0  0  0  0
  8  9  2  0  0  0  0
  9 11  1  0  0  0  0
 10 12  1  0  0  0  0
 10 13  2  0  0  0  0
 11  5  2  0  0  0  0
 14  7  1  0  0  0  0
 14 15  2  0  0  0  0
 15  1  1  0  0  0  0
 16  9  1  0  0  0  0
 17 31  1  0  0  0  0
 17 12  2  0  0  0  0
 18 13  1  0  0  0  0
 19  8  1  0  0  0  0
 20 16  2  0  0  0  0
 21 23  1  6  0  0  0
 24 30  1  0  0  0  0
 24 27  1  0  0  0  0
 25 15  1  1  0  0  0
 25 27  1  0  0  0  0
 26 21  1  0  0  0  0
 28 29  1  6  0  0  0
 28 25  1  0  0  0  0
 28 21  1  0  0  0  0
 30 26  1  0  0  0  0
 30 22  2  0  0  0  0
 31 32  1  0  0  0  0
M  END
>  <MODEL>
3

>  <REMARK>
 VINA RESULT:      -8.1      2.723      5.359
  Name = 
  2 active torsions:
  status: ('A' for Active; 'I' for Inactive)
    1  A    between atoms: N_13  and  C_29
    2  A    between atoms: C_16  and  C_27
                            x       y       z     vdW  Elec       q    Type
                         _______ _______ _______ _____ _____    ______ ____

>  <TORSDO>
F 2

$$$$
=
 OpenBabel11052419173D

 32 37  0  0  1  0  0  0  0  0999 V2000
  188.7690  175.9630  144.3670 C   0  0  0  0  0  0  0  0  0  0  0  0
  190.8120  175.7170  145.7610 C   0  0  2  0  0  3  0  0  0  0  0  0
  187.4490  176.4000  144.1990 C   0  0  0  0  0  3  0  0  0  0  0  0
  189.4570  176.2980  145.5440 C   0  0  0  0  0  0  0  0  0  0  0  0
  191.5990  176.4150  146.8330 C   0  0  0  0  0  0  0  0  0  0  0  0
  194.9780  174.1060  143.8740 C   0  0  0  0  0  3  0  0  0  0  0  0
  191.5690  175.7220  144.4370 C   0  0  2  0  0  3  0  0  0  0  0  0
  194.9270  175.1240  146.0760 C   0  0  0  0  0  3  0  0  0  0  0  0
  193.5990  175.5070  145.8710 C   0  0  0  0  0  0  0  0  0  0  0  0
  188.8590  177.0890  146.5340 C   0  0  0  0  0  0  0  0  0  0  0  0
  192.8910  176.2420  146.8910 N   0  0  0  0  0  0  0  0  0  0  0  0
  189.6090  177.4800  147.6990 N   0  0  0  0  0  0  0  0  0  0  0  0
  187.5420  177.5250  146.3550 C   0  0  0  0  0  3  0  0  0  0  0  0
  190.7880  175.0120  143.4170 N   0  0  0  0  0  0  0  0  0  0  0  0
  189.4900  175.1680  143.3310 C   0  0  0  0  0  0  0  0  0  0  0  0
  192.9530  175.1810  144.6550 C   0  0  0  0  0  0  0  0  0  0  0  0
  190.8730  177.1910  147.8620 C   0  0  0  0  0  0  0  0  0  0  0  0
  186.8380  177.1750  145.1950 C   0  0  0  0  0  3  0  0  0  0  0  0
  195.6130  174.4180  145.0810 C   0  0  0  0  0  3  0  0  0  0  0  0
  193.6540  174.4960  143.6550 C   0  0  0  0  0  3  0  0  0  0  0  0
  189.9280  172.3800  141.3830 C   0  0  1  0  0  3  0  0  0  0  0  0
  188.4310  173.0480  138.0850 O   0  0  0  0  0  0  0  0  0  0  0  0
  190.4440  171.0440  141.8770 C   0  0  0  0  0  1  0  0  0  0  0  0
  188.1850  174.5010  139.9460 C   0  0  0  0  0  2  0  0  0  0  0  0
  188.7270  174.4700  142.2490 C   0  0  1  0  0  3  0  0  0  0  0  0
  189.3650  172.2210  140.0420 N   0  0  0  0  0  2  0  0  0  0  0  0
  189.1280  174.9880  140.9400 N   0  0  0  0  0  2  0  0  0  0  0  0
  188.9080  172.9490  142.3740 C   0  0  1  0  0  3  0  0  0  0  0  0
  187.6730  172.3030  142.2570 O   0  0  0  0  0  1  0  0  0  0  0  0
  188.6870  173.2440  139.3010 C   0  0  0  0  0  0  0  0  0  0  0  0
  191.5650  177.6440  149.0280 N   0  0  0  0  0  2  0  0  0  0  0  0
  191.1930  178.6620  149.6460 O   0  0  0  0  0  1  0  0  0  0  0  0
  1  4  1  0  0  0  0
  2  4  1  6  0  0  0
  2  5  1  0  0  0  0
  3  1  2  0  0  0  0
  3 18  1  0  0  0  0
  4 10  2  0  0  0  0
  5 11  2  0  0  0  0
  5 17  1  0  0  0  0
  6 19  1  0  0  0  0
  7 14  1  6  0  0  0
  7 16  1  0  0  0  0
  7  2  1  0  0  0  0
  9  8  1  0  0  0  0
  9 11  1  0  0  0  0
 10 12  1  0  0  0  0
 12 17  2  0  0  0  0
 13 10  1  0  0  0  0
 15 14  2  0  0  0  0
 15  1  1  0  0  0  0
 16  9  2  0  0  0  0
 17 31  1  0  0  0  0
 18 13  2  0  0  0  0
 19  8  2  0  0  0  0
 20  6  2  0  0  0  0
 20 16  1  0  0  0  0
 21 23  1  1  0  0  0
 21 28  1  0  0  0  0
 22 30  2  0  0  0  0
 24 27  1  0  0  0  0
 25 28  1  0  0  0  0
 25 15  1  1  0  0  0
 26 21  1  0  0  0  0
 27 25  1  0  0  0  0
 28 29  1  6  0  0  0
 30 24  1  0  0  0  0
 30 26  1  0  0  0  0
 31 32  1  0  0  0  0
M  END
>  <MODEL>
4

>  <REMARK>
 VINA RESULT:      -7.9      1.966      3.027
  Name = 
  2 active torsions:
  status: ('A' for Active; 'I' for Inactive)
    1  A    between atoms: N_13  and  C_29
    2  A    between atoms: C_16  and  C_27
                            x       y       z     vdW  Elec       q    Type
                         _______ _______ _______ _____ _____    ______ ____

>  <TORSDO>
F 2

$$$$
=
 OpenBabel11052419173D

 32 37  0  0  1  0  0  0  0  0999 V2000
  187.2770  177.0450  141.6290 C   0  0  0  0  0  0  0  0  0  0  0  0
  185.5360  177.5030  143.3440 C   0  0  2  0  0  3  0  0  0  0  0  0
  187.6630  176.8790  140.2930 C   0  0  0  0  0  3  0  0  0  0  0  0
  185.9660  177.4570  141.9170 C   0  0  0  0  0  0  0  0  0  0  0  0
  184.2800  178.2960  143.5660 C   0  0  0  0  0  0  0  0  0  0  0  0
  186.7000  178.2040  147.9980 C   0  0  0  0  0  3  0  0  0  0  0  0
  186.6830  178.0490  144.1860 C   0  0  2  0  0  3  0  0  0  0  0  0
  184.4750  178.7330  147.1830 C   0  0  0  0  0  3  0  0  0  0  0  0
  184.9040  178.5230  145.8700 C   0  0  0  0  0  0  0  0  0  0  0  0
  185.0520  177.7370  140.8920 C   0  0  0  0  0  0  0  0  0  0  0  0
  183.9860  178.7000  144.7710 N   0  0  0  0  0  0  0  0  0  0  0  0
  183.7360  178.2270  141.2110 N   0  0  0  0  0  0  0  0  0  0  0  0
  185.4480  177.5740  139.5610 C   0  0  0  0  0  3  0  0  0  0  0  0
  187.8880  177.2400  143.9680 N   0  0  0  0  0  0  0  0  0  0  0  0
  188.2120  176.8220  142.7690 C   0  0  0  0  0  0  0  0  0  0  0  0
  186.2440  178.1430  145.6200 C   0  0  0  0  0  0  0  0  0  0  0  0
  183.3540  178.5010  142.4310 C   0  0  0  0  0  0  0  0  0  0  0  0
  186.7470  177.1390  139.2640 C   0  0  0  0  0  3  0  0  0  0  0  0
  185.3710  178.5680  148.2460 C   0  0  0  0  0  3  0  0  0  0  0  0
  187.1400  178.0030  146.6870 C   0  0  0  0  0  3  0  0  0  0  0  0
  190.1520  174.7090  144.6480 C   0  0  1  0  0  3  0  0  0  0  0  0
  193.6640  175.2000  143.6560 O   0  0  0  0  0  0  0  0  0  0  0  0
  189.6230  173.6170  145.5560 C   0  0  0  0  0  1  0  0  0  0  0  0
  191.8350  176.1800  142.5030 C   0  0  0  0  0  2  0  0  0  0  0  0
  189.4740  176.0410  142.5690 C   0  0  1  0  0  3  0  0  0  0  0  0
  191.5910  174.5330  144.4590 N   0  0  0  0  0  2  0  0  0  0  0  0
  190.6290  176.8480  142.9650 N   0  0  0  0  0  2  0  0  0  0  0  0
  189.3890  174.7030  143.3200 C   0  0  1  0  0  3  0  0  0  0  0  0
  189.8170  173.6580  142.4950 O   0  0  0  0  0  1  0  0  0  0  0  0
  192.4130  175.3110  143.5790 C   0  0  0  0  0  0  0  0  0  0  0  0
  182.0440  179.0200  142.6700 N   0  0  0  0  0  2  0  0  0  0  0  0
  181.1080  178.8060  141.8720 O   0  0  0  0  0  1  0  0  0  0  0  0
  1  4  1  0  0  0  0
  1 15  1  0  0  0  0
  2  4  1  6  0  0  0
  2  5  1  0  0  0  0
  2  7  1  0  0  0  0
  3  1  2  0  0  0  0
  5 11  2  0  0  0  0
  6 19  1  0  0  0  0
  7 14  1  1  0  0  0
  7 16  1  0  0  0  0
  8 19  2  0  0  0  0
  9  8  1  0  0  0  0
 10 12  1  0  0  0  0
 10  4  2  0  0  0  0
 11  9  1  0  0  0  0
 12 17  2  0  0  0  0
 13 10  1  0  0  0  0
 15 14  2  0  0  0  0
 16  9  2  0  0  0  0
 16 20  1  0  0  0  0
 17 31  1  0  0  0  0
 17  5  1  0  0  0  0
 18 13  2  0  0  0  0
 18  3  1  0  0  0  0
 20  6  2  0  0  0  0
 21 23  1  1  0  0  0
 24 27  1  0  0  0  0
 24 30  1  0  0  0  0
 25 15  1  1  0  0  0
 25 27  1  0  0  0  0
 25 28  1  0  0  0  0
 26 21  1  0  0  0  0
 28 29  1  6  0  0  0
 28 21  1  0  0  0  0
 30 22  2  0  0  0  0
 30 26  1  0  0  0  0
 32 31  1  0  0  0  0
M  END
>  <MODEL>
5

>  <REMARK>
 VINA RESULT:      -7.8      3.079      4.924
  Name = 
  2 active torsions:
  status: ('A' for Active; 'I' for Inactive)
    1  A    between atoms: N_13  and  C_29
    2  A    between atoms: C_16  and  C_27
                            x       y       z     vdW  Elec       q    Type
                         _______ _______ _______ _____ _____    ______ ____

>  <TORSDO>
F 2

$$$$
=
 OpenBabel11052419173D

 32 37  0  0  1  0  0  0  0  0999 V2000
  191.2790  175.9490  145.3510 C   0  0  0  0  0  0  0  0  0  0  0  0
  189.8880  175.7540  143.3010 C   0  0  2  0  0  3  0  0  0  0  0  0
  191.4610  176.3910  146.6680 C   0  0  0  0  0  3  0  0  0  0  0  0
  190.0250  176.1110  144.7410 C   0  0  0  0  0  0  0  0  0  0  0  0
  188.4610  175.6050  142.8540 C   0  0  0  0  0  0  0  0  0  0  0  0
  191.2540  172.9650  139.5770 C   0  0  0  0  0  3  0  0  0  0  0  0
  190.6790  174.4790  143.0310 C   0  0  2  0  0  3  0  0  0  0  0  0
  188.9970  173.8500  139.7000 C   0  0  0  0  0  3  0  0  0  0  0  0
  189.2420  174.3010  141.0000 C   0  0  0  0  0  0  0  0  0  0  0  0
  188.9480  176.6740  145.4380 C   0  0  0  0  0  0  0  0  0  0  0  0
  188.2040  174.9760  141.7400 N   0  0  0  0  0  0  0  0  0  0  0  0
  187.6520  176.7640  144.8160 N   0  0  0  0  0  0  0  0  0  0  0  0
  189.1370  177.1080  146.7540 C   0  0  0  0  0  3  0  0  0  0  0  0
  192.0730  174.6630  143.4540 N   0  0  0  0  0  0  0  0  0  0  0  0
  192.3630  175.2880  144.5690 C   0  0  0  0  0  0  0  0  0  0  0  0
  190.5100  174.0850  141.5910 C   0  0  0  0  0  0  0  0  0  0  0  0
  187.3960  176.2750  143.6310 C   0  0  0  0  0  0  0  0  0  0  0  0
  190.3920  176.9720  147.3630 C   0  0  0  0  0  3  0  0  0  0  0  0
  190.0040  173.1890  138.9880 C   0  0  0  0  0  3  0  0  0  0  0  0
  191.5040  173.4010  140.8810 C   0  0  0  0  0  3  0  0  0  0  0  0
  195.4070  175.6210  143.0230 C   0  0  1  0  0  3  0  0  0  0  0  0
  197.9200  173.8670  145.0650 O   0  0  0  0  0  0  0  0  0  0  0  0
  195.6870  176.5200  141.8360 C   0  0  0  0  0  1  0  0  0  0  0  0
  195.6840  174.2250  145.7760 C   0  0  0  0  0  2  0  0  0  0  0  0
  193.7920  175.4150  145.0000 C   0  0  1  0  0  3  0  0  0  0  0  0
  196.6700  175.1560  143.5940 N   0  0  0  0  0  2  0  0  0  0  0  0
  194.4050  174.0900  145.0950 N   0  0  0  0  0  2  0  0  0  0  0  0
  194.5450  176.3610  144.0510 C   0  0  1  0  0  3  0  0  0  0  0  0
  195.3060  177.2760  144.7850 O   0  0  0  0  0  1  0  0  0  0  0  0
  196.8030  174.3760  144.7900 C   0  0  0  0  0  0  0  0  0  0  0  0
  186.0760  176.3680  143.0900 N   0  0  0  0  0  2  0  0  0  0  0  0
  185.7200  177.3580  142.4190 O   0  0  0  0  0  1  0  0  0  0  0  0
  1  3  1  0  0  0  0
  2  5  1  1  0  0  0
  2  4  1  0  0  0  0
  3 18  2  0  0  0  0
  4  1  2  0  0  0  0
  4 10  1  0  0  0  0
  5 17  1  0  0  0  0
  6 20  1  0  0  0  0
  7 16  1  6  0  0  0
  7  2  1  0  0  0  0
  7 14  1  0  0  0  0
  8  9  2  0  0  0  0
  9 16  1  0  0  0  0
  9 11  1  0  0  0  0
 10 13  2  0  0  0  0
 11  5  2  0  0  0  0
 12 10  1  0  0  0  0
 13 18  1  0  0  0  0
 14 15  2  0  0  0  0
 15  1  1  0  0  0  0
 17 12  2  0  0  0  0
 19  6  2  0  0  0  0
 19  8  1  0  0  0  0
 20 16  2  0  0  0  0
 21 23  1  6  0  0  0
 21 26  1  0  0  0  0
 21 28  1  0  0  0  0
 25 15  1  6  0  0  0
 25 27  1  0  0  0  0
 26 30  1  0  0  0  0
 27 24  1  0  0  0  0
 28 29  1  1  0  0  0
 28 25  1  0  0  0  0
 30 22  2  0  0  0  0
 30 24  1  0  0  0  0
 31 17  1  0  0  0  0
 32 31  1  0  0  0  0
M  END
>  <MODEL>
6

>  <REMARK>
 VINA RESULT:      -7.8      3.992      6.701
  Name = 
  2 active torsions:
  status: ('A' for Active; 'I' for Inactive)
    1  A    between atoms: N_13  and  C_29
    2  A    between atoms: C_16  and  C_27
                            x       y       z     vdW  Elec       q    Type
                         _______ _______ _______ _____ _____    ______ ____

>  <TORSDO>
F 2

$$$$
=
 OpenBabel11052419173D

 32 37  0  0  1  0  0  0  0  0999 V2000
  187.6060  176.6110  142.7040 C   0  0  0  0  0  0  0  0  0  0  0  0
  188.3020  175.3790  140.6610 C   0  0  2  0  0  3  0  0  0  0  0  0
  186.9310  177.6720  143.3220 C   0  0  0  0  0  3  0  0  0  0  0  0
  187.4760  176.4310  141.3180 C   0  0  0  0  0  0  0  0  0  0  0  0
  187.8260  175.0170  139.2830 C   0  0  0  0  0  0  0  0  0  0  0  0
  190.5040  171.0670  140.9390 C   0  0  0  0  0  3  0  0  0  0  0  0
  188.3460  174.1510  141.5640 C   0  0  2  0  0  3  0  0  0  0  0  0
  189.6380  171.8830  138.8240 C   0  0  0  0  0  3  0  0  0  0  0  0
  189.0120  172.9420  139.4850 C   0  0  0  0  0  0  0  0  0  0  0  0
  186.6570  177.2710  140.5520 C   0  0  0  0  0  0  0  0  0  0  0  0
  188.2300  173.9010  138.7410 N   0  0  0  0  0  0  0  0  0  0  0  0
  186.4830  177.0220  139.1440 N   0  0  0  0  0  0  0  0  0  0  0  0
  185.9820  178.3240  141.1780 C   0  0  0  0  0  3  0  0  0  0  0  0
  188.8380  174.5300  142.8940 N   0  0  0  0  0  0  0  0  0  0  0  0
  188.4480  175.6430  143.4650 C   0  0  0  0  0  0  0  0  0  0  0  0
  189.1380  173.0670  140.8890 C   0  0  0  0  0  0  0  0  0  0  0  0
  187.0020  175.9890  138.5340 C   0  0  0  0  0  0  0  0  0  0  0  0
  186.1250  178.5270  142.5570 C   0  0  0  0  0  3  0  0  0  0  0  0
  190.3880  170.9510  139.5490 C   0  0  0  0  0  3  0  0  0  0  0  0
  189.8710  172.1170  141.6110 C   0  0  0  0  0  3  0  0  0  0  0  0
  191.4660  176.2990  144.9570 C   0  0  1  0  0  3  0  0  0  0  0  0
  191.3430  174.9940  148.3980 O   0  0  0  0  0  0  0  0  0  0  0  0
  192.5580  177.1680  144.3680 C   0  0  0  0  0  1  0  0  0  0  0  0
  189.4480  175.0880  146.9730 C   0  0  0  0  0  2  0  0  0  0  0  0
  188.9270  175.9790  144.8430 C   0  0  1  0  0  3  0  0  0  0  0  0
  191.7580  176.0330  146.3650 N   0  0  0  0  0  2  0  0  0  0  0  0
  189.2580  174.7530  145.5700 N   0  0  0  0  0  2  0  0  0  0  0  0
  190.1010  176.9680  144.7660 C   0  0  1  0  0  3  0  0  0  0  0  0
  189.9160  178.0110  145.6790 O   0  0  0  0  0  1  0  0  0  0  0  0
  190.8950  175.3370  147.2740 C   0  0  0  0  0  0  0  0  0  0  0  0
  186.7560  175.7850  137.1410 N   0  0  0  0  0  2  0  0  0  0  0  0
  185.6030  175.8540  136.6700 O   0  0  0  0  0  1  0  0  0  0  0  0
  1  3  1  0  0  0  0
  1 15  1  0  0  0  0
  2  5  1  6  0  0  0
  2  4  1  0  0  0  0
  2  7  1  0  0  0  0
  4  1  2  0  0  0  0
  6 20  1  0  0  0  0
  7 16  1  6  0  0  0
  7 14  1  0  0  0  0
  8  9  2  0  0  0  0
  8 19  1  0  0  0  0
  9 16  1  0  0  0  0
 10 13  2  0  0  0  0
 10  4  1  0  0  0  0
 11  5  2  0  0  0  0
 11  9  1  0  0  0  0
 12 10  1  0  0  0  0
 13 18  1  0  0  0  0
 14 15  2  0  0  0  0
 16 20  2  0  0  0  0
 17 12  2  0  0  0  0
 17  5  1  0  0  0  0
 18  3  2  0  0  0  0
 19  6  2  0  0  0  0
 21 23  1  1  0  0  0
 21 26  1  0  0  0  0
 24 30  1  0  0  0  0
 25 15  1  6  0  0  0
 25 27  1  0  0  0  0
 26 30  1  0  0  0  0
 27 24  1  0  0  0  0
 28 25  1  0  0  0  0
 28 21  1  0  0  0  0
 28 29  1  1  0  0  0
 30 22  2  0  0  0  0
 31 17  1  0  0  0  0
 32 31  1  0  0  0  0
M  END
>  <MODEL>
7

>  <REMARK>
 VINA RESULT:      -7.7      2.667      6.895
  Name = 
  2 active torsions:
  status: ('A' for Active; 'I' for Inactive)
    1  A    between atoms: N_13  and  C_29
    2  A    between atoms: C_16  and  C_27
                            x       y       z     vdW  Elec       q    Type
                         _______ _______ _______ _____ _____    ______ ____

>  <TORSDO>
F 2

$$$$
=
 OpenBabel11052419173D

 32 37  0  0  1  0  0  0  0  0999 V2000
  189.3080  175.0290  144.9050 C   0  0  0  0  0  0  0  0  0  0  0  0
  187.7250  176.7910  144.1530 C   0  0  2  0  0  3  0  0  0  0  0  0
  189.9600  174.3260  145.9260 C   0  0  0  0  0  3  0  0  0  0  0  0
  188.3150  175.9630  145.2420 C   0  0  0  0  0  0  0  0  0  0  0  0
  186.4420  177.4680  144.5440 C   0  0  0  0  0  0  0  0  0  0  0  0
  186.4210  177.1970  139.5000 C   0  0  0  0  0  3  0  0  0  0  0  0
  187.5270  175.9170  142.9200 C   0  0  2  0  0  3  0  0  0  0  0  0
  185.2180  178.3970  141.2340 C   0  0  0  0  0  3  0  0  0  0  0  0
  185.9210  177.6920  142.2140 C   0  0  0  0  0  0  0  0  0  0  0  0
  187.9440  176.1760  146.5760 C   0  0  0  0  0  0  0  0  0  0  0  0
  185.6560  177.9330  143.6110 N   0  0  0  0  0  0  0  0  0  0  0  0
  186.8730  177.0850  146.8910 N   0  0  0  0  0  0  0  0  0  0  0  0
  188.5970  175.4660  147.5890 C   0  0  0  0  0  3  0  0  0  0  0  0
  188.8010  175.2900  142.5470 N   0  0  0  0  0  0  0  0  0  0  0  0
  189.6090  174.8110  143.4610 C   0  0  0  0  0  0  0  0  0  0  0  0
  186.8890  176.7330  141.8310 C   0  0  0  0  0  0  0  0  0  0  0  0
  186.1590  177.6890  145.9790 C   0  0  0  0  0  0  0  0  0  0  0  0
  189.6060  174.5500  147.2640 C   0  0  0  0  0  3  0  0  0  0  0  0
  185.4720  178.1550  139.8800 C   0  0  0  0  0  3  0  0  0  0  0  0
  187.1210  176.4790  140.4740 C   0  0  0  0  0  3  0  0  0  0  0  0
  190.7310  173.0990  140.7080 C   0  0  1  0  0  3  0  0  0  0  0  0
  193.0520  170.4830  141.8620 O   0  0  0  0  0  0  0  0  0  0  0  0
  190.4830  173.5040  139.2690 C   0  0  0  0  0  1  0  0  0  0  0  0
  192.1780  172.1690  143.2860 C   0  0  0  0  0  2  0  0  0  0  0  0
  190.8780  174.1310  143.0470 C   0  0  1  0  0  3  0  0  0  0  0  0
  191.7590  172.0600  140.7530 N   0  0  0  0  0  2  0  0  0  0  0  0
  190.8430  172.7230  143.4440 N   0  0  0  0  0  2  0  0  0  0  0  0
  191.1140  174.3270  141.5410 C   0  0  1  0  0  3  0  0  0  0  0  0
  192.4380  174.7070  141.3040 O   0  0  0  0  0  1  0  0  0  0  0  0
  192.3300  171.5100  141.9480 C   0  0  0  0  0  0  0  0  0  0  0  0
  185.0860  178.5510  146.3650 N   0  0  0  0  0  2  0  0  0  0  0  0
  183.9330  178.1090  146.5430 O   0  0  0  0  0  1  0  0  0  0  0  0
  1  4  2  0  0  0  0
  1  3  1  0  0  0  0
  2  5  1  1  0  0  0
  2  4  1  0  0  0  0
  3 18  2  0  0  0  0
  4 10  1  0  0  0  0
  5 17  1  0  0  0  0
  6 19  2  0  0  0  0
  6 20  1  0  0  0  0
  7 16  1  6  0  0  0
  7  2  1  0  0  0  0
  8  9  2  0  0  0  0
  9 11  1  0  0  0  0
 10 12  1  0  0  0  0
 10 13  2  0  0  0  0
 11  5  2  0  0  0  0
 14  7  1  0  0  0  0
 14 15  2  0  0  0  0
 15  1  1  0  0  0  0
 16  9  1  0  0  0  0
 17 31  1  0  0  0  0
 17 12  2  0  0  0  0
 18 13  1  0  0  0  0
 19  8  1  0  0  0  0
 20 16  2  0  0  0  0
 21 23  1  6  0  0  0
 21 26  1  0  0  0  0
 21 28  1  0  0  0  0
 22 30  2  0  0  0  0
 24 27  1  0  0  0  0
 25 27  1  0  0  0  0
 25 15  1  6  0  0  0
 26 30  1  0  0  0  0
 28 29  1  1  0  0  0
 28 25  1  0  0  0  0
 30 24  1  0  0  0  0
 31 32  1  0  0  0  0
M  END
>  <MODEL>
8

>  <REMARK>
 VINA RESULT:      -7.6      2.340      5.021
  Name = 
  2 active torsions:
  status: ('A' for Active; 'I' for Inactive)
    1  A    between atoms: N_13  and  C_29
    2  A    between atoms: C_16  and  C_27
                            x       y       z     vdW  Elec       q    Type
                         _______ _______ _______ _____ _____    ______ ____

>  <TORSDO>
F 2

$$$$
=
 OpenBabel11052419173D

 32 37  0  0  1  0  0  0  0  0999 V2000
  188.6860  175.9040  142.5250 C   0  0  0  0  0  0  0  0  0  0  0  0
  190.5400  175.9830  144.1790 C   0  0  2  0  0  3  0  0  0  0  0  0
  188.1290  175.4190  141.3350 C   0  0  0  0  0  3  0  0  0  0  0  0
  189.8990  175.3670  142.9820 C   0  0  0  0  0  0  0  0  0  0  0  0
  191.6040  175.1230  144.7980 C   0  0  0  0  0  0  0  0  0  0  0  0
  190.0430  178.2750  148.4230 C   0  0  0  0  0  3  0  0  0  0  0  0
  189.4570  176.3280  145.1950 C   0  0  2  0  0  3  0  0  0  0  0  0
  191.9230  176.7910  148.0280 C   0  0  0  0  0  3  0  0  0  0  0  0
  191.3400  176.3670  146.8310 C   0  0  0  0  0  0  0  0  0  0  0  0
  190.5420  174.3340  142.2870 C   0  0  0  0  0  0  0  0  0  0  0  0
  191.9970  175.3730  146.0170 N   0  0  0  0  0  0  0  0  0  0  0  0
  191.7480  173.7490  142.8140 N   0  0  0  0  0  0  0  0  0  0  0  0
  189.9760  173.8520  141.1030 C   0  0  0  0  0  3  0  0  0  0  0  0
  188.4460  177.1880  144.5690 N   0  0  0  0  0  0  0  0  0  0  0  0
  188.0280  176.9600  143.3480 C   0  0  0  0  0  0  0  0  0  0  0  0
  190.0970  176.9080  146.4250 C   0  0  0  0  0  0  0  0  0  0  0  0
  192.2570  174.0860  143.9700 C   0  0  0  0  0  0  0  0  0  0  0  0
  188.7780  174.3990  140.6250 C   0  0  0  0  0  3  0  0  0  0  0  0
  191.2790  177.7490  148.8190 C   0  0  0  0  0  3  0  0  0  0  0  0
  189.4470  177.8480  147.2330 C   0  0  0  0  0  3  0  0  0  0  0  0
  184.8630  177.9530  144.2200 C   0  0  1  0  0  3  0  0  0  0  0  0
  182.8860  178.2990  141.1330 O   0  0  0  0  0  0  0  0  0  0  0  0
  184.4380  178.3860  145.6090 C   0  0  0  0  0  1  0  0  0  0  0  0
  185.2280  177.9150  141.1430 C   0  0  0  0  0  2  0  0  0  0  0  0
  186.9590  177.8240  142.7540 C   0  0  1  0  0  3  0  0  0  0  0  0
  183.8220  178.3070  143.2570 N   0  0  0  0  0  2  0  0  0  0  0  0
  186.0710  177.0170  141.9170 N   0  0  0  0  0  2  0  0  0  0  0  0
  186.2160  178.5810  143.8660 C   0  0  1  0  0  3  0  0  0  0  0  0
  186.0740  179.9290  143.5230 O   0  0  0  0  0  1  0  0  0  0  0  0
  183.9200  178.1520  141.8350 C   0  0  0  0  0  0  0  0  0  0  0  0
  193.4380  173.4380  144.4470 N   0  0  0  0  0  2  0  0  0  0  0  0
  193.4060  172.2620  144.8660 O   0  0  0  0  0  1  0  0  0  0  0  0
  1  4  1  0  0  0  0
  1 15  1  0  0  0  0
  2  4  1  6  0  0  0
  2  5  1  0  0  0  0
  2  7  1  0  0  0  0
  3  1  2  0  0  0  0
  5 11  2  0  0  0  0
  6 19  1  0  0  0  0
  7 14  1  6  0  0  0
  7 16  1  0  0  0  0
  8 19  2  0  0  0  0
  9  8  1  0  0  0  0
 10 12  1  0  0  0  0
 10  4  2  0  0  0  0
 11  9  1  0  0  0  0
 12 17  2  0  0  0  0
 13 10  1  0  0  0  0
 15 14  2  0  0  0  0
 16  9  2  0  0  0  0
 16 20  1  0  0  0  0
 17 31  1  0  0  0  0
 17  5  1  0  0  0  0
 18 13  2  0  0  0  0
 18  3  1  0  0  0  0
 20  6  2  0  0  0  0
 21 23  1  1  0  0  0
 22 30  2  0  0  0  0
 24 30  1  0  0  0  0
 24 27  1  0  0  0  0
 25 15  1  1  0  0  0
 25 28  1  0  0  0  0
 26 21  1  0  0  0  0
 27 25  1  0  0  0  0
 28 29  1  6  0  0  0
 28 21  1  0  0  0  0
 30 26  1  0  0  0  0
 31 32  1  0  0  0  0
M  END
>  <MODEL>
9

>  <REMARK>
 VINA RESULT:      -7.6      2.836      5.878
  Name = 
  2 active torsions:
  status: ('A' for Active; 'I' for Inactive)
    1  A    between atoms: N_13  and  C_29
    2  A    between atoms: C_16  and  C_27
                            x       y       z     vdW  Elec       q    Type
                         _______ _______ _______ _____ _____    ______ ____

>  <TORSDO>
F 2

$$$$
