=
 OpenBabel11052418123D

 28 30  0  0  1  0  0  0  0  0999 V2000
  192.0450  174.5990  144.1670 N   0  0  0  0  0  0  0  0  0  0  0  0
  189.6800  174.9020  143.4150 C   0  0  1  0  0  3  0  0  0  0  0  0
  191.4560  176.4320  142.7750 O   0  0  0  0  0  1  0  0  0  0  0  0
  190.0930  173.2100  144.8550 C   0  0  0  0  0  2  0  0  0  0  0  0
  189.4170  173.5440  143.6690 O   0  0  0  0  0  0  0  0  0  0  0  0
  191.6110  173.2710  144.6420 C   0  0  0  0  0  2  0  0  0  0  0  0
  191.1700  175.0970  143.0830 C   0  0  1  0  0  3  0  0  0  0  0  0
  185.4600  176.7430  146.5230 C   0  0  0  0  0  1  0  0  0  0  0  0
  188.9690  174.9300  141.1400 O   0  0  0  0  0  0  0  0  0  0  0  0
  185.6300  178.0710  143.1080 C   0  0  2  0  0  3  0  0  0  0  0  0
  187.6290  176.9290  143.9080 C   0  0  0  0  0  2  0  0  0  0  0  0
  184.4950  178.4720  145.0210 C   0  0  0  0  0  0  0  0  0  0  0  0
  186.1530  177.1330  144.1700 C   0  0  1  0  0  3  0  0  0  0  0  0
  187.0470  176.9610  141.4220 C   0  0  0  0  0  2  0  0  0  0  0  0
  184.3550  178.5350  143.6070 N   0  0  0  0  0  2  0  0  0  0  0  0
  185.5950  177.3290  141.7900 C   0  0  0  0  0  2  0  0  0  0  0  0
  188.7990  175.3870  142.3040 C   0  0  0  0  0  0  0  0  0  0  0  0
  183.6460  178.9750  145.8050 O   0  0  0  0  0  0  0  0  0  0  0  0
  185.7480  177.7950  145.4720 C   0  0  2  0  0  3  0  0  0  0  0  0
  187.7750  176.3640  142.5570 N   0  0  0  0  0  0  0  0  0  0  0  0
  192.2420  175.5700  145.2670 C   0  0  1  0  0  3  0  0  0  0  0  0
  192.0900  174.9700  146.6580 C   0  0  0  0  0  1  0  0  0  0  0  0
  193.5820  176.2840  145.1460 C   0  0  0  0  0  2  0  0  0  0  0  0
  195.6690  175.0210  145.5290 C   0  0  0  0  0  1  0  0  0  0  0  0
  194.6230  175.3860  144.4960 C   0  0  2  0  0  3  0  0  0  0  0  0
  195.2750  176.0960  143.3500 C   0  0  0  0  0  0  0  0  0  0  0  0
  194.7370  176.0770  142.2090 O   0  0  0  0  0  0  0  0  0  0  0  0
  196.5080  176.7920  143.5390 N   0  0  0  0  0  1  0  0  0  0  0  0
  1  6  1  0  0  0  0
  1 21  1  0  0  0  0
  2 17  1  6  0  0  0
  2  5  1  0  0  0  0
  5  4  1  0  0  0  0
  6  4  1  0  0  0  0
  7  3  1  1  0  0  0
  7  2  1  0  0  0  0
  7  1  1  0  0  0  0
  9 17  2  0  0  0  0
 10 16  1  6  0  0  0
 10 15  1  0  0  0  0
 10 13  1  0  0  0  0
 12 19  1  0  0  0  0
 12 18  2  0  0  0  0
 13 11  1  1  0  0  0
 13 19  1  0  0  0  0
 14 16  1  0  0  0  0
 14 20  1  0  0  0  0
 15 12  1  0  0  0  0
 17 20  1  0  0  0  0
 19  8  1  1  0  0  0
 20 11  1  0  0  0  0
 21 22  1  1  0  0  0
 23 21  1  0  0  0  0
 25 23  1  0  0  0  0
 25 24  1  1  0  0  0
 26 28  1  0  0  0  0
 26 25  1  0  0  0  0
 27 26  2  0  0  0  0
M  END
>  <MODEL>
1

>  <REMARK>
 VINA RESULT:      -6.9      0.000      0.000
  Name = 
  5 active torsions:
  status: ('A' for Active; 'I' for Inactive)
    1  A    between atoms: N_1  and  C_2
    2  A    between atoms: C_2  and  C_3
    3  A    between atoms: C_3  and  C_11
    4  A    between atoms: C_6  and  C_11
    5  A    between atoms: C_16  and  C_20
                            x       y       z     vdW  Elec       q    Type
                         _______ _______ _______ _____ _____    ______ ____

>  <TORSDO>
F 5

$$$$
=
 OpenBabel11052418123D

 28 30  0  0  1  0  0  0  0  0999 V2000
  191.6460  174.1580  144.1090 N   0  0  0  0  0  0  0  0  0  0  0  0
  189.3550  174.5040  143.1680 C   0  0  1  0  0  3  0  0  0  0  0  0
  191.0940  176.1960  143.0180 O   0  0  0  0  0  1  0  0  0  0  0  0
  189.7200  172.5890  144.3120 C   0  0  0  0  0  2  0  0  0  0  0  0
  189.1480  173.1130  143.1400 O   0  0  0  0  0  0  0  0  0  0  0  0
  191.2450  172.7480  144.2830 C   0  0  0  0  0  2  0  0  0  0  0  0
  190.8570  174.8160  143.0440 C   0  0  1  0  0  3  0  0  0  0  0  0
  185.3000  176.6360  146.3100 C   0  0  0  0  0  1  0  0  0  0  0  0
  188.7090  174.7510  140.8870 O   0  0  0  0  0  0  0  0  0  0  0  0
  185.7070  178.1360  142.9880 C   0  0  2  0  0  3  0  0  0  0  0  0
  187.5410  176.7230  143.7510 C   0  0  0  0  0  2  0  0  0  0  0  0
  184.5790  178.5520  144.9020 C   0  0  0  0  0  0  0  0  0  0  0  0
  186.0920  177.0830  143.9990 C   0  0  1  0  0  3  0  0  0  0  0  0
  187.0280  176.9720  141.2620 C   0  0  0  0  0  2  0  0  0  0  0  0
  184.4820  178.7150  143.4930 N   0  0  0  0  0  2  0  0  0  0  0  0
  185.6190  177.4840  141.6260 C   0  0  0  0  0  2  0  0  0  0  0  0
  188.5640  175.1540  142.0740 C   0  0  0  0  0  0  0  0  0  0  0  0
  183.7740  179.1030  145.7010 O   0  0  0  0  0  0  0  0  0  0  0  0
  185.7340  177.7080  145.3320 C   0  0  2  0  0  3  0  0  0  0  0  0
  187.6540  176.2270  142.3700 N   0  0  0  0  0  0  0  0  0  0  0  0
  191.6730  174.9120  145.3820 C   0  0  1  0  0  3  0  0  0  0  0  0
  190.4580  174.6760  146.2690 C   0  0  0  0  0  1  0  0  0  0  0  0
  192.9530  174.6430  146.1620 C   0  0  0  0  0  2  0  0  0  0  0  0
  195.4030  174.6800  145.8540 C   0  0  0  0  0  1  0  0  0  0  0  0
  194.1180  175.4380  145.5920 C   0  0  2  0  0  3  0  0  0  0  0  0
  194.1890  176.7870  146.2390 C   0  0  0  0  0  0  0  0  0  0  0  0
  193.5800  176.9970  147.3230 O   0  0  0  0  0  0  0  0  0  0  0  0
  194.9380  177.8410  145.6330 N   0  0  0  0  0  1  0  0  0  0  0  0
  1  6  1  0  0  0  0
  1 21  1  0  0  0  0
  2 17  1  6  0  0  0
  5  2  1  0  0  0  0
  5  4  1  0  0  0  0
  6  4  1  0  0  0  0
  7  3  1  1  0  0  0
  7  2  1  0  0  0  0
  7  1  1  0  0  0  0
  9 17  2  0  0  0  0
 10 16  1  6  0  0  0
 10 15  1  0  0  0  0
 10 13  1  0  0  0  0
 12 19  1  0  0  0  0
 12 18  2  0  0  0  0
 13 11  1  1  0  0  0
 13 19  1  0  0  0  0
 14 16  1  0  0  0  0
 14 20  1  0  0  0  0
 15 12  1  0  0  0  0
 17 20  1  0  0  0  0
 19  8  1  1  0  0  0
 20 11  1  0  0  0  0
 21 23  1  0  0  0  0
 21 22  1  1  0  0  0
 25 24  1  1  0  0  0
 25 23  1  0  0  0  0
 25 26  1  0  0  0  0
 26 27  2  0  0  0  0
 28 26  1  0  0  0  0
M  END
>  <MODEL>
2

>  <REMARK>
 VINA RESULT:      -6.7      1.273      1.460
  Name = 
  5 active torsions:
  status: ('A' for Active; 'I' for Inactive)
    1  A    between atoms: N_1  and  C_2
    2  A    between atoms: C_2  and  C_3
    3  A    between atoms: C_3  and  C_11
    4  A    between atoms: C_6  and  C_11
    5  A    between atoms: C_16  and  C_20
                            x       y       z     vdW  Elec       q    Type
                         _______ _______ _______ _____ _____    ______ ____

>  <TORSDO>
F 5

$$$$
=
 OpenBabel11052418123D

 28 30  0  0  1  0  0  0  0  0999 V2000
  192.6560  175.8920  145.4030 N   0  0  0  0  0  0  0  0  0  0  0  0
  190.3660  176.8800  145.5750 C   0  0  1  0  0  3  0  0  0  0  0  0
  191.3220  175.4950  147.3290 O   0  0  0  0  0  1  0  0  0  0  0  0
  191.4830  177.2010  143.6370 C   0  0  0  0  0  2  0  0  0  0  0  0
  190.7020  177.8470  144.6120 O   0  0  0  0  0  0  0  0  0  0  0  0
  192.8300  176.7680  144.2290 C   0  0  0  0  0  2  0  0  0  0  0  0
  191.6280  176.4220  146.3270 C   0  0  1  0  0  3  0  0  0  0  0  0
  186.4910  178.1550  141.8040 C   0  0  0  0  0  1  0  0  0  0  0  0
  189.7010  177.8450  147.6510 O   0  0  0  0  0  0  0  0  0  0  0  0
  185.3180  177.8620  145.2670 C   0  0  2  0  0  3  0  0  0  0  0  0
  187.5420  176.9720  144.8170 C   0  0  0  0  0  2  0  0  0  0  0  0
  184.4350  178.0480  143.1950 C   0  0  0  0  0  0  0  0  0  0  0  0
  186.4530  177.8700  144.2710 C   0  0  1  0  0  3  0  0  0  0  0  0
  186.9400  177.8830  147.1250 C   0  0  0  0  0  2  0  0  0  0  0  0
  184.1820  178.3970  144.5510 N   0  0  0  0  0  2  0  0  0  0  0  0
  185.7520  178.6360  146.4930 C   0  0  0  0  0  2  0  0  0  0  0  0
  189.3380  177.4370  146.5130 C   0  0  0  0  0  0  0  0  0  0  0  0
  183.5670  178.1860  142.2910 O   0  0  0  0  0  0  0  0  0  0  0  0
  185.7940  177.4750  142.9650 C   0  0  2  0  0  3  0  0  0  0  0  0
  187.9560  177.5050  146.1250 N   0  0  0  0  0  0  0  0  0  0  0  0
  192.4520  174.4710  145.0390 C   0  0  1  0  0  3  0  0  0  0  0  0
  192.4610  174.2090  143.5380 C   0  0  0  0  0  1  0  0  0  0  0  0
  193.4600  173.5670  145.7360 C   0  0  0  0  0  2  0  0  0  0  0  0
  195.0150  171.8120  144.9640 C   0  0  0  0  0  1  0  0  0  0  0  0
  194.6490  173.2760  144.8340 C   0  0  2  0  0  3  0  0  0  0  0  0
  195.8180  174.1240  145.2300 C   0  0  0  0  0  0  0  0  0  0  0  0
  196.5450  173.7790  146.2010 O   0  0  0  0  0  0  0  0  0  0  0  0
  196.1120  175.3260  144.5180 N   0  0  0  0  0  1  0  0  0  0  0  0
  1  7  1  0  0  0  0
  2  7  1  0  0  0  0
  2 17  1  1  0  0  0
  4  6  1  0  0  0  0
  4  5  1  0  0  0  0
  5  2  1  0  0  0  0
  6  1  1  0  0  0  0
  7  3  1  1  0  0  0
 10 16  1  1  0  0  0
 11 20  1  0  0  0  0
 12 15  1  0  0  0  0
 13 11  1  1  0  0  0
 13 10  1  0  0  0  0
 15 10  1  0  0  0  0
 16 14  1  0  0  0  0
 17  9  2  0  0  0  0
 18 12  2  0  0  0  0
 19  8  1  6  0  0  0
 19 12  1  0  0  0  0
 19 13  1  0  0  0  0
 20 17  1  0  0  0  0
 20 14  1  0  0  0  0
 21 22  1  6  0  0  0
 21  1  1  0  0  0  0
 21 23  1  0  0  0  0
 25 24  1  1  0  0  0
 25 26  1  0  0  0  0
 25 23  1  0  0  0  0
 26 27  2  0  0  0  0
 28 26  1  0  0  0  0
M  END
>  <MODEL>
3

>  <REMARK>
 VINA RESULT:      -6.7      2.498      3.645
  Name = 
  5 active torsions:
  status: ('A' for Active; 'I' for Inactive)
    1  A    between atoms: N_1  and  C_2
    2  A    between atoms: C_2  and  C_3
    3  A    between atoms: C_3  and  C_11
    4  A    between atoms: C_6  and  C_11
    5  A    between atoms: C_16  and  C_20
                            x       y       z     vdW  Elec       q    Type
                         _______ _______ _______ _____ _____    ______ ____

>  <TORSDO>
F 5

$$$$
=
 OpenBabel11052418123D

 28 30  0  0  1  0  0  0  0  0999 V2000
  187.4650  176.4090  143.7020 N   0  0  0  0  0  0  0  0  0  0  0  0
  189.8230  175.7470  144.2080 C   0  0  1  0  0  3  0  0  0  0  0  0
  188.5290  177.1870  145.6790 O   0  0  0  0  0  1  0  0  0  0  0  0
  188.9660  175.0700  142.2290 C   0  0  0  0  0  2  0  0  0  0  0  0
  189.7070  174.6430  143.3450 O   0  0  0  0  0  0  0  0  0  0  0  0
  187.5220  175.3910  142.6350 C   0  0  0  0  0  2  0  0  0  0  0  0
  188.4420  176.1210  144.7760 C   0  0  1  0  0  3  0  0  0  0  0  0
  194.4070  175.4760  141.0820 C   0  0  0  0  0  1  0  0  0  0  0  0
  190.3780  174.9370  146.3800 O   0  0  0  0  0  0  0  0  0  0  0  0
  194.9470  175.9870  144.6730 C   0  0  2  0  0  3  0  0  0  0  0  0
  192.6690  176.3350  143.8790 C   0  0  0  0  0  2  0  0  0  0  0  0
  196.1490  176.0450  142.7600 C   0  0  0  0  0  0  0  0  0  0  0  0
  194.0080  175.7260  143.5200 C   0  0  1  0  0  3  0  0  0  0  0  0
  193.1170  175.5590  146.2700 C   0  0  0  0  0  2  0  0  0  0  0  0
  196.2710  175.7460  144.1450 N   0  0  0  0  0  2  0  0  0  0  0  0
  194.5300  175.1160  145.8380 C   0  0  0  0  0  2  0  0  0  0  0  0
  190.8010  175.4350  145.3000 C   0  0  0  0  0  0  0  0  0  0  0  0
  197.1490  176.1280  141.9980 O   0  0  0  0  0  0  0  0  0  0  0  0
  194.7420  176.2840  142.3180 C   0  0  2  0  0  3  0  0  0  0  0  0
  192.2020  175.7000  145.1220 N   0  0  0  0  0  0  0  0  0  0  0  0
  187.5410  177.7940  143.1840 C   0  0  1  0  0  3  0  0  0  0  0  0
  187.5820  177.8860  141.6640 C   0  0  0  0  0  1  0  0  0  0  0  0
  186.4120  178.6560  143.7330 C   0  0  0  0  0  2  0  0  0  0  0  0
  184.0700  178.3230  143.0260 C   0  0  0  0  0  1  0  0  0  0  0  0
  185.1550  177.8310  143.9610 C   0  0  2  0  0  3  0  0  0  0  0  0
  184.6970  177.9710  145.3810 C   0  0  0  0  0  0  0  0  0  0  0  0
  184.0040  178.9670  145.7230 O   0  0  0  0  0  0  0  0  0  0  0  0
  185.0460  176.9840  146.3520 N   0  0  0  0  0  1  0  0  0  0  0  0
  1  7  1  0  0  0  0
  2  7  1  0  0  0  0
  2 17  1  1  0  0  0
  4  6  1  0  0  0  0
  4  5  1  0  0  0  0
  5  2  1  0  0  0  0
  6  1  1  0  0  0  0
  7  3  1  1  0  0  0
 10 16  1  1  0  0  0
 11 20  1  0  0  0  0
 12 15  1  0  0  0  0
 13 11  1  1  0  0  0
 13 10  1  0  0  0  0
 15 10  1  0  0  0  0
 16 14  1  0  0  0  0
 17  9  2  0  0  0  0
 18 12  2  0  0  0  0
 19  8  1  6  0  0  0
 19 12  1  0  0  0  0
 19 13  1  0  0  0  0
 20 17  1  0  0  0  0
 20 14  1  0  0  0  0
 21 22  1  6  0  0  0
 21  1  1  0  0  0  0
 21 23  1  0  0  0  0
 23 25  1  0  0  0  0
 25 24  1  6  0  0  0
 25 26  1  0  0  0  0
 26 27  2  0  0  0  0
 26 28  1  0  0  0  0
M  END
>  <MODEL>
4

>  <REMARK>
 VINA RESULT:      -6.6      1.711      8.455
  Name = 
  5 active torsions:
  status: ('A' for Active; 'I' for Inactive)
    1  A    between atoms: N_1  and  C_2
    2  A    between atoms: C_2  and  C_3
    3  A    between atoms: C_3  and  C_11
    4  A    between atoms: C_6  and  C_11
    5  A    between atoms: C_16  and  C_20
                            x       y       z     vdW  Elec       q    Type
                         _______ _______ _______ _____ _____    ______ ____

>  <TORSDO>
F 5

$$$$
=
 OpenBabel11052418123D

 28 30  0  0  1  0  0  0  0  0999 V2000
  190.5230  175.8180  145.2880 N   0  0  0  0  0  0  0  0  0  0  0  0
  188.6860  176.7000  146.7370 C   0  0  1  0  0  3  0  0  0  0  0  0
  189.9210  178.1150  145.1930 O   0  0  0  0  0  1  0  0  0  0  0  0
  189.2710  174.5350  147.0190 C   0  0  0  0  0  2  0  0  0  0  0  0
  188.1710  175.4000  146.8880 O   0  0  0  0  0  0  0  0  0  0  0  0
  190.0690  174.4790  145.7100 C   0  0  0  0  0  2  0  0  0  0  0  0
  189.4380  176.8170  145.3980 C   0  0  1  0  0  3  0  0  0  0  0  0
  187.5900  177.1620  141.3100 C   0  0  0  0  0  1  0  0  0  0  0  0
  187.4790  178.4160  147.8680 O   0  0  0  0  0  0  0  0  0  0  0  0
  184.9330  178.2750  143.5800 C   0  0  2  0  0  3  0  0  0  0  0  0
  186.7140  176.9540  144.5920 C   0  0  0  0  0  2  0  0  0  0  0  0
  185.2070  177.8620  141.3750 C   0  0  0  0  0  0  0  0  0  0  0  0
  186.3370  177.7620  143.3690 C   0  0  1  0  0  3  0  0  0  0  0  0
  185.4350  178.6910  145.9580 C   0  0  0  0  0  2  0  0  0  0  0  0
  184.4820  178.6940  142.2720 N   0  0  0  0  0  2  0  0  0  0  0  0
  184.9700  179.3500  144.6440 C   0  0  0  0  0  2  0  0  0  0  0  0
  187.5740  177.6990  146.8330 C   0  0  0  0  0  0  0  0  0  0  0  0
  184.9430  177.8080  140.1440 O   0  0  0  0  0  0  0  0  0  0  0  0
  186.2660  177.0430  142.0370 C   0  0  2  0  0  3  0  0  0  0  0  0
  186.6230  177.8380  145.7650 N   0  0  0  0  0  0  0  0  0  0  0  0
  191.7840  176.2340  145.9430 C   0  0  1  0  0  3  0  0  0  0  0  0
  192.3240  175.2220  146.9460 C   0  0  0  0  0  1  0  0  0  0  0  0
  192.8560  176.5810  144.9190 C   0  0  0  0  0  2  0  0  0  0  0  0
  194.8060  177.7320  145.9030 C   0  0  0  0  0  1  0  0  0  0  0  0
  194.2490  176.3840  145.4960 C   0  0  2  0  0  3  0  0  0  0  0  0
  195.1480  175.7560  144.4760 C   0  0  0  0  0  0  0  0  0  0  0  0
  195.6880  176.4700  143.5880 O   0  0  0  0  0  0  0  0  0  0  0  0
  195.3920  174.3490  144.4970 N   0  0  0  0  0  1  0  0  0  0  0  0
  1  7  1  0  0  0  0
  1  6  1  0  0  0  0
  1 21  1  0  0  0  0
  2 17  1  6  0  0  0
  2  5  1  0  0  0  0
  5  4  1  0  0  0  0
  6  4  1  0  0  0  0
  7  3  1  1  0  0  0
  7  2  1  0  0  0  0
 10 16  1  1  0  0  0
 11 20  1  0  0  0  0
 12 19  1  0  0  0  0
 12 15  1  0  0  0  0
 13 10  1  0  0  0  0
 13 11  1  1  0  0  0
 15 10  1  0  0  0  0
 16 14  1  0  0  0  0
 17  9  2  0  0  0  0
 18 12  2  0  0  0  0
 19  8  1  6  0  0  0
 19 13  1  0  0  0  0
 20 14  1  0  0  0  0
 20 17  1  0  0  0  0
 21 22  1  1  0  0  0
 23 25  1  0  0  0  0
 23 21  1  0  0  0  0
 25 24  1  6  0  0  0
 26 28  1  0  0  0  0
 26 25  1  0  0  0  0
 27 26  2  0  0  0  0
M  END
>  <MODEL>
5

>  <REMARK>
 VINA RESULT:      -6.6      2.278      3.450
  Name = 
  5 active torsions:
  status: ('A' for Active; 'I' for Inactive)
    1  A    between atoms: N_1  and  C_2
    2  A    between atoms: C_2  and  C_3
    3  A    between atoms: C_3  and  C_11
    4  A    between atoms: C_6  and  C_11
    5  A    between atoms: C_16  and  C_20
                            x       y       z     vdW  Elec       q    Type
                         _______ _______ _______ _____ _____    ______ ____

>  <TORSDO>
F 5

$$$$
=
 OpenBabel11052418123D

 28 30  0  0  1  0  0  0  0  0999 V2000
  191.2450  174.5360  142.6960 N   0  0  0  0  0  0  0  0  0  0  0  0
  188.8340  175.1630  142.4780 C   0  0  1  0  0  3  0  0  0  0  0  0
  190.6020  176.8230  142.6420 O   0  0  0  0  0  1  0  0  0  0  0  0
  189.3130  172.9620  142.6680 C   0  0  0  0  0  2  0  0  0  0  0  0
  188.5440  173.8930  141.9480 O   0  0  0  0  0  0  0  0  0  0  0  0
  190.8060  173.1630  142.3810 C   0  0  0  0  0  2  0  0  0  0  0  0
  190.2950  175.5410  142.1710 C   0  0  1  0  0  3  0  0  0  0  0  0
  186.3220  176.5340  147.2390 C   0  0  0  0  0  1  0  0  0  0  0  0
  187.5900  176.1390  140.6950 O   0  0  0  0  0  0  0  0  0  0  0  0
  185.9690  178.9400  144.4920 C   0  0  2  0  0  3  0  0  0  0  0  0
  187.6790  177.2280  144.1970 C   0  0  0  0  0  2  0  0  0  0  0  0
  185.5500  178.8360  146.7110 C   0  0  0  0  0  0  0  0  0  0  0  0
  186.4530  177.6030  145.0010 C   0  0  1  0  0  3  0  0  0  0  0  0
  186.4980  178.2600  142.1810 C   0  0  0  0  0  2  0  0  0  0  0  0
  185.0660  179.4270  145.5110 N   0  0  0  0  0  2  0  0  0  0  0  0
  185.3700  178.7410  143.1170 C   0  0  0  0  0  2  0  0  0  0  0  0
  187.8760  176.1720  141.9240 C   0  0  0  0  0  0  0  0  0  0  0  0
  185.1250  179.1770  147.8480 O   0  0  0  0  0  0  0  0  0  0  0  0
  186.6200  177.8180  146.4910 C   0  0  2  0  0  3  0  0  0  0  0  0
  187.2900  177.1690  142.7780 N   0  0  0  0  0  0  0  0  0  0  0  0
  191.5790  174.7220  144.1270 C   0  0  1  0  0  3  0  0  0  0  0  0
  191.8860  173.4260  144.8650 C   0  0  0  0  0  1  0  0  0  0  0  0
  192.7200  175.7140  144.3080 C   0  0  0  0  0  2  0  0  0  0  0  0
  193.0600  176.4140  146.6510 C   0  0  0  0  0  1  0  0  0  0  0  0
  193.4940  175.4290  145.5860 C   0  0  2  0  0  3  0  0  0  0  0  0
  194.9650  175.5690  145.3420 C   0  0  0  0  0  0  0  0  0  0  0  0
  195.4110  176.5970  144.7640 O   0  0  0  0  0  0  0  0  0  0  0  0
  195.8670  174.5410  145.7540 N   0  0  0  0  0  1  0  0  0  0  0  0
  1 21  1  0  0  0  0
  2 17  1  6  0  0  0
  5  2  1  0  0  0  0
  5  4  1  0  0  0  0
  6  4  1  0  0  0  0
  6  1  1  0  0  0  0
  7  2  1  0  0  0  0
  7  3  1  1  0  0  0
  7  1  1  0  0  0  0
  9 17  2  0  0  0  0
 10 16  1  6  0  0  0
 10 13  1  0  0  0  0
 10 15  1  0  0  0  0
 12 18  2  0  0  0  0
 13 11  1  6  0  0  0
 13 19  1  0  0  0  0
 14 20  1  0  0  0  0
 14 16  1  0  0  0  0
 15 12  1  0  0  0  0
 17 20  1  0  0  0  0
 19 12  1  0  0  0  0
 19  8  1  1  0  0  0
 20 11  1  0  0  0  0
 21 23  1  0  0  0  0
 21 22  1  6  0  0  0
 23 25  1  0  0  0  0
 25 24  1  1  0  0  0
 26 25  1  0  0  0  0
 26 28  1  0  0  0  0
 27 26  2  0  0  0  0
M  END
>  <MODEL>
6

>  <REMARK>
 VINA RESULT:      -6.4      1.576      1.904
  Name = 
  5 active torsions:
  status: ('A' for Active; 'I' for Inactive)
    1  A    between atoms: N_1  and  C_2
    2  A    between atoms: C_2  and  C_3
    3  A    between atoms: C_3  and  C_11
    4  A    between atoms: C_6  and  C_11
    5  A    between atoms: C_16  and  C_20
                            x       y       z     vdW  Elec       q    Type
                         _______ _______ _______ _____ _____    ______ ____

>  <TORSDO>
F 5

$$$$
=
 OpenBabel11052418123D

 28 30  0  0  1  0  0  0  0  0999 V2000
  191.3520  174.3780  144.7480 N   0  0  0  0  0  0  0  0  0  0  0  0
  190.0570  176.4670  145.2080 C   0  0  1  0  0  3  0  0  0  0  0  0
  189.3410  174.2870  146.0110 O   0  0  0  0  0  1  0  0  0  0  0  0
  191.8710  176.6520  143.8730 C   0  0  0  0  0  2  0  0  0  0  0  0
  191.2050  177.2420  144.9610 O   0  0  0  0  0  0  0  0  0  0  0  0
  192.4190  175.2730  144.2610 C   0  0  0  0  0  2  0  0  0  0  0  0
  190.4620  175.0680  145.7080 C   0  0  1  0  0  3  0  0  0  0  0  0
  186.1000  178.1050  141.6700 C   0  0  0  0  0  1  0  0  0  0  0  0
  189.6660  177.5610  147.2890 O   0  0  0  0  0  0  0  0  0  0  0  0
  185.1550  178.0500  145.2130 C   0  0  2  0  0  3  0  0  0  0  0  0
  187.2180  176.8830  144.6420 C   0  0  0  0  0  2  0  0  0  0  0  0
  184.1520  178.2870  143.2020 C   0  0  0  0  0  0  0  0  0  0  0  0
  186.2070  177.8930  144.1420 C   0  0  1  0  0  3  0  0  0  0  0  0
  186.8990  177.9220  146.9530 C   0  0  0  0  0  2  0  0  0  0  0  0
  184.0420  178.7010  144.5580 N   0  0  0  0  0  2  0  0  0  0  0  0
  185.7660  178.7980  146.3780 C   0  0  0  0  0  2  0  0  0  0  0  0
  189.1750  177.1710  146.1930 C   0  0  0  0  0  0  0  0  0  0  0  0
  183.2440  178.5070  142.3560 O   0  0  0  0  0  0  0  0  0  0  0  0
  185.4130  177.5460  142.8990 C   0  0  2  0  0  3  0  0  0  0  0  0
  187.7860  177.3960  145.8990 N   0  0  0  0  0  0  0  0  0  0  0  0
  190.6290  173.6920  143.6530 C   0  0  1  0  0  3  0  0  0  0  0  0
  191.1630  174.0100  142.2630 C   0  0  0  0  0  1  0  0  0  0  0  0
  190.5900  172.1850  143.8700 C   0  0  0  0  0  2  0  0  0  0  0  0
  190.6920  170.4340  142.1320 C   0  0  0  0  0  1  0  0  0  0  0  0
  191.5020  171.4680  142.8860 C   0  0  2  0  0  3  0  0  0  0  0  0
  192.6220  170.7930  143.6170 C   0  0  0  0  0  0  0  0  0  0  0  0
  193.1300  171.3410  144.6330 O   0  0  0  0  0  0  0  0  0  0  0  0
  193.1240  169.5340  143.1660 N   0  0  0  0  0  1  0  0  0  0  0  0
  1  7  1  0  0  0  0
  2  7  1  0  0  0  0
  2 17  1  1  0  0  0
  4  6  1  0  0  0  0
  4  5  1  0  0  0  0
  5  2  1  0  0  0  0
  6  1  1  0  0  0  0
  7  3  1  6  0  0  0
 10 16  1  1  0  0  0
 11 20  1  0  0  0  0
 12 15  1  0  0  0  0
 13 11  1  1  0  0  0
 13 10  1  0  0  0  0
 15 10  1  0  0  0  0
 16 14  1  0  0  0  0
 17  9  2  0  0  0  0
 18 12  2  0  0  0  0
 19  8  1  6  0  0  0
 19 12  1  0  0  0  0
 19 13  1  0  0  0  0
 20 17  1  0  0  0  0
 20 14  1  0  0  0  0
 21 22  1  6  0  0  0
 21 23  1  0  0  0  0
 21  1  1  0  0  0  0
 25 24  1  1  0  0  0
 25 26  1  0  0  0  0
 25 23  1  0  0  0  0
 26 27  2  0  0  0  0
 28 26  1  0  0  0  0
M  END
>  <MODEL>
7

>  <REMARK>
 VINA RESULT:      -6.4      2.520      4.357
  Name = 
  5 active torsions:
  status: ('A' for Active; 'I' for Inactive)
    1  A    between atoms: N_1  and  C_2
    2  A    between atoms: C_2  and  C_3
    3  A    between atoms: C_3  and  C_11
    4  A    between atoms: C_6  and  C_11
    5  A    between atoms: C_16  and  C_20
                            x       y       z     vdW  Elec       q    Type
                         _______ _______ _______ _____ _____    ______ ____

>  <TORSDO>
F 5

$$$$
=
 OpenBabel11052418123D

 28 30  0  0  1  0  0  0  0  0999 V2000
  191.1750  173.5890  143.1210 N   0  0  0  0  0  0  0  0  0  0  0  0
  188.9260  174.2750  142.2690 C   0  0  1  0  0  3  0  0  0  0  0  0
  190.7810  175.8360  142.4540 O   0  0  0  0  0  1  0  0  0  0  0  0
  189.1410  172.1520  143.0130 C   0  0  0  0  0  2  0  0  0  0  0  0
  188.6230  172.9360  141.9670 O   0  0  0  0  0  0  0  0  0  0  0  0
  190.6740  172.2050  143.0140 C   0  0  0  0  0  2  0  0  0  0  0  0
  190.4480  174.4990  142.2070 C   0  0  1  0  0  3  0  0  0  0  0  0
  185.5350  176.6670  145.9620 C   0  0  0  0  0  1  0  0  0  0  0  0
  188.1910  174.9110  140.0930 O   0  0  0  0  0  0  0  0  0  0  0  0
  185.9930  178.4750  142.8040 C   0  0  2  0  0  3  0  0  0  0  0  0
  187.5850  176.6840  143.2460 C   0  0  0  0  0  2  0  0  0  0  0  0
  185.0840  178.8380  144.8410 C   0  0  0  0  0  0  0  0  0  0  0  0
  186.2440  177.2540  143.6550 C   0  0  1  0  0  3  0  0  0  0  0  0
  186.9670  177.3240  140.8530 C   0  0  0  0  0  2  0  0  0  0  0  0
  184.9270  179.1890  143.4720 N   0  0  0  0  0  2  0  0  0  0  0  0
  185.7010  178.0220  141.3910 C   0  0  0  0  0  2  0  0  0  0  0  0
  188.1980  175.1830  141.3250 C   0  0  0  0  0  0  0  0  0  0  0  0
  184.4450  179.4160  145.7620 O   0  0  0  0  0  0  0  0  0  0  0  0
  186.0920  177.7610  145.0750 C   0  0  2  0  0  3  0  0  0  0  0  0
  187.5170  176.3510  141.8140 N   0  0  0  0  0  0  0  0  0  0  0  0
  191.2380  174.0750  144.5180 C   0  0  1  0  0  3  0  0  0  0  0  0
  192.5520  174.7550  144.8790 C   0  0  0  0  0  1  0  0  0  0  0  0
  190.0650  174.9900  144.8440 C   0  0  0  0  0  2  0  0  0  0  0  0
  189.3080  174.8710  147.1910 C   0  0  0  0  0  1  0  0  0  0  0  0
  190.2190  175.6030  146.2270 C   0  0  2  0  0  3  0  0  0  0  0  0
  189.8500  177.0550  146.1930 C   0  0  0  0  0  0  0  0  0  0  0  0
  189.1330  177.5440  147.1070 O   0  0  0  0  0  0  0  0  0  0  0  0
  190.3020  177.8890  145.1250 N   0  0  0  0  0  1  0  0  0  0  0  0
  1 21  1  0  0  0  0
  2 17  1  6  0  0  0
  4  6  1  0  0  0  0
  5  2  1  0  0  0  0
  5  4  1  0  0  0  0
  6  1  1  0  0  0  0
  7  2  1  0  0  0  0
  7  3  1  1  0  0  0
  7  1  1  0  0  0  0
  9 17  2  0  0  0  0
 10 16  1  6  0  0  0
 10 15  1  0  0  0  0
 10 13  1  0  0  0  0
 12 19  1  0  0  0  0
 12 18  2  0  0  0  0
 13 11  1  1  0  0  0
 13 19  1  0  0  0  0
 14 16  1  0  0  0  0
 14 20  1  0  0  0  0
 15 12  1  0  0  0  0
 17 20  1  0  0  0  0
 19  8  1  1  0  0  0
 20 11  1  0  0  0  0
 21 23  1  0  0  0  0
 21 22  1  6  0  0  0
 23 25  1  0  0  0  0
 25 24  1  1  0  0  0
 26 25  1  0  0  0  0
 26 27  2  0  0  0  0
 28 26  1  0  0  0  0
M  END
>  <MODEL>
8

>  <REMARK>
 VINA RESULT:      -6.3      2.001      3.022
  Name = 
  5 active torsions:
  status: ('A' for Active; 'I' for Inactive)
    1  A    between atoms: N_1  and  C_2
    2  A    between atoms: C_2  and  C_3
    3  A    between atoms: C_3  and  C_11
    4  A    between atoms: C_6  and  C_11
    5  A    between atoms: C_16  and  C_20
                            x       y       z     vdW  Elec       q    Type
                         _______ _______ _______ _____ _____    ______ ____

>  <TORSDO>
F 5

$$$$
=
 OpenBabel11052418123D

 28 30  0  0  1  0  0  0  0  0999 V2000
  191.8910  174.3860  144.4040 N   0  0  0  0  0  0  0  0  0  0  0  0
  190.5650  176.3360  145.2340 C   0  0  1  0  0  3  0  0  0  0  0  0
  189.7250  174.0570  145.3230 O   0  0  0  0  0  1  0  0  0  0  0  0
  192.5470  176.7850  144.2460 C   0  0  0  0  0  2  0  0  0  0  0  0
  191.7420  177.0950  145.3560 O   0  0  0  0  0  0  0  0  0  0  0  0
  193.0230  175.3290  144.3180 C   0  0  0  0  0  2  0  0  0  0  0  0
  190.8840  174.8380  145.3890 C   0  0  1  0  0  3  0  0  0  0  0  0
  186.7360  178.2830  141.7120 C   0  0  0  0  0  1  0  0  0  0  0  0
  189.9420  177.0200  147.4310 O   0  0  0  0  0  0  0  0  0  0  0  0
  185.5590  177.5450  145.1070 C   0  0  2  0  0  3  0  0  0  0  0  0
  187.7450  176.6440  144.5170 C   0  0  0  0  0  2  0  0  0  0  0  0
  184.6790  178.0580  143.0890 C   0  0  0  0  0  0  0  0  0  0  0  0
  186.6910  177.6520  144.1130 C   0  0  1  0  0  3  0  0  0  0  0  0
  187.1840  177.2390  146.9360 C   0  0  0  0  0  2  0  0  0  0  0  0
  184.4430  178.2200  144.4820 N   0  0  0  0  0  2  0  0  0  0  0  0
  186.0250  178.1200  146.4270 C   0  0  0  0  0  2  0  0  0  0  0  0
  189.5620  176.7930  146.2490 C   0  0  0  0  0  0  0  0  0  0  0  0
  183.8160  178.3570  142.2200 O   0  0  0  0  0  0  0  0  0  0  0  0
  186.0150  177.4720  142.7690 C   0  0  2  0  0  3  0  0  0  0  0  0
  188.1820  176.9690  145.8850 N   0  0  0  0  0  0  0  0  0  0  0  0
  191.3200  174.0480  143.0800 C   0  0  1  0  0  3  0  0  0  0  0  0
  191.7070  175.0170  141.9720 C   0  0  0  0  0  1  0  0  0  0  0  0
  191.6620  172.6210  142.6740 C   0  0  0  0  0  2  0  0  0  0  0  0
  190.8160  170.3370  142.2670 C   0  0  0  0  0  1  0  0  0  0  0  0
  190.4360  171.7230  142.7470 C   0  0  2  0  0  3  0  0  0  0  0  0
  189.3420  172.2710  141.8830 C   0  0  0  0  0  0  0  0  0  0  0  0
  188.2520  172.6330  142.4030 O   0  0  0  0  0  0  0  0  0  0  0  0
  189.5240  172.3810  140.4710 N   0  0  0  0  0  1  0  0  0  0  0  0
  1  7  1  0  0  0  0
  2  5  1  0  0  0  0
  2  7  1  0  0  0  0
  2 17  1  1  0  0  0
  4  6  1  0  0  0  0
  4  5  1  0  0  0  0
  6  1  1  0  0  0  0
  7  3  1  6  0  0  0
 10 16  1  1  0  0  0
 11 20  1  0  0  0  0
 12 15  1  0  0  0  0
 13 11  1  1  0  0  0
 13 10  1  0  0  0  0
 15 10  1  0  0  0  0
 16 14  1  0  0  0  0
 17  9  2  0  0  0  0
 18 12  2  0  0  0  0
 19  8  1  6  0  0  0
 19 12  1  0  0  0  0
 19 13  1  0  0  0  0
 20 17  1  0  0  0  0
 20 14  1  0  0  0  0
 21 22  1  6  0  0  0
 21  1  1  0  0  0  0
 23 25  1  0  0  0  0
 23 21  1  0  0  0  0
 25 24  1  6  0  0  0
 26 27  2  0  0  0  0
 26 25  1  0  0  0  0
 28 26  1  0  0  0  0
M  END
>  <MODEL>
9

>  <REMARK>
 VINA RESULT:      -6.2      2.341      4.574
  Name = 
  5 active torsions:
  status: ('A' for Active; 'I' for Inactive)
    1  A    between atoms: N_1  and  C_2
    2  A    between atoms: C_2  and  C_3
    3  A    between atoms: C_3  and  C_11
    4  A    between atoms: C_6  and  C_11
    5  A    between atoms: C_16  and  C_20
                            x       y       z     vdW  Elec       q    Type
                         _______ _______ _______ _____ _____    ______ ____

>  <TORSDO>
F 5

$$$$
