=
 OpenBabel11052419133D

 32 37  0  0  1  0  0  0  0  0999 V2000
  189.0930  176.1960  145.8550 N   0  0  0  0  0  0  0  0  0  0  0  0
  187.2990  177.3210  144.6760 C   0  0  0  0  0  0  0  0  0  0  0  0
  187.9310  177.0610  145.8520 C   0  0  0  0  0  0  0  0  0  0  0  0
  186.0040  178.0880  144.6230 C   0  0  0  0  0  0  0  0  0  0  0  0
  187.1560  176.8240  139.8020 C   0  0  0  0  0  3  0  0  0  0  0  0
  187.8370  176.7630  143.4090 C   0  0  0  0  0  0  0  0  0  0  0  0
  185.4910  178.1470  140.9450 C   0  0  0  0  0  3  0  0  0  0  0  0
  186.0790  177.8480  142.1800 C   0  0  0  0  0  0  0  0  0  0  0  0
  185.0130  177.0950  146.6840 C   0  0  0  0  0  0  0  0  0  0  0  0
  187.5340  177.6370  147.2140 C   0  0  2  0  0  3  0  0  0  0  0  0
  185.5420  178.3380  143.2580 N   0  0  0  0  0  0  0  0  0  0  0  0
  186.0630  177.6310  147.6450 C   0  0  1  0  0  3  0  0  0  0  0  0
  186.7270  178.9280  147.1950 C   0  0  0  0  0  2  0  0  0  0  0  0
  189.0690  175.9570  143.4640 C   0  0  0  0  0  3  0  0  0  0  0  0
  184.0180  176.3480  147.2260 F   0  0  0  0  0  0  0  0  0  0  0  0
  189.6710  175.7030  144.6250 C   0  0  0  0  0  0  0  0  0  0  0  0
  187.2350  177.0310  142.2320 C   0  0  0  0  0  0  0  0  0  0  0  0
  184.9610  177.3210  145.3630 C   0  0  0  0  0  3  0  0  0  0  0  0
  186.0240  177.6370  139.7620 C   0  0  0  0  0  3  0  0  0  0  0  0
  187.7570  176.5250  141.0260 C   0  0  0  0  0  2  0  0  0  0  0  0
  193.2760  175.0520  145.5250 C   0  0  0  0  0  0  0  0  0  0  0  0
  193.9380  171.4820  144.9040 C   0  0  0  0  0  1  0  0  0  0  0  0
  194.4480  175.8890  145.9290 C   0  0  0  0  0  1  0  0  0  0  0  0
  191.8910  172.6070  144.2950 C   0  0  0  0  0  3  0  0  0  0  0  0
  190.9290  174.9130  144.6410 C   0  0  0  0  0  0  0  0  0  0  0  0
  193.3610  173.6950  145.8450 O   0  0  0  0  0  0  0  0  0  0  0  0
  190.8340  173.6190  144.3160 C   0  0  0  0  0  3  0  0  0  0  0  0
  192.2130  175.6170  144.9160 C   0  0  0  0  0  0  0  0  0  0  0  0
  192.2720  177.0740  144.5550 C   0  0  0  0  0  1  0  0  0  0  0  0
  193.0210  172.6480  144.9910 C   0  0  0  0  0  0  0  0  0  0  0  0
  189.6710  175.8640  147.0410 O   0  0  0  0  0  0  0  0  0  0  0  0
  189.1100  174.6340  147.4040 C   0  0  0  0  0  1  0  0  0  0  0  0
  1 31  1  0  0  0  0
  2  3  2  0  0  0  0
  3  1  1  0  0  0  0
  3 10  1  0  0  0  0
  4  2  1  0  0  0  0
  4 18  1  0  0  0  0
  5 20  1  0  0  0  0
  6 14  1  0  0  0  0
  6  2  1  0  0  0  0
  7  8  2  0  0  0  0
  8 17  1  0  0  0  0
  8 11  1  0  0  0  0
  9 15  1  0  0  0  0
  9 12  1  0  0  0  0
 10 13  1  6  0  0  0
 10 12  1  0  0  0  0
 11  4  2  0  0  0  0
 12 13  1  6  0  0  0
 14 16  2  0  0  0  0
 16 25  1  0  0  0  0
 16  1  1  0  0  0  0
 17  6  2  0  0  0  0
 18  9  2  0  0  0  0
 19  5  2  0  0  0  0
 19  7  1  0  0  0  0
 20 17  1  0  0  0  0
 21 26  1  0  0  0  0
 21 23  1  0  0  0  0
 22 30  1  0  0  0  0
 24 27  1  0  0  0  0
 24 30  2  0  0  0  0
 25 28  1  0  0  0  0
 27 25  2  0  0  0  0
 28 21  2  0  0  0  0
 29 28  1  0  0  0  0
 30 26  1  0  0  0  0
 31 32  1  0  0  0  0
M  END
>  <MODEL>
1

>  <REMARK>
 VINA RESULT:      -8.6      0.000      0.000
  Name = 
  2 active torsions:
  status: ('A' for Active; 'I' for Inactive)
    1  A    between atoms: N_1  and  O_4
    2  A    between atoms: C_16  and  C_27
                            x       y       z     vdW  Elec       q    Type
                         _______ _______ _______ _____ _____    ______ ____

>  <TORSDO>
F 2

$$$$
=
 OpenBabel11052419133D

 32 37  0  0  1  0  0  0  0  0999 V2000
  190.8230  176.2700  144.7710 N   0  0  0  0  0  0  0  0  0  0  0  0
  192.3340  174.4330  144.3080 C   0  0  0  0  0  0  0  0  0  0  0  0
  192.1400  175.6690  144.8410 C   0  0  0  0  0  0  0  0  0  0  0  0
  193.7050  173.8150  144.2150 C   0  0  0  0  0  0  0  0  0  0  0  0
  190.4410  170.4540  142.1600 C   0  0  0  0  0  3  0  0  0  0  0  0
  191.1900  173.6950  143.7140 C   0  0  0  0  0  0  0  0  0  0  0  0
  192.7880  170.5400  142.7230 C   0  0  0  0  0  3  0  0  0  0  0  0
  192.6370  171.8390  143.2230 C   0  0  0  0  0  0  0  0  0  0  0  0
  194.9140  175.9180  143.6370 C   0  0  0  0  0  0  0  0  0  0  0  0
  193.2080  176.5010  145.5560 C   0  0  2  0  0  3  0  0  0  0  0  0
  193.6830  172.4460  143.6990 N   0  0  0  0  0  0  0  0  0  0  0  0
  194.6020  176.6480  144.9350 C   0  0  1  0  0  3  0  0  0  0  0  0
  194.3870  175.7340  146.1380 C   0  0  0  0  0  2  0  0  0  0  0  0
  189.8580  174.3230  143.7440 C   0  0  0  0  0  3  0  0  0  0  0  0
  195.6570  176.5920  142.7240 F   0  0  0  0  0  0  0  0  0  0  0  0
  189.6850  175.5390  144.2610 C   0  0  0  0  0  0  0  0  0  0  0  0
  191.3630  172.4580  143.2030 C   0  0  0  0  0  0  0  0  0  0  0  0
  194.5550  174.6620  143.3300 C   0  0  0  0  0  3  0  0  0  0  0  0
  191.6980  169.8510  142.1930 C   0  0  0  0  0  3  0  0  0  0  0  0
  190.2760  171.7460  142.6630 C   0  0  0  0  0  2  0  0  0  0  0  0
  186.8560  177.4720  145.8400 C   0  0  0  0  0  0  0  0  0  0  0  0
  184.4410  178.2630  143.1720 C   0  0  0  0  0  1  0  0  0  0  0  0
  186.4620  177.8510  147.2310 C   0  0  0  0  0  1  0  0  0  0  0  0
  186.3570  176.8250  142.8830 C   0  0  0  0  0  3  0  0  0  0  0  0
  188.3230  176.1300  144.3040 C   0  0  0  0  0  0  0  0  0  0  0  0
  186.2870  178.2370  144.8190 O   0  0  0  0  0  0  0  0  0  0  0  0
  187.6750  176.2430  143.1380 C   0  0  0  0  0  3  0  0  0  0  0  0
  187.7290  176.4640  145.6280 C   0  0  0  0  0  0  0  0  0  0  0  0
  188.2130  175.6660  146.8050 C   0  0  0  0  0  1  0  0  0  0  0  0
  185.7440  177.7240  143.6420 C   0  0  0  0  0  0  0  0  0  0  0  0
  190.6490  177.5420  145.2220 O   0  0  0  0  0  0  0  0  0  0  0  0
  190.8070  178.3660  144.1020 C   0  0  0  0  0  1  0  0  0  0  0  0
  1  3  1  0  0  0  0
  1 31  1  0  0  0  0
  2  3  2  0  0  0  0
  3 10  1  0  0  0  0
  4  2  1  0  0  0  0
  5 19  2  0  0  0  0
  5 20  1  0  0  0  0
  6 14  1  0  0  0  0
  6  2  1  0  0  0  0
  7  8  2  0  0  0  0
  8 11  1  0  0  0  0
  9 12  1  0  0  0  0
 10 13  1  1  0  0  0
 11  4  2  0  0  0  0
 12 10  1  0  0  0  0
 12 13  1  1  0  0  0
 14 16  2  0  0  0  0
 15  9  1  0  0  0  0
 16 25  1  0  0  0  0
 16  1  1  0  0  0  0
 17  8  1  0  0  0  0
 17  6  2  0  0  0  0
 18  9  2  0  0  0  0
 18  4  1  0  0  0  0
 19  7  1  0  0  0  0
 20 17  1  0  0  0  0
 21 23  1  0  0  0  0
 22 30  1  0  0  0  0
 24 27  1  0  0  0  0
 24 30  2  0  0  0  0
 25 28  1  0  0  0  0
 26 21  1  0  0  0  0
 27 25  2  0  0  0  0
 28 21  2  0  0  0  0
 28 29  1  0  0  0  0
 30 26  1  0  0  0  0
 32 31  1  0  0  0  0
M  END
>  <MODEL>
2

>  <REMARK>
 VINA RESULT:      -8.1      3.101      7.505
  Name = 
  2 active torsions:
  status: ('A' for Active; 'I' for Inactive)
    1  A    between atoms: N_1  and  O_4
    2  A    between atoms: C_16  and  C_27
                            x       y       z     vdW  Elec       q    Type
                         _______ _______ _______ _____ _____    ______ ____

>  <TORSDO>
F 2

$$$$
=
 OpenBabel11052419133D

 32 37  0  0  1  0  0  0  0  0999 V2000
  191.0920  174.6850  143.7370 N   0  0  0  0  0  0  0  0  0  0  0  0
  189.4610  176.2270  144.6510 C   0  0  0  0  0  0  0  0  0  0  0  0
  190.5580  175.4480  144.8480 C   0  0  0  0  0  0  0  0  0  0  0  0
  188.7690  176.9260  145.7910 C   0  0  0  0  0  0  0  0  0  0  0  0
  186.1380  178.0760  141.5580 C   0  0  0  0  0  3  0  0  0  0  0  0
  188.8600  176.3300  143.2970 C   0  0  0  0  0  0  0  0  0  0  0  0
  186.1210  178.7040  143.8900 C   0  0  0  0  0  3  0  0  0  0  0  0
  187.2100  177.8610  144.1400 C   0  0  0  0  0  0  0  0  0  0  0  0
  189.0340  175.0800  147.4460 C   0  0  0  0  0  0  0  0  0  0  0  0
  191.3230  175.3170  146.1670 C   0  0  2  0  0  3  0  0  0  0  0  0
  187.6700  177.7870  145.3540 N   0  0  0  0  0  0  0  0  0  0  0  0
  190.5550  175.1050  147.4770 C   0  0  1  0  0  3  0  0  0  0  0  0
  191.1710  176.4630  147.1560 C   0  0  0  0  0  2  0  0  0  0  0  0
  189.4960  175.5960  142.1890 C   0  0  0  0  0  3  0  0  0  0  0  0
  188.4250  174.1640  148.2400 F   0  0  0  0  0  0  0  0  0  0  0  0
  190.5650  174.8280  142.3990 C   0  0  0  0  0  0  0  0  0  0  0  0
  187.7870  177.1180  143.0810 C   0  0  0  0  0  0  0  0  0  0  0  0
  188.2440  175.8990  146.7370 C   0  0  0  0  0  3  0  0  0  0  0  0
  185.5850  178.8100  142.6060 C   0  0  0  0  0  3  0  0  0  0  0  0
  187.2310  177.2390  141.7930 C   0  0  0  0  0  2  0  0  0  0  0  0
  190.5730  172.6810  139.2980 C   0  0  0  0  0  0  0  0  0  0  0  0
  193.8530  173.1070  137.6750 C   0  0  0  0  0  1  0  0  0  0  0  0
  189.6540  171.6690  138.6910 C   0  0  0  0  0  1  0  0  0  0  0  0
  193.2850  174.0090  139.8400 C   0  0  0  0  0  3  0  0  0  0  0  0
  191.1990  174.1270  141.2550 C   0  0  0  0  0  0  0  0  0  0  0  0
  191.5010  173.2560  138.4260 O   0  0  0  0  0  0  0  0  0  0  0  0
  192.4470  174.4930  140.9370 C   0  0  0  0  0  3  0  0  0  0  0  0
  190.4630  173.0080  140.6020 C   0  0  0  0  0  0  0  0  0  0  0  0
  189.4750  172.2640  141.4560 C   0  0  0  0  0  1  0  0  0  0  0  0
  192.8500  173.4590  138.7130 C   0  0  0  0  0  0  0  0  0  0  0  0
  192.1330  173.8370  143.9550 O   0  0  0  0  0  0  0  0  0  0  0  0
  191.5570  172.6270  144.3590 C   0  0  0  0  0  1  0  0  0  0  0  0
  1 31  1  0  0  0  0
  1  3  1  0  0  0  0
  2  3  2  0  0  0  0
  2  4  1  0  0  0  0
  3 10  1  0  0  0  0
  4 18  1  0  0  0  0
  5 20  1  0  0  0  0
  5 19  2  0  0  0  0
  6  2  1  0  0  0  0
  7  8  2  0  0  0  0
  8 11  1  0  0  0  0
  9 12  1  0  0  0  0
  9 15  1  0  0  0  0
 10 13  1  1  0  0  0
 10 12  1  0  0  0  0
 11  4  2  0  0  0  0
 12 13  1  1  0  0  0
 14 16  2  0  0  0  0
 14  6  1  0  0  0  0
 16  1  1  0  0  0  0
 17  6  2  0  0  0  0
 17  8  1  0  0  0  0
 18  9  2  0  0  0  0
 19  7  1  0  0  0  0
 20 17  1  0  0  0  0
 21 28  2  0  0  0  0
 22 30  1  0  0  0  0
 23 21  1  0  0  0  0
 24 27  1  0  0  0  0
 25 16  1  0  0  0  0
 26 30  1  0  0  0  0
 26 21  1  0  0  0  0
 27 25  2  0  0  0  0
 28 25  1  0  0  0  0
 28 29  1  0  0  0  0
 30 24  2  0  0  0  0
 31 32  1  0  0  0  0
M  END
>  <MODEL>
3

>  <REMARK>
 VINA RESULT:      -7.8      3.280      4.610
  Name = 
  2 active torsions:
  status: ('A' for Active; 'I' for Inactive)
    1  A    between atoms: N_1  and  O_4
    2  A    between atoms: C_16  and  C_27
                            x       y       z     vdW  Elec       q    Type
                         _______ _______ _______ _____ _____    ______ ____

>  <TORSDO>
F 2

$$$$
=
 OpenBabel11052419133D

 32 37  0  0  1  0  0  0  0  0999 V2000
  190.4360  176.2610  143.8820 N   0  0  0  0  0  0  0  0  0  0  0  0
  191.4240  174.6540  142.3620 C   0  0  0  0  0  0  0  0  0  0  0  0
  191.5840  175.5240  143.3950 C   0  0  0  0  0  0  0  0  0  0  0  0
  192.5970  173.9700  141.7110 C   0  0  1  0  0  3  0  0  0  0  0  0
  188.4160  172.3870  139.2250 C   0  0  0  0  0  3  0  0  0  0  0  0
  190.0730  174.4290  141.7860 C   0  0  0  0  0  0  0  0  0  0  0  0
  190.7800  171.8920  139.2270 C   0  0  0  0  0  3  0  0  0  0  0  0
  190.9910  172.8270  140.2470 C   0  0  0  0  0  0  0  0  0  0  0  0
  194.1460  175.9220  141.8170 C   0  0  0  0  0  0  0  0  0  0  0  0
  192.8990  175.7870  144.1320 C   0  0  2  0  0  3  0  0  0  0  0  0
  192.2020  173.0040  140.6850 N   0  0  0  0  0  0  0  0  0  0  0  0
  194.1890  176.0140  143.3350 C   0  0  1  0  0  3  0  0  0  0  0  0
  193.9520  174.6900  144.0550 C   0  0  0  0  0  2  0  0  0  0  0  0
  188.9300  175.1460  142.3780 C   0  0  0  0  0  3  0  0  0  0  0  0
  194.8820  176.8320  141.1310 F   0  0  0  0  0  0  0  0  0  0  0  0
  189.1050  176.0040  143.3830 C   0  0  0  0  0  0  0  0  0  0  0  0
  189.8950  173.5510  140.7780 C   0  0  0  0  0  0  0  0  0  0  0  0
  193.4790  175.0060  141.0990 C   0  0  0  0  0  3  0  0  0  0  0  0
  189.5010  171.6730  138.7160 C   0  0  0  0  0  3  0  0  0  0  0  0
  188.6120  173.3170  140.2480 C   0  0  0  0  0  3  0  0  0  0  0  0
  185.7970  177.8130  143.2670 C   0  0  0  0  0  0  0  0  0  0  0  0
  184.4020  177.7770  146.6770 C   0  0  0  0  0  1  0  0  0  0  0  0
  185.0380  178.5970  142.2430 C   0  0  0  0  0  1  0  0  0  0  0  0
  186.6180  177.0070  146.1100 C   0  0  0  0  0  3  0  0  0  0  0  0
  187.9270  176.6860  143.9770 C   0  0  0  0  0  0  0  0  0  0  0  0
  185.0410  177.3160  144.3320 O   0  0  0  0  0  0  0  0  0  0  0  0
  187.7160  176.5010  145.2850 C   0  0  0  0  0  3  0  0  0  0  0  0
  187.1210  177.6000  143.1190 C   0  0  0  0  0  0  0  0  0  0  0  0
  187.8370  178.2510  141.9700 C   0  0  0  0  0  1  0  0  0  0  0  0
  185.4180  177.3660  145.6730 C   0  0  0  0  0  0  0  0  0  0  0  0
  190.6120  177.1970  144.8540 O   0  0  0  0  0  0  0  0  0  0  0  0
  190.8420  178.4030  144.1810 C   0  0  0  0  0  1  0  0  0  0  0  0
  1 31  1  0  0  0  0
  2  3  2  0  0  0  0
  3  1  1  0  0  0  0
  3 10  1  0  0  0  0
  4 18  1  6  0  0  0
  4  2  1  0  0  0  0
  5 20  2  0  0  0  0
  6  2  1  0  0  0  0
  6 14  1  0  0  0  0
  7  8  1  0  0  0  0
  8 11  2  0  0  0  0
  8 17  1  0  0  0  0
  9 12  1  0  0  0  0
 10 13  1  1  0  0  0
 11  4  1  0  0  0  0
 12 13  1  1  0  0  0
 12 10  1  0  0  0  0
 14 16  2  0  0  0  0
 15  9  1  0  0  0  0
 16  1  1  0  0  0  0
 16 25  1  0  0  0  0
 17  6  2  0  0  0  0
 18  9  2  0  0  0  0
 19  5  1  0  0  0  0
 19  7  2  0  0  0  0
 20 17  1  0  0  0  0
 21 26  1  0  0  0  0
 23 21  1  0  0  0  0
 25 27  2  0  0  0  0
 26 30  1  0  0  0  0
 27 24  1  0  0  0  0
 28 21  2  0  0  0  0
 28 25  1  0  0  0  0
 29 28  1  0  0  0  0
 30 24  2  0  0  0  0
 30 22  1  0  0  0  0
 32 31  1  0  0  0  0
M  END
>  <MODEL>
4

>  <REMARK>
 VINA RESULT:      -7.8      3.733      7.229
  Name = 
  2 active torsions:
  status: ('A' for Active; 'I' for Inactive)
    1  A    between atoms: N_1  and  O_4
    2  A    between atoms: C_16  and  C_27
                            x       y       z     vdW  Elec       q    Type
                         _______ _______ _______ _____ _____    ______ ____

>  <TORSDO>
F 2

$$$$
=
 OpenBabel11052419133D

 32 37  0  0  1  0  0  0  0  0999 V2000
  188.9980  174.8140  142.9900 N   0  0  0  0  0  0  0  0  0  0  0  0
  191.3150  174.1020  143.0160 C   0  0  0  0  0  0  0  0  0  0  0  0
  190.0940  174.0590  142.4170 C   0  0  0  0  0  0  0  0  0  0  0  0
  192.4540  173.2280  142.5600 C   0  0  1  0  0  3  0  0  0  0  0  0
  194.1990  175.9670  146.5130 C   0  0  0  0  0  3  0  0  0  0  0  0
  191.5230  174.9610  144.2100 C   0  0  0  0  0  0  0  0  0  0  0  0
  195.0880  174.4080  144.8960 C   0  0  0  0  0  3  0  0  0  0  0  0
  193.8300  174.2910  144.2940 C   0  0  0  0  0  0  0  0  0  0  0  0
  191.0740  171.2060  142.0840 C   0  0  0  0  0  0  0  0  0  0  0  0
  189.7650  173.2850  141.1380 C   0  0  2  0  0  3  0  0  0  0  0  0
  193.7030  173.4970  143.2730 N   0  0  0  0  0  0  0  0  0  0  0  0
  190.2370  171.8350  140.9800 C   0  0  1  0  0  3  0  0  0  0  0  0
  190.9360  172.9600  140.2210 C   0  0  0  0  0  2  0  0  0  0  0  0
  190.3920  175.7690  144.6990 C   0  0  0  0  0  3  0  0  0  0  0  0
  190.8060  169.9120  142.3880 F   0  0  0  0  0  0  0  0  0  0  0  0
  189.2000  175.7080  144.1080 C   0  0  0  0  0  0  0  0  0  0  0  0
  192.7340  175.0330  144.8000 C   0  0  0  0  0  0  0  0  0  0  0  0
  192.0720  171.8000  142.7560 C   0  0  0  0  0  3  0  0  0  0  0  0
  195.2730  175.2400  146.0010 C   0  0  0  0  0  3  0  0  0  0  0  0
  192.9410  175.8650  145.9160 C   0  0  0  0  0  3  0  0  0  0  0  0
  186.3580  178.1630  143.7460 C   0  0  0  0  0  0  0  0  0  0  0  0
  184.4390  178.0960  146.8900 C   0  0  0  0  0  1  0  0  0  0  0  0
  185.9410  179.1790  142.7300 C   0  0  0  0  0  1  0  0  0  0  0  0
  186.5330  176.9430  146.5540 C   0  0  0  0  0  3  0  0  0  0  0  0
  188.0900  176.5600  144.6070 C   0  0  0  0  0  0  0  0  0  0  0  0
  185.3580  177.7360  144.6220 O   0  0  0  0  0  0  0  0  0  0  0  0
  187.6350  176.3010  145.8380 C   0  0  0  0  0  3  0  0  0  0  0  0
  187.6250  177.6970  143.7640 C   0  0  0  0  0  0  0  0  0  0  0  0
  188.6300  178.2910  142.8190 C   0  0  0  0  0  1  0  0  0  0  0  0
  185.5110  177.5810  145.9980 C   0  0  0  0  0  0  0  0  0  0  0  0
  187.7570  174.7000  142.4450 O   0  0  0  0  0  0  0  0  0  0  0  0
  187.8170  175.3800  141.2220 C   0  0  0  0  0  1  0  0  0  0  0  0
  1 16  1  0  0  0  0
  2  6  1  0  0  0  0
  3  1  1  0  0  0  0
  3  2  2  0  0  0  0
  4 18  1  1  0  0  0
  4  2  1  0  0  0  0
  4 11  1  0  0  0  0
  6 14  1  0  0  0  0
  6 17  2  0  0  0  0
  7 19  2  0  0  0  0
  8 17  1  0  0  0  0
  8  7  1  0  0  0  0
  9 15  1  0  0  0  0
  9 18  2  0  0  0  0
 10 13  1  6  0  0  0
 10  3  1  0  0  0  0
 11  8  2  0  0  0  0
 12 13  1  6  0  0  0
 12 10  1  0  0  0  0
 12  9  1  0  0  0  0
 16 25  1  0  0  0  0
 16 14  2  0  0  0  0
 17 20  1  0  0  0  0
 19  5  1  0  0  0  0
 20  5  2  0  0  0  0
 21 28  2  0  0  0  0
 21 26  1  0  0  0  0
 23 21  1  0  0  0  0
 25 27  2  0  0  0  0
 26 30  1  0  0  0  0
 27 24  1  0  0  0  0
 28 25  1  0  0  0  0
 29 28  1  0  0  0  0
 30 24  2  0  0  0  0
 30 22  1  0  0  0  0
 31  1  1  0  0  0  0
 32 31  1  0  0  0  0
M  END
>  <MODEL>
5

>  <REMARK>
 VINA RESULT:      -7.7      3.058      7.829
  Name = 
  2 active torsions:
  status: ('A' for Active; 'I' for Inactive)
    1  A    between atoms: N_1  and  O_4
    2  A    between atoms: C_16  and  C_27
                            x       y       z     vdW  Elec       q    Type
                         _______ _______ _______ _____ _____    ______ ____

>  <TORSDO>
F 2

$$$$
=
 OpenBabel11052419133D

 32 37  0  0  1  0  0  0  0  0999 V2000
  191.4950  176.0440  143.4500 N   0  0  0  0  0  0  0  0  0  0  0  0
  189.7230  175.4590  141.9040 C   0  0  0  0  0  0  0  0  0  0  0  0
  190.2270  176.3360  142.8140 C   0  0  0  0  0  0  0  0  0  0  0  0
  188.3460  175.6270  141.3180 C   0  0  1  0  0  3  0  0  0  0  0  0
  190.2960  171.3620  139.2760 C   0  0  0  0  0  3  0  0  0  0  0  0
  190.4990  174.2480  141.5360 C   0  0  0  0  0  0  0  0  0  0  0  0
  188.3160  172.7190  139.0090 C   0  0  0  0  0  3  0  0  0  0  0  0
  188.7750  173.6090  139.9880 C   0  0  0  0  0  0  0  0  0  0  0  0
  187.2530  176.4290  143.4110 C   0  0  0  0  0  0  0  0  0  0  0  0
  189.5730  177.6590  143.2210 C   0  0  2  0  0  3  0  0  0  0  0  0
  188.0340  174.6320  140.2920 N   0  0  0  0  0  0  0  0  0  0  0  0
  188.0760  177.7010  143.5480 C   0  0  1  0  0  3  0  0  0  0  0  0
  188.5920  178.2650  142.2280 C   0  0  0  0  0  2  0  0  0  0  0  0
  191.8200  174.0450  142.1560 C   0  0  0  0  0  3  0  0  0  0  0  0
  186.3190  176.2030  144.3690 F   0  0  0  0  0  0  0  0  0  0  0  0
  192.2960  174.9080  143.0530 C   0  0  0  0  0  0  0  0  0  0  0  0
  190.0240  173.3820  140.6180 C   0  0  0  0  0  0  0  0  0  0  0  0
  187.3410  175.5340  142.4170 C   0  0  0  0  0  3  0  0  0  0  0  0
  189.0700  171.6000  138.6550 C   0  0  0  0  0  3  0  0  0  0  0  0
  190.7690  172.2460  140.2470 C   0  0  0  0  0  3  0  0  0  0  0  0
  195.8520  175.8680  143.8700 C   0  0  0  0  0  0  0  0  0  0  0  0
  197.0670  173.5110  146.4270 C   0  0  0  0  0  1  0  0  0  0  0  0
  196.8500  176.8440  143.3330 C   0  0  0  0  0  1  0  0  0  0  0  0
  194.9520  173.2990  145.2840 C   0  0  0  0  0  3  0  0  0  0  0  0
  193.6450  174.6910  143.6350 C   0  0  0  0  0  0  0  0  0  0  0  0
  196.0950  175.4030  145.1640 O   0  0  0  0  0  0  0  0  0  0  0  0
  193.7660  173.7000  144.5270 C   0  0  0  0  0  3  0  0  0  0  0  0
  194.7840  175.5060  143.1280 C   0  0  0  0  0  0  0  0  0  0  0  0
  194.6730  176.0160  141.7190 C   0  0  0  0  0  1  0  0  0  0  0  0
  195.9910  174.0730  145.5700 C   0  0  0  0  0  0  0  0  0  0  0  0
  191.9560  176.8740  144.4250 O   0  0  0  0  0  0  0  0  0  0  0  0
  191.4300  176.3780  145.6240 C   0  0  0  0  0  1  0  0  0  0  0  0
  1 31  1  0  0  0  0
  2  3  2  0  0  0  0
  3 10  1  0  0  0  0
  3  1  1  0  0  0  0
  4  2  1  0  0  0  0
  4 18  1  1  0  0  0
  5 20  2  0  0  0  0
  6  2  1  0  0  0  0
  6 14  1  0  0  0  0
  7  8  1  0  0  0  0
  8 11  2  0  0  0  0
  8 17  1  0  0  0  0
  9 12  1  0  0  0  0
  9 15  1  0  0  0  0
 10 13  1  6  0  0  0
 10 12  1  0  0  0  0
 11  4  1  0  0  0  0
 12 13  1  6  0  0  0
 14 16  2  0  0  0  0
 16  1  1  0  0  0  0
 16 25  1  0  0  0  0
 17  6  2  0  0  0  0
 18  9  2  0  0  0  0
 19  7  2  0  0  0  0
 19  5  1  0  0  0  0
 20 17  1  0  0  0  0
 21 26  1  0  0  0  0
 23 21  1  0  0  0  0
 24 30  2  0  0  0  0
 25 27  2  0  0  0  0
 26 30  1  0  0  0  0
 27 24  1  0  0  0  0
 28 25  1  0  0  0  0
 28 21  2  0  0  0  0
 29 28  1  0  0  0  0
 30 22  1  0  0  0  0
 31 32  1  0  0  0  0
M  END
>  <MODEL>
6

>  <REMARK>
 VINA RESULT:      -7.7      3.101      4.331
  Name = 
  2 active torsions:
  status: ('A' for Active; 'I' for Inactive)
    1  A    between atoms: N_1  and  O_4
    2  A    between atoms: C_16  and  C_27
                            x       y       z     vdW  Elec       q    Type
                         _______ _______ _______ _____ _____    ______ ____

>  <TORSDO>
F 2

$$$$
=
 OpenBabel11052419133D

 32 37  0  0  1  0  0  0  0  0999 V2000
  190.7520  174.0390  143.4400 N   0  0  0  0  0  0  0  0  0  0  0  0
  189.4150  175.8550  144.3250 C   0  0  0  0  0  0  0  0  0  0  0  0
  190.4340  174.9720  144.5020 C   0  0  0  0  0  0  0  0  0  0  0  0
  188.9360  176.7490  145.4390 C   0  0  0  0  0  0  0  0  0  0  0  0
  185.9910  177.7640  141.3820 C   0  0  0  0  0  3  0  0  0  0  0  0
  188.6810  175.8900  143.0340 C   0  0  0  0  0  0  0  0  0  0  0  0
  186.3040  178.6290  143.6150 C   0  0  0  0  0  3  0  0  0  0  0  0
  187.3160  177.6910  143.8530 C   0  0  0  0  0  0  0  0  0  0  0  0
  189.1800  175.0660  147.2630 C   0  0  0  0  0  0  0  0  0  0  0  0
  191.3230  174.8870  145.7450 C   0  0  2  0  0  3  0  0  0  0  0  0
  187.8970  177.6880  145.0150 N   0  0  0  0  0  0  0  0  0  0  0  0
  190.6880  174.9080  147.1400 C   0  0  1  0  0  3  0  0  0  0  0  0
  191.4100  176.1400  146.6040 C   0  0  0  0  0  2  0  0  0  0  0  0
  189.1030  174.9720  141.9620 C   0  0  0  0  0  3  0  0  0  0  0  0
  188.5660  174.3190  148.2150 F   0  0  0  0  0  0  0  0  0  0  0  0
  190.0980  174.1050  142.1530 C   0  0  0  0  0  0  0  0  0  0  0  0
  187.6840  176.7760  142.8350 C   0  0  0  0  0  0  0  0  0  0  0  0
  188.4100  175.8980  146.5450 C   0  0  0  0  0  3  0  0  0  0  0  0
  185.6440  178.6660  142.3870 C   0  0  0  0  0  3  0  0  0  0  0  0
  187.0040  176.8290  141.6040 C   0  0  0  0  0  2  0  0  0  0  0  0
  192.6030  172.2000  140.0740 C   0  0  0  0  0  0  0  0  0  0  0  0
  190.7180  169.8110  137.9970 C   0  0  0  0  0  1  0  0  0  0  0  0
  194.0760  172.2810  139.8290 C   0  0  0  0  0  1  0  0  0  0  0  0
  189.6980  171.5110  139.3730 C   0  0  0  0  0  3  0  0  0  0  0  0
  190.5190  173.2160  141.0410 C   0  0  0  0  0  0  0  0  0  0  0  0
  192.0020  170.9780  139.7600 O   0  0  0  0  0  0  0  0  0  0  0  0
  189.5610  172.4920  140.4490 C   0  0  0  0  0  3  0  0  0  0  0  0
  191.9380  173.2550  140.5910 C   0  0  0  0  0  0  0  0  0  0  0  0
  192.6810  174.5410  140.8160 C   0  0  0  0  0  1  0  0  0  0  0  0
  190.7970  170.8310  139.0740 C   0  0  0  0  0  0  0  0  0  0  0  0
  191.7110  173.0970  143.6500 O   0  0  0  0  0  0  0  0  0  0  0  0
  191.0330  171.9640  144.1150 C   0  0  0  0  0  1  0  0  0  0  0  0
  1 31  1  0  0  0  0
  1  3  1  0  0  0  0
  2  3  2  0  0  0  0
  2  4  1  0  0  0  0
  3 10  1  0  0  0  0
  4 18  1  0  0  0  0
  5 20  1  0  0  0  0
  5 19  2  0  0  0  0
  6  2  1  0  0  0  0
  7  8  2  0  0  0  0
  8 11  1  0  0  0  0
  9 15  1  0  0  0  0
 10 13  1  1  0  0  0
 10 12  1  0  0  0  0
 11  4  2  0  0  0  0
 12 13  1  1  0  0  0
 12  9  1  0  0  0  0
 14 16  2  0  0  0  0
 14  6  1  0  0  0  0
 16  1  1  0  0  0  0
 17  6  2  0  0  0  0
 17  8  1  0  0  0  0
 18  9  2  0  0  0  0
 19  7  1  0  0  0  0
 20 17  1  0  0  0  0
 21 28  2  0  0  0  0
 22 30  1  0  0  0  0
 23 21  1  0  0  0  0
 24 27  1  0  0  0  0
 25 16  1  0  0  0  0
 26 21  1  0  0  0  0
 27 25  2  0  0  0  0
 28 29  1  0  0  0  0
 28 25  1  0  0  0  0
 30 24  2  0  0  0  0
 30 26  1  0  0  0  0
 31 32  1  0  0  0  0
M  END
>  <MODEL>
7

>  <REMARK>
 VINA RESULT:      -7.6      3.247      4.445
  Name = 
  2 active torsions:
  status: ('A' for Active; 'I' for Inactive)
    1  A    between atoms: N_1  and  O_4
    2  A    between atoms: C_16  and  C_27
                            x       y       z     vdW  Elec       q    Type
                         _______ _______ _______ _____ _____    ______ ____

>  <TORSDO>
F 2

$$$$
=
 OpenBabel11052419133D

 32 37  0  0  1  0  0  0  0  0999 V2000
  191.0640  176.2900  145.1930 N   0  0  0  0  0  0  0  0  0  0  0  0
  192.3630  174.5720  144.0820 C   0  0  0  0  0  0  0  0  0  0  0  0
  192.3070  175.5700  145.0040 C   0  0  0  0  0  0  0  0  0  0  0  0
  193.6570  173.8860  143.7310 C   0  0  0  0  0  0  0  0  0  0  0  0
  190.0360  171.7600  140.8110 C   0  0  0  0  0  3  0  0  0  0  0  0
  191.1420  174.1970  143.3240 C   0  0  0  0  0  0  0  0  0  0  0  0
  192.3810  171.4140  141.2720 C   0  0  0  0  0  3  0  0  0  0  0  0
  192.3750  172.4780  142.1820 C   0  0  0  0  0  0  0  0  0  0  0  0
  195.0860  175.9280  143.8380 C   0  0  0  0  0  0  0  0  0  0  0  0
  193.4630  176.0010  145.9100 C   0  0  2  0  0  3  0  0  0  0  0  0
  193.4840  172.7810  142.7890 N   0  0  0  0  0  0  0  0  0  0  0  0
  194.8620  176.2070  145.3170 C   0  0  1  0  0  3  0  0  0  0  0  0
  194.5550  174.9690  146.1540 C   0  0  0  0  0  2  0  0  0  0  0  0
  189.8870  174.9090  143.6170 C   0  0  0  0  0  3  0  0  0  0  0  0
  195.8930  176.7910  143.1720 F   0  0  0  0  0  0  0  0  0  0  0  0
  189.8500  175.8920  144.5170 C   0  0  0  0  0  0  0  0  0  0  0  0
  191.1760  173.1930  142.4230 C   0  0  0  0  0  0  0  0  0  0  0  0
  194.5900  174.8920  143.1450 C   0  0  0  0  0  3  0  0  0  0  0  0
  191.2200  171.0570  140.5880 C   0  0  0  0  0  3  0  0  0  0  0  0
  190.0150  172.8170  141.7220 C   0  0  0  0  0  2  0  0  0  0  0  0
  186.7190  177.7970  143.6250 C   0  0  0  0  0  0  0  0  0  0  0  0
  184.4410  177.5840  146.5130 C   0  0  0  0  0  1  0  0  0  0  0  0
  186.2790  178.6660  142.4900 C   0  0  0  0  0  1  0  0  0  0  0  0
  186.7210  176.7900  146.5220 C   0  0  0  0  0  3  0  0  0  0  0  0
  188.5610  176.5680  144.8110 C   0  0  0  0  0  0  0  0  0  0  0  0
  185.6950  177.2560  144.4060 O   0  0  0  0  0  0  0  0  0  0  0  0
  187.9970  176.3060  145.9960 C   0  0  0  0  0  3  0  0  0  0  0  0
  188.0310  177.5570  143.8310 C   0  0  0  0  0  0  0  0  0  0  0  0
  189.0410  178.2590  142.9690 C   0  0  0  0  0  1  0  0  0  0  0  0
  185.6900  177.2100  145.7990 C   0  0  0  0  0  0  0  0  0  0  0  0
  191.0320  177.3460  146.0500 O   0  0  0  0  0  0  0  0  0  0  0  0
  190.9780  176.7900  147.3340 C   0  0  0  0  0  1  0  0  0  0  0  0
  1 31  1  0  0  0  0
  2  3  2  0  0  0  0
  3  1  1  0  0  0  0
  3 10  1  0  0  0  0
  4  2  1  0  0  0  0
  5 20  1  0  0  0  0
  6 14  1  0  0  0  0
  6  2  1  0  0  0  0
  7  8  2  0  0  0  0
  8 17  1  0  0  0  0
  8 11  1  0  0  0  0
  9 12  1  0  0  0  0
 10 13  1  1  0  0  0
 11  4  2  0  0  0  0
 12 10  1  0  0  0  0
 12 13  1  1  0  0  0
 14 16  2  0  0  0  0
 15  9  1  0  0  0  0
 16 25  1  0  0  0  0
 16  1  1  0  0  0  0
 17  6  2  0  0  0  0
 18  4  1  0  0  0  0
 18  9  2  0  0  0  0
 19  5  2  0  0  0  0
 19  7  1  0  0  0  0
 20 17  1  0  0  0  0
 21 28  2  0  0  0  0
 21 26  1  0  0  0  0
 23 21  1  0  0  0  0
 25 27  2  0  0  0  0
 26 30  1  0  0  0  0
 27 24  1  0  0  0  0
 28 25  1  0  0  0  0
 29 28  1  0  0  0  0
 30 22  1  0  0  0  0
 30 24  2  0  0  0  0
 31 32  1  0  0  0  0
M  END
>  <MODEL>
8

>  <REMARK>
 VINA RESULT:      -7.5      3.242      7.260
  Name = 
  2 active torsions:
  status: ('A' for Active; 'I' for Inactive)
    1  A    between atoms: N_1  and  O_4
    2  A    between atoms: C_16  and  C_27
                            x       y       z     vdW  Elec       q    Type
                         _______ _______ _______ _____ _____    ______ ____

>  <TORSDO>
F 2

$$$$
=
 OpenBabel11052419133D

 32 37  0  0  1  0  0  0  0  0999 V2000
  189.5470  174.7840  141.8850 N   0  0  0  0  0  0  0  0  0  0  0  0
  191.9220  174.4300  141.5590 C   0  0  0  0  0  0  0  0  0  0  0  0
  190.6490  174.2220  141.1300 C   0  0  0  0  0  0  0  0  0  0  0  0
  193.1000  173.7530  140.9080 C   0  0  1  0  0  3  0  0  0  0  0  0
  194.9720  176.5950  144.7280 C   0  0  0  0  0  3  0  0  0  0  0  0
  192.1710  175.2710  142.7580 C   0  0  0  0  0  0  0  0  0  0  0  0
  195.8400  175.2410  142.9250 C   0  0  0  0  0  3  0  0  0  0  0  0
  194.5390  174.9550  142.4940 C   0  0  0  0  0  0  0  0  0  0  0  0
  191.9750  171.5630  140.5170 C   0  0  0  0  0  0  0  0  0  0  0  0
  190.2570  173.4490  139.8680 C   0  0  2  0  0  3  0  0  0  0  0  0
  194.3850  174.1840  141.4580 N   0  0  0  0  0  0  0  0  0  0  0  0
  190.9080  172.0930  139.5710 C   0  0  1  0  0  3  0  0  0  0  0  0
  191.3210  173.3340  138.7850 C   0  0  0  0  0  2  0  0  0  0  0  0
  191.0160  175.8830  143.4380 C   0  0  0  0  0  3  0  0  0  0  0  0
  191.9430  170.2330  140.7850 F   0  0  0  0  0  0  0  0  0  0  0  0
  189.7730  175.6620  143.0110 C   0  0  0  0  0  0  0  0  0  0  0  0
  193.4300  175.5060  143.1820 C   0  0  0  0  0  0  0  0  0  0  0  0
  192.9610  172.2780  141.0780 C   0  0  0  0  0  3  0  0  0  0  0  0
  196.0570  176.0550  144.0370 C   0  0  0  0  0  3  0  0  0  0  0  0
  193.6700  176.3230  144.3020 C   0  0  0  0  0  3  0  0  0  0  0  0
  186.5550  177.6230  143.1640 C   0  0  0  0  0  0  0  0  0  0  0  0
  185.1880  177.2310  146.5630 C   0  0  0  0  0  1  0  0  0  0  0  0
  185.8270  178.5620  142.2560 C   0  0  0  0  0  1  0  0  0  0  0  0
  187.3600  176.4350  145.8750 C   0  0  0  0  0  3  0  0  0  0  0  0
  188.6340  176.3190  143.7000 C   0  0  0  0  0  0  0  0  0  0  0  0
  185.7850  177.0350  144.1710 O   0  0  0  0  0  0  0  0  0  0  0  0
  188.4250  175.9840  144.9790 C   0  0  0  0  0  3  0  0  0  0  0  0
  187.8660  177.3690  142.9730 C   0  0  0  0  0  0  0  0  0  0  0  0
  188.6030  178.1230  141.9030 C   0  0  0  0  0  1  0  0  0  0  0  0
  186.1750  176.9010  145.5020 C   0  0  0  0  0  0  0  0  0  0  0  0
  188.2710  174.5010  141.5080 O   0  0  0  0  0  0  0  0  0  0  0  0
  187.9700  173.2630  142.0880 C   0  0  0  0  0  1  0  0  0  0  0  0
  1 16  1  0  0  0  0
  2  6  1  0  0  0  0
  3  2  2  0  0  0  0
  3  1  1  0  0  0  0
  4 18  1  1  0  0  0
  4 11  1  0  0  0  0
  4  2  1  0  0  0  0
  6 17  2  0  0  0  0
  6 14  1  0  0  0  0
  7 19  2  0  0  0  0
  8  7  1  0  0  0  0
  8 17  1  0  0  0  0
  9 15  1  0  0  0  0
  9 18  2  0  0  0  0
 10 13  1  6  0  0  0
 10  3  1  0  0  0  0
 11  8  2  0  0  0  0
 12 13  1  6  0  0  0
 12 10  1  0  0  0  0
 12  9  1  0  0  0  0
 16 14  2  0  0  0  0
 16 25  1  0  0  0  0
 17 20  1  0  0  0  0
 19  5  1  0  0  0  0
 20  5  2  0  0  0  0
 21 26  1  0  0  0  0
 23 21  1  0  0  0  0
 25 27  2  0  0  0  0
 26 30  1  0  0  0  0
 27 24  1  0  0  0  0
 28 21  2  0  0  0  0
 28 25  1  0  0  0  0
 29 28  1  0  0  0  0
 30 24  2  0  0  0  0
 30 22  1  0  0  0  0
 31  1  1  0  0  0  0
 31 32  1  0  0  0  0
M  END
>  <MODEL>
9

>  <REMARK>
 VINA RESULT:      -7.4      3.816      8.020
  Name = 
  2 active torsions:
  status: ('A' for Active; 'I' for Inactive)
    1  A    between atoms: N_1  and  O_4
    2  A    between atoms: C_16  and  C_27
                            x       y       z     vdW  Elec       q    Type
                         _______ _______ _______ _____ _____    ______ ____

>  <TORSDO>
F 2

$$$$
