=
 OpenBabel11052421103D

 43 47  0  0  1  0  0  0  0  0999 V2000
  188.6830  174.7320  142.0240 C   0  0  0  0  0  2  0  0  0  0  0  0
  190.0970  176.6740  142.5840 C   0  0  0  0  0  2  0  0  0  0  0  0
  191.3020  175.8550  142.5530 N   0  0  0  0  0  0  0  0  0  0  0  0
  192.2920  173.8040  142.0560 O   0  0  0  0  0  0  0  0  0  0  0  0
  188.9280  175.8280  143.0550 C   0  0  1  0  0  3  0  0  0  0  0  0
  189.9060  173.8070  141.8720 C   0  0  2  0  0  3  0  0  0  0  0  0
  191.2360  174.4830  142.1250 C   0  0  0  0  0  0  0  0  0  0  0  0
  189.7780  171.8180  135.6930 C   0  0  0  0  0  0  0  0  0  0  0  0
  189.8850  173.1230  140.5400 C   0  0  0  0  0  0  0  0  0  0  0  0
  189.9160  171.7860  138.1080 C   0  0  0  0  0  0  0  0  0  0  0  0
  189.5990  173.2060  135.7160 C   0  0  0  0  0  3  0  0  0  0  0  0
  189.8030  171.1590  134.5130 F   0  0  0  0  0  0  0  0  0  0  0  0
  189.7370  173.1870  138.1290 C   0  0  0  0  0  0  0  0  0  0  0  0
  189.9370  171.1070  136.8870 C   0  0  0  0  0  3  0  0  0  0  0  0
  189.5790  173.8910  136.9350 C   0  0  0  0  0  3  0  0  0  0  0  0
  189.7280  173.8510  139.3520 C   0  0  0  0  0  3  0  0  0  0  0  0
  190.0570  171.7380  140.4740 C   0  0  0  0  0  3  0  0  0  0  0  0
  190.0650  171.1020  139.2720 N   0  0  0  0  0  0  0  0  0  0  0  0
  185.3230  177.0680  143.0610 C   0  0  0  0  0  3  0  0  0  0  0  0
  186.7350  178.7190  144.1260 C   0  0  0  0  0  3  0  0  0  0  0  0
  185.4700  178.2970  143.7070 C   0  0  0  0  0  0  0  0  0  0  0  0
  186.4400  176.2540  142.8420 C   0  0  0  0  0  3  0  0  0  0  0  0
  187.7090  176.6680  143.2770 C   0  0  0  0  0  0  0  0  0  0  0  0
  184.3610  179.1050  143.9280 O   0  0  0  0  0  1  0  0  0  0  0  0
  187.8510  177.9050  143.9120 C   0  0  0  0  0  3  0  0  0  0  0  0
  192.4330  176.3420  143.1210 O   0  0  0  0  0  0  0  0  0  0  0  0
  192.0410  176.8880  144.3510 C   0  0  0  0  0  2  0  0  0  0  0  0
  192.3100  175.9270  145.5100 C   0  0  1  0  0  3  0  0  0  0  0  0
  191.0730  175.0910  145.8300 C   0  0  0  0  0  2  0  0  0  0  0  0
  190.6250  175.3000  147.2740 C   0  0  0  0  0  3  0  0  0  0  0  0
  188.1640  175.6400  146.7830 C   0  0  0  0  0  2  0  0  0  0  0  0
  189.6710  177.6250  146.9810 C   0  0  0  0  0  2  0  0  0  0  0  0
  188.2720  177.0820  147.2610 C   0  0  0  0  0  2  0  0  0  0  0  0
  190.7200  176.7720  147.6940 C   0  0  0  0  0  2  0  0  0  0  0  0
  189.2040  174.7670  147.4860 C   0  0  0  0  0  2  0  0  0  0  0  0
  193.5380  175.0380  145.2610 C   0  0  1  0  0  3  0  0  0  0  0  0
  194.8590  175.6210  145.7870 C   0  0  0  0  0  2  0  0  0  0  0  0
  195.9240  175.6760  144.7380 C   0  0  0  0  0  3  0  0  0  0  0  0
  195.9260  176.6220  143.8780 N   0  0  0  0  0  0  0  0  0  0  0  0
  196.9420  176.6630  142.8640 C   0  0  0  0  0  1  0  0  0  0  0  0
  193.2940  173.5930  145.6930 C   0  0  0  0  0  2  0  0  0  0  0  0
  195.0080  171.8590  145.1460 C   0  0  0  0  0  1  0  0  0  0  0  0
  193.7950  172.6180  144.6380 C   0  0  0  0  0  2  0  0  0  0  0  0
  1  5  1  0  0  0  0
  2  5  1  0  0  0  0
  3  2  1  0  0  0  0
  3 26  1  0  0  0  0
  4  7  2  0  0  0  0
  5 23  1  6  0  0  0
  6  9  1  6  0  0  0
  6  1  1  0  0  0  0
  6  7  1  0  0  0  0
  7  3  1  0  0  0  0
  8 11  2  0  0  0  0
  8 14  1  0  0  0  0
 10 13  1  0  0  0  0
 10 18  1  0  0  0  0
 11 15  1  0  0  0  0
 12  8  1  0  0  0  0
 13 16  1  0  0  0  0
 14 10  2  0  0  0  0
 15 13  2  0  0  0  0
 16  9  2  0  0  0  0
 17  9  1  0  0  0  0
 18 17  2  0  0  0  0
 19 21  1  0  0  0  0
 21 24  1  0  0  0  0
 21 20  2  0  0  0  0
 22 19  2  0  0  0  0
 22 23  1  0  0  0  0
 23 25  2  0  0  0  0
 25 20  1  0  0  0  0
 26 27  1  0  0  0  0
 28 27  1  6  0  0  0
 28 29  1  0  0  0  0
 29 30  1  0  0  0  0
 30 35  1  0  0  0  0
 30 34  1  0  0  0  0
 31 33  1  0  0  0  0
 31 35  1  0  0  0  0
 32 33  1  0  0  0  0
 32 34  1  0  0  0  0
 36 28  1  0  0  0  0
 36 41  1  1  0  0  0
 36 37  1  0  0  0  0
 38 37  1  0  0  0  0
 39 38  2  0  0  0  0
 40 39  1  0  0  0  0
 43 42  1  0  0  0  0
 43 41  1  0  0  0  0
M  END
>  <MODEL>
1

>  <REMARK>
 VINA RESULT:      -7.4      0.000      0.000
  Name = 
  12 active torsions:
  status: ('A' for Active; 'I' for Inactive)
    1  A    between atoms: O_2  and  C_6
    2  A    between atoms: O_2  and  N_13
    3  A    between atoms: C_3  and  C_4
    4  A    between atoms: C_4  and  C_22
    5  A    between atoms: C_6  and  C_41
    6  A    between atoms: C_8  and  C_34
    7  A    between atoms: C_11  and  C_14
    8  A    between atoms: C_14  and  C_41
    9  A    between atoms: C_15  and  C_22
   10  A    between atoms: C_15  and  C_42
   11  A    between atoms: C_22  and  C_41
   12  A    between atoms: C_28  and  C_35
                            x       y       z     vdW  Elec       q    Type
                         _______ _______ _______ _____ _____    ______ ____

>  <TORSDO>
F 12

$$$$
=
 OpenBabel11052421103D

 43 47  0  0  1  0  0  0  0  0999 V2000
  189.6170  175.3310  142.0430 C   0  0  0  0  0  2  0  0  0  0  0  0
  191.9050  174.8860  142.8490 C   0  0  0  0  0  2  0  0  0  0  0  0
  192.1170  176.2970  143.1450 N   0  0  0  0  0  0  0  0  0  0  0  0
  191.2190  178.4410  143.3270 O   0  0  0  0  0  0  0  0  0  0  0  0
  190.9760  174.7580  141.6550 C   0  0  1  0  0  3  0  0  0  0  0  0
  189.7110  176.8240  142.4120 C   0  0  2  0  0  3  0  0  0  0  0  0
  191.0340  177.2350  143.0200 C   0  0  0  0  0  0  0  0  0  0  0  0
  185.2430  178.0360  146.9650 C   0  0  0  0  0  0  0  0  0  0  0  0
  188.5610  177.2210  143.2850 C   0  0  0  0  0  0  0  0  0  0  0  0
  186.4280  178.0510  144.8570 C   0  0  0  0  0  0  0  0  0  0  0  0
  186.2040  177.1720  147.5040 C   0  0  0  0  0  3  0  0  0  0  0  0
  184.2060  178.4530  147.7250 F   0  0  0  0  0  0  0  0  0  0  0  0
  187.3970  177.1810  145.4030 C   0  0  0  0  0  0  0  0  0  0  0  0
  185.3550  178.4770  145.6420 C   0  0  0  0  0  3  0  0  0  0  0  0
  187.2810  176.7440  146.7230 C   0  0  0  0  0  3  0  0  0  0  0  0
  188.4660  176.7730  144.6100 C   0  0  0  0  0  3  0  0  0  0  0  0
  187.5790  178.0800  142.7840 C   0  0  0  0  0  3  0  0  0  0  0  0
  186.5400  178.4710  143.5700 N   0  0  0  0  0  0  0  0  0  0  0  0
  190.0210  171.6320  139.6950 C   0  0  0  0  0  3  0  0  0  0  0  0
  191.4660  171.0090  141.5330 C   0  0  0  0  0  3  0  0  0  0  0  0
  190.7080  170.6510  140.4140 C   0  0  0  0  0  0  0  0  0  0  0  0
  190.0990  172.9720  140.0870 C   0  0  0  0  0  3  0  0  0  0  0  0
  190.8730  173.3370  141.2010 C   0  0  0  0  0  0  0  0  0  0  0  0
  190.6330  169.3200  140.0230 O   0  0  0  0  0  1  0  0  0  0  0  0
  191.5480  172.3480  141.9230 C   0  0  0  0  0  3  0  0  0  0  0  0
  193.3850  176.7370  143.3390 O   0  0  0  0  0  0  0  0  0  0  0  0
  193.5550  176.8200  144.7270 C   0  0  0  0  0  2  0  0  0  0  0  0
  193.6660  175.4370  145.3700 C   0  0  1  0  0  3  0  0  0  0  0  0
  195.0780  175.1820  145.8880 C   0  0  0  0  0  2  0  0  0  0  0  0
  195.9520  174.5400  144.8140 C   0  0  0  0  0  3  0  0  0  0  0  0
  194.8780  172.2480  144.8770 C   0  0  0  0  0  2  0  0  0  0  0  0
  196.9200  172.6940  146.2490 C   0  0  0  0  0  2  0  0  0  0  0  0
  196.1770  171.6580  145.4090 C   0  0  0  0  0  2  0  0  0  0  0  0
  197.2300  173.9310  145.4060 C   0  0  0  0  0  2  0  0  0  0  0  0
  195.1640  173.4860  144.0280 C   0  0  0  0  0  2  0  0  0  0  0  0
  192.6160  175.2180  146.4700 C   0  0  1  0  0  3  0  0  0  0  0  0
  191.7310  176.4420  146.7540 C   0  0  0  0  0  2  0  0  0  0  0  0
  192.0720  177.1140  148.0460 C   0  0  0  0  0  3  0  0  0  0  0  0
  191.1400  177.5340  148.8150 N   0  0  0  0  0  0  0  0  0  0  0  0
  191.4730  178.1920  150.0470 C   0  0  0  0  0  1  0  0  0  0  0  0
  191.8240  173.9300  146.2540 C   0  0  0  0  0  2  0  0  0  0  0  0
  189.7290  173.1280  145.1520 C   0  0  0  0  0  1  0  0  0  0  0  0
  190.3570  174.2310  145.9850 C   0  0  0  0  0  2  0  0  0  0  0  0
  1  6  1  0  0  0  0
  2  3  1  0  0  0  0
  3 26  1  0  0  0  0
  5 23  1  1  0  0  0
  5  1  1  0  0  0  0
  5  2  1  0  0  0  0
  6  7  1  0  0  0  0
  6  9  1  1  0  0  0
  7  3  1  0  0  0  0
  7  4  2  0  0  0  0
  8 11  1  0  0  0  0
  8 12  1  0  0  0  0
  9 16  1  0  0  0  0
 10 13  1  0  0  0  0
 10 14  1  0  0  0  0
 13 15  1  0  0  0  0
 14  8  2  0  0  0  0
 15 11  2  0  0  0  0
 16 13  2  0  0  0  0
 17  9  2  0  0  0  0
 17 18  1  0  0  0  0
 18 10  2  0  0  0  0
 19 22  2  0  0  0  0
 19 21  1  0  0  0  0
 20 25  1  0  0  0  0
 21 20  2  0  0  0  0
 22 23  1  0  0  0  0
 23 25  2  0  0  0  0
 24 21  1  0  0  0  0
 26 27  1  0  0  0  0
 28 27  1  1  0  0  0
 28 29  1  0  0  0  0
 28 36  1  0  0  0  0
 30 34  1  0  0  0  0
 30 29  1  0  0  0  0
 31 33  1  0  0  0  0
 33 32  1  0  0  0  0
 34 32  1  0  0  0  0
 35 30  1  0  0  0  0
 35 31  1  0  0  0  0
 36 41  1  6  0  0  0
 36 37  1  0  0  0  0
 37 38  1  0  0  0  0
 38 39  2  0  0  0  0
 39 40  1  0  0  0  0
 42 43  1  0  0  0  0
 43 41  1  0  0  0  0
M  END
>  <MODEL>
2

>  <REMARK>
 VINA RESULT:      -7.4      3.423      7.508
  Name = 
  12 active torsions:
  status: ('A' for Active; 'I' for Inactive)
    1  A    between atoms: O_2  and  C_6
    2  A    between atoms: O_2  and  N_13
    3  A    between atoms: C_3  and  C_4
    4  A    between atoms: C_4  and  C_22
    5  A    between atoms: C_6  and  C_41
    6  A    between atoms: C_8  and  C_34
    7  A    between atoms: C_11  and  C_14
    8  A    between atoms: C_14  and  C_41
    9  A    between atoms: C_15  and  C_22
   10  A    between atoms: C_15  and  C_42
   11  A    between atoms: C_22  and  C_41
   12  A    between atoms: C_28  and  C_35
                            x       y       z     vdW  Elec       q    Type
                         _______ _______ _______ _____ _____    ______ ____

>  <TORSDO>
F 12

$$$$
=
 OpenBabel11052421103D

 43 47  0  0  1  0  0  0  0  0999 V2000
  189.9030  174.9090  143.4640 C   0  0  0  0  0  2  0  0  0  0  0  0
  191.6500  173.8280  144.8290 C   0  0  0  0  0  2  0  0  0  0  0  0
  191.9040  175.0670  145.5530 N   0  0  0  0  0  0  0  0  0  0  0  0
  191.2710  177.2640  146.0070 O   0  0  0  0  0  0  0  0  0  0  0  0
  191.2280  174.1560  143.4080 C   0  0  1  0  0  3  0  0  0  0  0  0
  190.0320  176.2360  144.2370 C   0  0  2  0  0  3  0  0  0  0  0  0
  191.0700  176.2190  145.3380 C   0  0  0  0  0  0  0  0  0  0  0  0
  184.1920  178.7270  145.5980 C   0  0  0  0  0  0  0  0  0  0  0  0
  188.6960  176.6740  144.7530 C   0  0  0  0  0  0  0  0  0  0  0  0
  186.2010  177.3880  145.7400 C   0  0  0  0  0  0  0  0  0  0  0  0
  184.6910  179.3640  144.4560 C   0  0  0  0  0  3  0  0  0  0  0  0
  182.9740  179.0610  146.0810 F   0  0  0  0  0  0  0  0  0  0  0  0
  186.7030  178.0300  144.5870 C   0  0  0  0  0  0  0  0  0  0  0  0
  184.9450  177.7380  146.2400 C   0  0  0  0  0  3  0  0  0  0  0  0
  185.9470  179.0160  143.9510 C   0  0  0  0  0  3  0  0  0  0  0  0
  187.9520  177.6640  144.0960 C   0  0  0  0  0  3  0  0  0  0  0  0
  188.1630  176.0650  145.8930 C   0  0  0  0  0  3  0  0  0  0  0  0
  186.9400  176.4320  146.3610 N   0  0  0  0  0  0  0  0  0  0  0  0
  191.1750  170.5020  142.3250 C   0  0  0  0  0  3  0  0  0  0  0  0
  190.8450  171.9120  140.3870 C   0  0  0  0  0  3  0  0  0  0  0  0
  190.9610  170.6380  140.9520 C   0  0  0  0  0  0  0  0  0  0  0  0
  191.2640  171.6380  143.1370 C   0  0  0  0  0  3  0  0  0  0  0  0
  191.1310  172.9180  142.5740 C   0  0  0  0  0  0  0  0  0  0  0  0
  190.8690  169.5110  140.1460 O   0  0  0  0  0  1  0  0  0  0  0  0
  190.9300  173.0470  141.1970 C   0  0  0  0  0  3  0  0  0  0  0  0
  193.0510  175.1770  146.2700 O   0  0  0  0  0  0  0  0  0  0  0  0
  193.8490  176.0990  145.5800 C   0  0  0  0  0  2  0  0  0  0  0  0
  195.2000  175.4990  145.1880 C   0  0  1  0  0  3  0  0  0  0  0  0
  195.3350  174.0670  145.6950 C   0  0  0  0  0  2  0  0  0  0  0  0
  195.7730  173.1250  144.5770 C   0  0  0  0  0  3  0  0  0  0  0  0
  194.4730  171.0970  145.3590 C   0  0  0  0  0  2  0  0  0  0  0  0
  196.8610  171.3730  146.0420 C   0  0  0  0  0  2  0  0  0  0  0  0
  195.7810  170.3720  145.6410 C   0  0  0  0  0  2  0  0  0  0  0  0
  197.0760  172.3930  144.9240 C   0  0  0  0  0  2  0  0  0  0  0  0
  194.6630  172.1230  144.2410 C   0  0  0  0  0  2  0  0  0  0  0  0
  195.4620  175.5860  143.6760 C   0  0  1  0  0  3  0  0  0  0  0  0
  194.2140  175.8950  142.8340 C   0  0  0  0  0  2  0  0  0  0  0  0
  194.3100  175.3550  141.4420 C   0  0  0  0  0  3  0  0  0  0  0  0
  194.3380  174.0920  141.2460 N   0  0  0  0  0  0  0  0  0  0  0  0
  194.4450  173.5790  139.9080 C   0  0  0  0  0  1  0  0  0  0  0  0
  196.6530  176.4880  143.3550 C   0  0  0  0  0  2  0  0  0  0  0  0
  197.9400  175.2190  141.6300 C   0  0  0  0  0  1  0  0  0  0  0  0
  197.9020  175.6630  143.0820 C   0  0  0  0  0  2  0  0  0  0  0  0
  1  6  1  0  0  0  0
  2  3  1  0  0  0  0
  3 26  1  0  0  0  0
  5 23  1  6  0  0  0
  5  1  1  0  0  0  0
  5  2  1  0  0  0  0
  6  9  1  1  0  0  0
  6  7  1  0  0  0  0
  7  3  1  0  0  0  0
  7  4  2  0  0  0  0
  8 12  1  0  0  0  0
  8 14  1  0  0  0  0
  9 17  1  0  0  0  0
 10 14  2  0  0  0  0
 10 18  1  0  0  0  0
 11  8  2  0  0  0  0
 13 10  1  0  0  0  0
 15 11  1  0  0  0  0
 15 13  2  0  0  0  0
 16 13  1  0  0  0  0
 16  9  2  0  0  0  0
 17 18  2  0  0  0  0
 19 22  1  0  0  0  0
 20 21  1  0  0  0  0
 20 25  2  0  0  0  0
 21 19  2  0  0  0  0
 23 22  2  0  0  0  0
 24 21  1  0  0  0  0
 25 23  1  0  0  0  0
 27 26  1  0  0  0  0
 28 27  1  6  0  0  0
 28 29  1  0  0  0  0
 30 34  1  0  0  0  0
 30 29  1  0  0  0  0
 31 33  1  0  0  0  0
 33 32  1  0  0  0  0
 34 32  1  0  0  0  0
 35 30  1  0  0  0  0
 35 31  1  0  0  0  0
 36 37  1  6  0  0  0
 36 28  1  0  0  0  0
 38 37  1  0  0  0  0
 39 38  2  0  0  0  0
 40 39  1  0  0  0  0
 41 36  1  0  0  0  0
 42 43  1  0  0  0  0
 43 41  1  0  0  0  0
M  END
>  <MODEL>
3

>  <REMARK>
 VINA RESULT:      -7.2      3.588      7.482
  Name = 
  12 active torsions:
  status: ('A' for Active; 'I' for Inactive)
    1  A    between atoms: O_2  and  C_6
    2  A    between atoms: O_2  and  N_13
    3  A    between atoms: C_3  and  C_4
    4  A    between atoms: C_4  and  C_22
    5  A    between atoms: C_6  and  C_41
    6  A    between atoms: C_8  and  C_34
    7  A    between atoms: C_11  and  C_14
    8  A    between atoms: C_14  and  C_41
    9  A    between atoms: C_15  and  C_22
   10  A    between atoms: C_15  and  C_42
   11  A    between atoms: C_22  and  C_41
   12  A    between atoms: C_28  and  C_35
                            x       y       z     vdW  Elec       q    Type
                         _______ _______ _______ _____ _____    ______ ____

>  <TORSDO>
F 12

$$$$
=
 OpenBabel11052421103D

 43 47  0  0  1  0  0  0  0  0999 V2000
  189.6210  175.0360  141.9690 C   0  0  0  0  0  2  0  0  0  0  0  0
  190.9280  173.4940  143.3820 C   0  0  0  0  0  2  0  0  0  0  0  0
  191.2990  174.5750  144.2860 N   0  0  0  0  0  0  0  0  0  0  0  0
  191.0200  176.7950  144.9420 O   0  0  0  0  0  0  0  0  0  0  0  0
  190.7800  174.0450  141.9760 C   0  0  1  0  0  3  0  0  0  0  0  0
  189.8790  176.2230  142.9180 C   0  0  2  0  0  3  0  0  0  0  0  0
  190.7290  175.8850  144.1230 C   0  0  0  0  0  0  0  0  0  0  0  0
  184.3560  178.4060  145.5450 C   0  0  0  0  0  0  0  0  0  0  0  0
  188.5860  176.8610  143.3220 C   0  0  0  0  0  0  0  0  0  0  0  0
  186.2240  178.1360  144.0310 C   0  0  0  0  0  0  0  0  0  0  0  0
  184.8580  177.3790  146.3540 C   0  0  0  0  0  3  0  0  0  0  0  0
  183.2120  179.0380  145.8860 F   0  0  0  0  0  0  0  0  0  0  0  0
  186.7290  177.1020  144.8500 C   0  0  0  0  0  0  0  0  0  0  0  0
  185.0390  178.7850  144.3840 C   0  0  0  0  0  3  0  0  0  0  0  0
  186.0440  176.7270  146.0060 C   0  0  0  0  0  3  0  0  0  0  0  0
  187.9160  176.4710  144.4900 C   0  0  0  0  0  3  0  0  0  0  0  0
  188.0500  177.8880  142.5390 C   0  0  0  0  0  3  0  0  0  0  0  0
  186.8900  178.4970  142.9030 N   0  0  0  0  0  0  0  0  0  0  0  0
  190.5390  170.5910  140.3820 C   0  0  0  0  0  3  0  0  0  0  0  0
  190.0740  172.2740  138.7080 C   0  0  0  0  0  3  0  0  0  0  0  0
  190.2070  170.9300  139.0690 C   0  0  0  0  0  0  0  0  0  0  0  0
  190.7290  171.5940  141.3390 C   0  0  0  0  0  3  0  0  0  0  0  0
  190.5790  172.9440  140.9830 C   0  0  0  0  0  0  0  0  0  0  0  0
  190.0160  169.9350  138.1190 O   0  0  0  0  0  1  0  0  0  0  0  0
  190.2590  173.2770  139.6640 C   0  0  0  0  0  3  0  0  0  0  0  0
  192.3320  174.3800  145.1430 O   0  0  0  0  0  0  0  0  0  0  0  0
  193.1280  173.3820  144.5660 C   0  0  0  0  0  2  0  0  0  0  0  0
  194.4890  173.9230  144.1250 C   0  0  1  0  0  3  0  0  0  0  0  0
  194.3820  174.6610  142.7940 C   0  0  0  0  0  2  0  0  0  0  0  0
  195.4280  174.1620  141.8010 C   0  0  0  0  0  3  0  0  0  0  0  0
  193.9400  174.1830  139.7530 C   0  0  0  0  0  2  0  0  0  0  0  0
  194.2050  172.0740  141.0670 C   0  0  0  0  0  2  0  0  0  0  0  0
  194.0390  172.6660  139.6700 C   0  0  0  0  0  2  0  0  0  0  0  0
  195.4640  172.6300  141.7300 C   0  0  0  0  0  2  0  0  0  0  0  0
  195.1920  174.7630  140.4110 C   0  0  0  0  0  2  0  0  0  0  0  0
  195.1450  174.8000  145.2020 C   0  0  1  0  0  3  0  0  0  0  0  0
  196.3750  174.1670  145.8720 C   0  0  0  0  0  2  0  0  0  0  0  0
  196.7070  172.8190  145.3150 C   0  0  0  0  0  3  0  0  0  0  0  0
  196.8500  171.8200  146.1000 N   0  0  0  0  0  0  0  0  0  0  0  0
  197.1830  170.5310  145.5610 C   0  0  0  0  0  1  0  0  0  0  0  0
  195.3870  176.2260  144.7080 C   0  0  0  0  0  2  0  0  0  0  0  0
  194.1310  176.7680  146.7980 C   0  0  0  0  0  1  0  0  0  0  0  0
  194.4300  177.2020  145.3740 C   0  0  0  0  0  2  0  0  0  0  0  0
  1  5  1  0  0  0  0
  1  6  1  0  0  0  0
  2  3  1  0  0  0  0
  3 26  1  0  0  0  0
  5 23  1  6  0  0  0
  5  2  1  0  0  0  0
  6  9  1  1  0  0  0
  6  7  1  0  0  0  0
  7  3  1  0  0  0  0
  7  4  2  0  0  0  0
  8 12  1  0  0  0  0
  8 11  1  0  0  0  0
  9 16  1  0  0  0  0
 10 14  1  0  0  0  0
 10 13  1  0  0  0  0
 13 15  1  0  0  0  0
 14  8  2  0  0  0  0
 15 11  2  0  0  0  0
 16 13  2  0  0  0  0
 17 18  1  0  0  0  0
 17  9  2  0  0  0  0
 18 10  2  0  0  0  0
 19 22  1  0  0  0  0
 20 21  1  0  0  0  0
 20 25  2  0  0  0  0
 21 19  2  0  0  0  0
 23 22  2  0  0  0  0
 24 21  1  0  0  0  0
 25 23  1  0  0  0  0
 27 26  1  0  0  0  0
 28 29  1  6  0  0  0
 28 27  1  0  0  0  0
 28 36  1  0  0  0  0
 30 29  1  0  0  0  0
 31 35  1  0  0  0  0
 32 34  1  0  0  0  0
 33 31  1  0  0  0  0
 33 32  1  0  0  0  0
 34 30  1  0  0  0  0
 35 30  1  0  0  0  0
 36 41  1  6  0  0  0
 36 37  1  0  0  0  0
 38 37  1  0  0  0  0
 38 39  2  0  0  0  0
 40 39  1  0  0  0  0
 41 43  1  0  0  0  0
 43 42  1  0  0  0  0
M  END
>  <MODEL>
4

>  <REMARK>
 VINA RESULT:      -7.1      3.434      7.505
  Name = 
  12 active torsions:
  status: ('A' for Active; 'I' for Inactive)
    1  A    between atoms: O_2  and  C_6
    2  A    between atoms: O_2  and  N_13
    3  A    between atoms: C_3  and  C_4
    4  A    between atoms: C_4  and  C_22
    5  A    between atoms: C_6  and  C_41
    6  A    between atoms: C_8  and  C_34
    7  A    between atoms: C_11  and  C_14
    8  A    between atoms: C_14  and  C_41
    9  A    between atoms: C_15  and  C_22
   10  A    between atoms: C_15  and  C_42
   11  A    between atoms: C_22  and  C_41
   12  A    between atoms: C_28  and  C_35
                            x       y       z     vdW  Elec       q    Type
                         _______ _______ _______ _____ _____    ______ ____

>  <TORSDO>
F 12

$$$$
=
 OpenBabel11052421103D

 43 47  0  0  1  0  0  0  0  0999 V2000
  190.4920  172.2040  141.5710 C   0  0  0  0  0  2  0  0  0  0  0  0
  189.5590  174.4460  142.0020 C   0  0  0  0  0  2  0  0  0  0  0  0
  189.3630  174.1360  143.4120 N   0  0  0  0  0  0  0  0  0  0  0  0
  189.7190  172.6660  145.1870 O   0  0  0  0  0  0  0  0  0  0  0  0
  189.3870  173.1800  141.1810 C   0  0  1  0  0  3  0  0  0  0  0  0
  190.4140  171.8170  143.0610 C   0  0  2  0  0  3  0  0  0  0  0  0
  189.8520  172.8980  143.9580 C   0  0  0  0  0  0  0  0  0  0  0  0
  196.2930  170.7150  145.5870 C   0  0  0  0  0  0  0  0  0  0  0  0
  191.7460  171.3390  143.5490 C   0  0  0  0  0  0  0  0  0  0  0  0
  194.1730  170.3610  144.4770 C   0  0  0  0  0  0  0  0  0  0  0  0
  195.9810  172.0680  145.7610 C   0  0  0  0  0  3  0  0  0  0  0  0
  197.4680  170.2270  146.0440 F   0  0  0  0  0  0  0  0  0  0  0  0
  193.8590  171.7260  144.6560 C   0  0  0  0  0  0  0  0  0  0  0  0
  195.3890  169.8600  144.9460 C   0  0  0  0  0  3  0  0  0  0  0  0
  194.7640  172.5740  145.2950 C   0  0  0  0  0  3  0  0  0  0  0  0
  192.6390  172.2080  144.1920 C   0  0  0  0  0  3  0  0  0  0  0  0
  192.0970  169.9950  143.3910 C   0  0  0  0  0  3  0  0  0  0  0  0
  193.2920  169.5380  143.8500 N   0  0  0  0  0  0  0  0  0  0  0  0
  190.5460  173.6660  137.5830 C   0  0  0  0  0  3  0  0  0  0  0  0
  188.1940  174.2060  137.7420 C   0  0  0  0  0  3  0  0  0  0  0  0
  189.3580  174.0790  136.9780 C   0  0  0  0  0  0  0  0  0  0  0  0
  190.5710  173.3700  138.9500 C   0  0  0  0  0  3  0  0  0  0  0  0
  189.3990  173.4810  139.7160 C   0  0  0  0  0  0  0  0  0  0  0  0
  189.3310  174.3700  135.6200 O   0  0  0  0  0  1  0  0  0  0  0  0
  188.2160  173.9060  139.1070 C   0  0  0  0  0  3  0  0  0  0  0  0
  188.5440  174.9310  144.1440 O   0  0  0  0  0  0  0  0  0  0  0  0
  188.1670  175.9800  143.2960 C   0  0  0  0  0  2  0  0  0  0  0  0
  188.5730  177.3420  143.8620 C   0  0  1  0  0  3  0  0  0  0  0  0
  187.4890  177.9010  144.7800 C   0  0  0  0  0  2  0  0  0  0  0  0
  186.1670  177.1650  144.5840 C   0  0  0  0  0  3  0  0  0  0  0  0
  184.6660  179.2020  144.6780 C   0  0  0  0  0  2  0  0  0  0  0  0
  185.0800  177.8750  146.7550 C   0  0  0  0  0  2  0  0  0  0  0  0
  184.0510  178.6840  145.9700 C   0  0  0  0  0  2  0  0  0  0  0  0
  185.5720  176.6950  145.9170 C   0  0  0  0  0  2  0  0  0  0  0  0
  185.1640  178.0370  143.8210 C   0  0  0  0  0  2  0  0  0  0  0  0
  189.9380  177.2990  144.5660 C   0  0  1  0  0  3  0  0  0  0  0  0
  191.0250  178.1530  143.8950 C   0  0  0  0  0  2  0  0  0  0  0  0
  191.9740  177.3380  143.0750 C   0  0  0  0  0  3  0  0  0  0  0  0
  192.3000  176.1610  143.4530 N   0  0  0  0  0  0  0  0  0  0  0  0
  193.2240  175.3890  142.6700 C   0  0  0  0  0  1  0  0  0  0  0  0
  189.8120  177.5440  146.0690 C   0  0  0  0  0  2  0  0  0  0  0  0
  189.4130  175.3800  147.2520 C   0  0  0  0  0  1  0  0  0  0  0  0
  190.4540  176.4140  146.8600 C   0  0  0  0  0  2  0  0  0  0  0  0
  1  6  1  0  0  0  0
  2  3  1  0  0  0  0
  3  7  1  0  0  0  0
  3 26  1  0  0  0  0
  5 23  1  6  0  0  0
  5  1  1  0  0  0  0
  5  2  1  0  0  0  0
  6  9  1  1  0  0  0
  6  7  1  0  0  0  0
  7  4  2  0  0  0  0
  8 11  1  0  0  0  0
  8 12  1  0  0  0  0
  9 16  1  0  0  0  0
 10 13  1  0  0  0  0
 10 14  1  0  0  0  0
 13 15  1  0  0  0  0
 14  8  2  0  0  0  0
 15 11  2  0  0  0  0
 16 13  2  0  0  0  0
 17  9  2  0  0  0  0
 17 18  1  0  0  0  0
 18 10  2  0  0  0  0
 19 22  1  0  0  0  0
 20 25  2  0  0  0  0
 21 19  2  0  0  0  0
 21 20  1  0  0  0  0
 22 23  2  0  0  0  0
 24 21  1  0  0  0  0
 25 23  1  0  0  0  0
 27 26  1  0  0  0  0
 28 27  1  1  0  0  0
 28 36  1  0  0  0  0
 28 29  1  0  0  0  0
 30 29  1  0  0  0  0
 30 34  1  0  0  0  0
 31 33  1  0  0  0  0
 33 32  1  0  0  0  0
 34 32  1  0  0  0  0
 35 30  1  0  0  0  0
 35 31  1  0  0  0  0
 36 37  1  6  0  0  0
 36 41  1  0  0  0  0
 38 39  2  0  0  0  0
 38 37  1  0  0  0  0
 40 39  1  0  0  0  0
 41 43  1  0  0  0  0
 43 42  1  0  0  0  0
M  END
>  <MODEL>
5

>  <REMARK>
 VINA RESULT:      -7.1      3.145      6.541
  Name = 
  12 active torsions:
  status: ('A' for Active; 'I' for Inactive)
    1  A    between atoms: O_2  and  C_6
    2  A    between atoms: O_2  and  N_13
    3  A    between atoms: C_3  and  C_4
    4  A    between atoms: C_4  and  C_22
    5  A    between atoms: C_6  and  C_41
    6  A    between atoms: C_8  and  C_34
    7  A    between atoms: C_11  and  C_14
    8  A    between atoms: C_14  and  C_41
    9  A    between atoms: C_15  and  C_22
   10  A    between atoms: C_15  and  C_42
   11  A    between atoms: C_22  and  C_41
   12  A    between atoms: C_28  and  C_35
                            x       y       z     vdW  Elec       q    Type
                         _______ _______ _______ _____ _____    ______ ____

>  <TORSDO>
F 12

$$$$
=
 OpenBabel11052421103D

 43 47  0  0  1  0  0  0  0  0999 V2000
  190.7970  171.9870  141.1610 C   0  0  0  0  0  2  0  0  0  0  0  0
  189.2620  173.8590  140.6900 C   0  0  0  0  0  2  0  0  0  0  0  0
  188.9030  173.9700  142.0970 N   0  0  0  0  0  0  0  0  0  0  0  0
  189.2970  173.3200  144.3010 O   0  0  0  0  0  0  0  0  0  0  0  0
  189.5680  172.4090  140.3620 C   0  0  1  0  0  3  0  0  0  0  0  0
  190.5540  172.0890  142.6790 C   0  0  2  0  0  3  0  0  0  0  0  0
  189.5840  173.1770  143.0850 C   0  0  0  0  0  0  0  0  0  0  0  0
  196.0160  173.6780  145.8110 C   0  0  0  0  0  0  0  0  0  0  0  0
  191.8540  172.2160  143.4110 C   0  0  0  0  0  0  0  0  0  0  0  0
  194.2390  172.3660  144.8240 C   0  0  0  0  0  0  0  0  0  0  0  0
  195.3990  174.8540  145.3690 C   0  0  0  0  0  3  0  0  0  0  0  0
  197.1720  173.7410  146.5080 F   0  0  0  0  0  0  0  0  0  0  0  0
  193.6180  173.5540  144.3810 C   0  0  0  0  0  0  0  0  0  0  0  0
  195.4370  172.4340  145.5400 C   0  0  0  0  0  3  0  0  0  0  0  0
  194.2000  174.7920  144.6530 C   0  0  0  0  0  3  0  0  0  0  0  0
  192.4200  173.4700  143.6770 C   0  0  0  0  0  3  0  0  0  0  0  0
  192.5040  171.0650  143.8660 C   0  0  0  0  0  3  0  0  0  0  0  0
  193.6730  171.1610  144.5540 N   0  0  0  0  0  0  0  0  0  0  0  0
  189.9130  170.8010  136.9240 C   0  0  0  0  0  3  0  0  0  0  0  0
  190.2270  173.1910  136.7210 C   0  0  0  0  0  3  0  0  0  0  0  0
  190.1630  171.9250  136.1330 C   0  0  0  0  0  0  0  0  0  0  0  0
  189.7180  170.9440  138.3020 C   0  0  0  0  0  3  0  0  0  0  0  0
  189.7650  172.2170  138.8920 C   0  0  0  0  0  0  0  0  0  0  0  0
  190.3540  171.7850  134.7640 O   0  0  0  0  0  1  0  0  0  0  0  0
  190.0280  173.3360  138.0970 C   0  0  0  0  0  3  0  0  0  0  0  0
  187.7900  174.6710  142.4310 O   0  0  0  0  0  0  0  0  0  0  0  0
  188.2000  176.0050  142.5570 C   0  0  0  0  0  2  0  0  0  0  0  0
  187.8670  176.5720  143.9380 C   0  0  1  0  0  3  0  0  0  0  0  0
  189.1360  176.8860  144.7250 C   0  0  0  0  0  2  0  0  0  0  0  0
  188.8320  177.0810  146.2080 C   0  0  0  0  0  3  0  0  0  0  0  0
  191.1210  176.4330  147.0760 C   0  0  0  0  0  2  0  0  0  0  0  0
  189.3150  174.7100  146.9480 C   0  0  0  0  0  2  0  0  0  0  0  0
  190.5150  175.2080  147.7480 C   0  0  0  0  0  2  0  0  0  0  0  0
  188.2570  175.8090  146.8450 C   0  0  0  0  0  2  0  0  0  0  0  0
  190.0810  177.5480  146.9640 C   0  0  0  0  0  2  0  0  0  0  0  0
  186.9390  177.7940  143.8600 C   0  0  1  0  0  3  0  0  0  0  0  0
  186.7920  178.3890  142.4500 C   0  0  0  0  0  2  0  0  0  0  0  0
  185.3630  178.5610  142.0420 C   0  0  0  0  0  3  0  0  0  0  0  0
  184.9610  178.1140  140.9130 N   0  0  0  0  0  0  0  0  0  0  0  0
  183.5920  178.2950  140.5200 C   0  0  0  0  0  1  0  0  0  0  0  0
  185.6030  177.5410  144.5570 C   0  0  0  0  0  2  0  0  0  0  0  0
  185.2250  177.8090  147.0120 C   0  0  0  0  0  1  0  0  0  0  0  0
  185.3830  178.5350  145.6880 C   0  0  0  0  0  2  0  0  0  0  0  0
  1  6  1  0  0  0  0
  2  3  1  0  0  0  0
  3 26  1  0  0  0  0
  3  7  1  0  0  0  0
  5 23  1  6  0  0  0
  5  2  1  0  0  0  0
  5  1  1  0  0  0  0
  6  7  1  0  0  0  0
  6  9  1  1  0  0  0
  7  4  2  0  0  0  0
  8 12  1  0  0  0  0
  9 16  2  0  0  0  0
  9 17  1  0  0  0  0
 10 14  2  0  0  0  0
 11  8  2  0  0  0  0
 13 15  2  0  0  0  0
 13 10  1  0  0  0  0
 14  8  1  0  0  0  0
 15 11  1  0  0  0  0
 16 13  1  0  0  0  0
 17 18  2  0  0  0  0
 18 10  1  0  0  0  0
 19 22  1  0  0  0  0
 20 25  2  0  0  0  0
 21 20  1  0  0  0  0
 21 19  2  0  0  0  0
 22 23  2  0  0  0  0
 24 21  1  0  0  0  0
 25 23  1  0  0  0  0
 26 27  1  0  0  0  0
 28 27  1  6  0  0  0
 28 29  1  0  0  0  0
 29 30  1  0  0  0  0
 30 34  1  0  0  0  0
 30 35  1  0  0  0  0
 31 33  1  0  0  0  0
 32 33  1  0  0  0  0
 34 32  1  0  0  0  0
 35 31  1  0  0  0  0
 36 37  1  6  0  0  0
 36 28  1  0  0  0  0
 36 41  1  0  0  0  0
 38 37  1  0  0  0  0
 39 38  2  0  0  0  0
 40 39  1  0  0  0  0
 41 43  1  0  0  0  0
 43 42  1  0  0  0  0
M  END
>  <MODEL>
6

>  <REMARK>
 VINA RESULT:      -7.1      3.287      7.832
  Name = 
  12 active torsions:
  status: ('A' for Active; 'I' for Inactive)
    1  A    between atoms: O_2  and  C_6
    2  A    between atoms: O_2  and  N_13
    3  A    between atoms: C_3  and  C_4
    4  A    between atoms: C_4  and  C_22
    5  A    between atoms: C_6  and  C_41
    6  A    between atoms: C_8  and  C_34
    7  A    between atoms: C_11  and  C_14
    8  A    between atoms: C_14  and  C_41
    9  A    between atoms: C_15  and  C_22
   10  A    between atoms: C_15  and  C_42
   11  A    between atoms: C_22  and  C_41
   12  A    between atoms: C_28  and  C_35
                            x       y       z     vdW  Elec       q    Type
                         _______ _______ _______ _____ _____    ______ ____

>  <TORSDO>
F 12

$$$$
=
 OpenBabel11052421103D

 43 47  0  0  1  0  0  0  0  0999 V2000
  190.8870  172.0570  140.3750 C   0  0  0  0  0  2  0  0  0  0  0  0
  189.5490  174.1120  140.6370 C   0  0  0  0  0  2  0  0  0  0  0  0
  188.9740  173.6240  141.8840 N   0  0  0  0  0  0  0  0  0  0  0  0
  188.9760  172.0170  143.5730 O   0  0  0  0  0  0  0  0  0  0  0  0
  189.8270  172.9340  139.7190 C   0  0  1  0  0  3  0  0  0  0  0  0
  190.4100  171.4990  141.7300 C   0  0  2  0  0  3  0  0  0  0  0  0
  189.4460  172.3990  142.4710 C   0  0  0  0  0  0  0  0  0  0  0  0
  195.4490  170.8970  145.7810 C   0  0  0  0  0  0  0  0  0  0  0  0
  191.5820  171.1300  142.5860 C   0  0  0  0  0  0  0  0  0  0  0  0
  193.7080  170.3510  144.1930 C   0  0  0  0  0  0  0  0  0  0  0  0
  195.0610  172.2410  145.7520 C   0  0  0  0  0  3  0  0  0  0  0  0
  196.4770  170.5060  146.5660 F   0  0  0  0  0  0  0  0  0  0  0  0
  193.3160  171.7070  144.1670 C   0  0  0  0  0  0  0  0  0  0  0  0
  194.7730  169.9510  145.0020 C   0  0  0  0  0  3  0  0  0  0  0  0
  193.9940  172.6470  144.9450 C   0  0  0  0  0  3  0  0  0  0  0  0
  192.2460  172.0890  143.3630 C   0  0  0  0  0  3  0  0  0  0  0  0
  192.0030  169.7980  142.6400 C   0  0  0  0  0  3  0  0  0  0  0  0
  193.0500  169.4390  143.4310 N   0  0  0  0  0  0  0  0  0  0  0  0
  191.9550  174.0050  136.7440 C   0  0  0  0  0  3  0  0  0  0  0  0
  189.6170  174.1360  136.1390 C   0  0  0  0  0  3  0  0  0  0  0  0
  190.9650  174.2860  135.8010 C   0  0  0  0  0  0  0  0  0  0  0  0
  191.6000  173.5650  138.0240 C   0  0  0  0  0  3  0  0  0  0  0  0
  190.2470  173.3970  138.3600 C   0  0  0  0  0  0  0  0  0  0  0  0
  191.3170  174.7200  134.5290 O   0  0  0  0  0  1  0  0  0  0  0  0
  189.2600  173.6920  137.4150 C   0  0  0  0  0  3  0  0  0  0  0  0
  187.8610  174.2310  142.3670 O   0  0  0  0  0  0  0  0  0  0  0  0
  188.1960  175.5820  142.5220 C   0  0  0  0  0  2  0  0  0  0  0  0
  188.2620  175.9860  143.9960 C   0  0  1  0  0  3  0  0  0  0  0  0
  189.6890  176.3350  144.4070 C   0  0  0  0  0  2  0  0  0  0  0  0
  190.4490  175.0940  144.8680 C   0  0  0  0  0  3  0  0  0  0  0  0
  189.6010  175.0850  147.2530 C   0  0  0  0  0  2  0  0  0  0  0  0
  191.7740  176.1980  146.7190 C   0  0  0  0  0  2  0  0  0  0  0  0
  191.0100  175.3740  147.7520 C   0  0  0  0  0  2  0  0  0  0  0  0
  191.8480  175.4430  145.3920 C   0  0  0  0  0  2  0  0  0  0  0  0
  189.6500  174.3270  145.9260 C   0  0  0  0  0  2  0  0  0  0  0  0
  187.2860  177.1230  144.3350 C   0  0  1  0  0  3  0  0  0  0  0  0
  185.8550  176.9060  143.8180 C   0  0  0  0  0  2  0  0  0  0  0  0
  185.4550  177.9130  142.7870 C   0  0  0  0  0  3  0  0  0  0  0  0
  184.9250  177.5280  141.6880 N   0  0  0  0  0  0  0  0  0  0  0  0
  184.5560  178.4980  140.6950 C   0  0  0  0  0  1  0  0  0  0  0  0
  187.3490  177.5070  145.8120 C   0  0  0  0  0  2  0  0  0  0  0  0
  185.9490  177.7290  147.8700 C   0  0  0  0  0  1  0  0  0  0  0  0
  186.1360  176.9780  146.5640 C   0  0  0  0  0  2  0  0  0  0  0  0
  1  6  1  0  0  0  0
  2  3  1  0  0  0  0
  3 26  1  0  0  0  0
  3  7  1  0  0  0  0
  5 23  1  6  0  0  0
  5  1  1  0  0  0  0
  5  2  1  0  0  0  0
  6  7  1  0  0  0  0
  6  9  1  1  0  0  0
  7  4  2  0  0  0  0
  8 12  1  0  0  0  0
  9 17  2  0  0  0  0
  9 16  1  0  0  0  0
 10 14  1  0  0  0  0
 11  8  1  0  0  0  0
 13 10  1  0  0  0  0
 13 15  1  0  0  0  0
 14  8  2  0  0  0  0
 15 11  2  0  0  0  0
 16 13  2  0  0  0  0
 17 18  1  0  0  0  0
 18 10  2  0  0  0  0
 19 22  1  0  0  0  0
 20 25  2  0  0  0  0
 21 20  1  0  0  0  0
 21 19  2  0  0  0  0
 22 23  2  0  0  0  0
 24 21  1  0  0  0  0
 25 23  1  0  0  0  0
 26 27  1  0  0  0  0
 28 27  1  6  0  0  0
 28 36  1  0  0  0  0
 28 29  1  0  0  0  0
 29 30  1  0  0  0  0
 30 34  1  0  0  0  0
 30 35  1  0  0  0  0
 31 33  1  0  0  0  0
 32 33  1  0  0  0  0
 34 32  1  0  0  0  0
 35 31  1  0  0  0  0
 36 37  1  1  0  0  0
 36 41  1  0  0  0  0
 38 37  1  0  0  0  0
 39 38  2  0  0  0  0
 40 39  1  0  0  0  0
 41 43  1  0  0  0  0
 43 42  1  0  0  0  0
M  END
>  <MODEL>
7

>  <REMARK>
 VINA RESULT:      -6.9      3.322      7.491
  Name = 
  12 active torsions:
  status: ('A' for Active; 'I' for Inactive)
    1  A    between atoms: O_2  and  C_6
    2  A    between atoms: O_2  and  N_13
    3  A    between atoms: C_3  and  C_4
    4  A    between atoms: C_4  and  C_22
    5  A    between atoms: C_6  and  C_41
    6  A    between atoms: C_8  and  C_34
    7  A    between atoms: C_11  and  C_14
    8  A    between atoms: C_14  and  C_41
    9  A    between atoms: C_15  and  C_22
   10  A    between atoms: C_15  and  C_42
   11  A    between atoms: C_22  and  C_41
   12  A    between atoms: C_28  and  C_35
                            x       y       z     vdW  Elec       q    Type
                         _______ _______ _______ _____ _____    ______ ____

>  <TORSDO>
F 12

$$$$
=
 OpenBabel11052421103D

 43 47  0  0  1  0  0  0  0  0999 V2000
  191.0780  172.1660  141.8170 C   0  0  0  0  0  2  0  0  0  0  0  0
  189.7760  174.2480  142.0580 C   0  0  0  0  0  2  0  0  0  0  0  0
  189.4520  173.9300  143.4420 N   0  0  0  0  0  0  0  0  0  0  0  0
  189.7930  172.5540  145.2930 O   0  0  0  0  0  0  0  0  0  0  0  0
  189.8990  172.9600  141.2630 C   0  0  1  0  0  3  0  0  0  0  0  0
  190.8700  171.7920  143.2970 C   0  0  2  0  0  3  0  0  0  0  0  0
  190.0450  172.7870  144.0830 C   0  0  0  0  0  0  0  0  0  0  0  0
  196.3490  169.6230  146.0230 C   0  0  0  0  0  0  0  0  0  0  0  0
  192.1850  171.5270  143.9610 C   0  0  0  0  0  0  0  0  0  0  0  0
  194.6650  171.1180  145.1400 C   0  0  0  0  0  0  0  0  0  0  0  0
  195.5350  168.5230  145.7270 C   0  0  0  0  0  3  0  0  0  0  0  0
  197.5620  169.4340  146.5890 F   0  0  0  0  0  0  0  0  0  0  0  0
  193.8460  170.0080  144.8410 C   0  0  0  0  0  0  0  0  0  0  0  0
  195.9160  170.9200  145.7290 C   0  0  0  0  0  3  0  0  0  0  0  0
  194.2830  168.7160  145.1360 C   0  0  0  0  0  3  0  0  0  0  0  0
  192.6060  170.2210  144.2450 C   0  0  0  0  0  3  0  0  0  0  0  0
  193.0270  172.5980  144.2760 C   0  0  0  0  0  3  0  0  0  0  0  0
  194.2360  172.3750  144.8570 N   0  0  0  0  0  0  0  0  0  0  0  0
  191.4010  173.4080  137.7880 C   0  0  0  0  0  3  0  0  0  0  0  0
  189.0390  173.9250  137.7080 C   0  0  0  0  0  3  0  0  0  0  0  0
  190.2740  173.7990  137.0640 C   0  0  0  0  0  0  0  0  0  0  0  0
  191.2940  173.1310  139.1560 C   0  0  0  0  0  3  0  0  0  0  0  0
  190.0520  173.2400  139.8020 C   0  0  0  0  0  0  0  0  0  0  0  0
  190.3780  174.0710  135.7060 O   0  0  0  0  0  1  0  0  0  0  0  0
  188.9300  173.6450  139.0730 C   0  0  0  0  0  3  0  0  0  0  0  0
  188.4370  174.6010  144.0420 O   0  0  0  0  0  0  0  0  0  0  0  0
  189.0420  175.6080  144.8070 C   0  0  0  0  0  2  0  0  0  0  0  0
  188.3780  176.9680  144.5830 C   0  0  1  0  0  3  0  0  0  0  0  0
  187.8610  177.5500  145.8950 C   0  0  0  0  0  2  0  0  0  0  0  0
  186.5850  176.8450  146.3470 C   0  0  0  0  0  3  0  0  0  0  0  0
  184.9780  178.1650  144.9020 C   0  0  0  0  0  2  0  0  0  0  0  0
  185.3970  178.8830  147.2590 C   0  0  0  0  0  2  0  0  0  0  0  0
  184.3510  178.7640  146.1530 C   0  0  0  0  0  2  0  0  0  0  0  0
  185.9750  177.5070  147.5890 C   0  0  0  0  0  2  0  0  0  0  0  0
  185.5620  176.7850  145.2070 C   0  0  0  0  0  2  0  0  0  0  0  0
  189.3020  177.9560  143.8560 C   0  0  1  0  0  3  0  0  0  0  0  0
  190.7730  177.8880  144.2930 C   0  0  0  0  0  2  0  0  0  0  0  0
  191.6800  177.4180  143.2000 C   0  0  0  0  0  3  0  0  0  0  0  0
  192.4290  176.3980  143.3830 N   0  0  0  0  0  0  0  0  0  0  0  0
  193.3080  175.9600  142.3360 C   0  0  0  0  0  1  0  0  0  0  0  0
  189.1140  177.9030  142.3400 C   0  0  0  0  0  2  0  0  0  0  0  0
  187.3310  176.8230  140.9620 C   0  0  0  0  0  1  0  0  0  0  0  0
  187.6370  177.9130  141.9750 C   0  0  0  0  0  2  0  0  0  0  0  0
  1  6  1  0  0  0  0
  2  3  1  0  0  0  0
  3 26  1  0  0  0  0
  3  7  1  0  0  0  0
  5 23  1  6  0  0  0
  5  1  1  0  0  0  0
  5  2  1  0  0  0  0
  6  9  1  1  0  0  0
  6  7  1  0  0  0  0
  7  4  2  0  0  0  0
  8 12  1  0  0  0  0
  9 16  2  0  0  0  0
  9 17  1  0  0  0  0
 10 14  2  0  0  0  0
 11  8  2  0  0  0  0
 13 15  2  0  0  0  0
 13 10  1  0  0  0  0
 14  8  1  0  0  0  0
 15 11  1  0  0  0  0
 16 13  1  0  0  0  0
 17 18  2  0  0  0  0
 18 10  1  0  0  0  0
 19 22  1  0  0  0  0
 20 25  2  0  0  0  0
 21 20  1  0  0  0  0
 21 19  2  0  0  0  0
 22 23  2  0  0  0  0
 24 21  1  0  0  0  0
 25 23  1  0  0  0  0
 26 27  1  0  0  0  0
 28 27  1  1  0  0  0
 28 29  1  0  0  0  0
 29 30  1  0  0  0  0
 30 34  1  0  0  0  0
 31 35  1  0  0  0  0
 31 33  1  0  0  0  0
 32 34  1  0  0  0  0
 33 32  1  0  0  0  0
 35 30  1  0  0  0  0
 36 41  1  6  0  0  0
 36 37  1  0  0  0  0
 36 28  1  0  0  0  0
 38 39  2  0  0  0  0
 38 37  1  0  0  0  0
 40 39  1  0  0  0  0
 42 43  1  0  0  0  0
 43 41  1  0  0  0  0
M  END
>  <MODEL>
8

>  <REMARK>
 VINA RESULT:      -6.9      3.362      6.994
  Name = 
  12 active torsions:
  status: ('A' for Active; 'I' for Inactive)
    1  A    between atoms: O_2  and  C_6
    2  A    between atoms: O_2  and  N_13
    3  A    between atoms: C_3  and  C_4
    4  A    between atoms: C_4  and  C_22
    5  A    between atoms: C_6  and  C_41
    6  A    between atoms: C_8  and  C_34
    7  A    between atoms: C_11  and  C_14
    8  A    between atoms: C_14  and  C_41
    9  A    between atoms: C_15  and  C_22
   10  A    between atoms: C_15  and  C_42
   11  A    between atoms: C_22  and  C_41
   12  A    between atoms: C_28  and  C_35
                            x       y       z     vdW  Elec       q    Type
                         _______ _______ _______ _____ _____    ______ ____

>  <TORSDO>
F 12

$$$$
=
 OpenBabel11052421103D

 43 47  0  0  1  0  0  0  0  0999 V2000
  190.9590  171.9550  141.4620 C   0  0  0  0  0  2  0  0  0  0  0  0
  189.3710  173.7800  140.9790 C   0  0  0  0  0  2  0  0  0  0  0  0
  189.1470  174.0130  142.4000 N   0  0  0  0  0  0  0  0  0  0  0  0
  189.7580  173.5590  144.6040 O   0  0  0  0  0  0  0  0  0  0  0  0
  189.6560  172.3060  140.7520 C   0  0  1  0  0  3  0  0  0  0  0  0
  190.8630  172.1900  142.9820 C   0  0  2  0  0  3  0  0  0  0  0  0
  189.9280  173.3100  143.3830 C   0  0  0  0  0  0  0  0  0  0  0  0
  196.6790  174.0170  145.2170 C   0  0  0  0  0  0  0  0  0  0  0  0
  192.2270  172.3800  143.5700 C   0  0  0  0  0  0  0  0  0  0  0  0
  194.7270  172.6700  144.7410 C   0  0  0  0  0  0  0  0  0  0  0  0
  196.1220  175.0850  144.5040 C   0  0  0  0  0  3  0  0  0  0  0  0
  197.8920  174.1510  145.7980 F   0  0  0  0  0  0  0  0  0  0  0  0
  194.1660  173.7490  144.0240 C   0  0  0  0  0  0  0  0  0  0  0  0
  195.9830  172.8100  145.3370 C   0  0  0  0  0  3  0  0  0  0  0  0
  194.8650  174.9510  143.9070 C   0  0  0  0  0  3  0  0  0  0  0  0
  192.9100  173.5980  143.4440 C   0  0  0  0  0  3  0  0  0  0  0  0
  192.8200  171.3370  144.2870 C   0  0  0  0  0  3  0  0  0  0  0  0
  194.0470  171.4990  144.8490 N   0  0  0  0  0  0  0  0  0  0  0  0
  190.1390  170.4530  137.4560 C   0  0  0  0  0  3  0  0  0  0  0  0
  189.4530  172.7280  136.9990 C   0  0  0  0  0  3  0  0  0  0  0  0
  189.8150  171.4570  136.5420 C   0  0  0  0  0  0  0  0  0  0  0  0
  190.0910  170.7150  138.8300 C   0  0  0  0  0  3  0  0  0  0  0  0
  189.7110  171.9860  139.2920 C   0  0  0  0  0  0  0  0  0  0  0  0
  189.8590  171.1980  135.1780 O   0  0  0  0  0  1  0  0  0  0  0  0
  189.4010  172.9890  138.3710 C   0  0  0  0  0  3  0  0  0  0  0  0
  188.0670  174.7410  142.7770 O   0  0  0  0  0  0  0  0  0  0  0  0
  188.3400  176.0610  142.3970 C   0  0  0  0  0  2  0  0  0  0  0  0
  187.9410  177.0600  143.4840 C   0  0  1  0  0  3  0  0  0  0  0  0
  186.4290  177.2690  143.5110 C   0  0  0  0  0  2  0  0  0  0  0  0
  186.0580  178.6730  143.0420 C   0  0  0  0  0  3  0  0  0  0  0  0
  184.0890  179.0030  144.6000 C   0  0  0  0  0  2  0  0  0  0  0  0
  183.7020  178.1460  142.2850 C   0  0  0  0  0  2  0  0  0  0  0  0
  183.1500  179.0260  143.4020 C   0  0  0  0  0  2  0  0  0  0  0  0
  185.0840  178.6410  141.8570 C   0  0  0  0  0  2  0  0  0  0  0  0
  185.4790  179.4980  144.1970 C   0  0  0  0  0  2  0  0  0  0  0  0
  188.4780  176.6640  144.8670 C   0  0  1  0  0  3  0  0  0  0  0  0
  189.6360  177.5390  145.3720 C   0  0  0  0  0  2  0  0  0  0  0  0
  190.8930  176.7590  145.5980 C   0  0  0  0  0  3  0  0  0  0  0  0
  191.0210  176.0420  146.6490 N   0  0  0  0  0  0  0  0  0  0  0  0
  192.2350  175.3070  146.8690 C   0  0  0  0  0  1  0  0  0  0  0  0
  187.3540  176.4940  145.8880 C   0  0  0  0  0  2  0  0  0  0  0  0
  186.0880  177.8220  147.5850 C   0  0  0  0  0  1  0  0  0  0  0  0
  187.4560  177.5380  146.9900 C   0  0  0  0  0  2  0  0  0  0  0  0
  1  6  1  0  0  0  0
  2  3  1  0  0  0  0
  3 26  1  0  0  0  0
  3  7  1  0  0  0  0
  5 23  1  6  0  0  0
  5  2  1  0  0  0  0
  5  1  1  0  0  0  0
  6  7  1  0  0  0  0
  6  9  1  6  0  0  0
  7  4  2  0  0  0  0
  8 14  1  0  0  0  0
  8 12  1  0  0  0  0
  9 17  1  0  0  0  0
 10 18  1  0  0  0  0
 10 14  2  0  0  0  0
 11  8  2  0  0  0  0
 13 10  1  0  0  0  0
 15 13  2  0  0  0  0
 15 11  1  0  0  0  0
 16  9  2  0  0  0  0
 16 13  1  0  0  0  0
 17 18  2  0  0  0  0
 19 22  1  0  0  0  0
 20 25  2  0  0  0  0
 21 20  1  0  0  0  0
 21 19  2  0  0  0  0
 22 23  2  0  0  0  0
 24 21  1  0  0  0  0
 25 23  1  0  0  0  0
 27 26  1  0  0  0  0
 28 27  1  6  0  0  0
 28 29  1  0  0  0  0
 28 36  1  0  0  0  0
 30 29  1  0  0  0  0
 30 35  1  0  0  0  0
 32 33  1  0  0  0  0
 33 31  1  0  0  0  0
 34 32  1  0  0  0  0
 34 30  1  0  0  0  0
 35 31  1  0  0  0  0
 36 37  1  1  0  0  0
 36 41  1  0  0  0  0
 37 38  1  0  0  0  0
 38 39  2  0  0  0  0
 39 40  1  0  0  0  0
 41 43  1  0  0  0  0
 43 42  1  0  0  0  0
M  END
>  <MODEL>
9

>  <REMARK>
 VINA RESULT:      -6.9      3.154      7.462
  Name = 
  12 active torsions:
  status: ('A' for Active; 'I' for Inactive)
    1  A    between atoms: O_2  and  C_6
    2  A    between atoms: O_2  and  N_13
    3  A    between atoms: C_3  and  C_4
    4  A    between atoms: C_4  and  C_22
    5  A    between atoms: C_6  and  C_41
    6  A    between atoms: C_8  and  C_34
    7  A    between atoms: C_11  and  C_14
    8  A    between atoms: C_14  and  C_41
    9  A    between atoms: C_15  and  C_22
   10  A    between atoms: C_15  and  C_42
   11  A    between atoms: C_22  and  C_41
   12  A    between atoms: C_28  and  C_35
                            x       y       z     vdW  Elec       q    Type
                         _______ _______ _______ _____ _____    ______ ____

>  <TORSDO>
F 12

$$$$
