=
 OpenBabel11052420193D

 34 38  0  0  1  0  0  0  0  0999 V2000
  191.8920  175.1910  145.1840 C   0  0  0  0  0  2  0  0  0  0  0  0
  193.4280  173.2150  144.8990 C   0  0  0  0  0  0  0  0  0  0  0  0
  197.0540  172.7180  145.7870 C   0  0  0  0  0  3  0  0  0  0  0  0
  195.5240  174.6170  146.0430 N   0  0  0  0  0  0  0  0  0  0  0  0
  192.3830  172.5090  144.3100 O   0  0  0  0  0  1  0  0  0  0  0  0
  194.3160  175.2290  145.9160 C   0  0  0  0  0  0  0  0  0  0  0  0
  193.2310  174.5320  145.3450 C   0  0  0  0  0  0  0  0  0  0  0  0
  197.2070  171.4020  145.6050 C   0  0  0  0  0  3  0  0  0  0  0  0
  196.0260  170.5050  145.3280 C   0  0  2  0  0  3  0  0  0  0  0  0
  195.7300  173.3410  145.6290 C   0  0  0  0  0  0  0  0  0  0  0  0
  194.9510  171.2310  144.5050 C   0  0  0  0  0  2  0  0  0  0  0  0
  194.6810  172.6110  145.0470 C   0  0  0  0  0  0  0  0  0  0  0  0
  194.9380  177.5860  145.5400 C   0  0  0  0  0  1  0  0  0  0  0  0
  194.1630  176.6270  146.4210 C   0  0  0  0  0  2  0  0  0  0  0  0
  195.4760  170.0710  146.5390 O   0  0  0  0  0  0  0  0  0  0  0  0
  196.7690  168.5870  147.8630 C   0  0  0  0  0  2  0  0  0  0  0  0
  195.3180  168.1690  147.9480 C   0  0  0  0  0  2  0  0  0  0  0  0
  195.8670  168.7360  146.6550 C   0  0  0  0  0  3  0  0  0  0  0  0
  190.9870  174.8560  146.3600 C   0  0  0  0  0  2  0  0  0  0  0  0
  189.5760  174.5440  145.8850 C   0  0  0  0  0  2  0  0  0  0  0  0
  188.8640  177.2720  146.8120 O   0  0  0  0  0  0  0  0  0  0  0  0
  188.5930  175.6090  143.7700 C   0  0  0  0  0  0  0  0  0  0  0  0
  185.6400  178.6580  144.0120 C   0  0  1  0  0  3  0  0  0  0  0  0
  186.4990  178.0840  145.1410 C   0  0  0  0  0  2  0  0  0  0  0  0
  187.9000  177.7430  144.6270 C   0  0  2  0  0  3  0  0  0  0  0  0
  189.0450  175.6580  145.1100 N   0  0  0  0  0  0  0  0  0  0  0  0
  186.4580  176.5090  142.8860 C   0  0  0  0  0  2  0  0  0  0  0  0
  187.8760  176.8500  143.3490 C   0  0  2  0  0  3  0  0  0  0  0  0
  185.6200  177.7800  142.7490 C   0  0  0  0  0  2  0  0  0  0  0  0
  188.8040  174.6270  143.0100 O   0  0  0  0  0  0  0  0  0  0  0  0
  188.6270  176.9060  145.6290 C   0  0  0  0  0  0  0  0  0  0  0  0
  183.1860  178.9060  143.5990 O   0  0  0  0  0  0  0  0  0  0  0  0
  184.2510  178.9030  144.4930 C   0  0  0  0  0  0  0  0  0  0  0  0
  184.0420  179.1140  145.7150 O   0  0  0  0  0  1  0  0  0  0  0  0
  1  7  1  0  0  0  0
  1 19  1  0  0  0  0
  2 12  2  0  0  0  0
  2  7  1  0  0  0  0
  5  2  1  0  0  0  0
  6  4  1  0  0  0  0
  6 14  1  0  0  0  0
  7  6  2  0  0  0  0
  8  3  2  0  0  0  0
  9  8  1  0  0  0  0
  9 15  1  1  0  0  0
 10  3  1  0  0  0  0
 10  4  2  0  0  0  0
 11 12  1  0  0  0  0
 11  9  1  0  0  0  0
 12 10  1  0  0  0  0
 13 14  1  0  0  0  0
 15 18  1  0  0  0  0
 16 17  1  0  0  0  0
 18 16  1  0  0  0  0
 18 17  1  0  0  0  0
 20 19  1  0  0  0  0
 22 26  1  0  0  0  0
 23 33  1  1  0  0  0
 23 24  1  0  0  0  0
 25 24  1  1  0  0  0
 25 31  1  0  0  0  0
 26 31  1  0  0  0  0
 26 20  1  0  0  0  0
 28 27  1  1  0  0  0
 28 22  1  0  0  0  0
 28 25  1  0  0  0  0
 29 27  1  0  0  0  0
 29 23  1  0  0  0  0
 30 22  2  0  0  0  0
 31 21  2  0  0  0  0
 32 33  2  0  0  0  0
 33 34  1  0  0  0  0
M  END
>  <MODEL>
1

>  <REMARK>
 VINA RESULT:      -7.8      0.000      0.000
  Name = 
  8 active torsions:
  status: ('A' for Active; 'I' for Inactive)
    1  A    between atoms: C_7  and  C_15
    2  A    between atoms: C_8  and  C_17
    3  A    between atoms: C_8  and  N_18
    4  A    between atoms: C_10  and  C_17
    5  A    between atoms: C_10  and  C_20
    6  A    between atoms: C_19  and  C_22
    7  A    between atoms: C_24  and  O_25
    8  A    between atoms: O_25  and  C_27
                            x       y       z     vdW  Elec       q    Type
                         _______ _______ _______ _____ _____    ______ ____

>  <TORSDO>
F 8

$$$$
=
 OpenBabel11052420193D

 34 38  0  0  1  0  0  0  0  0999 V2000
  190.0920  173.4700  143.2530 C   0  0  0  0  0  2  0  0  0  0  0  0
  192.1960  174.8130  143.5980 C   0  0  0  0  0  0  0  0  0  0  0  0
  193.5410  176.6220  146.6150 C   0  0  0  0  0  3  0  0  0  0  0  0
  191.5050  175.3090  146.2340 N   0  0  0  0  0  0  0  0  0  0  0  0
  192.5420  174.5800  142.2700 O   0  0  0  0  0  1  0  0  0  0  0  0
  190.6690  174.5600  145.4650 C   0  0  0  0  0  0  0  0  0  0  0  0
  191.0040  174.2850  144.1230 C   0  0  0  0  0  0  0  0  0  0  0  0
  194.7830  176.9250  146.2270 C   0  0  0  0  0  3  0  0  0  0  0  0
  195.3600  176.3800  144.9440 C   0  0  2  0  0  3  0  0  0  0  0  0
  192.6660  175.8170  145.7470 C   0  0  0  0  0  0  0  0  0  0  0  0
  194.2790  176.2270  143.8630 C   0  0  0  0  0  2  0  0  0  0  0  0
  193.0360  175.5770  144.4140 C   0  0  0  0  0  0  0  0  0  0  0  0
  188.8530  175.0110  147.0720 C   0  0  0  0  0  1  0  0  0  0  0  0
  189.4220  174.0140  146.0830 C   0  0  0  0  0  2  0  0  0  0  0  0
  195.9540  175.1380  145.1900 O   0  0  0  0  0  0  0  0  0  0  0  0
  197.9370  174.0980  144.4050 C   0  0  0  0  0  2  0  0  0  0  0  0
  196.7470  173.3430  143.8560 C   0  0  0  0  0  2  0  0  0  0  0  0
  196.6740  174.8460  144.0310 C   0  0  0  0  0  3  0  0  0  0  0  0
  188.8840  174.2910  142.8300 C   0  0  0  0  0  2  0  0  0  0  0  0
  189.2850  175.3750  141.8400 C   0  0  0  0  0  2  0  0  0  0  0  0
  189.6560  177.3650  144.0100 O   0  0  0  0  0  0  0  0  0  0  0  0
  187.3390  176.9970  141.4440 C   0  0  0  0  0  0  0  0  0  0  0  0
  185.5960  179.1660  144.6580 C   0  0  1  0  0  3  0  0  0  0  0  0
  186.8920  178.3520  144.6620 C   0  0  0  0  0  2  0  0  0  0  0  0
  187.6070  178.4790  143.3150 C   0  0  2  0  0  3  0  0  0  0  0  0
  188.5300  176.5960  142.0930 N   0  0  0  0  0  0  0  0  0  0  0  0
  185.2530  177.7960  142.5230 C   0  0  0  0  0  2  0  0  0  0  0  0
  186.6790  178.1640  142.1030 C   0  0  2  0  0  3  0  0  0  0  0  0
  184.6810  178.8590  143.4600 C   0  0  0  0  0  2  0  0  0  0  0  0
  186.9030  176.4380  140.4030 O   0  0  0  0  0  0  0  0  0  0  0  0
  188.6890  177.4540  143.2070 C   0  0  0  0  0  0  0  0  0  0  0  0
  185.5150  179.0840  147.1560 O   0  0  0  0  0  1  0  0  0  0  0  0
  184.8570  178.9670  145.9370 C   0  0  0  0  0  0  0  0  0  0  0  0
  183.6310  178.6880  145.9130 O   0  0  0  0  0  0  0  0  0  0  0  0
  1  7  1  0  0  0  0
  2  7  2  0  0  0  0
  2 12  1  0  0  0  0
  5  2  1  0  0  0  0
  6 14  1  0  0  0  0
  6  4  2  0  0  0  0
  7  6  1  0  0  0  0
  8  3  2  0  0  0  0
  9 15  1  1  0  0  0
  9  8  1  0  0  0  0
 10  4  1  0  0  0  0
 10  3  1  0  0  0  0
 11 12  1  0  0  0  0
 11  9  1  0  0  0  0
 12 10  2  0  0  0  0
 14 13  1  0  0  0  0
 17 18  1  0  0  0  0
 17 16  1  0  0  0  0
 18 16  1  0  0  0  0
 18 15  1  0  0  0  0
 19  1  1  0  0  0  0
 20 26  1  0  0  0  0
 20 19  1  0  0  0  0
 22 26  1  0  0  0  0
 22 28  1  0  0  0  0
 23 24  1  0  0  0  0
 23 33  1  1  0  0  0
 25 24  1  1  0  0  0
 26 31  1  0  0  0  0
 27 29  1  0  0  0  0
 28 27  1  1  0  0  0
 28 25  1  0  0  0  0
 29 23  1  0  0  0  0
 30 22  2  0  0  0  0
 31 25  1  0  0  0  0
 31 21  2  0  0  0  0
 33 32  1  0  0  0  0
 34 33  2  0  0  0  0
M  END
>  <MODEL>
2

>  <REMARK>
 VINA RESULT:      -7.6      2.817      4.090
  Name = 
  8 active torsions:
  status: ('A' for Active; 'I' for Inactive)
    1  A    between atoms: C_7  and  C_15
    2  A    between atoms: C_8  and  C_17
    3  A    between atoms: C_8  and  N_18
    4  A    between atoms: C_10  and  C_17
    5  A    between atoms: C_10  and  C_20
    6  A    between atoms: C_19  and  C_22
    7  A    between atoms: C_24  and  O_25
    8  A    between atoms: O_25  and  C_27
                            x       y       z     vdW  Elec       q    Type
                         _______ _______ _______ _____ _____    ______ ____

>  <TORSDO>
F 8

$$$$
=
 OpenBabel11052420193D

 34 38  0  0  1  0  0  0  0  0999 V2000
  190.2680  173.4410  141.7350 C   0  0  0  0  0  2  0  0  0  0  0  0
  189.2260  175.5280  142.6860 C   0  0  0  0  0  0  0  0  0  0  0  0
  186.5940  177.8530  141.3240 C   0  0  0  0  0  3  0  0  0  0  0  0
  187.6370  175.8190  140.4360 N   0  0  0  0  0  0  0  0  0  0  0  0
  190.0310  175.3960  143.8130 O   0  0  0  0  0  1  0  0  0  0  0  0
  188.4940  174.7650  140.5040 C   0  0  0  0  0  0  0  0  0  0  0  0
  189.3060  174.5900  141.6430 C   0  0  0  0  0  0  0  0  0  0  0  0
  186.3160  178.6120  142.3880 C   0  0  0  0  0  3  0  0  0  0  0  0
  186.8760  178.2890  143.7510 C   0  0  2  0  0  3  0  0  0  0  0  0
  187.5370  176.7280  141.4390 C   0  0  0  0  0  0  0  0  0  0  0  0
  188.2780  177.6700  143.6490 C   0  0  0  0  0  2  0  0  0  0  0  0
  188.3320  176.5990  142.5890 C   0  0  0  0  0  0  0  0  0  0  0  0
  188.0650  174.4660  138.0940 C   0  0  0  0  0  1  0  0  0  0  0  0
  188.5260  173.7910  139.3700 C   0  0  0  0  0  2  0  0  0  0  0  0
  186.0190  177.4020  144.4090 O   0  0  0  0  0  0  0  0  0  0  0  0
  184.4010  178.3130  145.8870 C   0  0  0  0  0  2  0  0  0  0  0  0
  184.9420  177.0380  146.4920 C   0  0  0  0  0  2  0  0  0  0  0  0
  185.8550  177.9400  145.6880 C   0  0  0  0  0  3  0  0  0  0  0  0
  191.6660  173.8810  141.3300 C   0  0  0  0  0  2  0  0  0  0  0  0
  192.7160  172.9410  141.9020 C   0  0  0  0  0  2  0  0  0  0  0  0
  191.7880  172.1500  144.6080 O   0  0  0  0  0  0  0  0  0  0  0  0
  194.0500  174.5120  143.4280 C   0  0  0  0  0  0  0  0  0  0  0  0
  192.5160  175.7440  147.1960 C   0  0  1  0  0  3  0  0  0  0  0  0
  191.9830  174.6450  146.2750 C   0  0  0  0  0  2  0  0  0  0  0  0
  193.1400  173.9290  145.5730 C   0  0  2  0  0  3  0  0  0  0  0  0
  193.1750  173.4250  143.1990 N   0  0  0  0  0  0  0  0  0  0  0  0
  193.7180  176.3790  145.0270 C   0  0  0  0  0  2  0  0  0  0  0  0
  194.1220  174.9110  144.8660 C   0  0  2  0  0  3  0  0  0  0  0  0
  193.4890  176.7110  146.5010 C   0  0  0  0  0  2  0  0  0  0  0  0
  194.7170  175.0610  142.5120 O   0  0  0  0  0  0  0  0  0  0  0  0
  192.6210  173.0840  144.4550 C   0  0  0  0  0  0  0  0  0  0  0  0
  191.6160  177.4020  148.8390 O   0  0  0  0  0  1  0  0  0  0  0  0
  191.3840  176.4990  147.8070 C   0  0  0  0  0  0  0  0  0  0  0  0
  190.2120  176.3140  147.3900 O   0  0  0  0  0  0  0  0  0  0  0  0
  2  5  1  0  0  0  0
  3 10  1  0  0  0  0
  3  8  2  0  0  0  0
  4  6  2  0  0  0  0
  4 10  1  0  0  0  0
  6  7  1  0  0  0  0
  7  1  1  0  0  0  0
  7  2  2  0  0  0  0
  8  9  1  0  0  0  0
  9 15  1  6  0  0  0
 10 12  2  0  0  0  0
 11  9  1  0  0  0  0
 12  2  1  0  0  0  0
 12 11  1  0  0  0  0
 13 14  1  0  0  0  0
 14  6  1  0  0  0  0
 15 18  1  0  0  0  0
 16 17  1  0  0  0  0
 18 16  1  0  0  0  0
 18 17  1  0  0  0  0
 19  1  1  0  0  0  0
 19 20  1  0  0  0  0
 20 26  1  0  0  0  0
 22 28  1  0  0  0  0
 23 33  1  6  0  0  0
 24 23  1  0  0  0  0
 25 24  1  6  0  0  0
 26 22  1  0  0  0  0
 26 31  1  0  0  0  0
 27 29  1  0  0  0  0
 28 27  1  6  0  0  0
 28 25  1  0  0  0  0
 29 23  1  0  0  0  0
 30 22  2  0  0  0  0
 31 21  2  0  0  0  0
 31 25  1  0  0  0  0
 33 32  1  0  0  0  0
 34 33  2  0  0  0  0
M  END
>  <MODEL>
3

>  <REMARK>
 VINA RESULT:      -7.5      3.058      8.942
  Name = 
  8 active torsions:
  status: ('A' for Active; 'I' for Inactive)
    1  A    between atoms: C_7  and  C_15
    2  A    between atoms: C_8  and  C_17
    3  A    between atoms: C_8  and  N_18
    4  A    between atoms: C_10  and  C_17
    5  A    between atoms: C_10  and  C_20
    6  A    between atoms: C_19  and  C_22
    7  A    between atoms: C_24  and  O_25
    8  A    between atoms: O_25  and  C_27
                            x       y       z     vdW  Elec       q    Type
                         _______ _______ _______ _____ _____    ______ ____

>  <TORSDO>
F 8

$$$$
=
 OpenBabel11052420193D

 34 38  0  0  1  0  0  0  0  0999 V2000
  192.1720  175.1120  143.1770 C   0  0  0  0  0  2  0  0  0  0  0  0
  189.7540  175.6680  143.6100 C   0  0  0  0  0  0  0  0  0  0  0  0
  187.8360  176.1640  146.8140 C   0  0  0  0  0  3  0  0  0  0  0  0
  190.1820  175.6210  146.3460 N   0  0  0  0  0  0  0  0  0  0  0  0
  189.5280  175.6800  142.2370 O   0  0  0  0  0  1  0  0  0  0  0  0
  191.2270  175.3690  145.5130 C   0  0  0  0  0  0  0  0  0  0  0  0
  191.0360  175.3970  144.1160 C   0  0  0  0  0  0  0  0  0  0  0  0
  186.6780  176.6640  146.3710 C   0  0  0  0  0  3  0  0  0  0  0  0
  186.4950  177.0560  144.9260 C   0  0  2  0  0  3  0  0  0  0  0  0
  188.9380  175.8960  145.8760 C   0  0  0  0  0  0  0  0  0  0  0  0
  187.2950  176.1390  143.9890 C   0  0  0  0  0  2  0  0  0  0  0  0
  188.6990  175.9270  144.4920 C   0  0  0  0  0  0  0  0  0  0  0  0
  193.0910  176.3450  146.7990 C   0  0  0  0  0  1  0  0  0  0  0  0
  192.5710  175.1000  146.1090 C   0  0  0  0  0  2  0  0  0  0  0  0
  186.9050  178.3810  144.7470 O   0  0  0  0  0  0  0  0  0  0  0  0
  184.6490  178.8530  144.1830 C   0  0  0  0  0  2  0  0  0  0  0  0
  185.4240  180.1510  144.1950 C   0  0  0  0  0  2  0  0  0  0  0  0
  186.0930  178.8760  143.7250 C   0  0  0  0  0  3  0  0  0  0  0  0
  192.9390  176.3870  142.8630 C   0  0  0  0  0  2  0  0  0  0  0  0
  194.0740  176.1100  141.8890 C   0  0  0  0  0  2  0  0  0  0  0  0
  195.0460  173.3620  141.3290 O   0  0  0  0  0  0  0  0  0  0  0  0
  195.8240  175.7550  143.7300 C   0  0  0  0  0  0  0  0  0  0  0  0
  196.6680  171.8710  145.2400 C   0  0  1  0  0  3  0  0  0  0  0  0
  195.8490  172.2450  144.0030 C   0  0  0  0  0  2  0  0  0  0  0  0
  196.4490  173.4730  143.3150 C   0  0  2  0  0  3  0  0  0  0  0  0
  195.1400  175.3700  142.5530 N   0  0  0  0  0  0  0  0  0  0  0  0
  196.2520  174.3500  145.7290 C   0  0  0  0  0  2  0  0  0  0  0  0
  196.6780  174.6660  144.2930 C   0  0  2  0  0  3  0  0  0  0  0  0
  196.8980  173.0480  146.2030 C   0  0  0  0  0  2  0  0  0  0  0  0
  195.7360  176.9080  144.2290 O   0  0  0  0  0  0  0  0  0  0  0  0
  195.4900  174.0200  142.3080 C   0  0  0  0  0  0  0  0  0  0  0  0
  194.7030  170.3960  145.7070 O   0  0  0  0  0  0  0  0  0  0  0  0
  196.0290  170.7320  145.9590 C   0  0  0  0  0  0  0  0  0  0  0  0
  196.6920  170.0740  146.8010 O   0  0  0  0  0  1  0  0  0  0  0  0
  1  7  1  0  0  0  0
  2  7  2  0  0  0  0
  2 12  1  0  0  0  0
  5  2  1  0  0  0  0
  6 14  1  0  0  0  0
  6  4  2  0  0  0  0
  7  6  1  0  0  0  0
  8  3  2  0  0  0  0
  9 15  1  1  0  0  0
  9  8  1  0  0  0  0
 10  4  1  0  0  0  0
 10  3  1  0  0  0  0
 11 12  1  0  0  0  0
 11  9  1  0  0  0  0
 12 10  2  0  0  0  0
 14 13  1  0  0  0  0
 16 17  1  0  0  0  0
 18 16  1  0  0  0  0
 18 17  1  0  0  0  0
 18 15  1  0  0  0  0
 19  1  1  0  0  0  0
 20 26  1  0  0  0  0
 20 19  1  0  0  0  0
 21 31  2  0  0  0  0
 22 30  2  0  0  0  0
 22 28  1  0  0  0  0
 23 33  1  1  0  0  0
 23 29  1  0  0  0  0
 24 23  1  0  0  0  0
 25 24  1  1  0  0  0
 25 28  1  0  0  0  0
 26 22  1  0  0  0  0
 27 29  1  0  0  0  0
 28 27  1  1  0  0  0
 31 26  1  0  0  0  0
 31 25  1  0  0  0  0
 32 33  2  0  0  0  0
 33 34  1  0  0  0  0
M  END
>  <MODEL>
4

>  <REMARK>
 VINA RESULT:      -7.5      2.149      9.837
  Name = 
  8 active torsions:
  status: ('A' for Active; 'I' for Inactive)
    1  A    between atoms: C_7  and  C_15
    2  A    between atoms: C_8  and  C_17
    3  A    between atoms: C_8  and  N_18
    4  A    between atoms: C_10  and  C_17
    5  A    between atoms: C_10  and  C_20
    6  A    between atoms: C_19  and  C_22
    7  A    between atoms: C_24  and  O_25
    8  A    between atoms: O_25  and  C_27
                            x       y       z     vdW  Elec       q    Type
                         _______ _______ _______ _____ _____    ______ ____

>  <TORSDO>
F 8

$$$$
=
 OpenBabel11052420193D

 34 38  0  0  1  0  0  0  0  0999 V2000
  193.3250  176.3730  144.9270 C   0  0  0  0  0  2  0  0  0  0  0  0
  193.3110  173.8630  144.7100 C   0  0  0  0  0  0  0  0  0  0  0  0
  195.9110  171.4480  143.4490 C   0  0  0  0  0  3  0  0  0  0  0  0
  195.8800  173.8900  143.6750 N   0  0  0  0  0  0  0  0  0  0  0  0
  192.0150  173.8430  145.2160 O   0  0  0  0  0  1  0  0  0  0  0  0
  195.2960  175.0700  144.0160 C   0  0  0  0  0  0  0  0  0  0  0  0
  193.9930  175.0820  144.5540 C   0  0  0  0  0  0  0  0  0  0  0  0
  195.3960  170.2690  143.8110 C   0  0  0  0  0  3  0  0  0  0  0  0
  194.1760  170.1850  144.6940 C   0  0  2  0  0  3  0  0  0  0  0  0
  195.2410  172.7020  143.8300 C   0  0  0  0  0  0  0  0  0  0  0  0
  193.2090  171.3490  144.4290 C   0  0  0  0  0  2  0  0  0  0  0  0
  193.9390  172.6650  144.3540 C   0  0  0  0  0  0  0  0  0  0  0  0
  197.2750  176.0830  142.9480 C   0  0  0  0  0  1  0  0  0  0  0  0
  196.0760  176.3330  143.8400 C   0  0  0  0  0  2  0  0  0  0  0  0
  194.5700  170.1990  146.0360 O   0  0  0  0  0  0  0  0  0  0  0  0
  196.2170  169.0190  147.2710 C   0  0  0  0  0  2  0  0  0  0  0  0
  194.8500  168.5630  147.7310 C   0  0  0  0  0  2  0  0  0  0  0  0
  195.0780  168.9210  146.2770 C   0  0  0  0  0  3  0  0  0  0  0  0
  192.4010  176.8370  143.8120 C   0  0  0  0  0  2  0  0  0  0  0  0
  191.3830  177.8400  144.3340 C   0  0  0  0  0  2  0  0  0  0  0  0
  189.1310  177.9100  142.4020 O   0  0  0  0  0  0  0  0  0  0  0  0
  189.5340  176.5860  145.5910 C   0  0  0  0  0  0  0  0  0  0  0  0
  185.4290  177.4460  144.8970 C   0  0  1  0  0  3  0  0  0  0  0  0
  186.6410  177.9110  144.0870 C   0  0  0  0  0  2  0  0  0  0  0  0
  187.7100  176.8160  144.0470 C   0  0  2  0  0  3  0  0  0  0  0  0
  190.0700  177.2180  144.4450 N   0  0  0  0  0  0  0  0  0  0  0  0
  187.2920  176.9570  146.5840 C   0  0  0  0  0  2  0  0  0  0  0  0
  188.0790  176.2760  145.4620 C   0  0  2  0  0  3  0  0  0  0  0  0
  185.7930  176.9090  146.2920 C   0  0  0  0  0  2  0  0  0  0  0  0
  190.2280  176.2930  146.6010 O   0  0  0  0  0  0  0  0  0  0  0  0
  188.9980  177.3720  143.5340 C   0  0  0  0  0  0  0  0  0  0  0  0
  183.7900  179.0370  143.8790 O   0  0  0  0  0  0  0  0  0  0  0  0
  184.4300  178.5470  145.0110 C   0  0  0  0  0  0  0  0  0  0  0  0
  184.1680  179.0380  146.1390 O   0  0  0  0  0  1  0  0  0  0  0  0
  2  5  1  0  0  0  0
  3  8  2  0  0  0  0
  3 10  1  0  0  0  0
  4 10  2  0  0  0  0
  4  6  1  0  0  0  0
  6  7  2  0  0  0  0
  7  2  1  0  0  0  0
  7  1  1  0  0  0  0
  8  9  1  0  0  0  0
  9 15  1  1  0  0  0
 10 12  1  0  0  0  0
 11  9  1  0  0  0  0
 12 11  1  0  0  0  0
 12  2  2  0  0  0  0
 13 14  1  0  0  0  0
 14  6  1  0  0  0  0
 15 18  1  0  0  0  0
 16 17  1  0  0  0  0
 18 16  1  0  0  0  0
 18 17  1  0  0  0  0
 19 20  1  0  0  0  0
 19  1  1  0  0  0  0
 20 26  1  0  0  0  0
 21 31  2  0  0  0  0
 22 30  2  0  0  0  0
 23 33  1  1  0  0  0
 23 29  1  0  0  0  0
 24 23  1  0  0  0  0
 25 24  1  1  0  0  0
 25 28  1  0  0  0  0
 26 22  1  0  0  0  0
 28 22  1  0  0  0  0
 28 27  1  1  0  0  0
 29 27  1  0  0  0  0
 31 25  1  0  0  0  0
 31 26  1  0  0  0  0
 32 33  2  0  0  0  0
 33 34  1  0  0  0  0
M  END
>  <MODEL>
5

>  <REMARK>
 VINA RESULT:      -7.3      1.691      2.389
  Name = 
  8 active torsions:
  status: ('A' for Active; 'I' for Inactive)
    1  A    between atoms: C_7  and  C_15
    2  A    between atoms: C_8  and  C_17
    3  A    between atoms: C_8  and  N_18
    4  A    between atoms: C_10  and  C_17
    5  A    between atoms: C_10  and  C_20
    6  A    between atoms: C_19  and  C_22
    7  A    between atoms: C_24  and  O_25
    8  A    between atoms: O_25  and  C_27
                            x       y       z     vdW  Elec       q    Type
                         _______ _______ _______ _____ _____    ______ ____

>  <TORSDO>
F 8

$$$$
=
 OpenBabel11052420193D

 34 38  0  0  1  0  0  0  0  0999 V2000
  190.8350  173.0020  141.5560 C   0  0  0  0  0  2  0  0  0  0  0  0
  191.9370  173.6880  143.7160 C   0  0  0  0  0  0  0  0  0  0  0  0
  194.9860  175.7860  144.4110 C   0  0  0  0  0  3  0  0  0  0  0  0
  193.8830  175.0930  142.3340 N   0  0  0  0  0  0  0  0  0  0  0  0
  190.9700  172.9720  144.4160 O   0  0  0  0  0  1  0  0  0  0  0  0
  192.9150  174.4460  141.6310 C   0  0  0  0  0  0  0  0  0  0  0  0
  191.9070  173.7330  142.3120 C   0  0  0  0  0  0  0  0  0  0  0  0
  194.9020  175.9690  145.7330 C   0  0  0  0  0  3  0  0  0  0  0  0
  193.6820  175.5400  146.5090 C   0  0  2  0  0  3  0  0  0  0  0  0
  193.9200  175.0710  143.6910 C   0  0  0  0  0  0  0  0  0  0  0  0
  193.0540  174.2720  145.9120 C   0  0  0  0  0  2  0  0  0  0  0  0
  192.9430  174.3660  144.4120 C   0  0  0  0  0  0  0  0  0  0  0  0
  194.3100  174.9260  139.6550 C   0  0  0  0  0  1  0  0  0  0  0  0
  192.9270  174.5400  140.1390 C   0  0  0  0  0  2  0  0  0  0  0  0
  192.7400  176.5740  146.5070 O   0  0  0  0  0  0  0  0  0  0  0  0
  191.4680  177.1370  148.4290 C   0  0  0  0  0  2  0  0  0  0  0  0
  190.5400  177.0850  147.2350 C   0  0  0  0  0  2  0  0  0  0  0  0
  191.7060  176.1230  147.3290 C   0  0  0  0  0  3  0  0  0  0  0  0
  189.7650  173.9710  141.0780 C   0  0  0  0  0  2  0  0  0  0  0  0
  188.6360  174.0750  142.0930 C   0  0  0  0  0  2  0  0  0  0  0  0
  189.1880  175.3410  144.7200 O   0  0  0  0  0  0  0  0  0  0  0  0
  187.7800  176.4670  141.7470 C   0  0  0  0  0  0  0  0  0  0  0  0
  186.2980  178.7650  145.0020 C   0  0  1  0  0  3  0  0  0  0  0  0
  187.0570  177.4370  145.0530 C   0  0  0  0  0  2  0  0  0  0  0  0
  188.1100  177.3810  143.9430 C   0  0  2  0  0  3  0  0  0  0  0  0
  188.4420  175.4630  142.4920 N   0  0  0  0  0  0  0  0  0  0  0  0
  186.0280  178.0190  142.5690 C   0  0  0  0  0  2  0  0  0  0  0  0
  187.5270  177.7100  142.5360 C   0  0  2  0  0  3  0  0  0  0  0  0
  185.7260  179.0930  143.6130 C   0  0  0  0  0  2  0  0  0  0  0  0
  187.4650  176.3270  140.5350 O   0  0  0  0  0  0  0  0  0  0  0  0
  188.6280  175.9870  143.7940 C   0  0  0  0  0  0  0  0  0  0  0  0
  185.5000  178.5140  147.3590 O   0  0  0  0  0  1  0  0  0  0  0  0
  185.2140  178.7790  146.0250 C   0  0  0  0  0  0  0  0  0  0  0  0
  184.0310  179.0280  145.6770 O   0  0  0  0  0  0  0  0  0  0  0  0
  1  7  1  0  0  0  0
  2 12  1  0  0  0  0
  2  5  1  0  0  0  0
  3  8  2  0  0  0  0
  4 10  1  0  0  0  0
  6  7  1  0  0  0  0
  6  4  2  0  0  0  0
  7  2  2  0  0  0  0
  8  9  1  0  0  0  0
  9 15  1  6  0  0  0
 10  3  1  0  0  0  0
 10 12  2  0  0  0  0
 11  9  1  0  0  0  0
 12 11  1  0  0  0  0
 13 14  1  0  0  0  0
 14  6  1  0  0  0  0
 15 18  1  0  0  0  0
 17 18  1  0  0  0  0
 17 16  1  0  0  0  0
 18 16  1  0  0  0  0
 19  1  1  0  0  0  0
 19 20  1  0  0  0  0
 20 26  1  0  0  0  0
 22 26  1  0  0  0  0
 22 28  1  0  0  0  0
 23 24  1  0  0  0  0
 23 33  1  1  0  0  0
 25 24  1  1  0  0  0
 26 31  1  0  0  0  0
 27 29  1  0  0  0  0
 28 27  1  1  0  0  0
 28 25  1  0  0  0  0
 29 23  1  0  0  0  0
 30 22  2  0  0  0  0
 31 25  1  0  0  0  0
 31 21  2  0  0  0  0
 33 32  1  0  0  0  0
 34 33  2  0  0  0  0
M  END
>  <MODEL>
6

>  <REMARK>
 VINA RESULT:      -7.3      3.138      4.562
  Name = 
  8 active torsions:
  status: ('A' for Active; 'I' for Inactive)
    1  A    between atoms: C_7  and  C_15
    2  A    between atoms: C_8  and  C_17
    3  A    between atoms: C_8  and  N_18
    4  A    between atoms: C_10  and  C_17
    5  A    between atoms: C_10  and  C_20
    6  A    between atoms: C_19  and  C_22
    7  A    between atoms: C_24  and  O_25
    8  A    between atoms: O_25  and  C_27
                            x       y       z     vdW  Elec       q    Type
                         _______ _______ _______ _____ _____    ______ ____

>  <TORSDO>
F 8

$$$$
=
 OpenBabel11052420193D

 34 38  0  0  1  0  0  0  0  0999 V2000
  190.2910  175.4140  147.4460 C   0  0  0  0  0  2  0  0  0  0  0  0
  188.8880  176.8080  145.8860 C   0  0  0  0  0  0  0  0  0  0  0  0
  187.4260  176.0610  142.4960 C   0  0  0  0  0  3  0  0  0  0  0  0
  188.7940  174.7410  144.0450 N   0  0  0  0  0  0  0  0  0  0  0  0
  188.9430  177.8560  146.8000 O   0  0  0  0  0  1  0  0  0  0  0  0
  189.4780  174.5560  145.2060 C   0  0  0  0  0  0  0  0  0  0  0  0
  189.5320  175.5910  146.1630 C   0  0  0  0  0  0  0  0  0  0  0  0
  186.6050  177.1000  142.3120 C   0  0  0  0  0  3  0  0  0  0  0  0
  186.3270  178.0860  143.4190 C   0  0  2  0  0  3  0  0  0  0  0  0
  188.1560  175.9060  143.7650 C   0  0  0  0  0  0  0  0  0  0  0  0
  187.5580  178.2840  144.3170 C   0  0  0  0  0  2  0  0  0  0  0  0
  188.1890  176.9660  144.6850 C   0  0  0  0  0  0  0  0  0  0  0  0
  189.8430  172.2910  144.3020 C   0  0  0  0  0  1  0  0  0  0  0  0
  190.1320  173.2350  145.4520 C   0  0  0  0  0  2  0  0  0  0  0  0
  185.2530  177.6310  144.1900 O   0  0  0  0  0  0  0  0  0  0  0  0
  183.8420  178.6650  145.7940 C   0  0  0  0  0  2  0  0  0  0  0  0
  184.7020  177.6400  146.4980 C   0  0  0  0  0  2  0  0  0  0  0  0
  185.2670  178.4300  145.3350 C   0  0  0  0  0  3  0  0  0  0  0  0
  191.7730  175.2170  147.1680 C   0  0  0  0  0  2  0  0  0  0  0  0
  192.3420  176.4040  146.4050 C   0  0  0  0  0  2  0  0  0  0  0  0
  191.4590  177.3190  143.7230 O   0  0  0  0  0  0  0  0  0  0  0  0
  193.7020  174.9040  144.8310 C   0  0  0  0  0  0  0  0  0  0  0  0
  192.2320  173.8470  140.9850 C   0  0  1  0  0  3  0  0  0  0  0  0
  191.6840  174.9020  141.9470 C   0  0  0  0  0  2  0  0  0  0  0  0
  192.8280  175.5850  142.7010 C   0  0  2  0  0  3  0  0  0  0  0  0
  192.8220  175.9800  145.0960 N   0  0  0  0  0  0  0  0  0  0  0  0
  193.3970  173.1130  143.1430 C   0  0  0  0  0  2  0  0  0  0  0  0
  193.7990  174.5710  143.3780 C   0  0  2  0  0  3  0  0  0  0  0  0
  193.1940  172.8480  141.6520 C   0  0  0  0  0  2  0  0  0  0  0  0
  194.3540  174.3130  145.7330 O   0  0  0  0  0  0  0  0  0  0  0  0
  192.2900  176.3790  143.8470 C   0  0  0  0  0  0  0  0  0  0  0  0
  190.6660  171.9040  140.8230 O   0  0  0  0  0  1  0  0  0  0  0  0
  191.1120  173.1210  140.3210 C   0  0  0  0  0  0  0  0  0  0  0  0
  190.5700  173.6120  139.2980 O   0  0  0  0  0  0  0  0  0  0  0  0
  2  7  1  0  0  0  0
  2  5  1  0  0  0  0
  3 10  1  0  0  0  0
  4  6  1  0  0  0  0
  6 14  1  0  0  0  0
  6  7  2  0  0  0  0
  7  1  1  0  0  0  0
  8  3  2  0  0  0  0
  8  9  1  0  0  0  0
  9 15  1  1  0  0  0
  9 11  1  0  0  0  0
 10  4  2  0  0  0  0
 10 12  1  0  0  0  0
 11 12  1  0  0  0  0
 12  2  2  0  0  0  0
 13 14  1  0  0  0  0
 15 18  1  0  0  0  0
 16 17  1  0  0  0  0
 18 16  1  0  0  0  0
 18 17  1  0  0  0  0
 19  1  1  0  0  0  0
 20 19  1  0  0  0  0
 21 31  2  0  0  0  0
 22 26  1  0  0  0  0
 22 30  2  0  0  0  0
 23 33  1  1  0  0  0
 23 29  1  0  0  0  0
 23 24  1  0  0  0  0
 25 24  1  1  0  0  0
 25 28  1  0  0  0  0
 25 31  1  0  0  0  0
 26 20  1  0  0  0  0
 28 27  1  1  0  0  0
 28 22  1  0  0  0  0
 29 27  1  0  0  0  0
 31 26  1  0  0  0  0
 33 32  1  0  0  0  0
 34 33  2  0  0  0  0
M  END
>  <MODEL>
7

>  <REMARK>
 VINA RESULT:      -7.2      3.077      8.683
  Name = 
  8 active torsions:
  status: ('A' for Active; 'I' for Inactive)
    1  A    between atoms: C_7  and  C_15
    2  A    between atoms: C_8  and  C_17
    3  A    between atoms: C_8  and  N_18
    4  A    between atoms: C_10  and  C_17
    5  A    between atoms: C_10  and  C_20
    6  A    between atoms: C_19  and  C_22
    7  A    between atoms: C_24  and  O_25
    8  A    between atoms: O_25  and  C_27
                            x       y       z     vdW  Elec       q    Type
                         _______ _______ _______ _____ _____    ______ ____

>  <TORSDO>
F 8

$$$$
=
 OpenBabel11052420193D

 34 38  0  0  1  0  0  0  0  0999 V2000
  188.7080  172.7060  141.3550 C   0  0  0  0  0  2  0  0  0  0  0  0
  190.6300  172.6980  142.9850 C   0  0  0  0  0  0  0  0  0  0  0  0
  194.3150  173.3130  142.5090 C   0  0  0  0  0  3  0  0  0  0  0  0
  192.4160  173.3090  140.9570 N   0  0  0  0  0  0  0  0  0  0  0  0
  189.7400  172.3770  144.0060 O   0  0  0  0  0  1  0  0  0  0  0  0
  191.0970  173.1730  140.6530 C   0  0  0  0  0  0  0  0  0  0  0  0
  190.1670  172.8720  141.6700 C   0  0  0  0  0  0  0  0  0  0  0  0
  194.7480  173.4000  143.7710 C   0  0  0  0  0  3  0  0  0  0  0  0
  193.7840  173.4360  144.9300 C   0  0  2  0  0  3  0  0  0  0  0  0
  192.8790  173.1560  142.2240 C   0  0  0  0  0  0  0  0  0  0  0  0
  192.5350  172.5870  144.6490 C   0  0  0  0  0  2  0  0  0  0  0  0
  191.9910  172.8480  143.2680 C   0  0  0  0  0  0  0  0  0  0  0  0
  191.8500  173.7710  138.3820 C   0  0  0  0  0  1  0  0  0  0  0  0
  190.6610  173.3830  139.2390 C   0  0  0  0  0  2  0  0  0  0  0  0
  193.4040  174.7590  145.1800 O   0  0  0  0  0  0  0  0  0  0  0  0
  194.6060  176.8020  145.0790 C   0  0  0  0  0  2  0  0  0  0  0  0
  194.1890  176.5580  146.5130 C   0  0  0  0  0  2  0  0  0  0  0  0
  194.5670  175.3900  145.6260 C   0  0  0  0  0  3  0  0  0  0  0  0
  187.8900  173.8000  142.0250 C   0  0  0  0  0  2  0  0  0  0  0  0
  188.1960  175.1570  141.4110 C   0  0  0  0  0  2  0  0  0  0  0  0
  190.8080  176.1970  142.3630 O   0  0  0  0  0  0  0  0  0  0  0  0
  187.5110  176.6750  143.3610 C   0  0  0  0  0  0  0  0  0  0  0  0
  190.1220  177.3440  146.6480 C   0  0  1  0  0  3  0  0  0  0  0  0
  190.4430  176.6770  145.3090 C   0  0  0  0  0  2  0  0  0  0  0  0
  189.6670  177.3530  144.1760 C   0  0  2  0  0  3  0  0  0  0  0  0
  188.4580  176.1380  142.4570 N   0  0  0  0  0  0  0  0  0  0  0  0
  187.7470  176.8660  145.8230 C   0  0  0  0  0  2  0  0  0  0  0  0
  188.1390  177.4590  144.4670 C   0  0  2  0  0  3  0  0  0  0  0  0
  188.6150  177.4540  146.9350 C   0  0  0  0  0  2  0  0  0  0  0  0
  186.2680  176.5260  143.2230 O   0  0  0  0  0  0  0  0  0  0  0  0
  189.7330  176.5190  142.9370 C   0  0  0  0  0  0  0  0  0  0  0  0
  191.4190  177.3380  148.7870 O   0  0  0  0  0  1  0  0  0  0  0  0
  190.8090  176.6260  147.7600 C   0  0  0  0  0  0  0  0  0  0  0  0
  190.8400  175.3690  147.7660 O   0  0  0  0  0  0  0  0  0  0  0  0
  1  7  1  0  0  0  0
  1 19  1  0  0  0  0
  2 12  1  0  0  0  0
  2  5  1  0  0  0  0
  3  8  2  0  0  0  0
  4 10  1  0  0  0  0
  6  4  2  0  0  0  0
  6  7  1  0  0  0  0
  7  2  2  0  0  0  0
  8  9  1  0  0  0  0
  9 15  1  6  0  0  0
 10  3  1  0  0  0  0
 10 12  2  0  0  0  0
 11  9  1  0  0  0  0
 12 11  1  0  0  0  0
 13 14  1  0  0  0  0
 14  6  1  0  0  0  0
 15 18  1  0  0  0  0
 16 18  1  0  0  0  0
 16 17  1  0  0  0  0
 18 17  1  0  0  0  0
 20 19  1  0  0  0  0
 20 26  1  0  0  0  0
 21 31  2  0  0  0  0
 22 28  1  0  0  0  0
 23 29  1  0  0  0  0
 23 33  1  1  0  0  0
 24 23  1  0  0  0  0
 25 28  1  0  0  0  0
 25 24  1  1  0  0  0
 26 31  1  0  0  0  0
 26 22  1  0  0  0  0
 27 29  1  0  0  0  0
 28 27  1  1  0  0  0
 30 22  2  0  0  0  0
 31 25  1  0  0  0  0
 33 34  2  0  0  0  0
 33 32  1  0  0  0  0
M  END
>  <MODEL>
8

>  <REMARK>
 VINA RESULT:      -7.1      3.161      5.508
  Name = 
  8 active torsions:
  status: ('A' for Active; 'I' for Inactive)
    1  A    between atoms: C_7  and  C_15
    2  A    between atoms: C_8  and  C_17
    3  A    between atoms: C_8  and  N_18
    4  A    between atoms: C_10  and  C_17
    5  A    between atoms: C_10  and  C_20
    6  A    between atoms: C_19  and  C_22
    7  A    between atoms: C_24  and  O_25
    8  A    between atoms: O_25  and  C_27
                            x       y       z     vdW  Elec       q    Type
                         _______ _______ _______ _____ _____    ______ ____

>  <TORSDO>
F 8

$$$$
=
 OpenBabel11052420193D

 34 38  0  0  1  0  0  0  0  0999 V2000
  187.2380  177.7910  143.1980 C   0  0  0  0  0  2  0  0  0  0  0  0
  189.6530  177.5450  143.8720 C   0  0  0  0  0  0  0  0  0  0  0  0
  191.2480  176.3860  147.0800 C   0  0  0  0  0  3  0  0  0  0  0  0
  188.9110  176.6430  146.3830 N   0  0  0  0  0  0  0  0  0  0  0  0
  190.0330  178.0120  142.6170 O   0  0  0  0  0  1  0  0  0  0  0  0
  187.9400  176.9660  145.4870 C   0  0  0  0  0  0  0  0  0  0  0  0
  188.2920  177.4180  144.1990 C   0  0  0  0  0  0  0  0  0  0  0  0
  192.5300  176.2590  146.7230 C   0  0  0  0  0  3  0  0  0  0  0  0
  192.9600  176.3860  145.2830 C   0  0  2  0  0  3  0  0  0  0  0  0
  190.2300  176.7480  146.0800 C   0  0  0  0  0  0  0  0  0  0  0  0
  192.0950  177.4040  144.5260 C   0  0  0  0  0  2  0  0  0  0  0  0
  190.6290  177.2020  144.8120 C   0  0  0  0  0  0  0  0  0  0  0  0
  186.3330  177.1600  147.3480 C   0  0  0  0  0  1  0  0  0  0  0  0
  186.5100  176.7970  145.8870 C   0  0  0  0  0  2  0  0  0  0  0  0
  192.8700  175.1380  144.6580 O   0  0  0  0  0  0  0  0  0  0  0  0
  193.3150  172.8880  145.2670 C   0  0  0  0  0  2  0  0  0  0  0  0
  194.4210  173.3680  144.3530 C   0  0  0  0  0  2  0  0  0  0  0  0
  193.7820  174.3270  145.3370 C   0  0  0  0  0  3  0  0  0  0  0  0
  187.3020  176.8730  141.9870 C   0  0  0  0  0  2  0  0  0  0  0  0
  187.2470  175.4130  142.4120 C   0  0  0  0  0  2  0  0  0  0  0  0
  188.1900  174.9200  139.6410 O   0  0  0  0  0  0  0  0  0  0  0  0
  189.3310  173.9660  142.7840 C   0  0  0  0  0  0  0  0  0  0  0  0
  190.5880  171.1330  139.8740 C   0  0  1  0  0  3  0  0  0  0  0  0
  189.5330  172.2300  139.7270 C   0  0  0  0  0  2  0  0  0  0  0  0
  189.9450  173.4770  140.5140 C   0  0  2  0  0  3  0  0  0  0  0  0
  188.4470  174.7120  141.9700 N   0  0  0  0  0  0  0  0  0  0  0  0
  190.1870  171.6800  142.3420 C   0  0  0  0  0  2  0  0  0  0  0  0
  190.3160  173.1650  141.9950 C   0  0  2  0  0  3  0  0  0  0  0  0
  190.9580  170.8270  141.3350 C   0  0  0  0  0  2  0  0  0  0  0  0
  189.3010  174.0000  144.0420 O   0  0  0  0  0  0  0  0  0  0  0  0
  188.7910  174.4190  140.6290 C   0  0  0  0  0  0  0  0  0  0  0  0
  189.3870  169.9650  138.0170 O   0  0  0  0  0  0  0  0  0  0  0  0
  190.1410  169.8900  139.1830 C   0  0  0  0  0  0  0  0  0  0  0  0
  190.4430  168.7660  139.6610 O   0  0  0  0  0  1  0  0  0  0  0  0
  1  7  1  0  0  0  0
  2  7  2  0  0  0  0
  2 12  1  0  0  0  0
  5  2  1  0  0  0  0
  6 14  1  0  0  0  0
  6  4  2  0  0  0  0
  7  6  1  0  0  0  0
  8  3  2  0  0  0  0
  9 15  1  6  0  0  0
  9  8  1  0  0  0  0
 10  4  1  0  0  0  0
 10  3  1  0  0  0  0
 11 12  1  0  0  0  0
 11  9  1  0  0  0  0
 12 10  2  0  0  0  0
 14 13  1  0  0  0  0
 15 18  1  0  0  0  0
 16 18  1  0  0  0  0
 17 16  1  0  0  0  0
 17 18  1  0  0  0  0
 19 20  1  0  0  0  0
 19  1  1  0  0  0  0
 21 31  2  0  0  0  0
 22 30  2  0  0  0  0
 23 33  1  1  0  0  0
 23 29  1  0  0  0  0
 24 23  1  0  0  0  0
 25 24  1  6  0  0  0
 25 31  1  0  0  0  0
 25 28  1  0  0  0  0
 26 20  1  0  0  0  0
 26 22  1  0  0  0  0
 28 27  1  6  0  0  0
 28 22  1  0  0  0  0
 29 27  1  0  0  0  0
 31 26  1  0  0  0  0
 32 33  2  0  0  0  0
 33 34  1  0  0  0  0
M  END
>  <MODEL>
9

>  <REMARK>
 VINA RESULT:      -7.1      3.423      7.217
  Name = 
  8 active torsions:
  status: ('A' for Active; 'I' for Inactive)
    1  A    between atoms: C_7  and  C_15
    2  A    between atoms: C_8  and  C_17
    3  A    between atoms: C_8  and  N_18
    4  A    between atoms: C_10  and  C_17
    5  A    between atoms: C_10  and  C_20
    6  A    between atoms: C_19  and  C_22
    7  A    between atoms: C_24  and  O_25
    8  A    between atoms: O_25  and  C_27
                            x       y       z     vdW  Elec       q    Type
                         _______ _______ _______ _____ _____    ______ ____

>  <TORSDO>
F 8

$$$$
