=
 OpenBabel11052418303D

 27 31  0  0  1  0  0  0  0  0999 V2000
  188.7130  176.4840  145.4780 N   0  0  0  0  0  2  0  0  0  0  0  0
  187.9880  177.3180  143.2530 C   0  0  2  0  0  3  0  0  0  0  0  0
  190.5410  177.4100  143.3620 C   0  0  0  0  0  2  0  0  0  0  0  0
  193.1700  176.3140  145.5580 C   0  0  0  0  0  3  0  0  0  0  0  0
  192.8920  175.8790  146.7840 C   0  0  0  0  0  3  0  0  0  0  0  0
  188.1040  177.6010  144.7630 C   0  0  1  0  0  3  0  0  0  0  0  0
  190.0970  176.0980  145.4620 C   0  0  0  0  0  0  0  0  0  0  0  0
  189.3100  176.9080  142.5930 C   0  0  1  0  0  3  0  0  0  0  0  0
  192.3340  175.9500  144.3770 C   0  0  0  0  0  2  0  0  0  0  0  0
  191.7030  175.0790  147.1260 C   0  0  0  0  0  3  0  0  0  0  0  0
  190.5000  175.1700  146.5430 C   0  0  0  0  0  3  0  0  0  0  0  0
  190.9500  176.5030  144.4880 C   0  0  0  0  0  0  0  0  0  0  0  0
  185.0730  179.4720  146.0850 C   0  0  0  0  0  3  0  0  0  0  0  0
  186.7670  177.9070  145.3720 C   0  0  0  0  0  0  0  0  0  0  0  0
  185.9710  176.8600  145.8410 C   0  0  0  0  0  3  0  0  0  0  0  0
  184.7350  177.1470  146.4220 C   0  0  0  0  0  3  0  0  0  0  0  0
  184.3140  178.4360  146.5320 N   0  0  0  0  0  0  0  0  0  0  0  0
  186.3150  179.2280  145.4960 C   0  0  0  0  0  3  0  0  0  0  0  0
  187.9600  174.9920  142.3070 C   0  0  0  0  0  2  0  0  0  0  0  0
  188.6880  175.2180  141.0680 C   0  0  0  0  0  2  0  0  0  0  0  0
  189.3530  175.4670  142.3580 N   0  0  0  0  0  0  0  0  0  0  0  0
  187.4600  178.5210  142.5250 C   0  0  0  0  0  3  0  0  0  0  0  0
  186.1940  178.6160  142.1040 C   0  0  0  0  0  3  0  0  0  0  0  0
  183.9970  178.6670  140.4650 C   0  0  0  0  0  1  0  0  0  0  0  0
  183.9050  178.0840  142.7350 C   0  0  0  0  0  2  0  0  0  0  0  0
  184.0220  177.5270  141.3780 N   0  0  0  0  0  0  0  0  0  0  0  0
  185.1800  177.5180  142.3160 C   0  0  1  0  0  3  0  0  0  0  0  0
  2 22  1  6  0  0  0
  2  6  1  0  0  0  0
  3 12  1  0  0  0  0
  4  5  2  0  0  0  0
  5 10  1  0  0  0  0
  6 14  1  1  0  0  0
  6  1  1  0  0  0  0
  7  1  1  0  0  0  0
  7 11  1  0  0  0  0
  8 21  1  1  0  0  0
  8  2  1  0  0  0  0
  8  3  1  0  0  0  0
  9 12  1  0  0  0  0
  9  4  1  0  0  0  0
 11 10  2  0  0  0  0
 12  7  2  0  0  0  0
 13 17  1  0  0  0  0
 14 18  1  0  0  0  0
 14 15  2  0  0  0  0
 15 16  1  0  0  0  0
 16 17  2  0  0  0  0
 18 13  2  0  0  0  0
 19 21  1  0  0  0  0
 20 19  1  0  0  0  0
 20 21  1  0  0  0  0
 23 22  2  0  0  0  0
 24 26  1  0  0  0  0
 26 27  1  0  0  0  0
 26 25  1  0  0  0  0
 27 23  1  6  0  0  0
 27 25  1  0  0  0  0
M  END
>  <MODEL>
1

>  <REMARK>
 VINA RESULT:      -7.2      0.000      0.000
  Name = 
  4 active torsions:
  status: ('A' for Active; 'I' for Inactive)
    1  A    between atoms: C_2  and  C_6
    2  A    between atoms: C_9  and  C_15
    3  A    between atoms: N_14  and  C_19
    4  A    between atoms: C_17  and  C_21
                            x       y       z     vdW  Elec       q    Type
                         _______ _______ _______ _____ _____    ______ ____

>  <TORSDO>
F 4

$$$$
=
 OpenBabel11052418303D

 27 31  0  0  1  0  0  0  0  0999 V2000
  192.0360  176.5740  144.2270 N   0  0  0  0  0  2  0  0  0  0  0  0
  190.2190  176.2000  145.8800 C   0  0  2  0  0  3  0  0  0  0  0  0
  192.2550  174.8230  146.5850 C   0  0  0  0  0  2  0  0  0  0  0  0
  195.7020  174.4540  145.6280 C   0  0  0  0  0  3  0  0  0  0  0  0
  196.1510  174.9840  144.4940 C   0  0  0  0  0  3  0  0  0  0  0  0
  190.7560  175.9140  144.4640 C   0  0  1  0  0  3  0  0  0  0  0  0
  193.3140  176.2020  144.7680 C   0  0  0  0  0  0  0  0  0  0  0  0
  191.2130  175.8730  147.0000 C   0  0  1  0  0  3  0  0  0  0  0  0
  194.7550  175.1790  146.5230 C   0  0  0  0  0  2  0  0  0  0  0  0
  195.7060  176.2820  143.9560 C   0  0  0  0  0  3  0  0  0  0  0  0
  194.4810  176.8080  144.0870 C   0  0  0  0  0  3  0  0  0  0  0  0
  193.4340  175.4080  145.8610 C   0  0  0  0  0  0  0  0  0  0  0  0
  188.0530  175.8350  141.7950 C   0  0  0  0  0  3  0  0  0  0  0  0
  189.7790  176.3370  143.4070 C   0  0  0  0  0  0  0  0  0  0  0  0
  189.7230  177.6780  143.0210 C   0  0  0  0  0  3  0  0  0  0  0  0
  188.8260  178.0680  142.0260 C   0  0  0  0  0  3  0  0  0  0  0  0
  188.0160  177.1470  141.4380 N   0  0  0  0  0  0  0  0  0  0  0  0
  188.9350  175.4050  142.7870 C   0  0  0  0  0  3  0  0  0  0  0  0
  190.7620  177.8820  148.1540 C   0  0  0  0  0  2  0  0  0  0  0  0
  191.6420  177.0750  148.9840 C   0  0  0  0  0  2  0  0  0  0  0  0
  191.8300  177.0890  147.5240 N   0  0  0  0  0  0  0  0  0  0  0  0
  188.9580  175.4240  146.1370 C   0  0  0  0  0  3  0  0  0  0  0  0
  187.7780  176.0120  146.3620 C   0  0  0  0  0  3  0  0  0  0  0  0
  185.1990  176.9300  146.4840 C   0  0  0  0  0  1  0  0  0  0  0  0
  186.8770  177.9520  145.2040 C   0  0  0  0  0  2  0  0  0  0  0  0
  186.2010  177.9920  146.5100 N   0  0  0  0  0  0  0  0  0  0  0  0
  187.6060  177.5120  146.3850 C   0  0  1  0  0  3  0  0  0  0  0  0
  1  6  1  0  0  0  0
  1  7  1  0  0  0  0
  2 22  1  1  0  0  0
  2  8  1  0  0  0  0
  4  9  1  0  0  0  0
  5  4  2  0  0  0  0
  6 14  1  6  0  0  0
  6  2  1  0  0  0  0
  7 12  2  0  0  0  0
  8  3  1  6  0  0  0
  8 21  1  0  0  0  0
 10 11  2  0  0  0  0
 10  5  1  0  0  0  0
 11  7  1  0  0  0  0
 12  9  1  0  0  0  0
 12  3  1  0  0  0  0
 13 18  1  0  0  0  0
 15 14  1  0  0  0  0
 16 15  2  0  0  0  0
 17 13  2  0  0  0  0
 17 16  1  0  0  0  0
 18 14  2  0  0  0  0
 19 20  1  0  0  0  0
 21 19  1  0  0  0  0
 21 20  1  0  0  0  0
 22 23  2  0  0  0  0
 24 26  1  0  0  0  0
 25 27  1  0  0  0  0
 25 26  1  0  0  0  0
 27 23  1  6  0  0  0
 27 26  1  0  0  0  0
M  END
>  <MODEL>
2

>  <REMARK>
 VINA RESULT:      -6.8      2.117      5.083
  Name = 
  4 active torsions:
  status: ('A' for Active; 'I' for Inactive)
    1  A    between atoms: C_2  and  C_6
    2  A    between atoms: C_9  and  C_15
    3  A    between atoms: N_14  and  C_19
    4  A    between atoms: C_17  and  C_21
                            x       y       z     vdW  Elec       q    Type
                         _______ _______ _______ _____ _____    ______ ____

>  <TORSDO>
F 4

$$$$
=
 OpenBabel11052418303D

 27 31  0  0  1  0  0  0  0  0999 V2000
  189.4420  176.0560  142.8910 N   0  0  0  0  0  2  0  0  0  0  0  0
  190.9560  175.8200  144.8470 C   0  0  2  0  0  3  0  0  0  0  0  0
  189.2330  177.6360  145.3680 C   0  0  0  0  0  2  0  0  0  0  0  0
  186.2250  178.9720  143.9170 C   0  0  0  0  0  3  0  0  0  0  0  0
  185.8770  178.6590  142.6730 C   0  0  0  0  0  3  0  0  0  0  0  0
  190.7790  176.3350  143.4050 C   0  0  1  0  0  3  0  0  0  0  0  0
  188.2200  176.7160  143.2580 C   0  0  0  0  0  0  0  0  0  0  0  0
  189.8850  176.3210  145.8220 C   0  0  1  0  0  3  0  0  0  0  0  0
  186.7800  177.9620  144.8640 C   0  0  0  0  0  2  0  0  0  0  0  0
  186.0760  177.3300  142.0680 C   0  0  0  0  0  3  0  0  0  0  0  0
  187.0850  176.4890  142.3340 C   0  0  0  0  0  3  0  0  0  0  0  0
  188.1010  177.4360  144.4010 C   0  0  0  0  0  0  0  0  0  0  0  0
  193.9650  175.7710  141.4120 C   0  0  0  0  0  3  0  0  0  0  0  0
  191.7990  175.7420  142.4770 C   0  0  0  0  0  0  0  0  0  0  0  0
  191.4860  174.5810  141.7670 C   0  0  0  0  0  3  0  0  0  0  0  0
  192.4280  174.0390  140.8910 C   0  0  0  0  0  3  0  0  0  0  0  0
  193.6380  174.6390  140.7330 N   0  0  0  0  0  0  0  0  0  0  0  0
  193.0510  176.3440  142.2980 C   0  0  0  0  0  3  0  0  0  0  0  0
  189.6270  174.0040  146.1870 C   0  0  0  0  0  2  0  0  0  0  0  0
  189.2380  174.6960  147.4050 C   0  0  0  0  0  2  0  0  0  0  0  0
  188.8990  175.2800  146.0970 N   0  0  0  0  0  0  0  0  0  0  0  0
  192.3000  176.2140  145.3910 C   0  0  0  0  0  3  0  0  0  0  0  0
  193.2330  175.3190  145.7350 C   0  0  0  0  0  3  0  0  0  0  0  0
  195.4940  173.7700  145.7210 C   0  0  0  0  0  1  0  0  0  0  0  0
  193.6170  173.3330  144.3840 C   0  0  0  0  0  2  0  0  0  0  0  0
  194.2550  173.0000  145.6670 N   0  0  0  0  0  0  0  0  0  0  0  0
  193.0180  173.8300  145.6150 C   0  0  1  0  0  3  0  0  0  0  0  0
  1  7  1  0  0  0  0
  1  6  1  0  0  0  0
  2 22  1  1  0  0  0
  2  8  1  0  0  0  0
  4  9  1  0  0  0  0
  5  4  2  0  0  0  0
  6 14  1  6  0  0  0
  6  2  1  0  0  0  0
  7 12  2  0  0  0  0
  8  3  1  6  0  0  0
  8 21  1  0  0  0  0
 10 11  2  0  0  0  0
 10  5  1  0  0  0  0
 11  7  1  0  0  0  0
 12  9  1  0  0  0  0
 12  3  1  0  0  0  0
 13 18  1  0  0  0  0
 15 14  1  0  0  0  0
 16 15  2  0  0  0  0
 17 16  1  0  0  0  0
 17 13  2  0  0  0  0
 18 14  2  0  0  0  0
 19 20  1  0  0  0  0
 21 19  1  0  0  0  0
 21 20  1  0  0  0  0
 22 23  2  0  0  0  0
 25 27  1  0  0  0  0
 25 26  1  0  0  0  0
 26 24  1  0  0  0  0
 27 26  1  0  0  0  0
 27 23  1  6  0  0  0
M  END
>  <MODEL>
3

>  <REMARK>
 VINA RESULT:      -6.7      2.382      7.571
  Name = 
  4 active torsions:
  status: ('A' for Active; 'I' for Inactive)
    1  A    between atoms: C_2  and  C_6
    2  A    between atoms: C_9  and  C_15
    3  A    between atoms: N_14  and  C_19
    4  A    between atoms: C_17  and  C_21
                            x       y       z     vdW  Elec       q    Type
                         _______ _______ _______ _____ _____    ______ ____

>  <TORSDO>
F 4

$$$$
=
 OpenBabel11052418303D

 27 31  0  0  1  0  0  0  0  0999 V2000
  187.3330  176.0150  144.7470 N   0  0  0  0  0  2  0  0  0  0  0  0
  189.8170  175.9780  144.8120 C   0  0  2  0  0  3  0  0  0  0  0  0
  189.0010  178.0400  146.0860 C   0  0  0  0  0  2  0  0  0  0  0  0
  185.8880  179.4110  147.2540 C   0  0  0  0  0  3  0  0  0  0  0  0
  184.7290  178.9140  146.8330 C   0  0  0  0  0  3  0  0  0  0  0  0
  188.5500  176.2330  143.9720 C   0  0  1  0  0  3  0  0  0  0  0  0
  186.8000  176.8630  145.7770 C   0  0  0  0  0  0  0  0  0  0  0  0
  189.8610  176.7680  146.1250 C   0  0  1  0  0  3  0  0  0  0  0  0
  187.0460  178.5380  147.6040 C   0  0  0  0  0  2  0  0  0  0  0  0
  184.4850  177.4820  146.5830 C   0  0  0  0  0  3  0  0  0  0  0  0
  185.3880  176.5980  146.1380 C   0  0  0  0  0  3  0  0  0  0  0  0
  187.5570  177.7910  146.4140 C   0  0  0  0  0  0  0  0  0  0  0  0
  188.1910  175.0690  140.3730 C   0  0  0  0  0  3  0  0  0  0  0  0
  188.5170  175.3680  142.7460 C   0  0  0  0  0  0  0  0  0  0  0  0
  188.7550  173.9980  142.8680 C   0  0  0  0  0  3  0  0  0  0  0  0
  188.7080  173.1900  141.7300 C   0  0  0  0  0  3  0  0  0  0  0  0
  188.4290  173.7380  140.5160 N   0  0  0  0  0  0  0  0  0  0  0  0
  188.2310  175.9100  141.4860 C   0  0  0  0  0  3  0  0  0  0  0  0
  189.8720  174.5310  146.8810 C   0  0  0  0  0  2  0  0  0  0  0  0
  190.7900  175.2910  147.7150 C   0  0  0  0  0  2  0  0  0  0  0  0
  189.5330  175.9120  147.2620 N   0  0  0  0  0  0  0  0  0  0  0  0
  191.0520  176.3130  144.0270 C   0  0  0  0  0  3  0  0  0  0  0  0
  192.0510  175.4430  143.8390 C   0  0  0  0  0  3  0  0  0  0  0  0
  194.0800  174.8100  145.5700 C   0  0  0  0  0  1  0  0  0  0  0  0
  193.2160  173.3120  143.9850 C   0  0  0  0  0  2  0  0  0  0  0  0
  193.1060  173.7370  145.3890 N   0  0  0  0  0  0  0  0  0  0  0  0
  192.0300  174.0440  144.4060 C   0  0  1  0  0  3  0  0  0  0  0  0
  1  7  1  0  0  0  0
  2 22  1  6  0  0  0
  2  8  1  0  0  0  0
  3 12  1  0  0  0  0
  4  9  1  0  0  0  0
  5  4  2  0  0  0  0
  6 14  1  6  0  0  0
  6  1  1  0  0  0  0
  6  2  1  0  0  0  0
  7 11  1  0  0  0  0
  7 12  2  0  0  0  0
  8  3  1  6  0  0  0
  8 21  1  0  0  0  0
 10  5  1  0  0  0  0
 11 10  2  0  0  0  0
 12  9  1  0  0  0  0
 13 17  2  0  0  0  0
 13 18  1  0  0  0  0
 14 15  1  0  0  0  0
 16 15  2  0  0  0  0
 17 16  1  0  0  0  0
 18 14  2  0  0  0  0
 19 21  1  0  0  0  0
 19 20  1  0  0  0  0
 21 20  1  0  0  0  0
 23 22  2  0  0  0  0
 25 27  1  0  0  0  0
 25 26  1  0  0  0  0
 26 24  1  0  0  0  0
 27 23  1  6  0  0  0
 27 26  1  0  0  0  0
M  END
>  <MODEL>
4

>  <REMARK>
 VINA RESULT:      -6.5      2.400      6.652
  Name = 
  4 active torsions:
  status: ('A' for Active; 'I' for Inactive)
    1  A    between atoms: C_2  and  C_6
    2  A    between atoms: C_9  and  C_15
    3  A    between atoms: N_14  and  C_19
    4  A    between atoms: C_17  and  C_21
                            x       y       z     vdW  Elec       q    Type
                         _______ _______ _______ _____ _____    ______ ____

>  <TORSDO>
F 4

$$$$
=
 OpenBabel11052418303D

 27 31  0  0  1  0  0  0  0  0999 V2000
  191.3690  174.0970  145.5230 N   0  0  0  0  0  2  0  0  0  0  0  0
  193.3170  174.9310  144.2260 C   0  0  2  0  0  3  0  0  0  0  0  0
  191.4820  176.7110  144.1690 C   0  0  0  0  0  2  0  0  0  0  0  0
  188.2970  177.3260  145.7230 C   0  0  0  0  0  3  0  0  0  0  0  0
  187.6830  176.3680  146.4110 C   0  0  0  0  0  3  0  0  0  0  0  0
  192.1160  173.9670  144.2760 C   0  0  1  0  0  3  0  0  0  0  0  0
  190.4980  175.1760  145.9020 C   0  0  0  0  0  0  0  0  0  0  0  0
  192.9510  176.3960  144.4880 C   0  0  1  0  0  3  0  0  0  0  0  0
  189.7680  177.5560  145.8200 C   0  0  0  0  0  2  0  0  0  0  0  0
  188.3780  175.3860  147.2620 C   0  0  0  0  0  3  0  0  0  0  0  0
  189.6000  174.8830  147.0430 C   0  0  0  0  0  3  0  0  0  0  0  0
  190.5450  176.3900  145.2990 C   0  0  0  0  0  0  0  0  0  0  0  0
  192.4520  170.4260  142.9400 C   0  0  0  0  0  3  0  0  0  0  0  0
  192.5440  172.5400  144.1030 C   0  0  0  0  0  0  0  0  0  0  0  0
  193.4440  171.9800  145.0120 C   0  0  0  0  0  3  0  0  0  0  0  0
  193.8300  170.6460  144.8610 C   0  0  0  0  0  3  0  0  0  0  0  0
  193.3300  169.9030  143.8370 N   0  0  0  0  0  0  0  0  0  0  0  0
  192.0420  171.7560  143.0560 C   0  0  0  0  0  3  0  0  0  0  0  0
  194.5680  176.0880  146.1800 C   0  0  0  0  0  2  0  0  0  0  0  0
  194.6200  177.4780  145.7570 C   0  0  0  0  0  2  0  0  0  0  0  0
  193.3200  176.7930  145.8450 N   0  0  0  0  0  0  0  0  0  0  0  0
  194.0030  174.8560  142.8920 C   0  0  0  0  0  3  0  0  0  0  0  0
  195.2750  174.4670  142.7510 C   0  0  0  0  0  3  0  0  0  0  0  0
  197.5640  175.9320  143.1100 C   0  0  0  0  0  1  0  0  0  0  0  0
  197.4430  173.6150  143.4570 C   0  0  0  0  0  2  0  0  0  0  0  0
  197.3500  174.9170  144.1370 N   0  0  0  0  0  0  0  0  0  0  0  0
  196.1410  174.0730  143.9240 C   0  0  1  0  0  3  0  0  0  0  0  0
  1  7  1  0  0  0  0
  2 22  1  6  0  0  0
  2  6  1  0  0  0  0
  2  8  1  0  0  0  0
  3 12  1  0  0  0  0
  4  9  1  0  0  0  0
  4  5  2  0  0  0  0
  5 10  1  0  0  0  0
  6 14  1  1  0  0  0
  6  1  1  0  0  0  0
  7 11  1  0  0  0  0
  8  3  1  1  0  0  0
  8 21  1  0  0  0  0
 11 10  2  0  0  0  0
 12  9  1  0  0  0  0
 12  7  2  0  0  0  0
 13 18  2  0  0  0  0
 13 17  1  0  0  0  0
 14 15  2  0  0  0  0
 16 15  1  0  0  0  0
 17 16  2  0  0  0  0
 18 14  1  0  0  0  0
 20 21  1  0  0  0  0
 20 19  1  0  0  0  0
 21 19  1  0  0  0  0
 23 22  2  0  0  0  0
 24 26  1  0  0  0  0
 25 27  1  0  0  0  0
 25 26  1  0  0  0  0
 27 23  1  6  0  0  0
 27 26  1  0  0  0  0
M  END
>  <MODEL>
5

>  <REMARK>
 VINA RESULT:      -6.5      3.905      8.356
  Name = 
  4 active torsions:
  status: ('A' for Active; 'I' for Inactive)
    1  A    between atoms: C_2  and  C_6
    2  A    between atoms: C_9  and  C_15
    3  A    between atoms: N_14  and  C_19
    4  A    between atoms: C_17  and  C_21
                            x       y       z     vdW  Elec       q    Type
                         _______ _______ _______ _____ _____    ______ ____

>  <TORSDO>
F 4

$$$$
=
 OpenBabel11052418303D

 27 31  0  0  1  0  0  0  0  0999 V2000
  188.5210  177.2980  145.7880 N   0  0  0  0  0  2  0  0  0  0  0  0
  188.9220  176.0910  143.6540 C   0  0  2  0  0  3  0  0  0  0  0  0
  186.3990  176.2260  144.0500 C   0  0  0  0  0  2  0  0  0  0  0  0
  184.1250  177.8430  146.3190 C   0  0  0  0  0  3  0  0  0  0  0  0
  184.5750  178.4280  147.4250 C   0  0  0  0  0  3  0  0  0  0  0  0
  188.9680  176.0420  145.1930 C   0  0  1  0  0  3  0  0  0  0  0  0
  187.1730  177.7900  145.8610 C   0  0  0  0  0  0  0  0  0  0  0  0
  187.5600  176.5070  143.0850 C   0  0  1  0  0  3  0  0  0  0  0  0
  184.8370  177.9600  145.0130 C   0  0  0  0  0  2  0  0  0  0  0  0
  185.8450  179.1690  147.5110 C   0  0  0  0  0  3  0  0  0  0  0  0
  186.9620  178.8960  146.8230 C   0  0  0  0  0  3  0  0  0  0  0  0
  186.1860  177.3180  145.0590 C   0  0  0  0  0  0  0  0  0  0  0  0
  191.9950  174.1470  146.4900 C   0  0  0  0  0  3  0  0  0  0  0  0
  190.3440  175.7190  145.6950 C   0  0  0  0  0  0  0  0  0  0  0  0
  191.2690  176.7500  145.8720 C   0  0  0  0  0  3  0  0  0  0  0  0
  192.5440  176.4520  146.3550 C   0  0  0  0  0  3  0  0  0  0  0  0
  192.8780  175.1670  146.6510 N   0  0  0  0  0  0  0  0  0  0  0  0
  190.7090  174.4030  146.0080 C   0  0  0  0  0  3  0  0  0  0  0  0
  188.8390  178.0940  141.8930 C   0  0  0  0  0  2  0  0  0  0  0  0
  187.6000  177.8760  141.1630 C   0  0  0  0  0  2  0  0  0  0  0  0
  187.5830  177.8970  142.6350 N   0  0  0  0  0  0  0  0  0  0  0  0
  189.2810  174.7550  143.0680 C   0  0  0  0  0  3  0  0  0  0  0  0
  190.4580  174.5130  142.4810 C   0  0  0  0  0  3  0  0  0  0  0  0
  192.6310  173.8300  140.9570 C   0  0  0  0  0  1  0  0  0  0  0  0
  192.7780  175.0890  142.9310 C   0  0  0  0  0  2  0  0  0  0  0  0
  192.6780  175.1980  141.4670 N   0  0  0  0  0  0  0  0  0  0  0  0
  191.5320  175.5650  142.3450 C   0  0  1  0  0  3  0  0  0  0  0  0
  1  7  1  0  0  0  0
  2 22  1  6  0  0  0
  2  6  1  0  0  0  0
  3 12  1  0  0  0  0
  4  5  2  0  0  0  0
  5 10  1  0  0  0  0
  6 14  1  6  0  0  0
  6  1  1  0  0  0  0
  7 11  1  0  0  0  0
  8 21  1  1  0  0  0
  8  2  1  0  0  0  0
  8  3  1  0  0  0  0
  9 12  1  0  0  0  0
  9  4  1  0  0  0  0
 11 10  2  0  0  0  0
 12  7  2  0  0  0  0
 13 17  1  0  0  0  0
 14 15  2  0  0  0  0
 14 18  1  0  0  0  0
 15 16  1  0  0  0  0
 16 17  2  0  0  0  0
 18 13  2  0  0  0  0
 19 21  1  0  0  0  0
 20 19  1  0  0  0  0
 20 21  1  0  0  0  0
 23 22  2  0  0  0  0
 24 26  1  0  0  0  0
 26 27  1  0  0  0  0
 26 25  1  0  0  0  0
 27 23  1  6  0  0  0
 27 25  1  0  0  0  0
M  END
>  <MODEL>
6

>  <REMARK>
 VINA RESULT:      -6.2      2.006      6.282
  Name = 
  4 active torsions:
  status: ('A' for Active; 'I' for Inactive)
    1  A    between atoms: C_2  and  C_6
    2  A    between atoms: C_9  and  C_15
    3  A    between atoms: N_14  and  C_19
    4  A    between atoms: C_17  and  C_21
                            x       y       z     vdW  Elec       q    Type
                         _______ _______ _______ _____ _____    ______ ____

>  <TORSDO>
F 4

$$$$
=
 OpenBabel11052418303D

 27 31  0  0  1  0  0  0  0  0999 V2000
  191.4080  176.1620  143.2320 N   0  0  0  0  0  2  0  0  0  0  0  0
  192.2830  174.3360  144.6730 C   0  0  2  0  0  3  0  0  0  0  0  0
  190.1270  175.2310  145.7160 C   0  0  0  0  0  2  0  0  0  0  0  0
  187.4720  177.4990  144.8530 C   0  0  0  0  0  3  0  0  0  0  0  0
  187.5890  178.3100  143.8060 C   0  0  0  0  0  3  0  0  0  0  0  0
  192.4360  175.7950  144.2020 C   0  0  1  0  0  3  0  0  0  0  0  0
  190.0180  176.4100  143.4970 C   0  0  0  0  0  0  0  0  0  0  0  0
  190.8870  173.9970  145.2080 C   0  0  1  0  0  3  0  0  0  0  0  0
  187.9280  176.0790  144.8110 C   0  0  0  0  0  2  0  0  0  0  0  0
  188.2470  177.9390  142.5410 C   0  0  0  0  0  3  0  0  0  0  0  0
  189.2900  177.1080  142.4120 C   0  0  0  0  0  3  0  0  0  0  0  0
  189.4080  175.9770  144.6290 C   0  0  0  0  0  0  0  0  0  0  0  0
  196.0900  176.7550  143.7950 C   0  0  0  0  0  3  0  0  0  0  0  0
  193.7890  176.0460  143.6060 C   0  0  0  0  0  0  0  0  0  0  0  0
  193.9900  175.8230  142.2420 C   0  0  0  0  0  3  0  0  0  0  0  0
  195.2450  176.0720  141.6840 C   0  0  0  0  0  3  0  0  0  0  0  0
  196.2610  176.5280  142.4650 N   0  0  0  0  0  0  0  0  0  0  0  0
  194.8500  176.5180  144.3920 C   0  0  0  0  0  3  0  0  0  0  0  0
  190.7910  171.9420  144.0500 C   0  0  0  0  0  2  0  0  0  0  0  0
  189.6140  172.0350  144.9000 C   0  0  0  0  0  2  0  0  0  0  0  0
  190.1190  173.2410  144.2230 N   0  0  0  0  0  0  0  0  0  0  0  0
  193.2820  174.0170  145.7480 C   0  0  0  0  0  3  0  0  0  0  0  0
  194.2690  173.1290  145.5810 C   0  0  0  0  0  3  0  0  0  0  0  0
  196.4870  171.5230  145.4610 C   0  0  0  0  0  1  0  0  0  0  0  0
  195.6980  172.7790  143.6440 C   0  0  0  0  0  2  0  0  0  0  0  0
  195.6430  171.4490  144.2710 N   0  0  0  0  0  0  0  0  0  0  0  0
  194.4650  172.3610  144.2960 C   0  0  1  0  0  3  0  0  0  0  0  0
  1  7  1  0  0  0  0
  1  6  1  0  0  0  0
  2  8  1  0  0  0  0
  2 22  1  1  0  0  0
  5  4  2  0  0  0  0
  6 14  1  6  0  0  0
  6  2  1  0  0  0  0
  7 12  2  0  0  0  0
  8 21  1  6  0  0  0
  8  3  1  0  0  0  0
  9  4  1  0  0  0  0
 10  5  1  0  0  0  0
 11 10  2  0  0  0  0
 11  7  1  0  0  0  0
 12  9  1  0  0  0  0
 12  3  1  0  0  0  0
 13 18  1  0  0  0  0
 14 18  2  0  0  0  0
 15 14  1  0  0  0  0
 16 15  2  0  0  0  0
 16 17  1  0  0  0  0
 17 13  2  0  0  0  0
 19 21  1  0  0  0  0
 19 20  1  0  0  0  0
 21 20  1  0  0  0  0
 23 22  2  0  0  0  0
 25 26  1  0  0  0  0
 25 27  1  0  0  0  0
 26 27  1  0  0  0  0
 26 24  1  0  0  0  0
 27 23  1  1  0  0  0
M  END
>  <MODEL>
7

>  <REMARK>
 VINA RESULT:      -6.2      3.321      8.233
  Name = 
  4 active torsions:
  status: ('A' for Active; 'I' for Inactive)
    1  A    between atoms: C_2  and  C_6
    2  A    between atoms: C_9  and  C_15
    3  A    between atoms: N_14  and  C_19
    4  A    between atoms: C_17  and  C_21
                            x       y       z     vdW  Elec       q    Type
                         _______ _______ _______ _____ _____    ______ ____

>  <TORSDO>
F 4

$$$$
=
 OpenBabel11052418303D

 27 31  0  0  1  0  0  0  0  0999 V2000
  188.5410  176.1650  145.0020 N   0  0  0  0  0  2  0  0  0  0  0  0
  188.0460  175.2470  142.7470 C   0  0  2  0  0  3  0  0  0  0  0  0
  185.8550  176.0400  143.8000 C   0  0  0  0  0  2  0  0  0  0  0  0
  184.7860  177.8650  146.7090 C   0  0  0  0  0  3  0  0  0  0  0  0
  185.6350  178.1130  147.7020 C   0  0  0  0  0  3  0  0  0  0  0  0
  188.4180  174.9450  144.2120 C   0  0  1  0  0  3  0  0  0  0  0  0
  187.4730  177.0070  145.4650 C   0  0  0  0  0  0  0  0  0  0  0  0
  186.7980  176.1230  142.5900 C   0  0  1  0  0  3  0  0  0  0  0  0
  185.1860  177.9760  145.2770 C   0  0  0  0  0  2  0  0  0  0  0  0
  187.0610  178.4330  147.5110 C   0  0  0  0  0  3  0  0  0  0  0  0
  187.8470  177.9610  146.5350 C   0  0  0  0  0  3  0  0  0  0  0  0
  186.2340  176.9730  144.9150 C   0  0  0  0  0  0  0  0  0  0  0  0
  190.8920  172.0920  144.6360 C   0  0  0  0  0  3  0  0  0  0  0  0
  189.6950  174.1630  144.3070 C   0  0  0  0  0  0  0  0  0  0  0  0
  190.9170  174.8290  144.1870 C   0  0  0  0  0  3  0  0  0  0  0  0
  192.1050  174.1040  144.2930 C   0  0  0  0  0  3  0  0  0  0  0  0
  192.0690  172.7620  144.5130 N   0  0  0  0  0  0  0  0  0  0  0  0
  189.6820  172.7800  144.5350 C   0  0  0  0  0  3  0  0  0  0  0  0
  187.6750  177.4990  140.8850 C   0  0  0  0  0  2  0  0  0  0  0  0
  186.3070  177.9190  141.1420 C   0  0  0  0  0  2  0  0  0  0  0  0
  187.1610  177.4990  142.2650 N   0  0  0  0  0  0  0  0  0  0  0  0
  187.8190  173.9740  141.9820 C   0  0  0  0  0  3  0  0  0  0  0  0
  188.6530  173.5420  141.0300 C   0  0  0  0  0  3  0  0  0  0  0  0
  190.0150  172.5690  138.8590 C   0  0  0  0  0  1  0  0  0  0  0  0
  191.0690  173.4440  140.7630 C   0  0  0  0  0  2  0  0  0  0  0  0
  190.5910  173.7900  139.4150 N   0  0  0  0  0  0  0  0  0  0  0  0
  189.8970  174.2990  140.6310 C   0  0  1  0  0  3  0  0  0  0  0  0
  1  7  1  0  0  0  0
  2 22  1  6  0  0  0
  2  6  1  0  0  0  0
  3 12  1  0  0  0  0
  4  5  2  0  0  0  0
  6 14  1  6  0  0  0
  6  1  1  0  0  0  0
  7 11  1  0  0  0  0
  8 21  1  1  0  0  0
  8  2  1  0  0  0  0
  8  3  1  0  0  0  0
  9  4  1  0  0  0  0
 10  5  1  0  0  0  0
 11 10  2  0  0  0  0
 12  9  1  0  0  0  0
 12  7  2  0  0  0  0
 14 18  2  0  0  0  0
 15 16  2  0  0  0  0
 15 14  1  0  0  0  0
 16 17  1  0  0  0  0
 17 13  2  0  0  0  0
 18 13  1  0  0  0  0
 19 20  1  0  0  0  0
 19 21  1  0  0  0  0
 20 21  1  0  0  0  0
 23 22  2  0  0  0  0
 24 26  1  0  0  0  0
 26 27  1  0  0  0  0
 26 25  1  0  0  0  0
 27 25  1  0  0  0  0
 27 23  1  1  0  0  0
M  END
>  <MODEL>
8

>  <REMARK>
 VINA RESULT:      -6.1      2.266      6.108
  Name = 
  4 active torsions:
  status: ('A' for Active; 'I' for Inactive)
    1  A    between atoms: C_2  and  C_6
    2  A    between atoms: C_9  and  C_15
    3  A    between atoms: N_14  and  C_19
    4  A    between atoms: C_17  and  C_21
                            x       y       z     vdW  Elec       q    Type
                         _______ _______ _______ _____ _____    ______ ____

>  <TORSDO>
F 4

$$$$
=
 OpenBabel11052418303D

 27 31  0  0  1  0  0  0  0  0999 V2000
  192.9250  174.4070  145.0830 N   0  0  0  0  0  2  0  0  0  0  0  0
  191.8330  175.7060  143.2690 C   0  0  2  0  0  3  0  0  0  0  0  0
  194.3680  175.9270  143.0140 C   0  0  0  0  0  2  0  0  0  0  0  0
  197.3410  174.4990  144.4490 C   0  0  0  0  0  3  0  0  0  0  0  0
  197.2730  173.7650  145.5560 C   0  0  0  0  0  3  0  0  0  0  0  0
  192.1840  175.6230  144.7670 C   0  0  1  0  0  3  0  0  0  0  0  0
  194.2980  174.1230  144.7640 C   0  0  0  0  0  0  0  0  0  0  0  0
  193.0410  175.5510  142.3380 C   0  0  1  0  0  3  0  0  0  0  0  0
  196.3350  174.3800  143.3540 C   0  0  0  0  0  2  0  0  0  0  0  0
  196.1730  172.8340  145.8640 C   0  0  0  0  0  3  0  0  0  0  0  0
  194.8910  172.9880  145.5080 C   0  0  0  0  0  3  0  0  0  0  0  0
  194.9730  174.8030  143.8050 C   0  0  0  0  0  0  0  0  0  0  0  0
  189.0390  174.6550  146.6680 C   0  0  0  0  0  3  0  0  0  0  0  0
  190.9560  175.6900  145.6270 C   0  0  0  0  0  0  0  0  0  0  0  0
  190.5640  176.9160  146.1680 C   0  0  0  0  0  3  0  0  0  0  0  0
  189.4130  176.9820  146.9540 C   0  0  0  0  0  3  0  0  0  0  0  0
  188.6800  175.8590  147.1860 N   0  0  0  0  0  0  0  0  0  0  0  0
  190.1850  174.5470  145.8780 C   0  0  0  0  0  3  0  0  0  0  0  0
  191.8520  174.0550  140.9510 C   0  0  0  0  0  2  0  0  0  0  0  0
  193.1030  174.3860  140.2870 C   0  0  0  0  0  2  0  0  0  0  0  0
  193.0790  174.2150  141.7490 N   0  0  0  0  0  0  0  0  0  0  0  0
  191.1670  177.0140  142.9500 C   0  0  0  0  0  3  0  0  0  0  0  0
  189.8840  177.1050  142.5840 C   0  0  0  0  0  3  0  0  0  0  0  0
  187.4900  177.5120  141.3130 C   0  0  0  0  0  1  0  0  0  0  0  0
  187.7440  176.1120  143.1780 C   0  0  0  0  0  2  0  0  0  0  0  0
  187.7170  176.1240  141.7060 N   0  0  0  0  0  0  0  0  0  0  0  0
  188.9880  175.8970  142.4510 C   0  0  1  0  0  3  0  0  0  0  0  0
  2 22  1  1  0  0  0
  2  6  1  0  0  0  0
  3 12  1  0  0  0  0
  4  5  2  0  0  0  0
  5 10  1  0  0  0  0
  6  1  1  0  0  0  0
  6 14  1  1  0  0  0
  7  1  1  0  0  0  0
  7 11  1  0  0  0  0
  8 21  1  1  0  0  0
  8  3  1  0  0  0  0
  8  2  1  0  0  0  0
  9 12  1  0  0  0  0
  9  4  1  0  0  0  0
 11 10  2  0  0  0  0
 12  7  2  0  0  0  0
 13 17  1  0  0  0  0
 14 18  1  0  0  0  0
 14 15  2  0  0  0  0
 15 16  1  0  0  0  0
 16 17  2  0  0  0  0
 18 13  2  0  0  0  0
 19 21  1  0  0  0  0
 20 19  1  0  0  0  0
 20 21  1  0  0  0  0
 23 22  2  0  0  0  0
 24 26  1  0  0  0  0
 26 27  1  0  0  0  0
 26 25  1  0  0  0  0
 27 23  1  1  0  0  0
 27 25  1  0  0  0  0
M  END
>  <MODEL>
9

>  <REMARK>
 VINA RESULT:      -6.1      2.836      4.611
  Name = 
  4 active torsions:
  status: ('A' for Active; 'I' for Inactive)
    1  A    between atoms: C_2  and  C_6
    2  A    between atoms: C_9  and  C_15
    3  A    between atoms: N_14  and  C_19
    4  A    between atoms: C_17  and  C_21
                            x       y       z     vdW  Elec       q    Type
                         _______ _______ _______ _____ _____    ______ ____

>  <TORSDO>
F 4

$$$$
