=
 OpenBabel11052421323D

 32 36  0  0  1  0  0  0  0  0999 V2000
  190.6440  172.2110  139.5850 C   0  0  1  0  0  3  0  0  0  0  0  0
  188.7900  175.3770  143.1930 C   0  0  0  0  0  0  0  0  0  0  0  0
  191.9140  175.1240  146.9080 C   0  0  0  0  0  3  0  0  0  0  0  0
  191.1790  176.1060  147.5770 C   0  0  0  0  0  3  0  0  0  0  0  0
  189.0380  173.9800  141.2250 C   0  0  0  0  0  0  0  0  0  0  0  0
  190.6470  173.8190  143.0390 C   0  0  0  0  0  3  0  0  0  0  0  0
  190.9560  172.3090  141.0810 C   0  0  0  0  0  2  0  0  0  0  0  0
  191.5140  174.6900  145.6440 C   0  0  0  0  0  3  0  0  0  0  0  0
  189.9490  174.8020  143.7590 C   0  0  0  0  0  0  0  0  0  0  0  0
  190.3700  175.2310  145.0320 C   0  0  0  0  0  0  0  0  0  0  0  0
  188.4800  176.7690  145.0990 C   0  0  0  0  0  0  0  0  0  0  0  0
  189.1370  172.3010  139.3480 C   0  0  0  0  0  2  0  0  0  0  0  0
  190.2110  173.4160  141.7740 C   0  0  0  0  0  0  0  0  0  0  0  0
  188.5710  173.6330  139.8420 C   0  0  0  0  0  2  0  0  0  0  0  0
  190.0420  176.6530  146.9830 C   0  0  0  0  0  3  0  0  0  0  0  0
  189.6250  176.2250  145.7120 C   0  0  0  0  0  0  0  0  0  0  0  0
  188.3480  174.9670  141.9340 C   0  0  0  0  0  3  0  0  0  0  0  0
  188.0980  176.3280  143.8710 N   0  0  0  0  0  0  0  0  0  0  0  0
  192.6620  173.5230  139.0550 C   0  0  0  0  0  3  0  0  0  0  0  0
  191.3860  173.2460  138.7920 C   0  0  0  0  0  3  0  0  0  0  0  0
  193.3940  174.5570  138.2670 C   0  0  0  0  0  3  0  0  0  0  0  0
  194.3990  175.1960  139.1000 N   0  0  0  0  0  1  0  0  0  0  0  0
  194.0410  173.9280  137.1300 N   0  0  0  0  0  1  0  0  0  0  0  0
  187.6330  177.7960  145.7850 C   0  0  0  0  0  2  0  0  0  0  0  0
  185.9770  179.1080  144.4250 C   0  0  1  0  0  3  0  0  0  0  0  0
  185.2030  177.8050  146.3070 C   0  0  1  0  0  3  0  0  0  0  0  0
  184.0230  178.5930  145.7870 C   0  0  0  0  0  2  0  0  0  0  0  0
  184.5920  179.6070  144.8120 C   0  0  0  0  0  2  0  0  0  0  0  0
  184.8150  176.4930  146.5800 O   0  0  0  0  0  1  0  0  0  0  0  0
  186.2290  177.8200  145.1970 C   0  0  2  0  0  3  0  0  0  0  0  0
  186.1150  178.9150  142.9140 C   0  0  0  0  0  2  0  0  0  0  0  0
  185.1780  177.8460  142.3700 C   0  0  0  0  0  1  0  0  0  0  0  0
  1 20  1  6  0  0  0
  1  7  1  0  0  0  0
  2  9  1  0  0  0  0
  2 18  1  0  0  0  0
  3  4  1  0  0  0  0
  5 13  2  0  0  0  0
  5 17  1  0  0  0  0
  6  9  2  0  0  0  0
  7 13  1  0  0  0  0
  8  3  2  0  0  0  0
  9 10  1  0  0  0  0
 10  8  1  0  0  0  0
 10 16  2  0  0  0  0
 11 16  1  0  0  0  0
 11 24  1  0  0  0  0
 12  1  1  0  0  0  0
 12 14  1  0  0  0  0
 13  6  1  0  0  0  0
 14  5  1  0  0  0  0
 15  4  2  0  0  0  0
 16 15  1  0  0  0  0
 17  2  2  0  0  0  0
 18 11  2  0  0  0  0
 20 19  2  0  0  0  0
 21 19  1  0  0  0  0
 21 22  1  0  0  0  0
 23 21  1  0  0  0  0
 25 31  1  6  0  0  0
 25 28  1  0  0  0  0
 25 30  1  0  0  0  0
 26 29  1  6  0  0  0
 27 26  1  0  0  0  0
 28 27  1  0  0  0  0
 30 24  1  1  0  0  0
 30 26  1  0  0  0  0
 32 31  1  0  0  0  0
M  END
>  <MODEL>
1

>  <REMARK>
 VINA RESULT:      -7.7      0.000      0.000
  Name = 
  5 active torsions:
  status: ('A' for Active; 'I' for Inactive)
    1  A    between atoms: C_1  and  C_10
    2  A    between atoms: C_2  and  C_24
    3  A    between atoms: C_6  and  C_7
    4  A    between atoms: C_16  and  C_27
    5  A    between atoms: C_27  and  C_32
                            x       y       z     vdW  Elec       q    Type
                         _______ _______ _______ _____ _____    ______ ____

>  <TORSDO>
F 5

$$$$
=
 OpenBabel11052421323D

 32 36  0  0  1  0  0  0  0  0999 V2000
  196.4090  172.8520  144.7480 C   0  0  1  0  0  3  0  0  0  0  0  0
  192.0800  175.6310  144.5980 C   0  0  0  0  0  0  0  0  0  0  0  0
  189.5980  174.0070  140.7470 C   0  0  0  0  0  3  0  0  0  0  0  0
  188.5460  174.8630  141.0800 C   0  0  0  0  0  3  0  0  0  0  0  0
  194.3030  174.8080  145.1180 C   0  0  0  0  0  0  0  0  0  0  0  0
  193.1070  173.9400  143.1890 C   0  0  0  0  0  3  0  0  0  0  0  0
  195.4030  173.0710  143.6140 C   0  0  0  0  0  2  0  0  0  0  0  0
  190.7490  173.9730  141.5360 C   0  0  0  0  0  3  0  0  0  0  0  0
  192.0170  174.7780  143.4740 C   0  0  0  0  0  0  0  0  0  0  0  0
  190.8630  174.7970  142.6700 C   0  0  0  0  0  0  0  0  0  0  0  0
  189.9090  176.4900  144.1410 C   0  0  0  0  0  0  0  0  0  0  0  0
  196.7200  174.1750  145.4480 C   0  0  0  0  0  2  0  0  0  0  0  0
  194.2400  173.9370  144.0080 C   0  0  0  0  0  0  0  0  0  0  0  0
  195.4640  174.7890  146.0680 C   0  0  0  0  0  2  0  0  0  0  0  0
  188.6430  175.6870  142.2020 C   0  0  0  0  0  3  0  0  0  0  0  0
  189.7950  175.6650  143.0050 C   0  0  0  0  0  0  0  0  0  0  0  0
  193.2160  175.6350  145.4110 C   0  0  0  0  0  3  0  0  0  0  0  0
  191.0400  176.4510  144.8930 N   0  0  0  0  0  0  0  0  0  0  0  0
  196.6830  170.7550  146.0150 C   0  0  0  0  0  3  0  0  0  0  0  0
  195.9320  171.8170  145.7230 C   0  0  0  0  0  3  0  0  0  0  0  0
  196.2010  169.7250  146.9810 C   0  0  0  0  0  3  0  0  0  0  0  0
  195.0280  169.0550  146.4450 N   0  0  0  0  0  1  0  0  0  0  0  0
  197.2510  168.7500  147.2090 N   0  0  0  0  0  1  0  0  0  0  0  0
  188.8280  177.4530  144.5230 C   0  0  0  0  0  2  0  0  0  0  0  0
  186.3310  177.4030  144.8100 C   0  0  1  0  0  3  0  0  0  0  0  0
  187.7540  176.7740  146.6590 C   0  0  1  0  0  3  0  0  0  0  0  0
  186.3310  176.7940  147.1690 C   0  0  0  0  0  2  0  0  0  0  0  0
  185.5060  177.4660  146.0870 C   0  0  0  0  0  2  0  0  0  0  0  0
  188.4120  175.6390  147.1320 O   0  0  0  0  0  1  0  0  0  0  0  0
  187.6490  176.7220  145.1520 C   0  0  2  0  0  3  0  0  0  0  0  0
  185.5860  176.6890  143.6820 C   0  0  0  0  0  2  0  0  0  0  0  0
  185.3100  177.5960  142.4920 C   0  0  0  0  0  1  0  0  0  0  0  0
  1 12  1  0  0  0  0
  1 20  1  1  0  0  0
  2 18  1  0  0  0  0
  2 17  1  0  0  0  0
  3  4  2  0  0  0  0
  3  8  1  0  0  0  0
  4 15  1  0  0  0  0
  5 17  2  0  0  0  0
  5 14  1  0  0  0  0
  6  9  1  0  0  0  0
  6 13  2  0  0  0  0
  7 13  1  0  0  0  0
  7  1  1  0  0  0  0
  8 10  2  0  0  0  0
  9  2  2  0  0  0  0
 10 16  1  0  0  0  0
 10  9  1  0  0  0  0
 11 24  1  0  0  0  0
 11 18  2  0  0  0  0
 12 14  1  0  0  0  0
 13  5  1  0  0  0  0
 15 16  2  0  0  0  0
 16 11  1  0  0  0  0
 19 21  1  0  0  0  0
 20 19  2  0  0  0  0
 21 23  1  0  0  0  0
 22 21  1  0  0  0  0
 25 31  1  6  0  0  0
 25 30  1  0  0  0  0
 25 28  1  0  0  0  0
 26 29  1  1  0  0  0
 26 27  1  0  0  0  0
 28 27  1  0  0  0  0
 30 24  1  6  0  0  0
 30 26  1  0  0  0  0
 32 31  1  0  0  0  0
M  END
>  <MODEL>
2

>  <REMARK>
 VINA RESULT:      -7.7      3.914      5.859
  Name = 
  5 active torsions:
  status: ('A' for Active; 'I' for Inactive)
    1  A    between atoms: C_1  and  C_10
    2  A    between atoms: C_2  and  C_24
    3  A    between atoms: C_6  and  C_7
    4  A    between atoms: C_16  and  C_27
    5  A    between atoms: C_27  and  C_32
                            x       y       z     vdW  Elec       q    Type
                         _______ _______ _______ _____ _____    ______ ____

>  <TORSDO>
F 5

$$$$
=
 OpenBabel11052421323D

 32 36  0  0  1  0  0  0  0  0999 V2000
  185.7650  177.8210  146.8290 C   0  0  1  0  0  3  0  0  0  0  0  0
  190.6890  176.3570  146.5390 C   0  0  0  0  0  0  0  0  0  0  0  0
  190.6530  172.0160  144.3530 C   0  0  0  0  0  3  0  0  0  0  0  0
  192.0500  172.0080  144.3720 C   0  0  0  0  0  3  0  0  0  0  0  0
  188.6330  177.5130  147.1050 C   0  0  0  0  0  0  0  0  0  0  0  0
  188.5460  175.3540  145.9940 C   0  0  0  0  0  3  0  0  0  0  0  0
  186.3820  176.4410  146.5810 C   0  0  0  0  0  2  0  0  0  0  0  0
  189.9520  173.0990  144.8830 C   0  0  0  0  0  3  0  0  0  0  0  0
  189.9480  175.2900  145.9850 C   0  0  0  0  0  0  0  0  0  0  0  0
  190.6400  174.1910  145.4430 C   0  0  0  0  0  0  0  0  0  0  0  0
  192.7440  175.2740  146.0220 C   0  0  0  0  0  0  0  0  0  0  0  0
  186.4960  178.5360  147.9650 C   0  0  0  0  0  2  0  0  0  0  0  0
  187.8840  176.4600  146.5340 C   0  0  0  0  0  0  0  0  0  0  0  0
  187.9720  178.7540  147.6310 C   0  0  0  0  0  2  0  0  0  0  0  0
  192.7470  173.0840  144.9240 C   0  0  0  0  0  3  0  0  0  0  0  0
  192.0550  174.1810  145.4630 C   0  0  0  0  0  0  0  0  0  0  0  0
  190.0290  177.4580  147.0880 C   0  0  0  0  0  3  0  0  0  0  0  0
  192.0460  176.3170  146.5430 N   0  0  0  0  0  0  0  0  0  0  0  0
  185.5870  178.0900  144.3850 C   0  0  0  0  0  3  0  0  0  0  0  0
  185.7440  178.6540  145.5810 C   0  0  0  0  0  3  0  0  0  0  0  0
  185.5720  178.9230  143.1470 C   0  0  0  0  0  3  0  0  0  0  0  0
  186.7960  178.7100  142.3930 N   0  0  0  0  0  1  0  0  0  0  0  0
  184.4330  178.5500  142.3290 N   0  0  0  0  0  1  0  0  0  0  0  0
  194.2400  175.3020  146.1040 C   0  0  0  0  0  2  0  0  0  0  0  0
  196.3100  174.5870  144.8710 C   0  0  1  0  0  3  0  0  0  0  0  0
  194.9030  176.3150  143.9340 C   0  0  1  0  0  3  0  0  0  0  0  0
  196.1330  176.2100  143.0620 C   0  0  0  0  0  2  0  0  0  0  0  0
  197.1170  175.3430  143.8250 C   0  0  0  0  0  2  0  0  0  0  0  0
  193.7630  176.4150  143.1380 O   0  0  0  0  0  1  0  0  0  0  0  0
  194.8610  175.0360  144.7400 C   0  0  2  0  0  3  0  0  0  0  0  0
  196.4630  173.0730  144.7290 C   0  0  0  0  0  2  0  0  0  0  0  0
  196.8510  172.3950  146.0350 C   0  0  0  0  0  1  0  0  0  0  0  0
  1 20  1  6  0  0  0
  1 12  1  0  0  0  0
  2 18  1  0  0  0  0
  2 17  1  0  0  0  0
  3  4  2  0  0  0  0
  3  8  1  0  0  0  0
  4 15  1  0  0  0  0
  5 14  1  0  0  0  0
  6 13  2  0  0  0  0
  7  1  1  0  0  0  0
  8 10  2  0  0  0  0
  9  6  1  0  0  0  0
  9  2  2  0  0  0  0
 10 16  1  0  0  0  0
 10  9  1  0  0  0  0
 11 24  1  0  0  0  0
 11 18  2  0  0  0  0
 13  7  1  0  0  0  0
 13  5  1  0  0  0  0
 14 12  1  0  0  0  0
 15 16  2  0  0  0  0
 16 11  1  0  0  0  0
 17  5  2  0  0  0  0
 19 20  2  0  0  0  0
 21 19  1  0  0  0  0
 22 21  1  0  0  0  0
 23 21  1  0  0  0  0
 25 31  1  6  0  0  0
 26 29  1  6  0  0  0
 26 30  1  0  0  0  0
 27 28  1  0  0  0  0
 27 26  1  0  0  0  0
 28 25  1  0  0  0  0
 30 25  1  0  0  0  0
 30 24  1  1  0  0  0
 31 32  1  0  0  0  0
M  END
>  <MODEL>
3

>  <REMARK>
 VINA RESULT:      -7.7      4.047      8.508
  Name = 
  5 active torsions:
  status: ('A' for Active; 'I' for Inactive)
    1  A    between atoms: C_1  and  C_10
    2  A    between atoms: C_2  and  C_24
    3  A    between atoms: C_6  and  C_7
    4  A    between atoms: C_16  and  C_27
    5  A    between atoms: C_27  and  C_32
                            x       y       z     vdW  Elec       q    Type
                         _______ _______ _______ _____ _____    ______ ____

>  <TORSDO>
F 5

$$$$
=
 OpenBabel11052421323D

 32 36  0  0  1  0  0  0  0  0999 V2000
  194.6430  174.2700  145.3870 C   0  0  1  0  0  3  0  0  0  0  0  0
  189.7240  175.1820  144.1840 C   0  0  0  0  0  0  0  0  0  0  0  0
  188.0090  178.0520  147.7130 C   0  0  0  0  0  3  0  0  0  0  0  0
  186.7930  178.1430  147.0320 C   0  0  0  0  0  3  0  0  0  0  0  0
  191.9720  174.2730  144.2650 C   0  0  0  0  0  0  0  0  0  0  0  0
  191.1820  175.7180  146.0510 C   0  0  0  0  0  3  0  0  0  0  0  0
  193.4870  174.7920  146.2460 C   0  0  0  0  0  2  0  0  0  0  0  0
  189.0540  177.2950  147.1820 C   0  0  0  0  0  3  0  0  0  0  0  0
  189.9390  175.8470  145.4120 C   0  0  0  0  0  0  0  0  0  0  0  0
  188.8970  176.6170  145.9600 C   0  0  0  0  0  0  0  0  0  0  0  0
  187.5050  176.0310  144.0480 C   0  0  0  0  0  0  0  0  0  0  0  0
  194.1820  173.0920  144.5310 C   0  0  0  0  0  2  0  0  0  0  0  0
  192.2020  174.9510  145.4820 C   0  0  0  0  0  0  0  0  0  0  0  0
  193.0580  173.4980  143.5770 C   0  0  0  0  0  2  0  0  0  0  0  0
  186.6210  177.4760  145.8180 C   0  0  0  0  0  3  0  0  0  0  0  0
  187.6630  176.7090  145.2710 C   0  0  0  0  0  0  0  0  0  0  0  0
  190.7390  174.4080  143.6200 C   0  0  0  0  0  3  0  0  0  0  0  0
  188.5300  175.2910  143.5480 N   0  0  0  0  0  0  0  0  0  0  0  0
  196.2270  175.0890  143.6840 C   0  0  0  0  0  3  0  0  0  0  0  0
  195.2460  175.3560  144.5450 C   0  0  0  0  0  3  0  0  0  0  0  0
  196.8250  176.1740  142.8530 C   0  0  0  0  0  3  0  0  0  0  0  0
  197.8320  175.6190  141.9650 N   0  0  0  0  0  1  0  0  0  0  0  0
  195.7840  176.8060  142.0640 N   0  0  0  0  0  1  0  0  0  0  0  0
  186.2110  176.0630  143.2930 C   0  0  0  0  0  2  0  0  0  0  0  0
  184.5710  177.8030  142.5190 C   0  0  1  0  0  3  0  0  0  0  0  0
  186.4770  177.2640  141.1340 C   0  0  1  0  0  3  0  0  0  0  0  0
  185.6030  178.2160  140.3500 C   0  0  0  0  0  2  0  0  0  0  0  0
  184.2920  178.3030  141.1090 C   0  0  0  0  0  2  0  0  0  0  0  0
  187.8150  177.6360  141.0080 O   0  0  0  0  0  1  0  0  0  0  0  0
  186.0370  177.3930  142.5740 C   0  0  2  0  0  3  0  0  0  0  0  0
  184.2210  178.8480  143.5780 C   0  0  0  0  0  2  0  0  0  0  0  0
  185.3770  179.7910  143.8780 C   0  0  0  0  0  1  0  0  0  0  0  0
  1 20  1  6  0  0  0
  1  7  1  0  0  0  0
  2  9  1  0  0  0  0
  4  3  2  0  0  0  0
  5 13  2  0  0  0  0
  8  3  1  0  0  0  0
  9 10  1  0  0  0  0
  9  6  2  0  0  0  0
 10  8  2  0  0  0  0
 11 16  1  0  0  0  0
 12  1  1  0  0  0  0
 13  6  1  0  0  0  0
 13  7  1  0  0  0  0
 14  5  1  0  0  0  0
 14 12  1  0  0  0  0
 15  4  1  0  0  0  0
 16 15  2  0  0  0  0
 16 10  1  0  0  0  0
 17  2  2  0  0  0  0
 17  5  1  0  0  0  0
 18 11  2  0  0  0  0
 18  2  1  0  0  0  0
 19 20  2  0  0  0  0
 21 19  1  0  0  0  0
 22 21  1  0  0  0  0
 23 21  1  0  0  0  0
 24 11  1  0  0  0  0
 25 30  1  0  0  0  0
 25 31  1  1  0  0  0
 26 29  1  1  0  0  0
 26 30  1  0  0  0  0
 27 28  1  0  0  0  0
 27 26  1  0  0  0  0
 28 25  1  0  0  0  0
 30 24  1  1  0  0  0
 31 32  1  0  0  0  0
M  END
>  <MODEL>
4

>  <REMARK>
 VINA RESULT:      -7.6      3.002      4.575
  Name = 
  5 active torsions:
  status: ('A' for Active; 'I' for Inactive)
    1  A    between atoms: C_1  and  C_10
    2  A    between atoms: C_2  and  C_24
    3  A    between atoms: C_6  and  C_7
    4  A    between atoms: C_16  and  C_27
    5  A    between atoms: C_27  and  C_32
                            x       y       z     vdW  Elec       q    Type
                         _______ _______ _______ _____ _____    ______ ____

>  <TORSDO>
F 5

$$$$
=
 OpenBabel11052421323D

 32 36  0  0  1  0  0  0  0  0999 V2000
  185.8040  177.9250  147.3020 C   0  0  1  0  0  3  0  0  0  0  0  0
  190.6280  176.3430  146.4630 C   0  0  0  0  0  0  0  0  0  0  0  0
  190.2440  171.9520  144.4140 C   0  0  0  0  0  3  0  0  0  0  0  0
  191.6320  171.9130  144.2660 C   0  0  0  0  0  3  0  0  0  0  0  0
  188.6780  177.5590  147.2410 C   0  0  0  0  0  0  0  0  0  0  0  0
  188.4160  175.3760  146.2060 C   0  0  0  0  0  3  0  0  0  0  0  0
  186.3600  176.5260  147.0190 C   0  0  0  0  0  2  0  0  0  0  0  0
  189.6330  173.0630  144.9960 C   0  0  0  0  0  3  0  0  0  0  0  0
  189.8050  175.2800  146.0310 C   0  0  0  0  0  0  0  0  0  0  0  0
  190.4040  174.1530  145.4390 C   0  0  0  0  0  0  0  0  0  0  0  0
  192.5850  175.2010  145.7330 C   0  0  0  0  0  0  0  0  0  0  0  0
  186.6810  178.6500  148.3220 C   0  0  0  0  0  2  0  0  0  0  0  0
  187.8460  176.5100  146.7920 C   0  0  0  0  0  0  0  0  0  0  0  0
  188.1100  178.8260  147.8090 C   0  0  0  0  0  2  0  0  0  0  0  0
  192.4120  172.9850  144.7010 C   0  0  0  0  0  3  0  0  0  0  0  0
  191.8120  174.1110  145.2900 C   0  0  0  0  0  0  0  0  0  0  0  0
  190.0610  177.4720  147.0580 C   0  0  0  0  0  3  0  0  0  0  0  0
  191.9750  176.2720  146.3050 N   0  0  0  0  0  0  0  0  0  0  0  0
  185.1330  178.1830  144.9440 C   0  0  0  0  0  3  0  0  0  0  0  0
  185.6500  178.7280  146.0440 C   0  0  0  0  0  3  0  0  0  0  0  0
  184.9860  178.9850  143.6940 C   0  0  0  0  0  3  0  0  0  0  0  0
  186.2570  179.0450  142.9930 N   0  0  0  0  0  1  0  0  0  0  0  0
  183.9930  178.3650  142.8370 N   0  0  0  0  0  1  0  0  0  0  0  0
  194.0790  175.1960  145.6340 C   0  0  0  0  0  2  0  0  0  0  0  0
  195.0420  175.2290  143.3130 C   0  0  1  0  0  3  0  0  0  0  0  0
  195.7330  176.9040  144.9120 C   0  0  1  0  0  3  0  0  0  0  0  0
  196.5820  177.0830  143.6730 C   0  0  0  0  0  2  0  0  0  0  0  0
  196.3370  175.8550  142.8160 C   0  0  0  0  0  2  0  0  0  0  0  0
  195.3020  178.1470  145.3750 O   0  0  0  0  0  1  0  0  0  0  0  0
  194.5480  176.0720  144.4800 C   0  0  2  0  0  3  0  0  0  0  0  0
  193.9990  175.1100  142.2010 C   0  0  0  0  0  2  0  0  0  0  0  0
  193.1370  176.3570  142.0680 C   0  0  0  0  0  1  0  0  0  0  0  0
  1 20  1  6  0  0  0
  1 12  1  0  0  0  0
  2 17  1  0  0  0  0
  3  8  1  0  0  0  0
  4  3  2  0  0  0  0
  4 15  1  0  0  0  0
  5 14  1  0  0  0  0
  6 13  2  0  0  0  0
  7  1  1  0  0  0  0
  8 10  2  0  0  0  0
  9  6  1  0  0  0  0
  9  2  2  0  0  0  0
 10  9  1  0  0  0  0
 11 18  2  0  0  0  0
 13  7  1  0  0  0  0
 13  5  1  0  0  0  0
 14 12  1  0  0  0  0
 15 16  2  0  0  0  0
 16 10  1  0  0  0  0
 16 11  1  0  0  0  0
 17  5  2  0  0  0  0
 18  2  1  0  0  0  0
 19 20  2  0  0  0  0
 21 19  1  0  0  0  0
 22 21  1  0  0  0  0
 23 21  1  0  0  0  0
 24 11  1  0  0  0  0
 25 31  1  6  0  0  0
 25 30  1  0  0  0  0
 26 29  1  6  0  0  0
 27 26  1  0  0  0  0
 28 25  1  0  0  0  0
 28 27  1  0  0  0  0
 30 26  1  0  0  0  0
 30 24  1  1  0  0  0
 32 31  1  0  0  0  0
M  END
>  <MODEL>
5

>  <REMARK>
 VINA RESULT:      -7.4      3.957      8.308
  Name = 
  5 active torsions:
  status: ('A' for Active; 'I' for Inactive)
    1  A    between atoms: C_1  and  C_10
    2  A    between atoms: C_2  and  C_24
    3  A    between atoms: C_6  and  C_7
    4  A    between atoms: C_16  and  C_27
    5  A    between atoms: C_27  and  C_32
                            x       y       z     vdW  Elec       q    Type
                         _______ _______ _______ _____ _____    ______ ____

>  <TORSDO>
F 5

$$$$
=
 OpenBabel11052421323D

 32 36  0  0  1  0  0  0  0  0999 V2000
  195.3120  175.9940  145.1180 C   0  0  1  0  0  3  0  0  0  0  0  0
  190.1730  176.2690  145.0960 C   0  0  0  0  0  0  0  0  0  0  0  0
  188.7790  174.6290  140.7380 C   0  0  0  0  0  3  0  0  0  0  0  0
  187.4450  174.7580  141.1300 C   0  0  0  0  0  3  0  0  0  0  0  0
  192.5170  176.5280  145.6670 C   0  0  0  0  0  0  0  0  0  0  0  0
  191.8870  175.6840  143.4770 C   0  0  0  0  0  3  0  0  0  0  0  0
  194.3170  175.9640  143.9540 C   0  0  0  0  0  2  0  0  0  0  0  0
  189.8040  174.9680  141.6220 C   0  0  0  0  0  3  0  0  0  0  0  0
  190.5280  175.7920  143.8150 C   0  0  0  0  0  0  0  0  0  0  0  0
  189.5080  175.4430  142.9120 C   0  0  0  0  0  0  0  0  0  0  0  0
  187.8560  176.0490  144.5990 C   0  0  0  0  0  0  0  0  0  0  0  0
  194.9330  177.0880  146.1150 C   0  0  0  0  0  2  0  0  0  0  0  0
  192.8810  176.0330  144.3960 C   0  0  0  0  0  0  0  0  0  0  0  0
  193.5460  176.8470  146.7120 C   0  0  0  0  0  2  0  0  0  0  0  0
  187.1340  175.2280  142.4060 C   0  0  0  0  0  3  0  0  0  0  0  0
  188.1540  175.5740  143.3070 C   0  0  0  0  0  0  0  0  0  0  0  0
  191.1660  176.6270  146.0100 C   0  0  0  0  0  3  0  0  0  0  0  0
  188.8660  176.3820  145.4450 N   0  0  0  0  0  0  0  0  0  0  0  0
  195.7360  173.5660  145.0910 C   0  0  0  0  0  3  0  0  0  0  0  0
  195.4240  174.6570  145.7890 C   0  0  0  0  0  3  0  0  0  0  0  0
  195.8420  172.2380  145.7630 C   0  0  0  0  0  3  0  0  0  0  0  0
  194.5860  171.5180  145.6350 N   0  0  0  0  0  1  0  0  0  0  0  0
  196.9030  171.4670  145.1420 N   0  0  0  0  0  1  0  0  0  0  0  0
  186.4440  176.2430  145.0580 C   0  0  0  0  0  2  0  0  0  0  0  0
  185.0020  177.9210  146.2510 C   0  0  1  0  0  3  0  0  0  0  0  0
  185.6560  178.3280  143.9600 C   0  0  1  0  0  3  0  0  0  0  0  0
  184.6820  179.4160  144.3530 C   0  0  0  0  0  2  0  0  0  0  0  0
  184.0710  178.9760  145.6710 C   0  0  0  0  0  2  0  0  0  0  0  0
  186.7300  178.8820  143.2640 O   0  0  0  0  0  1  0  0  0  0  0  0
  186.1390  177.7210  145.2580 C   0  0  2  0  0  3  0  0  0  0  0  0
  185.5080  178.3050  147.6410 C   0  0  0  0  0  2  0  0  0  0  0  0
  186.3160  179.5940  147.6380 C   0  0  0  0  0  1  0  0  0  0  0  0
  1 20  1  1  0  0  0
  1 12  1  0  0  0  0
  2 18  1  0  0  0  0
  2 17  1  0  0  0  0
  3  4  2  0  0  0  0
  3  8  1  0  0  0  0
  4 15  1  0  0  0  0
  5 17  2  0  0  0  0
  5 14  1  0  0  0  0
  6  9  1  0  0  0  0
  6 13  2  0  0  0  0
  7 13  1  0  0  0  0
  7  1  1  0  0  0  0
  8 10  2  0  0  0  0
  9  2  2  0  0  0  0
 10 16  1  0  0  0  0
 10  9  1  0  0  0  0
 11 24  1  0  0  0  0
 11 18  2  0  0  0  0
 12 14  1  0  0  0  0
 13  5  1  0  0  0  0
 15 16  2  0  0  0  0
 16 11  1  0  0  0  0
 19 21  1  0  0  0  0
 19 20  2  0  0  0  0
 22 21  1  0  0  0  0
 23 21  1  0  0  0  0
 25 31  1  1  0  0  0
 26 29  1  1  0  0  0
 26 27  1  0  0  0  0
 26 30  1  0  0  0  0
 27 28  1  0  0  0  0
 28 25  1  0  0  0  0
 30 24  1  6  0  0  0
 30 25  1  0  0  0  0
 32 31  1  0  0  0  0
M  END
>  <MODEL>
6

>  <REMARK>
 VINA RESULT:      -7.3      2.956      5.503
  Name = 
  5 active torsions:
  status: ('A' for Active; 'I' for Inactive)
    1  A    between atoms: C_1  and  C_10
    2  A    between atoms: C_2  and  C_24
    3  A    between atoms: C_6  and  C_7
    4  A    between atoms: C_16  and  C_27
    5  A    between atoms: C_27  and  C_32
                            x       y       z     vdW  Elec       q    Type
                         _______ _______ _______ _____ _____    ______ ____

>  <TORSDO>
F 5

$$$$
=
 OpenBabel11052421323D

 32 36  0  0  1  0  0  0  0  0999 V2000
  194.4080  176.4650  145.4310 C   0  0  1  0  0  3  0  0  0  0  0  0
  189.2680  176.4310  145.6770 C   0  0  0  0  0  0  0  0  0  0  0  0
  187.7210  177.3950  141.1700 C   0  0  0  0  0  3  0  0  0  0  0  0
  186.4040  177.2150  141.5970 C   0  0  0  0  0  3  0  0  0  0  0  0
  191.6260  176.4580  146.2440 C   0  0  0  0  0  0  0  0  0  0  0  0
  190.9210  176.9290  143.9680 C   0  0  0  0  0  3  0  0  0  0  0  0
  193.3600  177.0290  144.4670 C   0  0  0  0  0  2  0  0  0  0  0  0
  188.7760  177.2450  142.0720 C   0  0  0  0  0  3  0  0  0  0  0  0
  189.5770  176.7600  144.3380 C   0  0  0  0  0  0  0  0  0  0  0  0
  188.5260  176.9120  143.4150 C   0  0  0  0  0  0  0  0  0  0  0  0
  186.9380  176.3990  145.1910 C   0  0  0  0  0  0  0  0  0  0  0  0
  194.0420  176.8060  146.8750 C   0  0  0  0  0  2  0  0  0  0  0  0
  191.9460  176.7660  144.9040 C   0  0  0  0  0  0  0  0  0  0  0  0
  192.6930  176.2020  147.2690 C   0  0  0  0  0  2  0  0  0  0  0  0
  186.1390  176.8860  142.9270 C   0  0  0  0  0  3  0  0  0  0  0  0
  187.1900  176.7320  143.8460 C   0  0  0  0  0  0  0  0  0  0  0  0
  190.2910  176.2780  146.6140 C   0  0  0  0  0  3  0  0  0  0  0  0
  187.9760  176.2640  146.0580 N   0  0  0  0  0  0  0  0  0  0  0  0
  195.7800  174.4170  145.4620 C   0  0  0  0  0  3  0  0  0  0  0  0
  194.5950  174.9880  145.2480 C   0  0  0  0  0  3  0  0  0  0  0  0
  195.9620  172.9480  145.2730 C   0  0  0  0  0  3  0  0  0  0  0  0
  196.3250  172.6680  143.8940 N   0  0  0  0  0  1  0  0  0  0  0  0
  197.0150  172.4760  146.1530 N   0  0  0  0  0  1  0  0  0  0  0  0
  185.5440  176.2310  145.7120 C   0  0  0  0  0  2  0  0  0  0  0  0
  185.0770  178.6940  145.5320 C   0  0  1  0  0  3  0  0  0  0  0  0
  186.0720  177.8170  147.5520 C   0  0  1  0  0  3  0  0  0  0  0  0
  186.0530  179.3240  147.6740 C   0  0  0  0  0  2  0  0  0  0  0  0
  185.7030  179.8530  146.2960 C   0  0  0  0  0  2  0  0  0  0  0  0
  185.6610  177.2380  148.7520 O   0  0  0  0  0  1  0  0  0  0  0  0
  185.0900  177.4820  146.4530 C   0  0  2  0  0  3  0  0  0  0  0  0
  183.6700  179.0300  145.0350 C   0  0  0  0  0  2  0  0  0  0  0  0
  183.5640  179.0180  143.5170 C   0  0  0  0  0  1  0  0  0  0  0  0
  1 20  1  1  0  0  0
  1 12  1  0  0  0  0
  2 18  1  0  0  0  0
  2 17  1  0  0  0  0
  3  4  2  0  0  0  0
  3  8  1  0  0  0  0
  4 15  1  0  0  0  0
  5 17  2  0  0  0  0
  5 14  1  0  0  0  0
  6  9  1  0  0  0  0
  6 13  2  0  0  0  0
  7 13  1  0  0  0  0
  7  1  1  0  0  0  0
  8 10  2  0  0  0  0
  9  2  2  0  0  0  0
 10 16  1  0  0  0  0
 10  9  1  0  0  0  0
 11 24  1  0  0  0  0
 11 18  2  0  0  0  0
 12 14  1  0  0  0  0
 13  5  1  0  0  0  0
 15 16  2  0  0  0  0
 16 11  1  0  0  0  0
 20 19  2  0  0  0  0
 21 19  1  0  0  0  0
 21 23  1  0  0  0  0
 22 21  1  0  0  0  0
 25 31  1  1  0  0  0
 25 28  1  0  0  0  0
 25 30  1  0  0  0  0
 26 27  1  0  0  0  0
 26 29  1  1  0  0  0
 28 27  1  0  0  0  0
 30 24  1  6  0  0  0
 30 26  1  0  0  0  0
 32 31  1  0  0  0  0
M  END
>  <MODEL>
7

>  <REMARK>
 VINA RESULT:      -7.2      3.545      5.407
  Name = 
  5 active torsions:
  status: ('A' for Active; 'I' for Inactive)
    1  A    between atoms: C_1  and  C_10
    2  A    between atoms: C_2  and  C_24
    3  A    between atoms: C_6  and  C_7
    4  A    between atoms: C_16  and  C_27
    5  A    between atoms: C_27  and  C_32
                            x       y       z     vdW  Elec       q    Type
                         _______ _______ _______ _____ _____    ______ ____

>  <TORSDO>
F 5

$$$$
=
 OpenBabel11052421323D

 32 36  0  0  1  0  0  0  0  0999 V2000
  191.9260  170.3570  142.4390 C   0  0  1  0  0  3  0  0  0  0  0  0
  189.4980  174.6790  143.8190 C   0  0  0  0  0  0  0  0  0  0  0  0
  191.5340  176.0590  148.0120 C   0  0  0  0  0  3  0  0  0  0  0  0
  190.7420  177.2100  148.0040 C   0  0  0  0  0  3  0  0  0  0  0  0
  190.1180  172.6030  142.7280 C   0  0  0  0  0  0  0  0  0  0  0  0
  191.1880  173.2450  144.8130 C   0  0  0  0  0  3  0  0  0  0  0  0
  191.8530  171.0710  143.7920 C   0  0  0  0  0  2  0  0  0  0  0  0
  191.4330  175.1330  146.9740 C   0  0  0  0  0  3  0  0  0  0  0  0
  190.4190  174.4190  144.8580 C   0  0  0  0  0  0  0  0  0  0  0  0
  190.5360  175.3440  145.9120 C   0  0  0  0  0  0  0  0  0  0  0  0
  188.8360  176.7240  144.8420 C   0  0  0  0  0  0  0  0  0  0  0  0
  190.5440  170.3030  141.7890 C   0  0  0  0  0  2  0  0  0  0  0  0
  191.0560  172.3450  143.7520 C   0  0  0  0  0  0  0  0  0  0  0  0
  189.9910  171.7050  141.5320 C   0  0  0  0  0  2  0  0  0  0  0  0
  189.8470  177.4350  146.9570 C   0  0  0  0  0  3  0  0  0  0  0  0
  189.7340  176.5110  145.9050 C   0  0  0  0  0  0  0  0  0  0  0  0
  189.3590  173.7750  142.7640 C   0  0  0  0  0  3  0  0  0  0  0  0
  188.7440  175.8070  143.8420 N   0  0  0  0  0  0  0  0  0  0  0  0
  193.3720  170.3570  140.4420 C   0  0  0  0  0  3  0  0  0  0  0  0
  192.9350  170.9930  141.5280 C   0  0  0  0  0  3  0  0  0  0  0  0
  194.3790  170.9920  139.5430 C   0  0  0  0  0  3  0  0  0  0  0  0
  193.7040  171.7300  138.4880 N   0  0  0  0  0  1  0  0  0  0  0  0
  195.2060  171.9020  140.3130 N   0  0  0  0  0  1  0  0  0  0  0  0
  187.9360  177.9200  144.8000 C   0  0  0  0  0  2  0  0  0  0  0  0
  185.5260  178.3630  144.2420 C   0  0  1  0  0  3  0  0  0  0  0  0
  186.1350  177.7860  146.5080 C   0  0  1  0  0  3  0  0  0  0  0  0
  184.6650  178.1390  146.5110 C   0  0  0  0  0  2  0  0  0  0  0  0
  184.3830  178.7710  145.1610 C   0  0  0  0  0  2  0  0  0  0  0  0
  186.3490  176.6390  147.2730 O   0  0  0  0  0  1  0  0  0  0  0  0
  186.4910  177.5190  145.0640 C   0  0  2  0  0  3  0  0  0  0  0  0
  185.0250  177.6270  142.9990 C   0  0  0  0  0  2  0  0  0  0  0  0
  183.8080  178.2910  142.3720 C   0  0  0  0  0  1  0  0  0  0  0  0
  1 20  1  6  0  0  0
  1  7  1  0  0  0  0
  2 18  2  0  0  0  0
  2  9  1  0  0  0  0
  4  3  1  0  0  0  0
  5 17  2  0  0  0  0
  5 13  1  0  0  0  0
  6  9  1  0  0  0  0
  8  3  2  0  0  0  0
  9 10  2  0  0  0  0
 10  8  1  0  0  0  0
 11 16  2  0  0  0  0
 12  1  1  0  0  0  0
 13  7  1  0  0  0  0
 13  6  2  0  0  0  0
 14 12  1  0  0  0  0
 14  5  1  0  0  0  0
 15  4  2  0  0  0  0
 16 10  1  0  0  0  0
 16 15  1  0  0  0  0
 17  2  1  0  0  0  0
 18 11  1  0  0  0  0
 19 20  2  0  0  0  0
 21 23  1  0  0  0  0
 21 19  1  0  0  0  0
 22 21  1  0  0  0  0
 24 11  1  0  0  0  0
 25 31  1  6  0  0  0
 25 30  1  0  0  0  0
 25 28  1  0  0  0  0
 26 27  1  0  0  0  0
 26 29  1  1  0  0  0
 28 27  1  0  0  0  0
 30 24  1  1  0  0  0
 30 26  1  0  0  0  0
 32 31  1  0  0  0  0
M  END
>  <MODEL>
8

>  <REMARK>
 VINA RESULT:      -7.1      1.780      2.212
  Name = 
  5 active torsions:
  status: ('A' for Active; 'I' for Inactive)
    1  A    between atoms: C_1  and  C_10
    2  A    between atoms: C_2  and  C_24
    3  A    between atoms: C_6  and  C_7
    4  A    between atoms: C_16  and  C_27
    5  A    between atoms: C_27  and  C_32
                            x       y       z     vdW  Elec       q    Type
                         _______ _______ _______ _____ _____    ______ ____

>  <TORSDO>
F 5

$$$$
=
 OpenBabel11052421323D

 32 36  0  0  1  0  0  0  0  0999 V2000
  195.2470  172.4180  144.5840 C   0  0  1  0  0  3  0  0  0  0  0  0
  190.6160  174.6210  145.0020 C   0  0  0  0  0  0  0  0  0  0  0  0
  191.0110  177.8600  148.6060 C   0  0  0  0  0  3  0  0  0  0  0  0
  189.6990  178.2730  148.3610 C   0  0  0  0  0  3  0  0  0  0  0  0
  192.4450  173.1390  144.4190 C   0  0  0  0  0  0  0  0  0  0  0  0
  192.7140  174.7500  146.2170 C   0  0  0  0  0  3  0  0  0  0  0  0
  194.6310  173.2360  145.7230 C   0  0  0  0  0  2  0  0  0  0  0  0
  191.5800  176.8470  147.8330 C   0  0  0  0  0  3  0  0  0  0  0  0
  191.4020  175.2070  146.0180 C   0  0  0  0  0  0  0  0  0  0  0  0
  190.8440  176.2320  146.8050 C   0  0  0  0  0  0  0  0  0  0  0  0
  188.7770  176.0370  145.5290 C   0  0  0  0  0  0  0  0  0  0  0  0
  194.2370  171.4050  144.0480 C   0  0  0  0  0  2  0  0  0  0  0  0
  193.2460  173.7340  145.4180 C   0  0  0  0  0  0  0  0  0  0  0  0
  192.9930  172.0970  143.4880 C   0  0  0  0  0  2  0  0  0  0  0  0
  188.9550  177.6730  147.3450 C   0  0  0  0  0  3  0  0  0  0  0  0
  189.5150  176.6520  146.5590 C   0  0  0  0  0  0  0  0  0  0  0  0
  191.1430  173.5990  144.2100 C   0  0  0  0  0  3  0  0  0  0  0  0
  189.3440  175.0460  144.7920 N   0  0  0  0  0  0  0  0  0  0  0  0
  196.4340  174.4210  143.7720 C   0  0  0  0  0  3  0  0  0  0  0  0
  195.7740  173.2980  143.4890 C   0  0  0  0  0  3  0  0  0  0  0  0
  196.9510  175.2940  142.6790 C   0  0  0  0  0  3  0  0  0  0  0  0
  196.0920  175.1880  141.5120 N   0  0  0  0  0  1  0  0  0  0  0  0
  196.9750  176.6720  143.1330 N   0  0  0  0  0  1  0  0  0  0  0  0
  187.3550  176.4140  145.2480 C   0  0  0  0  0  2  0  0  0  0  0  0
  185.8880  178.3690  144.6620 C   0  0  1  0  0  3  0  0  0  0  0  0
  187.5330  177.5960  143.0690 C   0  0  1  0  0  3  0  0  0  0  0  0
  186.7120  178.6670  142.3880 C   0  0  0  0  0  2  0  0  0  0  0  0
  185.5200  178.9210  143.2920 C   0  0  0  0  0  2  0  0  0  0  0  0
  188.8860  177.7860  142.7900 O   0  0  0  0  0  1  0  0  0  0  0  0
  187.2810  177.7650  144.5500 C   0  0  2  0  0  3  0  0  0  0  0  0
  185.8060  179.4390  145.7510 C   0  0  0  0  0  2  0  0  0  0  0  0
  185.3580  178.8790  147.0930 C   0  0  0  0  0  1  0  0  0  0  0  0
  1 20  1  6  0  0  0
  1  7  1  0  0  0  0
  2  9  1  0  0  0  0
  4  3  1  0  0  0  0
  5 13  1  0  0  0  0
  8  3  2  0  0  0  0
  9  6  1  0  0  0  0
  9 10  2  0  0  0  0
 10  8  1  0  0  0  0
 11 16  2  0  0  0  0
 12  1  1  0  0  0  0
 13  7  1  0  0  0  0
 13  6  2  0  0  0  0
 14 12  1  0  0  0  0
 14  5  1  0  0  0  0
 15  4  2  0  0  0  0
 16 10  1  0  0  0  0
 16 15  1  0  0  0  0
 17  5  2  0  0  0  0
 17  2  1  0  0  0  0
 18  2  2  0  0  0  0
 18 11  1  0  0  0  0
 20 19  2  0  0  0  0
 21 23  1  0  0  0  0
 21 19  1  0  0  0  0
 22 21  1  0  0  0  0
 24 11  1  0  0  0  0
 25 31  1  1  0  0  0
 26 29  1  1  0  0  0
 26 30  1  0  0  0  0
 27 26  1  0  0  0  0
 27 28  1  0  0  0  0
 28 25  1  0  0  0  0
 30 25  1  0  0  0  0
 30 24  1  1  0  0  0
 31 32  1  0  0  0  0
M  END
>  <MODEL>
9

>  <REMARK>
 VINA RESULT:      -7.1      3.027      4.243
  Name = 
  5 active torsions:
  status: ('A' for Active; 'I' for Inactive)
    1  A    between atoms: C_1  and  C_10
    2  A    between atoms: C_2  and  C_24
    3  A    between atoms: C_6  and  C_7
    4  A    between atoms: C_16  and  C_27
    5  A    between atoms: C_27  and  C_32
                            x       y       z     vdW  Elec       q    Type
                         _______ _______ _______ _____ _____    ______ ____

>  <TORSDO>
F 5

$$$$
