=
 OpenBabel11052418413D

 34 38  0  0  1  0  0  0  0  0999 V2000
  186.5950  177.5420  142.1780 C   0  0  0  0  0  0  0  0  0  0  0  0
  185.7850  177.9610  144.5470 C   0  0  2  0  0  3  0  0  0  0  0  0
  187.6570  176.3110  143.9980 C   0  0  0  0  0  0  0  0  0  0  0  0
  189.4910  175.2780  147.2600 C   0  0  0  0  0  1  0  0  0  0  0  0
  184.4650  178.0020  144.0950 O   0  0  0  0  0  1  0  0  0  0  0  0
  187.2170  177.0630  146.3830 C   0  0  0  0  0  2  0  0  0  0  0  0
  186.6720  177.2290  143.5520 C   0  0  0  0  0  0  0  0  0  0  0  0
  189.3180  175.6730  145.7930 C   0  0  1  0  0  0  0  0  0  0  0  0
  188.4640  175.6190  143.0660 C   0  0  0  0  0  0  0  0  0  0  0  0
  187.4320  176.8830  141.2690 C   0  0  0  0  0  3  0  0  0  0  0  0
  185.7940  177.3320  145.9370 C   0  0  0  0  0  2  0  0  0  0  0  0
  189.6500  174.4350  144.9690 C   0  0  0  0  0  2  0  0  0  0  0  0
  189.4580  174.6670  143.5280 N   0  0  0  0  0  0  0  0  0  0  0  0
  187.8410  176.0080  145.4690 C   0  0  2  0  0  3  0  0  0  0  0  0
  188.3490  175.9320  141.7070 C   0  0  0  0  0  3  0  0  0  0  0  0
  190.6510  171.4860  141.9080 C   0  0  0  0  0  0  0  0  0  0  0  0
  191.9650  171.9110  141.5430 N   0  0  0  0  0  2  0  0  0  0  0  0
  190.1870  173.8180  142.6210 C   0  0  0  0  0  0  0  0  0  0  0  0
  192.2110  173.3230  141.2740 C   0  0  0  0  0  2  0  0  0  0  0  0
  189.5860  172.5130  142.1470 C   0  0  0  0  0  2  0  0  0  0  0  0
  191.4210  174.1750  142.2240 C   0  0  0  0  0  3  0  0  0  0  0  0
  190.3880  170.2600  142.0190 O   0  0  0  0  0  0  0  0  0  0  0  0
  184.8190  178.3150  140.6300 C   0  0  0  0  0  1  0  0  0  0  0  0
  185.6920  178.5160  141.7330 O   0  0  0  0  0  0  0  0  0  0  0  0
  190.2330  176.6910  145.4070 O   0  0  0  0  0  0  0  0  0  0  0  0
  191.4920  176.4800  145.9920 C   0  0  0  0  0  2  0  0  0  0  0  0
  192.5710  176.7250  144.9530 C   0  0  0  0  0  2  0  0  0  0  0  0
  193.4840  173.0790  145.4750 C   0  0  0  0  0  2  0  0  0  0  0  0
  193.5530  175.5700  144.9320 C   0  0  0  0  0  3  0  0  0  0  0  0
  193.0850  174.4930  145.9060 C   0  0  0  0  0  2  0  0  0  0  0  0
  195.9320  173.7730  145.6320 C   0  0  0  0  0  2  0  0  0  0  0  0
  196.0480  175.1440  144.9760 C   0  0  0  0  0  2  0  0  0  0  0  0
  194.9150  176.0800  145.3860 C   0  0  0  0  0  2  0  0  0  0  0  0
  194.8940  172.9400  144.8930 C   0  0  0  0  0  2  0  0  0  0  0  0
  1  7  1  0  0  0  0
  2  5  1  6  0  0  0
  2 11  1  0  0  0  0
  3 14  1  0  0  0  0
  7  3  2  0  0  0  0
  7  2  1  0  0  0  0
  8  4  1  1  0  0  0
  9 13  1  0  0  0  0
  9  3  1  0  0  0  0
 10 15  1  0  0  0  0
 10  1  2  0  0  0  0
 11  6  1  0  0  0  0
 12  8  1  0  0  0  0
 13 12  1  0  0  0  0
 14  8  1  0  0  0  0
 14  6  1  1  0  0  0
 15  9  2  0  0  0  0
 16 22  2  0  0  0  0
 16 20  1  0  0  0  0
 17 16  1  0  0  0  0
 18 13  1  0  0  0  0
 19 17  1  0  0  0  0
 19 21  1  0  0  0  0
 20 18  1  0  0  0  0
 21 18  2  0  0  0  0
 23 24  1  0  0  0  0
 24  1  1  0  0  0  0
 25  8  1  0  0  0  0
 25 26  1  0  0  0  0
 27 26  1  0  0  0  0
 28 30  1  0  0  0  0
 29 27  1  0  0  0  0
 29 33  1  0  0  0  0
 29 30  1  0  0  0  0
 32 33  1  0  0  0  0
 32 31  1  0  0  0  0
 34 28  1  0  0  0  0
 34 31  1  0  0  0  0
M  END
>  <MODEL>
1

>  <REMARK>
 VINA RESULT:      -7.8      0.000      0.000
  Name = 
  6 active torsions:
  status: ('A' for Active; 'I' for Inactive)
    1  A    between atoms: C_1  and  O_19
    2  A    between atoms: C_3  and  C_13
    3  A    between atoms: C_3  and  C_17
    4  A    between atoms: C_12  and  N_28
    5  A    between atoms: C_17  and  O_29
    6  A    between atoms: C_18  and  O_29
                            x       y       z     vdW  Elec       q    Type
                         _______ _______ _______ _____ _____    ______ ____

>  <TORSDO>
F 6

$$$$
=
 OpenBabel11052418413D

 34 38  0  0  1  0  0  0  0  0999 V2000
  193.9270  172.8690  144.9970 C   0  0  0  0  0  0  0  0  0  0  0  0
  194.7350  175.1210  145.8450 C   0  0  2  0  0  3  0  0  0  0  0  0
  192.7570  174.8750  144.2470 C   0  0  0  0  0  0  0  0  0  0  0  0
  190.8140  178.2300  144.0420 C   0  0  0  0  0  1  0  0  0  0  0  0
  196.0600  174.7070  145.7020 O   0  0  0  0  0  1  0  0  0  0  0  0
  193.2210  177.0640  145.4480 C   0  0  0  0  0  2  0  0  0  0  0  0
  193.8110  174.2760  144.9830 C   0  0  0  0  0  0  0  0  0  0  0  0
  191.0330  176.7180  144.1110 C   0  0  1  0  0  0  0  0  0  0  0  0
  191.9140  174.0850  143.4320 C   0  0  0  0  0  0  0  0  0  0  0  0
  193.0570  172.0940  144.2210 C   0  0  0  0  0  3  0  0  0  0  0  0
  194.6650  176.6100  145.5220 C   0  0  0  0  0  2  0  0  0  0  0  0
  190.6230  176.1590  142.7530 C   0  0  0  0  0  2  0  0  0  0  0  0
  190.8490  174.7070  142.6660 N   0  0  0  0  0  0  0  0  0  0  0  0
  192.5340  176.3710  144.2700 C   0  0  2  0  0  3  0  0  0  0  0  0
  192.0690  172.6940  143.4470 C   0  0  0  0  0  3  0  0  0  0  0  0
  189.6050  173.6090  139.2880 C   0  0  0  0  0  0  0  0  0  0  0  0
  188.2600  173.2930  139.6470 N   0  0  0  0  0  2  0  0  0  0  0  0
  190.0720  173.9760  141.6990 C   0  0  0  0  0  0  0  0  0  0  0  0
  187.9650  172.8620  141.0100 C   0  0  0  0  0  2  0  0  0  0  0  0
  190.6640  173.6320  140.3490 C   0  0  0  0  0  2  0  0  0  0  0  0
  188.8060  173.6310  141.9870 C   0  0  0  0  0  3  0  0  0  0  0  0
  189.9000  173.8580  138.0900 O   0  0  0  0  0  0  0  0  0  0  0  0
  195.1540  170.8580  145.7720 C   0  0  0  0  0  1  0  0  0  0  0  0
  194.9030  172.2570  145.7940 O   0  0  0  0  0  0  0  0  0  0  0  0
  190.1980  176.1050  145.0850 O   0  0  0  0  0  0  0  0  0  0  0  0
  189.3970  177.0600  145.7310 C   0  0  0  0  0  2  0  0  0  0  0  0
  188.0630  176.4310  146.0890 C   0  0  0  0  0  2  0  0  0  0  0  0
  184.5150  177.7300  146.4440 C   0  0  0  0  0  2  0  0  0  0  0  0
  186.9250  177.3540  145.6990 C   0  0  0  0  0  3  0  0  0  0  0  0
  185.5980  176.7090  146.0850 C   0  0  0  0  0  2  0  0  0  0  0  0
  184.6820  178.6680  144.0790 C   0  0  0  0  0  2  0  0  0  0  0  0
  186.1650  178.7810  143.7500 C   0  0  0  0  0  2  0  0  0  0  0  0
  186.9510  177.5480  144.1880 C   0  0  0  0  0  2  0  0  0  0  0  0
  184.4620  178.9760  145.5540 C   0  0  0  0  0  2  0  0  0  0  0  0
  1 24  1  0  0  0  0
  2  5  1  6  0  0  0
  3 14  1  0  0  0  0
  3  7  2  0  0  0  0
  6 11  1  0  0  0  0
  7  1  1  0  0  0  0
  7  2  1  0  0  0  0
  8  4  1  1  0  0  0
  8 14  1  0  0  0  0
  8 25  1  0  0  0  0
  9 15  2  0  0  0  0
  9  3  1  0  0  0  0
 10  1  2  0  0  0  0
 11  2  1  0  0  0  0
 12  8  1  0  0  0  0
 13 12  1  0  0  0  0
 13  9  1  0  0  0  0
 14  6  1  1  0  0  0
 15 10  1  0  0  0  0
 16 17  1  0  0  0  0
 16 20  1  0  0  0  0
 17 19  1  0  0  0  0
 18 21  2  0  0  0  0
 18 13  1  0  0  0  0
 19 21  1  0  0  0  0
 20 18  1  0  0  0  0
 22 16  2  0  0  0  0
 23 24  1  0  0  0  0
 25 26  1  0  0  0  0
 26 27  1  0  0  0  0
 29 30  1  0  0  0  0
 29 27  1  0  0  0  0
 30 28  1  0  0  0  0
 31 34  1  0  0  0  0
 32 31  1  0  0  0  0
 32 33  1  0  0  0  0
 33 29  1  0  0  0  0
 34 28  1  0  0  0  0
M  END
>  <MODEL>
2

>  <REMARK>
 VINA RESULT:      -7.6      2.432      7.344
  Name = 
  6 active torsions:
  status: ('A' for Active; 'I' for Inactive)
    1  A    between atoms: C_1  and  O_19
    2  A    between atoms: C_3  and  C_13
    3  A    between atoms: C_3  and  C_17
    4  A    between atoms: C_12  and  N_28
    5  A    between atoms: C_17  and  O_29
    6  A    between atoms: C_18  and  O_29
                            x       y       z     vdW  Elec       q    Type
                         _______ _______ _______ _____ _____    ______ ____

>  <TORSDO>
F 6

$$$$
=
 OpenBabel11052418413D

 34 38  0  0  1  0  0  0  0  0999 V2000
  191.5100  173.8050  140.0340 C   0  0  0  0  0  0  0  0  0  0  0  0
  189.1330  173.2920  140.7640 C   0  0  2  0  0  3  0  0  0  0  0  0
  190.9520  174.0320  142.4000 C   0  0  0  0  0  0  0  0  0  0  0  0
  189.3430  174.9940  145.7990 C   0  0  0  0  0  1  0  0  0  0  0  0
  189.0980  172.1980  139.8990 O   0  0  0  0  0  1  0  0  0  0  0  0
  188.5030  174.0080  143.0700 C   0  0  0  0  0  2  0  0  0  0  0  0
  190.5690  173.6820  141.0800 C   0  0  0  0  0  0  0  0  0  0  0  0
  190.2900  175.0800  144.6020 C   0  0  1  0  0  0  0  0  0  0  0  0
  192.2920  174.3740  142.6890 C   0  0  0  0  0  0  0  0  0  0  0  0
  192.8250  174.1890  140.3270 C   0  0  0  0  0  3  0  0  0  0  0  0
  188.3180  172.9450  142.0060 C   0  0  0  0  0  2  0  0  0  0  0  0
  191.6790  174.7290  145.1230 C   0  0  0  0  0  2  0  0  0  0  0  0
  192.6820  174.7130  144.0450 N   0  0  0  0  0  0  0  0  0  0  0  0
  189.9580  174.0030  143.5400 C   0  0  2  0  0  3  0  0  0  0  0  0
  193.2100  174.4640  141.6360 C   0  0  0  0  0  3  0  0  0  0  0  0
  196.1690  176.1250  143.9520 C   0  0  0  0  0  0  0  0  0  0  0  0
  196.8790  174.9750  144.4140 N   0  0  0  0  0  2  0  0  0  0  0  0
  194.0580  174.9060  144.4230 C   0  0  0  0  0  0  0  0  0  0  0  0
  196.2080  174.0270  145.2960 C   0  0  0  0  0  2  0  0  0  0  0  0
  194.7100  176.2630  144.2630 C   0  0  0  0  0  2  0  0  0  0  0  0
  194.7730  173.8660  144.8850 C   0  0  0  0  0  3  0  0  0  0  0  0
  196.7670  177.0180  143.2970 O   0  0  0  0  0  0  0  0  0  0  0  0
  191.8630  172.7180  137.8340 C   0  0  0  0  0  1  0  0  0  0  0  0
  191.1220  173.5550  138.7120 O   0  0  0  0  0  0  0  0  0  0  0  0
  190.3610  176.3990  144.0770 O   0  0  0  0  0  0  0  0  0  0  0  0
  189.4390  177.2430  144.7150 C   0  0  0  0  0  2  0  0  0  0  0  0
  188.3920  177.6870  143.7110 C   0  0  0  0  0  2  0  0  0  0  0  0
  185.4610  176.9060  145.9910 C   0  0  0  0  0  2  0  0  0  0  0  0
  187.1060  178.0610  144.4220 C   0  0  0  0  0  3  0  0  0  0  0  0
  186.3080  176.7960  144.7210 C   0  0  0  0  0  2  0  0  0  0  0  0
  184.1830  178.8320  144.9160 C   0  0  0  0  0  2  0  0  0  0  0  0
  185.2170  179.7400  144.2600 C   0  0  0  0  0  2  0  0  0  0  0  0
  186.2810  178.9520  143.5010 C   0  0  0  0  0  2  0  0  0  0  0  0
  184.7570  178.2500  146.2000 C   0  0  0  0  0  2  0  0  0  0  0  0
  1 10  2  0  0  0  0
  1  7  1  0  0  0  0
  2  5  1  6  0  0  0
  2  7  1  0  0  0  0
  2 11  1  0  0  0  0
  3  9  1  0  0  0  0
  3 14  1  0  0  0  0
  7  3  2  0  0  0  0
  8 12  1  0  0  0  0
  8  4  1  1  0  0  0
  9 13  1  0  0  0  0
 10 15  1  0  0  0  0
 11  6  1  0  0  0  0
 13 18  1  0  0  0  0
 13 12  1  0  0  0  0
 14  6  1  6  0  0  0
 14  8  1  0  0  0  0
 15  9  2  0  0  0  0
 16 20  1  0  0  0  0
 16 17  1  0  0  0  0
 17 19  1  0  0  0  0
 18 21  2  0  0  0  0
 20 18  1  0  0  0  0
 21 19  1  0  0  0  0
 22 16  2  0  0  0  0
 23 24  1  0  0  0  0
 24  1  1  0  0  0  0
 25  8  1  0  0  0  0
 25 26  1  0  0  0  0
 27 29  1  0  0  0  0
 27 26  1  0  0  0  0
 28 34  1  0  0  0  0
 29 30  1  0  0  0  0
 30 28  1  0  0  0  0
 31 34  1  0  0  0  0
 32 31  1  0  0  0  0
 33 32  1  0  0  0  0
 33 29  1  0  0  0  0
M  END
>  <MODEL>
3

>  <REMARK>
 VINA RESULT:      -7.4      2.395      6.802
  Name = 
  6 active torsions:
  status: ('A' for Active; 'I' for Inactive)
    1  A    between atoms: C_1  and  O_19
    2  A    between atoms: C_3  and  C_13
    3  A    between atoms: C_3  and  C_17
    4  A    between atoms: C_12  and  N_28
    5  A    between atoms: C_17  and  O_29
    6  A    between atoms: C_18  and  O_29
                            x       y       z     vdW  Elec       q    Type
                         _______ _______ _______ _____ _____    ______ ____

>  <TORSDO>
F 6

$$$$
=
 OpenBabel11052418413D

 34 38  0  0  1  0  0  0  0  0999 V2000
  186.5860  177.4660  142.3590 C   0  0  0  0  0  0  0  0  0  0  0  0
  185.9660  178.1490  144.7240 C   0  0  2  0  0  3  0  0  0  0  0  0
  187.6990  176.3400  144.2170 C   0  0  0  0  0  0  0  0  0  0  0  0
  189.6900  175.4950  147.4400 C   0  0  0  0  0  1  0  0  0  0  0  0
  184.6230  178.2310  144.3540 O   0  0  0  0  0  1  0  0  0  0  0  0
  187.4660  177.3330  146.5430 C   0  0  0  0  0  2  0  0  0  0  0  0
  186.7400  177.2740  143.7490 C   0  0  0  0  0  0  0  0  0  0  0  0
  189.4390  175.7650  145.9570 C   0  0  1  0  0  0  0  0  0  0  0  0
  188.3990  175.5170  143.3060 C   0  0  0  0  0  0  0  0  0  0  0  0
  187.3200  176.6750  141.4650 C   0  0  0  0  0  3  0  0  0  0  0  0
  186.0340  177.6490  146.1640 C   0  0  0  0  0  2  0  0  0  0  0  0
  189.6430  174.4380  145.2340 C   0  0  0  0  0  2  0  0  0  0  0  0
  189.3660  174.5500  143.7930 N   0  0  0  0  0  0  0  0  0  0  0  0
  187.9650  176.1620  145.6950 C   0  0  2  0  0  3  0  0  0  0  0  0
  188.2090  175.7120  141.9330 C   0  0  0  0  0  3  0  0  0  0  0  0
  191.2550  173.2070  140.8270 C   0  0  0  0  0  0  0  0  0  0  0  0
  190.6070  171.9390  140.7160 N   0  0  0  0  0  2  0  0  0  0  0  0
  189.9820  173.5780  142.9260 C   0  0  0  0  0  0  0  0  0  0  0  0
  190.0460  171.3160  141.9100 C   0  0  0  0  0  2  0  0  0  0  0  0
  191.2200  173.9390  142.1340 C   0  0  0  0  0  2  0  0  0  0  0  0
  189.4310  172.3600  142.7970 C   0  0  0  0  0  3  0  0  0  0  0  0
  191.8560  173.7010  139.8380 O   0  0  0  0  0  0  0  0  0  0  0  0
  184.8840  178.2630  140.7410 C   0  0  0  0  0  1  0  0  0  0  0  0
  185.7120  178.4500  141.8810 O   0  0  0  0  0  0  0  0  0  0  0  0
  190.3830  176.6830  145.4190 O   0  0  0  0  0  0  0  0  0  0  0  0
  191.6960  176.2760  145.7020 C   0  0  0  0  0  2  0  0  0  0  0  0
  192.6240  176.8000  144.6210 C   0  0  0  0  0  2  0  0  0  0  0  0
  195.7730  175.0250  145.7750 C   0  0  0  0  0  2  0  0  0  0  0  0
  193.7800  175.8410  144.4100 C   0  0  0  0  0  3  0  0  0  0  0  0
  194.9280  176.2240  145.3380 C   0  0  0  0  0  2  0  0  0  0  0  0
  196.3700  174.6140  143.3310 C   0  0  0  0  0  2  0  0  0  0  0  0
  195.0820  174.7570  142.5290 C   0  0  0  0  0  2  0  0  0  0  0  0
  194.2570  175.9630  142.9680 C   0  0  0  0  0  2  0  0  0  0  0  0
  196.0630  173.9890  144.6840 C   0  0  0  0  0  2  0  0  0  0  0  0
  1  7  1  0  0  0  0
  2  5  1  6  0  0  0
  2 11  1  0  0  0  0
  3 14  1  0  0  0  0
  7  3  2  0  0  0  0
  7  2  1  0  0  0  0
  8  4  1  1  0  0  0
  9 13  1  0  0  0  0
  9  3  1  0  0  0  0
 10 15  1  0  0  0  0
 10  1  2  0  0  0  0
 11  6  1  0  0  0  0
 12  8  1  0  0  0  0
 13 12  1  0  0  0  0
 14  8  1  0  0  0  0
 14  6  1  1  0  0  0
 15  9  2  0  0  0  0
 16 20  1  0  0  0  0
 17 16  1  0  0  0  0
 17 19  1  0  0  0  0
 18 13  1  0  0  0  0
 19 21  1  0  0  0  0
 20 18  1  0  0  0  0
 21 18  2  0  0  0  0
 22 16  2  0  0  0  0
 23 24  1  0  0  0  0
 24  1  1  0  0  0  0
 25 26  1  0  0  0  0
 25  8  1  0  0  0  0
 27 26  1  0  0  0  0
 29 27  1  0  0  0  0
 29 30  1  0  0  0  0
 30 28  1  0  0  0  0
 31 34  1  0  0  0  0
 32 33  1  0  0  0  0
 32 31  1  0  0  0  0
 33 29  1  0  0  0  0
 34 28  1  0  0  0  0
M  END
>  <MODEL>
4

>  <REMARK>
 VINA RESULT:      -7.3      1.120      1.604
  Name = 
  6 active torsions:
  status: ('A' for Active; 'I' for Inactive)
    1  A    between atoms: C_1  and  O_19
    2  A    between atoms: C_3  and  C_13
    3  A    between atoms: C_3  and  C_17
    4  A    between atoms: C_12  and  N_28
    5  A    between atoms: C_17  and  O_29
    6  A    between atoms: C_18  and  O_29
                            x       y       z     vdW  Elec       q    Type
                         _______ _______ _______ _____ _____    ______ ____

>  <TORSDO>
F 6

$$$$
=
 OpenBabel11052418413D

 34 38  0  0  1  0  0  0  0  0999 V2000
  194.7550  170.5440  145.2840 C   0  0  0  0  0  0  0  0  0  0  0  0
  196.4250  172.2950  146.0500 C   0  0  2  0  0  3  0  0  0  0  0  0
  194.2220  172.8950  144.9030 C   0  0  0  0  0  0  0  0  0  0  0  0
  193.5400  176.6970  145.2870 C   0  0  0  0  0  1  0  0  0  0  0  0
  197.4780  171.4940  145.6050 O   0  0  0  0  0  1  0  0  0  0  0  0
  195.6200  174.6560  146.0840 C   0  0  0  0  0  2  0  0  0  0  0  0
  195.1250  171.9040  145.3650 C   0  0  0  0  0  0  0  0  0  0  0  0
  193.2380  175.1990  145.2320 C   0  0  1  0  0  0  0  0  0  0  0  0
  193.0260  172.5240  144.2500 C   0  0  0  0  0  0  0  0  0  0  0  0
  193.5440  170.1910  144.6750 C   0  0  0  0  0  3  0  0  0  0  0  0
  196.8090  173.7540  145.8240 C   0  0  0  0  0  2  0  0  0  0  0  0
  192.4180  174.9690  143.9680 C   0  0  0  0  0  2  0  0  0  0  0  0
  192.1150  173.5440  143.7620 N   0  0  0  0  0  0  0  0  0  0  0  0
  194.5320  174.3690  145.0480 C   0  0  2  0  0  3  0  0  0  0  0  0
  192.6950  171.1660  144.1620 C   0  0  0  0  0  3  0  0  0  0  0  0
  189.9210  173.4160  140.7070 C   0  0  0  0  0  0  0  0  0  0  0  0
  188.6480  173.4130  141.3560 N   0  0  0  0  0  2  0  0  0  0  0  0
  190.9700  173.2240  142.9490 C   0  0  0  0  0  0  0  0  0  0  0  0
  188.5300  172.8500  142.6960 C   0  0  0  0  0  2  0  0  0  0  0  0
  191.1340  172.9720  141.4660 C   0  0  0  0  0  2  0  0  0  0  0  0
  189.7480  173.1860  143.5070 C   0  0  0  0  0  3  0  0  0  0  0  0
  190.0200  173.7790  139.5060 O   0  0  0  0  0  0  0  0  0  0  0  0
  195.1490  168.6060  146.7800 C   0  0  0  0  0  1  0  0  0  0  0  0
  195.5920  169.5580  145.8220 O   0  0  0  0  0  0  0  0  0  0  0  0
  192.4400  174.7790  146.3310 O   0  0  0  0  0  0  0  0  0  0  0  0
  191.6100  175.8210  146.7760 C   0  0  0  0  0  2  0  0  0  0  0  0
  190.2050  175.2860  146.9780 C   0  0  0  0  0  2  0  0  0  0  0  0
  189.3960  177.6440  144.1160 C   0  0  0  0  0  2  0  0  0  0  0  0
  189.2320  176.0060  146.0640 C   0  0  0  0  0  3  0  0  0  0  0  0
  189.8940  177.2650  145.5130 C   0  0  0  0  0  2  0  0  0  0  0  0
  187.0510  177.9170  145.0780 C   0  0  0  0  0  2  0  0  0  0  0  0
  186.8050  176.7240  145.9940 C   0  0  0  0  0  2  0  0  0  0  0  0
  188.0100  176.4140  146.8770 C   0  0  0  0  0  2  0  0  0  0  0  0
  187.8910  177.4800  143.8850 C   0  0  0  0  0  2  0  0  0  0  0  0
  1  7  1  0  0  0  0
  1 24  1  0  0  0  0
  2  5  1  6  0  0  0
  3 14  1  0  0  0  0
  3  7  2  0  0  0  0
  7  2  1  0  0  0  0
  8  4  1  1  0  0  0
  8 25  1  0  0  0  0
  9  3  1  0  0  0  0
 10  1  2  0  0  0  0
 11  2  1  0  0  0  0
 11  6  1  0  0  0  0
 12  8  1  0  0  0  0
 13 12  1  0  0  0  0
 13  9  1  0  0  0  0
 14  8  1  0  0  0  0
 14  6  1  1  0  0  0
 15  9  2  0  0  0  0
 15 10  1  0  0  0  0
 16 17  1  0  0  0  0
 16 20  1  0  0  0  0
 17 19  1  0  0  0  0
 18 21  2  0  0  0  0
 18 13  1  0  0  0  0
 19 21  1  0  0  0  0
 20 18  1  0  0  0  0
 22 16  2  0  0  0  0
 24 23  1  0  0  0  0
 25 26  1  0  0  0  0
 26 27  1  0  0  0  0
 28 30  1  0  0  0  0
 29 33  1  0  0  0  0
 29 27  1  0  0  0  0
 30 29  1  0  0  0  0
 31 32  1  0  0  0  0
 32 33  1  0  0  0  0
 34 28  1  0  0  0  0
 34 31  1  0  0  0  0
M  END
>  <MODEL>
5

>  <REMARK>
 VINA RESULT:      -7.3      2.624      7.737
  Name = 
  6 active torsions:
  status: ('A' for Active; 'I' for Inactive)
    1  A    between atoms: C_1  and  O_19
    2  A    between atoms: C_3  and  C_13
    3  A    between atoms: C_3  and  C_17
    4  A    between atoms: C_12  and  N_28
    5  A    between atoms: C_17  and  O_29
    6  A    between atoms: C_18  and  O_29
                            x       y       z     vdW  Elec       q    Type
                         _______ _______ _______ _____ _____    ______ ____

>  <TORSDO>
F 6

$$$$
=
 OpenBabel11052418413D

 34 38  0  0  1  0  0  0  0  0999 V2000
  193.7880  175.4090  141.3350 C   0  0  0  0  0  0  0  0  0  0  0  0
  192.7390  173.9470  139.5430 C   0  0  2  0  0  3  0  0  0  0  0  0
  191.6180  174.3920  141.7960 C   0  0  0  0  0  0  0  0  0  0  0  0
  187.9160  173.2280  141.6670 C   0  0  0  0  0  1  0  0  0  0  0  0
  193.9880  173.3920  139.2580 O   0  0  0  0  0  1  0  0  0  0  0  0
  190.3390  173.3490  139.8650 C   0  0  0  0  0  2  0  0  0  0  0  0
  192.7300  174.5640  140.9330 C   0  0  0  0  0  0  0  0  0  0  0  0
  189.1160  174.1110  142.0140 C   0  0  1  0  0  0  0  0  0  0  0  0
  191.6250  174.9510  143.0930 C   0  0  0  0  0  0  0  0  0  0  0  0
  193.7620  175.9950  142.6070 C   0  0  0  0  0  3  0  0  0  0  0  0
  191.6820  172.8630  139.3590 C   0  0  0  0  0  2  0  0  0  0  0  0
  189.3160  173.9960  143.5210 C   0  0  0  0  0  2  0  0  0  0  0  0
  190.4910  174.7550  143.9780 N   0  0  0  0  0  0  0  0  0  0  0  0
  190.4190  173.5690  141.3760 C   0  0  2  0  0  3  0  0  0  0  0  0
  192.6990  175.7650  143.4740 C   0  0  0  0  0  3  0  0  0  0  0  0
  189.8120  176.8710  147.0160 C   0  0  0  0  0  0  0  0  0  0  0  0
  191.0000  176.5760  147.7530 N   0  0  0  0  0  2  0  0  0  0  0  0
  190.5170  175.1610  145.3600 C   0  0  0  0  0  0  0  0  0  0  0  0
  191.6620  175.2910  147.5560 C   0  0  0  0  0  2  0  0  0  0  0  0
  189.3500  175.9200  145.9540 C   0  0  0  0  0  2  0  0  0  0  0  0
  191.5980  174.8920  146.1110 C   0  0  0  0  0  3  0  0  0  0  0  0
  189.1560  177.9160  147.2620 O   0  0  0  0  0  0  0  0  0  0  0  0
  196.1760  175.9140  140.9000 C   0  0  0  0  0  1  0  0  0  0  0  0
  194.8490  175.6650  140.4570 O   0  0  0  0  0  0  0  0  0  0  0  0
  188.8650  175.4810  141.7290 O   0  0  0  0  0  0  0  0  0  0  0  0
  187.7670  175.9540  142.4640 C   0  0  0  0  0  2  0  0  0  0  0  0
  187.9490  177.4370  142.7320 C   0  0  0  0  0  2  0  0  0  0  0  0
  185.7070  176.8240  145.7330 C   0  0  0  0  0  2  0  0  0  0  0  0
  186.9780  177.9000  143.8010 C   0  0  0  0  0  3  0  0  0  0  0  0
  186.1380  176.7150  144.2670 C   0  0  0  0  0  2  0  0  0  0  0  0
  184.4430  178.9610  145.1540 C   0  0  0  0  0  2  0  0  0  0  0  0
  185.3600  179.7910  144.2630 C   0  0  0  0  0  2  0  0  0  0  0  0
  186.0510  178.9470  143.1970 C   0  0  0  0  0  2  0  0  0  0  0  0
  185.2740  178.2200  146.1920 C   0  0  0  0  0  2  0  0  0  0  0  0
  1 10  1  0  0  0  0
  2  5  1  1  0  0  0
  2  7  1  0  0  0  0
  3  9  2  0  0  0  0
  7  1  2  0  0  0  0
  7  3  1  0  0  0  0
  8  4  1  6  0  0  0
  8 12  1  0  0  0  0
  9 15  1  0  0  0  0
  9 13  1  0  0  0  0
 10 15  2  0  0  0  0
 11  2  1  0  0  0  0
 11  6  1  0  0  0  0
 12 13  1  0  0  0  0
 13 18  1  0  0  0  0
 14  6  1  6  0  0  0
 14  3  1  0  0  0  0
 14  8  1  0  0  0  0
 16 22  2  0  0  0  0
 16 17  1  0  0  0  0
 18 20  1  0  0  0  0
 18 21  2  0  0  0  0
 19 17  1  0  0  0  0
 20 16  1  0  0  0  0
 21 19  1  0  0  0  0
 24 23  1  0  0  0  0
 24  1  1  0  0  0  0
 25  8  1  0  0  0  0
 25 26  1  0  0  0  0
 26 27  1  0  0  0  0
 27 29  1  0  0  0  0
 28 34  1  0  0  0  0
 29 30  1  0  0  0  0
 30 28  1  0  0  0  0
 31 34  1  0  0  0  0
 32 31  1  0  0  0  0
 33 29  1  0  0  0  0
 33 32  1  0  0  0  0
M  END
>  <MODEL>
6

>  <REMARK>
 VINA RESULT:      -7.0      2.518      7.615
  Name = 
  6 active torsions:
  status: ('A' for Active; 'I' for Inactive)
    1  A    between atoms: C_1  and  O_19
    2  A    between atoms: C_3  and  C_13
    3  A    between atoms: C_3  and  C_17
    4  A    between atoms: C_12  and  N_28
    5  A    between atoms: C_17  and  O_29
    6  A    between atoms: C_18  and  O_29
                            x       y       z     vdW  Elec       q    Type
                         _______ _______ _______ _____ _____    ______ ____

>  <TORSDO>
F 6

$$$$
=
 OpenBabel11052418413D

 34 38  0  0  1  0  0  0  0  0999 V2000
  189.5800  173.0540  141.6260 C   0  0  0  0  0  0  0  0  0  0  0  0
  191.9850  173.8690  141.5970 C   0  0  2  0  0  3  0  0  0  0  0  0
  190.0450  175.3160  142.4180 C   0  0  0  0  0  0  0  0  0  0  0  0
  191.4300  178.4290  144.2780 C   0  0  0  0  0  1  0  0  0  0  0  0
  192.1840  173.2560  140.3590 O   0  0  0  0  0  1  0  0  0  0  0  0
  192.4590  175.9680  142.8590 C   0  0  0  0  0  2  0  0  0  0  0  0
  190.5030  174.0990  141.8510 C   0  0  0  0  0  0  0  0  0  0  0  0
  190.5100  177.2440  143.9840 C   0  0  1  0  0  0  0  0  0  0  0  0
  188.6650  175.5300  142.6330 C   0  0  0  0  0  0  0  0  0  0  0  0
  188.2200  173.2630  141.8860 C   0  0  0  0  0  3  0  0  0  0  0  0
  192.8070  175.1540  141.6290 C   0  0  0  0  0  2  0  0  0  0  0  0
  189.1650  177.8320  143.5710 C   0  0  0  0  0  2  0  0  0  0  0  0
  188.2010  176.7850  143.1960 N   0  0  0  0  0  0  0  0  0  0  0  0
  191.0060  176.4330  142.7620 C   0  0  2  0  0  3  0  0  0  0  0  0
  187.7700  174.4850  142.3770 C   0  0  0  0  0  3  0  0  0  0  0  0
  184.8580  178.1470  142.1300 C   0  0  0  0  0  0  0  0  0  0  0  0
  184.3620  178.5290  143.4140 N   0  0  0  0  0  2  0  0  0  0  0  0
  186.8020  177.1170  143.2810 C   0  0  0  0  0  0  0  0  0  0  0  0
  184.8180  177.8100  144.5990 C   0  0  0  0  0  2  0  0  0  0  0  0
  185.9400  177.1150  142.0370 C   0  0  0  0  0  2  0  0  0  0  0  0
  186.2720  177.4640  144.4660 C   0  0  0  0  0  3  0  0  0  0  0  0
  184.3830  178.6660  141.0870 O   0  0  0  0  0  0  0  0  0  0  0  0
  190.4400  170.7620  142.0200 C   0  0  0  0  0  1  0  0  0  0  0  0
  190.0300  171.8140  141.1560 O   0  0  0  0  0  0  0  0  0  0  0  0
  190.2810  176.4510  145.1420 O   0  0  0  0  0  0  0  0  0  0  0  0
  191.1610  176.8080  146.1760 C   0  0  0  0  0  2  0  0  0  0  0  0
  191.4620  175.5830  147.0200 C   0  0  0  0  0  2  0  0  0  0  0  0
  195.1260  175.4810  146.0360 C   0  0  0  0  0  2  0  0  0  0  0  0
  192.6920  174.8710  146.4920 C   0  0  0  0  0  3  0  0  0  0  0  0
  193.6580  175.8970  145.9080 C   0  0  0  0  0  2  0  0  0  0  0  0
  194.6240  173.4390  144.5950 C   0  0  0  0  0  2  0  0  0  0  0  0
  193.3150  172.8470  145.1040 C   0  0  0  0  0  2  0  0  0  0  0  0
  192.2650  173.9180  145.3820 C   0  0  0  0  0  2  0  0  0  0  0  0
  195.4190  174.0020  145.7650 C   0  0  0  0  0  2  0  0  0  0  0  0
  1  7  2  0  0  0  0
  1 10  1  0  0  0  0
  2  5  1  6  0  0  0
  2 11  1  0  0  0  0
  2  7  1  0  0  0  0
  3  9  2  0  0  0  0
  3 14  1  0  0  0  0
  7  3  1  0  0  0  0
  8  4  1  1  0  0  0
  8 25  1  0  0  0  0
  9 13  1  0  0  0  0
 10 15  2  0  0  0  0
 11  6  1  0  0  0  0
 12  8  1  0  0  0  0
 13 18  1  0  0  0  0
 13 12  1  0  0  0  0
 14  6  1  1  0  0  0
 14  8  1  0  0  0  0
 15  9  1  0  0  0  0
 16 17  1  0  0  0  0
 17 19  1  0  0  0  0
 18 21  2  0  0  0  0
 20 16  1  0  0  0  0
 20 18  1  0  0  0  0
 21 19  1  0  0  0  0
 22 16  2  0  0  0  0
 24  1  1  0  0  0  0
 24 23  1  0  0  0  0
 25 26  1  0  0  0  0
 26 27  1  0  0  0  0
 29 27  1  0  0  0  0
 30 28  1  0  0  0  0
 30 29  1  0  0  0  0
 31 32  1  0  0  0  0
 31 34  1  0  0  0  0
 32 33  1  0  0  0  0
 33 29  1  0  0  0  0
 34 28  1  0  0  0  0
M  END
>  <MODEL>
7

>  <REMARK>
 VINA RESULT:      -7.0      1.855      5.704
  Name = 
  6 active torsions:
  status: ('A' for Active; 'I' for Inactive)
    1  A    between atoms: C_1  and  O_19
    2  A    between atoms: C_3  and  C_13
    3  A    between atoms: C_3  and  C_17
    4  A    between atoms: C_12  and  N_28
    5  A    between atoms: C_17  and  O_29
    6  A    between atoms: C_18  and  O_29
                            x       y       z     vdW  Elec       q    Type
                         _______ _______ _______ _____ _____    ______ ____

>  <TORSDO>
F 6

$$$$
=
 OpenBabel11052418413D

 34 38  0  0  1  0  0  0  0  0999 V2000
  186.6270  178.2180  145.6450 C   0  0  0  0  0  0  0  0  0  0  0  0
  185.5530  178.2030  143.3450 C   0  0  2  0  0  3  0  0  0  0  0  0
  187.8620  177.2080  143.7980 C   0  0  0  0  0  0  0  0  0  0  0  0
  188.9820  175.0630  140.7620 C   0  0  0  0  0  1  0  0  0  0  0  0
  185.0800  179.5000  143.5510 O   0  0  0  0  0  1  0  0  0  0  0  0
  186.6250  176.7420  141.6300 C   0  0  0  0  0  2  0  0  0  0  0  0
  186.7200  177.9030  144.2720 C   0  0  0  0  0  0  0  0  0  0  0  0
  188.7920  175.4610  142.2260 C   0  0  1  0  0  0  0  0  0  0  0  0
  188.9520  176.9500  144.6600 C   0  0  0  0  0  0  0  0  0  0  0  0
  187.6950  177.9160  146.4990 C   0  0  0  0  0  3  0  0  0  0  0  0
  185.9040  178.0530  141.8680 C   0  0  0  0  0  2  0  0  0  0  0  0
  190.1780  175.7900  142.7680 C   0  0  0  0  0  2  0  0  0  0  0  0
  190.1250  176.2540  144.1640 N   0  0  0  0  0  0  0  0  0  0  0  0
  187.9710  176.7680  142.3540 C   0  0  2  0  0  3  0  0  0  0  0  0
  188.8420  177.2960  146.0120 C   0  0  0  0  0  3  0  0  0  0  0  0
  193.8010  176.2750  144.9750 C   0  0  0  0  0  0  0  0  0  0  0  0
  193.8100  175.2360  145.9550 N   0  0  0  0  0  2  0  0  0  0  0  0
  191.3240  176.1130  144.9510 C   0  0  0  0  0  0  0  0  0  0  0  0
  192.6120  174.9920  146.7500 C   0  0  0  0  0  2  0  0  0  0  0  0
  192.5220  176.9980  144.6820 C   0  0  0  0  0  2  0  0  0  0  0  0
  191.3850  175.1670  145.9030 C   0  0  0  0  0  3  0  0  0  0  0  0
  194.8600  176.5850  144.3690 O   0  0  0  0  0  0  0  0  0  0  0  0
  184.4460  178.0900  146.8160 C   0  0  0  0  0  1  0  0  0  0  0  0
  185.4660  178.8180  146.1470 O   0  0  0  0  0  0  0  0  0  0  0  0
  188.2830  174.3860  143.0050 O   0  0  0  0  0  0  0  0  0  0  0  0
  188.5870  173.1500  142.4130 C   0  0  0  0  0  2  0  0  0  0  0  0
  189.3160  172.2810  143.4210 C   0  0  0  0  0  2  0  0  0  0  0  0
  192.4880  173.2060  141.5530 C   0  0  0  0  0  2  0  0  0  0  0  0
  190.8090  172.5380  143.3530 C   0  0  0  0  0  3  0  0  0  0  0  0
  191.2940  172.3220  141.9230 C   0  0  0  0  0  2  0  0  0  0  0  0
  193.8370  172.0750  143.3970 C   0  0  0  0  0  2  0  0  0  0  0  0
  192.9310  171.9880  144.6200 C   0  0  0  0  0  2  0  0  0  0  0  0
  191.5170  171.5410  144.2630 C   0  0  0  0  0  2  0  0  0  0  0  0
  193.5530  173.3660  142.6430 C   0  0  0  0  0  2  0  0  0  0  0  0
  1 24  1  0  0  0  0
  1 10  1  0  0  0  0
  2  5  1  6  0  0  0
  2  7  1  0  0  0  0
  3  7  1  0  0  0  0
  3  9  2  0  0  0  0
  6 11  1  0  0  0  0
  7  1  2  0  0  0  0
  8  4  1  6  0  0  0
  8 14  1  0  0  0  0
  8 12  1  0  0  0  0
  8 25  1  0  0  0  0
  9 15  1  0  0  0  0
 11  2  1  0  0  0  0
 12 13  1  0  0  0  0
 13  9  1  0  0  0  0
 13 18  1  0  0  0  0
 14  6  1  1  0  0  0
 14  3  1  0  0  0  0
 15 10  2  0  0  0  0
 16 17  1  0  0  0  0
 17 19  1  0  0  0  0
 18 21  2  0  0  0  0
 20 18  1  0  0  0  0
 20 16  1  0  0  0  0
 21 19  1  0  0  0  0
 22 16  2  0  0  0  0
 24 23  1  0  0  0  0
 26 25  1  0  0  0  0
 26 27  1  0  0  0  0
 28 30  1  0  0  0  0
 28 34  1  0  0  0  0
 29 27  1  0  0  0  0
 29 33  1  0  0  0  0
 30 29  1  0  0  0  0
 31 32  1  0  0  0  0
 33 32  1  0  0  0  0
 34 31  1  0  0  0  0
M  END
>  <MODEL>
8

>  <REMARK>
 VINA RESULT:      -6.9      2.033      4.521
  Name = 
  6 active torsions:
  status: ('A' for Active; 'I' for Inactive)
    1  A    between atoms: C_1  and  O_19
    2  A    between atoms: C_3  and  C_13
    3  A    between atoms: C_3  and  C_17
    4  A    between atoms: C_12  and  N_28
    5  A    between atoms: C_17  and  O_29
    6  A    between atoms: C_18  and  O_29
                            x       y       z     vdW  Elec       q    Type
                         _______ _______ _______ _____ _____    ______ ____

>  <TORSDO>
F 6

$$$$
=
 OpenBabel11052418413D

 34 38  0  0  1  0  0  0  0  0999 V2000
  191.3040  172.9310  141.3830 C   0  0  0  0  0  0  0  0  0  0  0  0
  189.6570  172.5740  143.2800 C   0  0  2  0  0  3  0  0  0  0  0  0
  191.8870  173.7800  143.5960 C   0  0  0  0  0  0  0  0  0  0  0  0
  191.9230  175.5900  147.0300 C   0  0  0  0  0  1  0  0  0  0  0  0
  189.3930  171.2850  142.8160 O   0  0  0  0  0  1  0  0  0  0  0  0
  190.0720  173.8750  145.3690 C   0  0  0  0  0  2  0  0  0  0  0  0
  190.9930  173.0730  142.7520 C   0  0  0  0  0  0  0  0  0  0  0  0
  192.1760  175.3710  145.5380 C   0  0  1  0  0  0  0  0  0  0  0  0
  193.1350  174.2230  143.1030 C   0  0  0  0  0  0  0  0  0  0  0  0
  192.5260  173.4150  140.8960 C   0  0  0  0  0  3  0  0  0  0  0  0
  189.5810  172.5570  144.8040 C   0  0  0  0  0  2  0  0  0  0  0  0
  193.6830  175.2130  145.3720 C   0  0  0  0  0  2  0  0  0  0  0  0
  194.0550  174.9300  143.9770 N   0  0  0  0  0  0  0  0  0  0  0  0
  191.5590  174.0370  145.0500 C   0  0  2  0  0  3  0  0  0  0  0  0
  193.4290  174.0470  141.7460 C   0  0  0  0  0  3  0  0  0  0  0  0
  196.8660  176.0020  141.7160 C   0  0  0  0  0  0  0  0  0  0  0  0
  197.9190  175.2380  142.3060 N   0  0  0  0  0  2  0  0  0  0  0  0
  195.3990  175.2550  143.5740 C   0  0  0  0  0  0  0  0  0  0  0  0
  197.8490  174.8980  143.7220 C   0  0  0  0  0  2  0  0  0  0  0  0
  195.6450  176.3170  142.5250 C   0  0  0  0  0  2  0  0  0  0  0  0
  196.4330  174.5850  144.1100 C   0  0  0  0  0  3  0  0  0  0  0  0
  196.9680  176.4140  140.5310 O   0  0  0  0  0  0  0  0  0  0  0  0
  190.7740  171.3820  139.5210 C   0  0  0  0  0  1  0  0  0  0  0  0
  190.3890  172.3200  140.5170 O   0  0  0  0  0  0  0  0  0  0  0  0
  191.7860  176.4980  144.7640 O   0  0  0  0  0  0  0  0  0  0  0  0
  190.7050  177.1670  145.3600 C   0  0  0  0  0  2  0  0  0  0  0  0
  189.6650  177.4770  144.3000 C   0  0  0  0  0  2  0  0  0  0  0  0
  187.3310  177.6520  147.2880 C   0  0  0  0  0  2  0  0  0  0  0  0
  188.2850  177.5570  144.9240 C   0  0  0  0  0  3  0  0  0  0  0  0
  188.3390  176.9950  146.3420 C   0  0  0  0  0  2  0  0  0  0  0  0
  185.4470  176.8010  145.7950 C   0  0  0  0  0  2  0  0  0  0  0  0
  185.8670  177.0690  144.3550 C   0  0  0  0  0  2  0  0  0  0  0  0
  187.3270  176.7060  144.0990 C   0  0  0  0  0  2  0  0  0  0  0  0
  185.9470  177.9270  146.6900 C   0  0  0  0  0  2  0  0  0  0  0  0
  1  7  1  0  0  0  0
  2  5  1  1  0  0  0
  2 11  1  0  0  0  0
  3 14  1  0  0  0  0
  7  2  1  0  0  0  0
  7  3  2  0  0  0  0
  8  4  1  1  0  0  0
  9  3  1  0  0  0  0
  9 13  1  0  0  0  0
 10  1  2  0  0  0  0
 10 15  1  0  0  0  0
 11  6  1  0  0  0  0
 12  8  1  0  0  0  0
 13 12  1  0  0  0  0
 14  6  1  6  0  0  0
 14  8  1  0  0  0  0
 15  9  2  0  0  0  0
 16 17  1  0  0  0  0
 16 20  1  0  0  0  0
 17 19  1  0  0  0  0
 18 13  1  0  0  0  0
 18 21  2  0  0  0  0
 19 21  1  0  0  0  0
 20 18  1  0  0  0  0
 22 16  2  0  0  0  0
 23 24  1  0  0  0  0
 24  1  1  0  0  0  0
 25 26  1  0  0  0  0
 25  8  1  0  0  0  0
 27 29  1  0  0  0  0
 27 26  1  0  0  0  0
 29 30  1  0  0  0  0
 30 28  1  0  0  0  0
 31 34  1  0  0  0  0
 32 31  1  0  0  0  0
 33 32  1  0  0  0  0
 33 29  1  0  0  0  0
 34 28  1  0  0  0  0
M  END
>  <MODEL>
9

>  <REMARK>
 VINA RESULT:      -6.8      2.643      6.552
  Name = 
  6 active torsions:
  status: ('A' for Active; 'I' for Inactive)
    1  A    between atoms: C_1  and  O_19
    2  A    between atoms: C_3  and  C_13
    3  A    between atoms: C_3  and  C_17
    4  A    between atoms: C_12  and  N_28
    5  A    between atoms: C_17  and  O_29
    6  A    between atoms: C_18  and  O_29
                            x       y       z     vdW  Elec       q    Type
                         _______ _______ _______ _____ _____    ______ ____

>  <TORSDO>
F 6

$$$$
