=
 OpenBabel11052419073D

 32 35  0  0  1  0  0  0  0  0999 V2000
  191.0050  175.6340  144.2360 C   0  0  1  0  0  3  0  0  0  0  0  0
  193.2330  174.9890  146.5170 C   0  0  0  0  0  3  0  0  0  0  0  0
  192.4590  171.7400  142.2010 C   0  0  0  0  0  2  0  0  0  0  0  0
  192.3410  174.8610  144.1770 C   0  0  1  0  0  3  0  0  0  0  0  0
  193.1370  170.8340  144.2740 O   0  0  0  0  0  0  0  0  0  0  0  0
  192.7710  172.1430  144.4650 C   0  0  0  0  0  0  0  0  0  0  0  0
  192.8330  174.2490  145.4810 C   0  0  0  0  0  0  0  0  0  0  0  0
  193.0810  172.8400  145.5100 N   0  0  0  0  0  0  0  0  0  0  0  0
  192.0780  172.7250  143.2990 C   0  0  1  0  0  3  0  0  0  0  0  0
  192.8550  170.4460  142.9380 C   0  0  0  0  0  2  0  0  0  0  0  0
  192.5270  174.0380  143.0280 O   0  0  0  0  0  0  0  0  0  0  0  0
  193.1830  176.4840  146.5510 C   0  0  0  0  0  2  0  0  0  0  0  0
  194.4730  177.0110  146.5460 O   0  0  0  0  0  1  0  0  0  0  0  0
  191.0520  177.0970  143.1950 S   0  0  0  0  0  0  0  0  0  0  0  0
  190.7970  178.5420  144.1990 C   0  0  0  0  0  1  0  0  0  0  0  0
  189.9730  177.0400  142.1530 O   0  0  0  0  0  0  0  0  0  0  0  0
  192.3900  177.2050  142.5200 O   0  0  0  0  0  0  0  0  0  0  0  0
  189.7300  173.7400  145.1150 O   0  0  0  0  0  1  0  0  0  0  0  0
  189.6460  174.8670  144.2880 C   0  0  1  0  0  0  0  0  0  0  0  0
  187.7380  177.1400  146.7350 C   0  0  0  0  0  3  0  0  0  0  0  0
  186.6000  177.1700  144.6050 C   0  0  0  0  0  3  0  0  0  0  0  0
  188.6040  175.8040  144.8850 C   0  0  0  0  0  0  0  0  0  0  0  0
  186.6790  177.5880  145.9370 C   0  0  0  0  0  0  0  0  0  0  0  0
  187.5500  176.2870  144.0890 C   0  0  0  0  0  3  0  0  0  0  0  0
  188.6920  176.2540  146.2240 C   0  0  0  0  0  0  0  0  0  0  0  0
  189.7190  175.8320  147.0610 O   0  0  0  0  0  1  0  0  0  0  0  0
  185.6910  178.5760  146.4790 C   0  0  0  0  0  3  0  0  0  0  0  0
  184.3380  177.9150  146.6880 C   0  0  0  0  0  2  0  0  0  0  0  0
  184.5630  178.7990  145.4840 C   0  0  0  0  0  2  0  0  0  0  0  0
  189.2060  174.4530  142.9420 N   0  0  0  0  0  2  0  0  0  0  0  0
  188.8070  173.0530  142.9050 C   0  0  0  0  0  2  0  0  0  0  0  0
  187.7850  172.8490  141.8070 C   0  0  0  0  0  1  0  0  0  0  0  0
  1 14  1  6  0  0  0
  1 19  1  0  0  0  0
  2 12  1  0  0  0  0
  3 10  1  0  0  0  0
  4  1  1  1  0  0  0
  4  7  1  0  0  0  0
  5  6  1  0  0  0  0
  6  8  2  0  0  0  0
  7  8  1  0  0  0  0
  7  2  2  0  0  0  0
  9  3  1  6  0  0  0
  9  6  1  0  0  0  0
 10  5  1  0  0  0  0
 11  9  1  0  0  0  0
 11  4  1  0  0  0  0
 13 12  1  0  0  0  0
 14 15  1  0  0  0  0
 16 14  2  0  0  0  0
 17 14  2  0  0  0  0
 19 22  1  0  0  0  0
 19 18  1  1  0  0  0
 21 23  1  0  0  0  0
 22 25  2  0  0  0  0
 23 27  1  0  0  0  0
 23 20  2  0  0  0  0
 24 21  2  0  0  0  0
 24 22  1  0  0  0  0
 25 20  1  0  0  0  0
 25 26  1  0  0  0  0
 27 28  1  0  0  0  0
 29 27  1  0  0  0  0
 29 28  1  0  0  0  0
 30 19  1  0  0  0  0
 31 30  1  0  0  0  0
 32 31  1  0  0  0  0
M  END
>  <MODEL>
1

>  <REMARK>
 VINA RESULT:      -6.3      0.000      0.000
  Name = 
  8 active torsions:
  status: ('A' for Active; 'I' for Inactive)
    1  A    between atoms: N_1  and  C_4
    2  A    between atoms: N_1  and  C_27
    3  A    between atoms: S_2  and  C_5
    4  A    between atoms: C_5  and  C_10
    5  A    between atoms: C_5  and  C_27
    6  A    between atoms: C_6  and  C_25
    7  A    between atoms: C_7  and  C_19
    8  A    between atoms: C_16  and  C_27
                            x       y       z     vdW  Elec       q    Type
                         _______ _______ _______ _____ _____    ______ ____

>  <TORSDO>
F 8

$$$$
=
 OpenBabel11052419073D

 32 35  0  0  1  0  0  0  0  0999 V2000
  190.6310  175.2810  143.3660 C   0  0  1  0  0  3  0  0  0  0  0  0
  192.0330  172.5390  144.4140 C   0  0  0  0  0  3  0  0  0  0  0  0
  190.3570  173.1680  139.2580 C   0  0  0  0  0  2  0  0  0  0  0  0
  191.4590  174.2060  142.6300 C   0  0  1  0  0  3  0  0  0  0  0  0
  190.2980  171.0420  140.2840 O   0  0  0  0  0  0  0  0  0  0  0  0
  190.5550  171.9870  141.2460 C   0  0  0  0  0  0  0  0  0  0  0  0
  191.4600  172.8100  143.2390 C   0  0  0  0  0  0  0  0  0  0  0  0
  191.0270  171.7200  142.4200 N   0  0  0  0  0  0  0  0  0  0  0  0
  190.3470  173.3680  140.7680 C   0  0  1  0  0  3  0  0  0  0  0  0
  190.0260  171.6790  139.0450 C   0  0  0  0  0  2  0  0  0  0  0  0
  191.3770  174.2310  141.2060 O   0  0  0  0  0  0  0  0  0  0  0  0
  192.6720  173.5660  145.2940 C   0  0  0  0  0  2  0  0  0  0  0  0
  194.0420  173.6270  145.0490 O   0  0  0  0  0  1  0  0  0  0  0  0
  191.5910  176.7770  143.6250 S   0  0  0  0  0  0  0  0  0  0  0  0
  193.2560  176.5130  143.0620 C   0  0  0  0  0  1  0  0  0  0  0  0
  191.6290  177.1360  145.0830 O   0  0  0  0  0  0  0  0  0  0  0  0
  190.9910  177.9150  142.8490 O   0  0  0  0  0  0  0  0  0  0  0  0
  188.4770  174.2520  142.8320 O   0  0  0  0  0  1  0  0  0  0  0  0
  189.1170  175.4810  143.0380 C   0  0  1  0  0  0  0  0  0  0  0  0
  188.0100  176.2730  146.6350 C   0  0  0  0  0  3  0  0  0  0  0  0
  187.1700  177.9990  145.1700 C   0  0  0  0  0  3  0  0  0  0  0  0
  188.4640  176.1490  144.2410 C   0  0  0  0  0  0  0  0  0  0  0  0
  187.2810  177.4530  146.4530 C   0  0  0  0  0  0  0  0  0  0  0  0
  187.7530  177.3520  144.0800 C   0  0  0  0  0  3  0  0  0  0  0  0
  188.5940  175.6190  145.5460 C   0  0  0  0  0  0  0  0  0  0  0  0
  189.3000  174.4440  145.7790 O   0  0  0  0  0  1  0  0  0  0  0  0
  186.7010  178.1730  147.6330 C   0  0  0  0  0  3  0  0  0  0  0  0
  185.1850  178.0650  147.6290 C   0  0  0  0  0  2  0  0  0  0  0  0
  185.8480  179.3440  147.1740 C   0  0  0  0  0  2  0  0  0  0  0  0
  188.9290  176.3350  141.8500 N   0  0  0  0  0  2  0  0  0  0  0  0
  187.8310  175.8700  141.0130 C   0  0  0  0  0  2  0  0  0  0  0  0
  187.0410  177.0600  140.5110 C   0  0  0  0  0  1  0  0  0  0  0  0
  1 14  1  6  0  0  0
  2 12  1  0  0  0  0
  4  7  1  0  0  0  0
  4  1  1  1  0  0  0
  5  6  1  0  0  0  0
  6  8  2  0  0  0  0
  7  2  2  0  0  0  0
  8  7  1  0  0  0  0
  9  3  1  6  0  0  0
  9 11  1  0  0  0  0
  9  6  1  0  0  0  0
 10  3  1  0  0  0  0
 10  5  1  0  0  0  0
 11  4  1  0  0  0  0
 13 12  1  0  0  0  0
 14 16  2  0  0  0  0
 15 14  1  0  0  0  0
 17 14  2  0  0  0  0
 19 18  1  6  0  0  0
 19  1  1  0  0  0  0
 19 22  1  0  0  0  0
 21 23  2  0  0  0  0
 22 25  1  0  0  0  0
 23 20  1  0  0  0  0
 23 27  1  0  0  0  0
 24 22  2  0  0  0  0
 24 21  1  0  0  0  0
 25 26  1  0  0  0  0
 25 20  2  0  0  0  0
 28 27  1  0  0  0  0
 29 28  1  0  0  0  0
 29 27  1  0  0  0  0
 30 19  1  0  0  0  0
 31 30  1  0  0  0  0
 32 31  1  0  0  0  0
M  END
>  <MODEL>
2

>  <REMARK>
 VINA RESULT:      -6.2      2.173      2.789
  Name = 
  8 active torsions:
  status: ('A' for Active; 'I' for Inactive)
    1  A    between atoms: N_1  and  C_4
    2  A    between atoms: N_1  and  C_27
    3  A    between atoms: S_2  and  C_5
    4  A    between atoms: C_5  and  C_10
    5  A    between atoms: C_5  and  C_27
    6  A    between atoms: C_6  and  C_25
    7  A    between atoms: C_7  and  C_19
    8  A    between atoms: C_16  and  C_27
                            x       y       z     vdW  Elec       q    Type
                         _______ _______ _______ _____ _____    ______ ____

>  <TORSDO>
F 8

$$$$
=
 OpenBabel11052419073D

 32 35  0  0  1  0  0  0  0  0999 V2000
  191.0130  174.5320  143.8400 C   0  0  1  0  0  3  0  0  0  0  0  0
  191.9360  174.3480  140.7270 C   0  0  0  0  0  3  0  0  0  0  0  0
  195.4320  175.5780  144.7330 C   0  0  0  0  0  2  0  0  0  0  0  0
  192.3720  174.1920  143.1910 C   0  0  1  0  0  3  0  0  0  0  0  0
  195.7190  176.4890  142.5740 O   0  0  0  0  0  0  0  0  0  0  0  0
  194.4870  175.8880  142.6370 C   0  0  0  0  0  0  0  0  0  0  0  0
  192.6220  174.7520  141.7980 C   0  0  0  0  0  0  0  0  0  0  0  0
  193.7770  175.5740  141.6020 N   0  0  0  0  0  0  0  0  0  0  0  0
  194.0910  175.5240  144.0110 C   0  0  1  0  0  3  0  0  0  0  0  0
  196.3290  176.4720  143.8560 C   0  0  0  0  0  2  0  0  0  0  0  0
  193.5010  174.2410  144.0610 O   0  0  0  0  0  0  0  0  0  0  0  0
  190.8110  173.3630  140.7720 C   0  0  0  0  0  2  0  0  0  0  0  0
  189.6230  173.9680  140.3660 O   0  0  0  0  0  1  0  0  0  0  0  0
  190.1120  173.0420  144.2820 S   0  0  0  0  0  0  0  0  0  0  0  0
  191.1600  171.6270  144.0380 C   0  0  0  0  0  1  0  0  0  0  0  0
  188.8900  172.8880  143.4220 O   0  0  0  0  0  0  0  0  0  0  0  0
  189.7000  173.0980  145.7250 O   0  0  0  0  0  0  0  0  0  0  0  0
  191.6950  176.8060  144.4320 O   0  0  0  0  0  1  0  0  0  0  0  0
  190.8830  175.7350  144.8270 C   0  0  1  0  0  0  0  0  0  0  0  0
  187.4820  177.0320  143.5850 C   0  0  0  0  0  3  0  0  0  0  0  0
  187.3240  176.5980  145.9560 C   0  0  0  0  0  3  0  0  0  0  0  0
  189.4370  176.2110  144.7940 C   0  0  0  0  0  0  0  0  0  0  0  0
  186.7330  177.0360  144.7670 C   0  0  0  0  0  0  0  0  0  0  0  0
  188.6600  176.1940  145.9670 C   0  0  0  0  0  3  0  0  0  0  0  0
  188.8210  176.6300  143.5900 C   0  0  0  0  0  0  0  0  0  0  0  0
  189.5240  176.6530  142.3910 O   0  0  0  0  0  1  0  0  0  0  0  0
  185.2840  177.4200  144.7420 C   0  0  0  0  0  3  0  0  0  0  0  0
  185.1080  178.8610  145.1920 C   0  0  0  0  0  2  0  0  0  0  0  0
  184.7920  177.7330  146.1460 C   0  0  0  0  0  2  0  0  0  0  0  0
  191.2300  175.3440  146.2070 N   0  0  0  0  0  2  0  0  0  0  0  0
  192.0960  176.3220  146.8500 C   0  0  0  0  0  2  0  0  0  0  0  0
  191.4630  176.7810  148.1460 C   0  0  0  0  0  1  0  0  0  0  0  0
  1 14  1  1  0  0  0
  1 19  1  0  0  0  0
  2 12  1  0  0  0  0
  2  7  2  0  0  0  0
  4  1  1  1  0  0  0
  4 11  1  0  0  0  0
  5  6  1  0  0  0  0
  5 10  1  0  0  0  0
  6  9  1  0  0  0  0
  7  4  1  0  0  0  0
  8  7  1  0  0  0  0
  8  6  2  0  0  0  0
  9 11  1  0  0  0  0
  9  3  1  1  0  0  0
 10  3  1  0  0  0  0
 13 12  1  0  0  0  0
 14 17  2  0  0  0  0
 15 14  1  0  0  0  0
 16 14  2  0  0  0  0
 19 18  1  6  0  0  0
 19 30  1  0  0  0  0
 20 25  2  0  0  0  0
 20 23  1  0  0  0  0
 21 24  1  0  0  0  0
 22 19  1  0  0  0  0
 22 24  2  0  0  0  0
 23 21  2  0  0  0  0
 25 22  1  0  0  0  0
 26 25  1  0  0  0  0
 27 23  1  0  0  0  0
 27 28  1  0  0  0  0
 27 29  1  0  0  0  0
 28 29  1  0  0  0  0
 30 31  1  0  0  0  0
 31 32  1  0  0  0  0
M  END
>  <MODEL>
3

>  <REMARK>
 VINA RESULT:      -6.1      2.290      4.573
  Name = 
  8 active torsions:
  status: ('A' for Active; 'I' for Inactive)
    1  A    between atoms: N_1  and  C_4
    2  A    between atoms: N_1  and  C_27
    3  A    between atoms: S_2  and  C_5
    4  A    between atoms: C_5  and  C_10
    5  A    between atoms: C_5  and  C_27
    6  A    between atoms: C_6  and  C_25
    7  A    between atoms: C_7  and  C_19
    8  A    between atoms: C_16  and  C_27
                            x       y       z     vdW  Elec       q    Type
                         _______ _______ _______ _____ _____    ______ ____

>  <TORSDO>
F 8

$$$$
=
 OpenBabel11052419073D

 32 35  0  0  1  0  0  0  0  0999 V2000
  191.3260  174.7700  143.7970 C   0  0  1  0  0  3  0  0  0  0  0  0
  188.8440  172.8420  142.9580 C   0  0  0  0  0  3  0  0  0  0  0  0
  188.8780  178.1890  141.8660 C   0  0  0  0  0  2  0  0  0  0  0  0
  190.2920  174.8670  142.6540 C   0  0  1  0  0  3  0  0  0  0  0  0
  186.8460  177.0730  142.3130 O   0  0  0  0  0  0  0  0  0  0  0  0
  187.8860  176.2330  142.6230 C   0  0  0  0  0  0  0  0  0  0  0  0
  188.9570  174.1700  142.8810 C   0  0  0  0  0  0  0  0  0  0  0  0
  187.7650  174.9560  142.7860 N   0  0  0  0  0  0  0  0  0  0  0  0
  189.1950  176.9160  142.6400 C   0  0  1  0  0  3  0  0  0  0  0  0
  187.3490  178.3540  141.9640 C   0  0  0  0  0  2  0  0  0  0  0  0
  190.1960  176.1380  142.0160 O   0  0  0  0  0  0  0  0  0  0  0  0
  190.0000  171.8960  142.9020 C   0  0  0  0  0  2  0  0  0  0  0  0
  190.0000  171.2030  141.6930 O   0  0  0  0  0  1  0  0  0  0  0  0
  192.8520  174.0090  143.2320 S   0  0  0  0  0  0  0  0  0  0  0  0
  192.6710  173.5230  141.5310 C   0  0  0  0  0  1  0  0  0  0  0  0
  193.1690  172.7890  144.0480 O   0  0  0  0  0  0  0  0  0  0  0  0
  193.9860  174.9880  143.3390 O   0  0  0  0  0  0  0  0  0  0  0  0
  191.8500  177.1240  144.2070 O   0  0  0  0  0  1  0  0  0  0  0  0
  191.4760  175.9280  144.8340 C   0  0  1  0  0  0  0  0  0  0  0  0
  188.2040  175.3490  146.7710 C   0  0  0  0  0  3  0  0  0  0  0  0
  188.3020  177.6650  146.0940 C   0  0  0  0  0  3  0  0  0  0  0  0
  190.1180  176.1510  145.4860 C   0  0  0  0  0  0  0  0  0  0  0  0
  187.6230  176.6210  146.7290 C   0  0  0  0  0  0  0  0  0  0  0  0
  189.5320  177.4290  145.4780 C   0  0  0  0  0  3  0  0  0  0  0  0
  189.4360  175.1070  146.1550 C   0  0  0  0  0  0  0  0  0  0  0  0
  189.9660  173.8230  146.2170 O   0  0  0  0  0  1  0  0  0  0  0  0
  186.3270  176.8830  147.4350 C   0  0  0  0  0  3  0  0  0  0  0  0
  185.1720  176.8810  146.4460 C   0  0  0  0  0  2  0  0  0  0  0  0
  185.7180  178.1930  146.9610 C   0  0  0  0  0  2  0  0  0  0  0  0
  192.4630  175.5950  145.8780 N   0  0  0  0  0  2  0  0  0  0  0  0
  192.9730  176.7850  146.5470 C   0  0  0  0  0  2  0  0  0  0  0  0
  194.4860  176.7720  146.5160 C   0  0  0  0  0  1  0  0  0  0  0  0
  1 14  1  6  0  0  0
  1 19  1  0  0  0  0
  3 10  1  0  0  0  0
  4  7  1  0  0  0  0
  4  1  1  1  0  0  0
  5  6  1  0  0  0  0
  6  9  1  0  0  0  0
  6  8  2  0  0  0  0
  7  2  2  0  0  0  0
  8  7  1  0  0  0  0
  9  3  1  6  0  0  0
 10  5  1  0  0  0  0
 11  9  1  0  0  0  0
 11  4  1  0  0  0  0
 12  2  1  0  0  0  0
 13 12  1  0  0  0  0
 14 17  2  0  0  0  0
 14 16  2  0  0  0  0
 15 14  1  0  0  0  0
 19 18  1  6  0  0  0
 19 22  1  0  0  0  0
 19 30  1  0  0  0  0
 21 23  2  0  0  0  0
 22 25  1  0  0  0  0
 23 20  1  0  0  0  0
 23 27  1  0  0  0  0
 24 22  2  0  0  0  0
 24 21  1  0  0  0  0
 25 26  1  0  0  0  0
 25 20  2  0  0  0  0
 28 29  1  0  0  0  0
 28 27  1  0  0  0  0
 29 27  1  0  0  0  0
 30 31  1  0  0  0  0
 32 31  1  0  0  0  0
M  END
>  <MODEL>
4

>  <REMARK>
 VINA RESULT:      -6.0      1.943      5.108
  Name = 
  8 active torsions:
  status: ('A' for Active; 'I' for Inactive)
    1  A    between atoms: N_1  and  C_4
    2  A    between atoms: N_1  and  C_27
    3  A    between atoms: S_2  and  C_5
    4  A    between atoms: C_5  and  C_10
    5  A    between atoms: C_5  and  C_27
    6  A    between atoms: C_6  and  C_25
    7  A    between atoms: C_7  and  C_19
    8  A    between atoms: C_16  and  C_27
                            x       y       z     vdW  Elec       q    Type
                         _______ _______ _______ _____ _____    ______ ____

>  <TORSDO>
F 8

$$$$
=
 OpenBabel11052419073D

 32 35  0  0  1  0  0  0  0  0999 V2000
  189.6690  176.3120  144.3910 C   0  0  1  0  0  3  0  0  0  0  0  0
  186.9280  175.6640  142.7630 C   0  0  0  0  0  3  0  0  0  0  0  0
  186.9560  178.5700  147.3830 C   0  0  0  0  0  2  0  0  0  0  0  0
  188.3280  177.0720  144.2960 C   0  0  1  0  0  3  0  0  0  0  0  0
  185.1110  177.1980  146.8440 O   0  0  0  0  0  0  0  0  0  0  0  0
  186.1380  176.9130  145.9790 C   0  0  0  0  0  0  0  0  0  0  0  0
  187.0980  176.2430  143.9540 C   0  0  0  0  0  0  0  0  0  0  0  0
  185.9940  176.2740  144.8650 N   0  0  0  0  0  0  0  0  0  0  0  0
  187.4230  177.5130  146.3910 C   0  0  1  0  0  3  0  0  0  0  0  0
  185.5570  178.1110  147.8360 C   0  0  0  0  0  2  0  0  0  0  0  0
  188.1140  178.0700  145.2910 O   0  0  0  0  0  0  0  0  0  0  0  0
  187.9390  175.7000  141.6610 C   0  0  0  0  0  2  0  0  0  0  0  0
  187.4540  176.4410  140.5850 O   0  0  0  0  0  1  0  0  0  0  0  0
  190.9190  177.0620  143.3410 S   0  0  0  0  0  0  0  0  0  0  0  0
  191.7200  175.7960  142.3840 C   0  0  0  0  0  1  0  0  0  0  0  0
  191.9550  177.7650  144.1700 O   0  0  0  0  0  0  0  0  0  0  0  0
  190.2790  178.0470  142.4040 O   0  0  0  0  0  0  0  0  0  0  0  0
  189.1200  175.1460  146.4700 O   0  0  0  0  0  1  0  0  0  0  0  0
  190.1670  175.7460  145.7590 C   0  0  1  0  0  0  0  0  0  0  0  0
  191.8750  172.5610  144.4430 C   0  0  0  0  0  3  0  0  0  0  0  0
  193.5140  173.8860  145.6230 C   0  0  0  0  0  3  0  0  0  0  0  0
  191.2080  174.6730  145.4690 C   0  0  0  0  0  0  0  0  0  0  0  0
  193.1840  172.7310  144.9060 C   0  0  0  0  0  0  0  0  0  0  0  0
  192.5350  174.8410  145.9010 C   0  0  0  0  0  3  0  0  0  0  0  0
  190.8900  173.5140  144.7210 C   0  0  0  0  0  0  0  0  0  0  0  0
  189.6020  173.2940  144.2460 O   0  0  0  0  0  1  0  0  0  0  0  0
  194.2430  171.7290  144.5610 C   0  0  0  0  0  3  0  0  0  0  0  0
  194.5620  170.8550  145.7640 C   0  0  0  0  0  2  0  0  0  0  0  0
  195.4990  171.9780  145.3810 C   0  0  0  0  0  2  0  0  0  0  0  0
  190.7800  176.8000  146.5900 N   0  0  0  0  0  2  0  0  0  0  0  0
  190.6030  176.5450  148.0130 C   0  0  0  0  0  2  0  0  0  0  0  0
  191.5660  177.4040  148.8030 C   0  0  0  0  0  1  0  0  0  0  0  0
  1 14  1  1  0  0  0
  1 19  1  0  0  0  0
  2  7  2  0  0  0  0
  3 10  1  0  0  0  0
  4  1  1  1  0  0  0
  4 11  1  0  0  0  0
  5 10  1  0  0  0  0
  6  9  1  0  0  0  0
  6  5  1  0  0  0  0
  7  4  1  0  0  0  0
  7  8  1  0  0  0  0
  8  6  2  0  0  0  0
  9  3  1  1  0  0  0
 11  9  1  0  0  0  0
 12  2  1  0  0  0  0
 13 12  1  0  0  0  0
 14 16  2  0  0  0  0
 15 14  1  0  0  0  0
 17 14  2  0  0  0  0
 19 18  1  1  0  0  0
 19 30  1  0  0  0  0
 20 25  2  0  0  0  0
 20 23  1  0  0  0  0
 21 24  1  0  0  0  0
 22 19  1  0  0  0  0
 22 24  2  0  0  0  0
 23 21  2  0  0  0  0
 25 22  1  0  0  0  0
 26 25  1  0  0  0  0
 27 23  1  0  0  0  0
 27 29  1  0  0  0  0
 27 28  1  0  0  0  0
 29 28  1  0  0  0  0
 30 31  1  0  0  0  0
 31 32  1  0  0  0  0
M  END
>  <MODEL>
5

>  <REMARK>
 VINA RESULT:      -5.9      2.202      7.276
  Name = 
  8 active torsions:
  status: ('A' for Active; 'I' for Inactive)
    1  A    between atoms: N_1  and  C_4
    2  A    between atoms: N_1  and  C_27
    3  A    between atoms: S_2  and  C_5
    4  A    between atoms: C_5  and  C_10
    5  A    between atoms: C_5  and  C_27
    6  A    between atoms: C_6  and  C_25
    7  A    between atoms: C_7  and  C_19
    8  A    between atoms: C_16  and  C_27
                            x       y       z     vdW  Elec       q    Type
                         _______ _______ _______ _____ _____    ______ ____

>  <TORSDO>
F 8

$$$$
=
 OpenBabel11052419073D

 32 35  0  0  1  0  0  0  0  0999 V2000
  191.8030  175.1020  144.2080 C   0  0  1  0  0  3  0  0  0  0  0  0
  194.4310  175.1830  146.1230 C   0  0  0  0  0  3  0  0  0  0  0  0
  193.0860  170.7710  143.2060 C   0  0  0  0  0  2  0  0  0  0  0  0
  193.1480  174.3470  144.1370 C   0  0  1  0  0  3  0  0  0  0  0  0
  194.1690  170.5410  145.2910 O   0  0  0  0  0  0  0  0  0  0  0  0
  193.7710  171.8460  145.1440 C   0  0  0  0  0  0  0  0  0  0  0  0
  193.8960  174.1620  145.4500 C   0  0  0  0  0  0  0  0  0  0  0  0
  194.2220  172.8280  145.8550 N   0  0  0  0  0  0  0  0  0  0  0  0
  192.8510  172.0450  144.0070 C   0  0  1  0  0  3  0  0  0  0  0  0
  193.6770  169.7630  144.2100 C   0  0  0  0  0  2  0  0  0  0  0  0
  193.1720  173.2110  143.2750 O   0  0  0  0  0  0  0  0  0  0  0  0
  194.3060  176.6160  145.7140 C   0  0  0  0  0  2  0  0  0  0  0  0
  195.3140  176.9510  144.8120 O   0  0  0  0  0  1  0  0  0  0  0  0
  191.7210  176.4030  142.9720 S   0  0  0  0  0  0  0  0  0  0  0  0
  191.4250  177.9610  143.7760 C   0  0  0  0  0  1  0  0  0  0  0  0
  190.6030  176.1440  142.0030 O   0  0  0  0  0  0  0  0  0  0  0  0
  193.0200  176.4830  142.2220 O   0  0  0  0  0  0  0  0  0  0  0  0
  190.6760  173.2840  145.3950 O   0  0  0  0  0  1  0  0  0  0  0  0
  190.4730  174.3340  144.4900 C   0  0  1  0  0  0  0  0  0  0  0  0
  188.8560  176.8400  146.9180 C   0  0  0  0  0  3  0  0  0  0  0  0
  187.4170  176.5890  144.9940 C   0  0  0  0  0  3  0  0  0  0  0  0
  189.4940  175.3120  145.1250 C   0  0  0  0  0  0  0  0  0  0  0  0
  187.6740  177.1660  146.2420 C   0  0  0  0  0  0  0  0  0  0  0  0
  188.3160  175.6730  144.4460 C   0  0  0  0  0  3  0  0  0  0  0  0
  189.7590  175.9210  146.3740 C   0  0  0  0  0  0  0  0  0  0  0  0
  190.9140  175.6260  147.0900 O   0  0  0  0  0  1  0  0  0  0  0  0
  186.7370  178.1890  146.8090 C   0  0  0  0  0  3  0  0  0  0  0  0
  185.8250  177.5580  147.8480 C   0  0  0  0  0  2  0  0  0  0  0  0
  185.2990  177.8430  146.4600 C   0  0  0  0  0  2  0  0  0  0  0  0
  189.8830  173.7990  143.2480 N   0  0  0  0  0  2  0  0  0  0  0  0
  189.4070  172.4320  143.4130 C   0  0  0  0  0  2  0  0  0  0  0  0
  189.6490  171.6560  142.1360 C   0  0  0  0  0  1  0  0  0  0  0  0
  1 14  1  6  0  0  0
  1 19  1  0  0  0  0
  3 10  1  0  0  0  0
  4  1  1  1  0  0  0
  4  7  1  0  0  0  0
  6  5  1  0  0  0  0
  6  8  2  0  0  0  0
  7  8  1  0  0  0  0
  7  2  2  0  0  0  0
  9  3  1  6  0  0  0
  9  6  1  0  0  0  0
 10  5  1  0  0  0  0
 11  9  1  0  0  0  0
 11  4  1  0  0  0  0
 12  2  1  0  0  0  0
 13 12  1  0  0  0  0
 14 15  1  0  0  0  0
 16 14  2  0  0  0  0
 17 14  2  0  0  0  0
 19 22  1  0  0  0  0
 19 18  1  1  0  0  0
 21 23  1  0  0  0  0
 22 25  2  0  0  0  0
 23 27  1  0  0  0  0
 23 20  2  0  0  0  0
 24 21  2  0  0  0  0
 24 22  1  0  0  0  0
 25 20  1  0  0  0  0
 25 26  1  0  0  0  0
 27 28  1  0  0  0  0
 29 27  1  0  0  0  0
 29 28  1  0  0  0  0
 30 31  1  0  0  0  0
 30 19  1  0  0  0  0
 32 31  1  0  0  0  0
M  END
>  <MODEL>
6

>  <REMARK>
 VINA RESULT:      -5.8      1.149      1.284
  Name = 
  8 active torsions:
  status: ('A' for Active; 'I' for Inactive)
    1  A    between atoms: N_1  and  C_4
    2  A    between atoms: N_1  and  C_27
    3  A    between atoms: S_2  and  C_5
    4  A    between atoms: C_5  and  C_10
    5  A    between atoms: C_5  and  C_27
    6  A    between atoms: C_6  and  C_25
    7  A    between atoms: C_7  and  C_19
    8  A    between atoms: C_16  and  C_27
                            x       y       z     vdW  Elec       q    Type
                         _______ _______ _______ _____ _____    ______ ____

>  <TORSDO>
F 8

$$$$
=
 OpenBabel11052419073D

 32 35  0  0  1  0  0  0  0  0999 V2000
  191.6840  174.3590  143.2590 C   0  0  1  0  0  3  0  0  0  0  0  0
  191.1070  173.5360  140.1660 C   0  0  0  0  0  3  0  0  0  0  0  0
  196.0960  174.8390  141.9520 C   0  0  0  0  0  2  0  0  0  0  0  0
  192.5840  173.7130  142.1850 C   0  0  1  0  0  3  0  0  0  0  0  0
  195.4530  175.3340  139.7350 O   0  0  0  0  0  0  0  0  0  0  0  0
  194.3400  174.9490  140.4400 C   0  0  0  0  0  0  0  0  0  0  0  0
  192.2240  173.9960  140.7330 C   0  0  0  0  0  0  0  0  0  0  0  0
  193.2240  174.5870  139.8960 N   0  0  0  0  0  0  0  0  0  0  0  0
  194.5750  174.8770  141.8960 C   0  0  1  0  0  3  0  0  0  0  0  0
  196.5670  175.4290  140.6100 C   0  0  0  0  0  2  0  0  0  0  0  0
  193.9830  173.7260  142.4630 O   0  0  0  0  0  0  0  0  0  0  0  0
  190.0560  172.7570  140.8920 C   0  0  0  0  0  2  0  0  0  0  0  0
  188.8180  172.9240  140.2740 O   0  0  0  0  0  1  0  0  0  0  0  0
  191.2350  173.1740  144.5320 S   0  0  0  0  0  0  0  0  0  0  0  0
  191.6730  171.5380  143.9930 C   0  0  0  0  0  1  0  0  0  0  0  0
  189.7570  173.2130  144.7950 O   0  0  0  0  0  0  0  0  0  0  0  0
  191.9750  173.4800  145.8040 O   0  0  0  0  0  0  0  0  0  0  0  0
  192.3560  176.6390  142.6790 O   0  0  0  0  0  1  0  0  0  0  0  0
  191.9440  175.8220  143.7400 C   0  0  1  0  0  0  0  0  0  0  0  0
  188.2710  176.9330  143.9930 C   0  0  0  0  0  3  0  0  0  0  0  0
  189.3330  177.2830  146.1330 C   0  0  0  0  0  3  0  0  0  0  0  0
  190.6310  176.3790  144.2730 C   0  0  0  0  0  0  0  0  0  0  0  0
  188.1990  177.3700  145.3200 C   0  0  0  0  0  0  0  0  0  0  0  0
  190.5340  176.7970  145.6130 C   0  0  0  0  0  3  0  0  0  0  0  0
  189.4710  176.4460  143.4660 C   0  0  0  0  0  0  0  0  0  0  0  0
  189.4920  176.0320  142.1390 O   0  0  0  0  0  1  0  0  0  0  0  0
  186.8960  177.8440  145.8900 C   0  0  0  0  0  3  0  0  0  0  0  0
  186.3190  176.8030  146.8360 C   0  0  0  0  0  2  0  0  0  0  0  0
  185.7600  176.9410  145.4390 C   0  0  0  0  0  2  0  0  0  0  0  0
  192.9580  175.8670  144.8110 N   0  0  0  0  0  2  0  0  0  0  0  0
  193.8820  176.9810  144.6420 C   0  0  0  0  0  2  0  0  0  0  0  0
  194.5860  177.2550  145.9530 C   0  0  0  0  0  1  0  0  0  0  0  0
  1 19  1  0  0  0  0
  1 14  1  1  0  0  0
  2  7  2  0  0  0  0
  2 12  1  0  0  0  0
  4 11  1  0  0  0  0
  4  1  1  1  0  0  0
  5  6  1  0  0  0  0
  5 10  1  0  0  0  0
  6  9  1  0  0  0  0
  7  4  1  0  0  0  0
  8  6  2  0  0  0  0
  8  7  1  0  0  0  0
  9  3  1  6  0  0  0
  9 11  1  0  0  0  0
 10  3  1  0  0  0  0
 13 12  1  0  0  0  0
 14 16  2  0  0  0  0
 14 17  2  0  0  0  0
 15 14  1  0  0  0  0
 19 18  1  6  0  0  0
 19 22  1  0  0  0  0
 19 30  1  0  0  0  0
 20 23  1  0  0  0  0
 22 24  2  0  0  0  0
 23 27  1  0  0  0  0
 23 21  2  0  0  0  0
 24 21  1  0  0  0  0
 25 20  2  0  0  0  0
 25 22  1  0  0  0  0
 26 25  1  0  0  0  0
 27 28  1  0  0  0  0
 29 27  1  0  0  0  0
 29 28  1  0  0  0  0
 31 30  1  0  0  0  0
 31 32  1  0  0  0  0
M  END
>  <MODEL>
7

>  <REMARK>
 VINA RESULT:      -5.5      2.702      4.941
  Name = 
  8 active torsions:
  status: ('A' for Active; 'I' for Inactive)
    1  A    between atoms: N_1  and  C_4
    2  A    between atoms: N_1  and  C_27
    3  A    between atoms: S_2  and  C_5
    4  A    between atoms: C_5  and  C_10
    5  A    between atoms: C_5  and  C_27
    6  A    between atoms: C_6  and  C_25
    7  A    between atoms: C_7  and  C_19
    8  A    between atoms: C_16  and  C_27
                            x       y       z     vdW  Elec       q    Type
                         _______ _______ _______ _____ _____    ______ ____

>  <TORSDO>
F 8

$$$$
=
 OpenBabel11052419073D

 32 35  0  0  1  0  0  0  0  0999 V2000
  191.4950  176.0910  143.7150 C   0  0  1  0  0  3  0  0  0  0  0  0
  193.9590  175.0420  141.8690 C   0  0  0  0  0  3  0  0  0  0  0  0
  189.3740  172.1540  142.5220 C   0  0  0  0  0  2  0  0  0  0  0  0
  191.5310  175.1550  142.4870 C   0  0  1  0  0  3  0  0  0  0  0  0
  191.4430  171.0590  142.2110 O   0  0  0  0  0  0  0  0  0  0  0  0
  191.6800  172.3930  142.4320 C   0  0  0  0  0  0  0  0  0  0  0  0
  192.8370  174.4160  142.2310 C   0  0  0  0  0  0  0  0  0  0  0  0
  192.7970  172.9870  142.1650 N   0  0  0  0  0  0  0  0  0  0  0  0
  190.4870  173.1210  142.9060 C   0  0  1  0  0  3  0  0  0  0  0  0
  190.0600  170.7830  142.3780 C   0  0  0  0  0  2  0  0  0  0  0  0
  190.3560  174.3770  142.2700 O   0  0  0  0  0  0  0  0  0  0  0  0
  194.0870  176.5260  141.7380 C   0  0  0  0  0  2  0  0  0  0  0  0
  195.3500  176.8620  141.2530 O   0  0  0  0  0  1  0  0  0  0  0  0
  190.3310  177.4380  143.4730 S   0  0  0  0  0  0  0  0  0  0  0  0
  188.8830  177.1490  144.4620 C   0  0  0  0  0  1  0  0  0  0  0  0
  189.9180  177.5280  142.0320 O   0  0  0  0  0  0  0  0  0  0  0  0
  190.9550  178.7380  143.8940 O   0  0  0  0  0  0  0  0  0  0  0  0
  190.6720  174.4600  145.3420 O   0  0  0  0  0  1  0  0  0  0  0  0
  191.5840  175.5080  145.1610 C   0  0  1  0  0  0  0  0  0  0  0  0
  195.3960  175.2360  145.5890 C   0  0  0  0  0  3  0  0  0  0  0  0
  194.4390  173.0250  145.7610 C   0  0  0  0  0  3  0  0  0  0  0  0
  192.9850  174.9430  145.3510 C   0  0  0  0  0  0  0  0  0  0  0  0
  195.5630  173.8570  145.7610 C   0  0  0  0  0  0  0  0  0  0  0  0
  193.1680  173.5630  145.5550 C   0  0  0  0  0  3  0  0  0  0  0  0
  194.1250  175.7810  145.3810 C   0  0  0  0  0  0  0  0  0  0  0  0
  194.0140  177.1550  145.2060 O   0  0  0  0  0  1  0  0  0  0  0  0
  196.9230  173.2900  146.0340 C   0  0  0  0  0  3  0  0  0  0  0  0
  197.5290  172.7250  144.7590 C   0  0  0  0  0  2  0  0  0  0  0  0
  196.9320  171.7900  145.7860 C   0  0  0  0  0  2  0  0  0  0  0  0
  191.3400  176.5470  146.1790 N   0  0  0  0  0  2  0  0  0  0  0  0
  191.0230  175.9740  147.4800 C   0  0  0  0  0  2  0  0  0  0  0  0
  191.5880  176.8570  148.5720 C   0  0  0  0  0  1  0  0  0  0  0  0
  1 14  1  1  0  0  0
  1 19  1  0  0  0  0
  2  7  2  0  0  0  0
  4  1  1  1  0  0  0
  5 10  1  0  0  0  0
  5  6  1  0  0  0  0
  6  9  1  0  0  0  0
  7  4  1  0  0  0  0
  8  7  1  0  0  0  0
  8  6  2  0  0  0  0
  9  3  1  6  0  0  0
 10  3  1  0  0  0  0
 11  4  1  0  0  0  0
 11  9  1  0  0  0  0
 12  2  1  0  0  0  0
 13 12  1  0  0  0  0
 14 17  2  0  0  0  0
 14 15  1  0  0  0  0
 16 14  2  0  0  0  0
 19 18  1  1  0  0  0
 19 22  1  0  0  0  0
 19 30  1  0  0  0  0
 20 23  1  0  0  0  0
 21 23  2  0  0  0  0
 22 25  1  0  0  0  0
 22 24  2  0  0  0  0
 23 27  1  0  0  0  0
 24 21  1  0  0  0  0
 25 20  2  0  0  0  0
 26 25  1  0  0  0  0
 28 29  1  0  0  0  0
 28 27  1  0  0  0  0
 29 27  1  0  0  0  0
 30 31  1  0  0  0  0
 31 32  1  0  0  0  0
M  END
>  <MODEL>
8

>  <REMARK>
 VINA RESULT:      -5.5      2.488      6.130
  Name = 
  8 active torsions:
  status: ('A' for Active; 'I' for Inactive)
    1  A    between atoms: N_1  and  C_4
    2  A    between atoms: N_1  and  C_27
    3  A    between atoms: S_2  and  C_5
    4  A    between atoms: C_5  and  C_10
    5  A    between atoms: C_5  and  C_27
    6  A    between atoms: C_6  and  C_25
    7  A    between atoms: C_7  and  C_19
    8  A    between atoms: C_16  and  C_27
                            x       y       z     vdW  Elec       q    Type
                         _______ _______ _______ _____ _____    ______ ____

>  <TORSDO>
F 8

$$$$
=
 OpenBabel11052419073D

 32 35  0  0  1  0  0  0  0  0999 V2000
  194.0990  174.2170  143.3730 C   0  0  1  0  0  3  0  0  0  0  0  0
  191.4060  172.5990  142.5290 C   0  0  0  0  0  3  0  0  0  0  0  0
  191.3280  177.8900  143.8670 C   0  0  0  0  0  2  0  0  0  0  0  0
  192.7790  174.6890  142.7250 C   0  0  1  0  0  3  0  0  0  0  0  0
  189.4750  176.5070  144.3470 O   0  0  0  0  0  0  0  0  0  0  0  0
  190.5260  175.7140  143.9600 C   0  0  0  0  0  0  0  0  0  0  0  0
  191.5440  173.8410  142.9980 C   0  0  0  0  0  0  0  0  0  0  0  0
  190.4090  174.4810  143.5890 N   0  0  0  0  0  0  0  0  0  0  0  0
  191.8080  176.4440  143.8980 C   0  0  1  0  0  3  0  0  0  0  0  0
  189.9030  177.8570  144.4530 C   0  0  0  0  0  2  0  0  0  0  0  0
  192.5500  176.0960  142.7460 O   0  0  0  0  0  0  0  0  0  0  0  0
  192.4560  171.8740  141.7500 C   0  0  0  0  0  2  0  0  0  0  0  0
  192.4730  170.5250  142.0990 O   0  0  0  0  0  1  0  0  0  0  0  0
  195.5250  174.8640  142.4920 S   0  0  0  0  0  0  0  0  0  0  0  0
  195.1830  174.8730  140.7470 C   0  0  0  0  0  1  0  0  0  0  0  0
  196.7340  174.0090  142.7390 O   0  0  0  0  0  0  0  0  0  0  0  0
  195.8100  176.2700  142.9380 O   0  0  0  0  0  0  0  0  0  0  0  0
  192.9850  174.2450  145.5500 O   0  0  0  0  0  1  0  0  0  0  0  0
  194.2330  174.1220  144.9260 C   0  0  1  0  0  0  0  0  0  0  0  0
  196.5720  171.3010  146.0930 C   0  0  0  0  0  3  0  0  0  0  0  0
  194.4510  170.3350  145.4620 C   0  0  0  0  0  3  0  0  0  0  0  0
  194.7880  172.7450  145.2630 C   0  0  0  0  0  0  0  0  0  0  0  0
  195.7590  170.1740  145.9280 C   0  0  0  0  0  0  0  0  0  0  0  0
  193.9750  171.6040  145.1310 C   0  0  0  0  0  3  0  0  0  0  0  0
  196.1010  172.5760  145.7620 C   0  0  0  0  0  0  0  0  0  0  0  0
  196.9520  173.6620  145.9350 O   0  0  0  0  0  1  0  0  0  0  0  0
  196.2550  168.8190  146.3330 C   0  0  0  0  0  3  0  0  0  0  0  0
  195.6280  168.3940  147.6510 C   0  0  0  0  0  2  0  0  0  0  0  0
  197.0490  168.9080  147.6260 C   0  0  0  0  0  2  0  0  0  0  0  0
  195.1460  175.1530  145.4540 N   0  0  0  0  0  2  0  0  0  0  0  0
  194.4780  176.0450  146.3930 C   0  0  0  0  0  2  0  0  0  0  0  0
  194.6750  177.4790  145.9530 C   0  0  0  0  0  1  0  0  0  0  0  0
  1 14  1  1  0  0  0
  1 19  1  0  0  0  0
  2  7  2  0  0  0  0
  3 10  1  0  0  0  0
  4 11  1  0  0  0  0
  4  7  1  0  0  0  0
  4  1  1  1  0  0  0
  5 10  1  0  0  0  0
  6  5  1  0  0  0  0
  7  8  1  0  0  0  0
  8  6  2  0  0  0  0
  9  3  1  6  0  0  0
  9  6  1  0  0  0  0
 11  9  1  0  0  0  0
 12 13  1  0  0  0  0
 12  2  1  0  0  0  0
 14 16  2  0  0  0  0
 14 17  2  0  0  0  0
 15 14  1  0  0  0  0
 19 22  1  0  0  0  0
 19 30  1  0  0  0  0
 19 18  1  1  0  0  0
 21 23  2  0  0  0  0
 22 25  1  0  0  0  0
 23 20  1  0  0  0  0
 23 27  1  0  0  0  0
 24 22  2  0  0  0  0
 24 21  1  0  0  0  0
 25 26  1  0  0  0  0
 25 20  2  0  0  0  0
 27 29  1  0  0  0  0
 27 28  1  0  0  0  0
 29 28  1  0  0  0  0
 30 31  1  0  0  0  0
 32 31  1  0  0  0  0
M  END
>  <MODEL>
9

>  <REMARK>
 VINA RESULT:      -5.5      3.067      7.899
  Name = 
  8 active torsions:
  status: ('A' for Active; 'I' for Inactive)
    1  A    between atoms: N_1  and  C_4
    2  A    between atoms: N_1  and  C_27
    3  A    between atoms: S_2  and  C_5
    4  A    between atoms: C_5  and  C_10
    5  A    between atoms: C_5  and  C_27
    6  A    between atoms: C_6  and  C_25
    7  A    between atoms: C_7  and  C_19
    8  A    between atoms: C_16  and  C_27
                            x       y       z     vdW  Elec       q    Type
                         _______ _______ _______ _____ _____    ______ ____

>  <TORSDO>
F 8

$$$$
