=
 OpenBabel11052420293D

 34 39  0  0  1  0  0  0  0  0999 V2000
  191.6660  173.6990  145.2020 C   0  0  0  0  0  0  0  0  0  0  0  0
  193.8660  171.5880  142.9940 C   0  0  0  0  0  2  0  0  0  0  0  0
  194.3330  173.4950  144.5160 C   0  0  0  0  0  3  0  0  0  0  0  0
  190.6530  175.2250  146.3280 C   0  0  0  0  0  0  0  0  0  0  0  0
  190.4300  174.1190  145.5530 N   0  0  0  0  0  0  0  0  0  0  0  0
  192.7780  176.6900  147.0050 C   0  0  0  0  0  3  0  0  0  0  0  0
  194.2760  176.5800  146.6850 C   0  0  0  0  0  3  0  0  0  0  0  0
  192.0150  175.5170  146.4460 C   0  0  0  0  0  0  0  0  0  0  0  0
  193.9520  174.5110  145.4060 C   0  0  0  0  0  0  0  0  0  0  0  0
  192.6370  174.5550  145.7460 C   0  0  2  0  0  3  0  0  0  0  0  0
  194.8160  175.5830  145.9410 C   0  0  0  0  0  3  0  0  0  0  0  0
  193.1290  170.3360  143.0680 N   0  0  0  0  0  2  0  0  0  0  0  0
  192.0470  170.3780  142.0840 C   0  0  2  0  0  3  0  0  0  0  0  0
  191.0770  171.5400  142.3430 C   0  0  0  0  0  2  0  0  0  0  0  0
  193.3610  172.5850  144.0010 C   0  0  0  0  0  0  0  0  0  0  0  0
  190.9450  171.8340  143.8320 C   0  0  0  0  0  2  0  0  0  0  0  0
  192.0070  172.7230  144.3170 N   0  0  0  0  0  0  0  0  0  0  0  0
  191.3020  169.0520  142.1050 C   0  0  0  0  0  2  0  0  0  0  0  0
  190.8080  168.7270  140.7760 N   0  0  0  0  0  2  0  0  0  0  0  0
  191.9670  168.6080  139.9070 C   0  0  0  0  0  1  0  0  0  0  0  0
  189.5520  176.0800  146.8600 C   0  0  0  0  0  2  0  0  0  0  0  0
  186.0500  176.9500  145.9500 C   0  0  0  0  0  3  0  0  0  0  0  0
  188.6770  177.1630  144.7850 C   0  0  0  0  0  2  0  0  0  0  0  0
  185.1680  178.0310  142.4410 C   0  0  0  0  0  0  0  0  0  0  0  0
  185.0440  177.6570  143.7860 C   0  0  0  0  0  3  0  0  0  0  0  0
  186.1790  177.3420  144.5380 C   0  0  0  0  0  0  0  0  0  0  0  0
  187.5830  177.7930  142.6110 C   0  0  0  0  0  3  0  0  0  0  0  0
  187.4540  177.4060  143.9470 C   0  0  0  0  0  0  0  0  0  0  0  0
  186.4440  178.0960  141.8590 C   0  0  0  0  0  3  0  0  0  0  0  0
  188.3890  176.1330  145.8820 C   0  0  2  0  0  3  0  0  0  0  0  0
  187.0940  176.4260  146.6010 C   0  0  0  0  0  3  0  0  0  0  0  0
  183.9700  178.3540  141.6510 C   0  0  0  0  0  0  0  0  0  0  0  0
  182.8280  178.3350  142.1830 O   0  0  0  0  0  1  0  0  0  0  0  0
  184.0880  178.6840  140.3050 O   0  0  0  0  0  0  0  0  0  0  0  0
  1  5  2  0  0  0  0
  2 12  1  0  0  0  0
  2 15  1  0  0  0  0
  3  9  1  0  0  0  0
  4  8  2  0  0  0  0
  4 21  1  0  0  0  0
  5  4  1  0  0  0  0
  7  6  2  0  0  0  0
  8  6  1  0  0  0  0
  9 10  1  0  0  0  0
  9 11  2  0  0  0  0
 10  1  1  6  0  0  0
 10  8  1  0  0  0  0
 11  7  1  0  0  0  0
 13 18  1  1  0  0  0
 13 14  1  0  0  0  0
 13 12  1  0  0  0  0
 14 16  1  0  0  0  0
 15 17  1  0  0  0  0
 15  3  2  0  0  0  0
 16 17  1  0  0  0  0
 17  1  1  0  0  0  0
 19 18  1  0  0  0  0
 20 19  1  0  0  0  0
 22 31  2  0  0  0  0
 23 30  1  0  0  0  0
 24 25  1  0  0  0  0
 25 26  2  0  0  0  0
 26 22  1  0  0  0  0
 27 28  2  0  0  0  0
 28 26  1  0  0  0  0
 28 23  1  0  0  0  0
 29 24  2  0  0  0  0
 29 27  1  0  0  0  0
 30 31  1  0  0  0  0
 30 21  1  1  0  0  0
 32 33  1  0  0  0  0
 32 24  1  0  0  0  0
 34 32  2  0  0  0  0
M  END
>  <MODEL>
1

>  <REMARK>
 VINA RESULT:      -8.2      0.000      0.000
  Name = 
  5 active torsions:
  status: ('A' for Active; 'I' for Inactive)
    1  A    between atoms: C_3  and  N_13
    2  A    between atoms: C_3  and  C_25
    3  A    between atoms: C_7  and  C_11
    4  A    between atoms: C_8  and  C_18
    5  A    between atoms: C_18  and  C_30
                            x       y       z     vdW  Elec       q    Type
                         _______ _______ _______ _____ _____    ______ ____

>  <TORSDO>
F 5

$$$$
=
 OpenBabel11052420293D

 34 39  0  0  1  0  0  0  0  0999 V2000
  192.3040  173.9970  144.8430 C   0  0  0  0  0  0  0  0  0  0  0  0
  193.3610  172.2690  141.6690 C   0  0  0  0  0  2  0  0  0  0  0  0
  194.3770  174.0900  143.0200 C   0  0  0  0  0  3  0  0  0  0  0  0
  191.8410  175.3360  146.4600 C   0  0  0  0  0  0  0  0  0  0  0  0
  191.3440  174.2750  145.7520 N   0  0  0  0  0  2  0  0  0  0  0  0
  193.9700  176.9320  146.2720 C   0  0  0  0  0  3  0  0  0  0  0  0
  195.1630  176.9840  145.3070 C   0  0  0  0  0  3  0  0  0  0  0  0
  193.0930  175.7410  145.9890 C   0  0  0  0  0  0  0  0  0  0  0  0
  194.3930  174.9970  144.0900 C   0  0  0  0  0  0  0  0  0  0  0  0
  193.3750  174.8950  144.9850 C   0  0  0  0  0  0  0  0  0  0  0  0
  195.3540  176.1000  144.2960 C   0  0  0  0  0  3  0  0  0  0  0  0
  192.7980  170.9530  141.9280 N   0  0  0  0  0  2  0  0  0  0  0  0
  191.3870  170.9700  141.5420 C   0  0  2  0  0  3  0  0  0  0  0  0
  190.5870  172.0160  142.3320 C   0  0  0  0  0  2  0  0  0  0  0  0
  193.3210  173.1360  142.8980 C   0  0  0  0  0  0  0  0  0  0  0  0
  191.1300  172.1830  143.7450 C   0  0  0  0  0  2  0  0  0  0  0  0
  192.2530  173.1270  143.7980 N   0  0  0  0  0  0  0  0  0  0  0  0
  190.7960  169.5840  141.7500 C   0  0  0  0  0  2  0  0  0  0  0  0
  190.9190  168.7930  140.5350 N   0  0  0  0  0  2  0  0  0  0  0  0
  190.5980  169.6690  139.4210 C   0  0  0  0  0  1  0  0  0  0  0  0
  191.0620  176.0430  147.5180 C   0  0  0  0  0  2  0  0  0  0  0  0
  189.2950  177.5600  144.6160 C   0  0  0  0  0  3  0  0  0  0  0  0
  188.6210  176.0630  146.9830 C   0  0  0  0  0  2  0  0  0  0  0  0
  185.5290  177.8380  144.5660 C   0  0  0  0  0  0  0  0  0  0  0  0
  186.8750  177.9700  144.1990 C   0  0  0  0  0  3  0  0  0  0  0  0
  187.8810  177.4240  145.0000 C   0  0  0  0  0  0  0  0  0  0  0  0
  186.2030  176.5860  146.5390 C   0  0  0  0  0  3  0  0  0  0  0  0
  187.5440  176.7320  146.1780 C   0  0  0  0  0  0  0  0  0  0  0  0
  185.2000  177.1440  145.7410 C   0  0  0  0  0  3  0  0  0  0  0  0
  189.9310  176.8530  146.9040 C   0  0  2  0  0  3  0  0  0  0  0  0
  190.2610  177.2500  145.4850 C   0  0  0  0  0  3  0  0  0  0  0  0
  184.4730  178.4220  143.7230 C   0  0  0  0  0  0  0  0  0  0  0  0
  183.6530  179.2470  144.2050 O   0  0  0  0  0  1  0  0  0  0  0  0
  184.3710  178.0650  142.3830 O   0  0  0  0  0  0  0  0  0  0  0  0
  1 10  2  0  0  0  0
  1  5  1  0  0  0  0
  2 12  1  0  0  0  0
  2 15  1  0  0  0  0
  3  9  1  0  0  0  0
  4 21  1  0  0  0  0
  5  4  1  0  0  0  0
  7  6  2  0  0  0  0
  8  6  1  0  0  0  0
  8  4  2  0  0  0  0
  9 11  2  0  0  0  0
  9 10  1  0  0  0  0
 10  8  1  0  0  0  0
 11  7  1  0  0  0  0
 13 18  1  1  0  0  0
 13 12  1  0  0  0  0
 13 14  1  0  0  0  0
 14 16  1  0  0  0  0
 15  3  2  0  0  0  0
 15 17  1  0  0  0  0
 16 17  1  0  0  0  0
 17  1  1  0  0  0  0
 19 18  1  0  0  0  0
 20 19  1  0  0  0  0
 22 26  1  0  0  0  0
 22 31  2  0  0  0  0
 24 29  1  0  0  0  0
 25 24  2  0  0  0  0
 25 26  1  0  0  0  0
 26 28  2  0  0  0  0
 28 27  1  0  0  0  0
 28 23  1  0  0  0  0
 29 27  2  0  0  0  0
 30 23  1  0  0  0  0
 30 21  1  6  0  0  0
 31 30  1  0  0  0  0
 32 33  1  0  0  0  0
 32 24  1  0  0  0  0
 34 32  2  0  0  0  0
M  END
>  <MODEL>
2

>  <REMARK>
 VINA RESULT:      -8.1      1.246      2.000
  Name = 
  5 active torsions:
  status: ('A' for Active; 'I' for Inactive)
    1  A    between atoms: C_3  and  N_13
    2  A    between atoms: C_3  and  C_25
    3  A    between atoms: C_7  and  C_11
    4  A    between atoms: C_8  and  C_18
    5  A    between atoms: C_18  and  C_30
                            x       y       z     vdW  Elec       q    Type
                         _______ _______ _______ _____ _____    ______ ____

>  <TORSDO>
F 5

$$$$
=
 OpenBabel11052420293D

 34 39  0  0  1  0  0  0  0  0999 V2000
  193.7640  174.5350  143.5130 C   0  0  0  0  0  0  0  0  0  0  0  0
  196.3070  176.6510  141.7160 C   0  0  0  0  0  2  0  0  0  0  0  0
  195.3910  176.7060  144.0250 C   0  0  0  0  0  3  0  0  0  0  0  0
  192.1820  173.6970  144.7040 C   0  0  0  0  0  0  0  0  0  0  0  0
  192.7630  173.6280  143.4660 N   0  0  0  0  0  0  0  0  0  0  0  0
  192.4440  175.2510  146.8560 C   0  0  0  0  0  3  0  0  0  0  0  0
  193.3670  176.4310  147.1950 C   0  0  0  0  0  3  0  0  0  0  0  0
  192.7930  174.6540  145.5180 C   0  0  0  0  0  0  0  0  0  0  0  0
  194.5400  176.2590  145.0470 C   0  0  0  0  0  0  0  0  0  0  0  0
  193.7830  175.1650  144.7680 C   0  0  2  0  0  3  0  0  0  0  0  0
  194.3250  176.9020  146.3590 C   0  0  0  0  0  3  0  0  0  0  0  0
  196.8530  175.6410  140.8230 N   0  0  0  0  0  2  0  0  0  0  0  0
  195.9860  175.5460  139.6490 C   0  0  2  0  0  3  0  0  0  0  0  0
  194.5500  175.1510  140.0230 C   0  0  0  0  0  2  0  0  0  0  0  0
  195.4190  176.0370  142.7640 C   0  0  0  0  0  0  0  0  0  0  0  0
  194.5240  174.2260  141.2320 C   0  0  0  0  0  2  0  0  0  0  0  0
  194.5600  174.9680  142.4980 N   0  0  0  0  0  0  0  0  0  0  0  0
  196.5750  174.5370  138.6750 C   0  0  0  0  0  2  0  0  0  0  0  0
  197.6390  175.1480  137.8930 N   0  0  0  0  0  2  0  0  0  0  0  0
  197.0600  175.5500  136.6240 C   0  0  0  0  0  1  0  0  0  0  0  0
  190.9580  172.9260  145.0710 C   0  0  0  0  0  2  0  0  0  0  0  0
  188.6890  175.3820  146.7050 C   0  0  0  0  0  3  0  0  0  0  0  0
  189.9580  175.0200  144.1440 C   0  0  0  0  0  2  0  0  0  0  0  0
  186.9680  178.0730  144.6900 C   0  0  0  0  0  0  0  0  0  0  0  0
  187.3450  177.2540  145.7640 C   0  0  0  0  0  3  0  0  0  0  0  0
  188.2900  176.2410  145.5790 C   0  0  0  0  0  0  0  0  0  0  0  0
  188.5090  176.8680  143.2450 C   0  0  0  0  0  3  0  0  0  0  0  0
  188.8720  176.0440  144.3130 C   0  0  0  0  0  0  0  0  0  0  0  0
  187.5550  177.8730  143.4310 C   0  0  0  0  0  3  0  0  0  0  0  0
  189.7350  173.8290  145.0810 C   0  0  2  0  0  3  0  0  0  0  0  0
  189.4050  174.2750  146.4850 C   0  0  0  0  0  3  0  0  0  0  0  0
  185.9670  179.1330  144.8870 C   0  0  0  0  0  0  0  0  0  0  0  0
  185.4330  179.3070  146.0140 O   0  0  0  0  0  1  0  0  0  0  0  0
  185.6010  179.9540  143.8260 O   0  0  0  0  0  0  0  0  0  0  0  0
  2 15  1  0  0  0  0
  3  9  1  0  0  0  0
  4 21  1  0  0  0  0
  4  8  2  0  0  0  0
  5  1  2  0  0  0  0
  5  4  1  0  0  0  0
  6  7  2  0  0  0  0
  8  6  1  0  0  0  0
  9 11  2  0  0  0  0
 10  1  1  6  0  0  0
 10  9  1  0  0  0  0
 10  8  1  0  0  0  0
 11  7  1  0  0  0  0
 12  2  1  0  0  0  0
 13 18  1  6  0  0  0
 13 14  1  0  0  0  0
 13 12  1  0  0  0  0
 14 16  1  0  0  0  0
 15  3  2  0  0  0  0
 16 17  1  0  0  0  0
 17 15  1  0  0  0  0
 17  1  1  0  0  0  0
 19 18  1  0  0  0  0
 20 19  1  0  0  0  0
 23 28  1  0  0  0  0
 23 30  1  0  0  0  0
 24 32  1  0  0  0  0
 24 25  1  0  0  0  0
 26 25  2  0  0  0  0
 26 22  1  0  0  0  0
 27 29  1  0  0  0  0
 27 28  2  0  0  0  0
 28 26  1  0  0  0  0
 29 24  2  0  0  0  0
 30 21  1  1  0  0  0
 30 31  1  0  0  0  0
 31 22  2  0  0  0  0
 32 33  1  0  0  0  0
 34 32  2  0  0  0  0
M  END
>  <MODEL>
3

>  <REMARK>
 VINA RESULT:      -8.0      3.424      4.392
  Name = 
  5 active torsions:
  status: ('A' for Active; 'I' for Inactive)
    1  A    between atoms: C_3  and  N_13
    2  A    between atoms: C_3  and  C_25
    3  A    between atoms: C_7  and  C_11
    4  A    between atoms: C_8  and  C_18
    5  A    between atoms: C_18  and  C_30
                            x       y       z     vdW  Elec       q    Type
                         _______ _______ _______ _____ _____    ______ ____

>  <TORSDO>
F 5

$$$$
=
 OpenBabel11052420293D

 34 39  0  0  1  0  0  0  0  0999 V2000
  189.8910  177.0070  143.8090 C   0  0  0  0  0  0  0  0  0  0  0  0
  186.2680  177.9190  144.2720 C   0  0  0  0  0  2  0  0  0  0  0  0
  188.1540  177.6290  145.8630 C   0  0  0  0  0  3  0  0  0  0  0  0
  191.9030  176.2540  143.8970 C   0  0  0  0  0  0  0  0  0  0  0  0
  190.8740  176.5050  143.0290 N   0  0  0  0  0  0  0  0  0  0  0  0
  192.2340  176.3220  146.5430 C   0  0  0  0  0  3  0  0  0  0  0  0
  191.3110  176.7080  147.7090 C   0  0  0  0  0  3  0  0  0  0  0  0
  191.5670  176.5710  145.2160 C   0  0  0  0  0  0  0  0  0  0  0  0
  189.4810  177.3100  146.1890 C   0  0  0  0  0  0  0  0  0  0  0  0
  190.3130  177.0470  145.1480 C   0  0  2  0  0  3  0  0  0  0  0  0
  190.0400  177.1530  147.5480 C   0  0  0  0  0  3  0  0  0  0  0  0
  186.0470  178.6190  143.0150 N   0  0  0  0  0  2  0  0  0  0  0  0
  185.7480  177.6280  141.9820 C   0  0  2  0  0  3  0  0  0  0  0  0
  186.8950  176.6250  141.7950 C   0  0  0  0  0  2  0  0  0  0  0  0
  187.7300  177.6450  144.5000 C   0  0  0  0  0  0  0  0  0  0  0  0
  188.2500  177.2750  142.0460 C   0  0  0  0  0  2  0  0  0  0  0  0
  188.6030  177.2850  143.4710 N   0  0  0  0  0  0  0  0  0  0  0  0
  185.4540  178.3460  140.6730 C   0  0  0  0  0  2  0  0  0  0  0  0
  184.2260  177.8390  140.0810 N   0  0  0  0  0  2  0  0  0  0  0  0
  183.1360  178.2290  140.9580 C   0  0  0  0  0  1  0  0  0  0  0  0
  193.1750  175.5940  143.4800 C   0  0  0  0  0  2  0  0  0  0  0  0
  192.9470  172.0700  144.6520 C   0  0  0  0  0  3  0  0  0  0  0  0
  194.9950  174.0500  144.2200 C   0  0  0  0  0  2  0  0  0  0  0  0
  195.9170  170.3540  146.2310 C   0  0  0  0  0  0  0  0  0  0  0  0
  194.6180  170.5990  145.7660 C   0  0  0  0  0  3  0  0  0  0  0  0
  194.3100  171.8120  145.1440 C   0  0  0  0  0  0  0  0  0  0  0  0
  196.6060  172.5430  145.4260 C   0  0  0  0  0  3  0  0  0  0  0  0
  195.3070  172.7910  144.9760 C   0  0  0  0  0  0  0  0  0  0  0  0
  196.9080  171.3340  146.0580 C   0  0  0  0  0  3  0  0  0  0  0  0
  193.5370  174.4670  144.4340 C   0  0  2  0  0  3  0  0  0  0  0  0
  192.5900  173.3020  144.2740 C   0  0  0  0  0  3  0  0  0  0  0  0
  196.2360  169.0790  146.8930 C   0  0  0  0  0  0  0  0  0  0  0  0
  195.3160  168.3140  147.2850 O   0  0  0  0  0  1  0  0  0  0  0  0
  197.5610  168.7070  147.0930 O   0  0  0  0  0  0  0  0  0  0  0  0
  2 15  1  0  0  0  0
  3  9  1  0  0  0  0
  4  8  2  0  0  0  0
  5  1  2  0  0  0  0
  5  4  1  0  0  0  0
  6  7  2  0  0  0  0
  8  6  1  0  0  0  0
  9 11  2  0  0  0  0
 10  1  1  6  0  0  0
 10  8  1  0  0  0  0
 10  9  1  0  0  0  0
 11  7  1  0  0  0  0
 12  2  1  0  0  0  0
 13 18  1  6  0  0  0
 13 12  1  0  0  0  0
 14 13  1  0  0  0  0
 14 16  1  0  0  0  0
 15  3  2  0  0  0  0
 16 17  1  0  0  0  0
 17  1  1  0  0  0  0
 17 15  1  0  0  0  0
 19 18  1  0  0  0  0
 19 20  1  0  0  0  0
 21  4  1  0  0  0  0
 22 26  1  0  0  0  0
 23 30  1  0  0  0  0
 23 28  1  0  0  0  0
 24 32  1  0  0  0  0
 25 24  2  0  0  0  0
 26 25  1  0  0  0  0
 27 29  2  0  0  0  0
 28 26  2  0  0  0  0
 28 27  1  0  0  0  0
 29 24  1  0  0  0  0
 30 21  1  6  0  0  0
 31 30  1  0  0  0  0
 31 22  2  0  0  0  0
 32 34  2  0  0  0  0
 32 33  1  0  0  0  0
M  END
>  <MODEL>
4

>  <REMARK>
 VINA RESULT:      -8.0      5.103      9.369
  Name = 
  5 active torsions:
  status: ('A' for Active; 'I' for Inactive)
    1  A    between atoms: C_3  and  N_13
    2  A    between atoms: C_3  and  C_25
    3  A    between atoms: C_7  and  C_11
    4  A    between atoms: C_8  and  C_18
    5  A    between atoms: C_18  and  C_30
                            x       y       z     vdW  Elec       q    Type
                         _______ _______ _______ _____ _____    ______ ____

>  <TORSDO>
F 5

$$$$
=
 OpenBabel11052420293D

 34 39  0  0  1  0  0  0  0  0999 V2000
  194.0060  174.8140  142.9940 C   0  0  0  0  0  0  0  0  0  0  0  0
  197.1400  176.2250  141.4560 C   0  0  0  0  0  2  0  0  0  0  0  0
  196.0950  176.4770  143.6960 C   0  0  0  0  0  3  0  0  0  0  0  0
  192.1750  174.3970  144.0410 C   0  0  0  0  0  0  0  0  0  0  0  0
  192.8110  174.2000  142.8450 N   0  0  0  0  0  0  0  0  0  0  0  0
  192.6650  175.7920  146.2620 C   0  0  0  0  0  3  0  0  0  0  0  0
  193.8330  176.6850  146.7060 C   0  0  0  0  0  3  0  0  0  0  0  0
  192.9490  175.1480  144.9300 C   0  0  0  0  0  0  0  0  0  0  0  0
  195.0820  176.2490  144.6400 C   0  0  0  0  0  0  0  0  0  0  0  0
  194.0910  175.3960  144.2690 C   0  0  2  0  0  3  0  0  0  0  0  0
  194.9410  176.9040  145.9570 C   0  0  0  0  0  3  0  0  0  0  0  0
  197.4720  175.1230  140.5670 N   0  0  0  0  0  2  0  0  0  0  0  0
  196.7030  175.2770  139.3330 C   0  0  2  0  0  3  0  0  0  0  0  0
  195.1890  175.2640  139.5920 C   0  0  0  0  0  2  0  0  0  0  0  0
  196.0450  175.8450  142.4170 C   0  0  0  0  0  0  0  0  0  0  0  0
  194.8320  174.3570  140.7620 C   0  0  0  0  0  2  0  0  0  0  0  0
  194.9620  175.0420  142.0530 N   0  0  0  0  0  0  0  0  0  0  0  0
  197.0830  174.1660  138.3650 C   0  0  0  0  0  2  0  0  0  0  0  0
  196.6040  174.4740  137.0270 N   0  0  0  0  0  2  0  0  0  0  0  0
  197.3070  175.6650  136.5840 C   0  0  0  0  0  1  0  0  0  0  0  0
  190.7690  173.9660  144.2940 C   0  0  0  0  0  2  0  0  0  0  0  0
  187.6890  175.6700  143.0900 C   0  0  0  0  0  3  0  0  0  0  0  0
  189.0920  175.3010  145.5790 C   0  0  0  0  0  2  0  0  0  0  0  0
  185.8010  178.0670  145.3150 C   0  0  0  0  0  0  0  0  0  0  0  0
  186.1900  177.3240  144.1920 C   0  0  0  0  0  3  0  0  0  0  0  0
  187.2790  176.4520  144.2670 C   0  0  0  0  0  0  0  0  0  0  0  0
  187.5910  177.0390  146.6010 C   0  0  0  0  0  3  0  0  0  0  0  0
  187.9860  176.3120  145.4760 C   0  0  0  0  0  0  0  0  0  0  0  0
  186.5080  177.9190  146.5180 C   0  0  0  0  0  3  0  0  0  0  0  0
  189.8220  175.1540  144.2400 C   0  0  2  0  0  3  0  0  0  0  0  0
  188.8570  175.0210  143.0870 C   0  0  0  0  0  3  0  0  0  0  0  0
  184.6580  178.9900  145.2290 C   0  0  0  0  0  0  0  0  0  0  0  0
  183.6900  178.8850  146.0280 O   0  0  0  0  0  1  0  0  0  0  0  0
  184.6370  179.9890  144.2620 O   0  0  0  0  0  0  0  0  0  0  0  0
  2 15  1  0  0  0  0
  3  9  1  0  0  0  0
  4 21  1  0  0  0  0
  4  8  2  0  0  0  0
  5  1  2  0  0  0  0
  5  4  1  0  0  0  0
  6  7  2  0  0  0  0
  8  6  1  0  0  0  0
  9 11  2  0  0  0  0
 10  1  1  6  0  0  0
 10  9  1  0  0  0  0
 10  8  1  0  0  0  0
 11  7  1  0  0  0  0
 12  2  1  0  0  0  0
 13 18  1  6  0  0  0
 13 14  1  0  0  0  0
 13 12  1  0  0  0  0
 14 16  1  0  0  0  0
 15  3  2  0  0  0  0
 16 17  1  0  0  0  0
 17 15  1  0  0  0  0
 17  1  1  0  0  0  0
 19 18  1  0  0  0  0
 20 19  1  0  0  0  0
 22 26  1  0  0  0  0
 24 29  1  0  0  0  0
 25 26  1  0  0  0  0
 25 24  2  0  0  0  0
 26 28  2  0  0  0  0
 28 23  1  0  0  0  0
 28 27  1  0  0  0  0
 29 27  2  0  0  0  0
 30 21  1  1  0  0  0
 30 23  1  0  0  0  0
 31 22  2  0  0  0  0
 31 30  1  0  0  0  0
 32 24  1  0  0  0  0
 32 33  1  0  0  0  0
 34 32  2  0  0  0  0
M  END
>  <MODEL>
5

>  <REMARK>
 VINA RESULT:      -7.9      3.574      4.551
  Name = 
  5 active torsions:
  status: ('A' for Active; 'I' for Inactive)
    1  A    between atoms: C_3  and  N_13
    2  A    between atoms: C_3  and  C_25
    3  A    between atoms: C_7  and  C_11
    4  A    between atoms: C_8  and  C_18
    5  A    between atoms: C_18  and  C_30
                            x       y       z     vdW  Elec       q    Type
                         _______ _______ _______ _____ _____    ______ ____

>  <TORSDO>
F 5

$$$$
=
 OpenBabel11052420293D

 34 39  0  0  1  0  0  0  0  0999 V2000
  193.5420  173.0100  144.6990 C   0  0  0  0  0  0  0  0  0  0  0  0
  196.8140  171.7930  146.1110 C   0  0  0  0  0  2  0  0  0  0  0  0
  195.8210  174.0560  145.8570 C   0  0  0  0  0  3  0  0  0  0  0  0
  191.9100  174.0200  143.7300 C   0  0  0  0  0  0  0  0  0  0  0  0
  192.4350  172.7770  143.9600 N   0  0  0  0  0  0  0  0  0  0  0  0
  192.6740  176.5340  144.1910 C   0  0  0  0  0  2  0  0  0  0  0  0
  193.9040  177.1510  144.8720 C   0  0  0  0  0  3  0  0  0  0  0  0
  192.6890  175.0320  144.2990 C   0  0  0  0  0  0  0  0  0  0  0  0
  194.8210  174.9460  145.4370 C   0  0  0  0  0  0  0  0  0  0  0  0
  193.7000  174.3900  144.9060 C   0  0  0  0  0  0  0  0  0  0  0  0
  194.8980  176.4220  145.4370 C   0  0  0  0  0  3  0  0  0  0  0  0
  196.3760  170.5010  146.6170 N   0  0  0  0  0  2  0  0  0  0  0  0
  196.4040  169.5400  145.5150 C   0  0  2  0  0  3  0  0  0  0  0  0
  195.4800  169.9590  144.3620 C   0  0  0  0  0  2  0  0  0  0  0  0
  195.6450  172.6480  145.7020 C   0  0  0  0  0  0  0  0  0  0  0  0
  194.2510  170.6990  144.8740 C   0  0  0  0  0  2  0  0  0  0  0  0
  194.5100  172.1300  145.0740 N   0  0  0  0  0  0  0  0  0  0  0  0
  196.0070  168.1680  146.0390 C   0  0  0  0  0  2  0  0  0  0  0  0
  195.7470  168.2270  147.4690 N   0  0  0  0  0  2  0  0  0  0  0  0
  194.3060  168.1720  147.6440 C   0  0  0  0  0  1  0  0  0  0  0  0
  190.7200  174.2510  142.8610 C   0  0  0  0  0  2  0  0  0  0  0  0
  189.1580  175.3480  146.0550 C   0  0  0  0  0  3  0  0  0  0  0  0
  189.1970  176.1840  143.2980 C   0  0  0  0  0  2  0  0  0  0  0  0
  186.4500  177.9800  146.0880 C   0  0  0  0  0  0  0  0  0  0  0  0
  187.3470  176.9920  146.5170 C   0  0  0  0  0  3  0  0  0  0  0  0
  188.2140  176.3850  145.6070 C   0  0  0  0  0  0  0  0  0  0  0  0
  187.3140  177.7640  143.8250 C   0  0  0  0  0  3  0  0  0  0  0  0
  188.1950  176.7690  144.2530 C   0  0  0  0  0  0  0  0  0  0  0  0
  186.4390  178.3610  144.7370 C   0  0  0  0  0  3  0  0  0  0  0  0
  189.5380  174.7410  143.6830 C   0  0  2  0  0  3  0  0  0  0  0  0
  189.8170  174.6050  145.1610 C   0  0  0  0  0  3  0  0  0  0  0  0
  185.5320  178.6130  147.0490 C   0  0  0  0  0  0  0  0  0  0  0  0
  185.9630  179.4400  147.8950 O   0  0  0  0  0  1  0  0  0  0  0  0
  184.1770  178.3000  147.0310 O   0  0  0  0  0  0  0  0  0  0  0  0
  1 10  1  0  0  0  0
  1 17  1  0  0  0  0
  2 12  1  0  0  0  0
  4  5  1  0  0  0  0
  4  8  2  0  0  0  0
  5  1  2  0  0  0  0
  6  8  1  0  0  0  0
  6  7  1  0  0  0  0
  7 11  2  0  0  0  0
  8 10  1  0  0  0  0
  9  3  1  0  0  0  0
 10  9  2  0  0  0  0
 11  9  1  0  0  0  0
 13 18  1  1  0  0  0
 13 12  1  0  0  0  0
 14 16  1  0  0  0  0
 14 13  1  0  0  0  0
 15  3  2  0  0  0  0
 15  2  1  0  0  0  0
 16 17  1  0  0  0  0
 17 15  1  0  0  0  0
 18 19  1  0  0  0  0
 19 20  1  0  0  0  0
 21  4  1  0  0  0  0
 23 30  1  0  0  0  0
 23 28  1  0  0  0  0
 24 25  1  0  0  0  0
 24 32  1  0  0  0  0
 26 22  1  0  0  0  0
 26 25  2  0  0  0  0
 27 28  2  0  0  0  0
 27 29  1  0  0  0  0
 28 26  1  0  0  0  0
 29 24  2  0  0  0  0
 30 21  1  6  0  0  0
 30 31  1  0  0  0  0
 31 22  2  0  0  0  0
 32 33  1  0  0  0  0
 34 32  2  0  0  0  0
M  END
>  <MODEL>
6

>  <REMARK>
 VINA RESULT:      -7.8      2.889      4.101
  Name = 
  5 active torsions:
  status: ('A' for Active; 'I' for Inactive)
    1  A    between atoms: C_3  and  N_13
    2  A    between atoms: C_3  and  C_25
    3  A    between atoms: C_7  and  C_11
    4  A    between atoms: C_8  and  C_18
    5  A    between atoms: C_18  and  C_30
                            x       y       z     vdW  Elec       q    Type
                         _______ _______ _______ _____ _____    ______ ____

>  <TORSDO>
F 5

$$$$
=
 OpenBabel11052420293D

 34 39  0  0  1  0  0  0  0  0999 V2000
  189.4210  174.8440  143.0460 C   0  0  0  0  0  0  0  0  0  0  0  0
  191.8200  171.9420  142.9990 C   0  0  0  0  0  2  0  0  0  0  0  0
  190.5890  173.0890  144.8280 C   0  0  0  0  0  3  0  0  0  0  0  0
  188.2590  176.6130  143.4260 C   0  0  0  0  0  0  0  0  0  0  0  0
  188.8760  175.9130  142.4240 N   0  0  0  0  0  0  0  0  0  0  0  0
  188.1370  176.4390  146.0860 C   0  0  0  0  0  3  0  0  0  0  0  0
  188.7300  175.4530  147.1030 C   0  0  0  0  0  3  0  0  0  0  0  0
  188.4320  176.0060  144.6740 C   0  0  0  0  0  0  0  0  0  0  0  0
  189.7360  174.0800  145.3360 C   0  0  0  0  0  0  0  0  0  0  0  0
  189.1520  174.9010  144.4230 C   0  0  2  0  0  3  0  0  0  0  0  0
  189.4740  174.3730  146.7600 C   0  0  0  0  0  3  0  0  0  0  0  0
  191.4950  171.4000  141.6890 N   0  0  0  0  0  2  0  0  0  0  0  0
  192.2500  172.1430  140.6810 C   0  0  2  0  0  3  0  0  0  0  0  0
  191.9110  173.6400  140.6950 C   0  0  0  0  0  2  0  0  0  0  0  0
  190.8250  172.9890  143.4240 C   0  0  0  0  0  0  0  0  0  0  0  0
  190.4570  173.8790  141.0780 C   0  0  0  0  0  2  0  0  0  0  0  0
  190.2660  173.9090  142.5340 N   0  0  0  0  0  0  0  0  0  0  0  0
  191.9690  171.5490  139.3090 C   0  0  0  0  0  2  0  0  0  0  0  0
  190.8640  170.6060  139.3810 N   0  0  0  0  0  2  0  0  0  0  0  0
  189.8740  171.0320  138.4080 C   0  0  0  0  0  1  0  0  0  0  0  0
  187.6010  177.9340  143.2090 C   0  0  0  0  0  2  0  0  0  0  0  0
  184.1210  178.9580  144.0410 C   0  0  0  0  0  3  0  0  0  0  0  0
  185.6150  178.1630  141.7090 C   0  0  0  0  0  2  0  0  0  0  0  0
  181.3310  178.5720  141.5270 C   0  0  0  0  0  0  0  0  0  0  0  0
  182.0150  178.8400  142.7200 C   0  0  0  0  0  3  0  0  0  0  0  0
  183.4010  178.6750  142.7900 C   0  0  0  0  0  0  0  0  0  0  0  0
  183.4390  177.9900  140.4620 C   0  0  0  0  0  3  0  0  0  0  0  0
  184.1160  178.2440  141.6570 C   0  0  0  0  0  0  0  0  0  0  0  0
  182.0510  178.1450  140.3990 C   0  0  0  0  0  3  0  0  0  0  0  0
  186.0920  177.7760  143.1120 C   0  0  2  0  0  3  0  0  0  0  0  0
  185.3960  178.5810  144.1830 C   0  0  0  0  0  3  0  0  0  0  0  0
  179.8700  178.7390  141.4590 C   0  0  0  0  0  0  0  0  0  0  0  0
  179.2700  178.6770  140.3540 O   0  0  0  0  0  0  0  0  0  0  0  0
  179.1380  178.9690  142.6190 O   0  0  0  0  0  1  0  0  0  0  0  0
  2 15  1  0  0  0  0
  3  9  1  0  0  0  0
  4  8  2  0  0  0  0
  5  1  2  0  0  0  0
  5  4  1  0  0  0  0
  6  7  2  0  0  0  0
  8  6  1  0  0  0  0
  9 11  2  0  0  0  0
 10  1  1  6  0  0  0
 10  8  1  0  0  0  0
 10  9  1  0  0  0  0
 11  7  1  0  0  0  0
 12  2  1  0  0  0  0
 13 18  1  6  0  0  0
 13 14  1  0  0  0  0
 13 12  1  0  0  0  0
 14 16  1  0  0  0  0
 15  3  2  0  0  0  0
 16 17  1  0  0  0  0
 17  1  1  0  0  0  0
 17 15  1  0  0  0  0
 18 19  1  0  0  0  0
 20 19  1  0  0  0  0
 21  4  1  0  0  0  0
 22 31  2  0  0  0  0
 23 30  1  0  0  0  0
 24 25  1  0  0  0  0
 25 26  2  0  0  0  0
 26 22  1  0  0  0  0
 27 28  2  0  0  0  0
 28 23  1  0  0  0  0
 28 26  1  0  0  0  0
 29 27  1  0  0  0  0
 29 24  2  0  0  0  0
 30 21  1  6  0  0  0
 30 31  1  0  0  0  0
 32 24  1  0  0  0  0
 32 34  1  0  0  0  0
 33 32  2  0  0  0  0
M  END
>  <MODEL>
7

>  <REMARK>
 VINA RESULT:      -7.7      2.578      3.898
  Name = 
  5 active torsions:
  status: ('A' for Active; 'I' for Inactive)
    1  A    between atoms: C_3  and  N_13
    2  A    between atoms: C_3  and  C_25
    3  A    between atoms: C_7  and  C_11
    4  A    between atoms: C_8  and  C_18
    5  A    between atoms: C_18  and  C_30
                            x       y       z     vdW  Elec       q    Type
                         _______ _______ _______ _____ _____    ______ ____

>  <TORSDO>
F 5

$$$$
=
 OpenBabel11052420293D

 34 39  0  0  1  0  0  0  0  0999 V2000
  193.0780  173.8730  143.8070 C   0  0  0  0  0  0  0  0  0  0  0  0
  194.8650  171.9820  141.0850 C   0  0  0  0  0  2  0  0  0  0  0  0
  192.5490  171.8730  141.9780 C   0  0  0  0  0  3  0  0  0  0  0  0
  191.8870  174.5740  145.4540 C   0  0  0  0  0  0  0  0  0  0  0  0
  193.1300  174.6800  144.8900 N   0  0  0  0  0  2  0  0  0  0  0  0
  189.7160  173.0820  145.0320 C   0  0  0  0  0  3  0  0  0  0  0  0
  189.3680  172.0000  143.9990 C   0  0  0  0  0  3  0  0  0  0  0  0
  191.0640  173.6900  144.7490 C   0  0  0  0  0  0  0  0  0  0  0  0
  191.5270  172.2530  142.8610 C   0  0  0  0  0  0  0  0  0  0  0  0
  191.8150  173.2650  143.7200 C   0  0  0  0  0  0  0  0  0  0  0  0
  190.2040  171.6110  143.0060 C   0  0  0  0  0  3  0  0  0  0  0  0
  195.7760  173.0270  140.6430 N   0  0  0  0  0  2  0  0  0  0  0  0
  196.9450  173.0220  141.5220 C   0  0  2  0  0  3  0  0  0  0  0  0
  196.5660  173.2840  142.9870 C   0  0  0  0  0  2  0  0  0  0  0  0
  193.8190  172.5240  142.0210 C   0  0  0  0  0  0  0  0  0  0  0  0
  195.3690  174.2200  143.0940 C   0  0  0  0  0  2  0  0  0  0  0  0
  194.0930  173.5030  142.9800 N   0  0  0  0  0  0  0  0  0  0  0  0
  197.9370  174.0680  141.0380 C   0  0  0  0  0  2  0  0  0  0  0  0
  197.2350  175.2160  140.4850 N   0  0  0  0  0  2  0  0  0  0  0  0
  197.9350  175.6010  139.2720 C   0  0  0  0  0  1  0  0  0  0  0  0
  191.5210  175.2300  146.7430 C   0  0  0  0  0  2  0  0  0  0  0  0
  189.3940  177.3590  144.5550 C   0  0  0  0  0  3  0  0  0  0  0  0
  189.0880  175.7650  146.9350 C   0  0  0  0  0  2  0  0  0  0  0  0
  185.9020  178.3410  145.6050 C   0  0  0  0  0  0  0  0  0  0  0  0
  187.0950  178.2580  144.8730 C   0  0  0  0  0  3  0  0  0  0  0  0
  188.1420  177.4490  145.3220 C   0  0  0  0  0  0  0  0  0  0  0  0
  186.8060  176.7770  147.2340 C   0  0  0  0  0  3  0  0  0  0  0  0
  187.9990  176.7080  146.5100 C   0  0  0  0  0  0  0  0  0  0  0  0
  185.7650  177.5970  146.7870 C   0  0  0  0  0  3  0  0  0  0  0  0
  190.4630  176.2990  146.5230 C   0  0  2  0  0  3  0  0  0  0  0  0
  190.4720  176.7800  145.0920 C   0  0  0  0  0  3  0  0  0  0  0  0
  184.8050  179.2010  145.1330 C   0  0  0  0  0  0  0  0  0  0  0  0
  183.6320  179.0330  145.5610 O   0  0  0  0  0  1  0  0  0  0  0  0
  185.0540  180.2080  144.2070 O   0  0  0  0  0  0  0  0  0  0  0  0
  1  5  1  0  0  0  0
  2 15  1  0  0  0  0
  3 15  2  0  0  0  0
  3  9  1  0  0  0  0
  4 21  1  0  0  0  0
  5  4  1  0  0  0  0
  7  6  2  0  0  0  0
  8  6  1  0  0  0  0
  8  4  2  0  0  0  0
  9 11  2  0  0  0  0
  9 10  1  0  0  0  0
 10  1  2  0  0  0  0
 10  8  1  0  0  0  0
 11  7  1  0  0  0  0
 12  2  1  0  0  0  0
 12 13  1  0  0  0  0
 13 18  1  6  0  0  0
 13 14  1  0  0  0  0
 14 16  1  0  0  0  0
 15 17  1  0  0  0  0
 17 16  1  0  0  0  0
 17  1  1  0  0  0  0
 19 18  1  0  0  0  0
 20 19  1  0  0  0  0
 22 31  2  0  0  0  0
 22 26  1  0  0  0  0
 24 29  1  0  0  0  0
 25 26  1  0  0  0  0
 25 24  2  0  0  0  0
 26 28  2  0  0  0  0
 28 23  1  0  0  0  0
 28 27  1  0  0  0  0
 29 27  2  0  0  0  0
 30 21  1  6  0  0  0
 30 23  1  0  0  0  0
 31 30  1  0  0  0  0
 32 33  1  0  0  0  0
 32 24  1  0  0  0  0
 34 32  2  0  0  0  0
M  END
>  <MODEL>
8

>  <REMARK>
 VINA RESULT:      -7.6      2.659      4.574
  Name = 
  5 active torsions:
  status: ('A' for Active; 'I' for Inactive)
    1  A    between atoms: C_3  and  N_13
    2  A    between atoms: C_3  and  C_25
    3  A    between atoms: C_7  and  C_11
    4  A    between atoms: C_8  and  C_18
    5  A    between atoms: C_18  and  C_30
                            x       y       z     vdW  Elec       q    Type
                         _______ _______ _______ _____ _____    ______ ____

>  <TORSDO>
F 5

$$$$
=
 OpenBabel11052420293D

 34 39  0  0  1  0  0  0  0  0999 V2000
  194.9930  174.8470  142.5100 C   0  0  0  0  0  0  0  0  0  0  0  0
  197.3540  172.9000  140.3170 C   0  0  0  0  0  2  0  0  0  0  0  0
  196.0700  172.3090  142.3610 C   0  0  0  0  0  3  0  0  0  0  0  0
  193.8400  175.7570  144.0810 C   0  0  0  0  0  0  0  0  0  0  0  0
  194.4850  176.0360  142.9060 N   0  0  0  0  0  0  0  0  0  0  0  0
  193.6160  173.6350  145.6830 C   0  0  0  0  0  3  0  0  0  0  0  0
  194.1580  172.2000  145.6090 C   0  0  0  0  0  3  0  0  0  0  0  0
  193.9590  174.4100  144.4380 C   0  0  0  0  0  0  0  0  0  0  0  0
  195.2110  172.6040  143.4310 C   0  0  0  0  0  0  0  0  0  0  0  0
  194.6730  173.8520  143.4470 C   0  0  2  0  0  3  0  0  0  0  0  0
  194.9000  171.7270  144.5780 C   0  0  0  0  0  3  0  0  0  0  0  0
  197.0710  173.5490  139.0460 N   0  0  0  0  0  2  0  0  0  0  0  0
  197.8740  174.7680  138.9620 C   0  0  2  0  0  3  0  0  0  0  0  0
  197.5540  175.7490  140.1000 C   0  0  0  0  0  2  0  0  0  0  0  0
  196.3570  173.2980  141.3720 C   0  0  0  0  0  0  0  0  0  0  0  0
  196.0890  175.6680  140.5100 C   0  0  0  0  0  2  0  0  0  0  0  0
  195.8450  174.5930  141.4800 N   0  0  0  0  0  0  0  0  0  0  0  0
  197.6370  175.4300  137.6130 C   0  0  0  0  0  2  0  0  0  0  0  0
  196.6990  174.6480  136.8230 N   0  0  0  0  0  2  0  0  0  0  0  0
  195.9760  175.5780  135.9740 C   0  0  0  0  0  1  0  0  0  0  0  0
  193.2080  176.8080  144.9300 C   0  0  0  0  0  2  0  0  0  0  0  0
  190.0360  176.8840  146.8750 C   0  0  0  0  0  3  0  0  0  0  0  0
  190.9270  177.5350  144.2130 C   0  0  0  0  0  2  0  0  0  0  0  0
  186.7260  177.5010  145.1660 C   0  0  0  0  0  0  0  0  0  0  0  0
  187.6760  177.2100  146.1540 C   0  0  0  0  0  3  0  0  0  0  0  0
  189.0370  177.1870  145.8380 C   0  0  0  0  0  0  0  0  0  0  0  0
  188.5160  177.7690  143.5410 C   0  0  0  0  0  3  0  0  0  0  0  0
  189.4590  177.4640  144.5250 C   0  0  0  0  0  0  0  0  0  0  0  0
  187.1550  177.7790  143.8580 C   0  0  0  0  0  3  0  0  0  0  0  0
  191.7170  176.5530  145.0840 C   0  0  2  0  0  3  0  0  0  0  0  0
  191.3040  176.6310  146.5340 C   0  0  0  0  0  3  0  0  0  0  0  0
  185.2930  177.5160  145.5010 C   0  0  0  0  0  0  0  0  0  0  0  0
  184.4930  178.2440  144.8550 O   0  0  0  0  0  0  0  0  0  0  0  0
  184.8090  176.7250  146.5370 O   0  0  0  0  0  1  0  0  0  0  0  0
  1  5  2  0  0  0  0
  2 15  1  0  0  0  0
  3  9  1  0  0  0  0
  4  8  2  0  0  0  0
  4 21  1  0  0  0  0
  5  4  1  0  0  0  0
  7  6  2  0  0  0  0
  8  6  1  0  0  0  0
  9 10  1  0  0  0  0
  9 11  2  0  0  0  0
 10  1  1  1  0  0  0
 10  8  1  0  0  0  0
 11  7  1  0  0  0  0
 12  2  1  0  0  0  0
 13 18  1  6  0  0  0
 13 12  1  0  0  0  0
 13 14  1  0  0  0  0
 14 16  1  0  0  0  0
 15 17  1  0  0  0  0
 15  3  2  0  0  0  0
 16 17  1  0  0  0  0
 17  1  1  0  0  0  0
 19 18  1  0  0  0  0
 20 19  1  0  0  0  0
 23 28  1  0  0  0  0
 23 30  1  0  0  0  0
 24 32  1  0  0  0  0
 24 25  1  0  0  0  0
 26 25  2  0  0  0  0
 26 22  1  0  0  0  0
 27 29  1  0  0  0  0
 27 28  2  0  0  0  0
 28 26  1  0  0  0  0
 29 24  2  0  0  0  0
 30 21  1  1  0  0  0
 30 31  1  0  0  0  0
 31 22  2  0  0  0  0
 32 34  1  0  0  0  0
 33 32  2  0  0  0  0
M  END
>  <MODEL>
9

>  <REMARK>
 VINA RESULT:      -7.6      3.853      5.098
  Name = 
  5 active torsions:
  status: ('A' for Active; 'I' for Inactive)
    1  A    between atoms: C_3  and  N_13
    2  A    between atoms: C_3  and  C_25
    3  A    between atoms: C_7  and  C_11
    4  A    between atoms: C_8  and  C_18
    5  A    between atoms: C_18  and  C_30
                            x       y       z     vdW  Elec       q    Type
                         _______ _______ _______ _____ _____    ______ ____

>  <TORSDO>
F 5

$$$$
