=
 OpenBabel11052418263D

 27 29  0  0  1  0  0  0  0  0999 V2000
  188.2090  176.4980  145.9320 C   0  0  2  0  0  3  0  0  0  0  0  0
  184.6560  178.4580  147.3630 C   0  0  0  0  0  3  0  0  0  0  0  0
  186.9590  177.1550  146.4390 C   0  0  0  0  0  0  0  0  0  0  0  0
  185.6870  176.6350  146.1510 C   0  0  0  0  0  3  0  0  0  0  0  0
  184.5400  177.2840  146.6140 C   0  0  0  0  0  3  0  0  0  0  0  0
  185.9190  178.9830  147.6480 C   0  0  0  0  0  3  0  0  0  0  0  0
  187.0680  178.3340  147.1850 C   0  0  0  0  0  3  0  0  0  0  0  0
  189.7170  177.4360  146.3690 S   0  0  0  0  0  0  0  0  0  0  0  0
  192.9380  174.7740  146.5200 C   0  0  0  0  0  2  0  0  0  0  0  0
  193.7610  175.4940  145.4560 C   0  0  0  0  0  2  0  0  0  0  0  0
  190.8950  176.1700  145.7750 C   0  0  1  0  0  3  0  0  0  0  0  0
  191.1570  175.2890  148.0660 C   0  0  0  0  0  2  0  0  0  0  0  0
  192.8830  175.8470  144.2630 C   0  0  0  0  0  2  0  0  0  0  0  0
  191.7860  176.8060  144.7090 C   0  0  0  0  0  2  0  0  0  0  0  0
  191.7260  175.5770  146.8950 C   0  0  0  0  0  0  0  0  0  0  0  0
  188.1470  176.2490  144.4990 N   0  0  0  0  0  2  0  0  0  0  0  0
  188.3130  177.5340  143.8410 C   0  0  0  0  0  2  0  0  0  0  0  0
  185.0190  178.8000  142.4890 C   0  0  0  0  0  3  0  0  0  0  0  0
  183.9560  178.5620  140.3430 O   0  0  0  0  0  1  0  0  0  0  0  0
  186.1100  177.5310  140.7330 C   0  0  0  0  0  0  0  0  0  0  0  0
  186.0820  177.0560  139.4610 F   0  0  0  0  0  0  0  0  0  0  0  0
  187.1990  177.2600  141.5970 C   0  0  0  0  0  0  0  0  0  0  0  0
  185.0280  178.2970  141.1870 C   0  0  0  0  0  0  0  0  0  0  0  0
  187.1710  177.7710  142.9090 C   0  0  0  0  0  0  0  0  0  0  0  0
  186.0870  178.5390  143.3470 C   0  0  0  0  0  3  0  0  0  0  0  0
  188.3000  175.0890  141.0150 C   0  0  0  0  0  1  0  0  0  0  0  0
  188.3120  176.4970  141.2030 O   0  0  0  0  0  0  0  0  0  0  0  0
  1 16  1  6  0  0  0
  1  8  1  0  0  0  0
  1  3  1  0  0  0  0
  2  6  1  0  0  0  0
  3  7  1  0  0  0  0
  4  3  2  0  0  0  0
  4  5  1  0  0  0  0
  5  2  2  0  0  0  0
  7  6  2  0  0  0  0
  9 15  1  0  0  0  0
 10  9  1  0  0  0  0
 11  8  1  1  0  0  0
 11 15  1  0  0  0  0
 13 14  1  0  0  0  0
 13 10  1  0  0  0  0
 14 11  1  0  0  0  0
 15 12  2  0  0  0  0
 17 16  1  0  0  0  0
 18 25  1  0  0  0  0
 19 23  1  0  0  0  0
 20 23  1  0  0  0  0
 20 22  2  0  0  0  0
 21 20  1  0  0  0  0
 22 24  1  0  0  0  0
 23 18  2  0  0  0  0
 24 25  2  0  0  0  0
 24 17  1  0  0  0  0
 26 27  1  0  0  0  0
 27 22  1  0  0  0  0
M  END
>  <MODEL>
1

>  <REMARK>
 VINA RESULT:      -7.4      0.000      0.000
  Name = 
  7 active torsions:
  status: ('A' for Active; 'I' for Inactive)
    1  A    between atoms: S_1  and  C_15
    2  A    between atoms: S_1  and  C_18
    3  A    between atoms: N_2  and  C_6
    4  A    between atoms: N_2  and  C_15
    5  A    between atoms: C_6  and  C_17
    6  A    between atoms: C_9  and  C_15
    7  A    between atoms: C_14  and  O_19
                            x       y       z     vdW  Elec       q    Type
                         _______ _______ _______ _____ _____    ______ ____

>  <TORSDO>
F 7

$$$$
=
 OpenBabel11052418263D

 27 29  0  0  1  0  0  0  0  0999 V2000
  187.9250  176.4410  143.5530 C   0  0  2  0  0  3  0  0  0  0  0  0
  189.3450  172.9030  141.5560 C   0  0  0  0  0  3  0  0  0  0  0  0
  188.4120  175.1910  142.8800 C   0  0  0  0  0  0  0  0  0  0  0  0
  189.1980  174.2480  143.5620 C   0  0  0  0  0  3  0  0  0  0  0  0
  189.6600  173.1070  142.9020 C   0  0  0  0  0  3  0  0  0  0  0  0
  188.5680  173.8410  140.8700 C   0  0  0  0  0  3  0  0  0  0  0  0
  188.1050  174.9830  141.5310 C   0  0  0  0  0  3  0  0  0  0  0  0
  186.3010  176.9890  142.9150 S   0  0  0  0  0  0  0  0  0  0  0  0
  185.5210  179.2600  146.3380 C   0  0  0  0  0  2  0  0  0  0  0  0
  186.2210  178.3040  147.2990 C   0  0  0  0  0  2  0  0  0  0  0  0
  185.5930  177.3950  144.5510 C   0  0  1  0  0  3  0  0  0  0  0  0
  185.5700  179.7960  143.9850 C   0  0  0  0  0  2  0  0  0  0  0  0
  185.8090  176.8680  147.0050 C   0  0  0  0  0  2  0  0  0  0  0  0
  186.2520  176.4940  145.5950 C   0  0  0  0  0  2  0  0  0  0  0  0
  185.7600  178.8570  144.9110 C   0  0  0  0  0  0  0  0  0  0  0  0
  188.9040  177.5140  143.4760 N   0  0  0  0  0  2  0  0  0  0  0  0
  189.3160  177.8080  144.8390 C   0  0  0  0  0  2  0  0  0  0  0  0
  192.9470  176.8100  144.5270 C   0  0  0  0  0  3  0  0  0  0  0  0
  194.3540  175.3970  145.8750 O   0  0  0  0  0  1  0  0  0  0  0  0
  192.0380  175.7210  146.4950 C   0  0  0  0  0  0  0  0  0  0  0  0
  192.2380  174.9010  147.5590 F   0  0  0  0  0  0  0  0  0  0  0  0
  190.7740  176.3080  146.2440 C   0  0  0  0  0  0  0  0  0  0  0  0
  193.1130  175.9750  145.6330 C   0  0  0  0  0  0  0  0  0  0  0  0
  190.6230  177.1450  145.1220 C   0  0  0  0  0  0  0  0  0  0  0  0
  191.7060  177.3940  144.2720 C   0  0  0  0  0  3  0  0  0  0  0  0
  189.0480  174.8270  147.2880 C   0  0  0  0  0  1  0  0  0  0  0  0
  189.6560  176.0920  147.0690 O   0  0  0  0  0  0  0  0  0  0  0  0
  1  8  1  6  0  0  0
  2  5  1  0  0  0  0
  3  1  1  0  0  0  0
  3  4  1  0  0  0  0
  5  4  2  0  0  0  0
  6  7  1  0  0  0  0
  6  2  2  0  0  0  0
  7  3  2  0  0  0  0
  9 10  1  0  0  0  0
 11  8  1  6  0  0  0
 11 15  1  0  0  0  0
 11 14  1  0  0  0  0
 12 15  2  0  0  0  0
 13 10  1  0  0  0  0
 14 13  1  0  0  0  0
 15  9  1  0  0  0  0
 16  1  1  0  0  0  0
 16 17  1  0  0  0  0
 17 24  1  0  0  0  0
 18 23  1  0  0  0  0
 20 21  1  0  0  0  0
 22 20  1  0  0  0  0
 22 27  1  0  0  0  0
 23 19  1  0  0  0  0
 23 20  2  0  0  0  0
 24 22  2  0  0  0  0
 25 18  2  0  0  0  0
 25 24  1  0  0  0  0
 27 26  1  0  0  0  0
M  END
>  <MODEL>
2

>  <REMARK>
 VINA RESULT:      -7.4      3.400      7.153
  Name = 
  7 active torsions:
  status: ('A' for Active; 'I' for Inactive)
    1  A    between atoms: S_1  and  C_15
    2  A    between atoms: S_1  and  C_18
    3  A    between atoms: N_2  and  C_6
    4  A    between atoms: N_2  and  C_15
    5  A    between atoms: C_6  and  C_17
    6  A    between atoms: C_9  and  C_15
    7  A    between atoms: C_14  and  O_19
                            x       y       z     vdW  Elec       q    Type
                         _______ _______ _______ _____ _____    ______ ____

>  <TORSDO>
F 7

$$$$
=
 OpenBabel11052418263D

 27 29  0  0  1  0  0  0  0  0999 V2000
  189.1270  176.3310  145.2320 C   0  0  2  0  0  3  0  0  0  0  0  0
  189.5730  172.3980  143.5450 C   0  0  0  0  0  3  0  0  0  0  0  0
  189.2950  174.9710  144.6190 C   0  0  0  0  0  0  0  0  0  0  0  0
  188.9400  174.7190  143.2850 C   0  0  0  0  0  3  0  0  0  0  0  0
  189.0810  173.4360  142.7500 C   0  0  0  0  0  3  0  0  0  0  0  0
  189.9220  172.6420  144.8760 C   0  0  0  0  0  3  0  0  0  0  0  0
  189.7810  173.9250  145.4120 C   0  0  0  0  0  3  0  0  0  0  0  0
  188.4160  177.5410  144.0590 S   0  0  0  0  0  0  0  0  0  0  0  0
  184.4590  178.5690  144.9360 C   0  0  0  0  0  2  0  0  0  0  0  0
  184.5560  178.2320  146.4210 C   0  0  0  0  0  2  0  0  0  0  0  0
  186.6800  177.2980  144.5810 C   0  0  1  0  0  3  0  0  0  0  0  0
  185.9460  179.1510  143.1260 C   0  0  0  0  0  2  0  0  0  0  0  0
  185.2460  176.8870  146.6100 C   0  0  0  0  0  2  0  0  0  0  0  0
  186.6700  176.9710  146.0740 C   0  0  0  0  0  2  0  0  0  0  0  0
  185.8090  178.5000  144.2810 C   0  0  0  0  0  0  0  0  0  0  0  0
  190.3720  176.8260  145.8010 N   0  0  0  0  0  2  0  0  0  0  0  0
  191.2530  177.1280  144.6860 C   0  0  0  0  0  2  0  0  0  0  0  0
  194.3080  175.7940  146.4670 C   0  0  0  0  0  3  0  0  0  0  0  0
  196.2730  174.6570  145.6690 O   0  0  0  0  0  1  0  0  0  0  0  0
  194.5630  175.3370  144.0970 C   0  0  0  0  0  0  0  0  0  0  0  0
  195.3150  174.8110  143.0960 F   0  0  0  0  0  0  0  0  0  0  0  0
  193.3180  175.9580  143.8370 C   0  0  0  0  0  0  0  0  0  0  0  0
  195.0490  175.2620  145.4100 C   0  0  0  0  0  0  0  0  0  0  0  0
  192.5850  176.4930  144.9130 C   0  0  0  0  0  0  0  0  0  0  0  0
  193.0790  176.4060  146.2200 C   0  0  0  0  0  3  0  0  0  0  0  0
  192.3180  174.9700  141.7660 C   0  0  0  0  0  1  0  0  0  0  0  0
  192.7760  176.0670  142.5440 O   0  0  0  0  0  0  0  0  0  0  0  0
  1  8  1  6  0  0  0
  1 16  1  0  0  0  0
  2  6  1  0  0  0  0
  3  1  1  0  0  0  0
  3  7  1  0  0  0  0
  4  3  2  0  0  0  0
  5  4  1  0  0  0  0
  5  2  2  0  0  0  0
  6  7  2  0  0  0  0
  9 10  1  0  0  0  0
 10 13  1  0  0  0  0
 11  8  1  1  0  0  0
 11 14  1  0  0  0  0
 12 15  2  0  0  0  0
 14 13  1  0  0  0  0
 15 11  1  0  0  0  0
 15  9  1  0  0  0  0
 17 24  1  0  0  0  0
 17 16  1  0  0  0  0
 20 23  1  0  0  0  0
 21 20  1  0  0  0  0
 22 20  2  0  0  0  0
 22 24  1  0  0  0  0
 23 19  1  0  0  0  0
 23 18  2  0  0  0  0
 24 25  2  0  0  0  0
 25 18  1  0  0  0  0
 26 27  1  0  0  0  0
 27 22  1  0  0  0  0
M  END
>  <MODEL>
3

>  <REMARK>
 VINA RESULT:      -7.1      3.376      7.447
  Name = 
  7 active torsions:
  status: ('A' for Active; 'I' for Inactive)
    1  A    between atoms: S_1  and  C_15
    2  A    between atoms: S_1  and  C_18
    3  A    between atoms: N_2  and  C_6
    4  A    between atoms: N_2  and  C_15
    5  A    between atoms: C_6  and  C_17
    6  A    between atoms: C_9  and  C_15
    7  A    between atoms: C_14  and  O_19
                            x       y       z     vdW  Elec       q    Type
                         _______ _______ _______ _____ _____    ______ ____

>  <TORSDO>
F 7

$$$$
=
 OpenBabel11052418263D

 27 29  0  0  1  0  0  0  0  0999 V2000
  187.8690  176.7330  145.1250 C   0  0  2  0  0  3  0  0  0  0  0  0
  184.1660  178.8090  145.8260 C   0  0  0  0  0  3  0  0  0  0  0  0
  186.5810  177.4530  145.3980 C   0  0  0  0  0  0  0  0  0  0  0  0
  185.6360  176.9490  146.3070 C   0  0  0  0  0  3  0  0  0  0  0  0
  184.4340  177.6280  146.5210 C   0  0  0  0  0  3  0  0  0  0  0  0
  185.1000  179.3130  144.9160 C   0  0  0  0  0  3  0  0  0  0  0  0
  186.3030  178.6340  144.7020 C   0  0  0  0  0  3  0  0  0  0  0  0
  188.5200  175.8820  146.6070 S   0  0  0  0  0  0  0  0  0  0  0  0
  192.1890  174.1450  145.6070 C   0  0  0  0  0  2  0  0  0  0  0  0
  192.9850  174.8760  146.6830 C   0  0  0  0  0  2  0  0  0  0  0  0
  190.2500  175.8010  146.0220 C   0  0  1  0  0  3  0  0  0  0  0  0
  189.8990  173.5050  145.1900 C   0  0  0  0  0  2  0  0  0  0  0  0
  192.6130  176.3530  146.6990 C   0  0  0  0  0  2  0  0  0  0  0  0
  191.1380  176.4980  147.0540 C   0  0  0  0  0  2  0  0  0  0  0  0
  190.7160  174.3810  145.7760 C   0  0  0  0  0  0  0  0  0  0  0  0
  188.8710  177.6150  144.5480 N   0  0  0  0  0  2  0  0  0  0  0  0
  188.9120  177.3320  143.1230 C   0  0  0  0  0  2  0  0  0  0  0  0
  192.6100  176.6200  142.8070 C   0  0  0  0  0  3  0  0  0  0  0  0
  193.8210  174.7220  141.9590 O   0  0  0  0  0  1  0  0  0  0  0  0
  191.4020  174.7060  141.9350 C   0  0  0  0  0  0  0  0  0  0  0  0
  191.4440  173.4690  141.3740 F   0  0  0  0  0  0  0  0  0  0  0  0
  190.1710  175.3480  142.2120 C   0  0  0  0  0  0  0  0  0  0  0  0
  192.6110  175.3480  142.2330 C   0  0  0  0  0  0  0  0  0  0  0  0
  190.1870  176.6330  142.7870 C   0  0  0  0  0  0  0  0  0  0  0  0
  191.4020  177.2610  143.0850 C   0  0  0  0  0  3  0  0  0  0  0  0
  188.4330  174.4870  140.6300 C   0  0  0  0  0  1  0  0  0  0  0  0
  188.9250  174.7590  141.9350 O   0  0  0  0  0  0  0  0  0  0  0  0
  1 16  1  1  0  0  0
  1  3  1  0  0  0  0
  1  8  1  0  0  0  0
  2  5  1  0  0  0  0
  3  4  1  0  0  0  0
  4  5  2  0  0  0  0
  6  2  2  0  0  0  0
  7  6  1  0  0  0  0
  7  3  2  0  0  0  0
  9 15  1  0  0  0  0
  9 10  1  0  0  0  0
 10 13  1  0  0  0  0
 11  8  1  1  0  0  0
 11 14  1  0  0  0  0
 12 15  2  0  0  0  0
 13 14  1  0  0  0  0
 15 11  1  0  0  0  0
 17 16  1  0  0  0  0
 18 25  1  0  0  0  0
 19 23  1  0  0  0  0
 20 22  2  0  0  0  0
 20 23  1  0  0  0  0
 21 20  1  0  0  0  0
 22 24  1  0  0  0  0
 23 18  2  0  0  0  0
 24 25  2  0  0  0  0
 24 17  1  0  0  0  0
 26 27  1  0  0  0  0
 27 22  1  0  0  0  0
M  END
>  <MODEL>
4

>  <REMARK>
 VINA RESULT:      -7.1      2.501      4.065
  Name = 
  7 active torsions:
  status: ('A' for Active; 'I' for Inactive)
    1  A    between atoms: S_1  and  C_15
    2  A    between atoms: S_1  and  C_18
    3  A    between atoms: N_2  and  C_6
    4  A    between atoms: N_2  and  C_15
    5  A    between atoms: C_6  and  C_17
    6  A    between atoms: C_9  and  C_15
    7  A    between atoms: C_14  and  O_19
                            x       y       z     vdW  Elec       q    Type
                         _______ _______ _______ _____ _____    ______ ____

>  <TORSDO>
F 7

$$$$
=
 OpenBabel11052418263D

 27 29  0  0  1  0  0  0  0  0999 V2000
  189.0580  175.2810  141.7250 C   0  0  2  0  0  3  0  0  0  0  0  0
  189.0670  172.0630  138.8680 C   0  0  0  0  0  3  0  0  0  0  0  0
  189.0560  174.1400  140.7510 C   0  0  0  0  0  0  0  0  0  0  0  0
  189.7380  172.9430  141.0210 C   0  0  0  0  0  3  0  0  0  0  0  0
  189.7410  171.9080  140.0830 C   0  0  0  0  0  3  0  0  0  0  0  0
  188.3910  173.2550  138.5920 C   0  0  0  0  0  3  0  0  0  0  0  0
  188.3880  174.2910  139.5300 C   0  0  0  0  0  3  0  0  0  0  0  0
  190.5530  175.2940  142.7790 S   0  0  0  0  0  0  0  0  0  0  0  0
  189.5940  176.9090  146.5150 C   0  0  0  0  0  2  0  0  0  0  0  0
  189.9520  175.6530  147.3030 C   0  0  0  0  0  2  0  0  0  0  0  0
  189.6560  175.4830  144.3610 C   0  0  1  0  0  3  0  0  0  0  0  0
  190.1300  177.9040  144.3820 C   0  0  0  0  0  2  0  0  0  0  0  0
  189.3620  174.4230  146.6270 C   0  0  0  0  0  2  0  0  0  0  0  0
  189.9700  174.2700  145.2370 C   0  0  0  0  0  2  0  0  0  0  0  0
  190.0010  176.7740  145.0760 C   0  0  0  0  0  0  0  0  0  0  0  0
  187.8500  175.3050  142.5350 N   0  0  0  0  0  2  0  0  0  0  0  0
  187.0330  176.4000  142.0410 C   0  0  0  0  0  2  0  0  0  0  0  0
  185.6490  176.9650  145.5120 C   0  0  0  0  0  3  0  0  0  0  0  0
  183.9570  178.4570  146.3520 O   0  0  0  0  0  1  0  0  0  0  0  0
  184.4900  178.4600  143.9910 C   0  0  0  0  0  0  0  0  0  0  0  0
  183.5530  179.4260  143.8100 F   0  0  0  0  0  0  0  0  0  0  0  0
  185.2440  177.9500  142.9060 C   0  0  0  0  0  0  0  0  0  0  0  0
  184.6970  177.9610  145.2850 C   0  0  0  0  0  0  0  0  0  0  0  0
  186.1960  176.9430  143.1520 C   0  0  0  0  0  0  0  0  0  0  0  0
  186.3970  176.4580  144.4490 C   0  0  0  0  0  3  0  0  0  0  0  0
  183.9050  178.2300  140.8100 C   0  0  0  0  0  1  0  0  0  0  0  0
  185.0820  178.4060  141.5860 O   0  0  0  0  0  0  0  0  0  0  0  0
  1 16  1  1  0  0  0
  1  8  1  0  0  0  0
  2  5  1  0  0  0  0
  3  4  1  0  0  0  0
  3  1  1  0  0  0  0
  5  4  2  0  0  0  0
  6  2  2  0  0  0  0
  6  7  1  0  0  0  0
  7  3  2  0  0  0  0
  9 10  1  0  0  0  0
 11  8  1  6  0  0  0
 11 15  1  0  0  0  0
 11 14  1  0  0  0  0
 12 15  2  0  0  0  0
 13 10  1  0  0  0  0
 14 13  1  0  0  0  0
 15  9  1  0  0  0  0
 17 16  1  0  0  0  0
 17 24  1  0  0  0  0
 20 23  2  0  0  0  0
 21 20  1  0  0  0  0
 22 24  2  0  0  0  0
 22 20  1  0  0  0  0
 23 18  1  0  0  0  0
 23 19  1  0  0  0  0
 24 25  1  0  0  0  0
 25 18  2  0  0  0  0
 26 27  1  0  0  0  0
 27 22  1  0  0  0  0
M  END
>  <MODEL>
5

>  <REMARK>
 VINA RESULT:      -7.0      2.585      5.594
  Name = 
  7 active torsions:
  status: ('A' for Active; 'I' for Inactive)
    1  A    between atoms: S_1  and  C_15
    2  A    between atoms: S_1  and  C_18
    3  A    between atoms: N_2  and  C_6
    4  A    between atoms: N_2  and  C_15
    5  A    between atoms: C_6  and  C_17
    6  A    between atoms: C_9  and  C_15
    7  A    between atoms: C_14  and  O_19
                            x       y       z     vdW  Elec       q    Type
                         _______ _______ _______ _____ _____    ______ ____

>  <TORSDO>
F 7

$$$$
=
 OpenBabel11052418263D

 27 29  0  0  1  0  0  0  0  0999 V2000
  188.4740  177.4050  144.5390 C   0  0  2  0  0  3  0  0  0  0  0  0
  190.5410  175.2500  147.6380 C   0  0  0  0  0  3  0  0  0  0  0  0
  189.1880  176.6750  145.6390 C   0  0  0  0  0  0  0  0  0  0  0  0
  190.0510  177.3410  146.5230 C   0  0  0  0  0  3  0  0  0  0  0  0
  190.7230  176.6300  147.5210 C   0  0  0  0  0  3  0  0  0  0  0  0
  189.6870  174.5800  146.7570 C   0  0  0  0  0  3  0  0  0  0  0  0
  189.0140  175.2910  145.7590 C   0  0  0  0  0  3  0  0  0  0  0  0
  187.3010  176.3310  143.6360 S   0  0  0  0  0  0  0  0  0  0  0  0
  184.6930  179.3770  144.8200 C   0  0  0  0  0  2  0  0  0  0  0  0
  184.7550  179.0410  146.3070 C   0  0  0  0  0  2  0  0  0  0  0  0
  185.7900  177.0890  144.3340 C   0  0  1  0  0  3  0  0  0  0  0  0
  186.0390  179.0410  142.8450 C   0  0  0  0  0  2  0  0  0  0  0  0
  184.6080  177.5390  146.5130 C   0  0  0  0  0  2  0  0  0  0  0  0
  185.7720  176.8210  145.8390 C   0  0  0  0  0  2  0  0  0  0  0  0
  185.6970  178.5730  144.0460 C   0  0  0  0  0  0  0  0  0  0  0  0
  189.4050  178.0470  143.6230 N   0  0  0  0  0  2  0  0  0  0  0  0
  189.6580  177.1010  142.5490 C   0  0  0  0  0  2  0  0  0  0  0  0
  193.1950  176.4160  143.6870 C   0  0  0  0  0  3  0  0  0  0  0  0
  194.5460  174.4250  143.6490 O   0  0  0  0  0  1  0  0  0  0  0  0
  192.2920  174.3590  142.7710 C   0  0  0  0  0  0  0  0  0  0  0  0
  192.4770  173.0460  142.4740 F   0  0  0  0  0  0  0  0  0  0  0  0
  191.0710  175.0160  142.4830 C   0  0  0  0  0  0  0  0  0  0  0  0
  193.3450  175.0650  143.3680 C   0  0  0  0  0  0  0  0  0  0  0  0
  190.9380  176.3790  142.8070 C   0  0  0  0  0  0  0  0  0  0  0  0
  191.9960  177.0710  143.4080 C   0  0  0  0  0  3  0  0  0  0  0  0
  189.2320  173.3180  142.4890 C   0  0  0  0  0  1  0  0  0  0  0  0
  189.9780  174.3640  141.8840 O   0  0  0  0  0  0  0  0  0  0  0  0
  1 16  1  6  0  0  0
  1  3  1  0  0  0  0
  3  7  2  0  0  0  0
  3  4  1  0  0  0  0
  4  5  2  0  0  0  0
  5  2  1  0  0  0  0
  6  2  2  0  0  0  0
  7  6  1  0  0  0  0
  8  1  1  0  0  0  0
  9 10  1  0  0  0  0
 10 13  1  0  0  0  0
 11  8  1  1  0  0  0
 11 14  1  0  0  0  0
 12 15  2  0  0  0  0
 14 13  1  0  0  0  0
 15 11  1  0  0  0  0
 15  9  1  0  0  0  0
 17 24  1  0  0  0  0
 17 16  1  0  0  0  0
 20 23  1  0  0  0  0
 21 20  1  0  0  0  0
 22 20  2  0  0  0  0
 22 24  1  0  0  0  0
 23 19  1  0  0  0  0
 23 18  2  0  0  0  0
 24 25  2  0  0  0  0
 25 18  1  0  0  0  0
 27 22  1  0  0  0  0
 27 26  1  0  0  0  0
M  END
>  <MODEL>
6

>  <REMARK>
 VINA RESULT:      -6.9      2.800      6.502
  Name = 
  7 active torsions:
  status: ('A' for Active; 'I' for Inactive)
    1  A    between atoms: S_1  and  C_15
    2  A    between atoms: S_1  and  C_18
    3  A    between atoms: N_2  and  C_6
    4  A    between atoms: N_2  and  C_15
    5  A    between atoms: C_6  and  C_17
    6  A    between atoms: C_9  and  C_15
    7  A    between atoms: C_14  and  O_19
                            x       y       z     vdW  Elec       q    Type
                         _______ _______ _______ _____ _____    ______ ____

>  <TORSDO>
F 7

$$$$
=
 OpenBabel11052418263D

 27 29  0  0  1  0  0  0  0  0999 V2000
  188.4960  177.0440  145.7640 C   0  0  2  0  0  3  0  0  0  0  0  0
  184.4800  178.2870  146.6800 C   0  0  0  0  0  3  0  0  0  0  0  0
  187.1060  177.5020  146.0970 C   0  0  0  0  0  0  0  0  0  0  0  0
  186.7790  177.9870  147.3730 C   0  0  0  0  0  3  0  0  0  0  0  0
  185.4700  178.3810  147.6620 C   0  0  0  0  0  3  0  0  0  0  0  0
  184.7990  177.7990  145.4100 C   0  0  0  0  0  3  0  0  0  0  0  0
  186.1090  177.4060  145.1200 C   0  0  0  0  0  3  0  0  0  0  0  0
  189.0080  177.5370  144.0790 S   0  0  0  0  0  0  0  0  0  0  0  0
  190.6720  174.4600  141.7890 C   0  0  0  0  0  2  0  0  0  0  0  0
  189.3820  174.1290  141.0450 C   0  0  0  0  0  2  0  0  0  0  0  0
  189.2650  175.8340  143.4640 C   0  0  1  0  0  3  0  0  0  0  0  0
  191.6320  176.3300  142.9750 C   0  0  0  0  0  2  0  0  0  0  0  0
  188.2170  174.0540  142.0230 C   0  0  0  0  0  2  0  0  0  0  0  0
  188.0210  175.4150  142.6810 C   0  0  0  0  0  2  0  0  0  0  0  0
  190.5120  175.7040  142.6140 C   0  0  0  0  0  0  0  0  0  0  0  0
  188.6560  175.6110  145.9590 N   0  0  0  0  0  2  0  0  0  0  0  0
  189.4210  175.4350  147.1820 C   0  0  0  0  0  2  0  0  0  0  0  0
  192.7370  174.3230  145.7510 C   0  0  0  0  0  3  0  0  0  0  0  0
  194.9390  175.2900  145.8410 O   0  0  0  0  0  1  0  0  0  0  0  0
  193.0990  176.4000  146.9520 C   0  0  0  0  0  0  0  0  0  0  0  0
  193.9630  177.3670  147.3550 F   0  0  0  0  0  0  0  0  0  0  0  0
  191.7270  176.4440  147.3010 C   0  0  0  0  0  0  0  0  0  0  0  0
  193.5930  175.3380  146.1820 C   0  0  0  0  0  0  0  0  0  0  0  0
  190.8790  175.4100  146.8620 C   0  0  0  0  0  0  0  0  0  0  0  0
  191.3840  174.3590  146.0890 C   0  0  0  0  0  3  0  0  0  0  0  0
  191.5390  177.7750  149.4130 C   0  0  0  0  0  1  0  0  0  0  0  0
  191.1710  177.4790  148.0730 O   0  0  0  0  0  0  0  0  0  0  0  0
  1  8  1  6  0  0  0
  1 16  1  0  0  0  0
  1  3  1  0  0  0  0
  2  5  1  0  0  0  0
  3  4  1  0  0  0  0
  4  5  2  0  0  0  0
  6  2  2  0  0  0  0
  7  6  1  0  0  0  0
  7  3  2  0  0  0  0
  9 15  1  0  0  0  0
 10  9  1  0  0  0  0
 10 13  1  0  0  0  0
 11  8  1  6  0  0  0
 13 14  1  0  0  0  0
 14 11  1  0  0  0  0
 15 12  2  0  0  0  0
 15 11  1  0  0  0  0
 16 17  1  0  0  0  0
 18 25  2  0  0  0  0
 18 23  1  0  0  0  0
 19 23  1  0  0  0  0
 20 22  1  0  0  0  0
 20 21  1  0  0  0  0
 22 27  1  0  0  0  0
 23 20  2  0  0  0  0
 24 17  1  0  0  0  0
 24 22  2  0  0  0  0
 25 24  1  0  0  0  0
 27 26  1  0  0  0  0
M  END
>  <MODEL>
7

>  <REMARK>
 VINA RESULT:      -6.9      3.753      6.324
  Name = 
  7 active torsions:
  status: ('A' for Active; 'I' for Inactive)
    1  A    between atoms: S_1  and  C_15
    2  A    between atoms: S_1  and  C_18
    3  A    between atoms: N_2  and  C_6
    4  A    between atoms: N_2  and  C_15
    5  A    between atoms: C_6  and  C_17
    6  A    between atoms: C_9  and  C_15
    7  A    between atoms: C_14  and  O_19
                            x       y       z     vdW  Elec       q    Type
                         _______ _______ _______ _____ _____    ______ ____

>  <TORSDO>
F 7

$$$$
=
 OpenBabel11052418263D

 27 29  0  0  1  0  0  0  0  0999 V2000
  188.3540  176.3960  145.6700 C   0  0  2  0  0  3  0  0  0  0  0  0
  184.8430  178.3250  147.2420 C   0  0  0  0  0  3  0  0  0  0  0  0
  187.1150  177.0430  146.2170 C   0  0  0  0  0  0  0  0  0  0  0  0
  185.8530  176.8100  145.6470 C   0  0  0  0  0  3  0  0  0  0  0  0
  184.7210  177.4480  146.1610 C   0  0  0  0  0  3  0  0  0  0  0  0
  186.0980  178.5640  147.8090 C   0  0  0  0  0  3  0  0  0  0  0  0
  187.2310  177.9260  147.2960 C   0  0  0  0  0  3  0  0  0  0  0  0
  189.1670  175.3040  146.8910 S   0  0  0  0  0  0  0  0  0  0  0  0
  192.3600  173.4230  144.9540 C   0  0  0  0  0  2  0  0  0  0  0  0
  193.4160  173.8790  145.9560 C   0  0  0  0  0  2  0  0  0  0  0  0
  190.7460  175.1610  145.9790 C   0  0  1  0  0  3  0  0  0  0  0  0
  189.9710  173.0850  144.8920 C   0  0  0  0  0  2  0  0  0  0  0  0
  193.2410  175.3600  146.2660 C   0  0  0  0  0  2  0  0  0  0  0  0
  191.8790  175.5820  146.9150 C   0  0  0  0  0  2  0  0  0  0  0  0
  190.9800  173.7660  145.4360 C   0  0  0  0  0  0  0  0  0  0  0  0
  189.2900  177.3770  145.1430 N   0  0  0  0  0  2  0  0  0  0  0  0
  188.8830  177.6560  143.7760 C   0  0  0  0  0  2  0  0  0  0  0  0
  191.0260  175.1000  142.0010 C   0  0  0  0  0  3  0  0  0  0  0  0
  190.4800  173.2940  140.5070 O   0  0  0  0  0  1  0  0  0  0  0  0
  188.7130  174.6920  141.3900 C   0  0  0  0  0  0  0  0  0  0  0  0
  187.8160  173.9520  140.6890 F   0  0  0  0  0  0  0  0  0  0  0  0
  188.3020  175.7830  142.1940 C   0  0  0  0  0  0  0  0  0  0  0  0
  190.0720  174.3610  141.2980 C   0  0  0  0  0  0  0  0  0  0  0  0
  189.2770  176.5190  142.8930 C   0  0  0  0  0  0  0  0  0  0  0  0
  190.6300  176.1740  142.7970 C   0  0  0  0  0  3  0  0  0  0  0  0
  186.3160  177.1540  141.5310 C   0  0  0  0  0  1  0  0  0  0  0  0
  186.9560  176.1660  142.3270 O   0  0  0  0  0  0  0  0  0  0  0  0
  1 16  1  1  0  0  0
  1  3  1  0  0  0  0
  1  8  1  0  0  0  0
  2  6  1  0  0  0  0
  3  7  1  0  0  0  0
  4  5  1  0  0  0  0
  4  3  2  0  0  0  0
  5  2  2  0  0  0  0
  7  6  2  0  0  0  0
  9 15  1  0  0  0  0
  9 10  1  0  0  0  0
 10 13  1  0  0  0  0
 11  8  1  1  0  0  0
 11 14  1  0  0  0  0
 12 15  2  0  0  0  0
 13 14  1  0  0  0  0
 15 11  1  0  0  0  0
 17 16  1  0  0  0  0
 18 25  1  0  0  0  0
 19 23  1  0  0  0  0
 20 22  2  0  0  0  0
 21 20  1  0  0  0  0
 22 27  1  0  0  0  0
 22 24  1  0  0  0  0
 23 20  1  0  0  0  0
 23 18  2  0  0  0  0
 24 17  1  0  0  0  0
 25 24  2  0  0  0  0
 26 27  1  0  0  0  0
M  END
>  <MODEL>
8

>  <REMARK>
 VINA RESULT:      -6.8      1.833      3.278
  Name = 
  7 active torsions:
  status: ('A' for Active; 'I' for Inactive)
    1  A    between atoms: S_1  and  C_15
    2  A    between atoms: S_1  and  C_18
    3  A    between atoms: N_2  and  C_6
    4  A    between atoms: N_2  and  C_15
    5  A    between atoms: C_6  and  C_17
    6  A    between atoms: C_9  and  C_15
    7  A    between atoms: C_14  and  O_19
                            x       y       z     vdW  Elec       q    Type
                         _______ _______ _______ _____ _____    ______ ____

>  <TORSDO>
F 7

$$$$
=
 OpenBabel11052418263D

 27 29  0  0  1  0  0  0  0  0999 V2000
  187.9000  176.0460  145.7530 C   0  0  2  0  0  3  0  0  0  0  0  0
  184.9150  178.5740  147.5480 C   0  0  0  0  0  3  0  0  0  0  0  0
  186.8420  176.9040  146.3840 C   0  0  0  0  0  0  0  0  0  0  0  0
  185.4820  176.7410  146.0730 C   0  0  0  0  0  3  0  0  0  0  0  0
  184.5230  177.5720  146.6560 C   0  0  0  0  0  3  0  0  0  0  0  0
  186.2670  178.7440  147.8570 C   0  0  0  0  0  3  0  0  0  0  0  0
  187.2280  177.9130  147.2740 C   0  0  0  0  0  3  0  0  0  0  0  0
  188.9120  175.1620  146.9930 S   0  0  0  0  0  0  0  0  0  0  0  0
  192.4210  174.0510  145.0080 C   0  0  0  0  0  2  0  0  0  0  0  0
  193.3620  174.6140  146.0680 C   0  0  0  0  0  2  0  0  0  0  0  0
  190.5010  175.3810  146.1150 C   0  0  1  0  0  3  0  0  0  0  0  0
  190.1350  173.2890  144.8590 C   0  0  0  0  0  2  0  0  0  0  0  0
  192.9130  176.0100  146.4820 C   0  0  0  0  0  2  0  0  0  0  0  0
  191.5260  175.9280  147.1090 C   0  0  0  0  0  2  0  0  0  0  0  0
  190.9950  174.0980  145.4770 C   0  0  0  0  0  0  0  0  0  0  0  0
  188.7400  176.8070  144.8400 N   0  0  0  0  0  2  0  0  0  0  0  0
  187.9380  177.9180  144.3550 C   0  0  0  0  0  2  0  0  0  0  0  0
  187.8270  176.3920  140.9000 C   0  0  0  0  0  3  0  0  0  0  0  0
  186.4350  176.8290  138.9870 O   0  0  0  0  0  1  0  0  0  0  0  0
  186.1190  178.1110  141.0140 C   0  0  0  0  0  0  0  0  0  0  0  0
  185.1200  178.7910  140.3950 F   0  0  0  0  0  0  0  0  0  0  0  0
  186.4890  178.3990  142.3510 C   0  0  0  0  0  0  0  0  0  0  0  0
  186.7930  177.1110  140.3000 C   0  0  0  0  0  0  0  0  0  0  0  0
  187.5370  177.6670  142.9400 C   0  0  0  0  0  0  0  0  0  0  0  0
  188.1980  176.6680  142.2160 C   0  0  0  0  0  3  0  0  0  0  0  0
  184.5250  179.3000  143.6120 C   0  0  0  0  0  1  0  0  0  0  0  0
  185.8540  179.3900  143.1200 O   0  0  0  0  0  0  0  0  0  0  0  0
  1 16  1  1  0  0  0
  1  3  1  0  0  0  0
  1  8  1  0  0  0  0
  2  6  1  0  0  0  0
  3  7  1  0  0  0  0
  4  3  2  0  0  0  0
  4  5  1  0  0  0  0
  5  2  2  0  0  0  0
  7  6  2  0  0  0  0
  9 15  1  0  0  0  0
  9 10  1  0  0  0  0
 10 13  1  0  0  0  0
 11  8  1  1  0  0  0
 11 14  1  0  0  0  0
 12 15  2  0  0  0  0
 13 14  1  0  0  0  0
 15 11  1  0  0  0  0
 17 16  1  0  0  0  0
 18 25  1  0  0  0  0
 19 23  1  0  0  0  0
 20 22  2  0  0  0  0
 21 20  1  0  0  0  0
 22 24  1  0  0  0  0
 22 27  1  0  0  0  0
 23 18  2  0  0  0  0
 23 20  1  0  0  0  0
 24 17  1  0  0  0  0
 25 24  2  0  0  0  0
 27 26  1  0  0  0  0
M  END
>  <MODEL>
9

>  <REMARK>
 VINA RESULT:      -6.8      1.514      2.371
  Name = 
  7 active torsions:
  status: ('A' for Active; 'I' for Inactive)
    1  A    between atoms: S_1  and  C_15
    2  A    between atoms: S_1  and  C_18
    3  A    between atoms: N_2  and  C_6
    4  A    between atoms: N_2  and  C_15
    5  A    between atoms: C_6  and  C_17
    6  A    between atoms: C_9  and  C_15
    7  A    between atoms: C_14  and  O_19
                            x       y       z     vdW  Elec       q    Type
                         _______ _______ _______ _____ _____    ______ ____

>  <TORSDO>
F 7

$$$$
