=
 OpenBabel11052420163D

 34 38  0  0  1  0  0  0  0  0999 V2000
  190.7520  176.9020  145.5520 C   0  0  1  0  0  3  0  0  0  0  0  0
  192.8080  173.8170  144.9540 C   0  0  0  0  0  3  0  0  0  0  0  0
  190.8100  174.0880  146.1400 O   0  0  0  0  0  0  0  0  0  0  0  0
  188.5310  177.1890  144.3550 C   0  0  1  0  0  3  0  0  0  0  0  0
  190.0410  177.0080  144.1940 C   0  0  0  0  0  2  0  0  0  0  0  0
  188.5430  177.1550  146.7600 C   0  0  2  0  0  3  0  0  0  0  0  0
  187.4250  176.4040  147.1310 O   0  0  0  0  0  1  0  0  0  0  0  0
  188.2400  177.9570  145.5650 N   0  0  0  0  0  2  0  0  0  0  0  0
  189.5980  174.8030  146.3920 C   0  0  2  0  0  3  0  0  0  0  0  0
  189.8440  176.3080  146.6450 C   0  0  1  0  0  3  0  0  0  0  0  0
  188.9580  174.2230  147.4880 O   0  0  0  0  0  1  0  0  0  0  0  0
  193.9710  174.2740  144.1390 C   0  0  0  0  0  2  0  0  0  0  0  0
  194.9220  175.0970  144.9440 C   0  0  0  0  0  0  0  0  0  0  0  0
  194.5380  176.2700  145.4640 C   0  0  0  0  0  3  0  0  0  0  0  0
  191.9140  174.6470  145.4910 C   0  0  0  0  0  0  0  0  0  0  0  0
  193.1670  176.8170  145.4570 C   0  0  0  0  0  3  0  0  0  0  0  0
  192.0180  176.1270  145.4230 C   0  0  0  0  0  0  0  0  0  0  0  0
  196.3250  174.6410  145.0560 C   0  0  0  0  0  0  0  0  0  0  0  0
  197.2770  175.1200  144.1630 O   0  0  0  0  0  1  0  0  0  0  0  0
  196.7080  173.7750  145.9900 C   0  0  0  0  0  2  0  0  0  0  0  0
  187.9710  177.8960  143.1310 C   0  0  0  0  0  2  0  0  0  0  0  0
  184.3280  178.7330  144.0260 C   0  0  0  0  0  2  0  0  0  0  0  0
  185.9730  177.9560  141.6590 C   0  0  0  0  0  2  0  0  0  0  0  0
  181.7110  178.4580  141.2940 C   0  0  0  0  0  0  0  0  0  0  0  0
  182.3310  178.7000  142.5270 C   0  0  0  0  0  3  0  0  0  0  0  0
  183.7120  178.5340  142.6690 C   0  0  0  0  0  0  0  0  0  0  0  0
  183.8560  177.8600  140.3390 C   0  0  0  0  0  3  0  0  0  0  0  0
  184.4790  178.0880  141.5690 C   0  0  0  0  0  0  0  0  0  0  0  0
  182.4760  178.0390  140.2030 C   0  0  0  0  0  3  0  0  0  0  0  0
  186.4540  177.8150  143.1000 C   0  0  2  0  0  3  0  0  0  0  0  0
  185.8400  178.9230  143.9480 C   0  0  0  0  0  2  0  0  0  0  0  0
  180.2380  178.6390  141.1300 C   0  0  0  0  0  3  0  0  0  0  0  0
  179.9290  179.9950  141.0140 O   0  0  0  0  0  1  0  0  0  0  0  0
  179.7920  177.9570  139.9980 O   0  0  0  0  0  1  0  0  0  0  0  0
  1  5  1  6  0  0  0
  1 10  1  0  0  0  0
  2 15  2  0  0  0  0
  3  9  1  0  0  0  0
  4 21  1  6  0  0  0
  4  8  1  0  0  0  0
  5  4  1  0  0  0  0
  6  7  1  6  0  0  0
  8  6  1  0  0  0  0
  9 10  1  0  0  0  0
  9 11  1  1  0  0  0
 10  6  1  0  0  0  0
 12 13  1  0  0  0  0
 12  2  1  0  0  0  0
 13 18  1  0  0  0  0
 13 14  2  0  0  0  0
 15  3  1  0  0  0  0
 16 14  1  0  0  0  0
 17 16  2  0  0  0  0
 17 15  1  0  0  0  0
 17  1  1  0  0  0  0
 18 20  2  0  0  0  0
 19 18  1  0  0  0  0
 23 30  1  0  0  0  0
 24 25  1  0  0  0  0
 25 26  2  0  0  0  0
 26 22  1  0  0  0  0
 27 28  2  0  0  0  0
 28 23  1  0  0  0  0
 28 26  1  0  0  0  0
 29 27  1  0  0  0  0
 29 24  2  0  0  0  0
 30 21  1  0  0  0  0
 30 31  1  0  0  0  0
 31 22  1  0  0  0  0
 32 24  1  0  0  0  0
 33 32  1  0  0  0  0
 34 32  1  0  0  0  0
M  END
>  <MODEL>
1

>  <REMARK>
 VINA RESULT:      -9.0      0.000      0.000
  Name = 
  4 active torsions:
  status: ('A' for Active; 'I' for Inactive)
    1  A    between atoms: C_3  and  C_25
    2  A    between atoms: C_7  and  C_11
    3  A    between atoms: C_8  and  C_18
    4  A    between atoms: C_18  and  C_30
                            x       y       z     vdW  Elec       q    Type
                         _______ _______ _______ _____ _____    ______ ____

>  <TORSDO>
F 4

$$$$
=
 OpenBabel11052420163D

 34 38  0  0  1  0  0  0  0  0999 V2000
  191.6830  176.1140  145.7190 C   0  0  1  0  0  3  0  0  0  0  0  0
  193.2530  175.0220  142.4880 C   0  0  0  0  0  3  0  0  0  0  0  0
  191.7060  173.9240  143.8570 O   0  0  0  0  0  0  0  0  0  0  0  0
  189.2380  176.7990  145.7660 C   0  0  1  0  0  3  0  0  0  0  0  0
  190.6210  177.0830  145.1770 C   0  0  0  0  0  2  0  0  0  0  0  0
  189.9400  174.9510  147.1360 C   0  0  2  0  0  3  0  0  0  0  0  0
  188.9250  173.9970  147.0280 O   0  0  0  0  0  1  0  0  0  0  0  0
  189.3640  176.3040  147.1360 N   0  0  0  0  0  2  0  0  0  0  0  0
  190.6730  173.9570  144.8440 C   0  0  2  0  0  3  0  0  0  0  0  0
  191.0880  174.7480  146.1050 C   0  0  1  0  0  3  0  0  0  0  0  0
  190.3360  172.6460  145.1800 O   0  0  0  0  0  1  0  0  0  0  0  0
  194.1620  176.1380  142.0960 C   0  0  0  0  0  2  0  0  0  0  0  0
  195.3610  176.2120  142.9840 C   0  0  0  0  0  0  0  0  0  0  0  0
  195.2290  176.4790  144.2900 C   0  0  0  0  0  3  0  0  0  0  0  0
  192.6140  174.9680  143.6560 C   0  0  0  0  0  0  0  0  0  0  0  0
  193.9560  176.5740  145.0320 C   0  0  0  0  0  3  0  0  0  0  0  0
  192.8000  175.9600  144.7440 C   0  0  0  0  0  0  0  0  0  0  0  0
  196.7010  176.0990  142.3660 C   0  0  0  0  0  0  0  0  0  0  0  0
  197.8360  176.1900  143.1640 O   0  0  0  0  0  1  0  0  0  0  0  0
  196.8570  175.9160  141.0580 C   0  0  0  0  0  2  0  0  0  0  0  0
  188.4020  178.0670  145.7340 C   0  0  0  0  0  2  0  0  0  0  0  0
  184.6360  178.3440  145.0190 C   0  0  0  0  0  2  0  0  0  0  0  0
  187.2280  178.1650  143.5490 C   0  0  0  0  0  2  0  0  0  0  0  0
  183.4950  178.2620  141.4030 C   0  0  0  0  0  0  0  0  0  0  0  0
  183.4900  178.3540  142.8000 C   0  0  0  0  0  3  0  0  0  0  0  0
  184.6900  178.3160  143.5160 C   0  0  0  0  0  0  0  0  0  0  0  0
  185.9100  178.0690  141.4300 C   0  0  0  0  0  3  0  0  0  0  0  0
  185.9110  178.1490  142.8250 C   0  0  0  0  0  0  0  0  0  0  0  0
  184.7070  178.1190  140.7210 C   0  0  0  0  0  3  0  0  0  0  0  0
  187.0770  177.8310  145.0290 C   0  0  2  0  0  3  0  0  0  0  0  0
  185.9850  178.7050  145.6350 C   0  0  0  0  0  2  0  0  0  0  0  0
  182.2200  178.3080  140.6270 C   0  0  0  0  0  3  0  0  0  0  0  0
  182.2650  177.3960  139.5710 O   0  0  0  0  0  1  0  0  0  0  0  0
  181.1390  178.0130  141.4580 O   0  0  0  0  0  1  0  0  0  0  0  0
  1  5  1  6  0  0  0
  1 10  1  0  0  0  0
  2 15  2  0  0  0  0
  3  9  1  0  0  0  0
  4 21  1  1  0  0  0
  4  8  1  0  0  0  0
  5  4  1  0  0  0  0
  6  7  1  6  0  0  0
  8  6  1  0  0  0  0
  9 11  1  1  0  0  0
  9 10  1  0  0  0  0
 10  6  1  0  0  0  0
 12  2  1  0  0  0  0
 12 13  1  0  0  0  0
 13 14  2  0  0  0  0
 14 16  1  0  0  0  0
 15  3  1  0  0  0  0
 15 17  1  0  0  0  0
 17 16  2  0  0  0  0
 17  1  1  0  0  0  0
 18 13  1  0  0  0  0
 18 19  1  0  0  0  0
 20 18  2  0  0  0  0
 22 31  1  0  0  0  0
 23 30  1  0  0  0  0
 24 25  1  0  0  0  0
 25 26  2  0  0  0  0
 26 22  1  0  0  0  0
 27 28  2  0  0  0  0
 28 26  1  0  0  0  0
 28 23  1  0  0  0  0
 29 24  2  0  0  0  0
 29 27  1  0  0  0  0
 30 31  1  0  0  0  0
 30 21  1  0  0  0  0
 32 24  1  0  0  0  0
 32 34  1  0  0  0  0
 33 32  1  0  0  0  0
M  END
>  <MODEL>
2

>  <REMARK>
 VINA RESULT:      -9.0      1.702      2.329
  Name = 
  4 active torsions:
  status: ('A' for Active; 'I' for Inactive)
    1  A    between atoms: C_3  and  C_25
    2  A    between atoms: C_7  and  C_11
    3  A    between atoms: C_8  and  C_18
    4  A    between atoms: C_18  and  C_30
                            x       y       z     vdW  Elec       q    Type
                         _______ _______ _______ _____ _____    ______ ____

>  <TORSDO>
F 4

$$$$
=
 OpenBabel11052420163D

 34 38  0  0  1  0  0  0  0  0999 V2000
  193.5090  173.1260  143.9580 C   0  0  1  0  0  3  0  0  0  0  0  0
  196.9480  171.8670  144.7860 C   0  0  0  0  0  3  0  0  0  0  0  0
  196.1170  172.7790  142.7990 O   0  0  0  0  0  0  0  0  0  0  0  0
  193.1030  175.6210  143.7160 C   0  0  1  0  0  3  0  0  0  0  0  0
  193.5610  174.4980  144.6470 C   0  0  0  0  0  2  0  0  0  0  0  0
  192.6550  174.1970  141.8300 C   0  0  2  0  0  3  0  0  0  0  0  0
  193.1210  174.8950  140.7130 O   0  0  0  0  0  1  0  0  0  0  0  0
  192.0710  175.1310  142.8040 N   0  0  0  0  0  2  0  0  0  0  0  0
  195.1750  173.5990  142.1030 C   0  0  2  0  0  3  0  0  0  0  0  0
  193.7120  173.2270  142.4350 C   0  0  1  0  0  3  0  0  0  0  0  0
  195.4080  173.4810  140.7320 O   0  0  0  0  0  1  0  0  0  0  0  0
  196.8640  171.3990  146.2000 C   0  0  0  0  0  2  0  0  0  0  0  0
  196.0650  170.1420  146.3200 C   0  0  0  0  0  0  0  0  0  0  0  0
  194.7640  170.1270  146.0020 C   0  0  0  0  0  3  0  0  0  0  0  0
  195.8910  172.2600  144.0760 C   0  0  0  0  0  0  0  0  0  0  0  0
  194.0110  171.2310  145.3740 C   0  0  0  0  0  3  0  0  0  0  0  0
  194.4930  172.1910  144.5730 C   0  0  0  0  0  0  0  0  0  0  0  0
  196.7150  168.9490  146.9060 C   0  0  0  0  0  0  0  0  0  0  0  0
  197.9410  168.5210  146.4100 O   0  0  0  0  0  1  0  0  0  0  0  0
  196.1560  168.2620  147.8980 C   0  0  0  0  0  2  0  0  0  0  0  0
  192.5740  176.7820  144.5420 C   0  0  0  0  0  2  0  0  0  0  0  0
  189.5690  176.2360  146.8750 C   0  0  0  0  0  2  0  0  0  0  0  0
  190.2430  177.6030  144.3080 C   0  0  0  0  0  2  0  0  0  0  0  0
  186.2090  177.6380  145.8150 C   0  0  0  0  0  0  0  0  0  0  0  0
  187.2170  177.0120  146.5590 C   0  0  0  0  0  3  0  0  0  0  0  0
  188.5310  176.9820  146.0830 C   0  0  0  0  0  0  0  0  0  0  0  0
  187.8250  178.1910  144.0970 C   0  0  0  0  0  3  0  0  0  0  0  0
  188.8340  177.5580  144.8290 C   0  0  0  0  0  0  0  0  0  0  0  0
  186.5160  178.2270  144.5850 C   0  0  0  0  0  3  0  0  0  0  0  0
  191.1310  176.5450  144.9560 C   0  0  2  0  0  3  0  0  0  0  0  0
  190.9890  176.6250  146.4720 C   0  0  0  0  0  2  0  0  0  0  0  0
  184.8030  177.6820  146.3160 C   0  0  0  0  0  3  0  0  0  0  0  0
  184.7630  178.2570  147.5880 O   0  0  0  0  0  1  0  0  0  0  0  0
  184.0020  178.4190  145.4430 O   0  0  0  0  0  1  0  0  0  0  0  0
  1 17  1  0  0  0  0
  1  5  1  1  0  0  0
  2 12  1  0  0  0  0
  3 15  1  0  0  0  0
  4 21  1  1  0  0  0
  4  5  1  0  0  0  0
  6  7  1  6  0  0  0
  6 10  1  0  0  0  0
  6  8  1  0  0  0  0
  8  4  1  0  0  0  0
  9 11  1  6  0  0  0
  9 10  1  0  0  0  0
  9  3  1  0  0  0  0
 10  1  1  0  0  0  0
 12 13  1  0  0  0  0
 13 18  1  0  0  0  0
 14 13  2  0  0  0  0
 15 17  1  0  0  0  0
 15  2  2  0  0  0  0
 16 14  1  0  0  0  0
 17 16  2  0  0  0  0
 18 20  2  0  0  0  0
 19 18  1  0  0  0  0
 21 30  1  0  0  0  0
 23 28  1  0  0  0  0
 23 30  1  0  0  0  0
 24 32  1  0  0  0  0
 24 25  1  0  0  0  0
 26 25  2  0  0  0  0
 26 22  1  0  0  0  0
 27 29  1  0  0  0  0
 27 28  2  0  0  0  0
 28 26  1  0  0  0  0
 29 24  2  0  0  0  0
 30 31  1  0  0  0  0
 31 22  1  0  0  0  0
 32 33  1  0  0  0  0
 34 32  1  0  0  0  0
M  END
>  <MODEL>
3

>  <REMARK>
 VINA RESULT:      -8.7      3.618      6.159
  Name = 
  4 active torsions:
  status: ('A' for Active; 'I' for Inactive)
    1  A    between atoms: C_3  and  C_25
    2  A    between atoms: C_7  and  C_11
    3  A    between atoms: C_8  and  C_18
    4  A    between atoms: C_18  and  C_30
                            x       y       z     vdW  Elec       q    Type
                         _______ _______ _______ _____ _____    ______ ____

>  <TORSDO>
F 4

$$$$
=
 OpenBabel11052420163D

 34 38  0  0  1  0  0  0  0  0999 V2000
  189.9740  174.9270  145.5530 C   0  0  1  0  0  3  0  0  0  0  0  0
  188.0220  177.9140  144.3820 C   0  0  0  0  0  3  0  0  0  0  0  0
  190.3230  177.4970  144.3120 O   0  0  0  0  0  0  0  0  0  0  0  0
  190.9780  173.3310  143.8520 C   0  0  1  0  0  3  0  0  0  0  0  0
  189.6930  173.9610  144.3910 C   0  0  0  0  0  2  0  0  0  0  0  0
  192.4540  174.4560  145.3820 C   0  0  2  0  0  3  0  0  0  0  0  0
  193.5710  174.8220  144.6270 O   0  0  0  0  0  1  0  0  0  0  0  0
  191.9450  173.1510  144.9350 N   0  0  0  0  0  2  0  0  0  0  0  0
  191.4240  176.5850  144.2920 C   0  0  2  0  0  3  0  0  0  0  0  0
  191.3690  175.5710  145.4570 C   0  0  1  0  0  3  0  0  0  0  0  0
  192.6110  177.3170  144.3400 O   0  0  0  0  0  1  0  0  0  0  0  0
  186.5990  177.6020  144.7020 C   0  0  0  0  0  2  0  0  0  0  0  0
  186.3390  177.6510  146.1720 C   0  0  0  0  0  0  0  0  0  0  0  0
  186.9480  176.7950  147.0020 C   0  0  0  0  0  3  0  0  0  0  0  0
  189.0480  177.1550  144.7690 C   0  0  0  0  0  0  0  0  0  0  0  0
  188.0160  175.8430  146.6380 C   0  0  0  0  0  3  0  0  0  0  0  0
  188.9070  175.9630  145.6440 C   0  0  0  0  0  0  0  0  0  0  0  0
  185.3100  178.5890  146.6720 C   0  0  0  0  0  0  0  0  0  0  0  0
  185.6050  179.4260  147.7430 O   0  0  0  0  0  1  0  0  0  0  0  0
  184.0970  178.6540  146.1300 C   0  0  0  0  0  2  0  0  0  0  0  0
  190.6550  171.9950  143.2030 C   0  0  0  0  0  2  0  0  0  0  0  0
  190.2250  173.6560  139.7630 C   0  0  0  0  0  2  0  0  0  0  0  0
  190.4860  170.9360  140.9640 C   0  0  0  0  0  2  0  0  0  0  0  0
  189.8530  171.4100  136.7300 C   0  0  0  0  0  0  0  0  0  0  0  0
  189.9750  172.5460  137.5410 C   0  0  0  0  0  3  0  0  0  0  0  0
  190.1720  172.4130  138.9190 C   0  0  0  0  0  0  0  0  0  0  0  0
  190.1030  169.9970  138.6820 C   0  0  0  0  0  3  0  0  0  0  0  0
  190.2140  171.1260  139.4980 C   0  0  0  0  0  0  0  0  0  0  0  0
  189.9180  170.1370  137.3040 C   0  0  0  0  0  3  0  0  0  0  0  0
  190.1650  172.1860  141.7770 C   0  0  2  0  0  3  0  0  0  0  0  0
  190.8400  173.3930  141.1350 C   0  0  0  0  0  2  0  0  0  0  0  0
  189.6490  171.5390  135.2570 C   0  0  0  0  0  3  0  0  0  0  0  0
  189.6430  172.8860  134.8880 O   0  0  0  0  0  1  0  0  0  0  0  0
  190.6600  170.8680  134.5690 O   0  0  0  0  0  1  0  0  0  0  0  0
  1  5  1  6  0  0  0
  1 17  1  0  0  0  0
  2 12  1  0  0  0  0
  2 15  2  0  0  0  0
  3 15  1  0  0  0  0
  4 21  1  1  0  0  0
  4  5  1  0  0  0  0
  4  8  1  0  0  0  0
  6  7  1  6  0  0  0
  6 10  1  0  0  0  0
  8  6  1  0  0  0  0
  9  3  1  0  0  0  0
  9 11  1  1  0  0  0
  9 10  1  0  0  0  0
 10  1  1  0  0  0  0
 12 13  1  0  0  0  0
 13 18  1  0  0  0  0
 13 14  2  0  0  0  0
 15 17  1  0  0  0  0
 16 14  1  0  0  0  0
 17 16  2  0  0  0  0
 18 19  1  0  0  0  0
 20 18  2  0  0  0  0
 22 31  1  0  0  0  0
 23 30  1  0  0  0  0
 24 29  2  0  0  0  0
 24 25  1  0  0  0  0
 25 26  2  0  0  0  0
 26 28  1  0  0  0  0
 26 22  1  0  0  0  0
 27 28  2  0  0  0  0
 28 23  1  0  0  0  0
 29 27  1  0  0  0  0
 30 21  1  0  0  0  0
 31 30  1  0  0  0  0
 32 24  1  0  0  0  0
 33 32  1  0  0  0  0
 34 32  1  0  0  0  0
M  END
>  <MODEL>
4

>  <REMARK>
 VINA RESULT:      -8.4      5.386      8.609
  Name = 
  4 active torsions:
  status: ('A' for Active; 'I' for Inactive)
    1  A    between atoms: C_3  and  C_25
    2  A    between atoms: C_7  and  C_11
    3  A    between atoms: C_8  and  C_18
    4  A    between atoms: C_18  and  C_30
                            x       y       z     vdW  Elec       q    Type
                         _______ _______ _______ _____ _____    ______ ____

>  <TORSDO>
F 4

$$$$
=
 OpenBabel11052420163D

 34 38  0  0  1  0  0  0  0  0999 V2000
  192.2970  174.8410  143.7800 C   0  0  1  0  0  3  0  0  0  0  0  0
  191.4970  171.2160  143.2130 C   0  0  0  0  0  3  0  0  0  0  0  0
  193.1410  172.2030  144.5520 O   0  0  0  0  0  0  0  0  0  0  0  0
  191.7170  175.9290  146.0000 C   0  0  1  0  0  3  0  0  0  0  0  0
  191.1770  175.2030  144.7670 C   0  0  0  0  0  2  0  0  0  0  0  0
  194.0200  175.8900  145.3070 C   0  0  2  0  0  3  0  0  0  0  0  0
  194.7550  175.6030  146.4600 O   0  0  0  0  0  1  0  0  0  0  0  0
  192.8730  176.7480  145.6370 N   0  0  0  0  0  2  0  0  0  0  0  0
  193.6330  173.3150  145.3050 C   0  0  2  0  0  3  0  0  0  0  0  0
  193.6490  174.6230  144.4820 C   0  0  1  0  0  3  0  0  0  0  0  0
  194.9150  173.0110  145.7630 O   0  0  0  0  0  1  0  0  0  0  0  0
  190.3560  171.2120  142.2520 C   0  0  0  0  0  2  0  0  0  0  0  0
  190.7840  171.6260  140.8830 C   0  0  0  0  0  0  0  0  0  0  0  0
  191.2610  172.8570  140.6590 C   0  0  0  0  0  3  0  0  0  0  0  0
  192.1640  172.3170  143.5600 C   0  0  0  0  0  0  0  0  0  0  0  0
  191.5650  173.8710  141.6880 C   0  0  0  0  0  3  0  0  0  0  0  0
  191.9150  173.6540  142.9640 C   0  0  0  0  0  0  0  0  0  0  0  0
  190.5630  170.6850  139.7630 C   0  0  0  0  0  0  0  0  0  0  0  0
  189.6950  171.0320  138.7340 O   0  0  0  0  0  1  0  0  0  0  0  0
  191.1690  169.5020  139.7100 C   0  0  0  0  0  2  0  0  0  0  0  0
  190.6210  176.7930  146.6010 C   0  0  0  0  0  2  0  0  0  0  0  0
  186.8270  176.6370  146.0060 C   0  0  0  0  0  2  0  0  0  0  0  0
  189.3130  177.5650  144.6380 C   0  0  0  0  0  2  0  0  0  0  0  0
  185.4930  177.8480  142.6690 C   0  0  0  0  0  0  0  0  0  0  0  0
  185.5590  177.3510  143.9770 C   0  0  0  0  0  3  0  0  0  0  0  0
  186.7910  177.2430  144.6310 C   0  0  0  0  0  0  0  0  0  0  0  0
  187.9010  178.1120  142.6520 C   0  0  0  0  0  3  0  0  0  0  0  0
  187.9750  177.6060  143.9530 C   0  0  0  0  0  0  0  0  0  0  0  0
  186.6650  178.2270  142.0100 C   0  0  0  0  0  3  0  0  0  0  0  0
  189.3150  176.6270  145.8410 C   0  0  2  0  0  3  0  0  0  0  0  0
  188.1280  176.9540  146.7390 C   0  0  0  0  0  2  0  0  0  0  0  0
  184.1830  177.9740  141.9640 C   0  0  0  0  0  3  0  0  0  0  0  0
  183.2680  178.6590  142.7660 O   0  0  0  0  0  1  0  0  0  0  0  0
  184.3480  178.6510  140.7560 O   0  0  0  0  0  1  0  0  0  0  0  0
  1 10  1  0  0  0  0
  1  5  1  1  0  0  0
  2 15  2  0  0  0  0
  3  9  1  0  0  0  0
  4 21  1  6  0  0  0
  5  4  1  0  0  0  0
  6  8  1  0  0  0  0
  6  7  1  1  0  0  0
  8  4  1  0  0  0  0
  9 11  1  6  0  0  0
 10  9  1  0  0  0  0
 10  6  1  0  0  0  0
 12  2  1  0  0  0  0
 13 12  1  0  0  0  0
 14 13  2  0  0  0  0
 14 16  1  0  0  0  0
 15  3  1  0  0  0  0
 16 17  2  0  0  0  0
 17 15  1  0  0  0  0
 17  1  1  0  0  0  0
 18 13  1  0  0  0  0
 19 18  1  0  0  0  0
 20 18  2  0  0  0  0
 22 31  1  0  0  0  0
 23 30  1  0  0  0  0
 24 25  1  0  0  0  0
 25 26  2  0  0  0  0
 26 22  1  0  0  0  0
 27 28  2  0  0  0  0
 28 26  1  0  0  0  0
 28 23  1  0  0  0  0
 29 27  1  0  0  0  0
 29 24  2  0  0  0  0
 30 21  1  0  0  0  0
 30 31  1  0  0  0  0
 32 24  1  0  0  0  0
 32 33  1  0  0  0  0
 34 32  1  0  0  0  0
M  END
>  <MODEL>
5

>  <REMARK>
 VINA RESULT:      -8.4      3.311      5.225
  Name = 
  4 active torsions:
  status: ('A' for Active; 'I' for Inactive)
    1  A    between atoms: C_3  and  C_25
    2  A    between atoms: C_7  and  C_11
    3  A    between atoms: C_8  and  C_18
    4  A    between atoms: C_18  and  C_30
                            x       y       z     vdW  Elec       q    Type
                         _______ _______ _______ _____ _____    ______ ____

>  <TORSDO>
F 4

$$$$
=
 OpenBabel11052420163D

 34 38  0  0  1  0  0  0  0  0999 V2000
  190.9620  174.8590  143.8590 C   0  0  1  0  0  3  0  0  0  0  0  0
  194.4990  174.9860  142.6070 C   0  0  0  0  0  3  0  0  0  0  0  0
  192.5530  174.2370  141.5470 O   0  0  0  0  0  0  0  0  0  0  0  0
  189.2410  176.4890  142.9470 C   0  0  1  0  0  3  0  0  0  0  0  0
  190.5720  176.3350  143.6860 C   0  0  0  0  0  2  0  0  0  0  0  0
  188.8550  174.1330  142.6620 C   0  0  2  0  0  3  0  0  0  0  0  0
  188.3450  173.9890  141.3690 O   0  0  0  0  0  1  0  0  0  0  0  0
  188.3520  175.3740  143.2700 N   0  0  0  0  0  2  0  0  0  0  0  0
  191.1310  174.2470  141.4020 C   0  0  2  0  0  3  0  0  0  0  0  0
  190.4010  173.9680  142.7360 C   0  0  1  0  0  3  0  0  0  0  0  0
  190.7740  173.2980  140.4440 O   0  0  0  0  0  1  0  0  0  0  0  0
  195.2950  175.5520  143.7350 C   0  0  0  0  0  2  0  0  0  0  0  0
  195.4270  174.5790  144.8610 C   0  0  0  0  0  0  0  0  0  0  0  0
  194.3470  174.1640  145.5350 C   0  0  0  0  0  3  0  0  0  0  0  0
  193.2120  174.6540  142.7060 C   0  0  0  0  0  0  0  0  0  0  0  0
  192.9420  174.4580  145.1900 C   0  0  0  0  0  3  0  0  0  0  0  0
  192.4410  174.7170  143.9740 C   0  0  0  0  0  0  0  0  0  0  0  0
  196.7860  174.1770  145.2860 C   0  0  0  0  0  0  0  0  0  0  0  0
  196.9870  173.6870  146.5710 O   0  0  0  0  0  1  0  0  0  0  0  0
  197.8330  174.2750  144.4720 C   0  0  0  0  0  2  0  0  0  0  0  0
  188.5960  177.8100  143.3320 C   0  0  0  0  0  2  0  0  0  0  0  0
  184.9520  178.4400  144.3770 C   0  0  0  0  0  2  0  0  0  0  0  0
  186.5790  178.0500  141.9050 C   0  0  0  0  0  2  0  0  0  0  0  0
  182.3050  178.5210  141.6620 C   0  0  0  0  0  0  0  0  0  0  0  0
  182.9360  178.5910  142.9100 C   0  0  0  0  0  3  0  0  0  0  0  0
  184.3220  178.4320  143.0120 C   0  0  0  0  0  0  0  0  0  0  0  0
  184.4470  178.1090  140.6070 C   0  0  0  0  0  3  0  0  0  0  0  0
  185.0810  178.1660  141.8510 C   0  0  0  0  0  0  0  0  0  0  0  0
  183.0630  178.2810  140.5130 C   0  0  0  0  0  3  0  0  0  0  0  0
  187.0800  177.7070  143.3040 C   0  0  2  0  0  3  0  0  0  0  0  0
  186.4600  178.6670  144.3130 C   0  0  0  0  0  2  0  0  0  0  0  0
  180.8270  178.6970  141.5410 C   0  0  0  0  0  3  0  0  0  0  0  0
  180.3460  179.4710  142.5990 O   0  0  0  0  0  1  0  0  0  0  0  0
  180.5110  179.3100  140.3290 O   0  0  0  0  0  1  0  0  0  0  0  0
  1  5  1  6  0  0  0
  1 17  1  0  0  0  0
  2 15  2  0  0  0  0
  2 12  1  0  0  0  0
  3 15  1  0  0  0  0
  4  8  1  0  0  0  0
  4 21  1  1  0  0  0
  4  5  1  0  0  0  0
  6  7  1  6  0  0  0
  6 10  1  0  0  0  0
  6  8  1  0  0  0  0
  9 11  1  6  0  0  0
  9  3  1  0  0  0  0
  9 10  1  0  0  0  0
 10  1  1  0  0  0  0
 12 13  1  0  0  0  0
 13 18  1  0  0  0  0
 13 14  2  0  0  0  0
 15 17  1  0  0  0  0
 16 14  1  0  0  0  0
 17 16  2  0  0  0  0
 18 19  1  0  0  0  0
 20 18  2  0  0  0  0
 23 30  1  0  0  0  0
 24 25  1  0  0  0  0
 25 26  2  0  0  0  0
 26 22  1  0  0  0  0
 27 28  2  0  0  0  0
 28 23  1  0  0  0  0
 28 26  1  0  0  0  0
 29 27  1  0  0  0  0
 29 24  2  0  0  0  0
 30 21  1  0  0  0  0
 30 31  1  0  0  0  0
 31 22  1  0  0  0  0
 32 24  1  0  0  0  0
 32 33  1  0  0  0  0
 34 32  1  0  0  0  0
M  END
>  <MODEL>
6

>  <REMARK>
 VINA RESULT:      -8.3      2.341      2.853
  Name = 
  4 active torsions:
  status: ('A' for Active; 'I' for Inactive)
    1  A    between atoms: C_3  and  C_25
    2  A    between atoms: C_7  and  C_11
    3  A    between atoms: C_8  and  C_18
    4  A    between atoms: C_18  and  C_30
                            x       y       z     vdW  Elec       q    Type
                         _______ _______ _______ _____ _____    ______ ____

>  <TORSDO>
F 4

$$$$
=
 OpenBabel11052420163D

 34 38  0  0  1  0  0  0  0  0999 V2000
  194.0990  173.5980  143.7690 C   0  0  1  0  0  3  0  0  0  0  0  0
  192.3330  170.3100  143.3470 C   0  0  0  0  0  3  0  0  0  0  0  0
  194.2440  170.8450  144.5860 O   0  0  0  0  0  0  0  0  0  0  0  0
  193.9380  174.8410  145.9770 C   0  0  1  0  0  3  0  0  0  0  0  0
  193.1640  174.2650  144.7900 C   0  0  0  0  0  2  0  0  0  0  0  0
  196.1100  174.1740  145.1900 C   0  0  2  0  0  3  0  0  0  0  0  0
  196.7970  173.7220  146.3200 O   0  0  0  0  0  1  0  0  0  0  0  0
  195.2510  175.3140  145.5420 N   0  0  0  0  0  2  0  0  0  0  0  0
  195.0500  171.7970  145.2840 C   0  0  2  0  0  3  0  0  0  0  0  0
  195.3760  173.0370  144.4200 C   0  0  1  0  0  3  0  0  0  0  0  0
  196.2260  171.1690  145.6970 O   0  0  0  0  0  1  0  0  0  0  0  0
  191.1880  170.5950  142.4350 C   0  0  0  0  0  2  0  0  0  0  0  0
  191.6440  170.8530  141.0370 C   0  0  0  0  0  0  0  0  0  0  0  0
  192.4210  171.9080  140.7560 C   0  0  0  0  0  3  0  0  0  0  0  0
  193.2860  171.1980  143.6320 C   0  0  0  0  0  0  0  0  0  0  0  0
  193.0340  172.8210  141.7400 C   0  0  0  0  0  3  0  0  0  0  0  0
  193.3740  172.5410  143.0060 C   0  0  0  0  0  0  0  0  0  0  0  0
  191.1260  169.9860  139.9560 C   0  0  0  0  0  0  0  0  0  0  0  0
  191.0120  168.6170  140.1690 O   0  0  0  0  0  1  0  0  0  0  0  0
  190.7670  170.4770  138.7740 C   0  0  0  0  0  2  0  0  0  0  0  0
  193.1430  175.9780  146.5970 C   0  0  0  0  0  2  0  0  0  0  0  0
  189.4990  175.1660  147.5120 C   0  0  0  0  0  2  0  0  0  0  0  0
  191.0500  177.0130  145.7530 C   0  0  0  0  0  2  0  0  0  0  0  0
  186.7440  177.0310  145.6910 C   0  0  0  0  0  0  0  0  0  0  0  0
  187.4170  176.1770  146.5740 C   0  0  0  0  0  3  0  0  0  0  0  0
  188.8150  176.1490  146.6030 C   0  0  0  0  0  0  0  0  0  0  0  0
  188.8700  177.8230  144.8430 C   0  0  0  0  0  3  0  0  0  0  0  0
  189.5480  176.9650  145.7130 C   0  0  0  0  0  0  0  0  0  0  0  0
  187.4730  177.8530  144.8280 C   0  0  0  0  0  3  0  0  0  0  0  0
  191.6500  175.7700  146.4030 C   0  0  2  0  0  3  0  0  0  0  0  0
  190.9650  175.5210  147.7420 C   0  0  0  0  0  2  0  0  0  0  0  0
  185.2520  177.0740  145.6560 C   0  0  0  0  0  3  0  0  0  0  0  0
  184.7590  177.6570  146.8260 O   0  0  0  0  0  1  0  0  0  0  0  0
  184.8150  177.8010  144.5490 O   0  0  0  0  0  1  0  0  0  0  0  0
  1 10  1  0  0  0  0
  1  5  1  1  0  0  0
  2 15  2  0  0  0  0
  3  9  1  0  0  0  0
  4 21  1  6  0  0  0
  5  4  1  0  0  0  0
  6  8  1  0  0  0  0
  6  7  1  1  0  0  0
  8  4  1  0  0  0  0
  9 11  1  6  0  0  0
 10  6  1  0  0  0  0
 10  9  1  0  0  0  0
 12  2  1  0  0  0  0
 13 12  1  0  0  0  0
 14 13  2  0  0  0  0
 14 16  1  0  0  0  0
 15  3  1  0  0  0  0
 16 17  2  0  0  0  0
 17 15  1  0  0  0  0
 17  1  1  0  0  0  0
 18 19  1  0  0  0  0
 18 13  1  0  0  0  0
 20 18  2  0  0  0  0
 22 31  1  0  0  0  0
 23 30  1  0  0  0  0
 24 25  1  0  0  0  0
 25 26  2  0  0  0  0
 26 22  1  0  0  0  0
 27 28  2  0  0  0  0
 28 23  1  0  0  0  0
 28 26  1  0  0  0  0
 29 27  1  0  0  0  0
 29 24  2  0  0  0  0
 30 21  1  0  0  0  0
 30 31  1  0  0  0  0
 32 24  1  0  0  0  0
 32 33  1  0  0  0  0
 34 32  1  0  0  0  0
M  END
>  <MODEL>
7

>  <REMARK>
 VINA RESULT:      -8.3      3.705      6.883
  Name = 
  4 active torsions:
  status: ('A' for Active; 'I' for Inactive)
    1  A    between atoms: C_3  and  C_25
    2  A    between atoms: C_7  and  C_11
    3  A    between atoms: C_8  and  C_18
    4  A    between atoms: C_18  and  C_30
                            x       y       z     vdW  Elec       q    Type
                         _______ _______ _______ _____ _____    ______ ____

>  <TORSDO>
F 4

$$$$
=
 OpenBabel11052420163D

 34 38  0  0  1  0  0  0  0  0999 V2000
  190.0350  174.8380  145.3730 C   0  0  1  0  0  3  0  0  0  0  0  0
  188.1310  177.8830  144.2760 C   0  0  0  0  0  3  0  0  0  0  0  0
  190.4130  177.3950  144.1120 O   0  0  0  0  0  0  0  0  0  0  0  0
  190.9170  173.2090  143.6360 C   0  0  1  0  0  3  0  0  0  0  0  0
  189.6760  173.8800  144.2260 C   0  0  0  0  0  2  0  0  0  0  0  0
  192.4890  174.2890  145.1010 C   0  0  2  0  0  3  0  0  0  0  0  0
  193.5850  174.6190  144.2990 O   0  0  0  0  0  1  0  0  0  0  0  0
  191.9220  173.0000  144.6780 N   0  0  0  0  0  2  0  0  0  0  0  0
  191.4830  176.4480  144.0490 C   0  0  2  0  0  3  0  0  0  0  0  0
  191.4440  175.4370  145.2180 C   0  0  1  0  0  3  0  0  0  0  0  0
  192.6930  177.1430  144.0450 O   0  0  0  0  0  1  0  0  0  0  0  0
  186.7130  177.6170  144.6550 C   0  0  0  0  0  2  0  0  0  0  0  0
  186.5160  177.6760  146.1340 C   0  0  0  0  0  0  0  0  0  0  0  0
  187.1310  176.8020  146.9410 C   0  0  0  0  0  3  0  0  0  0  0  0
  189.1470  177.0930  144.6220 C   0  0  0  0  0  0  0  0  0  0  0  0
  188.1530  175.8170  146.5360 C   0  0  0  0  0  3  0  0  0  0  0  0
  189.0050  175.9080  145.5050 C   0  0  0  0  0  0  0  0  0  0  0  0
  185.5380  178.6470  146.6750 C   0  0  0  0  0  0  0  0  0  0  0  0
  185.9410  179.5640  147.6380 O   0  0  0  0  0  1  0  0  0  0  0  0
  184.2720  178.6660  146.2690 C   0  0  0  0  0  2  0  0  0  0  0  0
  190.5250  171.8840  143.0040 C   0  0  0  0  0  2  0  0  0  0  0  0
  188.6120  172.6840  139.7680 C   0  0  0  0  0  2  0  0  0  0  0  0
  191.3570  172.9320  140.9130 C   0  0  0  0  0  2  0  0  0  0  0  0
  190.5580  174.1420  136.8580 C   0  0  0  0  0  0  0  0  0  0  0  0
  189.5090  173.6640  137.6540 C   0  0  0  0  0  3  0  0  0  0  0  0
  189.7500  173.2580  138.9710 C   0  0  0  0  0  0  0  0  0  0  0  0
  192.1040  173.7880  138.6890 C   0  0  0  0  0  3  0  0  0  0  0  0
  191.0640  173.3000  139.4860 C   0  0  0  0  0  0  0  0  0  0  0  0
  191.8540  174.2020  137.3780 C   0  0  0  0  0  3  0  0  0  0  0  0
  190.2740  172.0420  141.5140 C   0  0  2  0  0  3  0  0  0  0  0  0
  188.9080  172.6730  141.2650 C   0  0  0  0  0  2  0  0  0  0  0  0
  190.3120  174.5840  135.4530 C   0  0  0  0  0  3  0  0  0  0  0  0
  188.9420  174.7320  135.2280 O   0  0  0  0  0  1  0  0  0  0  0  0
  190.9610  175.7940  135.2070 O   0  0  0  0  0  1  0  0  0  0  0  0
  1  5  1  6  0  0  0
  1 17  1  0  0  0  0
  2 15  2  0  0  0  0
  2 12  1  0  0  0  0
  3 15  1  0  0  0  0
  4 21  1  1  0  0  0
  4  5  1  0  0  0  0
  4  8  1  0  0  0  0
  6  7  1  6  0  0  0
  6 10  1  0  0  0  0
  8  6  1  0  0  0  0
  9 11  1  1  0  0  0
  9  3  1  0  0  0  0
  9 10  1  0  0  0  0
 10  1  1  0  0  0  0
 12 13  1  0  0  0  0
 13 18  1  0  0  0  0
 13 14  2  0  0  0  0
 15 17  1  0  0  0  0
 16 14  1  0  0  0  0
 17 16  2  0  0  0  0
 18 19  1  0  0  0  0
 20 18  2  0  0  0  0
 22 31  1  0  0  0  0
 23 30  1  0  0  0  0
 24 29  2  0  0  0  0
 24 25  1  0  0  0  0
 25 26  2  0  0  0  0
 26 28  1  0  0  0  0
 26 22  1  0  0  0  0
 27 28  2  0  0  0  0
 28 23  1  0  0  0  0
 29 27  1  0  0  0  0
 30 21  1  0  0  0  0
 31 30  1  0  0  0  0
 32 24  1  0  0  0  0
 33 32  1  0  0  0  0
 34 32  1  0  0  0  0
M  END
>  <MODEL>
8

>  <REMARK>
 VINA RESULT:      -8.3      4.930      8.166
  Name = 
  4 active torsions:
  status: ('A' for Active; 'I' for Inactive)
    1  A    between atoms: C_3  and  C_25
    2  A    between atoms: C_7  and  C_11
    3  A    between atoms: C_8  and  C_18
    4  A    between atoms: C_18  and  C_30
                            x       y       z     vdW  Elec       q    Type
                         _______ _______ _______ _____ _____    ______ ____

>  <TORSDO>
F 4

$$$$
=
 OpenBabel11052420163D

 34 38  0  0  1  0  0  0  0  0999 V2000
  194.1600  175.3710  142.8600 C   0  0  1  0  0  3  0  0  0  0  0  0
  196.4120  172.9680  141.0550 C   0  0  0  0  0  3  0  0  0  0  0  0
  196.4940  173.7400  143.2620 O   0  0  0  0  0  0  0  0  0  0  0  0
  192.5490  174.5080  144.6240 C   0  0  1  0  0  3  0  0  0  0  0  0
  192.9720  174.4420  143.1550 C   0  0  0  0  0  2  0  0  0  0  0  0
  194.2110  176.1200  145.2760 C   0  0  2  0  0  3  0  0  0  0  0  0
  194.6730  175.6990  146.5250 O   0  0  0  0  0  1  0  0  0  0  0  0
  192.7700  175.8530  145.1530 N   0  0  0  0  0  2  0  0  0  0  0  0
  195.8500  174.2890  144.4140 C   0  0  2  0  0  3  0  0  0  0  0  0
  195.0620  175.5780  144.0900 C   0  0  1  0  0  3  0  0  0  0  0  0
  196.8170  174.5410  145.3880 O   0  0  0  0  0  1  0  0  0  0  0  0
  195.8610  172.8780  139.6720 C   0  0  0  0  0  2  0  0  0  0  0  0
  196.1040  174.1320  138.8970 C   0  0  0  0  0  0  0  0  0  0  0  0
  195.5540  175.2910  139.2830 C   0  0  0  0  0  3  0  0  0  0  0  0
  195.9690  173.8310  141.9700 C   0  0  0  0  0  0  0  0  0  0  0  0
  194.8060  175.5230  140.5340 C   0  0  0  0  0  3  0  0  0  0  0  0
  194.9430  174.8680  141.6960 C   0  0  0  0  0  0  0  0  0  0  0  0
  196.8710  174.0410  137.6350 C   0  0  0  0  0  0  0  0  0  0  0  0
  197.0750  172.8000  137.0430 O   0  0  0  0  0  1  0  0  0  0  0  0
  197.3810  175.1180  137.0450 C   0  0  0  0  0  2  0  0  0  0  0  0
  191.0850  174.1220  144.7480 C   0  0  0  0  0  2  0  0  0  0  0  0
  188.6540  176.7070  143.2710 C   0  0  0  0  0  2  0  0  0  0  0  0
  189.1960  175.3000  145.8470 C   0  0  0  0  0  2  0  0  0  0  0  0
  186.0800  178.2610  145.5830 C   0  0  0  0  0  0  0  0  0  0  0  0
  186.8170  177.9320  144.4380 C   0  0  0  0  0  3  0  0  0  0  0  0
  187.8390  176.9790  144.5050 C   0  0  0  0  0  0  0  0  0  0  0  0
  187.4020  176.6980  146.8780 C   0  0  0  0  0  3  0  0  0  0  0  0
  188.1490  176.3730  145.7420 C   0  0  0  0  0  0  0  0  0  0  0  0
  186.3750  177.6420  146.8010 C   0  0  0  0  0  3  0  0  0  0  0  0
  190.1900  175.3490  144.6910 C   0  0  2  0  0  3  0  0  0  0  0  0
  189.4280  175.3950  143.3720 C   0  0  0  0  0  2  0  0  0  0  0  0
  184.9830  179.2720  145.5210 C   0  0  0  0  0  3  0  0  0  0  0  0
  184.9540  179.8760  144.2630 O   0  0  0  0  0  1  0  0  0  0  0  0
  183.7530  178.6660  145.7790 O   0  0  0  0  0  1  0  0  0  0  0  0
  1  5  1  1  0  0  0
  1 10  1  0  0  0  0
  2 15  2  0  0  0  0
  3  9  1  0  0  0  0
  4 21  1  6  0  0  0
  4  8  1  0  0  0  0
  5  4  1  0  0  0  0
  6  7  1  1  0  0  0
  8  6  1  0  0  0  0
  9 11  1  1  0  0  0
 10  9  1  0  0  0  0
 10  6  1  0  0  0  0
 12  2  1  0  0  0  0
 13 14  2  0  0  0  0
 13 12  1  0  0  0  0
 14 16  1  0  0  0  0
 15  3  1  0  0  0  0
 16 17  2  0  0  0  0
 17 15  1  0  0  0  0
 17  1  1  0  0  0  0
 18 13  1  0  0  0  0
 19 18  1  0  0  0  0
 20 18  2  0  0  0  0
 22 31  1  0  0  0  0
 22 26  1  0  0  0  0
 24 29  1  0  0  0  0
 25 26  1  0  0  0  0
 25 24  2  0  0  0  0
 26 28  2  0  0  0  0
 28 23  1  0  0  0  0
 28 27  1  0  0  0  0
 29 27  2  0  0  0  0
 30 21  1  0  0  0  0
 30 23  1  0  0  0  0
 31 30  1  0  0  0  0
 32 24  1  0  0  0  0
 32 34  1  0  0  0  0
 33 32  1  0  0  0  0
M  END
>  <MODEL>
9

>  <REMARK>
 VINA RESULT:      -8.1      3.545      6.097
  Name = 
  4 active torsions:
  status: ('A' for Active; 'I' for Inactive)
    1  A    between atoms: C_3  and  C_25
    2  A    between atoms: C_7  and  C_11
    3  A    between atoms: C_8  and  C_18
    4  A    between atoms: C_18  and  C_30
                            x       y       z     vdW  Elec       q    Type
                         _______ _______ _______ _____ _____    ______ ____

>  <TORSDO>
F 4

$$$$
