=
 OpenBabel11052419423D

 55 60  0  0  1  0  0  0  0  0999 V2000
  193.9550  175.0120  139.9810 C   0  0  0  0  0  3  0  0  0  0  0  0
  192.6050  173.4630  142.6770 S   0  0  0  0  0  0  0  0  0  0  0  0
  191.5820  171.1350  140.3610 C   0  0  0  0  0  1  0  0  0  0  0  0
  192.4560  170.5110  137.3230 C   0  0  0  0  0  2  0  0  0  0  0  0
  192.2010  169.7000  136.0500 C   0  0  0  0  0  2  0  0  0  0  0  0
  193.6210  172.1300  135.8240 C   0  0  2  0  0  3  0  0  0  0  0  0
  193.2400  171.1810  134.6920 C   0  0  0  0  0  2  0  0  0  0  0  0
  191.8870  172.9690  138.8520 O   0  0  0  0  0  0  0  0  0  0  0  0
  193.2850  169.8520  135.1580 O   0  0  0  0  0  0  0  0  0  0  0  0
  196.1280  175.8590  140.8660 C   0  0  0  0  0  3  0  0  0  0  0  0
  192.6080  171.9900  136.9510 C   0  0  2  0  0  3  0  0  0  0  0  0
  194.9900  176.2250  143.4120 C   0  0  0  0  0  0  0  0  0  0  0  0
  194.4180  174.6630  138.7890 C   0  0  0  0  0  3  0  0  0  0  0  0
  194.2260  175.6450  142.3690 C   0  0  0  0  0  0  0  0  0  0  0  0
  194.2250  174.2070  136.3730 C   0  0  2  0  0  3  0  0  0  0  0  0
  192.9290  175.1760  142.6100 O   0  0  0  0  0  0  0  0  0  0  0  0
  193.5810  173.4500  135.3830 O   0  0  0  0  0  0  0  0  0  0  0  0
  191.5920  173.4830  141.1640 C   0  0  0  0  0  2  0  0  0  0  0  0
  192.1790  172.5160  140.1440 C   0  0  1  0  0  3  0  0  0  0  0  0
  196.8990  176.3610  141.9140 C   0  0  0  0  0  3  0  0  0  0  0  0
  194.7930  175.4890  141.0880 C   0  0  0  0  0  0  0  0  0  0  0  0
  193.0170  172.7880  138.1190 N   0  0  1  0  0  0  0  0  0  0  0  0
  193.4830  174.1510  137.7360 C   0  0  1  0  0  3  0  0  0  0  0  0
  196.3300  176.5380  143.1780 C   0  0  0  0  0  3  0  0  0  0  0  0
  193.1810  176.4280  135.8160 C   0  0  0  0  0  3  0  0  0  0  0  0
  194.5200  178.2770  134.9810 C   0  0  0  0  0  0  0  0  0  0  0  0
  195.5720  176.1560  135.5150 C   0  0  0  0  0  3  0  0  0  0  0  0
  195.6690  177.4710  135.0600 C   0  0  0  0  0  3  0  0  0  0  0  0
  193.2780  177.7460  135.3540 C   0  0  0  0  0  3  0  0  0  0  0  0
  194.3300  175.6280  135.9040 C   0  0  0  0  0  0  0  0  0  0  0  0
  194.5860  179.5990  134.5270 O   0  0  0  0  0  0  0  0  0  0  0  0
  194.7220  180.6870  135.3920 C   0  0  0  0  0  3  0  0  0  0  0  0
  193.9450  181.7450  135.2570 C   0  0  0  0  0  2  0  0  0  0  0  0
  194.4770  176.5280  144.6800 O   0  0  0  0  0  0  0  0  0  0  0  0
  193.1220  176.8680  144.9520 C   0  0  0  0  0  2  0  0  0  0  0  0
  192.5340  175.9610  146.0330 C   0  0  2  0  0  3  0  0  0  0  0  0
  193.8130  173.9670  145.8650 O   0  0  0  0  0  0  0  0  0  0  0  0
  193.5410  174.9580  146.5210 C   0  0  0  0  0  3  0  0  0  0  0  0
  191.1860  175.3210  145.6610 C   0  0  0  0  0  2  0  0  0  0  0  0
  189.9870  176.1690  146.0860 C   0  0  1  0  0  3  0  0  0  0  0  0
  190.3340  177.0270  147.1340 O   0  0  0  0  0  1  0  0  0  0  0  0
  188.1910  174.7860  141.2270 C   0  0  0  0  0  2  0  0  0  0  0  0
  186.4700  179.0020  144.8340 O   0  0  0  0  0  1  0  0  0  0  0  0
  189.3370  176.9290  144.9110 C   0  0  1  0  0  0  0  0  0  0  0  0
  187.1920  176.3070  145.7940 O   0  0  0  0  0  0  0  0  0  0  0  0
  187.8230  177.0200  145.0220 C   0  0  0  0  0  0  0  0  0  0  0  0
  188.9540  176.6030  142.4920 O   0  0  0  0  0  0  0  0  0  0  0  0
  186.1540  177.3280  143.0780 C   0  0  1  0  0  3  0  0  0  0  0  0
  187.9220  175.7800  142.0600 C   0  0  0  0  0  0  0  0  0  0  0  0
  187.0990  177.9770  144.1150 C   0  0  1  0  0  3  0  0  0  0  0  0
  189.8540  178.2270  144.8900 O   0  0  0  0  0  1  0  0  0  0  0  0
  186.5430  175.9000  142.6410 C   0  0  0  0  0  2  0  0  0  0  0  0
  189.7620  176.2250  143.6120 C   0  0  0  0  0  2  0  0  0  0  0  0
  184.8320  177.3390  143.5340 O   0  0  0  0  0  0  0  0  0  0  0  0
  184.2090  178.3170  142.7580 C   0  0  0  0  0  1  0  0  0  0  0  0
  1 21  1  0  0  0  0
  5  4  1  0  0  0  0
  6  7  1  6  0  0  0
  6 11  1  0  0  0  0
  7  9  1  0  0  0  0
  8 19  1  0  0  0  0
  9  5  1  0  0  0  0
 10 21  2  0  0  0  0
 10 20  1  0  0  0  0
 11  4  1  1  0  0  0
 11 22  1  0  0  0  0
 12 34  1  0  0  0  0
 13  1  2  0  0  0  0
 14 16  1  0  0  0  0
 14 12  2  0  0  0  0
 15 30  1  6  0  0  0
 15 23  1  0  0  0  0
 16  2  1  0  0  0  0
 17  6  1  0  0  0  0
 17 15  1  0  0  0  0
 18  2  1  0  0  0  0
 19  3  1  1  0  0  0
 19 18  1  0  0  0  0
 20 24  2  0  0  0  0
 21 14  1  0  0  0  0
 22  8  1  1  0  0  0
 23 22  1  0  0  0  0
 23 13  1  1  0  0  0
 24 12  1  0  0  0  0
 25 30  1  0  0  0  0
 26 28  2  0  0  0  0
 26 29  1  0  0  0  0
 27 30  2  0  0  0  0
 28 27  1  0  0  0  0
 29 25  2  0  0  0  0
 31 26  1  0  0  0  0
 31 32  1  0  0  0  0
 33 32  2  0  0  0  0
 34 35  1  0  0  0  0
 36 35  1  6  0  0  0
 36 38  1  0  0  0  0
 37 38  2  0  0  0  0
 39 36  1  0  0  0  0
 39 40  1  0  0  0  0
 40 41  1  1  0  0  0
 42 49  2  0  0  0  0
 44 51  1  6  0  0  0
 44 46  1  0  0  0  0
 44 40  1  0  0  0  0
 46 45  2  0  0  0  0
 47 53  1  0  0  0  0
 48 54  1  1  0  0  0
 48 50  1  0  0  0  0
 49 47  1  0  0  0  0
 49 52  1  0  0  0  0
 50 43  1  1  0  0  0
 50 46  1  0  0  0  0
 52 48  1  0  0  0  0
 53 44  1  0  0  0  0
 55 54  1  0  0  0  0
M  END
>  <MODEL>
1

>  <REMARK>
 VINA RESULT:      -7.8      0.000      0.000
  Name = 
  11 active torsions:
  status: ('A' for Active; 'I' for Inactive)
    1  A    between atoms: C_6  and  C_20
    2  A    between atoms: C_8  and  C_43
    3  A    between atoms: O_10  and  C_18
    4  A    between atoms: O_10  and  C_32
    5  A    between atoms: O_11  and  C_29
    6  A    between atoms: C_20  and  C_22
    7  A    between atoms: C_22  and  C_43
    8  A    between atoms: C_27  and  O_54
    9  A    between atoms: C_33  and  C_52
   10  A    between atoms: C_43  and  C_51
   11  A    between atoms: C_51  and  O_54
                            x       y       z     vdW  Elec       q    Type
                         _______ _______ _______ _____ _____    ______ ____

>  <TORSDO>
F 11

$$$$
=
 OpenBabel11052419423D

 55 60  0  0  1  0  0  0  0  0999 V2000
  189.9080  175.1180  143.7550 C   0  0  0  0  0  3  0  0  0  0  0  0
  192.2750  175.0330  146.1800 S   0  0  0  0  0  0  0  0  0  0  0  0
  190.1670  177.2200  147.7950 C   0  0  0  0  0  1  0  0  0  0  0  0
  187.0750  178.0230  147.3750 C   0  0  0  0  0  2  0  0  0  0  0  0
  185.9130  178.9300  147.7860 C   0  0  0  0  0  2  0  0  0  0  0  0
  185.7930  177.6650  145.2640 C   0  0  2  0  0  3  0  0  0  0  0  0
  184.7640  178.6190  145.8620 C   0  0  0  0  0  2  0  0  0  0  0  0
  189.3680  177.5960  145.5690 O   0  0  0  0  0  0  0  0  0  0  0  0
  184.7020  178.4300  147.2570 O   0  0  0  0  0  0  0  0  0  0  0  0
  189.8220  172.7450  142.9890 C   0  0  0  0  0  3  0  0  0  0  0  0
  187.1630  177.9850  145.8450 C   0  0  2  0  0  3  0  0  0  0  0  0
  192.5640  172.4320  143.5320 C   0  0  0  0  0  0  0  0  0  0  0  0
  188.6020  175.3360  143.6770 C   0  0  0  0  0  3  0  0  0  0  0  0
  191.9110  173.6500  143.8480 C   0  0  0  0  0  0  0  0  0  0  0  0
  186.5940  176.7390  143.3990 C   0  0  2  0  0  3  0  0  0  0  0  0
  192.5990  174.6800  144.5030 O   0  0  0  0  0  0  0  0  0  0  0  0
  185.8690  177.8370  143.8860 O   0  0  0  0  0  0  0  0  0  0  0  0
  191.5510  176.6630  145.8120 C   0  0  0  0  0  2  0  0  0  0  0  0
  190.1310  176.7270  146.3580 C   0  0  1  0  0  3  0  0  0  0  0  0
  190.4500  171.5240  142.7480 C   0  0  0  0  0  3  0  0  0  0  0  0
  190.5430  173.8110  143.5480 C   0  0  0  0  0  0  0  0  0  0  0  0
  188.1600  176.9980  145.3990 N   0  0  1  0  0  0  0  0  0  0  0  0
  188.0470  176.7010  143.9420 C   0  0  1  0  0  3  0  0  0  0  0  0
  191.8120  171.3730  143.0220 C   0  0  0  0  0  3  0  0  0  0  0  0
  185.7770  177.6990  141.2210 C   0  0  0  0  0  3  0  0  0  0  0  0
  186.5980  176.8660  139.0890 C   0  0  0  0  0  0  0  0  0  0  0  0
  187.4220  175.9170  141.1660 C   0  0  0  0  0  3  0  0  0  0  0  0
  187.4220  175.9540  139.7710 C   0  0  0  0  0  3  0  0  0  0  0  0
  185.7730  177.7310  139.8210 C   0  0  0  0  0  3  0  0  0  0  0  0
  186.6070  176.7940  141.9000 C   0  0  0  0  0  0  0  0  0  0  0  0
  186.5750  176.9240  137.6910 O   0  0  0  0  0  0  0  0  0  0  0  0
  186.9880  175.8610  136.8860 C   0  0  0  0  0  3  0  0  0  0  0  0
  187.3880  176.0810  135.6470 C   0  0  0  0  0  2  0  0  0  0  0  0
  193.9410  172.2230  143.6830 O   0  0  0  0  0  0  0  0  0  0  0  0
  194.7820  171.6030  142.7160 C   0  0  0  0  0  2  0  0  0  0  0  0
  195.7230  172.6220  142.0740 C   0  0  2  0  0  3  0  0  0  0  0  0
  196.8350  174.5690  142.8550 O   0  0  0  0  0  0  0  0  0  0  0  0
  195.8360  173.8710  142.9010 C   0  0  0  0  0  3  0  0  0  0  0  0
  195.4290  172.9110  140.5920 C   0  0  0  0  0  2  0  0  0  0  0  0
  194.0590  173.5490  140.3700 C   0  0  1  0  0  3  0  0  0  0  0  0
  194.1730  174.9370  140.2370 O   0  0  0  0  0  1  0  0  0  0  0  0
  191.1620  169.0840  139.7150 C   0  0  0  0  0  2  0  0  0  0  0  0
  190.7330  174.2790  137.1490 O   0  0  0  0  0  1  0  0  0  0  0  0
  193.2810  172.9210  139.1940 C   0  0  1  0  0  0  0  0  0  0  0  0
  191.3000  173.9890  140.0300 O   0  0  0  0  0  0  0  0  0  0  0  0
  191.8440  173.4070  139.0980 C   0  0  0  0  0  0  0  0  0  0  0  0
  192.3800  170.7120  138.5520 O   0  0  0  0  0  0  0  0  0  0  0  0
  189.8670  172.1580  138.0080 C   0  0  1  0  0  3  0  0  0  0  0  0
  191.1900  170.2620  139.1080 C   0  0  0  0  0  0  0  0  0  0  0  0
  191.0730  173.1090  137.8410 C   0  0  1  0  0  3  0  0  0  0  0  0
  193.9380  173.2560  138.0070 O   0  0  0  0  0  1  0  0  0  0  0  0
  189.9830  171.1510  139.1720 C   0  0  0  0  0  2  0  0  0  0  0  0
  193.3470  171.3940  139.3600 C   0  0  0  0  0  2  0  0  0  0  0  0
  188.6760  172.8820  138.1260 O   0  0  0  0  0  0  0  0  0  0  0  0
  188.1530  172.4840  139.3570 C   0  0  0  0  0  1  0  0  0  0  0  0
  4  5  1  0  0  0  0
  6 11  1  0  0  0  0
  6  7  1  1  0  0  0
  7  9  1  0  0  0  0
  8 19  1  0  0  0  0
  9  5  1  0  0  0  0
 10 21  1  0  0  0  0
 11  4  1  1  0  0  0
 12 34  1  0  0  0  0
 12 14  1  0  0  0  0
 13  1  2  0  0  0  0
 14 16  1  0  0  0  0
 15 30  1  6  0  0  0
 15 17  1  0  0  0  0
 15 23  1  0  0  0  0
 16  2  1  0  0  0  0
 17  6  1  0  0  0  0
 18  2  1  0  0  0  0
 18 19  1  0  0  0  0
 19  3  1  1  0  0  0
 20 10  2  0  0  0  0
 20 24  1  0  0  0  0
 21  1  1  0  0  0  0
 21 14  2  0  0  0  0
 22  8  1  6  0  0  0
 22 11  1  0  0  0  0
 23 13  1  1  0  0  0
 23 22  1  0  0  0  0
 24 12  2  0  0  0  0
 25 30  1  0  0  0  0
 26 28  2  0  0  0  0
 26 29  1  0  0  0  0
 27 30  2  0  0  0  0
 28 27  1  0  0  0  0
 29 25  2  0  0  0  0
 31 26  1  0  0  0  0
 32 31  1  0  0  0  0
 33 32  2  0  0  0  0
 35 34  1  0  0  0  0
 36 39  1  6  0  0  0
 36 35  1  0  0  0  0
 36 38  1  0  0  0  0
 37 38  2  0  0  0  0
 40 41  1  6  0  0  0
 40 39  1  0  0  0  0
 44 51  1  6  0  0  0
 44 53  1  0  0  0  0
 44 40  1  0  0  0  0
 46 44  1  0  0  0  0
 46 45  2  0  0  0  0
 47 49  1  0  0  0  0
 47 53  1  0  0  0  0
 48 54  1  1  0  0  0
 48 52  1  0  0  0  0
 49 52  1  0  0  0  0
 49 42  2  0  0  0  0
 50 43  1  1  0  0  0
 50 48  1  0  0  0  0
 50 46  1  0  0  0  0
 54 55  1  0  0  0  0
M  END
>  <MODEL>
2

>  <REMARK>
 VINA RESULT:      -7.7      3.609      8.864
  Name = 
  11 active torsions:
  status: ('A' for Active; 'I' for Inactive)
    1  A    between atoms: C_6  and  C_20
    2  A    between atoms: C_8  and  C_43
    3  A    between atoms: O_10  and  C_18
    4  A    between atoms: O_10  and  C_32
    5  A    between atoms: O_11  and  C_29
    6  A    between atoms: C_20  and  C_22
    7  A    between atoms: C_22  and  C_43
    8  A    between atoms: C_27  and  O_54
    9  A    between atoms: C_33  and  C_52
   10  A    between atoms: C_43  and  C_51
   11  A    between atoms: C_51  and  O_54
                            x       y       z     vdW  Elec       q    Type
                         _______ _______ _______ _____ _____    ______ ____

>  <TORSDO>
F 11

$$$$
=
 OpenBabel11052419423D

 55 60  0  0  1  0  0  0  0  0999 V2000
  190.0300  175.2830  143.6350 C   0  0  0  0  0  3  0  0  0  0  0  0
  192.4580  175.2990  146.0020 S   0  0  0  0  0  0  0  0  0  0  0  0
  190.2430  177.2830  147.7290 C   0  0  0  0  0  1  0  0  0  0  0  0
  187.0920  177.8750  147.4060 C   0  0  0  0  0  2  0  0  0  0  0  0
  185.8790  178.6850  147.8710 C   0  0  0  0  0  2  0  0  0  0  0  0
  185.7860  177.4860  145.3160 C   0  0  2  0  0  3  0  0  0  0  0  0
  184.7060  178.3480  145.9650 C   0  0  0  0  0  2  0  0  0  0  0  0
  189.3630  177.6640  145.5350 O   0  0  0  0  0  0  0  0  0  0  0  0
  184.6940  178.1150  147.3560 O   0  0  0  0  0  0  0  0  0  0  0  0
  190.0930  172.9320  142.8020 C   0  0  0  0  0  3  0  0  0  0  0  0
  187.1440  177.8860  145.8740 C   0  0  2  0  0  3  0  0  0  0  0  0
  192.8630  172.8010  143.2710 C   0  0  0  0  0  0  0  0  0  0  0  0
  188.7110  175.4090  143.5940 C   0  0  0  0  0  3  0  0  0  0  0  0
  192.1340  173.9600  143.6380 C   0  0  0  0  0  0  0  0  0  0  0  0
  186.6020  176.6730  143.4050 C   0  0  2  0  0  3  0  0  0  0  0  0
  192.7630  175.0170  144.3070 O   0  0  0  0  0  0  0  0  0  0  0  0
  185.8140  177.7020  143.9410 O   0  0  0  0  0  0  0  0  0  0  0  0
  191.6120  176.8830  145.6990 C   0  0  0  0  0  2  0  0  0  0  0  0
  190.2050  176.8290  146.2790 C   0  0  1  0  0  3  0  0  0  0  0  0
  190.8000  171.7670  142.5100 C   0  0  0  0  0  3  0  0  0  0  0  0
  190.7510  174.0310  143.3750 C   0  0  0  0  0  0  0  0  0  0  0  0
  188.1960  176.9860  145.3750 N   0  0  1  0  0  0  0  0  0  0  0  0
  188.0680  176.7240  143.9140 C   0  0  1  0  0  3  0  0  0  0  0  0
  192.1750  171.7050  142.7480 C   0  0  0  0  0  3  0  0  0  0  0  0
  187.4330  175.9770  141.1340 C   0  0  0  0  0  3  0  0  0  0  0  0
  186.5520  176.9850  139.1050 C   0  0  0  0  0  0  0  0  0  0  0  0
  185.7130  177.6810  141.2740 C   0  0  0  0  0  3  0  0  0  0  0  0
  185.6980  177.7860  139.8830 C   0  0  0  0  0  3  0  0  0  0  0  0
  187.4220  176.0870  139.7390 C   0  0  0  0  0  3  0  0  0  0  0  0
  186.5730  176.7700  141.9080 C   0  0  0  0  0  0  0  0  0  0  0  0
  186.5610  177.0710  137.7080 O   0  0  0  0  0  0  0  0  0  0  0  0
  186.8890  175.9880  136.8900 C   0  0  0  0  0  3  0  0  0  0  0  0
  186.7880  176.0910  135.5780 C   0  0  0  0  0  2  0  0  0  0  0  0
  194.2540  172.6860  143.3830 O   0  0  0  0  0  0  0  0  0  0  0  0
  195.1670  172.7240  142.2910 C   0  0  0  0  0  2  0  0  0  0  0  0
  195.4910  174.1640  141.8960 C   0  0  2  0  0  3  0  0  0  0  0  0
  195.7770  176.1660  143.1400 O   0  0  0  0  0  0  0  0  0  0  0  0
  195.9760  174.9650  143.0710 C   0  0  0  0  0  3  0  0  0  0  0  0
  194.3750  174.8730  141.1100 C   0  0  0  0  0  2  0  0  0  0  0  0
  194.7030  175.0390  139.6270 C   0  0  1  0  0  3  0  0  0  0  0  0
  196.0870  175.0600  139.4260 O   0  0  0  0  0  1  0  0  0  0  0  0
  189.6710  173.2590  139.1120 C   0  0  0  0  0  2  0  0  0  0  0  0
  193.9560  173.6630  135.2100 O   0  0  0  0  0  1  0  0  0  0  0  0
  194.0070  173.9910  138.7320 C   0  0  1  0  0  0  0  0  0  0  0  0
  193.4500  175.7670  137.2150 O   0  0  0  0  0  0  0  0  0  0  0  0
  193.5350  174.5590  137.4040 C   0  0  0  0  0  0  0  0  0  0  0  0
  191.9080  172.6900  138.7110 O   0  0  0  0  0  0  0  0  0  0  0  0
  191.6190  173.6450  135.9350 C   0  0  1  0  0  3  0  0  0  0  0  0
  190.7240  173.2930  138.3080 C   0  0  0  0  0  0  0  0  0  0  0  0
  193.1140  173.5970  136.3270 C   0  0  1  0  0  3  0  0  0  0  0  0
  194.9180  172.9640  138.4720 O   0  0  0  0  0  1  0  0  0  0  0  0
  190.6640  174.1140  137.0530 C   0  0  0  0  0  2  0  0  0  0  0  0
  192.8390  173.3990  139.5370 C   0  0  0  0  0  2  0  0  0  0  0  0
  191.4310  174.4300  134.7920 O   0  0  0  0  0  0  0  0  0  0  0  0
  190.5180  175.4060  135.1930 C   0  0  0  0  0  1  0  0  0  0  0  0
  4  5  1  0  0  0  0
  6 11  1  0  0  0  0
  6  7  1  1  0  0  0
  7  9  1  0  0  0  0
  8 19  1  0  0  0  0
  9  5  1  0  0  0  0
 10 21  1  0  0  0  0
 11  4  1  1  0  0  0
 12 34  1  0  0  0  0
 12 14  1  0  0  0  0
 13  1  2  0  0  0  0
 14 16  1  0  0  0  0
 15 30  1  6  0  0  0
 15 23  1  0  0  0  0
 15 17  1  0  0  0  0
 16  2  1  0  0  0  0
 17  6  1  0  0  0  0
 18  2  1  0  0  0  0
 18 19  1  0  0  0  0
 19  3  1  1  0  0  0
 20 24  1  0  0  0  0
 20 10  2  0  0  0  0
 21  1  1  0  0  0  0
 21 14  2  0  0  0  0
 22  8  1  6  0  0  0
 22 11  1  0  0  0  0
 23 13  1  1  0  0  0
 23 22  1  0  0  0  0
 24 12  2  0  0  0  0
 25 30  1  0  0  0  0
 26 29  1  0  0  0  0
 26 28  2  0  0  0  0
 27 30  2  0  0  0  0
 28 27  1  0  0  0  0
 29 25  2  0  0  0  0
 31 26  1  0  0  0  0
 32 31  1  0  0  0  0
 33 32  2  0  0  0  0
 35 34  1  0  0  0  0
 36 39  1  1  0  0  0
 36 35  1  0  0  0  0
 36 38  1  0  0  0  0
 38 37  2  0  0  0  0
 40 41  1  1  0  0  0
 40 39  1  0  0  0  0
 44 51  1  6  0  0  0
 44 53  1  0  0  0  0
 44 40  1  0  0  0  0
 45 46  2  0  0  0  0
 46 44  1  0  0  0  0
 47 53  1  0  0  0  0
 48 54  1  6  0  0  0
 48 50  1  0  0  0  0
 48 52  1  0  0  0  0
 49 47  1  0  0  0  0
 49 42  2  0  0  0  0
 50 43  1  6  0  0  0
 50 46  1  0  0  0  0
 52 49  1  0  0  0  0
 54 55  1  0  0  0  0
M  END
>  <MODEL>
3

>  <REMARK>
 VINA RESULT:      -7.7      2.884      9.108
  Name = 
  11 active torsions:
  status: ('A' for Active; 'I' for Inactive)
    1  A    between atoms: C_6  and  C_20
    2  A    between atoms: C_8  and  C_43
    3  A    between atoms: O_10  and  C_18
    4  A    between atoms: O_10  and  C_32
    5  A    between atoms: O_11  and  C_29
    6  A    between atoms: C_20  and  C_22
    7  A    between atoms: C_22  and  C_43
    8  A    between atoms: C_27  and  O_54
    9  A    between atoms: C_33  and  C_52
   10  A    between atoms: C_43  and  C_51
   11  A    between atoms: C_51  and  O_54
                            x       y       z     vdW  Elec       q    Type
                         _______ _______ _______ _____ _____    ______ ____

>  <TORSDO>
F 11

$$$$
=
 OpenBabel11052419423D

 55 60  0  0  1  0  0  0  0  0999 V2000
  194.1690  174.5890  139.9630 C   0  0  0  0  0  3  0  0  0  0  0  0
  193.2580  172.6630  142.6000 S   0  0  0  0  0  0  0  0  0  0  0  0
  192.8670  170.2240  140.2070 C   0  0  0  0  0  1  0  0  0  0  0  0
  193.8740  169.9380  137.1600 C   0  0  0  0  0  2  0  0  0  0  0  0
  193.8370  169.1290  135.8610 C   0  0  0  0  0  2  0  0  0  0  0  0
  194.5880  171.8480  135.7200 C   0  0  2  0  0  3  0  0  0  0  0  0
  194.4630  170.8680  134.5560 C   0  0  0  0  0  2  0  0  0  0  0  0
  192.6940  172.1210  138.7560 O   0  0  0  0  0  0  0  0  0  0  0  0
  194.8470  169.5810  134.9830 O   0  0  0  0  0  0  0  0  0  0  0  0
  196.0530  175.9350  140.8920 C   0  0  0  0  0  3  0  0  0  0  0  0
  193.6430  171.4190  136.8340 C   0  0  2  0  0  3  0  0  0  0  0  0
  194.8570  175.9190  143.4380 C   0  0  0  0  0  0  0  0  0  0  0  0
  194.7070  174.4060  138.7660 C   0  0  0  0  0  3  0  0  0  0  0  0
  194.2670  175.1960  142.3710 C   0  0  0  0  0  0  0  0  0  0  0  0
  194.6390  173.9920  136.3360 C   0  0  2  0  0  3  0  0  0  0  0  0
  193.1330  174.4030  142.5870 O   0  0  0  0  0  0  0  0  0  0  0  0
  194.2120  173.1260  135.3180 O   0  0  0  0  0  0  0  0  0  0  0  0
  192.2750  172.4710  141.0790 C   0  0  0  0  0  2  0  0  0  0  0  0
  193.0910  171.7170  140.0360 C   0  0  1  0  0  3  0  0  0  0  0  0
  196.6680  176.5850  141.9610 C   0  0  0  0  0  3  0  0  0  0  0  0
  194.8560  175.2300  141.0910 C   0  0  0  0  0  0  0  0  0  0  0  0
  193.8330  172.2570  138.0280 N   0  0  1  0  0  0  0  0  0  0  0  0
  193.9360  173.7060  137.6900 C   0  0  1  0  0  3  0  0  0  0  0  0
  196.0720  176.5710  143.2250 C   0  0  0  0  0  3  0  0  0  0  0  0
  195.4490  176.2540  135.5910 C   0  0  0  0  0  3  0  0  0  0  0  0
  193.8930  178.0710  135.1540 C   0  0  0  0  0  0  0  0  0  0  0  0
  193.0650  175.9010  135.8610 C   0  0  0  0  0  3  0  0  0  0  0  0
  192.8220  177.2210  135.4830 C   0  0  0  0  0  3  0  0  0  0  0  0
  195.2050  177.5820  135.2180 C   0  0  0  0  0  3  0  0  0  0  0  0
  194.3780  175.4060  135.9100 C   0  0  0  0  0  0  0  0  0  0  0  0
  193.6800  179.4000  134.7740 O   0  0  0  0  0  0  0  0  0  0  0  0
  194.5910  180.4200  135.0560 C   0  0  0  0  0  3  0  0  0  0  0  0
  194.1780  181.6680  135.1720 C   0  0  0  0  0  2  0  0  0  0  0  0
  194.2820  176.0410  144.7100 O   0  0  0  0  0  0  0  0  0  0  0  0
  193.2300  176.9390  145.0470 C   0  0  0  0  0  2  0  0  0  0  0  0
  192.1120  176.2170  145.7990 C   0  0  2  0  0  3  0  0  0  0  0  0
  191.9710  174.9170  147.7800 O   0  0  0  0  0  0  0  0  0  0  0  0
  192.6580  175.2850  146.8430 C   0  0  0  0  0  3  0  0  0  0  0  0
  191.0640  175.5500  144.8910 C   0  0  0  0  0  2  0  0  0  0  0  0
  190.1860  176.5590  144.1530 C   0  0  1  0  0  3  0  0  0  0  0  0
  190.5540  176.6430  142.8060 O   0  0  0  0  0  1  0  0  0  0  0  0
  186.4570  178.0300  147.7140 C   0  0  0  0  0  2  0  0  0  0  0  0
  185.9970  176.7680  142.0620 O   0  0  0  0  0  1  0  0  0  0  0  0
  188.6770  176.2850  144.3220 C   0  0  1  0  0  0  0  0  0  0  0  0
  188.2500  178.3350  143.1460 O   0  0  0  0  0  0  0  0  0  0  0  0
  187.8010  177.2760  143.5720 C   0  0  0  0  0  0  0  0  0  0  0  0
  186.9700  176.4090  146.1030 O   0  0  0  0  0  0  0  0  0  0  0  0
  185.3620  177.9060  144.1330 C   0  0  1  0  0  3  0  0  0  0  0  0
  186.4200  177.6360  146.4500 C   0  0  0  0  0  0  0  0  0  0  0  0
  186.3410  176.9550  143.4070 C   0  0  1  0  0  3  0  0  0  0  0  0
  188.4070  175.0040  143.8330 O   0  0  0  0  0  1  0  0  0  0  0  0
  185.9280  178.5870  145.3970 C   0  0  0  0  0  2  0  0  0  0  0  0
  188.3700  176.2940  145.8280 C   0  0  0  0  0  2  0  0  0  0  0  0
  184.8680  178.8760  143.2540 O   0  0  0  0  0  0  0  0  0  0  0  0
  185.1660  180.0880  143.8790 C   0  0  0  0  0  1  0  0  0  0  0  0
  1 21  1  0  0  0  0
  5  4  1  0  0  0  0
  6  7  1  6  0  0  0
  6 11  1  0  0  0  0
  7  9  1  0  0  0  0
  8 19  1  0  0  0  0
  9  5  1  0  0  0  0
 10 21  2  0  0  0  0
 10 20  1  0  0  0  0
 11  4  1  1  0  0  0
 11 22  1  0  0  0  0
 12 34  1  0  0  0  0
 13  1  2  0  0  0  0
 14 16  1  0  0  0  0
 14 12  2  0  0  0  0
 15 30  1  6  0  0  0
 15 23  1  0  0  0  0
 16  2  1  0  0  0  0
 17  6  1  0  0  0  0
 17 15  1  0  0  0  0
 18  2  1  0  0  0  0
 19  3  1  6  0  0  0
 19 18  1  0  0  0  0
 20 24  2  0  0  0  0
 21 14  1  0  0  0  0
 22  8  1  1  0  0  0
 23 22  1  0  0  0  0
 23 13  1  1  0  0  0
 24 12  1  0  0  0  0
 25 30  1  0  0  0  0
 26 29  1  0  0  0  0
 26 28  2  0  0  0  0
 27 30  2  0  0  0  0
 28 27  1  0  0  0  0
 29 25  2  0  0  0  0
 31 32  1  0  0  0  0
 31 26  1  0  0  0  0
 32 33  2  0  0  0  0
 34 35  1  0  0  0  0
 35 36  1  0  0  0  0
 36 39  1  6  0  0  0
 36 38  1  0  0  0  0
 38 37  2  0  0  0  0
 40 41  1  6  0  0  0
 40 44  1  0  0  0  0
 40 39  1  0  0  0  0
 44 51  1  6  0  0  0
 44 53  1  0  0  0  0
 45 46  2  0  0  0  0
 46 44  1  0  0  0  0
 47 49  1  0  0  0  0
 48 54  1  6  0  0  0
 48 52  1  0  0  0  0
 49 42  2  0  0  0  0
 50 43  1  6  0  0  0
 50 46  1  0  0  0  0
 50 48  1  0  0  0  0
 52 49  1  0  0  0  0
 53 47  1  0  0  0  0
 54 55  1  0  0  0  0
M  END
>  <MODEL>
4

>  <REMARK>
 VINA RESULT:      -7.5      1.254      2.157
  Name = 
  11 active torsions:
  status: ('A' for Active; 'I' for Inactive)
    1  A    between atoms: C_6  and  C_20
    2  A    between atoms: C_8  and  C_43
    3  A    between atoms: O_10  and  C_18
    4  A    between atoms: O_10  and  C_32
    5  A    between atoms: O_11  and  C_29
    6  A    between atoms: C_20  and  C_22
    7  A    between atoms: C_22  and  C_43
    8  A    between atoms: C_27  and  O_54
    9  A    between atoms: C_33  and  C_52
   10  A    between atoms: C_43  and  C_51
   11  A    between atoms: C_51  and  O_54
                            x       y       z     vdW  Elec       q    Type
                         _______ _______ _______ _____ _____    ______ ____

>  <TORSDO>
F 11

$$$$
=
 OpenBabel11052419423D

 55 60  0  0  1  0  0  0  0  0999 V2000
  191.1460  172.5170  140.0600 C   0  0  0  0  0  3  0  0  0  0  0  0
  188.4910  173.6720  138.2970 S   0  0  0  0  0  0  0  0  0  0  0  0
  190.0780  172.1730  135.6390 C   0  0  0  0  0  1  0  0  0  0  0  0
  192.4390  169.9920  135.4210 C   0  0  0  0  0  2  0  0  0  0  0  0
  193.3940  169.2130  134.5130 C   0  0  0  0  0  2  0  0  0  0  0  0
  194.0680  169.4820  137.2420 C   0  0  2  0  0  3  0  0  0  0  0  0
  194.8790  168.7710  136.1620 C   0  0  0  0  0  2  0  0  0  0  0  0
  191.9910  172.4030  137.0610 O   0  0  0  0  0  0  0  0  0  0  0  0
  194.0020  168.1660  135.2390 O   0  0  0  0  0  0  0  0  0  0  0  0
  190.1020  171.7780  142.2020 C   0  0  0  0  0  3  0  0  0  0  0  0
  193.2320  170.5770  136.5950 C   0  0  2  0  0  3  0  0  0  0  0  0
  188.1680  173.8100  142.0030 C   0  0  0  0  0  0  0  0  0  0  0  0
  192.0090  171.5140  139.9740 C   0  0  0  0  0  3  0  0  0  0  0  0
  189.1100  173.6210  140.9620 C   0  0  0  0  0  0  0  0  0  0  0  0
  194.1110  170.4440  139.2550 C   0  0  2  0  0  3  0  0  0  0  0  0
  189.0420  174.3860  139.7900 O   0  0  0  0  0  0  0  0  0  0  0  0
  194.9170  170.0880  138.1630 O   0  0  0  0  0  0  0  0  0  0  0  0
  190.1200  173.8190  137.4970 C   0  0  0  0  0  2  0  0  0  0  0  0
  190.5920  172.4430  137.0440 C   0  0  1  0  0  3  0  0  0  0  0  0
  189.1280  171.9200  143.1900 C   0  0  0  0  0  3  0  0  0  0  0  0
  190.0940  172.6190  141.0790 C   0  0  0  0  0  0  0  0  0  0  0  0
  192.3330  171.1950  137.5830 N   0  0  1  0  0  0  0  0  0  0  0  0
  193.0230  171.4830  138.8720 C   0  0  1  0  0  3  0  0  0  0  0  0
  188.1680  172.9280  143.0850 C   0  0  0  0  0  3  0  0  0  0  0  0
  195.2160  170.2400  141.5060 C   0  0  0  0  0  3  0  0  0  0  0  0
  196.5860  172.0360  142.4060 C   0  0  0  0  0  0  0  0  0  0  0  0
  195.5470  172.2730  140.2250 C   0  0  0  0  0  3  0  0  0  0  0  0
  196.3450  172.7910  141.2450 C   0  0  0  0  0  3  0  0  0  0  0  0
  196.0120  170.7630  142.5320 C   0  0  0  0  0  3  0  0  0  0  0  0
  194.9850  170.9910  140.3440 C   0  0  0  0  0  0  0  0  0  0  0  0
  197.3800  172.5300  143.4470 O   0  0  0  0  0  0  0  0  0  0  0  0
  197.4870  171.8890  144.6820 C   0  0  0  0  0  3  0  0  0  0  0  0
  196.7900  172.3190  145.7180 C   0  0  0  0  0  2  0  0  0  0  0  0
  187.2310  174.8520  142.0300 O   0  0  0  0  0  0  0  0  0  0  0  0
  187.0280  175.7380  143.1250 C   0  0  0  0  0  2  0  0  0  0  0  0
  188.2640  176.6040  143.3680 C   0  0  2  0  0  3  0  0  0  0  0  0
  188.1740  178.2450  141.6550 O   0  0  0  0  0  0  0  0  0  0  0  0
  188.7370  177.2610  142.1030 C   0  0  0  0  0  3  0  0  0  0  0  0
  189.3950  175.8960  144.1330 C   0  0  0  0  0  2  0  0  0  0  0  0
  190.1490  176.8280  145.0800 C   0  0  1  0  0  3  0  0  0  0  0  0
  189.3040  177.2950  146.0920 O   0  0  0  0  0  1  0  0  0  0  0  0
  193.1070  172.5230  143.8640 C   0  0  0  0  0  2  0  0  0  0  0  0
  194.6310  177.6210  146.1980 O   0  0  0  0  0  1  0  0  0  0  0  0
  191.4380  176.1980  145.6500 C   0  0  1  0  0  0  0  0  0  0  0  0
  192.6780  177.4190  143.9960 O   0  0  0  0  0  0  0  0  0  0  0  0
  192.7050  176.7670  145.0330 C   0  0  0  0  0  0  0  0  0  0  0  0
  192.6070  174.0230  145.5930 O   0  0  0  0  0  0  0  0  0  0  0  0
  194.9990  175.5950  144.8760 C   0  0  1  0  0  3  0  0  0  0  0  0
  193.3570  173.6700  144.4790 C   0  0  0  0  0  0  0  0  0  0  0  0
  194.0200  176.4630  145.6980 C   0  0  1  0  0  3  0  0  0  0  0  0
  191.4710  176.4420  147.0260 O   0  0  0  0  0  1  0  0  0  0  0  0
  194.3340  174.6330  143.8690 C   0  0  0  0  0  2  0  0  0  0  0  0
  191.3430  174.6780  145.4380 C   0  0  0  0  0  2  0  0  0  0  0  0
  195.9390  176.3940  144.2180 O   0  0  0  0  0  0  0  0  0  0  0  0
  195.8220  176.0260  142.8770 C   0  0  0  0  0  1  0  0  0  0  0  0
  1 21  1  0  0  0  0
  2 16  1  0  0  0  0
  5  9  1  0  0  0  0
  5  4  1  0  0  0  0
  6  7  1  6  0  0  0
  6 17  1  0  0  0  0
  9  7  1  0  0  0  0
 10 20  1  0  0  0  0
 11  4  1  6  0  0  0
 11  6  1  0  0  0  0
 11 22  1  0  0  0  0
 12 34  1  0  0  0  0
 12 24  1  0  0  0  0
 13  1  2  0  0  0  0
 14 21  1  0  0  0  0
 14 12  2  0  0  0  0
 15 30  1  1  0  0  0
 16 14  1  0  0  0  0
 17 15  1  0  0  0  0
 18  2  1  0  0  0  0
 19  3  1  6  0  0  0
 19  8  1  0  0  0  0
 19 18  1  0  0  0  0
 21 10  2  0  0  0  0
 22  8  1  6  0  0  0
 22 23  1  0  0  0  0
 23 15  1  0  0  0  0
 23 13  1  1  0  0  0
 24 20  2  0  0  0  0
 25 29  1  0  0  0  0
 26 29  2  0  0  0  0
 26 31  1  0  0  0  0
 27 30  1  0  0  0  0
 27 28  2  0  0  0  0
 28 26  1  0  0  0  0
 30 25  2  0  0  0  0
 31 32  1  0  0  0  0
 32 33  2  0  0  0  0
 34 35  1  0  0  0  0
 35 36  1  0  0  0  0
 36 38  1  6  0  0  0
 36 39  1  0  0  0  0
 37 38  2  0  0  0  0
 39 40  1  0  0  0  0
 40 44  1  0  0  0  0
 40 41  1  1  0  0  0
 42 49  2  0  0  0  0
 44 51  1  1  0  0  0
 45 46  2  0  0  0  0
 46 44  1  0  0  0  0
 46 50  1  0  0  0  0
 48 54  1  6  0  0  0
 48 50  1  0  0  0  0
 49 47  1  0  0  0  0
 50 43  1  6  0  0  0
 52 49  1  0  0  0  0
 52 48  1  0  0  0  0
 53 47  1  0  0  0  0
 53 44  1  0  0  0  0
 55 54  1  0  0  0  0
M  END
>  <MODEL>
5

>  <REMARK>
 VINA RESULT:      -7.5      3.406      6.722
  Name = 
  11 active torsions:
  status: ('A' for Active; 'I' for Inactive)
    1  A    between atoms: C_6  and  C_20
    2  A    between atoms: C_8  and  C_43
    3  A    between atoms: O_10  and  C_18
    4  A    between atoms: O_10  and  C_32
    5  A    between atoms: O_11  and  C_29
    6  A    between atoms: C_20  and  C_22
    7  A    between atoms: C_22  and  C_43
    8  A    between atoms: C_27  and  O_54
    9  A    between atoms: C_33  and  C_52
   10  A    between atoms: C_43  and  C_51
   11  A    between atoms: C_51  and  O_54
                            x       y       z     vdW  Elec       q    Type
                         _______ _______ _______ _____ _____    ______ ____

>  <TORSDO>
F 11

$$$$
=
 OpenBabel11052419423D

 55 60  0  0  1  0  0  0  0  0999 V2000
  190.1700  175.0000  143.1910 C   0  0  0  0  0  3  0  0  0  0  0  0
  192.0880  172.4110  142.1370 S   0  0  0  0  0  0  0  0  0  0  0  0
  190.0950  172.5600  139.3380 C   0  0  0  0  0  1  0  0  0  0  0  0
  188.0900  174.7950  138.1710 C   0  0  0  0  0  2  0  0  0  0  0  0
  187.0520  175.1670  137.1090 C   0  0  0  0  0  2  0  0  0  0  0  0
  187.0760  176.6320  139.5220 C   0  0  2  0  0  3  0  0  0  0  0  0
  186.1220  176.8170  138.3460 C   0  0  0  0  0  2  0  0  0  0  0  0
  188.6020  173.6670  140.8480 O   0  0  0  0  0  0  0  0  0  0  0  0
  186.8070  176.5570  137.1410 O   0  0  0  0  0  0  0  0  0  0  0  0
  191.8250  176.4850  144.3210 C   0  0  0  0  0  3  0  0  0  0  0  0
  187.5530  175.1870  139.5530 C   0  0  2  0  0  3  0  0  0  0  0  0
  193.3360  174.2520  145.1230 C   0  0  0  0  0  0  0  0  0  0  0  0
  189.4640  175.9760  142.6380 C   0  0  0  0  0  3  0  0  0  0  0  0
  192.1920  174.0790  144.3030 C   0  0  0  0  0  0  0  0  0  0  0  0
  187.4200  176.9870  141.6980 C   0  0  2  0  0  3  0  0  0  0  0  0
  191.8460  172.8120  143.8180 O   0  0  0  0  0  0  0  0  0  0  0  0
  186.4180  176.8840  140.7230 O   0  0  0  0  0  0  0  0  0  0  0  0
  190.3030  172.2880  141.7960 C   0  0  0  0  0  2  0  0  0  0  0  0
  189.9290  173.2540  140.6800 C   0  0  1  0  0  3  0  0  0  0  0  0
  192.9910  176.6570  145.0660 C   0  0  0  0  0  3  0  0  0  0  0  0
  191.4240  175.1990  143.9270 C   0  0  0  0  0  0  0  0  0  0  0  0
  188.5810  175.0010  140.5900 N   0  0  1  0  0  0  0  0  0  0  0  0
  188.2140  175.6650  141.8730 C   0  0  1  0  0  3  0  0  0  0  0  0
  193.7400  175.5450  145.4590 C   0  0  0  0  0  3  0  0  0  0  0  0
  186.5070  178.7330  143.2640 C   0  0  0  0  0  3  0  0  0  0  0  0
  185.6490  178.1340  145.4590 C   0  0  0  0  0  0  0  0  0  0  0  0
  186.5110  176.4140  143.9770 C   0  0  0  0  0  3  0  0  0  0  0  0
  185.9410  176.7840  145.1960 C   0  0  0  0  0  3  0  0  0  0  0  0
  185.9420  179.1040  144.4900 C   0  0  0  0  0  3  0  0  0  0  0  0
  186.7900  177.3840  143.0000 C   0  0  0  0  0  0  0  0  0  0  0  0
  185.0800  178.5350  146.6720 O   0  0  0  0  0  0  0  0  0  0  0  0
  185.6880  178.2920  147.9060 C   0  0  0  0  0  3  0  0  0  0  0  0
  186.6900  179.0470  148.3140 C   0  0  0  0  0  2  0  0  0  0  0  0
  194.0900  173.1920  145.6430 O   0  0  0  0  0  0  0  0  0  0  0  0
  194.6990  172.1660  144.8670 C   0  0  0  0  0  2  0  0  0  0  0  0
  196.2220  172.2200  144.9820 C   0  0  2  0  0  3  0  0  0  0  0  0
  197.4580  173.9740  145.9980 O   0  0  0  0  0  0  0  0  0  0  0  0
  196.6600  173.0640  146.1450 C   0  0  0  0  0  3  0  0  0  0  0  0
  196.9460  172.5830  143.6740 C   0  0  0  0  0  2  0  0  0  0  0  0
  196.1140  173.4850  142.7640 C   0  0  1  0  0  3  0  0  0  0  0  0
  196.3630  174.8330  143.0390 O   0  0  0  0  0  1  0  0  0  0  0  0
  193.5610  170.3390  139.2510 C   0  0  0  0  0  2  0  0  0  0  0  0
  196.4530  175.3150  138.4620 O   0  0  0  0  0  1  0  0  0  0  0  0
  196.2920  173.1610  141.2650 C   0  0  1  0  0  0  0  0  0  0  0  0
  194.6810  174.8750  140.7800 O   0  0  0  0  0  0  0  0  0  0  0  0
  195.5530  174.1270  140.3520 C   0  0  0  0  0  0  0  0  0  0  0  0
  195.6020  171.4120  139.6630 O   0  0  0  0  0  0  0  0  0  0  0  0
  194.7320  173.6520  137.9520 C   0  0  1  0  0  3  0  0  0  0  0  0
  194.3160  171.4220  139.1390 C   0  0  0  0  0  0  0  0  0  0  0  0
  195.8780  174.1090  138.8840 C   0  0  1  0  0  3  0  0  0  0  0  0
  197.6550  173.2260  140.9630 O   0  0  0  0  0  1  0  0  0  0  0  0
  193.7150  172.6840  138.5920 C   0  0  0  0  0  2  0  0  0  0  0  0
  195.8240  171.7130  141.0460 C   0  0  0  0  0  2  0  0  0  0  0  0
  194.0610  174.7550  137.4130 O   0  0  0  0  0  0  0  0  0  0  0  0
  192.7140  174.3950  137.4660 C   0  0  0  0  0  1  0  0  0  0  0  0
  1 21  1  0  0  0  0
  2 16  1  0  0  0  0
  5  9  1  0  0  0  0
  5  4  1  0  0  0  0
  6  7  1  6  0  0  0
  6 11  1  0  0  0  0
  6 17  1  0  0  0  0
  9  7  1  0  0  0  0
 10 20  1  0  0  0  0
 11  4  1  6  0  0  0
 11 22  1  0  0  0  0
 12 24  1  0  0  0  0
 12 34  1  0  0  0  0
 13  1  2  0  0  0  0
 14 12  2  0  0  0  0
 15 23  1  0  0  0  0
 15 30  1  1  0  0  0
 16 14  1  0  0  0  0
 17 15  1  0  0  0  0
 18  2  1  0  0  0  0
 19  3  1  6  0  0  0
 19  8  1  0  0  0  0
 19 18  1  0  0  0  0
 20 24  2  0  0  0  0
 21 14  1  0  0  0  0
 21 10  2  0  0  0  0
 22  8  1  1  0  0  0
 22 23  1  0  0  0  0
 23 13  1  6  0  0  0
 25 29  1  0  0  0  0
 26 31  1  0  0  0  0
 27 28  2  0  0  0  0
 28 26  1  0  0  0  0
 29 26  2  0  0  0  0
 30 25  2  0  0  0  0
 30 27  1  0  0  0  0
 31 32  1  0  0  0  0
 32 33  2  0  0  0  0
 35 36  1  0  0  0  0
 35 34  1  0  0  0  0
 36 39  1  6  0  0  0
 36 38  1  0  0  0  0
 37 38  2  0  0  0  0
 40 41  1  6  0  0  0
 40 39  1  0  0  0  0
 44 51  1  6  0  0  0
 44 40  1  0  0  0  0
 46 45  2  0  0  0  0
 46 44  1  0  0  0  0
 47 53  1  0  0  0  0
 48 54  1  1  0  0  0
 48 52  1  0  0  0  0
 48 50  1  0  0  0  0
 49 42  2  0  0  0  0
 49 47  1  0  0  0  0
 50 43  1  6  0  0  0
 50 46  1  0  0  0  0
 52 49  1  0  0  0  0
 53 44  1  0  0  0  0
 54 55  1  0  0  0  0
M  END
>  <MODEL>
6

>  <REMARK>
 VINA RESULT:      -7.4      3.191      8.581
  Name = 
  11 active torsions:
  status: ('A' for Active; 'I' for Inactive)
    1  A    between atoms: C_6  and  C_20
    2  A    between atoms: C_8  and  C_43
    3  A    between atoms: O_10  and  C_18
    4  A    between atoms: O_10  and  C_32
    5  A    between atoms: O_11  and  C_29
    6  A    between atoms: C_20  and  C_22
    7  A    between atoms: C_22  and  C_43
    8  A    between atoms: C_27  and  O_54
    9  A    between atoms: C_33  and  C_52
   10  A    between atoms: C_43  and  C_51
   11  A    between atoms: C_51  and  O_54
                            x       y       z     vdW  Elec       q    Type
                         _______ _______ _______ _____ _____    ______ ____

>  <TORSDO>
F 11

$$$$
=
 OpenBabel11052419423D

 55 60  0  0  1  0  0  0  0  0999 V2000
  191.5420  172.7370  139.8290 C   0  0  0  0  0  3  0  0  0  0  0  0
  188.5790  173.0950  138.2220 S   0  0  0  0  0  0  0  0  0  0  0  0
  190.2360  171.5860  135.6130 C   0  0  0  0  0  1  0  0  0  0  0  0
  192.9760  169.9010  135.4160 C   0  0  0  0  0  2  0  0  0  0  0  0
  194.0000  169.2080  134.5140 C   0  0  0  0  0  2  0  0  0  0  0  0
  194.8090  169.9760  137.1080 C   0  0  2  0  0  3  0  0  0  0  0  0
  195.6650  169.2970  136.0440 C   0  0  0  0  0  2  0  0  0  0  0  0
  192.1630  172.3790  136.7940 O   0  0  0  0  0  0  0  0  0  0  0  0
  194.8660  168.4100  135.2940 O   0  0  0  0  0  0  0  0  0  0  0  0
  190.8400  172.1090  142.1390 C   0  0  0  0  0  3  0  0  0  0  0  0
  193.7170  170.7870  136.4250 C   0  0  2  0  0  3  0  0  0  0  0  0
  188.5160  173.6750  141.8990 C   0  0  0  0  0  0  0  0  0  0  0  0
  192.5860  171.9210  139.7750 C   0  0  0  0  0  3  0  0  0  0  0  0
  189.3960  173.5340  140.7960 C   0  0  0  0  0  0  0  0  0  0  0  0
  194.8030  171.1950  138.9770 C   0  0  2  0  0  3  0  0  0  0  0  0
  189.0820  174.1020  139.5550 O   0  0  0  0  0  0  0  0  0  0  0  0
  195.5800  170.8570  137.8590 O   0  0  0  0  0  0  0  0  0  0  0  0
  190.0760  173.4470  137.2470 C   0  0  0  0  0  2  0  0  0  0  0  0
  190.7880  172.1410  136.9150 C   0  0  1  0  0  3  0  0  0  0  0  0
  189.9370  172.1920  143.1980 C   0  0  0  0  0  3  0  0  0  0  0  0
  190.5730  172.7700  140.9310 C   0  0  0  0  0  0  0  0  0  0  0  0
  192.7860  171.3460  137.4180 N   0  0  1  0  0  0  0  0  0  0  0  0
  193.4980  171.9380  138.5870 C   0  0  1  0  0  3  0  0  0  0  0  0
  188.7820  172.9680  143.0720 C   0  0  0  0  0  3  0  0  0  0  0  0
  196.0050  171.5600  141.1570 C   0  0  0  0  0  3  0  0  0  0  0  0
  197.1250  173.6620  141.6440 C   0  0  0  0  0  0  0  0  0  0  0  0
  195.9870  173.3520  139.5220 C   0  0  0  0  0  3  0  0  0  0  0  0
  196.7350  174.1530  140.3860 C   0  0  0  0  0  3  0  0  0  0  0  0
  196.7510  172.3670  142.0260 C   0  0  0  0  0  3  0  0  0  0  0  0
  195.6240  172.0480  139.8980 C   0  0  0  0  0  0  0  0  0  0  0  0
  197.8740  174.4430  142.5310 O   0  0  0  0  0  0  0  0  0  0  0  0
  197.2850  175.3280  143.4370 C   0  0  0  0  0  3  0  0  0  0  0  0
  197.1830  176.6110  143.1430 C   0  0  0  0  0  2  0  0  0  0  0  0
  187.3890  174.5070  141.8960 O   0  0  0  0  0  0  0  0  0  0  0  0
  187.3780  175.8660  141.4730 C   0  0  0  0  0  2  0  0  0  0  0  0
  186.6710  176.7540  142.4960 C   0  0  2  0  0  3  0  0  0  0  0  0
  185.6960  178.2850  140.9670 O   0  0  0  0  0  0  0  0  0  0  0  0
  185.5200  177.4990  141.8820 C   0  0  0  0  0  3  0  0  0  0  0  0
  187.6110  177.6670  143.3020 C   0  0  0  0  0  2  0  0  0  0  0  0
  189.0670  177.5710  142.8490 C   0  0  1  0  0  3  0  0  0  0  0  0
  189.3950  178.6360  142.0050 O   0  0  0  0  0  1  0  0  0  0  0  0
  189.3160  174.5400  147.2660 C   0  0  0  0  0  2  0  0  0  0  0  0
  193.5470  176.8460  144.0210 O   0  0  0  0  0  1  0  0  0  0  0  0
  190.0600  177.4420  144.0250 C   0  0  1  0  0  0  0  0  0  0  0  0
  191.1260  175.6510  142.8320 O   0  0  0  0  0  0  0  0  0  0  0  0
  191.1870  176.4590  143.7520 C   0  0  0  0  0  0  0  0  0  0  0  0
  190.0830  176.5440  146.3260 O   0  0  0  0  0  0  0  0  0  0  0  0
  192.5670  175.1730  145.5130 C   0  0  1  0  0  3  0  0  0  0  0  0
  190.2180  175.1770  146.5340 C   0  0  0  0  0  0  0  0  0  0  0  0
  192.3720  176.4590  144.6780 C   0  0  1  0  0  3  0  0  0  0  0  0
  190.6210  178.7000  144.2630 O   0  0  0  0  0  1  0  0  0  0  0  0
  191.2740  174.3870  145.8160 C   0  0  0  0  0  2  0  0  0  0  0  0
  189.2530  177.0380  145.2700 C   0  0  0  0  0  2  0  0  0  0  0  0
  193.5040  174.3270  144.9110 O   0  0  0  0  0  0  0  0  0  0  0  0
  192.9890  173.0460  145.1130 C   0  0  0  0  0  1  0  0  0  0  0  0
  1 21  1  0  0  0  0
  2 16  1  0  0  0  0
  5  9  1  0  0  0  0
  5  4  1  0  0  0  0
  6  7  1  6  0  0  0
  6 17  1  0  0  0  0
  8 19  1  0  0  0  0
  9  7  1  0  0  0  0
 10 20  1  0  0  0  0
 11  4  1  6  0  0  0
 11  6  1  0  0  0  0
 11 22  1  0  0  0  0
 12 24  1  0  0  0  0
 13  1  2  0  0  0  0
 14 21  1  0  0  0  0
 14 12  2  0  0  0  0
 15 30  1  1  0  0  0
 16 14  1  0  0  0  0
 17 15  1  0  0  0  0
 18  2  1  0  0  0  0
 19  3  1  6  0  0  0
 19 18  1  0  0  0  0
 21 10  2  0  0  0  0
 22  8  1  6  0  0  0
 22 23  1  0  0  0  0
 23 15  1  0  0  0  0
 23 13  1  1  0  0  0
 24 20  2  0  0  0  0
 25 29  1  0  0  0  0
 26 29  2  0  0  0  0
 26 31  1  0  0  0  0
 27 30  1  0  0  0  0
 27 28  2  0  0  0  0
 28 26  1  0  0  0  0
 30 25  2  0  0  0  0
 31 32  1  0  0  0  0
 33 32  2  0  0  0  0
 34 12  1  0  0  0  0
 35 34  1  0  0  0  0
 36 35  1  6  0  0  0
 36 39  1  0  0  0  0
 37 38  2  0  0  0  0
 38 36  1  0  0  0  0
 40 41  1  1  0  0  0
 40 39  1  0  0  0  0
 40 44  1  0  0  0  0
 44 51  1  1  0  0  0
 44 53  1  0  0  0  0
 45 46  2  0  0  0  0
 46 44  1  0  0  0  0
 46 50  1  0  0  0  0
 47 49  1  0  0  0  0
 48 54  1  6  0  0  0
 48 52  1  0  0  0  0
 49 42  2  0  0  0  0
 50 43  1  6  0  0  0
 50 48  1  0  0  0  0
 52 49  1  0  0  0  0
 53 47  1  0  0  0  0
 54 55  1  0  0  0  0
M  END
>  <MODEL>
7

>  <REMARK>
 VINA RESULT:      -7.4      3.279      6.088
  Name = 
  11 active torsions:
  status: ('A' for Active; 'I' for Inactive)
    1  A    between atoms: C_6  and  C_20
    2  A    between atoms: C_8  and  C_43
    3  A    between atoms: O_10  and  C_18
    4  A    between atoms: O_10  and  C_32
    5  A    between atoms: O_11  and  C_29
    6  A    between atoms: C_20  and  C_22
    7  A    between atoms: C_22  and  C_43
    8  A    between atoms: C_27  and  O_54
    9  A    between atoms: C_33  and  C_52
   10  A    between atoms: C_43  and  C_51
   11  A    between atoms: C_51  and  O_54
                            x       y       z     vdW  Elec       q    Type
                         _______ _______ _______ _____ _____    ______ ____

>  <TORSDO>
F 11

$$$$
=
 OpenBabel11052419423D

 55 60  0  0  1  0  0  0  0  0999 V2000
  191.3390  174.0190  143.3160 C   0  0  0  0  0  3  0  0  0  0  0  0
  192.9430  175.1500  146.0810 S   0  0  0  0  0  0  0  0  0  0  0  0
  190.3340  177.3860  146.2250 C   0  0  0  0  0  1  0  0  0  0  0  0
  187.4330  177.4880  144.8260 C   0  0  0  0  0  2  0  0  0  0  0  0
  186.1460  178.2810  144.5850 C   0  0  0  0  0  2  0  0  0  0  0  0
  186.8110  176.2300  142.7630 C   0  0  2  0  0  3  0  0  0  0  0  0
  185.5970  177.1520  142.7030 C   0  0  0  0  0  2  0  0  0  0  0  0
  190.1590  176.8470  143.8980 O   0  0  0  0  0  0  0  0  0  0  0  0
  185.1640  177.4430  144.0130 O   0  0  0  0  0  0  0  0  0  0  0  0
  191.6230  171.5470  143.4910 C   0  0  0  0  0  3  0  0  0  0  0  0
  187.9430  176.9450  143.4860 C   0  0  2  0  0  3  0  0  0  0  0  0
  194.1220  171.8840  144.7370 C   0  0  0  0  0  0  0  0  0  0  0  0
  190.0950  173.9840  142.8600 C   0  0  0  0  0  3  0  0  0  0  0  0
  193.3300  173.0150  144.4140 C   0  0  0  0  0  0  0  0  0  0  0  0
  188.1550  174.8650  141.6180 C   0  0  2  0  0  3  0  0  0  0  0  0
  193.7400  174.3020  144.7810 O   0  0  0  0  0  0  0  0  0  0  0  0
  187.2540  175.9310  141.4780 O   0  0  0  0  0  0  0  0  0  0  0  0
  192.2460  176.4170  144.9740 C   0  0  0  0  0  2  0  0  0  0  0  0
  190.7280  176.4330  145.1090 C   0  0  1  0  0  3  0  0  0  0  0  0
  192.3710  170.4350  143.8750 C   0  0  0  0  0  3  0  0  0  0  0  0
  192.0900  172.8410  143.7650 C   0  0  0  0  0  0  0  0  0  0  0  0
  189.0860  176.0400  143.6850 N   0  0  1  0  0  0  0  0  0  0  0  0
  189.4010  175.2500  142.4610 C   0  0  1  0  0  3  0  0  0  0  0  0
  193.6100  170.6080  144.4970 C   0  0  0  0  0  3  0  0  0  0  0  0
  187.8600  174.8120  139.1200 C   0  0  0  0  0  3  0  0  0  0  0  0
  189.3450  173.5100  137.7010 C   0  0  0  0  0  0  0  0  0  0  0  0
  189.6750  173.5390  140.1070 C   0  0  0  0  0  3  0  0  0  0  0  0
  190.0590  173.0970  138.8410 C   0  0  0  0  0  3  0  0  0  0  0  0
  188.2420  174.3620  137.8500 C   0  0  0  0  0  3  0  0  0  0  0  0
  188.5790  174.4060  140.2540 C   0  0  0  0  0  0  0  0  0  0  0  0
  189.7060  173.0810  136.4190 O   0  0  0  0  0  0  0  0  0  0  0  0
  189.4250  171.7970  135.9480 C   0  0  0  0  0  3  0  0  0  0  0  0
  190.3770  171.0660  135.3990 C   0  0  0  0  0  2  0  0  0  0  0  0
  195.4130  171.9630  145.2720 O   0  0  0  0  0  0  0  0  0  0  0  0
  196.6170  171.8180  144.5250 C   0  0  0  0  0  2  0  0  0  0  0  0
  197.5250  173.0340  144.7050 C   0  0  2  0  0  3  0  0  0  0  0  0
  197.2110  173.6620  146.9730 O   0  0  0  0  0  0  0  0  0  0  0  0
  197.0310  173.9380  145.7990 C   0  0  0  0  0  3  0  0  0  0  0  0
  197.8400  173.7900  143.4030 C   0  0  0  0  0  2  0  0  0  0  0  0
  196.5860  174.2780  142.6790 C   0  0  1  0  0  3  0  0  0  0  0  0
  196.2260  175.5560  143.1190 O   0  0  0  0  0  1  0  0  0  0  0  0
  197.6780  170.3970  139.1430 C   0  0  0  0  0  2  0  0  0  0  0  0
  194.4290  175.1840  138.6180 O   0  0  0  0  0  1  0  0  0  0  0  0
  196.7100  174.2120  141.1420 C   0  0  1  0  0  0  0  0  0  0  0  0
  194.4090  173.5290  141.0600 O   0  0  0  0  0  0  0  0  0  0  0  0
  195.3850  173.9440  140.4460 C   0  0  0  0  0  0  0  0  0  0  0  0
  197.6950  172.7210  139.4360 O   0  0  0  0  0  0  0  0  0  0  0  0
  195.0590  172.8730  138.1210 C   0  0  1  0  0  3  0  0  0  0  0  0
  197.0360  171.5540  139.0730 C   0  0  0  0  0  0  0  0  0  0  0  0
  195.3090  174.1480  138.9580 C   0  0  1  0  0  3  0  0  0  0  0  0
  197.2040  175.4380  140.6900 O   0  0  0  0  0  1  0  0  0  0  0  0
  195.5690  171.5620  138.7560 C   0  0  0  0  0  2  0  0  0  0  0  0
  197.7480  173.1280  140.8080 C   0  0  0  0  0  2  0  0  0  0  0  0
  193.7030  172.7460  137.8010 O   0  0  0  0  0  0  0  0  0  0  0  0
  193.3460  171.4960  138.3080 C   0  0  0  0  0  1  0  0  0  0  0  0
  1 21  1  0  0  0  0
  5  4  1  0  0  0  0
  6  7  1  6  0  0  0
  6 11  1  0  0  0  0
  7  9  1  0  0  0  0
  8 19  1  0  0  0  0
  9  5  1  0  0  0  0
 10 21  2  0  0  0  0
 10 20  1  0  0  0  0
 11 22  1  0  0  0  0
 11  4  1  1  0  0  0
 12 34  1  0  0  0  0
 13  1  2  0  0  0  0
 14 12  2  0  0  0  0
 14 16  1  0  0  0  0
 15 30  1  6  0  0  0
 15 23  1  0  0  0  0
 16  2  1  0  0  0  0
 17 15  1  0  0  0  0
 17  6  1  0  0  0  0
 18 19  1  0  0  0  0
 18  2  1  0  0  0  0
 19  3  1  1  0  0  0
 20 24  2  0  0  0  0
 21 14  1  0  0  0  0
 22  8  1  6  0  0  0
 23 13  1  1  0  0  0
 23 22  1  0  0  0  0
 24 12  1  0  0  0  0
 25 30  1  0  0  0  0
 26 29  1  0  0  0  0
 26 28  2  0  0  0  0
 27 30  2  0  0  0  0
 28 27  1  0  0  0  0
 29 25  2  0  0  0  0
 31 26  1  0  0  0  0
 32 31  1  0  0  0  0
 33 32  2  0  0  0  0
 35 36  1  0  0  0  0
 35 34  1  0  0  0  0
 36 39  1  6  0  0  0
 36 38  1  0  0  0  0
 38 37  2  0  0  0  0
 40 41  1  6  0  0  0
 40 39  1  0  0  0  0
 44 51  1  6  0  0  0
 44 40  1  0  0  0  0
 46 45  2  0  0  0  0
 46 44  1  0  0  0  0
 47 53  1  0  0  0  0
 48 54  1  1  0  0  0
 48 52  1  0  0  0  0
 48 50  1  0  0  0  0
 49 42  2  0  0  0  0
 49 47  1  0  0  0  0
 50 43  1  1  0  0  0
 50 46  1  0  0  0  0
 52 49  1  0  0  0  0
 53 44  1  0  0  0  0
 54 55  1  0  0  0  0
M  END
>  <MODEL>
8

>  <REMARK>
 VINA RESULT:      -7.2      3.184      8.499
  Name = 
  11 active torsions:
  status: ('A' for Active; 'I' for Inactive)
    1  A    between atoms: C_6  and  C_20
    2  A    between atoms: C_8  and  C_43
    3  A    between atoms: O_10  and  C_18
    4  A    between atoms: O_10  and  C_32
    5  A    between atoms: O_11  and  C_29
    6  A    between atoms: C_20  and  C_22
    7  A    between atoms: C_22  and  C_43
    8  A    between atoms: C_27  and  O_54
    9  A    between atoms: C_33  and  C_52
   10  A    between atoms: C_43  and  C_51
   11  A    between atoms: C_51  and  O_54
                            x       y       z     vdW  Elec       q    Type
                         _______ _______ _______ _____ _____    ______ ____

>  <TORSDO>
F 11

$$$$
=
 OpenBabel11052419423D

 55 60  0  0  1  0  0  0  0  0999 V2000
  191.8480  174.0430  141.7710 C   0  0  0  0  0  3  0  0  0  0  0  0
  189.0420  173.9330  139.8720 S   0  0  0  0  0  0  0  0  0  0  0  0
  187.5270  175.1690  142.7010 C   0  0  0  0  0  1  0  0  0  0  0  0
  188.6530  176.5570  145.3820 C   0  0  0  0  0  2  0  0  0  0  0  0
  188.3410  177.1090  146.7750 C   0  0  0  0  0  2  0  0  0  0  0  0
  191.0020  176.3560  146.2010 C   0  0  2  0  0  3  0  0  0  0  0  0
  190.4680  176.9060  147.5210 C   0  0  0  0  0  2  0  0  0  0  0  0
  189.4550  174.2260  143.7630 O   0  0  0  0  0  0  0  0  0  0  0  0
  189.4470  177.8420  147.2610 O   0  0  0  0  0  0  0  0  0  0  0  0
  193.5770  174.8220  140.1500 C   0  0  0  0  0  3  0  0  0  0  0  0
  189.8760  175.6370  145.4710 C   0  0  2  0  0  3  0  0  0  0  0  0
  192.2590  173.4940  138.0500 C   0  0  0  0  0  0  0  0  0  0  0  0
  192.2990  174.7460  142.8010 C   0  0  0  0  0  3  0  0  0  0  0  0
  191.6940  173.5050  139.3500 C   0  0  0  0  0  0  0  0  0  0  0  0
  192.6340  175.2120  145.1990 C   0  0  2  0  0  3  0  0  0  0  0  0
  190.4400  172.9280  139.5880 O   0  0  0  0  0  0  0  0  0  0  0  0
  192.0120  175.4280  146.4370 O   0  0  0  0  0  0  0  0  0  0  0  0
  188.8700  173.3940  141.6030 C   0  0  0  0  0  2  0  0  0  0  0  0
  188.9280  174.6070  142.5230 C   0  0  1  0  0  3  0  0  0  0  0  0
  194.0930  174.8710  138.8550 C   0  0  0  0  0  3  0  0  0  0  0  0
  192.3720  174.1490  140.4040 C   0  0  0  0  0  0  0  0  0  0  0  0
  190.3150  175.2120  144.1320 N   0  0  1  0  0  0  0  0  0  0  0  0
  191.6700  174.5920  144.1520 C   0  0  1  0  0  3  0  0  0  0  0  0
  193.4330  174.2120  137.8150 C   0  0  0  0  0  3  0  0  0  0  0  0
  195.0960  174.8630  145.5860 C   0  0  0  0  0  3  0  0  0  0  0  0
  196.0450  172.6290  145.7400 C   0  0  0  0  0  0  0  0  0  0  0  0
  193.6620  172.9180  145.3770 C   0  0  0  0  0  3  0  0  0  0  0  0
  194.7640  172.0810  145.5470 C   0  0  0  0  0  3  0  0  0  0  0  0
  196.2040  174.0220  145.7500 C   0  0  0  0  0  3  0  0  0  0  0  0
  193.8180  174.3130  145.4030 C   0  0  0  0  0  0  0  0  0  0  0  0
  197.1690  171.8150  145.9110 O   0  0  0  0  0  0  0  0  0  0  0  0
  197.4990  170.7890  145.0230 C   0  0  0  0  0  3  0  0  0  0  0  0
  197.6030  169.5450  145.4520 C   0  0  0  0  0  2  0  0  0  0  0  0
  191.7200  172.7830  136.9700 O   0  0  0  0  0  0  0  0  0  0  0  0
  191.9620  171.4070  136.6970 C   0  0  0  0  0  2  0  0  0  0  0  0
  192.9810  171.2420  135.5690 C   0  0  2  0  0  3  0  0  0  0  0  0
  191.4010  169.7690  134.5850 O   0  0  0  0  0  0  0  0  0  0  0  0
  192.5330  170.2220  134.5620 C   0  0  0  0  0  3  0  0  0  0  0  0
  194.4260  171.0150  136.0470 C   0  0  0  0  0  2  0  0  0  0  0  0
  194.5040  170.4810  137.4760 C   0  0  1  0  0  3  0  0  0  0  0  0
  194.1200  169.1370  137.5250 O   0  0  0  0  0  1  0  0  0  0  0  0
  197.8810  174.6330  137.8190 C   0  0  0  0  0  2  0  0  0  0  0  0
  196.9310  170.2200  141.4770 O   0  0  0  0  0  1  0  0  0  0  0  0
  195.8820  170.7100  138.1340 C   0  0  1  0  0  0  0  0  0  0  0  0
  194.7360  171.5850  140.0550 O   0  0  0  0  0  0  0  0  0  0  0  0
  195.7860  171.1630  139.5820 C   0  0  0  0  0  0  0  0  0  0  0  0
  197.7660  172.2970  137.9560 O   0  0  0  0  0  0  0  0  0  0  0  0
  197.5530  172.5130  140.8910 C   0  0  1  0  0  3  0  0  0  0  0  0
  197.6760  173.5480  138.5520 C   0  0  0  0  0  0  0  0  0  0  0  0
  197.0340  171.1350  140.4210 C   0  0  1  0  0  3  0  0  0  0  0  0
  196.5890  169.5060  138.0960 O   0  0  0  0  0  1  0  0  0  0  0  0
  197.1970  173.6970  139.9670 C   0  0  0  0  0  2  0  0  0  0  0  0
  196.6400  171.7350  137.2740 C   0  0  0  0  0  2  0  0  0  0  0  0
  197.1260  172.7860  142.1950 O   0  0  0  0  0  0  0  0  0  0  0  0
  196.5990  174.0760  142.1200 C   0  0  0  0  0  1  0  0  0  0  0  0
  1 13  2  0  0  0  0
  2 18  1  0  0  0  0
  4  5  1  0  0  0  0
  5  9  1  0  0  0  0
  6 17  1  0  0  0  0
  6  7  1  1  0  0  0
  9  7  1  0  0  0  0
 10 21  1  0  0  0  0
 11  4  1  6  0  0  0
 11  6  1  0  0  0  0
 12 14  1  0  0  0  0
 14 16  1  0  0  0  0
 14 21  2  0  0  0  0
 15 30  1  1  0  0  0
 15 17  1  0  0  0  0
 16  2  1  0  0  0  0
 18 19  1  0  0  0  0
 19  3  1  1  0  0  0
 19  8  1  0  0  0  0
 20 10  2  0  0  0  0
 21  1  1  0  0  0  0
 22  8  1  1  0  0  0
 22 23  1  0  0  0  0
 22 11  1  0  0  0  0
 23 13  1  6  0  0  0
 23 15  1  0  0  0  0
 24 12  2  0  0  0  0
 24 20  1  0  0  0  0
 25 29  1  0  0  0  0
 26 29  2  0  0  0  0
 26 31  1  0  0  0  0
 27 30  1  0  0  0  0
 27 28  2  0  0  0  0
 28 26  1  0  0  0  0
 30 25  2  0  0  0  0
 32 33  2  0  0  0  0
 32 31  1  0  0  0  0
 34 12  1  0  0  0  0
 35 34  1  0  0  0  0
 36 38  1  1  0  0  0
 36 39  1  0  0  0  0
 36 35  1  0  0  0  0
 38 37  2  0  0  0  0
 39 40  1  0  0  0  0
 40 41  1  6  0  0  0
 40 44  1  0  0  0  0
 42 49  2  0  0  0  0
 44 51  1  6  0  0  0
 44 46  1  0  0  0  0
 46 45  2  0  0  0  0
 46 50  1  0  0  0  0
 47 49  1  0  0  0  0
 48 54  1  1  0  0  0
 49 52  1  0  0  0  0
 50 48  1  0  0  0  0
 50 43  1  1  0  0  0
 52 48  1  0  0  0  0
 53 47  1  0  0  0  0
 53 44  1  0  0  0  0
 55 54  1  0  0  0  0
M  END
>  <MODEL>
9

>  <REMARK>
 VINA RESULT:      -7.2      3.158     10.416
  Name = 
  11 active torsions:
  status: ('A' for Active; 'I' for Inactive)
    1  A    between atoms: C_6  and  C_20
    2  A    between atoms: C_8  and  C_43
    3  A    between atoms: O_10  and  C_18
    4  A    between atoms: O_10  and  C_32
    5  A    between atoms: O_11  and  C_29
    6  A    between atoms: C_20  and  C_22
    7  A    between atoms: C_22  and  C_43
    8  A    between atoms: C_27  and  O_54
    9  A    between atoms: C_33  and  C_52
   10  A    between atoms: C_43  and  C_51
   11  A    between atoms: C_51  and  O_54
                            x       y       z     vdW  Elec       q    Type
                         _______ _______ _______ _____ _____    ______ ____

>  <TORSDO>
F 11

$$$$
