=
 OpenBabel11052418063D

 28 33  0  0  1  0  0  0  0  0999 V2000
  186.1050  176.7850  144.3740 C   0  0  1  0  0  3  0  0  0  0  0  0
  185.7610  176.8970  145.8750 C   0  0  1  0  0  3  0  0  0  0  0  0
  188.1780  176.0380  146.0870 C   0  0  2  0  0  3  0  0  0  0  0  0
  191.5790  174.9720  144.1510 C   0  0  0  0  0  3  0  0  0  0  0  0
  187.2180  177.9340  140.4790 N   0  0  0  0  0  1  0  0  0  0  0  0
  186.1030  178.4760  147.6020 C   0  0  2  0  0  3  0  0  0  0  0  0
  186.9160  176.5240  146.8200 C   0  0  1  0  0  3  0  0  0  0  0  0
  183.9020  178.4160  146.4730 C   0  0  0  0  0  1  0  0  0  0  0  0
  191.6200  175.1160  147.2050 C   0  0  0  0  0  3  0  0  0  0  0  0
  189.8240  176.6010  144.3060 N   0  0  0  0  0  0  0  0  0  0  0  0
  185.4020  178.2990  146.2800 C   0  0  2  0  0  3  0  0  0  0  0  0
  193.4230  174.3570  145.6580 C   0  0  0  0  0  0  0  0  0  0  0  0
  190.7270  175.6610  144.9250 C   0  0  0  0  0  0  0  0  0  0  0  0
  189.3070  175.7620  147.0760 C   0  0  0  0  0  2  0  0  0  0  0  0
  193.0210  174.8490  146.8270 C   0  0  0  0  0  3  0  0  0  0  0  0
  187.7770  177.8710  142.8540 C   0  0  0  0  0  0  0  0  0  0  0  0
  188.6200  177.0580  145.0270 C   0  0  1  0  0  3  0  0  0  0  0  0
  190.5950  175.4110  146.3920 C   0  0  0  0  0  0  0  0  0  0  0  0
  185.4620  177.2830  142.0220 C   0  0  0  0  0  2  0  0  0  0  0  0
  189.1950  178.2980  142.5930 C   0  0  0  0  0  2  0  0  0  0  0  0
  186.7030  178.1480  141.8210 C   0  0  2  0  0  3  0  0  0  0  0  0
  186.5480  179.9170  147.7620 C   0  0  0  0  0  1  0  0  0  0  0  0
  194.7480  174.1790  145.4400 F   0  0  0  0  0  0  0  0  0  0  0  0
  192.4550  173.8680  144.6370 C   0  0  0  0  0  2  0  0  0  0  0  0
  190.1560  177.1750  142.9880 C   0  0  0  0  0  2  0  0  0  0  0  0
  185.0100  177.3540  143.4710 C   0  0  0  0  0  2  0  0  0  0  0  0
  187.4890  177.3210  144.0540 C   0  0  0  0  0  0  0  0  0  0  0  0
  187.2220  177.6320  147.6370 O   0  0  0  0  0  0  0  0  0  0  0  0
  1 26  1  6  0  0  0
  1  2  1  0  0  0  0
  2 11  1  0  0  0  0
  2  7  1  0  0  0  0
  3  7  1  0  0  0  0
  3 14  1  0  0  0  0
  4 24  1  0  0  0  0
  4 13  2  0  0  0  0
  5 21  1  0  0  0  0
  6 28  1  0  0  0  0
  6 22  1  0  0  0  0
  7 28  1  0  0  0  0
 10 13  1  0  0  0  0
 10 17  1  0  0  0  0
 11  8  1  0  0  0  0
 11  6  1  0  0  0  0
 12 15  2  0  0  0  0
 13 18  1  0  0  0  0
 15  9  1  0  0  0  0
 16 27  2  0  0  0  0
 17  3  1  0  0  0  0
 18 14  1  0  0  0  0
 18  9  2  0  0  0  0
 19 26  1  0  0  0  0
 20 16  1  0  0  0  0
 20 25  1  0  0  0  0
 21 19  1  0  0  0  0
 21 16  1  0  0  0  0
 23 12  1  0  0  0  0
 24 12  1  0  0  0  0
 25 10  1  0  0  0  0
 27  1  1  0  0  0  0
 27 17  1  0  0  0  0
M  END
>  <MODEL>
1

>  <REMARK>
 VINA RESULT:      -9.5      0.000      0.000
  Name = 
  0 active torsions:
  status: ('A' for Active; 'I' for Inactive)
                            x       y       z     vdW  Elec       q    Type
                         _______ _______ _______ _____ _____    ______ ____

>  <TORSDO>
F 0

$$$$
=
 OpenBabel11052418063D

 28 33  0  0  1  0  0  0  0  0999 V2000
  191.1540  176.5990  143.7920 C   0  0  1  0  0  3  0  0  0  0  0  0
  190.7770  177.0140  145.2300 C   0  0  1  0  0  3  0  0  0  0  0  0
  188.5300  177.5070  144.0760 C   0  0  2  0  0  3  0  0  0  0  0  0
  186.3860  177.3730  140.6370 C   0  0  0  0  0  3  0  0  0  0  0  0
  191.9330  174.1380  140.4650 N   0  0  0  0  0  1  0  0  0  0  0  0
  189.6840  176.0170  147.0750 C   0  0  2  0  0  3  0  0  0  0  0  0
  189.3200  177.4760  145.3960 C   0  0  1  0  0  3  0  0  0  0  0  0
  192.1580  176.0670  147.0520 C   0  0  0  0  0  1  0  0  0  0  0  0
  184.9580  178.1810  143.2180 C   0  0  0  0  0  3  0  0  0  0  0  0
  187.8730  176.1680  142.0820 N   0  0  0  0  0  0  0  0  0  0  0  0
  190.9090  175.8810  146.2100 C   0  0  2  0  0  3  0  0  0  0  0  0
  184.0590  178.1300  140.8920 C   0  0  0  0  0  0  0  0  0  0  0  0
  186.7900  177.1010  141.8860 C   0  0  0  0  0  0  0  0  0  0  0  0
  187.0760  177.8970  144.3220 C   0  0  0  0  0  2  0  0  0  0  0  0
  183.8840  178.0950  142.2110 C   0  0  0  0  0  3  0  0  0  0  0  0
  190.3550  174.8480  142.1870 C   0  0  0  0  0  0  0  0  0  0  0  0
  188.6170  176.1530  143.3580 C   0  0  1  0  0  3  0  0  0  0  0  0
  186.2410  177.8120  143.0800 C   0  0  0  0  0  0  0  0  0  0  0  0
  192.7970  175.5030  142.2770 C   0  0  0  0  0  2  0  0  0  0  0  0
  189.2100  174.1440  141.5120 C   0  0  0  0  0  2  0  0  0  0  0  0
  191.7800  174.4350  141.8800 C   0  0  2  0  0  3  0  0  0  0  0  0
  189.2120  174.6460  147.5190 C   0  0  0  0  0  1  0  0  0  0  0  0
  182.9790  178.0210  140.0830 F   0  0  0  0  0  0  0  0  0  0  0  0
  185.3860  178.4220  140.2840 C   0  0  0  0  0  2  0  0  0  0  0  0
  188.1770  175.1690  141.0400 C   0  0  0  0  0  2  0  0  0  0  0  0
  192.5390  175.9570  143.7040 C   0  0  0  0  0  2  0  0  0  0  0  0
  190.0660  175.7810  143.1200 C   0  0  0  0  0  0  0  0  0  0  0  0
  188.6730  176.6440  146.3330 O   0  0  0  0  0  0  0  0  0  0  0  0
  1 26  1  1  0  0  0
  1  2  1  0  0  0  0
  2  7  1  0  0  0  0
  2 11  1  0  0  0  0
  3 14  1  0  0  0  0
  3  7  1  0  0  0  0
  4 13  2  0  0  0  0
  5 21  1  0  0  0  0
  6 22  1  0  0  0  0
  7 28  1  0  0  0  0
 10 17  1  0  0  0  0
 11  8  1  0  0  0  0
 11  6  1  0  0  0  0
 12 15  2  0  0  0  0
 13 10  1  0  0  0  0
 13 18  1  0  0  0  0
 15  9  1  0  0  0  0
 16 27  2  0  0  0  0
 17  3  1  0  0  0  0
 18  9  2  0  0  0  0
 18 14  1  0  0  0  0
 19 26  1  0  0  0  0
 20 16  1  0  0  0  0
 21 16  1  0  0  0  0
 21 19  1  0  0  0  0
 23 12  1  0  0  0  0
 24  4  1  0  0  0  0
 24 12  1  0  0  0  0
 25 20  1  0  0  0  0
 25 10  1  0  0  0  0
 27 17  1  0  0  0  0
 27  1  1  0  0  0  0
 28  6  1  0  0  0  0
M  END
>  <MODEL>
2

>  <REMARK>
 VINA RESULT:      -9.2      3.269      6.553
  Name = 
  0 active torsions:
  status: ('A' for Active; 'I' for Inactive)
                            x       y       z     vdW  Elec       q    Type
                         _______ _______ _______ _____ _____    ______ ____

>  <TORSDO>
F 0

$$$$
=
 OpenBabel11052418063D

 28 33  0  0  1  0  0  0  0  0999 V2000
  191.5730  176.2370  143.3530 C   0  0  1  0  0  3  0  0  0  0  0  0
  191.7200  176.9340  144.7230 C   0  0  1  0  0  3  0  0  0  0  0  0
  189.2600  177.5210  144.2430 C   0  0  2  0  0  3  0  0  0  0  0  0
  186.1030  177.0970  141.7330 C   0  0  0  0  0  3  0  0  0  0  0  0
  191.0390  173.1700  140.5180 N   0  0  0  0  0  1  0  0  0  0  0  0
  191.2230  176.4150  146.9770 C   0  0  2  0  0  3  0  0  0  0  0  0
  190.4340  177.6070  145.2330 C   0  0  1  0  0  3  0  0  0  0  0  0
  193.5490  176.1310  146.1830 C   0  0  0  0  0  1  0  0  0  0  0  0
  185.6630  178.5100  144.4100 C   0  0  0  0  0  3  0  0  0  0  0  0
  187.8910  175.9650  142.8620 N   0  0  0  0  0  0  0  0  0  0  0  0
  192.0840  175.9750  145.8220 C   0  0  2  0  0  3  0  0  0  0  0  0
  184.0490  178.1900  142.5350 C   0  0  0  0  0  0  0  0  0  0  0  0
  186.8740  176.9880  142.8250 C   0  0  0  0  0  0  0  0  0  0  0  0
  187.9990  178.1370  144.8420 C   0  0  0  0  0  2  0  0  0  0  0  0
  184.3140  178.4000  143.8220 C   0  0  0  0  0  3  0  0  0  0  0  0
  190.1680  174.3630  142.4610 C   0  0  0  0  0  0  0  0  0  0  0  0
  189.0090  176.0660  143.8220 C   0  0  1  0  0  3  0  0  0  0  0  0
  186.7990  177.9560  143.9610 C   0  0  0  0  0  0  0  0  0  0  0  0
  192.5450  174.6930  141.6610 C   0  0  0  0  0  2  0  0  0  0  0  0
  188.8180  173.7140  142.3290 C   0  0  0  0  0  2  0  0  0  0  0  0
  191.3800  173.7180  141.8200 C   0  0  2  0  0  3  0  0  0  0  0  0
  190.8250  175.2140  147.8120 C   0  0  0  0  0  1  0  0  0  0  0  0
  182.7590  178.0910  142.1370 F   0  0  0  0  0  0  0  0  0  0  0  0
  185.1210  178.1960  141.5020 C   0  0  0  0  0  2  0  0  0  0  0  0
  187.7640  174.7750  142.0010 C   0  0  0  0  0  2  0  0  0  0  0  0
  192.8030  175.4100  142.9750 C   0  0  0  0  0  2  0  0  0  0  0  0
  190.2690  175.4700  143.2300 C   0  0  0  0  0  0  0  0  0  0  0  0
  190.0730  177.0380  146.4710 O   0  0  0  0  0  0  0  0  0  0  0  0
  1 26  1  1  0  0  0
  1  2  1  0  0  0  0
  2  7  1  0  0  0  0
  2 11  1  0  0  0  0
  3 14  1  0  0  0  0
  3  7  1  0  0  0  0
  4 13  2  0  0  0  0
  5 21  1  0  0  0  0
  6 22  1  0  0  0  0
  7 28  1  0  0  0  0
 10 17  1  0  0  0  0
 11  8  1  0  0  0  0
 11  6  1  0  0  0  0
 12 15  2  0  0  0  0
 13 10  1  0  0  0  0
 13 18  1  0  0  0  0
 15  9  1  0  0  0  0
 16 27  2  0  0  0  0
 17  3  1  0  0  0  0
 18  9  2  0  0  0  0
 18 14  1  0  0  0  0
 19 21  1  0  0  0  0
 19 26  1  0  0  0  0
 20 16  1  0  0  0  0
 21 16  1  0  0  0  0
 23 12  1  0  0  0  0
 24  4  1  0  0  0  0
 24 12  1  0  0  0  0
 25 20  1  0  0  0  0
 25 10  1  0  0  0  0
 27  1  1  0  0  0  0
 27 17  1  0  0  0  0
 28  6  1  0  0  0  0
M  END
>  <MODEL>
3

>  <REMARK>
 VINA RESULT:      -8.9      3.244      6.577
  Name = 
  0 active torsions:
  status: ('A' for Active; 'I' for Inactive)
                            x       y       z     vdW  Elec       q    Type
                         _______ _______ _______ _____ _____    ______ ____

>  <TORSDO>
F 0

$$$$
=
 OpenBabel11052418063D

 28 33  0  0  1  0  0  0  0  0999 V2000
  187.5670  178.2910  144.3860 C   0  0  1  0  0  3  0  0  0  0  0  0
  187.8070  178.2550  142.8610 C   0  0  1  0  0  3  0  0  0  0  0  0
  190.1250  177.4550  143.6440 C   0  0  2  0  0  3  0  0  0  0  0  0
  192.4770  176.4450  146.7890 C   0  0  0  0  0  3  0  0  0  0  0  0
  186.2470  177.1090  148.2060 N   0  0  0  0  0  1  0  0  0  0  0  0
  187.7510  176.6230  141.1500 C   0  0  2  0  0  3  0  0  0  0  0  0
  189.2030  177.7570  142.4500 C   0  0  1  0  0  3  0  0  0  0  0  0
  185.7960  178.1140  141.4280 C   0  0  0  0  0  1  0  0  0  0  0  0
  193.5470  175.9940  143.9600 C   0  0  0  0  0  3  0  0  0  0  0  0
  190.3130  176.1990  145.7860 N   0  0  0  0  0  0  0  0  0  0  0  0
  186.8680  177.3210  142.1510 C   0  0  2  0  0  3  0  0  0  0  0  0
  194.7180  175.6660  146.1380 C   0  0  0  0  0  0  0  0  0  0  0  0
  191.7450  176.3350  145.6720 C   0  0  0  0  0  0  0  0  0  0  0  0
  191.4610  176.8910  143.1690 C   0  0  0  0  0  2  0  0  0  0  0  0
  194.5690  175.3990  144.8420 C   0  0  0  0  0  3  0  0  0  0  0  0
  187.5590  176.5790  146.2170 C   0  0  0  0  0  0  0  0  0  0  0  0
  189.4450  176.4910  144.6270 C   0  0  1  0  0  3  0  0  0  0  0  0
  192.3390  176.4620  144.3060 C   0  0  0  0  0  0  0  0  0  0  0  0
  185.9450  178.5260  146.2580 C   0  0  0  0  0  2  0  0  0  0  0  0
  188.2240  175.4120  146.8940 C   0  0  0  0  0  2  0  0  0  0  0  0
  186.2460  177.1130  146.7520 C   0  0  2  0  0  3  0  0  0  0  0  0
  187.2730  175.1990  140.9450 C   0  0  0  0  0  1  0  0  0  0  0  0
  195.6910  175.0290  146.8320 F   0  0  0  0  0  0  0  0  0  0  0  0
  193.9390  176.7400  146.8130 C   0  0  0  0  0  2  0  0  0  0  0  0
  189.7240  175.6810  147.0350 C   0  0  0  0  0  2  0  0  0  0  0  0
  186.1130  178.5940  144.7500 C   0  0  0  0  0  2  0  0  0  0  0  0
  188.1220  177.0650  145.0890 C   0  0  0  0  0  0  0  0  0  0  0  0
  189.0660  176.6130  141.6370 O   0  0  0  0  0  0  0  0  0  0  0  0
  1 26  1  6  0  0  0
  1 27  1  0  0  0  0
  2  1  1  0  0  0  0
  3 17  1  0  0  0  0
  4 24  1  0  0  0  0
  6 28  1  0  0  0  0
  6 11  1  0  0  0  0
  7  2  1  0  0  0  0
  7  3  1  0  0  0  0
  8 11  1  0  0  0  0
  9 18  2  0  0  0  0
  9 15  1  0  0  0  0
 10 25  1  0  0  0  0
 11  2  1  0  0  0  0
 12 24  1  0  0  0  0
 12 23  1  0  0  0  0
 13 10  1  0  0  0  0
 13  4  2  0  0  0  0
 14  3  1  0  0  0  0
 14 18  1  0  0  0  0
 15 12  2  0  0  0  0
 16 21  1  0  0  0  0
 16 20  1  0  0  0  0
 17 27  1  0  0  0  0
 17 10  1  0  0  0  0
 18 13  1  0  0  0  0
 19 21  1  0  0  0  0
 20 25  1  0  0  0  0
 21  5  1  0  0  0  0
 22  6  1  0  0  0  0
 26 19  1  0  0  0  0
 27 16  2  0  0  0  0
 28  7  1  0  0  0  0
M  END
>  <MODEL>
4

>  <REMARK>
 VINA RESULT:      -8.7      2.187      4.332
  Name = 
  0 active torsions:
  status: ('A' for Active; 'I' for Inactive)
                            x       y       z     vdW  Elec       q    Type
                         _______ _______ _______ _____ _____    ______ ____

>  <TORSDO>
F 0

$$$$
=
 OpenBabel11052418063D

 28 33  0  0  1  0  0  0  0  0999 V2000
  186.9910  178.3310  143.0040 C   0  0  1  0  0  3  0  0  0  0  0  0
  187.9940  177.6340  142.0590 C   0  0  1  0  0  3  0  0  0  0  0  0
  189.3490  177.4990  144.2430 C   0  0  2  0  0  3  0  0  0  0  0  0
  189.4390  178.2490  148.2280 C   0  0  0  0  0  3  0  0  0  0  0  0
  183.6520  178.8820  145.5110 N   0  0  0  0  0  1  0  0  0  0  0  0
  188.5600  175.4080  141.4950 C   0  0  2  0  0  3  0  0  0  0  0  0
  189.2760  177.1400  142.7490 C   0  0  1  0  0  3  0  0  0  0  0  0
  187.0660  176.6690  139.9780 C   0  0  0  0  0  1  0  0  0  0  0  0
  191.7470  176.6730  146.9850 C   0  0  0  0  0  3  0  0  0  0  0  0
  188.1370  177.3700  146.4140 N   0  0  0  0  0  0  0  0  0  0  0  0
  187.4240  176.3950  141.4270 C   0  0  2  0  0  3  0  0  0  0  0  0
  191.4970  177.4780  149.3320 C   0  0  0  0  0  0  0  0  0  0  0  0
  189.4070  177.5770  147.0680 C   0  0  0  0  0  0  0  0  0  0  0  0
  190.6040  176.9130  144.8820 C   0  0  0  0  0  2  0  0  0  0  0  0
  192.0140  176.6420  148.4350 C   0  0  0  0  0  3  0  0  0  0  0  0
  185.6990  177.6390  145.0380 C   0  0  0  0  0  0  0  0  0  0  0  0
  188.0890  177.0230  144.9800 C   0  0  1  0  0  3  0  0  0  0  0  0
  190.6480  177.1300  146.3650 C   0  0  0  0  0  0  0  0  0  0  0  0
  184.6950  179.2300  143.3470 C   0  0  0  0  0  2  0  0  0  0  0  0
  185.6770  176.9730  146.3860 C   0  0  0  0  0  2  0  0  0  0  0  0
  184.4250  178.2290  144.4670 C   0  0  2  0  0  3  0  0  0  0  0  0
  188.0160  174.0060  141.6880 C   0  0  0  0  0  1  0  0  0  0  0  0
  191.8170  177.3200  150.6390 F   0  0  0  0  0  0  0  0  0  0  0  0
  190.6890  178.6610  148.9290 C   0  0  0  0  0  2  0  0  0  0  0  0
  186.8920  177.4190  147.2030 C   0  0  0  0  0  2  0  0  0  0  0  0
  185.6490  178.6250  142.3310 C   0  0  0  0  0  2  0  0  0  0  0  0
  186.8530  177.6140  144.3340 C   0  0  0  0  0  0  0  0  0  0  0  0
  189.3870  175.7440  142.5770 O   0  0  0  0  0  0  0  0  0  0  0  0
  1 26  1  6  0  0  0
  1 27  1  0  0  0  0
  2  7  1  0  0  0  0
  2  1  1  0  0  0  0
  3 14  1  0  0  0  0
  3 17  1  0  0  0  0
  4 24  1  0  0  0  0
  6 22  1  0  0  0  0
  6 28  1  0  0  0  0
  7  3  1  0  0  0  0
  8 11  1  0  0  0  0
  9 15  1  0  0  0  0
 10 13  1  0  0  0  0
 10 25  1  0  0  0  0
 11  6  1  0  0  0  0
 11  2  1  0  0  0  0
 12 23  1  0  0  0  0
 13  4  2  0  0  0  0
 14 18  1  0  0  0  0
 15 12  2  0  0  0  0
 16 20  1  0  0  0  0
 17 10  1  0  0  0  0
 18  9  2  0  0  0  0
 18 13  1  0  0  0  0
 19 21  1  0  0  0  0
 20 25  1  0  0  0  0
 21 16  1  0  0  0  0
 21  5  1  0  0  0  0
 24 12  1  0  0  0  0
 26 19  1  0  0  0  0
 27 17  1  0  0  0  0
 27 16  2  0  0  0  0
 28  7  1  0  0  0  0
M  END
>  <MODEL>
5

>  <REMARK>
 VINA RESULT:      -8.5      2.803      4.691
  Name = 
  0 active torsions:
  status: ('A' for Active; 'I' for Inactive)
                            x       y       z     vdW  Elec       q    Type
                         _______ _______ _______ _____ _____    ______ ____

>  <TORSDO>
F 0

$$$$
=
 OpenBabel11052418063D

 28 33  0  0  1  0  0  0  0  0999 V2000
  188.8590  175.2520  145.6920 C   0  0  1  0  0  3  0  0  0  0  0  0
  190.1960  174.5940  146.0950 C   0  0  1  0  0  3  0  0  0  0  0  0
  190.2130  174.0180  143.5870 C   0  0  2  0  0  3  0  0  0  0  0  0
  188.3410  174.3990  140.0100 C   0  0  0  0  0  3  0  0  0  0  0  0
  186.0860  178.2410  144.6380 N   0  0  0  0  0  1  0  0  0  0  0  0
  192.4860  175.1830  146.0410 C   0  0  2  0  0  3  0  0  0  0  0  0
  190.9620  173.9490  144.9290 C   0  0  1  0  0  3  0  0  0  0  0  0
  191.2540  175.4220  148.1730 C   0  0  0  0  0  1  0  0  0  0  0  0
  191.0940  173.0690  140.0840 C   0  0  0  0  0  3  0  0  0  0  0  0
  189.0720  175.5460  141.9860 N   0  0  0  0  0  0  0  0  0  0  0  0
  191.1750  175.5820  146.6670 C   0  0  2  0  0  3  0  0  0  0  0  0
  189.5530  173.3500  138.1430 C   0  0  0  0  0  0  0  0  0  0  0  0
  189.2610  174.5320  140.9760 C   0  0  0  0  0  0  0  0  0  0  0  0
  191.0600  173.4320  142.4610 C   0  0  0  0  0  2  0  0  0  0  0  0
  190.7720  173.1750  138.6490 C   0  0  0  0  0  3  0  0  0  0  0  0
  188.1950  177.1140  144.1500 C   0  0  0  0  0  0  0  0  0  0  0  0
  189.8030  175.4620  143.2660 C   0  0  1  0  0  3  0  0  0  0  0  0
  190.4200  173.5980  141.1160 C   0  0  0  0  0  0  0  0  0  0  0  0
  186.9650  176.7370  146.3280 C   0  0  0  0  0  2  0  0  0  0  0  0
  188.3030  177.7710  142.8020 C   0  0  0  0  0  2  0  0  0  0  0  0
  187.3150  177.7270  145.2200 C   0  0  2  0  0  3  0  0  0  0  0  0
  193.3450  176.4130  145.8150 C   0  0  0  0  0  1  0  0  0  0  0  0
  189.4070  173.4490  136.8000 F   0  0  0  0  0  0  0  0  0  0  0  0
  188.3350  173.3030  138.9970 C   0  0  0  0  0  2  0  0  0  0  0  0
  188.2160  176.7120  141.7000 C   0  0  0  0  0  2  0  0  0  0  0  0
  188.2270  176.0560  146.8300 C   0  0  0  0  0  2  0  0  0  0  0  0
  188.9630  176.0280  144.3920 C   0  0  0  0  0  0  0  0  0  0  0  0
  192.2290  174.5570  144.8130 O   0  0  0  0  0  0  0  0  0  0  0  0
  1  2  1  0  0  0  0
  1 26  1  1  0  0  0
  2 11  1  0  0  0  0
  3  7  1  0  0  0  0
  4 13  2  0  0  0  0
  5 21  1  0  0  0  0
  6 11  1  0  0  0  0
  7  2  1  0  0  0  0
  9 18  2  0  0  0  0
 10 17  1  0  0  0  0
 11  8  1  0  0  0  0
 12 15  2  0  0  0  0
 12 24  1  0  0  0  0
 13 18  1  0  0  0  0
 13 10  1  0  0  0  0
 14  3  1  0  0  0  0
 15  9  1  0  0  0  0
 16 27  2  0  0  0  0
 16 21  1  0  0  0  0
 17  3  1  0  0  0  0
 17 27  1  0  0  0  0
 18 14  1  0  0  0  0
 19 26  1  0  0  0  0
 20 16  1  0  0  0  0
 21 19  1  0  0  0  0
 22  6  1  0  0  0  0
 23 12  1  0  0  0  0
 24  4  1  0  0  0  0
 25 10  1  0  0  0  0
 25 20  1  0  0  0  0
 27  1  1  0  0  0  0
 28  7  1  0  0  0  0
 28  6  1  0  0  0  0
M  END
>  <MODEL>
6

>  <REMARK>
 VINA RESULT:      -8.4      3.636      5.697
  Name = 
  0 active torsions:
  status: ('A' for Active; 'I' for Inactive)
                            x       y       z     vdW  Elec       q    Type
                         _______ _______ _______ _____ _____    ______ ____

>  <TORSDO>
F 0

$$$$
=
 OpenBabel11052418063D

 28 33  0  0  1  0  0  0  0  0999 V2000
  191.2370  173.4580  144.1560 C   0  0  1  0  0  3  0  0  0  0  0  0
  190.6570  172.6550  142.9720 C   0  0  1  0  0  3  0  0  0  0  0  0
  188.9020  174.5350  143.0710 C   0  0  2  0  0  3  0  0  0  0  0  0
  187.7400  177.9960  144.8370 C   0  0  0  0  0  3  0  0  0  0  0  0
  193.7070  176.1150  146.2960 N   0  0  0  0  0  1  0  0  0  0  0  0
  190.7420  172.7710  140.6120 C   0  0  2  0  0  3  0  0  0  0  0  0
  189.3930  173.2690  142.3480 C   0  0  1  0  0  3  0  0  0  0  0  0
  192.2260  171.1660  141.7710 C   0  0  0  0  0  1  0  0  0  0  0  0
  186.1860  177.0080  142.3960 C   0  0  0  0  0  3  0  0  0  0  0  0
  189.5830  176.7850  143.8950 N   0  0  0  0  0  0  0  0  0  0  0  0
  191.6160  172.5540  141.8190 C   0  0  2  0  0  3  0  0  0  0  0  0
  185.7070  178.9730  143.8550 C   0  0  0  0  0  0  0  0  0  0  0  0
  188.1840  177.1380  143.9080 C   0  0  0  0  0  0  0  0  0  0  0  0
  187.6960  175.1370  142.3560 C   0  0  0  0  0  2  0  0  0  0  0  0
  185.6070  178.3310  142.6930 C   0  0  0  0  0  3  0  0  0  0  0  0
  192.1500  175.7750  144.4470 C   0  0  0  0  0  0  0  0  0  0  0  0
  190.0340  175.5660  143.1920 C   0  0  1  0  0  3  0  0  0  0  0  0
  187.2680  176.4430  142.9530 C   0  0  0  0  0  0  0  0  0  0  0  0
  193.1360  173.8260  145.7240 C   0  0  0  0  0  2  0  0  0  0  0  0
  192.0100  177.2540  144.2140 C   0  0  0  0  0  2  0  0  0  0  0  0
  193.3570  175.2390  145.1890 C   0  0  2  0  0  3  0  0  0  0  0  0
  191.5250  173.4900  139.5300 C   0  0  0  0  0  1  0  0  0  0  0  0
  185.1400  180.1960  143.9810 F   0  0  0  0  0  0  0  0  0  0  0  0
  186.3030  178.3300  145.0580 C   0  0  0  0  0  2  0  0  0  0  0  0
  190.5730  177.6910  144.5080 C   0  0  0  0  0  2  0  0  0  0  0  0
  192.5980  172.9340  144.6180 C   0  0  0  0  0  2  0  0  0  0  0  0
  191.2220  174.9550  143.9040 C   0  0  0  0  0  0  0  0  0  0  0  0
  189.6360  173.5470  140.9870 O   0  0  0  0  0  0  0  0  0  0  0  0
  1 26  1  6  0  0  0
  2  1  1  0  0  0  0
  3 17  1  0  0  0  0
  4 24  1  0  0  0  0
  6 28  1  0  0  0  0
  6 11  1  0  0  0  0
  7  2  1  0  0  0  0
  7  3  1  0  0  0  0
  8 11  1  0  0  0  0
  9 15  1  0  0  0  0
  9 18  2  0  0  0  0
 10 13  1  0  0  0  0
 10 25  1  0  0  0  0
 11  2  1  0  0  0  0
 12 23  1  0  0  0  0
 12 24  1  0  0  0  0
 13  4  2  0  0  0  0
 14 18  1  0  0  0  0
 14  3  1  0  0  0  0
 15 12  2  0  0  0  0
 16 21  1  0  0  0  0
 17 10  1  0  0  0  0
 17 27  1  0  0  0  0
 18 13  1  0  0  0  0
 20 16  1  0  0  0  0
 20 25  1  0  0  0  0
 21 19  1  0  0  0  0
 21  5  1  0  0  0  0
 22  6  1  0  0  0  0
 26 19  1  0  0  0  0
 27  1  1  0  0  0  0
 27 16  2  0  0  0  0
 28  7  1  0  0  0  0
M  END
>  <MODEL>
7

>  <REMARK>
 VINA RESULT:      -8.1      3.514      7.430
  Name = 
  0 active torsions:
  status: ('A' for Active; 'I' for Inactive)
                            x       y       z     vdW  Elec       q    Type
                         _______ _______ _______ _____ _____    ______ ____

>  <TORSDO>
F 0

$$$$
=
 OpenBabel11052418063D

 28 33  0  0  1  0  0  0  0  0999 V2000
  192.7480  175.6550  142.0860 C   0  0  1  0  0  3  0  0  0  0  0  0
  193.5970  176.4190  143.1260 C   0  0  1  0  0  3  0  0  0  0  0  0
  191.2790  176.7380  144.1980 C   0  0  2  0  0  3  0  0  0  0  0  0
  187.3150  175.9000  144.0140 C   0  0  0  0  0  3  0  0  0  0  0  0
  190.9750  172.4360  140.0300 N   0  0  0  0  0  1  0  0  0  0  0  0
  194.5750  175.9460  145.2260 C   0  0  2  0  0  3  0  0  0  0  0  0
  192.7940  176.9810  144.3100 C   0  0  1  0  0  3  0  0  0  0  0  0
  196.0060  175.8620  143.2100 C   0  0  0  0  0  1  0  0  0  0  0  0
  188.3850  177.3710  146.4730 C   0  0  0  0  0  3  0  0  0  0  0  0
  189.5320  174.9990  143.8470 N   0  0  0  0  0  0  0  0  0  0  0  0
  194.6340  175.5460  143.7760 C   0  0  2  0  0  3  0  0  0  0  0  0
  186.0230  176.8150  145.8970 C   0  0  0  0  0  0  0  0  0  0  0  0
  188.5870  175.9130  144.4410 C   0  0  0  0  0  0  0  0  0  0  0  0
  190.5530  177.2490  145.4390 C   0  0  0  0  0  2  0  0  0  0  0  0
  186.9700  177.1040  146.7880 C   0  0  0  0  0  3  0  0  0  0  0  0
  191.2920  173.6150  142.1440 C   0  0  0  0  0  0  0  0  0  0  0  0
  190.9820  175.2490  143.9680 C   0  0  1  0  0  3  0  0  0  0  0  0
  189.0920  176.9150  145.4280 C   0  0  0  0  0  0  0  0  0  0  0  0
  192.6960  174.1460  140.1080 C   0  0  0  0  0  2  0  0  0  0  0  0
  190.1980  172.8300  142.8140 C   0  0  0  0  0  2  0  0  0  0  0  0
  191.9570  173.0680  140.8970 C   0  0  2  0  0  3  0  0  0  0  0  0
  194.8720  174.7470  146.1050 C   0  0  0  0  0  1  0  0  0  0  0  0
  184.7640  176.5730  146.3320 F   0  0  0  0  0  0  0  0  0  0  0  0
  186.2770  176.8850  144.4320 C   0  0  0  0  0  2  0  0  0  0  0  0
  189.0490  173.7670  143.1960 C   0  0  0  0  0  2  0  0  0  0  0  0
  193.6000  174.9390  141.0370 C   0  0  0  0  0  2  0  0  0  0  0  0
  191.7090  174.7570  142.7330 C   0  0  0  0  0  0  0  0  0  0  0  0
  193.2900  176.4300  145.5100 O   0  0  0  0  0  0  0  0  0  0  0  0
  1 26  1  1  0  0  0
  1 27  1  0  0  0  0
  1  2  1  0  0  0  0
  2 11  1  0  0  0  0
  2  7  1  0  0  0  0
  3  7  1  0  0  0  0
  3 14  1  0  0  0  0
  4 24  1  0  0  0  0
  4 13  2  0  0  0  0
  5 21  1  0  0  0  0
  6 28  1  0  0  0  0
  6 22  1  0  0  0  0
  7 28  1  0  0  0  0
  8 11  1  0  0  0  0
  9 15  1  0  0  0  0
 10 17  1  0  0  0  0
 10 13  1  0  0  0  0
 11  6  1  0  0  0  0
 12 23  1  0  0  0  0
 12 15  2  0  0  0  0
 13 18  1  0  0  0  0
 16 27  2  0  0  0  0
 16 20  1  0  0  0  0
 17  3  1  0  0  0  0
 18 14  1  0  0  0  0
 18  9  2  0  0  0  0
 19 21  1  0  0  0  0
 19 26  1  0  0  0  0
 20 25  1  0  0  0  0
 21 16  1  0  0  0  0
 24 12  1  0  0  0  0
 25 10  1  0  0  0  0
 27 17  1  0  0  0  0
M  END
>  <MODEL>
8

>  <REMARK>
 VINA RESULT:      -7.6      3.374      6.904
  Name = 
  0 active torsions:
  status: ('A' for Active; 'I' for Inactive)
                            x       y       z     vdW  Elec       q    Type
                         _______ _______ _______ _____ _____    ______ ____

>  <TORSDO>
F 0

$$$$
=
 OpenBabel11052418063D

 28 33  0  0  1  0  0  0  0  0999 V2000
  192.7730  175.7120  145.2180 C   0  0  1  0  0  3  0  0  0  0  0  0
  191.4780  176.4060  145.6960 C   0  0  1  0  0  3  0  0  0  0  0  0
  190.6140  175.4480  143.4690 C   0  0  2  0  0  3  0  0  0  0  0  0
  191.4440  173.2030  140.1960 C   0  0  0  0  0  3  0  0  0  0  0  0
  195.8140  172.8180  144.8890 N   0  0  0  0  0  1  0  0  0  0  0  0
  189.4970  175.7630  146.8160 C   0  0  2  0  0  3  0  0  0  0  0  0
  190.2780  176.2270  144.7520 C   0  0  1  0  0  3  0  0  0  0  0  0
  191.2940  176.8520  148.1220 C   0  0  0  0  0  1  0  0  0  0  0  0
  188.5750  174.1800  140.6080 C   0  0  0  0  0  3  0  0  0  0  0  0
  191.6160  173.3470  142.5840 N   0  0  0  0  0  0  0  0  0  0  0  0
  190.9870  175.8670  147.0100 C   0  0  2  0  0  3  0  0  0  0  0  0
  189.5310  172.9300  138.6730 C   0  0  0  0  0  0  0  0  0  0  0  0
  190.8970  173.5920  141.3560 C   0  0  0  0  0  0  0  0  0  0  0  0
  189.3650  175.2390  142.6180 C   0  0  0  0  0  2  0  0  0  0  0  0
  188.5000  173.2930  139.4320 C   0  0  0  0  0  3  0  0  0  0  0  0
  193.4360  173.3450  144.7290 C   0  0  0  0  0  0  0  0  0  0  0  0
  191.2750  174.1040  143.8050 C   0  0  1  0  0  3  0  0  0  0  0  0
  189.6240  174.3720  141.4230 C   0  0  0  0  0  0  0  0  0  0  0  0
  195.0840  174.9640  145.7570 C   0  0  0  0  0  2  0  0  0  0  0  0
  193.1290  172.0310  144.0640 C   0  0  0  0  0  2  0  0  0  0  0  0
  194.7070  173.5010  145.5380 C   0  0  2  0  0  3  0  0  0  0  0  0
  188.9570  174.5780  147.5930 C   0  0  0  0  0  1  0  0  0  0  0  0
  189.3170  172.0910  137.6310 F   0  0  0  0  0  0  0  0  0  0  0  0
  190.8840  173.5240  138.8510 C   0  0  0  0  0  2  0  0  0  0  0  0
  192.6290  172.2770  142.6380 C   0  0  0  0  0  2  0  0  0  0  0  0
  193.8820  175.7380  146.2710 C   0  0  0  0  0  2  0  0  0  0  0  0
  192.5130  174.3290  144.6490 C   0  0  0  0  0  0  0  0  0  0  0  0
  189.2300  175.5910  145.4500 O   0  0  0  0  0  0  0  0  0  0  0  0
  1  2  1  0  0  0  0
  1 26  1  1  0  0  0
  2 11  1  0  0  0  0
  3 17  1  0  0  0  0
  3  7  1  0  0  0  0
  4 13  2  0  0  0  0
  5 21  1  0  0  0  0
  6 11  1  0  0  0  0
  6 22  1  0  0  0  0
  7 28  1  0  0  0  0
  7  2  1  0  0  0  0
  9 18  2  0  0  0  0
 10 25  1  0  0  0  0
 10 17  1  0  0  0  0
 11  8  1  0  0  0  0
 12 24  1  0  0  0  0
 12 15  2  0  0  0  0
 13 18  1  0  0  0  0
 13 10  1  0  0  0  0
 14  3  1  0  0  0  0
 15  9  1  0  0  0  0
 16 21  1  0  0  0  0
 17 27  1  0  0  0  0
 18 14  1  0  0  0  0
 19 26  1  0  0  0  0
 20 16  1  0  0  0  0
 21 19  1  0  0  0  0
 23 12  1  0  0  0  0
 24  4  1  0  0  0  0
 25 20  1  0  0  0  0
 27 16  2  0  0  0  0
 27  1  1  0  0  0  0
 28  6  1  0  0  0  0
M  END
>  <MODEL>
9

>  <REMARK>
 VINA RESULT:      -7.3      3.883      6.853
  Name = 
  0 active torsions:
  status: ('A' for Active; 'I' for Inactive)
                            x       y       z     vdW  Elec       q    Type
                         _______ _______ _______ _____ _____    ______ ____

>  <TORSDO>
F 0

$$$$
