=
 OpenBabel11052417343D

 25 28  0  0  1  0  0  0  0  0999 V2000
  188.1650  176.5080  145.6950 C   0  0  0  0  0  0  0  0  0  0  0  0
  189.1240  176.2070  144.7200 C   0  0  0  0  0  0  0  0  0  0  0  0
  188.9610  174.7710  147.1790 C   0  0  0  0  0  3  0  0  0  0  0  0
  187.1590  177.4480  145.7640 C   0  0  0  0  0  0  0  0  0  0  0  0
  188.7380  175.6390  142.1920 C   0  0  2  0  0  3  0  0  0  0  0  0
  185.0290  179.0460  146.5210 C   0  0  0  0  0  3  0  0  0  0  0  0
  189.9210  174.4310  146.2120 C   0  0  0  0  0  3  0  0  0  0  0  0
  186.5530  177.2590  146.9890 C   0  0  0  0  0  0  0  0  0  0  0  0
  185.4800  178.0450  147.4000 C   0  0  0  0  0  3  0  0  0  0  0  0
  190.9810  174.6820  143.9120 C   0  0  1  0  0  3  0  0  0  0  0  0
  192.0570  173.7310  144.4160 C   0  0  0  0  0  1  0  0  0  0  0  0
  189.1820  177.1170  143.1670 S   0  0  0  0  0  0  0  0  0  0  0  0
  185.6510  179.2370  145.2670 C   0  0  0  0  0  3  0  0  0  0  0  0
  188.0930  175.8170  146.8890 C   0  0  0  0  0  0  0  0  0  0  0  0
  187.1240  176.2760  147.6550 O   0  0  0  0  0  0  0  0  0  0  0  0
  190.2040  174.0320  142.7690 C   0  0  0  0  0  2  0  0  0  0  0  0
  186.7340  178.4320  144.8730 C   0  0  0  0  0  3  0  0  0  0  0  0
  189.9060  174.9790  141.7790 O   0  0  0  0  0  0  0  0  0  0  0  0
  190.0230  175.1400  144.9880 C   0  0  0  0  0  0  0  0  0  0  0  0
  187.8630  175.9960  140.9930 C   0  0  0  0  0  2  0  0  0  0  0  0
  186.8350  177.0800  141.3060 C   0  0  2  0  0  3  0  0  0  0  0  0
  185.9300  176.6250  142.2670 O   0  0  0  0  0  1  0  0  0  0  0  0
  186.1050  177.4640  140.0640 C   0  0  0  0  0  0  0  0  0  0  0  0
  186.5950  177.0680  138.8280 O   0  0  0  0  0  0  0  0  0  0  0  0
  185.0360  178.1270  140.1300 O   0  0  0  0  0  1  0  0  0  0  0  0
  1  4  1  0  0  0  0
  1 14  2  0  0  0  0
  2 19  2  0  0  0  0
  2  1  1  0  0  0  0
  4  8  1  0  0  0  0
  5 20  1  6  0  0  0
  5 12  1  0  0  0  0
  6  9  1  0  0  0  0
  7  3  2  0  0  0  0
  8  9  2  0  0  0  0
  8 15  1  0  0  0  0
 10 11  1  1  0  0  0
 10 19  1  0  0  0  0
 12  2  1  0  0  0  0
 13  6  2  0  0  0  0
 14  3  1  0  0  0  0
 14 15  1  0  0  0  0
 16 10  1  0  0  0  0
 17 13  1  0  0  0  0
 17  4  2  0  0  0  0
 18  5  1  0  0  0  0
 18 16  1  0  0  0  0
 19  7  1  0  0  0  0
 20 21  1  0  0  0  0
 21 22  1  1  0  0  0
 23 25  1  0  0  0  0
 23 21  1  0  0  0  0
 24 23  2  0  0  0  0
M  END
>  <MODEL>
1

>  <REMARK>
 VINA RESULT:      -7.8      0.000      0.000
  Name = 
  3 active torsions:
  status: ('A' for Active; 'I' for Inactive)
    1  A    between atoms: C_2  and  C_21
    2  A    between atoms: C_6  and  C_15
    3  A    between atoms: C_15  and  C_21
                            x       y       z     vdW  Elec       q    Type
                         _______ _______ _______ _____ _____    ______ ____

>  <TORSDO>
F 3

$$$$
=
 OpenBabel11052417343D

 25 28  0  0  1  0  0  0  0  0999 V2000
  186.5860  177.7450  143.8170 C   0  0  0  0  0  0  0  0  0  0  0  0
  187.9480  177.5370  144.0680 C   0  0  0  0  0  0  0  0  0  0  0  0
  186.0310  177.7300  146.1720 C   0  0  0  0  0  3  0  0  0  0  0  0
  185.8580  177.9000  142.6570 C   0  0  0  0  0  0  0  0  0  0  0  0
  189.4990  175.6530  143.1180 C   0  0  2  0  0  3  0  0  0  0  0  0
  183.8680  178.2760  140.7690 C   0  0  0  0  0  3  0  0  0  0  0  0
  187.3870  177.5000  146.4560 C   0  0  0  0  0  3  0  0  0  0  0  0
  184.5500  178.0850  143.0570 C   0  0  0  0  0  0  0  0  0  0  0  0
  183.5260  178.2760  142.1330 C   0  0  0  0  0  3  0  0  0  0  0  0
  189.7870  177.0430  145.7420 C   0  0  1  0  0  3  0  0  0  0  0  0
  190.1480  177.2110  147.2110 C   0  0  0  0  0  1  0  0  0  0  0  0
  189.1270  177.3940  142.7150 S   0  0  0  0  0  0  0  0  0  0  0  0
  185.2070  178.0870  140.3620 C   0  0  0  0  0  3  0  0  0  0  0  0
  185.6600  177.8460  144.8370 C   0  0  0  0  0  0  0  0  0  0  0  0
  184.4450  178.0490  144.3690 O   0  0  0  0  0  0  0  0  0  0  0  0
  190.0650  175.6100  145.2950 C   0  0  0  0  0  2  0  0  0  0  0  0
  186.2260  177.8960  141.3130 C   0  0  0  0  0  3  0  0  0  0  0  0
  190.5930  175.5960  143.9950 O   0  0  0  0  0  0  0  0  0  0  0  0
  188.3560  177.4110  145.4230 C   0  0  0  0  0  0  0  0  0  0  0  0
  189.7690  174.8280  141.8610 C   0  0  0  0  0  2  0  0  0  0  0  0
  188.4920  174.3510  141.1750 C   0  0  2  0  0  3  0  0  0  0  0  0
  187.4260  174.3580  142.0780 O   0  0  0  0  0  1  0  0  0  0  0  0
  188.6870  172.9750  140.6350 C   0  0  0  0  0  0  0  0  0  0  0  0
  188.0580  172.6040  139.4550 O   0  0  0  0  0  0  0  0  0  0  0  0
  189.4340  172.1540  141.2310 O   0  0  0  0  0  1  0  0  0  0  0  0
  1  2  2  0  0  0  0
  1 14  1  0  0  0  0
  2 19  1  0  0  0  0
  3  7  1  0  0  0  0
  4  8  1  0  0  0  0
  4  1  1  0  0  0  0
  5 20  1  6  0  0  0
  5 18  1  0  0  0  0
  6  9  1  0  0  0  0
  8 15  1  0  0  0  0
  9  8  2  0  0  0  0
 10 11  1  1  0  0  0
 12  5  1  0  0  0  0
 12  2  1  0  0  0  0
 13  6  2  0  0  0  0
 13 17  1  0  0  0  0
 14  3  2  0  0  0  0
 15 14  1  0  0  0  0
 16 10  1  0  0  0  0
 17  4  2  0  0  0  0
 18 16  1  0  0  0  0
 19 10  1  0  0  0  0
 19  7  2  0  0  0  0
 21 20  1  0  0  0  0
 21 22  1  1  0  0  0
 23 21  1  0  0  0  0
 23 25  1  0  0  0  0
 24 23  2  0  0  0  0
M  END
>  <MODEL>
2

>  <REMARK>
 VINA RESULT:      -7.8      2.153      4.028
  Name = 
  3 active torsions:
  status: ('A' for Active; 'I' for Inactive)
    1  A    between atoms: C_2  and  C_21
    2  A    between atoms: C_6  and  C_15
    3  A    between atoms: C_15  and  C_21
                            x       y       z     vdW  Elec       q    Type
                         _______ _______ _______ _____ _____    ______ ____

>  <TORSDO>
F 3

$$$$
=
 OpenBabel11052417343D

 25 28  0  0  1  0  0  0  0  0999 V2000
  188.0330  177.6760  145.3760 C   0  0  0  0  0  0  0  0  0  0  0  0
  189.0720  177.4700  144.4590 C   0  0  0  0  0  0  0  0  0  0  0  0
  189.4410  177.1340  147.2680 C   0  0  0  0  0  3  0  0  0  0  0  0
  186.7140  178.0490  145.2320 C   0  0  0  0  0  0  0  0  0  0  0  0
  189.0960  175.8940  142.3680 C   0  0  2  0  0  3  0  0  0  0  0  0
  184.0650  178.7460  145.6330 C   0  0  0  0  0  3  0  0  0  0  0  0
  190.4970  176.9000  146.3730 C   0  0  0  0  0  3  0  0  0  0  0  0
  186.1960  178.0940  146.5100 C   0  0  0  0  0  0  0  0  0  0  0  0
  184.8680  178.4400  146.7460 C   0  0  0  0  0  3  0  0  0  0  0  0
  191.4460  176.6990  144.0200 C   0  0  1  0  0  3  0  0  0  0  0  0
  192.8060  176.5600  144.6900 C   0  0  0  0  0  1  0  0  0  0  0  0
  188.7970  177.6660  142.6910 S   0  0  0  0  0  0  0  0  0  0  0  0
  184.5970  178.6990  144.3260 C   0  0  0  0  0  3  0  0  0  0  0  0
  188.2160  177.5200  146.7360 C   0  0  0  0  0  0  0  0  0  0  0  0
  187.1080  177.7730  147.4040 O   0  0  0  0  0  0  0  0  0  0  0  0
  191.0900  175.4060  143.2890 C   0  0  0  0  0  2  0  0  0  0  0  0
  185.9420  178.3480  144.1110 C   0  0  0  0  0  3  0  0  0  0  0  0
  190.4520  175.6920  142.0720 O   0  0  0  0  0  0  0  0  0  0  0  0
  190.3350  177.0720  144.9740 C   0  0  0  0  0  0  0  0  0  0  0  0
  188.2100  175.3700  141.2390 C   0  0  0  0  0  2  0  0  0  0  0  0
  188.8110  174.1650  140.5210 C   0  0  2  0  0  3  0  0  0  0  0  0
  188.2600  174.0380  139.2440 O   0  0  0  0  0  1  0  0  0  0  0  0
  188.5560  172.9230  141.3070 C   0  0  0  0  0  0  0  0  0  0  0  0
  189.5620  171.9780  141.4440 O   0  0  0  0  0  0  0  0  0  0  0  0
  187.4410  172.7360  141.8630 O   0  0  0  0  0  1  0  0  0  0  0  0
  1 14  2  0  0  0  0
  2 19  2  0  0  0  0
  2  1  1  0  0  0  0
  4  1  1  0  0  0  0
  4  8  1  0  0  0  0
  5 20  1  6  0  0  0
  5 12  1  0  0  0  0
  6  9  1  0  0  0  0
  7  3  2  0  0  0  0
  8  9  2  0  0  0  0
  8 15  1  0  0  0  0
 10 11  1  1  0  0  0
 10 19  1  0  0  0  0
 12  2  1  0  0  0  0
 13  6  2  0  0  0  0
 14  3  1  0  0  0  0
 14 15  1  0  0  0  0
 16 10  1  0  0  0  0
 17 13  1  0  0  0  0
 17  4  2  0  0  0  0
 18  5  1  0  0  0  0
 18 16  1  0  0  0  0
 19  7  1  0  0  0  0
 21 22  1  6  0  0  0
 21 20  1  0  0  0  0
 21 23  1  0  0  0  0
 23 24  2  0  0  0  0
 23 25  1  0  0  0  0
M  END
>  <MODEL>
3

>  <REMARK>
 VINA RESULT:      -7.7      2.137      2.777
  Name = 
  3 active torsions:
  status: ('A' for Active; 'I' for Inactive)
    1  A    between atoms: C_2  and  C_21
    2  A    between atoms: C_6  and  C_15
    3  A    between atoms: C_15  and  C_21
                            x       y       z     vdW  Elec       q    Type
                         _______ _______ _______ _____ _____    ______ ____

>  <TORSDO>
F 3

$$$$
=
 OpenBabel11052417343D

 25 28  0  0  1  0  0  0  0  0999 V2000
  187.2860  177.5260  144.2760 C   0  0  0  0  0  0  0  0  0  0  0  0
  188.6550  177.3910  144.5370 C   0  0  0  0  0  0  0  0  0  0  0  0
  186.6920  177.1790  146.5960 C   0  0  0  0  0  3  0  0  0  0  0  0
  186.5690  177.7680  143.1240 C   0  0  0  0  0  0  0  0  0  0  0  0
  190.3650  175.7610  143.4080 C   0  0  2  0  0  3  0  0  0  0  0  0
  184.5900  178.2230  141.2420 C   0  0  0  0  0  3  0  0  0  0  0  0
  188.0570  177.0180  146.8870 C   0  0  0  0  0  3  0  0  0  0  0  0
  185.2440  177.8030  143.5080 C   0  0  0  0  0  0  0  0  0  0  0  0
  184.2250  178.0280  142.5870 C   0  0  0  0  0  3  0  0  0  0  0  0
  190.4970  176.8350  146.1880 C   0  0  1  0  0  3  0  0  0  0  0  0
  190.8180  176.8460  147.6760 C   0  0  0  0  0  1  0  0  0  0  0  0
  189.8660  177.5050  143.2090 S   0  0  0  0  0  0  0  0  0  0  0  0
  185.9470  178.1870  140.8520 C   0  0  0  0  0  3  0  0  0  0  0  0
  186.3370  177.4300  145.2760 C   0  0  0  0  0  0  0  0  0  0  0  0
  185.1190  177.5980  144.8030 O   0  0  0  0  0  0  0  0  0  0  0  0
  190.8940  175.4930  145.5780 C   0  0  0  0  0  2  0  0  0  0  0  0
  186.9600  177.9570  141.8000 C   0  0  0  0  0  3  0  0  0  0  0  0
  191.4440  175.6790  144.3010 O   0  0  0  0  0  0  0  0  0  0  0  0
  189.0480  177.1300  145.8780 C   0  0  0  0  0  0  0  0  0  0  0  0
  190.7210  175.1200  142.0670 C   0  0  0  0  0  2  0  0  0  0  0  0
  189.7860  173.9760  141.6870 C   0  0  2  0  0  3  0  0  0  0  0  0
  190.3100  173.2620  140.6070 O   0  0  0  0  0  1  0  0  0  0  0  0
  188.4410  174.5130  141.3330 C   0  0  0  0  0  0  0  0  0  0  0  0
  187.4140  174.4630  142.2660 O   0  0  0  0  0  1  0  0  0  0  0  0
  188.2340  175.0290  140.2030 O   0  0  0  0  0  0  0  0  0  0  0  0
  1  2  2  0  0  0  0
  1 14  1  0  0  0  0
  2 19  1  0  0  0  0
  3  7  1  0  0  0  0
  4  8  1  0  0  0  0
  4  1  1  0  0  0  0
  5 20  1  6  0  0  0
  5 18  1  0  0  0  0
  6  9  1  0  0  0  0
  8 15  1  0  0  0  0
  9  8  2  0  0  0  0
 10 11  1  1  0  0  0
 12  5  1  0  0  0  0
 12  2  1  0  0  0  0
 13  6  2  0  0  0  0
 13 17  1  0  0  0  0
 14  3  2  0  0  0  0
 15 14  1  0  0  0  0
 16 10  1  0  0  0  0
 17  4  2  0  0  0  0
 18 16  1  0  0  0  0
 19 10  1  0  0  0  0
 19  7  2  0  0  0  0
 21 22  1  6  0  0  0
 21 20  1  0  0  0  0
 23 21  1  0  0  0  0
 23 24  1  0  0  0  0
 25 23  2  0  0  0  0
M  END
>  <MODEL>
4

>  <REMARK>
 VINA RESULT:      -7.6      1.992      3.654
  Name = 
  3 active torsions:
  status: ('A' for Active; 'I' for Inactive)
    1  A    between atoms: C_2  and  C_21
    2  A    between atoms: C_6  and  C_15
    3  A    between atoms: C_15  and  C_21
                            x       y       z     vdW  Elec       q    Type
                         _______ _______ _______ _____ _____    ______ ____

>  <TORSDO>
F 3

$$$$
=
 OpenBabel11052417343D

 25 28  0  0  1  0  0  0  0  0999 V2000
  187.1800  176.7280  144.2340 C   0  0  0  0  0  0  0  0  0  0  0  0
  188.2350  175.8410  143.9840 C   0  0  0  0  0  0  0  0  0  0  0  0
  186.5620  176.8330  141.8970 C   0  0  0  0  0  3  0  0  0  0  0  0
  186.6940  177.3080  145.3860 C   0  0  0  0  0  0  0  0  0  0  0  0
  190.7570  176.0990  144.6420 C   0  0  2  0  0  3  0  0  0  0  0  0
  185.2630  178.7560  147.2620 C   0  0  0  0  0  3  0  0  0  0  0  0
  187.6250  175.9610  141.6110 C   0  0  0  0  0  3  0  0  0  0  0  0
  185.6250  178.0860  144.9920 C   0  0  0  0  0  0  0  0  0  0  0  0
  184.8850  178.8260  145.9090 C   0  0  0  0  0  3  0  0  0  0  0  0
  189.6710  174.6100  142.2960 C   0  0  1  0  0  3  0  0  0  0  0  0
  189.6410  174.0410  140.8840 C   0  0  0  0  0  1  0  0  0  0  0  0
  189.2880  175.2550  145.3220 S   0  0  0  0  0  0  0  0  0  0  0  0
  186.3580  177.9590  147.6630 C   0  0  0  0  0  3  0  0  0  0  0  0
  186.3670  177.2010  143.2230 C   0  0  0  0  0  0  0  0  0  0  0  0
  185.4390  178.0130  143.6900 O   0  0  0  0  0  0  0  0  0  0  0  0
  190.9430  175.4280  142.5030 C   0  0  0  0  0  2  0  0  0  0  0  0
  187.0910  177.2190  146.7190 C   0  0  0  0  0  3  0  0  0  0  0  0
  191.4520  175.2230  143.7940 O   0  0  0  0  0  0  0  0  0  0  0  0
  188.4610  175.4490  142.6370 C   0  0  0  0  0  0  0  0  0  0  0  0
  191.6700  176.6210  145.7500 C   0  0  0  0  0  2  0  0  0  0  0  0
  192.5830  175.5430  146.3280 C   0  0  2  0  0  3  0  0  0  0  0  0
  192.0970  175.1090  147.5620 O   0  0  0  0  0  1  0  0  0  0  0  0
  193.9650  176.0790  146.4880 C   0  0  0  0  0  0  0  0  0  0  0  0
  195.0500  175.3130  146.0820 O   0  0  0  0  0  0  0  0  0  0  0  0
  194.1550  177.2270  146.9700 O   0  0  0  0  0  1  0  0  0  0  0  0
  1  4  1  0  0  0  0
  2  1  1  0  0  0  0
  2 12  1  0  0  0  0
  3 14  1  0  0  0  0
  4 17  1  0  0  0  0
  5 12  1  0  0  0  0
  5 20  1  1  0  0  0
  6 13  1  0  0  0  0
  7  3  2  0  0  0  0
  7 19  1  0  0  0  0
  8  4  2  0  0  0  0
  8  9  1  0  0  0  0
  9  6  2  0  0  0  0
 10 11  1  6  0  0  0
 10 16  1  0  0  0  0
 10 19  1  0  0  0  0
 14 15  1  0  0  0  0
 14  1  2  0  0  0  0
 15  8  1  0  0  0  0
 16 18  1  0  0  0  0
 17 13  2  0  0  0  0
 18  5  1  0  0  0  0
 19  2  2  0  0  0  0
 20 21  1  0  0  0  0
 21 23  1  0  0  0  0
 21 22  1  1  0  0  0
 23 25  1  0  0  0  0
 24 23  2  0  0  0  0
M  END
>  <MODEL>
5

>  <REMARK>
 VINA RESULT:      -7.5      2.746      5.372
  Name = 
  3 active torsions:
  status: ('A' for Active; 'I' for Inactive)
    1  A    between atoms: C_2  and  C_21
    2  A    between atoms: C_6  and  C_15
    3  A    between atoms: C_15  and  C_21
                            x       y       z     vdW  Elec       q    Type
                         _______ _______ _______ _____ _____    ______ ____

>  <TORSDO>
F 3

$$$$
=
 OpenBabel11052417343D

 25 28  0  0  1  0  0  0  0  0999 V2000
  185.7760  178.1720  143.6530 C   0  0  0  0  0  0  0  0  0  0  0  0
  186.7620  178.0750  144.6430 C   0  0  0  0  0  0  0  0  0  0  0  0
  184.0660  178.7760  145.2550 C   0  0  0  0  0  3  0  0  0  0  0  0
  185.7960  177.9920  142.2870 C   0  0  0  0  0  0  0  0  0  0  0  0
  188.3330  176.0450  145.1670 C   0  0  2  0  0  3  0  0  0  0  0  0
  185.1660  177.7950  139.5980 C   0  0  0  0  0  3  0  0  0  0  0  0
  185.0270  178.6660  146.2730 C   0  0  0  0  0  3  0  0  0  0  0  0
  184.5090  178.2420  141.8570 C   0  0  0  0  0  0  0  0  0  0  0  0
  184.1590  178.1520  140.5130 C   0  0  0  0  0  3  0  0  0  0  0  0
  187.3640  178.0960  147.1050 C   0  0  1  0  0  3  0  0  0  0  0  0
  186.9140  178.6610  148.4450 C   0  0  0  0  0  1  0  0  0  0  0  0
  188.4490  177.6040  144.2240 S   0  0  0  0  0  0  0  0  0  0  0  0
  186.4820  177.5380  140.0400 C   0  0  0  0  0  3  0  0  0  0  0  0
  184.4730  178.5190  143.9510 C   0  0  0  0  0  0  0  0  0  0  0  0
  183.7240  178.5580  142.8670 O   0  0  0  0  0  0  0  0  0  0  0  0
  187.6550  176.6030  147.2390 C   0  0  0  0  0  2  0  0  0  0  0  0
  186.8130  177.6360  141.4040 C   0  0  0  0  0  3  0  0  0  0  0  0
  188.7820  176.2540  146.4800 O   0  0  0  0  0  0  0  0  0  0  0  0
  186.3750  178.3280  145.9860 C   0  0  0  0  0  0  0  0  0  0  0  0
  189.1200  174.9210  144.4970 C   0  0  0  0  0  2  0  0  0  0  0  0
  189.1450  175.0350  142.9750 C   0  0  2  0  0  3  0  0  0  0  0  0
  188.1760  174.2030  142.4110 O   0  0  0  0  0  1  0  0  0  0  0  0
  190.4940  174.6640  142.4590 C   0  0  0  0  0  0  0  0  0  0  0  0
  191.6080  174.8210  143.2710 O   0  0  0  0  0  1  0  0  0  0  0  0
  190.6260  174.1900  141.2990 O   0  0  0  0  0  0  0  0  0  0  0  0
  1 14  1  0  0  0  0
  1  2  2  0  0  0  0
  2 19  1  0  0  0  0
  3  7  1  0  0  0  0
  4  1  1  0  0  0  0
  5 20  1  6  0  0  0
  5 18  1  0  0  0  0
  6 13  2  0  0  0  0
  6  9  1  0  0  0  0
  8  4  1  0  0  0  0
  8 15  1  0  0  0  0
  9  8  2  0  0  0  0
 10 16  1  0  0  0  0
 10 11  1  1  0  0  0
 12  2  1  0  0  0  0
 12  5  1  0  0  0  0
 13 17  1  0  0  0  0
 14  3  2  0  0  0  0
 15 14  1  0  0  0  0
 17  4  2  0  0  0  0
 18 16  1  0  0  0  0
 19  7  2  0  0  0  0
 19 10  1  0  0  0  0
 21 22  1  6  0  0  0
 21 20  1  0  0  0  0
 23 21  1  0  0  0  0
 23 24  1  0  0  0  0
 25 23  2  0  0  0  0
M  END
>  <MODEL>
6

>  <REMARK>
 VINA RESULT:      -7.2      1.834      5.399
  Name = 
  3 active torsions:
  status: ('A' for Active; 'I' for Inactive)
    1  A    between atoms: C_2  and  C_21
    2  A    between atoms: C_6  and  C_15
    3  A    between atoms: C_15  and  C_21
                            x       y       z     vdW  Elec       q    Type
                         _______ _______ _______ _____ _____    ______ ____

>  <TORSDO>
F 3

$$$$
=
 OpenBabel11052417343D

 25 28  0  0  1  0  0  0  0  0999 V2000
  189.7420  177.1010  145.5260 C   0  0  0  0  0  0  0  0  0  0  0  0
  190.9450  176.7250  144.9160 C   0  0  0  0  0  0  0  0  0  0  0  0
  190.6490  176.8180  147.7510 C   0  0  0  0  0  3  0  0  0  0  0  0
  188.5170  177.4880  145.0270 C   0  0  0  0  0  0  0  0  0  0  0  0
  191.3370  174.8440  143.1360 C   0  0  2  0  0  3  0  0  0  0  0  0
  185.8960  178.3180  144.6950 C   0  0  0  0  0  3  0  0  0  0  0  0
  191.8620  176.4160  147.1700 C   0  0  0  0  0  3  0  0  0  0  0  0
  187.7270  177.7450  146.1290 C   0  0  0  0  0  0  0  0  0  0  0  0
  186.4060  178.1640  145.9970 C   0  0  0  0  0  3  0  0  0  0  0  0
  193.3020  175.8230  145.1570 C   0  0  1  0  0  3  0  0  0  0  0  0
  194.4640  175.7500  146.1380 C   0  0  0  0  0  1  0  0  0  0  0  0
  191.0890  176.6520  143.1230 S   0  0  0  0  0  0  0  0  0  0  0  0
  186.7060  178.0530  143.5690 C   0  0  0  0  0  3  0  0  0  0  0  0
  189.6030  177.1530  146.8990 C   0  0  0  0  0  0  0  0  0  0  0  0
  188.3920  177.5400  147.2480 O   0  0  0  0  0  0  0  0  0  0  0  0
  193.0360  174.4450  144.5570 C   0  0  0  0  0  2  0  0  0  0  0  0
  188.0390  177.6320  143.7260 C   0  0  0  0  0  3  0  0  0  0  0  0
  192.7100  174.5570  143.1970 O   0  0  0  0  0  0  0  0  0  0  0  0
  192.0310  176.3730  145.7620 C   0  0  0  0  0  0  0  0  0  0  0  0
  190.6970  174.1780  141.9200 C   0  0  0  0  0  2  0  0  0  0  0  0
  189.1760  174.1050  142.0110 C   0  0  2  0  0  3  0  0  0  0  0  0
  188.7670  172.7910  142.2460 O   0  0  0  0  0  1  0  0  0  0  0  0
  188.5650  174.6060  140.7470 C   0  0  0  0  0  0  0  0  0  0  0  0
  187.8160  175.7750  140.7620 O   0  0  0  0  0  1  0  0  0  0  0  0
  188.7390  173.9890  139.6630 O   0  0  0  0  0  0  0  0  0  0  0  0
  1 14  1  0  0  0  0
  2  1  2  0  0  0  0
  2 19  1  0  0  0  0
  4  1  1  0  0  0  0
  4  8  1  0  0  0  0
  5 20  1  6  0  0  0
  5 18  1  0  0  0  0
  6  9  1  0  0  0  0
  7  3  1  0  0  0  0
  8 15  1  0  0  0  0
  9  8  2  0  0  0  0
 10 19  1  0  0  0  0
 10 11  1  1  0  0  0
 12  5  1  0  0  0  0
 12  2  1  0  0  0  0
 13 17  1  0  0  0  0
 13  6  2  0  0  0  0
 14 15  1  0  0  0  0
 14  3  2  0  0  0  0
 16 10  1  0  0  0  0
 17  4  2  0  0  0  0
 18 16  1  0  0  0  0
 19  7  2  0  0  0  0
 20 21  1  0  0  0  0
 21 22  1  6  0  0  0
 23 24  1  0  0  0  0
 23 21  1  0  0  0  0
 25 23  2  0  0  0  0
M  END
>  <MODEL>
7

>  <REMARK>
 VINA RESULT:      -7.1      2.038      2.928
  Name = 
  3 active torsions:
  status: ('A' for Active; 'I' for Inactive)
    1  A    between atoms: C_2  and  C_21
    2  A    between atoms: C_6  and  C_15
    3  A    between atoms: C_15  and  C_21
                            x       y       z     vdW  Elec       q    Type
                         _______ _______ _______ _____ _____    ______ ____

>  <TORSDO>
F 3

$$$$
=
 OpenBabel11052417343D

 25 28  0  0  1  0  0  0  0  0999 V2000
  188.3470  177.4930  144.5790 C   0  0  0  0  0  0  0  0  0  0  0  0
  189.6840  177.0930  144.4700 C   0  0  0  0  0  0  0  0  0  0  0  0
  188.4000  177.4070  146.9970 C   0  0  0  0  0  3  0  0  0  0  0  0
  187.3830  177.8140  143.6470 C   0  0  0  0  0  0  0  0  0  0  0  0
  190.6650  175.0820  143.1070 C   0  0  2  0  0  3  0  0  0  0  0  0
  185.0610  178.5630  142.3400 C   0  0  0  0  0  3  0  0  0  0  0  0
  189.7360  176.9840  146.9200 C   0  0  0  0  0  3  0  0  0  0  0  0
  186.2560  178.1440  144.3720 C   0  0  0  0  0  0  0  0  0  0  0  0
  185.0730  178.5240  143.7450 C   0  0  0  0  0  3  0  0  0  0  0  0
  191.7920  176.2590  145.6060 C   0  0  1  0  0  3  0  0  0  0  0  0
  192.5280  176.2880  146.9380 C   0  0  0  0  0  1  0  0  0  0  0  0
  190.4560  176.8780  142.8570 S   0  0  0  0  0  0  0  0  0  0  0  0
  186.2160  178.2240  141.6000 C   0  0  0  0  0  3  0  0  0  0  0  0
  187.7290  177.6520  145.8040 C   0  0  0  0  0  0  0  0  0  0  0  0
  186.4770  178.0420  145.6670 O   0  0  0  0  0  0  0  0  0  0  0  0
  191.7430  174.8320  145.0660 C   0  0  0  0  0  2  0  0  0  0  0  0
  187.4010  177.8430  142.2550 C   0  0  0  0  0  3  0  0  0  0  0  0
  191.9230  174.8280  143.6740 O   0  0  0  0  0  0  0  0  0  0  0  0
  190.3940  176.8310  145.6720 C   0  0  0  0  0  0  0  0  0  0  0  0
  190.4920  174.3080  141.8020 C   0  0  0  0  0  2  0  0  0  0  0  0
  189.2350  173.4440  141.7820 C   0  0  2  0  0  3  0  0  0  0  0  0
  188.1790  174.1110  142.4070 O   0  0  0  0  0  1  0  0  0  0  0  0
  189.4950  172.1490  142.4760 C   0  0  0  0  0  0  0  0  0  0  0  0
  190.1780  171.1390  141.8120 O   0  0  0  0  0  0  0  0  0  0  0  0
  189.1180  171.9730  143.6650 O   0  0  0  0  0  1  0  0  0  0  0  0
  1 14  1  0  0  0  0
  2  1  2  0  0  0  0
  2 19  1  0  0  0  0
  4  8  1  0  0  0  0
  4  1  1  0  0  0  0
  5 20  1  6  0  0  0
  5 18  1  0  0  0  0
  6  9  1  0  0  0  0
  7  3  1  0  0  0  0
  8 15  1  0  0  0  0
  9  8  2  0  0  0  0
 10 19  1  0  0  0  0
 10 11  1  1  0  0  0
 12  5  1  0  0  0  0
 12  2  1  0  0  0  0
 13 17  1  0  0  0  0
 13  6  2  0  0  0  0
 14  3  2  0  0  0  0
 15 14  1  0  0  0  0
 16 10  1  0  0  0  0
 17  4  2  0  0  0  0
 18 16  1  0  0  0  0
 19  7  2  0  0  0  0
 21 20  1  0  0  0  0
 21 22  1  1  0  0  0
 21 23  1  0  0  0  0
 23 25  1  0  0  0  0
 24 23  2  0  0  0  0
M  END
>  <MODEL>
8

>  <REMARK>
 VINA RESULT:      -7.1      2.352      3.752
  Name = 
  3 active torsions:
  status: ('A' for Active; 'I' for Inactive)
    1  A    between atoms: C_2  and  C_21
    2  A    between atoms: C_6  and  C_15
    3  A    between atoms: C_15  and  C_21
                            x       y       z     vdW  Elec       q    Type
                         _______ _______ _______ _____ _____    ______ ____

>  <TORSDO>
F 3

$$$$
=
 OpenBabel11052417343D

 25 28  0  0  1  0  0  0  0  0999 V2000
  187.7270  176.3460  143.6870 C   0  0  0  0  0  0  0  0  0  0  0  0
  188.6240  175.3130  143.3900 C   0  0  0  0  0  0  0  0  0  0  0  0
  187.1840  176.7000  141.3560 C   0  0  0  0  0  3  0  0  0  0  0  0
  187.3190  176.9240  144.8700 C   0  0  0  0  0  0  0  0  0  0  0  0
  191.1400  175.1050  144.0900 C   0  0  2  0  0  3  0  0  0  0  0  0
  186.1090  178.4700  146.8230 C   0  0  0  0  0  3  0  0  0  0  0  0
  188.0930  175.6830  141.0240 C   0  0  0  0  0  3  0  0  0  0  0  0
  186.4020  177.8930  144.5170 C   0  0  0  0  0  0  0  0  0  0  0  0
  185.7760  178.6870  145.4740 C   0  0  0  0  0  3  0  0  0  0  0  0
  189.8710  173.9700  141.6390 C   0  0  1  0  0  3  0  0  0  0  0  0
  189.7770  173.5030  140.1930 C   0  0  0  0  0  1  0  0  0  0  0  0
  189.5370  174.4770  144.6970 S   0  0  0  0  0  0  0  0  0  0  0  0
  187.0480  177.4780  147.1820 C   0  0  0  0  0  3  0  0  0  0  0  0
  187.0240  177.0110  142.7020 C   0  0  0  0  0  0  0  0  0  0  0  0
  186.2340  177.9350  143.2110 O   0  0  0  0  0  0  0  0  0  0  0  0
  191.2570  174.5480  141.9120 C   0  0  0  0  0  2  0  0  0  0  0  0
  187.6680  176.6870  146.1980 C   0  0  0  0  0  3  0  0  0  0  0  0
  191.6980  174.1810  143.1930 O   0  0  0  0  0  0  0  0  0  0  0  0
  188.8100  174.9750  142.0230 C   0  0  0  0  0  0  0  0  0  0  0  0
  192.1030  175.3960  145.2380 C   0  0  0  0  0  2  0  0  0  0  0  0
  192.6270  176.8290  145.2280 C   0  0  2  0  0  3  0  0  0  0  0  0
  192.0570  177.5450  144.1740 O   0  0  0  0  0  1  0  0  0  0  0  0
  194.1120  176.8280  145.0950 C   0  0  0  0  0  0  0  0  0  0  0  0
  194.8630  177.7870  145.7600 O   0  0  0  0  0  1  0  0  0  0  0  0
  194.6920  175.9520  144.3990 O   0  0  0  0  0  0  0  0  0  0  0  0
  1  4  1  0  0  0  0
  2  1  1  0  0  0  0
  2 12  1  0  0  0  0
  3 14  1  0  0  0  0
  4 17  1  0  0  0  0
  5 12  1  0  0  0  0
  5 20  1  1  0  0  0
  6 13  1  0  0  0  0
  7  3  2  0  0  0  0
  7 19  1  0  0  0  0
  8  4  2  0  0  0  0
  8  9  1  0  0  0  0
  9  6  2  0  0  0  0
 10 11  1  6  0  0  0
 10 16  1  0  0  0  0
 10 19  1  0  0  0  0
 14 15  1  0  0  0  0
 14  1  2  0  0  0  0
 15  8  1  0  0  0  0
 16 18  1  0  0  0  0
 17 13  2  0  0  0  0
 18  5  1  0  0  0  0
 19  2  2  0  0  0  0
 21 22  1  6  0  0  0
 21 20  1  0  0  0  0
 23 21  1  0  0  0  0
 23 24  1  0  0  0  0
 25 23  2  0  0  0  0
M  END
>  <MODEL>
9

>  <REMARK>
 VINA RESULT:      -6.9      2.552      5.171
  Name = 
  3 active torsions:
  status: ('A' for Active; 'I' for Inactive)
    1  A    between atoms: C_2  and  C_21
    2  A    between atoms: C_6  and  C_15
    3  A    between atoms: C_15  and  C_21
                            x       y       z     vdW  Elec       q    Type
                         _______ _______ _______ _____ _____    ______ ____

>  <TORSDO>
F 3

$$$$
