=
 OpenBabel11052421393D

 32 36  0  0  1  0  0  0  0  0999 V2000
  184.3400  178.2480  140.9780 C   0  0  0  0  0  0  0  0  0  0  0  0
  188.2940  176.6850  143.7560 C   0  0  2  0  0  3  0  0  0  0  0  0
  190.8090  176.5560  143.9370 C   0  0  0  0  0  0  0  0  0  0  0  0
  192.0060  176.2620  144.7460 C   0  0  0  0  0  0  0  0  0  0  0  0
  186.6990  177.0060  141.8550 C   0  0  0  0  0  0  0  0  0  0  0  0
  185.9580  177.2650  144.1580 O   0  0  0  0  0  0  0  0  0  0  0  0
  194.2840  175.6190  146.2500 C   0  0  0  0  0  3  0  0  0  0  0  0
  184.5680  178.0590  142.3440 C   0  0  0  0  0  3  0  0  0  0  0  0
  187.0600  176.5030  144.6560 C   0  0  2  0  0  3  0  0  0  0  0  0
  187.3510  176.9080  146.1080 C   0  0  2  0  0  3  0  0  0  0  0  0
  189.3740  175.4070  145.7050 C   0  0  2  0  0  3  0  0  0  0  0  0
  194.3930  176.4660  145.1430 C   0  0  0  0  0  3  0  0  0  0  0  0
  185.2970  177.8040  140.0500 C   0  0  0  0  0  3  0  0  0  0  0  0
  185.7370  177.4340  142.7870 C   0  0  0  0  0  0  0  0  0  0  0  0
  193.2580  176.7850  144.3920 C   0  0  0  0  0  3  0  0  0  0  0  0
  186.4700  177.1830  140.4880 C   0  0  0  0  0  3  0  0  0  0  0  0
  188.7400  176.4750  146.6120 C   0  0  1  0  0  3  0  0  0  0  0  0
  190.6280  174.9000  146.2570 N   0  0  0  0  0  2  0  0  0  0  0  0
  187.9410  176.3050  142.3170 C   0  0  0  0  0  2  0  0  0  0  0  0
  190.8990  177.3390  142.9510 O   0  0  0  0  0  0  0  0  0  0  0  0
  193.0390  175.0970  146.6110 C   0  0  0  0  0  3  0  0  0  0  0  0
  189.5020  175.8520  144.2270 C   0  0  1  0  0  3  0  0  0  0  0  0
  191.9000  175.4240  145.8680 C   0  0  0  0  0  0  0  0  0  0  0  0
  185.8990  177.4780  147.6800 C   0  0  0  0  0  1  0  0  0  0  0  0
  186.3640  176.3840  146.9470 O   0  0  0  0  0  0  0  0  0  0  0  0
  190.2320  177.6740  148.0480 O   0  0  0  0  0  1  0  0  0  0  0  0
  189.6380  177.6940  146.7860 C   0  0  0  0  0  2  0  0  0  0  0  0
  183.1600  178.8750  140.5700 O   0  0  0  0  0  0  0  0  0  0  0  0
  181.8840  178.2560  140.6790 C   0  0  0  0  0  2  0  0  0  0  0  0
  180.9050  179.2280  141.2320 C   0  0  0  0  0  0  0  0  0  0  0  0
  180.6590  179.2400  142.4660 O   0  0  0  0  0  1  0  0  0  0  0  0
  180.2330  180.0940  140.3810 O   0  0  0  0  0  0  0  0  0  0  0  0
  1  8  1  0  0  0  0
  2 19  1  6  0  0  0
  2 22  1  0  0  0  0
  2  9  1  0  0  0  0
  3  4  1  0  0  0  0
  4 23  1  0  0  0  0
  5 19  1  0  0  0  0
  5 14  1  0  0  0  0
  7 21  1  0  0  0  0
  8 14  2  0  0  0  0
  9  6  1  6  0  0  0
  9 10  1  0  0  0  0
 10 17  1  0  0  0  0
 10 25  1  1  0  0  0
 11 18  1  1  0  0  0
 11 17  1  0  0  0  0
 12  7  2  0  0  0  0
 13 16  1  0  0  0  0
 13  1  2  0  0  0  0
 14  6  1  0  0  0  0
 15  4  2  0  0  0  0
 15 12  1  0  0  0  0
 16  5  2  0  0  0  0
 17 27  1  6  0  0  0
 20  3  2  0  0  0  0
 22  3  1  1  0  0  0
 22 11  1  0  0  0  0
 23 18  1  0  0  0  0
 23 21  2  0  0  0  0
 25 24  1  0  0  0  0
 27 26  1  0  0  0  0
 28 29  1  0  0  0  0
 28  1  1  0  0  0  0
 29 30  1  0  0  0  0
 30 31  1  0  0  0  0
 32 30  2  0  0  0  0
M  END
>  <MODEL>
1

>  <REMARK>
 VINA RESULT:      -8.1      0.000      0.000
  Name = 
  5 active torsions:
  status: ('A' for Active; 'I' for Inactive)
    1  A    between atoms: C_1  and  C_10
    2  A    between atoms: C_2  and  O_24
    3  A    between atoms: C_10  and  O_24
    4  A    between atoms: O_13  and  C_15
    5  A    between atoms: C_25  and  C_26
                            x       y       z     vdW  Elec       q    Type
                         _______ _______ _______ _____ _____    ______ ____

>  <TORSDO>
F 5

$$$$
=
 OpenBabel11052421393D

 32 36  0  0  1  0  0  0  0  0999 V2000
  180.7880  178.6320  141.0030 C   0  0  0  0  0  0  0  0  0  0  0  0
  185.4420  177.7800  142.8490 C   0  0  2  0  0  3  0  0  0  0  0  0
  186.8020  177.0060  144.8300 C   0  0  0  0  0  0  0  0  0  0  0  0
  188.1040  176.6010  145.3900 C   0  0  0  0  0  0  0  0  0  0  0  0
  183.1160  178.6580  142.5690 C   0  0  0  0  0  0  0  0  0  0  0  0
  184.3980  177.9010  140.6470 O   0  0  0  0  0  0  0  0  0  0  0  0
  190.5940  175.9140  146.4840 C   0  0  0  0  0  3  0  0  0  0  0  0
  182.0160  178.2660  140.4420 C   0  0  0  0  0  3  0  0  0  0  0  0
  185.6360  178.0440  141.3460 C   0  0  2  0  0  3  0  0  0  0  0  0
  186.6850  177.1030  140.7350 C   0  0  2  0  0  3  0  0  0  0  0  0
  188.0060  177.8980  142.7660 C   0  0  2  0  0  3  0  0  0  0  0  0
  189.4160  175.5020  147.1140 C   0  0  0  0  0  3  0  0  0  0  0  0
  180.7320  179.0210  142.3510 C   0  0  0  0  0  3  0  0  0  0  0  0
  183.1790  178.2840  141.2160 C   0  0  0  0  0  0  0  0  0  0  0  0
  188.1740  175.8460  146.5700 C   0  0  0  0  0  3  0  0  0  0  0  0
  181.8930  179.0370  143.1300 C   0  0  0  0  0  3  0  0  0  0  0  0
  187.9080  176.8590  141.6360 C   0  0  1  0  0  3  0  0  0  0  0  0
  189.2380  177.7480  143.5370 N   0  0  0  0  0  2  0  0  0  0  0  0
  184.3630  178.7140  143.4000 C   0  0  0  0  0  2  0  0  0  0  0  0
  185.7360  176.6170  145.3830 O   0  0  0  0  0  0  0  0  0  0  0  0
  190.5310  176.6630  145.3050 C   0  0  0  0  0  3  0  0  0  0  0  0
  186.7410  177.9600  143.6570 C   0  0  1  0  0  3  0  0  0  0  0  0
  189.2910  176.9980  144.7530 C   0  0  0  0  0  0  0  0  0  0  0  0
  186.6540  176.6790  138.5620 C   0  0  0  0  0  1  0  0  0  0  0  0
  187.1040  177.6070  139.5020 O   0  0  0  0  0  0  0  0  0  0  0  0
  188.9460  174.7030  141.6060 O   0  0  0  0  0  1  0  0  0  0  0  0
  187.8940  175.4300  142.1640 C   0  0  0  0  0  2  0  0  0  0  0  0
  179.6440  178.6040  140.2010 O   0  0  0  0  0  0  0  0  0  0  0  0
  178.3290  178.5450  140.7400 C   0  0  0  0  0  2  0  0  0  0  0  0
  177.9330  177.1250  140.9310 C   0  0  0  0  0  0  0  0  0  0  0  0
  177.6920  176.3990  139.9320 O   0  0  0  0  0  0  0  0  0  0  0  0
  177.7890  176.6120  142.2130 O   0  0  0  0  0  1  0  0  0  0  0  0
  1 13  1  0  0  0  0
  2 19  1  1  0  0  0
  2 22  1  0  0  0  0
  3 20  2  0  0  0  0
  3  4  1  0  0  0  0
  4 15  1  0  0  0  0
  5 16  1  0  0  0  0
  5 19  1  0  0  0  0
  6 14  1  0  0  0  0
  7 12  1  0  0  0  0
  8  1  2  0  0  0  0
  8 14  1  0  0  0  0
  9  6  1  6  0  0  0
  9  2  1  0  0  0  0
 10 25  1  6  0  0  0
 10  9  1  0  0  0  0
 10 17  1  0  0  0  0
 11 18  1  1  0  0  0
 11 22  1  0  0  0  0
 13 16  2  0  0  0  0
 14  5  2  0  0  0  0
 15 12  2  0  0  0  0
 17 27  1  1  0  0  0
 17 11  1  0  0  0  0
 18 23  1  0  0  0  0
 21  7  2  0  0  0  0
 22  3  1  1  0  0  0
 23 21  1  0  0  0  0
 23  4  2  0  0  0  0
 24 25  1  0  0  0  0
 26 27  1  0  0  0  0
 28 29  1  0  0  0  0
 28  1  1  0  0  0  0
 29 30  1  0  0  0  0
 30 32  1  0  0  0  0
 31 30  2  0  0  0  0
M  END
>  <MODEL>
2

>  <REMARK>
 VINA RESULT:      -7.8      2.193      4.803
  Name = 
  5 active torsions:
  status: ('A' for Active; 'I' for Inactive)
    1  A    between atoms: C_1  and  C_10
    2  A    between atoms: C_2  and  O_24
    3  A    between atoms: C_10  and  O_24
    4  A    between atoms: O_13  and  C_15
    5  A    between atoms: C_25  and  C_26
                            x       y       z     vdW  Elec       q    Type
                         _______ _______ _______ _____ _____    ______ ____

>  <TORSDO>
F 5

$$$$
=
 OpenBabel11052421393D

 32 36  0  0  1  0  0  0  0  0999 V2000
  186.4490  176.5370  143.4740 C   0  0  0  0  0  0  0  0  0  0  0  0
  191.3720  175.5090  144.1810 C   0  0  2  0  0  3  0  0  0  0  0  0
  193.6560  175.3570  143.1160 C   0  0  0  0  0  0  0  0  0  0  0  0
  195.1160  175.2130  143.2660 C   0  0  0  0  0  0  0  0  0  0  0  0
  189.0320  175.4530  143.2980 C   0  0  0  0  0  0  0  0  0  0  0  0
  189.4910  176.2230  145.5600 O   0  0  0  0  0  0  0  0  0  0  0  0
  197.8840  174.8510  143.5400 C   0  0  0  0  0  3  0  0  0  0  0  0
  187.3300  176.6420  144.5550 C   0  0  0  0  0  3  0  0  0  0  0  0
  190.7550  175.5580  145.5890 C   0  0  2  0  0  3  0  0  0  0  0  0
  191.6830  176.2600  146.5920 C   0  0  2  0  0  3  0  0  0  0  0  0
  193.3700  174.6550  145.5510 C   0  0  2  0  0  3  0  0  0  0  0  0
  197.3660  175.4360  142.3800 C   0  0  0  0  0  3  0  0  0  0  0  0
  186.8660  175.8780  142.3050 C   0  0  0  0  0  3  0  0  0  0  0  0
  188.6150  176.0970  144.4760 C   0  0  0  0  0  0  0  0  0  0  0  0
  195.9860  175.6140  142.2430 C   0  0  0  0  0  3  0  0  0  0  0  0
  188.1510  175.3360  142.2200 C   0  0  0  0  0  3  0  0  0  0  0  0
  193.1720  175.9110  146.4170 C   0  0  1  0  0  3  0  0  0  0  0  0
  194.7720  174.2470  145.4990 N   0  0  0  0  0  2  0  0  0  0  0  0
  190.3960  174.8360  143.2150 C   0  0  0  0  0  2  0  0  0  0  0  0
  193.1870  175.9040  142.0800 O   0  0  0  0  0  0  0  0  0  0  0  0
  197.0230  174.4530  144.5660 C   0  0  0  0  0  3  0  0  0  0  0  0
  192.7220  174.7660  144.1490 C   0  0  1  0  0  3  0  0  0  0  0  0
  195.6430  174.6410  144.4360 C   0  0  0  0  0  0  0  0  0  0  0  0
  191.4040  177.1570  148.5970 C   0  0  0  0  0  1  0  0  0  0  0  0
  191.2800  175.9570  147.8940 O   0  0  0  0  0  0  0  0  0  0  0  0
  194.8110  177.6010  146.8440 O   0  0  0  0  0  1  0  0  0  0  0  0
  193.9330  177.1140  145.8750 C   0  0  0  0  0  2  0  0  0  0  0  0
  185.1720  177.0920  143.5870 O   0  0  0  0  0  0  0  0  0  0  0  0
  184.8510  178.3870  143.0950 C   0  0  0  0  0  2  0  0  0  0  0  0
  184.8250  179.3550  144.2230 C   0  0  0  0  0  0  0  0  0  0  0  0
  185.5280  180.3970  144.1750 O   0  0  0  0  0  0  0  0  0  0  0  0
  184.0550  179.0880  145.3470 O   0  0  0  0  0  1  0  0  0  0  0  0
  1 28  1  0  0  0  0
  1  8  1  0  0  0  0
  2 19  1  6  0  0  0
  2  9  1  0  0  0  0
  3  4  1  0  0  0  0
  4 23  1  0  0  0  0
  5 14  1  0  0  0  0
  7 21  1  0  0  0  0
  9  6  1  6  0  0  0
  9 10  1  0  0  0  0
 10 25  1  1  0  0  0
 11 18  1  6  0  0  0
 11 17  1  0  0  0  0
 12  7  2  0  0  0  0
 13  1  2  0  0  0  0
 14  8  2  0  0  0  0
 14  6  1  0  0  0  0
 15 12  1  0  0  0  0
 15  4  2  0  0  0  0
 16 13  1  0  0  0  0
 16  5  2  0  0  0  0
 17 27  1  6  0  0  0
 17 10  1  0  0  0  0
 19  5  1  0  0  0  0
 20  3  2  0  0  0  0
 22  3  1  6  0  0  0
 22  2  1  0  0  0  0
 22 11  1  0  0  0  0
 23 21  2  0  0  0  0
 23 18  1  0  0  0  0
 25 24  1  0  0  0  0
 27 26  1  0  0  0  0
 29 28  1  0  0  0  0
 29 30  1  0  0  0  0
 30 32  1  0  0  0  0
 31 30  2  0  0  0  0
M  END
>  <MODEL>
3

>  <REMARK>
 VINA RESULT:      -7.4      2.614      4.148
  Name = 
  5 active torsions:
  status: ('A' for Active; 'I' for Inactive)
    1  A    between atoms: C_1  and  C_10
    2  A    between atoms: C_2  and  O_24
    3  A    between atoms: C_10  and  O_24
    4  A    between atoms: O_13  and  C_15
    5  A    between atoms: C_25  and  C_26
                            x       y       z     vdW  Elec       q    Type
                         _______ _______ _______ _____ _____    ______ ____

>  <TORSDO>
F 5

$$$$
=
 OpenBabel11052421393D

 32 36  0  0  1  0  0  0  0  0999 V2000
  186.5360  177.0050  146.0090 C   0  0  0  0  0  0  0  0  0  0  0  0
  191.2820  175.7770  144.6810 C   0  0  2  0  0  3  0  0  0  0  0  0
  193.6080  175.2190  145.4900 C   0  0  0  0  0  0  0  0  0  0  0  0
  194.9660  174.7240  145.1960 C   0  0  0  0  0  0  0  0  0  0  0  0
  189.3240  176.9620  145.6920 C   0  0  0  0  0  0  0  0  0  0  0  0
  189.0600  175.6060  143.6900 O   0  0  0  0  0  0  0  0  0  0  0  0
  197.5750  173.8680  144.6270 C   0  0  0  0  0  3  0  0  0  0  0  0
  187.1110  176.3230  144.9310 C   0  0  0  0  0  3  0  0  0  0  0  0
  190.4540  175.6800  143.3890 C   0  0  2  0  0  3  0  0  0  0  0  0
  190.8630  174.4660  142.5420 C   0  0  2  0  0  3  0  0  0  0  0  0
  193.1810  175.4350  142.9850 C   0  0  2  0  0  3  0  0  0  0  0  0
  197.0890  173.8070  145.9360 C   0  0  0  0  0  3  0  0  0  0  0  0
  187.3660  177.6730  146.9240 C   0  0  0  0  0  3  0  0  0  0  0  0
  188.4980  176.3050  144.7640 C   0  0  0  0  0  0  0  0  0  0  0  0
  195.7890  174.2360  146.2210 C   0  0  0  0  0  3  0  0  0  0  0  0
  188.7540  177.6540  146.7640 C   0  0  0  0  0  3  0  0  0  0  0  0
  192.3810  174.2120  142.5030 C   0  0  1  0  0  3  0  0  0  0  0  0
  194.6200  175.2420  142.8200 N   0  0  0  0  0  2  0  0  0  0  0  0
  190.8120  176.9770  145.5050 C   0  0  0  0  0  2  0  0  0  0  0  0
  193.1580  175.1440  146.6680 O   0  0  0  0  0  0  0  0  0  0  0  0
  196.7580  174.3510  143.6000 C   0  0  0  0  0  3  0  0  0  0  0  0
  192.7950  175.8990  144.4110 C   0  0  1  0  0  3  0  0  0  0  0  0
  195.4530  174.7690  143.8800 C   0  0  0  0  0  0  0  0  0  0  0  0
  189.7850  173.3940  140.9320 C   0  0  0  0  0  1  0  0  0  0  0  0
  190.3800  174.6190  141.2410 O   0  0  0  0  0  0  0  0  0  0  0  0
  191.5610  172.3920  143.8210 O   0  0  0  0  0  1  0  0  0  0  0  0
  192.7220  172.9510  143.2870 C   0  0  0  0  0  2  0  0  0  0  0  0
  185.1460  177.0030  146.1450 O   0  0  0  0  0  0  0  0  0  0  0  0
  184.3610  178.1830  146.0200 C   0  0  0  0  0  2  0  0  0  0  0  0
  184.5740  178.7820  144.6760 C   0  0  0  0  0  0  0  0  0  0  0  0
  184.1030  178.2200  143.6540 O   0  0  0  0  0  0  0  0  0  0  0  0
  185.3290  179.9400  144.5450 O   0  0  0  0  0  1  0  0  0  0  0  0
  1 28  1  0  0  0  0
  1 13  1  0  0  0  0
  2 19  1  6  0  0  0
  3 20  2  0  0  0  0
  4  3  1  0  0  0  0
  4 15  1  0  0  0  0
  5 16  1  0  0  0  0
  6 14  1  0  0  0  0
  7 12  1  0  0  0  0
  8  1  2  0  0  0  0
  9  6  1  1  0  0  0
  9  2  1  0  0  0  0
 10 25  1  6  0  0  0
 10  9  1  0  0  0  0
 11 18  1  1  0  0  0
 11 22  1  0  0  0  0
 12 15  2  0  0  0  0
 14  8  1  0  0  0  0
 14  5  2  0  0  0  0
 16 13  2  0  0  0  0
 17 10  1  0  0  0  0
 17 11  1  0  0  0  0
 17 27  1  1  0  0  0
 18 23  1  0  0  0  0
 19  5  1  0  0  0  0
 21 23  1  0  0  0  0
 21  7  2  0  0  0  0
 22  2  1  0  0  0  0
 22  3  1  1  0  0  0
 23  4  2  0  0  0  0
 24 25  1  0  0  0  0
 27 26  1  0  0  0  0
 29 28  1  0  0  0  0
 30 29  1  0  0  0  0
 31 30  2  0  0  0  0
 32 30  1  0  0  0  0
M  END
>  <MODEL>
4

>  <REMARK>
 VINA RESULT:      -7.4      2.904      5.226
  Name = 
  5 active torsions:
  status: ('A' for Active; 'I' for Inactive)
    1  A    between atoms: C_1  and  C_10
    2  A    between atoms: C_2  and  O_24
    3  A    between atoms: C_10  and  O_24
    4  A    between atoms: O_13  and  C_15
    5  A    between atoms: C_25  and  C_26
                            x       y       z     vdW  Elec       q    Type
                         _______ _______ _______ _____ _____    ______ ____

>  <TORSDO>
F 5

$$$$
=
 OpenBabel11052421393D

 32 36  0  0  1  0  0  0  0  0999 V2000
  184.4540  178.2690  142.8070 C   0  0  0  0  0  0  0  0  0  0  0  0
  189.2650  176.7050  143.2540 C   0  0  2  0  0  3  0  0  0  0  0  0
  191.3120  176.6130  144.7300 C   0  0  0  0  0  0  0  0  0  0  0  0
  192.6590  176.0740  144.9950 C   0  0  0  0  0  0  0  0  0  0  0  0
  187.2330  178.1620  143.1820 C   0  0  0  0  0  0  0  0  0  0  0  0
  187.3020  176.0630  141.9560 O   0  0  0  0  0  0  0  0  0  0  0  0
  195.2550  175.1210  145.4580 C   0  0  0  0  0  3  0  0  0  0  0  0
  185.1930  177.2000  142.2890 C   0  0  0  0  0  3  0  0  0  0  0  0
  188.7300  176.0330  141.9780 C   0  0  2  0  0  3  0  0  0  0  0  0
  189.2160  174.5810  141.8540 C   0  0  2  0  0  3  0  0  0  0  0  0
  191.4520  175.7040  142.3510 C   0  0  2  0  0  3  0  0  0  0  0  0
  194.4950  175.6260  146.5180 C   0  0  0  0  0  3  0  0  0  0  0  0
  185.1160  179.2900  143.5080 C   0  0  0  0  0  3  0  0  0  0  0  0
  186.5780  177.1460  142.4670 C   0  0  0  0  0  0  0  0  0  0  0  0
  193.2020  176.1030  146.2870 C   0  0  0  0  0  3  0  0  0  0  0  0
  186.5010  179.2380  143.6910 C   0  0  0  0  0  3  0  0  0  0  0  0
  190.6830  174.3740  142.2740 C   0  0  1  0  0  3  0  0  0  0  0  0
  192.8740  175.4940  142.6170 N   0  0  0  0  0  2  0  0  0  0  0  0
  188.7230  178.1320  143.3500 C   0  0  0  0  0  2  0  0  0  0  0  0
  190.6140  177.0490  145.6880 O   0  0  0  0  0  0  0  0  0  0  0  0
  194.7180  175.0870  144.1680 C   0  0  0  0  0  3  0  0  0  0  0  0
  190.8050  176.7340  143.3100 C   0  0  1  0  0  3  0  0  0  0  0  0
  193.4200  175.5520  143.9360 C   0  0  0  0  0  0  0  0  0  0  0  0
  188.8730  172.7560  140.6480 C   0  0  0  0  0  1  0  0  0  0  0  0
  189.0380  174.1390  140.5410 O   0  0  0  0  0  0  0  0  0  0  0  0
  189.4630  173.2440  143.9940 O   0  0  0  0  0  1  0  0  0  0  0  0
  190.7490  173.5910  143.5790 C   0  0  0  0  0  2  0  0  0  0  0  0
  183.0710  178.2920  142.6100 O   0  0  0  0  0  0  0  0  0  0  0  0
  182.4750  178.1250  141.3300 C   0  0  0  0  0  2  0  0  0  0  0  0
  181.0640  178.5930  141.3730 C   0  0  0  0  0  0  0  0  0  0  0  0
  180.6270  179.1790  142.3970 O   0  0  0  0  0  1  0  0  0  0  0  0
  180.2190  178.3460  140.3000 O   0  0  0  0  0  0  0  0  0  0  0  0
  1 13  1  0  0  0  0
  2 22  1  0  0  0  0
  2 19  1  6  0  0  0
  3  4  1  0  0  0  0
  3 20  2  0  0  0  0
  4 15  1  0  0  0  0
  5 19  1  0  0  0  0
  5 16  1  0  0  0  0
  6 14  1  0  0  0  0
  7 12  1  0  0  0  0
  8 14  1  0  0  0  0
  8  1  2  0  0  0  0
  9  6  1  1  0  0  0
  9  2  1  0  0  0  0
 10 25  1  6  0  0  0
 10  9  1  0  0  0  0
 10 17  1  0  0  0  0
 11 18  1  1  0  0  0
 11 22  1  0  0  0  0
 13 16  2  0  0  0  0
 14  5  2  0  0  0  0
 15 12  2  0  0  0  0
 17 11  1  0  0  0  0
 17 27  1  1  0  0  0
 18 23  1  0  0  0  0
 21  7  2  0  0  0  0
 22  3  1  1  0  0  0
 23 21  1  0  0  0  0
 23  4  2  0  0  0  0
 25 24  1  0  0  0  0
 27 26  1  0  0  0  0
 28  1  1  0  0  0  0
 29 30  1  0  0  0  0
 29 28  1  0  0  0  0
 30 31  1  0  0  0  0
 32 30  2  0  0  0  0
M  END
>  <MODEL>
5

>  <REMARK>
 VINA RESULT:      -7.2      2.193      3.507
  Name = 
  5 active torsions:
  status: ('A' for Active; 'I' for Inactive)
    1  A    between atoms: C_1  and  C_10
    2  A    between atoms: C_2  and  O_24
    3  A    between atoms: C_10  and  O_24
    4  A    between atoms: O_13  and  C_15
    5  A    between atoms: C_25  and  C_26
                            x       y       z     vdW  Elec       q    Type
                         _______ _______ _______ _____ _____    ______ ____

>  <TORSDO>
F 5

$$$$
=
 OpenBabel11052421393D

 32 36  0  0  1  0  0  0  0  0999 V2000
  195.3500  175.4030  144.6170 C   0  0  0  0  0  0  0  0  0  0  0  0
  190.3650  176.2050  145.1650 C   0  0  2  0  0  3  0  0  0  0  0  0
  188.5570  177.3040  146.5430 C   0  0  0  0  0  0  0  0  0  0  0  0
  187.1450  177.7000  146.6940 C   0  0  0  0  0  0  0  0  0  0  0  0
  192.7310  175.5290  145.6170 C   0  0  0  0  0  0  0  0  0  0  0  0
  191.8850  175.6480  143.3400 O   0  0  0  0  0  0  0  0  0  0  0  0
  184.4440  178.3770  147.0260 C   0  0  0  0  0  3  0  0  0  0  0  0
  194.2660  175.4910  143.7380 C   0  0  0  0  0  3  0  0  0  0  0  0
  190.5290  175.5560  143.7800 C   0  0  2  0  0  3  0  0  0  0  0  0
  189.6040  176.2020  142.7380 C   0  0  2  0  0  3  0  0  0  0  0  0
  187.8940  175.8060  144.5890 C   0  0  2  0  0  3  0  0  0  0  0  0
  185.4290  179.0520  147.7530 C   0  0  0  0  0  3  0  0  0  0  0  0
  195.1160  175.3710  146.0020 C   0  0  0  0  0  3  0  0  0  0  0  0
  192.9590  175.5450  144.2310 C   0  0  0  0  0  0  0  0  0  0  0  0
  186.7750  178.7130  147.5900 C   0  0  0  0  0  3  0  0  0  0  0  0
  193.8110  175.4300  146.4990 C   0  0  0  0  0  3  0  0  0  0  0  0
  188.1980  176.5350  143.2690 C   0  0  1  0  0  3  0  0  0  0  0  0
  186.5140  176.0160  145.0200 N   0  0  0  0  0  2  0  0  0  0  0  0
  191.3320  175.5540  146.1560 C   0  0  0  0  0  2  0  0  0  0  0  0
  189.4510  177.9260  147.1820 O   0  0  0  0  0  0  0  0  0  0  0  0
  184.8060  177.3680  146.1280 C   0  0  0  0  0  3  0  0  0  0  0  0
  188.9260  176.0990  145.7060 C   0  0  1  0  0  3  0  0  0  0  0  0
  186.1530  177.0350  145.9540 C   0  0  0  0  0  0  0  0  0  0  0  0
  188.2040  175.5710  141.1430 C   0  0  0  0  0  1  0  0  0  0  0  0
  189.4980  175.3660  141.6240 O   0  0  0  0  0  0  0  0  0  0  0  0
  186.9160  178.4600  142.6560 O   0  0  0  0  0  1  0  0  0  0  0  0
  188.0280  178.0450  143.3890 C   0  0  0  0  0  2  0  0  0  0  0  0
  196.6430  175.3490  144.0910 O   0  0  0  0  0  0  0  0  0  0  0  0
  197.1350  176.3070  143.1620 C   0  0  0  0  0  2  0  0  0  0  0  0
  197.2640  175.6780  141.8210 C   0  0  0  0  0  0  0  0  0  0  0  0
  197.9180  174.6110  141.6860 O   0  0  0  0  0  1  0  0  0  0  0  0
  196.6980  176.2900  140.7110 O   0  0  0  0  0  0  0  0  0  0  0  0
  1 13  1  0  0  0  0
  2 22  1  0  0  0  0
  2 19  1  1  0  0  0
  3  4  1  0  0  0  0
  3 20  2  0  0  0  0
  4 15  1  0  0  0  0
  5 19  1  0  0  0  0
  5 16  1  0  0  0  0
  6 14  1  0  0  0  0
  7 12  1  0  0  0  0
  8 14  1  0  0  0  0
  8  1  2  0  0  0  0
  9  6  1  6  0  0  0
  9  2  1  0  0  0  0
 10 25  1  6  0  0  0
 10 17  1  0  0  0  0
 10  9  1  0  0  0  0
 11 18  1  1  0  0  0
 11 22  1  0  0  0  0
 13 16  2  0  0  0  0
 14  5  2  0  0  0  0
 15 12  2  0  0  0  0
 17 27  1  1  0  0  0
 17 11  1  0  0  0  0
 18 23  1  0  0  0  0
 21  7  2  0  0  0  0
 22  3  1  6  0  0  0
 23 21  1  0  0  0  0
 23  4  2  0  0  0  0
 24 25  1  0  0  0  0
 26 27  1  0  0  0  0
 28  1  1  0  0  0  0
 29 28  1  0  0  0  0
 30 29  1  0  0  0  0
 31 30  1  0  0  0  0
 32 30  2  0  0  0  0
M  END
>  <MODEL>
6

>  <REMARK>
 VINA RESULT:      -7.2      3.143      9.071
  Name = 
  5 active torsions:
  status: ('A' for Active; 'I' for Inactive)
    1  A    between atoms: C_1  and  C_10
    2  A    between atoms: C_2  and  O_24
    3  A    between atoms: C_10  and  O_24
    4  A    between atoms: O_13  and  C_15
    5  A    between atoms: C_25  and  C_26
                            x       y       z     vdW  Elec       q    Type
                         _______ _______ _______ _____ _____    ______ ____

>  <TORSDO>
F 5

$$$$
=
 OpenBabel11052421393D

 32 36  0  0  1  0  0  0  0  0999 V2000
  196.3660  174.6290  144.8050 C   0  0  0  0  0  0  0  0  0  0  0  0
  191.5920  176.3470  145.0250 C   0  0  2  0  0  3  0  0  0  0  0  0
  189.4450  176.7420  143.7560 C   0  0  0  0  0  0  0  0  0  0  0  0
  188.0120  177.0890  143.7700 C   0  0  0  0  0  0  0  0  0  0  0  0
  193.9810  176.0370  144.3510 C   0  0  0  0  0  0  0  0  0  0  0  0
  193.2380  175.4680  146.5960 O   0  0  0  0  0  0  0  0  0  0  0  0
  185.3080  177.8330  143.7810 C   0  0  0  0  0  3  0  0  0  0  0  0
  195.3940  174.7060  145.8080 C   0  0  0  0  0  3  0  0  0  0  0  0
  192.0800  176.2970  146.4830 C   0  0  2  0  0  3  0  0  0  0  0  0
  190.9850  175.7860  147.4310 C   0  0  2  0  0  3  0  0  0  0  0  0
  189.6270  177.5390  146.1720 C   0  0  2  0  0  3  0  0  0  0  0  0
  185.8320  177.1190  142.7000 C   0  0  0  0  0  3  0  0  0  0  0  0
  196.1410  175.2690  143.5750 C   0  0  0  0  0  3  0  0  0  0  0  0
  194.2080  175.4130  145.5900 C   0  0  0  0  0  0  0  0  0  0  0  0
  187.1810  176.7500  142.6930 C   0  0  0  0  0  3  0  0  0  0  0  0
  194.9550  175.9730  143.3510 C   0  0  0  0  0  3  0  0  0  0  0  0
  189.5780  176.3210  147.1100 C   0  0  1  0  0  3  0  0  0  0  0  0
  188.3030  178.1280  145.9770 N   0  0  0  0  0  2  0  0  0  0  0  0
  192.7270  176.8260  144.1190 C   0  0  0  0  0  2  0  0  0  0  0  0
  189.9170  176.0780  142.7920 O   0  0  0  0  0  0  0  0  0  0  0  0
  186.1300  178.1720  144.8600 C   0  0  0  0  0  3  0  0  0  0  0  0
  190.3640  177.2610  144.8390 C   0  0  1  0  0  3  0  0  0  0  0  0
  187.4760  177.7930  144.8610 C   0  0  0  0  0  0  0  0  0  0  0  0
  191.5640  177.4810  148.7320 C   0  0  0  0  0  1  0  0  0  0  0  0
  191.3190  176.1070  148.7480 O   0  0  0  0  0  0  0  0  0  0  0  0
  189.4210  174.0040  146.5310 O   0  0  0  0  0  1  0  0  0  0  0  0
  188.7040  175.2010  146.5590 C   0  0  0  0  0  2  0  0  0  0  0  0
  197.5410  173.9160  145.0560 O   0  0  0  0  0  0  0  0  0  0  0  0
  197.9320  172.7850  144.2870 C   0  0  0  0  0  2  0  0  0  0  0  0
  197.3000  171.5610  144.8460 C   0  0  0  0  0  0  0  0  0  0  0  0
  196.9360  171.5350  146.0510 O   0  0  0  0  0  1  0  0  0  0  0  0
  197.1500  170.4330  144.0510 O   0  0  0  0  0  0  0  0  0  0  0  0
  1 28  1  0  0  0  0
  1  8  1  0  0  0  0
  2 19  1  6  0  0  0
  2  9  1  0  0  0  0
  3  4  1  0  0  0  0
  4 23  1  0  0  0  0
  5 14  1  0  0  0  0
  7 21  1  0  0  0  0
  9  6  1  6  0  0  0
  9 10  1  0  0  0  0
 10 25  1  1  0  0  0
 11 18  1  6  0  0  0
 11 17  1  0  0  0  0
 12  7  2  0  0  0  0
 13  1  2  0  0  0  0
 14  8  2  0  0  0  0
 14  6  1  0  0  0  0
 15 12  1  0  0  0  0
 15  4  2  0  0  0  0
 16 13  1  0  0  0  0
 16  5  2  0  0  0  0
 17 27  1  6  0  0  0
 17 10  1  0  0  0  0
 19  5  1  0  0  0  0
 20  3  2  0  0  0  0
 21 23  2  0  0  0  0
 22  3  1  6  0  0  0
 22  2  1  0  0  0  0
 22 11  1  0  0  0  0
 23 18  1  0  0  0  0
 24 25  1  0  0  0  0
 26 27  1  0  0  0  0
 29 30  1  0  0  0  0
 29 28  1  0  0  0  0
 30 31  1  0  0  0  0
 32 30  2  0  0  0  0
M  END
>  <MODEL>
7

>  <REMARK>
 VINA RESULT:      -7.0      3.638      9.475
  Name = 
  5 active torsions:
  status: ('A' for Active; 'I' for Inactive)
    1  A    between atoms: C_1  and  C_10
    2  A    between atoms: C_2  and  O_24
    3  A    between atoms: C_10  and  O_24
    4  A    between atoms: O_13  and  C_15
    5  A    between atoms: C_25  and  C_26
                            x       y       z     vdW  Elec       q    Type
                         _______ _______ _______ _____ _____    ______ ____

>  <TORSDO>
F 5

$$$$
=
 OpenBabel11052421393D

 32 36  0  0  1  0  0  0  0  0999 V2000
  182.6850  178.6610  142.6280 C   0  0  0  0  0  0  0  0  0  0  0  0
  187.4890  177.3660  143.6480 C   0  0  2  0  0  3  0  0  0  0  0  0
  189.2000  176.9080  145.4470 C   0  0  0  0  0  0  0  0  0  0  0  0
  190.5320  176.4030  145.8280 C   0  0  0  0  0  0  0  0  0  0  0  0
  185.3230  178.6190  143.5820 C   0  0  0  0  0  0  0  0  0  0  0  0
  185.9270  177.0820  141.7950 O   0  0  0  0  0  0  0  0  0  0  0  0
  193.0960  175.5260  146.5470 C   0  0  0  0  0  3  0  0  0  0  0  0
  183.6540  177.8890  141.9790 C   0  0  0  0  0  3  0  0  0  0  0  0
  187.3130  177.1430  142.1360 C   0  0  2  0  0  3  0  0  0  0  0  0
  188.0150  175.8600  141.6660 C   0  0  2  0  0  3  0  0  0  0  0  0
  189.9290  176.8890  143.0030 C   0  0  2  0  0  3  0  0  0  0  0  0
  192.0810  175.5800  147.5060 C   0  0  0  0  0  3  0  0  0  0  0  0
  183.0460  179.4190  143.7540 C   0  0  0  0  0  3  0  0  0  0  0  0
  184.9710  177.8710  142.4450 C   0  0  0  0  0  0  0  0  0  0  0  0
  190.8030  176.0190  147.1490 C   0  0  0  0  0  3  0  0  0  0  0  0
  184.3610  179.4000  144.2260 C   0  0  0  0  0  3  0  0  0  0  0  0
  189.3860  175.6200  142.3250 C   0  0  1  0  0  3  0  0  0  0  0  0
  191.2860  176.6970  143.5080 N   0  0  0  0  0  2  0  0  0  0  0  0
  186.7410  178.6320  144.0710 C   0  0  0  0  0  2  0  0  0  0  0  0
  188.2740  176.9370  146.3050 O   0  0  0  0  0  0  0  0  0  0  0  0
  192.8320  175.9030  145.2270 C   0  0  0  0  0  3  0  0  0  0  0  0
  188.9680  177.4780  144.0650 C   0  0  1  0  0  3  0  0  0  0  0  0
  191.5510  176.3320  144.8640 C   0  0  0  0  0  0  0  0  0  0  0  0
  188.1840  174.5460  139.8920 C   0  0  0  0  0  1  0  0  0  0  0  0
  188.1610  175.8880  140.2780 O   0  0  0  0  0  0  0  0  0  0  0  0
  190.2420  173.4680  142.9270 O   0  0  0  0  0  1  0  0  0  0  0  0
  189.3070  174.4400  143.2850 C   0  0  0  0  0  2  0  0  0  0  0  0
  181.3770  178.6580  142.1350 O   0  0  0  0  0  0  0  0  0  0  0  0
  181.0420  179.1530  140.8440 C   0  0  0  0  0  2  0  0  0  0  0  0
  179.6820  179.7520  140.8780 C   0  0  0  0  0  0  0  0  0  0  0  0
  178.8790  179.4360  141.7940 O   0  0  0  0  0  1  0  0  0  0  0  0
  179.2850  180.6280  139.8770 O   0  0  0  0  0  0  0  0  0  0  0  0
  1 13  1  0  0  0  0
  2 22  1  0  0  0  0
  2 19  1  6  0  0  0
  3  4  1  0  0  0  0
  3 20  2  0  0  0  0
  4 15  1  0  0  0  0
  5 19  1  0  0  0  0
  5 16  1  0  0  0  0
  6 14  1  0  0  0  0
  7 12  1  0  0  0  0
  8 14  1  0  0  0  0
  8  1  2  0  0  0  0
  9  6  1  1  0  0  0
  9  2  1  0  0  0  0
 10 25  1  6  0  0  0
 10  9  1  0  0  0  0
 10 17  1  0  0  0  0
 11 18  1  1  0  0  0
 11 22  1  0  0  0  0
 13 16  2  0  0  0  0
 14  5  2  0  0  0  0
 15 12  2  0  0  0  0
 17 11  1  0  0  0  0
 17 27  1  1  0  0  0
 18 23  1  0  0  0  0
 21  7  2  0  0  0  0
 22  3  1  1  0  0  0
 23 21  1  0  0  0  0
 23  4  2  0  0  0  0
 24 25  1  0  0  0  0
 26 27  1  0  0  0  0
 28  1  1  0  0  0  0
 29 30  1  0  0  0  0
 29 28  1  0  0  0  0
 30 31  1  0  0  0  0
 32 30  2  0  0  0  0
M  END
>  <MODEL>
8

>  <REMARK>
 VINA RESULT:      -6.8      1.895      3.580
  Name = 
  5 active torsions:
  status: ('A' for Active; 'I' for Inactive)
    1  A    between atoms: C_1  and  C_10
    2  A    between atoms: C_2  and  O_24
    3  A    between atoms: C_10  and  O_24
    4  A    between atoms: O_13  and  C_15
    5  A    between atoms: C_25  and  C_26
                            x       y       z     vdW  Elec       q    Type
                         _______ _______ _______ _____ _____    ______ ____

>  <TORSDO>
F 5

$$$$
=
 OpenBabel11052421393D

 32 36  0  0  1  0  0  0  0  0999 V2000
  186.7220  177.4890  141.8700 C   0  0  0  0  0  0  0  0  0  0  0  0
  191.0070  175.5810  143.8180 C   0  0  2  0  0  3  0  0  0  0  0  0
  193.3440  174.7570  143.3350 C   0  0  0  0  0  0  0  0  0  0  0  0
  194.6660  174.3350  143.8350 C   0  0  0  0  0  0  0  0  0  0  0  0
  188.9410  175.8670  142.4350 C   0  0  0  0  0  0  0  0  0  0  0  0
  189.1300  176.9150  144.6220 O   0  0  0  0  0  0  0  0  0  0  0  0
  197.1520  173.4480  144.7820 C   0  0  0  0  0  3  0  0  0  0  0  0
  187.3760  177.5970  143.1020 C   0  0  0  0  0  3  0  0  0  0  0  0
  190.1610  176.0130  145.0270 C   0  0  2  0  0  3  0  0  0  0  0  0
  191.0210  176.6700  146.1170 C   0  0  2  0  0  3  0  0  0  0  0  0
  192.4290  174.5820  145.7090 C   0  0  2  0  0  3  0  0  0  0  0  0
  197.0290  173.9110  143.4690 C   0  0  0  0  0  3  0  0  0  0  0  0
  187.1810  176.5570  140.9240 C   0  0  0  0  0  3  0  0  0  0  0  0
  188.4770  176.7860  143.3920 C   0  0  0  0  0  0  0  0  0  0  0  0
  195.7890  174.3510  142.9960 C   0  0  0  0  0  3  0  0  0  0  0  0
  188.2840  175.7470  141.2080 C   0  0  0  0  0  3  0  0  0  0  0  0
  192.3830  175.9860  146.3360 C   0  0  1  0  0  3  0  0  0  0  0  0
  193.6700  173.8830  146.0350 N   0  0  0  0  0  2  0  0  0  0  0  0
  190.1010  174.9690  142.7480 C   0  0  0  0  0  2  0  0  0  0  0  0
  193.2340  175.1960  142.1570 O   0  0  0  0  0  0  0  0  0  0  0  0
  196.0380  173.4330  145.6260 C   0  0  0  0  0  3  0  0  0  0  0  0
  192.1120  174.5740  144.1940 C   0  0  1  0  0  3  0  0  0  0  0  0
  194.7990  173.8840  145.1590 C   0  0  0  0  0  0  0  0  0  0  0  0
  191.2420  177.1130  148.2750 C   0  0  0  0  0  1  0  0  0  0  0  0
  190.3120  176.6990  147.3190 O   0  0  0  0  0  0  0  0  0  0  0  0
  194.4290  177.1140  146.8540 O   0  0  0  0  0  1  0  0  0  0  0  0
  193.5070  176.8820  145.8320 C   0  0  0  0  0  2  0  0  0  0  0  0
  185.6240  178.3140  141.6140 O   0  0  0  0  0  0  0  0  0  0  0  0
  184.4440  178.2900  142.4070 C   0  0  0  0  0  2  0  0  0  0  0  0
  183.2490  178.2740  141.5220 C   0  0  0  0  0  0  0  0  0  0  0  0
  182.1080  178.4950  142.0020 O   0  0  0  0  0  1  0  0  0  0  0  0
  183.3900  177.9750  140.1740 O   0  0  0  0  0  0  0  0  0  0  0  0
  1  8  1  0  0  0  0
  2 19  1  6  0  0  0
  2 22  1  0  0  0  0
  2  9  1  0  0  0  0
  3  4  1  0  0  0  0
  4 23  1  0  0  0  0
  5 19  1  0  0  0  0
  5 14  1  0  0  0  0
  7 21  1  0  0  0  0
  8 14  2  0  0  0  0
  9  6  1  6  0  0  0
  9 10  1  0  0  0  0
 10 17  1  0  0  0  0
 10 25  1  1  0  0  0
 11 18  1  6  0  0  0
 11 17  1  0  0  0  0
 12  7  2  0  0  0  0
 13 16  1  0  0  0  0
 13  1  2  0  0  0  0
 14  6  1  0  0  0  0
 15 12  1  0  0  0  0
 15  4  2  0  0  0  0
 16  5  2  0  0  0  0
 17 27  1  6  0  0  0
 20  3  2  0  0  0  0
 22  3  1  6  0  0  0
 22 11  1  0  0  0  0
 23 21  2  0  0  0  0
 23 18  1  0  0  0  0
 25 24  1  0  0  0  0
 27 26  1  0  0  0  0
 28  1  1  0  0  0  0
 28 29  1  0  0  0  0
 30 31  1  0  0  0  0
 30 29  1  0  0  0  0
 32 30  2  0  0  0  0
M  END
>  <MODEL>
9

>  <REMARK>
 VINA RESULT:      -6.7      2.189      3.343
  Name = 
  5 active torsions:
  status: ('A' for Active; 'I' for Inactive)
    1  A    between atoms: C_1  and  C_10
    2  A    between atoms: C_2  and  O_24
    3  A    between atoms: C_10  and  O_24
    4  A    between atoms: O_13  and  C_15
    5  A    between atoms: C_25  and  C_26
                            x       y       z     vdW  Elec       q    Type
                         _______ _______ _______ _____ _____    ______ ____

>  <TORSDO>
F 5

$$$$
