=
 OpenBabel11052417593D

 31 33  0  0  1  0  0  0  0  0999 V2000
  189.7500  171.2510  138.9280 C   0  0  0  0  0  0  0  0  0  0  0  0
  189.8910  173.6130  141.8150 O   0  0  0  0  0  0  0  0  0  0  0  0
  189.5860  173.0420  140.5780 C   0  0  0  0  0  0  0  0  0  0  0  0
  188.9590  171.8790  138.0510 C   0  0  0  0  0  3  0  0  0  0  0  0
  188.5510  175.5190  141.3180 C   0  0  0  0  0  0  0  0  0  0  0  0
  190.4000  169.6780  138.5240 Cl  0  0  0  0  0  0  0  0  0  0  0  0
  188.2340  174.9390  140.0380 N   0  0  0  0  0  0  0  0  0  0  0  0
  189.3500  174.8570  142.1820 C   0  0  0  0  0  0  0  0  0  0  0  0
  190.0780  171.8550  140.2320 C   0  0  0  0  0  3  0  0  0  0  0  0
  188.7000  173.7850  139.6640 C   0  0  0  0  0  0  0  0  0  0  0  0
  188.3550  173.2370  138.3090 C   0  0  0  0  0  2  0  0  0  0  0  0
  189.7000  175.4330  143.5210 C   0  0  1  0  0  3  0  0  0  0  0  0
  190.4290  174.9080  146.1990 S   0  0  0  0  0  0  0  0  0  0  0  0
  189.6610  174.3670  144.6240 C   0  0  0  0  0  2  0  0  0  0  0  0
  190.3140  176.6910  145.8540 C   0  0  0  0  0  2  0  0  0  0  0  0
  190.8710  178.4900  144.2270 C   0  0  0  0  0  1  0  0  0  0  0  0
  190.9750  176.1690  143.4650 N   0  0  0  0  0  0  0  0  0  0  0  0
  191.1580  177.0570  144.6280 C   0  0  2  0  0  3  0  0  0  0  0  0
  192.0090  175.2860  143.4510 O   0  0  0  0  0  0  0  0  0  0  0  0
  192.9220  175.8150  142.5370 C   0  0  0  0  0  1  0  0  0  0  0  0
  187.9480  176.8430  141.6660 C   0  0  0  0  0  2  0  0  0  0  0  0
  186.5100  176.8040  141.4490 N   0  0  0  0  0  0  0  0  0  0  0  0
  184.6910  178.1730  140.5930 C   0  0  0  0  0  1  0  0  0  0  0  0
  186.1820  177.8960  140.5460 C   0  0  0  0  0  2  0  0  0  0  0  0
  185.8880  177.1130  142.7260 C   0  0  0  0  0  2  0  0  0  0  0  0
  186.8580  177.9030  143.5800 C   0  0  0  0  0  2  0  0  0  0  0  0
  186.0900  178.8760  144.4470 C   0  0  0  0  0  2  0  0  0  0  0  0
  184.7430  178.2790  144.8020 C   0  0  0  0  0  2  0  0  0  0  0  0
  184.7740  177.7470  146.1910 C   0  0  0  0  0  0  0  0  0  0  0  0
  184.0920  178.3040  147.0910 O   0  0  0  0  0  1  0  0  0  0  0  0
  185.5430  176.6310  146.4950 O   0  0  0  0  0  0  0  0  0  0  0  0
  1  9  1  0  0  0  0
  2  8  1  0  0  0  0
  3  2  1  0  0  0  0
  4 11  1  0  0  0  0
  4  1  2  0  0  0  0
  5 21  1  0  0  0  0
  5  8  2  0  0  0  0
  6  1  1  0  0  0  0
  7  5  1  0  0  0  0
  9  3  2  0  0  0  0
 10  7  2  0  0  0  0
 10  3  1  0  0  0  0
 11 10  1  0  0  0  0
 12  8  1  6  0  0  0
 12 14  1  0  0  0  0
 14 13  1  0  0  0  0
 15 13  1  0  0  0  0
 17 12  1  0  0  0  0
 17 18  1  0  0  0  0
 18 16  1  6  0  0  0
 18 15  1  0  0  0  0
 19 17  1  0  0  0  0
 20 19  1  0  0  0  0
 22 21  1  0  0  0  0
 22 25  1  0  0  0  0
 24 23  1  0  0  0  0
 24 22  1  0  0  0  0
 25 26  1  0  0  0  0
 26 27  1  0  0  0  0
 27 28  1  0  0  0  0
 28 29  1  0  0  0  0
 29 31  2  0  0  0  0
 29 30  1  0  0  0  0
M  END
>  <MODEL>
1

>  <REMARK>
 VINA RESULT:      -5.9      0.000      0.000
  Name = 
  10 active torsions:
  status: ('A' for Active; 'I' for Inactive)
    1  A    between atoms: C_1  and  C_24
    2  A    between atoms: C_5  and  C_21
    3  A    between atoms: C_6  and  C_7
    4  A    between atoms: C_6  and  C_19
    5  A    between atoms: C_7  and  N_9
    6  A    between atoms: N_9  and  C_22
    7  A    between atoms: N_9  and  C_23
    8  A    between atoms: C_15  and  C_23
    9  A    between atoms: O_17  and  N_30
   10  A    between atoms: C_19  and  C_24
                            x       y       z     vdW  Elec       q    Type
                         _______ _______ _______ _____ _____    ______ ____

>  <TORSDO>
F 10

$$$$
=
 OpenBabel11052417593D

 31 33  0  0  1  0  0  0  0  0999 V2000
  185.0810  178.0020  142.4830 C   0  0  0  0  0  0  0  0  0  0  0  0
  187.8710  175.5400  142.1930 O   0  0  0  0  0  0  0  0  0  0  0  0
  187.1200  176.6630  142.5460 C   0  0  1  0  0  3  0  0  0  0  0  0
  185.5900  178.9570  143.2700 C   0  0  0  0  0  3  0  0  0  0  0  0
  189.7230  176.3180  143.4730 C   0  0  0  0  0  0  0  0  0  0  0  0
  183.4390  178.1560  141.8990 Cl  0  0  0  0  0  0  0  0  0  0  0  0
  188.9560  177.4810  143.8400 N   0  0  0  0  0  0  0  0  0  0  0  0
  189.1780  175.3710  142.6800 C   0  0  0  0  0  0  0  0  0  0  0  0
  185.8740  176.8190  142.1050 C   0  0  0  0  0  3  0  0  0  0  0  0
  187.7390  177.6710  143.4240 C   0  0  0  0  0  0  0  0  0  0  0  0
  186.9940  178.9130  143.8180 C   0  0  0  0  0  3  0  0  0  0  0  0
  189.9490  174.1490  142.2800 C   0  0  1  0  0  3  0  0  0  0  0  0
  190.1200  171.3310  142.3750 S   0  0  0  0  0  0  0  0  0  0  0  0
  189.4930  172.9100  143.0640 C   0  0  0  0  0  2  0  0  0  0  0  0
  191.4950  172.0730  141.4420 C   0  0  0  0  0  2  0  0  0  0  0  0
  192.1150  173.7920  139.7520 C   0  0  0  0  0  1  0  0  0  0  0  0
  189.9220  173.9580  140.8200 N   0  0  0  0  0  0  0  0  0  0  0  0
  190.9620  173.0200  140.3610 C   0  0  2  0  0  3  0  0  0  0  0  0
  188.7150  173.4540  140.4500 O   0  0  0  0  0  0  0  0  0  0  0  0
  188.5290  173.8920  139.1370 C   0  0  0  0  0  1  0  0  0  0  0  0
  191.1080  176.1800  144.0200 C   0  0  0  0  0  2  0  0  0  0  0  0
  191.0850  176.3250  145.4680 N   0  0  0  0  0  0  0  0  0  0  0  0
  193.3570  176.8140  144.7500 C   0  0  0  0  0  1  0  0  0  0  0  0
  192.4670  176.4170  145.9130 C   0  0  0  0  0  2  0  0  0  0  0  0
  190.5530  175.0820  146.0010 C   0  0  0  0  0  2  0  0  0  0  0  0
  189.7160  175.3780  147.2280 C   0  0  0  0  0  2  0  0  0  0  0  0
  188.2760  175.5900  146.8160 C   0  0  0  0  0  2  0  0  0  0  0  0
  187.8770  177.0240  147.1010 C   0  0  0  0  0  2  0  0  0  0  0  0
  186.3950  177.1530  147.0790 C   0  0  0  0  0  0  0  0  0  0  0  0
  185.8110  177.8220  147.9720 O   0  0  0  0  0  1  0  0  0  0  0  0
  185.6550  176.5470  146.0730 O   0  0  0  0  0  0  0  0  0  0  0  0
  1  4  1  0  0  0  0
  2  3  1  0  0  0  0
  2  8  1  0  0  0  0
  3  9  1  1  0  0  0
  3 10  1  0  0  0  0
  4 11  2  0  0  0  0
  5  7  1  0  0  0  0
  5 21  1  0  0  0  0
  6  1  1  0  0  0  0
  8  5  2  0  0  0  0
  9  1  2  0  0  0  0
 10 11  1  0  0  0  0
 10  7  2  0  0  0  0
 12  8  1  6  0  0  0
 12 14  1  0  0  0  0
 13 14  1  0  0  0  0
 15 13  1  0  0  0  0
 17 12  1  0  0  0  0
 18 16  1  1  0  0  0
 18 17  1  0  0  0  0
 18 15  1  0  0  0  0
 19 17  1  0  0  0  0
 20 19  1  0  0  0  0
 21 22  1  0  0  0  0
 22 24  1  0  0  0  0
 22 25  1  0  0  0  0
 23 24  1  0  0  0  0
 25 26  1  0  0  0  0
 27 28  1  0  0  0  0
 27 26  1  0  0  0  0
 29 28  1  0  0  0  0
 29 30  1  0  0  0  0
 31 29  2  0  0  0  0
M  END
>  <MODEL>
2

>  <REMARK>
 VINA RESULT:      -5.8      2.919      5.834
  Name = 
  10 active torsions:
  status: ('A' for Active; 'I' for Inactive)
    1  A    between atoms: C_1  and  C_24
    2  A    between atoms: C_5  and  C_21
    3  A    between atoms: C_6  and  C_7
    4  A    between atoms: C_6  and  C_19
    5  A    between atoms: C_7  and  N_9
    6  A    between atoms: N_9  and  C_22
    7  A    between atoms: N_9  and  C_23
    8  A    between atoms: C_15  and  C_23
    9  A    between atoms: O_17  and  N_30
   10  A    between atoms: C_19  and  C_24
                            x       y       z     vdW  Elec       q    Type
                         _______ _______ _______ _____ _____    ______ ____

>  <TORSDO>
F 10

$$$$
=
 OpenBabel11052417593D

 31 33  0  0  1  0  0  0  0  0999 V2000
  196.1830  173.3990  144.9520 C   0  0  0  0  0  0  0  0  0  0  0  0
  193.0400  173.7690  142.9740 O   0  0  0  0  0  0  0  0  0  0  0  0
  194.0340  173.9520  143.9370 C   0  0  1  0  0  3  0  0  0  0  0  0
  196.0630  174.3320  145.9040 C   0  0  0  0  0  3  0  0  0  0  0  0
  191.7410  175.5310  143.9120 C   0  0  0  0  0  0  0  0  0  0  0  0
  197.6190  172.4010  144.9050 Cl  0  0  0  0  0  0  0  0  0  0  0  0
  192.7600  175.7250  144.9110 N   0  0  0  0  0  0  0  0  0  0  0  0
  191.8940  174.5820  142.9640 C   0  0  0  0  0  0  0  0  0  0  0  0
  195.1310  173.1990  143.9390 C   0  0  0  0  0  3  0  0  0  0  0  0
  193.8420  175.0050  144.9490 C   0  0  0  0  0  0  0  0  0  0  0  0
  194.8620  175.2350  146.0260 C   0  0  0  0  0  3  0  0  0  0  0  0
  190.8520  174.3550  141.9110 C   0  0  1  0  0  3  0  0  0  0  0  0
  190.1780  173.0420  139.5020 S   0  0  0  0  0  0  0  0  0  0  0  0
  191.4430  173.6820  140.6640 C   0  0  0  0  0  2  0  0  0  0  0  0
  188.8180  174.0790  140.1240 C   0  0  0  0  0  2  0  0  0  0  0  0
  187.5360  174.7570  142.1460 C   0  0  0  0  0  1  0  0  0  0  0  0
  189.6870  173.6400  142.4620 N   0  0  0  0  0  0  0  0  0  0  0  0
  188.5060  173.7380  141.5860 C   0  0  2  0  0  3  0  0  0  0  0  0
  189.9900  172.3220  142.6060 O   0  0  0  0  0  0  0  0  0  0  0  0
  189.4320  171.9560  143.8330 C   0  0  0  0  0  1  0  0  0  0  0  0
  190.5410  176.4250  143.9400 C   0  0  0  0  0  2  0  0  0  0  0  0
  190.0130  176.5020  145.2940 N   0  0  0  0  0  0  0  0  0  0  0  0
  189.4960  174.6940  146.8350 C   0  0  0  0  0  1  0  0  0  0  0  0
  189.1750  175.3310  145.4960 C   0  0  0  0  0  2  0  0  0  0  0  0
  189.1350  177.6600  145.3310 C   0  0  0  0  0  2  0  0  0  0  0  0
  187.7020  177.2110  145.1370 C   0  0  0  0  0  2  0  0  0  0  0  0
  186.8050  177.9540  146.1020 C   0  0  0  0  0  2  0  0  0  0  0  0
  185.9730  178.9660  145.3390 C   0  0  0  0  0  2  0  0  0  0  0  0
  184.5300  178.6260  145.4510 C   0  0  0  0  0  0  0  0  0  0  0  0
  183.7200  179.0340  144.5780 O   0  0  0  0  0  0  0  0  0  0  0  0
  184.0750  177.8510  146.5100 O   0  0  0  0  0  1  0  0  0  0  0  0
  1  4  1  0  0  0  0
  2  3  1  0  0  0  0
  3  9  1  6  0  0  0
  3 10  1  0  0  0  0
  4 11  2  0  0  0  0
  5 21  1  0  0  0  0
  5  7  1  0  0  0  0
  6  1  1  0  0  0  0
  7 10  2  0  0  0  0
  8  2  1  0  0  0  0
  8  5  2  0  0  0  0
  9  1  2  0  0  0  0
 10 11  1  0  0  0  0
 12 17  1  0  0  0  0
 12  8  1  1  0  0  0
 13 15  1  0  0  0  0
 13 14  1  0  0  0  0
 14 12  1  0  0  0  0
 15 18  1  0  0  0  0
 17 19  1  0  0  0  0
 18 16  1  1  0  0  0
 18 17  1  0  0  0  0
 19 20  1  0  0  0  0
 21 22  1  0  0  0  0
 22 25  1  0  0  0  0
 22 24  1  0  0  0  0
 24 23  1  0  0  0  0
 26 25  1  0  0  0  0
 26 27  1  0  0  0  0
 28 29  1  0  0  0  0
 28 27  1  0  0  0  0
 29 31  1  0  0  0  0
 30 29  2  0  0  0  0
M  END
>  <MODEL>
3

>  <REMARK>
 VINA RESULT:      -5.7      3.184      5.768
  Name = 
  10 active torsions:
  status: ('A' for Active; 'I' for Inactive)
    1  A    between atoms: C_1  and  C_24
    2  A    between atoms: C_5  and  C_21
    3  A    between atoms: C_6  and  C_7
    4  A    between atoms: C_6  and  C_19
    5  A    between atoms: C_7  and  N_9
    6  A    between atoms: N_9  and  C_22
    7  A    between atoms: N_9  and  C_23
    8  A    between atoms: C_15  and  C_23
    9  A    between atoms: O_17  and  N_30
   10  A    between atoms: C_19  and  C_24
                            x       y       z     vdW  Elec       q    Type
                         _______ _______ _______ _____ _____    ______ ____

>  <TORSDO>
F 10

$$$$
=
 OpenBabel11052417593D

 31 33  0  0  1  0  0  0  0  0999 V2000
  195.2580  174.6640  145.6090 C   0  0  0  0  0  0  0  0  0  0  0  0
  192.5730  174.1470  143.0690 O   0  0  0  0  0  0  0  0  0  0  0  0
  193.3450  174.6950  144.0950 C   0  0  1  0  0  3  0  0  0  0  0  0
  194.9200  175.8210  146.1890 C   0  0  0  0  0  3  0  0  0  0  0  0
  191.0570  175.9810  143.1650 C   0  0  0  0  0  0  0  0  0  0  0  0
  196.7050  173.8320  146.1360 Cl  0  0  0  0  0  0  0  0  0  0  0  0
  191.8460  176.5530  144.2260 N   0  0  0  0  0  0  0  0  0  0  0  0
  191.4290  174.8130  142.5990 C   0  0  0  0  0  0  0  0  0  0  0  0
  194.4420  174.0790  144.5300 C   0  0  0  0  0  3  0  0  0  0  0  0
  192.9190  175.9780  144.6810 C   0  0  0  0  0  0  0  0  0  0  0  0
  193.6910  176.6070  145.8050 C   0  0  0  0  0  3  0  0  0  0  0  0
  190.6300  174.1910  141.4940 C   0  0  1  0  0  3  0  0  0  0  0  0
  190.6840  172.8820  138.9910 S   0  0  0  0  0  0  0  0  0  0  0  0
  191.4830  173.9640  140.2370 C   0  0  0  0  0  2  0  0  0  0  0  0
  188.9890  173.1090  139.6120 C   0  0  0  0  0  2  0  0  0  0  0  0
  187.5180  172.9610  141.6150 C   0  0  0  0  0  1  0  0  0  0  0  0
  189.9390  172.9750  141.9570 N   0  0  0  0  0  0  0  0  0  0  0  0
  188.8620  172.5620  141.0390 C   0  0  2  0  0  3  0  0  0  0  0  0
  190.8290  171.9510  142.0400 O   0  0  0  0  0  0  0  0  0  0  0  0
  190.4890  171.2730  143.2130 C   0  0  0  0  0  1  0  0  0  0  0  0
  189.8500  176.7300  142.6950 C   0  0  0  0  0  2  0  0  0  0  0  0
  188.7320  176.4780  143.5920 N   0  0  0  0  0  0  0  0  0  0  0  0
  187.8780  176.7140  141.3270 C   0  0  0  0  0  1  0  0  0  0  0  0
  187.5230  176.4770  142.7830 C   0  0  0  0  0  2  0  0  0  0  0  0
  188.6440  177.6260  144.4790 C   0  0  0  0  0  2  0  0  0  0  0  0
  187.7060  177.3070  145.6240 C   0  0  0  0  0  2  0  0  0  0  0  0
  188.5140  176.9460  146.8520 C   0  0  0  0  0  2  0  0  0  0  0  0
  188.4690  175.4460  147.0610 C   0  0  0  0  0  2  0  0  0  0  0  0
  189.8040  174.8530  146.7800 C   0  0  0  0  0  0  0  0  0  0  0  0
  189.9420  174.0440  145.8260 O   0  0  0  0  0  0  0  0  0  0  0  0
  190.9000  175.1980  147.5600 O   0  0  0  0  0  1  0  0  0  0  0  0
  1  6  1  0  0  0  0
  1  4  1  0  0  0  0
  2  3  1  0  0  0  0
  3  9  1  6  0  0  0
  3 10  1  0  0  0  0
  5  7  1  0  0  0  0
  7 10  2  0  0  0  0
  8  2  1  0  0  0  0
  8  5  2  0  0  0  0
  9  1  2  0  0  0  0
 10 11  1  0  0  0  0
 11  4  2  0  0  0  0
 12 17  1  0  0  0  0
 12  8  1  1  0  0  0
 13 15  1  0  0  0  0
 13 14  1  0  0  0  0
 14 12  1  0  0  0  0
 15 18  1  0  0  0  0
 17 19  1  0  0  0  0
 18 16  1  1  0  0  0
 18 17  1  0  0  0  0
 19 20  1  0  0  0  0
 21  5  1  0  0  0  0
 21 22  1  0  0  0  0
 22 25  1  0  0  0  0
 23 24  1  0  0  0  0
 24 22  1  0  0  0  0
 25 26  1  0  0  0  0
 26 27  1  0  0  0  0
 27 28  1  0  0  0  0
 29 28  1  0  0  0  0
 29 31  1  0  0  0  0
 30 29  2  0  0  0  0
M  END
>  <MODEL>
4

>  <REMARK>
 VINA RESULT:      -5.6      3.462      5.920
  Name = 
  10 active torsions:
  status: ('A' for Active; 'I' for Inactive)
    1  A    between atoms: C_1  and  C_24
    2  A    between atoms: C_5  and  C_21
    3  A    between atoms: C_6  and  C_7
    4  A    between atoms: C_6  and  C_19
    5  A    between atoms: C_7  and  N_9
    6  A    between atoms: N_9  and  C_22
    7  A    between atoms: N_9  and  C_23
    8  A    between atoms: C_15  and  C_23
    9  A    between atoms: O_17  and  N_30
   10  A    between atoms: C_19  and  C_24
                            x       y       z     vdW  Elec       q    Type
                         _______ _______ _______ _____ _____    ______ ____

>  <TORSDO>
F 10

$$$$
=
 OpenBabel11052417593D

 31 33  0  0  1  0  0  0  0  0999 V2000
  189.7390  173.4210  139.3670 C   0  0  0  0  0  0  0  0  0  0  0  0
  191.9210  174.0030  142.3390 O   0  0  0  0  0  0  0  0  0  0  0  0
  190.7980  173.8390  141.5250 C   0  0  0  0  0  0  0  0  0  0  0  0
  188.5010  173.5040  139.8690 C   0  0  0  0  0  3  0  0  0  0  0  0
  190.5440  174.3280  144.2550 C   0  0  0  0  0  0  0  0  0  0  0  0
  189.9520  173.0840  137.6630 Cl  0  0  0  0  0  0  0  0  0  0  0  0
  189.3800  174.1640  143.4230 N   0  0  0  0  0  0  0  0  0  0  0  0
  191.7800  174.2340  143.7170 C   0  0  0  0  0  0  0  0  0  0  0  0
  190.9260  173.5990  140.2220 C   0  0  0  0  0  3  0  0  0  0  0  0
  189.4650  173.9340  142.1460 C   0  0  0  0  0  0  0  0  0  0  0  0
  188.2180  173.7930  141.3220 C   0  0  0  0  0  2  0  0  0  0  0  0
  193.0110  174.4010  144.5550 C   0  0  1  0  0  3  0  0  0  0  0  0
  195.4700  173.2840  145.3850 S   0  0  0  0  0  0  0  0  0  0  0  0
  193.7820  173.0810  144.6970 C   0  0  0  0  0  2  0  0  0  0  0  0
  195.1640  174.9120  146.1380 C   0  0  0  0  0  2  0  0  0  0  0  0
  194.3680  177.2320  145.7180 C   0  0  0  0  0  1  0  0  0  0  0  0
  193.8430  175.5120  144.0620 N   0  0  0  0  0  0  0  0  0  0  0  0
  194.8360  175.9510  145.0590 C   0  0  2  0  0  3  0  0  0  0  0  0
  194.5180  175.1160  142.9510 O   0  0  0  0  0  0  0  0  0  0  0  0
  194.6500  176.2720  142.1780 C   0  0  0  0  0  1  0  0  0  0  0  0
  190.3430  174.5680  145.7180 C   0  0  0  0  0  2  0  0  0  0  0  0
  189.7520  175.8810  145.9260 N   0  0  0  0  0  0  0  0  0  0  0  0
  191.2380  175.6640  147.8390 C   0  0  0  0  0  1  0  0  0  0  0  0
  190.6340  176.6130  146.8210 C   0  0  0  0  0  2  0  0  0  0  0  0
  188.5070  175.6660  146.6460 C   0  0  0  0  0  2  0  0  0  0  0  0
  187.4570  176.6310  146.1340 C   0  0  0  0  0  2  0  0  0  0  0  0
  186.5220  177.0040  147.2630 C   0  0  0  0  0  2  0  0  0  0  0  0
  186.2360  178.4910  147.2100 C   0  0  0  0  0  2  0  0  0  0  0  0
  185.3030  178.7890  146.0900 C   0  0  0  0  0  0  0  0  0  0  0  0
  184.1100  178.3910  146.1450 O   0  0  0  0  0  1  0  0  0  0  0  0
  185.7410  179.5140  144.9900 O   0  0  0  0  0  0  0  0  0  0  0  0
  1  4  2  0  0  0  0
  1  9  1  0  0  0  0
  2  8  1  0  0  0  0
  3 10  1  0  0  0  0
  3  2  1  0  0  0  0
  4 11  1  0  0  0  0
  5 21  1  0  0  0  0
  6  1  1  0  0  0  0
  7  5  1  0  0  0  0
  8  5  2  0  0  0  0
  9  3  2  0  0  0  0
 10  7  2  0  0  0  0
 11 10  1  0  0  0  0
 12  8  1  6  0  0  0
 12 14  1  0  0  0  0
 13 15  1  0  0  0  0
 14 13  1  0  0  0  0
 17 12  1  0  0  0  0
 17 18  1  0  0  0  0
 18 16  1  1  0  0  0
 18 15  1  0  0  0  0
 19 17  1  0  0  0  0
 20 19  1  0  0  0  0
 21 22  1  0  0  0  0
 22 25  1  0  0  0  0
 22 24  1  0  0  0  0
 24 23  1  0  0  0  0
 26 25  1  0  0  0  0
 26 27  1  0  0  0  0
 28 27  1  0  0  0  0
 29 30  1  0  0  0  0
 29 28  1  0  0  0  0
 31 29  2  0  0  0  0
M  END
>  <MODEL>
5

>  <REMARK>
 VINA RESULT:      -5.5      2.725      4.059
  Name = 
  10 active torsions:
  status: ('A' for Active; 'I' for Inactive)
    1  A    between atoms: C_1  and  C_24
    2  A    between atoms: C_5  and  C_21
    3  A    between atoms: C_6  and  C_7
    4  A    between atoms: C_6  and  C_19
    5  A    between atoms: C_7  and  N_9
    6  A    between atoms: N_9  and  C_22
    7  A    between atoms: N_9  and  C_23
    8  A    between atoms: C_15  and  C_23
    9  A    between atoms: O_17  and  N_30
   10  A    between atoms: C_19  and  C_24
                            x       y       z     vdW  Elec       q    Type
                         _______ _______ _______ _____ _____    ______ ____

>  <TORSDO>
F 10

$$$$
=
 OpenBabel11052417593D

 31 33  0  0  1  0  0  0  0  0999 V2000
  185.7220  177.6140  143.1260 C   0  0  0  0  0  0  0  0  0  0  0  0
  188.3010  175.1540  142.0210 O   0  0  0  0  0  0  0  0  0  0  0  0
  187.6570  176.1920  142.6970 C   0  0  1  0  0  3  0  0  0  0  0  0
  186.3450  178.3110  144.0840 C   0  0  0  0  0  3  0  0  0  0  0  0
  190.2790  175.4800  143.3070 C   0  0  0  0  0  0  0  0  0  0  0  0
  184.0620  178.0010  142.7270 Cl  0  0  0  0  0  0  0  0  0  0  0  0
  189.6240  176.5540  144.0080 N   0  0  0  0  0  0  0  0  0  0  0  0
  189.6190  174.7950  142.3490 C   0  0  0  0  0  0  0  0  0  0  0  0
  186.4010  176.5220  142.4060 C   0  0  0  0  0  3  0  0  0  0  0  0
  188.4010  176.9090  143.7470 C   0  0  0  0  0  0  0  0  0  0  0  0
  187.7740  178.0520  144.4930 C   0  0  0  0  0  3  0  0  0  0  0  0
  190.2740  173.6730  141.6010 C   0  0  1  0  0  3  0  0  0  0  0  0
  190.4640  170.8790  141.2310 S   0  0  0  0  0  0  0  0  0  0  0  0
  190.0190  172.3180  142.2760 C   0  0  0  0  0  2  0  0  0  0  0  0
  191.5760  171.7970  140.1210 C   0  0  0  0  0  2  0  0  0  0  0  0
  191.7730  173.7630  138.6080 C   0  0  0  0  0  1  0  0  0  0  0  0
  189.8980  173.6940  140.1760 N   0  0  0  0  0  0  0  0  0  0  0  0
  190.7990  172.8700  139.3500 C   0  0  2  0  0  3  0  0  0  0  0  0
  188.6380  173.2050  140.0310 O   0  0  0  0  0  0  0  0  0  0  0  0
  188.2130  173.6690  138.7840 C   0  0  0  0  0  1  0  0  0  0  0  0
  191.6820  175.1320  143.6940 C   0  0  0  0  0  2  0  0  0  0  0  0
  192.2140  176.1480  144.5900 N   0  0  0  0  0  0  0  0  0  0  0  0
  194.4200  175.7120  143.6630 C   0  0  0  0  0  1  0  0  0  0  0  0
  193.3520  176.7580  143.9200 C   0  0  0  0  0  2  0  0  0  0  0  0
  192.7370  175.4460  145.7500 C   0  0  0  0  0  2  0  0  0  0  0  0
  192.6200  176.3350  146.9710 C   0  0  0  0  0  2  0  0  0  0  0  0
  191.1590  176.5640  147.2900 C   0  0  0  0  0  2  0  0  0  0  0  0
  190.5550  175.2840  147.8310 C   0  0  0  0  0  2  0  0  0  0  0  0
  189.3350  174.9310  147.0570 C   0  0  0  0  0  0  0  0  0  0  0  0
  188.3140  175.6620  147.1290 O   0  0  0  0  0  1  0  0  0  0  0  0
  189.3230  173.8020  146.2480 O   0  0  0  0  0  0  0  0  0  0  0  0
  1  4  1  0  0  0  0
  2  8  1  0  0  0  0
  2  3  1  0  0  0  0
  3  9  1  1  0  0  0
  3 10  1  0  0  0  0
  4 11  2  0  0  0  0
  5 21  1  0  0  0  0
  5  7  1  0  0  0  0
  6  1  1  0  0  0  0
  8  5  2  0  0  0  0
  9  1  2  0  0  0  0
 10  7  2  0  0  0  0
 10 11  1  0  0  0  0
 12 14  1  0  0  0  0
 12  8  1  1  0  0  0
 13 14  1  0  0  0  0
 15 13  1  0  0  0  0
 17 12  1  0  0  0  0
 18 16  1  1  0  0  0
 18 15  1  0  0  0  0
 18 17  1  0  0  0  0
 19 17  1  0  0  0  0
 20 19  1  0  0  0  0
 21 22  1  0  0  0  0
 22 25  1  0  0  0  0
 23 24  1  0  0  0  0
 24 22  1  0  0  0  0
 25 26  1  0  0  0  0
 26 27  1  0  0  0  0
 27 28  1  0  0  0  0
 29 30  1  0  0  0  0
 29 28  1  0  0  0  0
 31 29  2  0  0  0  0
M  END
>  <MODEL>
6

>  <REMARK>
 VINA RESULT:      -5.5      3.173      6.424
  Name = 
  10 active torsions:
  status: ('A' for Active; 'I' for Inactive)
    1  A    between atoms: C_1  and  C_24
    2  A    between atoms: C_5  and  C_21
    3  A    between atoms: C_6  and  C_7
    4  A    between atoms: C_6  and  C_19
    5  A    between atoms: C_7  and  N_9
    6  A    between atoms: N_9  and  C_22
    7  A    between atoms: N_9  and  C_23
    8  A    between atoms: C_15  and  C_23
    9  A    between atoms: O_17  and  N_30
   10  A    between atoms: C_19  and  C_24
                            x       y       z     vdW  Elec       q    Type
                         _______ _______ _______ _____ _____    ______ ____

>  <TORSDO>
F 10

$$$$
=
 OpenBabel11052417593D

 31 33  0  0  1  0  0  0  0  0999 V2000
  186.1310  178.1540  144.5750 C   0  0  0  0  0  0  0  0  0  0  0  0
  189.6470  176.9120  144.7110 O   0  0  0  0  0  0  0  0  0  0  0  0
  188.3000  177.0560  144.3740 C   0  0  0  0  0  0  0  0  0  0  0  0
  185.5490  177.3460  143.6800 C   0  0  0  0  0  3  0  0  0  0  0  0
  189.8820  175.0920  143.1930 C   0  0  0  0  0  0  0  0  0  0  0  0
  185.1880  179.4250  145.3230 Cl  0  0  0  0  0  0  0  0  0  0  0  0
  188.4920  175.2310  142.8410 N   0  0  0  0  0  0  0  0  0  0  0  0
  190.4380  175.9270  144.0960 C   0  0  0  0  0  0  0  0  0  0  0  0
  187.5510  178.0010  144.9370 C   0  0  0  0  0  3  0  0  0  0  0  0
  187.7280  176.1380  143.3740 C   0  0  0  0  0  0  0  0  0  0  0  0
  186.2790  176.2230  142.9870 C   0  0  0  0  0  2  0  0  0  0  0  0
  191.8810  175.8080  144.4840 C   0  0  1  0  0  3  0  0  0  0  0  0
  194.2390  177.1650  145.2450 S   0  0  0  0  0  0  0  0  0  0  0  0
  192.5940  177.1680  144.4360 C   0  0  0  0  0  2  0  0  0  0  0  0
  194.4760  175.3630  145.1720 C   0  0  0  0  0  2  0  0  0  0  0  0
  193.4840  173.1540  145.7470 C   0  0  0  0  0  1  0  0  0  0  0  0
  192.0290  175.1180  145.7770 N   0  0  0  0  0  0  0  0  0  0  0  0
  193.4070  174.6450  146.0030 C   0  0  2  0  0  3  0  0  0  0  0  0
  191.7120  175.9720  146.7870 O   0  0  0  0  0  0  0  0  0  0  0  0
  190.8440  175.2510  147.6090 C   0  0  0  0  0  1  0  0  0  0  0  0
  190.6840  174.0310  142.5080 C   0  0  0  0  0  2  0  0  0  0  0  0
  189.9920  172.7540  142.5950 N   0  0  0  0  0  0  0  0  0  0  0  0
  189.6980  172.2040  144.9450 C   0  0  0  0  0  1  0  0  0  0  0  0
  190.5680  172.0270  143.7150 C   0  0  0  0  0  2  0  0  0  0  0  0
  190.3340  172.0130  141.3920 C   0  0  0  0  0  2  0  0  0  0  0  0
  190.3470  172.9570  140.2070 C   0  0  0  0  0  2  0  0  0  0  0  0
  189.5180  172.3700  139.0860 C   0  0  0  0  0  2  0  0  0  0  0  0
  188.2010  173.1120  138.9920 C   0  0  0  0  0  2  0  0  0  0  0  0
  188.2780  174.1520  137.9310 C   0  0  0  0  0  0  0  0  0  0  0  0
  187.4170  175.0700  137.8890 O   0  0  0  0  0  1  0  0  0  0  0  0
  189.3030  174.1200  136.9940 O   0  0  0  0  0  0  0  0  0  0  0  0
  1  9  1  0  0  0  0
  1  6  1  0  0  0  0
  3  2  1  0  0  0  0
  3  9  2  0  0  0  0
  4  1  2  0  0  0  0
  5  8  2  0  0  0  0
  7  5  1  0  0  0  0
  7 10  2  0  0  0  0
  8  2  1  0  0  0  0
 10  3  1  0  0  0  0
 11 10  1  0  0  0  0
 11  4  1  0  0  0  0
 12  8  1  1  0  0  0
 12 17  1  0  0  0  0
 14 12  1  0  0  0  0
 14 13  1  0  0  0  0
 15 13  1  0  0  0  0
 15 18  1  0  0  0  0
 17 18  1  0  0  0  0
 17 19  1  0  0  0  0
 18 16  1  6  0  0  0
 19 20  1  0  0  0  0
 21 22  1  0  0  0  0
 21  5  1  0  0  0  0
 22 24  1  0  0  0  0
 24 23  1  0  0  0  0
 25 22  1  0  0  0  0
 26 25  1  0  0  0  0
 27 26  1  0  0  0  0
 28 27  1  0  0  0  0
 29 28  1  0  0  0  0
 30 29  1  0  0  0  0
 31 29  2  0  0  0  0
M  END
>  <MODEL>
7

>  <REMARK>
 VINA RESULT:      -5.5      3.447      6.815
  Name = 
  10 active torsions:
  status: ('A' for Active; 'I' for Inactive)
    1  A    between atoms: C_1  and  C_24
    2  A    between atoms: C_5  and  C_21
    3  A    between atoms: C_6  and  C_7
    4  A    between atoms: C_6  and  C_19
    5  A    between atoms: C_7  and  N_9
    6  A    between atoms: N_9  and  C_22
    7  A    between atoms: N_9  and  C_23
    8  A    between atoms: C_15  and  C_23
    9  A    between atoms: O_17  and  N_30
   10  A    between atoms: C_19  and  C_24
                            x       y       z     vdW  Elec       q    Type
                         _______ _______ _______ _____ _____    ______ ____

>  <TORSDO>
F 10

$$$$
=
 OpenBabel11052417593D

 31 33  0  0  1  0  0  0  0  0999 V2000
  186.8760  176.2050  138.7160 C   0  0  0  0  0  0  0  0  0  0  0  0
  189.0270  174.4390  141.2030 O   0  0  0  0  0  0  0  0  0  0  0  0
  188.1370  175.3420  140.6180 C   0  0  1  0  0  3  0  0  0  0  0  0
  186.3170  177.1880  139.4300 C   0  0  0  0  0  3  0  0  0  0  0  0
  188.7950  175.5070  143.3190 C   0  0  0  0  0  0  0  0  0  0  0  0
  186.4710  176.0390  137.0210 Cl  0  0  0  0  0  0  0  0  0  0  0  0
  187.8780  176.4450  142.7240 N   0  0  0  0  0  0  0  0  0  0  0  0
  189.3390  174.5240  142.5700 C   0  0  0  0  0  0  0  0  0  0  0  0
  187.8210  175.2540  139.3280 C   0  0  0  0  0  3  0  0  0  0  0  0
  187.5500  176.3940  141.4670 C   0  0  0  0  0  0  0  0  0  0  0  0
  186.6070  177.4120  140.8930 C   0  0  0  0  0  3  0  0  0  0  0  0
  190.2970  173.5330  143.1590 C   0  0  1  0  0  3  0  0  0  0  0  0
  191.6290  171.0620  142.8390 S   0  0  0  0  0  0  0  0  0  0  0  0
  190.2420  172.1860  142.4230 C   0  0  0  0  0  2  0  0  0  0  0  0
  192.0630  171.8800  144.4060 C   0  0  0  0  0  2  0  0  0  0  0  0
  192.6610  174.0470  145.4730 C   0  0  0  0  0  1  0  0  0  0  0  0
  191.6560  174.0950  143.2450 N   0  0  0  0  0  0  0  0  0  0  0  0
  192.5230  173.3200  144.1510 C   0  0  2  0  0  3  0  0  0  0  0  0
  192.2300  174.0860  142.0130 O   0  0  0  0  0  0  0  0  0  0  0  0
  192.9180  175.2980  141.9270 C   0  0  0  0  0  1  0  0  0  0  0  0
  189.0930  175.6350  144.7790 C   0  0  0  0  0  2  0  0  0  0  0  0
  189.3180  177.0330  145.1170 N   0  0  0  0  0  0  0  0  0  0  0  0
  191.0190  178.2640  143.8910 C   0  0  0  0  0  1  0  0  0  0  0  0
  190.7470  177.2770  145.0110 C   0  0  0  0  0  2  0  0  0  0  0  0
  188.9690  177.1820  146.5210 C   0  0  0  0  0  2  0  0  0  0  0  0
  187.7800  176.3000  146.8400 C   0  0  0  0  0  2  0  0  0  0  0  0
  186.5220  177.1410  146.8720 C   0  0  0  0  0  2  0  0  0  0  0  0
  185.6520  176.7920  145.6810 C   0  0  0  0  0  2  0  0  0  0  0  0
  184.8900  177.9900  145.2390 C   0  0  0  0  0  0  0  0  0  0  0  0
  184.9790  178.3850  144.0480 O   0  0  0  0  0  0  0  0  0  0  0  0
  184.0720  178.6670  146.1350 O   0  0  0  0  0  1  0  0  0  0  0  0
  1  9  2  0  0  0  0
  1  4  1  0  0  0  0
  2  8  1  0  0  0  0
  3  9  1  1  0  0  0
  3  2  1  0  0  0  0
  3 10  1  0  0  0  0
  4 11  2  0  0  0  0
  5 21  1  0  0  0  0
  6  1  1  0  0  0  0
  7  5  1  0  0  0  0
  8  5  2  0  0  0  0
 10  7  2  0  0  0  0
 11 10  1  0  0  0  0
 12  8  1  6  0  0  0
 12 17  1  0  0  0  0
 13 15  1  0  0  0  0
 14 13  1  0  0  0  0
 14 12  1  0  0  0  0
 17 18  1  0  0  0  0
 18 15  1  0  0  0  0
 18 16  1  1  0  0  0
 19 17  1  0  0  0  0
 20 19  1  0  0  0  0
 21 22  1  0  0  0  0
 22 25  1  0  0  0  0
 23 24  1  0  0  0  0
 24 22  1  0  0  0  0
 25 26  1  0  0  0  0
 26 27  1  0  0  0  0
 28 27  1  0  0  0  0
 29 28  1  0  0  0  0
 29 31  1  0  0  0  0
 30 29  2  0  0  0  0
M  END
>  <MODEL>
8

>  <REMARK>
 VINA RESULT:      -5.5      2.465      4.099
  Name = 
  10 active torsions:
  status: ('A' for Active; 'I' for Inactive)
    1  A    between atoms: C_1  and  C_24
    2  A    between atoms: C_5  and  C_21
    3  A    between atoms: C_6  and  C_7
    4  A    between atoms: C_6  and  C_19
    5  A    between atoms: C_7  and  N_9
    6  A    between atoms: N_9  and  C_22
    7  A    between atoms: N_9  and  C_23
    8  A    between atoms: C_15  and  C_23
    9  A    between atoms: O_17  and  N_30
   10  A    between atoms: C_19  and  C_24
                            x       y       z     vdW  Elec       q    Type
                         _______ _______ _______ _____ _____    ______ ____

>  <TORSDO>
F 10

$$$$
=
 OpenBabel11052417593D

 31 33  0  0  1  0  0  0  0  0999 V2000
  185.0350  177.8820  143.1930 C   0  0  0  0  0  0  0  0  0  0  0  0
  187.8380  175.4470  142.8170 O   0  0  0  0  0  0  0  0  0  0  0  0
  187.0210  176.4690  143.3040 C   0  0  1  0  0  3  0  0  0  0  0  0
  185.3550  178.5560  144.3040 C   0  0  0  0  0  3  0  0  0  0  0  0
  189.3640  175.7430  144.6220 C   0  0  0  0  0  0  0  0  0  0  0  0
  183.5570  178.2790  142.3440 Cl  0  0  0  0  0  0  0  0  0  0  0  0
  188.5280  176.8010  145.1300 N   0  0  0  0  0  0  0  0  0  0  0  0
  189.0100  175.0800  143.5000 C   0  0  0  0  0  0  0  0  0  0  0  0
  185.8990  176.8070  142.6730 C   0  0  0  0  0  3  0  0  0  0  0  0
  187.4290  177.1620  144.5380 C   0  0  0  0  0  0  0  0  0  0  0  0
  186.6070  178.2880  145.0990 C   0  0  0  0  0  3  0  0  0  0  0  0
  189.8570  173.9760  142.9460 C   0  0  1  0  0  3  0  0  0  0  0  0
  190.0730  171.2110  142.4060 S   0  0  0  0  0  0  0  0  0  0  0  0
  189.3170  172.5940  143.3430 C   0  0  0  0  0  2  0  0  0  0  0  0
  191.5540  172.1310  141.8850 C   0  0  0  0  0  2  0  0  0  0  0  0
  192.3780  174.1880  140.7520 C   0  0  0  0  0  1  0  0  0  0  0  0
  190.0490  174.1310  141.4930 N   0  0  0  0  0  0  0  0  0  0  0  0
  191.1650  173.3110  140.9870 C   0  0  2  0  0  3  0  0  0  0  0  0
  188.9210  173.7430  140.8420 O   0  0  0  0  0  0  0  0  0  0  0  0
  189.2480  173.8060  139.4850 C   0  0  0  0  0  1  0  0  0  0  0  0
  190.5990  175.3850  145.3860 C   0  0  0  0  0  2  0  0  0  0  0  0
  191.4140  176.5730  145.5930 N   0  0  0  0  0  0  0  0  0  0  0  0
  191.5830  178.2110  143.8030 C   0  0  0  0  0  1  0  0  0  0  0  0
  192.0670  176.8730  144.3290 C   0  0  0  0  0  2  0  0  0  0  0  0
  192.4610  176.2010  146.5310 C   0  0  0  0  0  2  0  0  0  0  0  0
  193.3940  175.2060  145.8730 C   0  0  0  0  0  2  0  0  0  0  0  0
  194.8280  175.6240  146.1130 C   0  0  0  0  0  2  0  0  0  0  0  0
  195.7070  175.0610  145.0150 C   0  0  0  0  0  2  0  0  0  0  0  0
  195.7100  175.9790  143.8450 C   0  0  0  0  0  0  0  0  0  0  0  0
  195.0490  175.6840  142.8150 O   0  0  0  0  0  0  0  0  0  0  0  0
  196.4300  177.1660  143.8900 O   0  0  0  0  0  1  0  0  0  0  0  0
  1  4  1  0  0  0  0
  2  3  1  0  0  0  0
  2  8  1  0  0  0  0
  3  9  1  1  0  0  0
  3 10  1  0  0  0  0
  4 11  2  0  0  0  0
  5  7  1  0  0  0  0
  5 21  1  0  0  0  0
  6  1  1  0  0  0  0
  8  5  2  0  0  0  0
  9  1  2  0  0  0  0
 10 11  1  0  0  0  0
 10  7  2  0  0  0  0
 12 14  1  0  0  0  0
 12  8  1  6  0  0  0
 13 14  1  0  0  0  0
 15 13  1  0  0  0  0
 17 12  1  0  0  0  0
 18 16  1  1  0  0  0
 18 17  1  0  0  0  0
 18 15  1  0  0  0  0
 19 17  1  0  0  0  0
 20 19  1  0  0  0  0
 21 22  1  0  0  0  0
 22 25  1  0  0  0  0
 23 24  1  0  0  0  0
 24 22  1  0  0  0  0
 26 27  1  0  0  0  0
 26 25  1  0  0  0  0
 28 27  1  0  0  0  0
 29 31  1  0  0  0  0
 29 28  1  0  0  0  0
 30 29  2  0  0  0  0
M  END
>  <MODEL>
9

>  <REMARK>
 VINA RESULT:      -5.5      3.255      7.288
  Name = 
  10 active torsions:
  status: ('A' for Active; 'I' for Inactive)
    1  A    between atoms: C_1  and  C_24
    2  A    between atoms: C_5  and  C_21
    3  A    between atoms: C_6  and  C_7
    4  A    between atoms: C_6  and  C_19
    5  A    between atoms: C_7  and  N_9
    6  A    between atoms: N_9  and  C_22
    7  A    between atoms: N_9  and  C_23
    8  A    between atoms: C_15  and  C_23
    9  A    between atoms: O_17  and  N_30
   10  A    between atoms: C_19  and  C_24
                            x       y       z     vdW  Elec       q    Type
                         _______ _______ _______ _____ _____    ______ ____

>  <TORSDO>
F 10

$$$$
